ligand_63_pose_13_2HRL.pdbqt
 OpenBabel07062320523D

 51 52  0  0  1  0  0  0  0  0999 V2000
   28.2540   29.1970   18.7630 N   0  0  0  0  0  0  0  0  0  0  0  0
   26.9600   29.3270   18.1540 C   0  0  0  0  0  0  0  0  0  0  0  0
   25.9350   29.4480   18.8320 O   0  0  0  0  0  0  0  0  0  0  0  0
   29.0460   29.1240   18.0410 H   0  0  0  0  0  0  0  0  0  0  0  0
   28.5010   29.2100   20.1250 C   0  0  0  0  0  0  0  0  0  0  0  0
   29.1980   27.9770   20.7510 C   0  0  2  0  0  0  0  0  0  0  0  0
   30.5960   28.4190   20.9540 C   0  0  1  0  0  0  0  0  0  0  0  0
   31.5170   27.6020   21.7860 C   0  0  2  0  0  0  0  0  0  0  0  0
   30.7620   26.8310   23.8760 C   0  0  2  0  0  0  0  0  0  0  0  0
   32.1500   26.6220   24.4290 C   0  0  0  0  0  0  0  0  0  0  0  0
   30.7180   26.6600   22.4900 O   0  0  0  0  0  0  0  0  0  0  0  0
   33.2040   27.1270   23.4220 C   0  0  1  0  0  0  0  0  0  0  0  0
   32.4630   28.2650   22.6790 C   0  0  1  0  0  0  0  0  0  0  0  0
   30.2410   28.0380   24.3130 O   0  0  0  0  0  0  0  0  0  0  0  0
   30.5510   28.3260   25.1850 H   0  0  0  0  0  0  0  0  0  0  0  0
   29.9480   25.7140   24.3990 C   0  0  0  0  0  0  0  0  0  0  0  0
   30.2320   24.7460   24.9930 O   0  0  0  0  0  0  0  0  0  0  0  0
   28.5110   25.8930   24.0970 O   0  0  0  0  0  0  0  0  0  0  0  0
   27.9620   26.3350   24.8380 H   0  0  0  0  0  0  0  0  0  0  0  0
   34.3240   27.5870   24.0650 O   0  0  0  0  0  0  0  0  0  0  0  0
   34.1040   28.2140   24.7760 H   0  0  0  0  0  0  0  0  0  0  0  0
   33.4930   29.0510   21.9840 N   0  0  0  0  0  0  0  0  0  0  0  0
   33.5450   30.4350   22.2110 C   0  0  0  0  0  0  0  0  0  0  0  0
   34.1470   28.5910   21.3800 H   0  0  0  0  0  0  0  0  0  0  0  0
   34.3710   31.5010   21.7800 C   0  0  0  0  0  0  0  0  0  0  0  0
   32.5440   30.7740   23.0730 O   0  0  0  0  0  0  0  0  0  0  0  0
   31.1100   28.9970   19.8290 O   0  0  0  0  0  0  0  0  0  0  0  0
   31.1130   28.3830   19.0480 H   0  0  0  0  0  0  0  0  0  0  0  0
   28.9560   26.9500   19.8840 O   0  0  0  0  0  0  0  0  0  0  0  0
   28.9000   26.0980   20.3860 H   0  0  0  0  0  0  0  0  0  0  0  0
   26.8720   29.3190   16.7610 O   0  0  0  0  0  0  0  0  0  0  0  0
   26.7370   30.5500   16.0190 C   0  0  0  0  0  0  0  0  0  0  0  0
   28.1290   31.1300   16.0820 C   0  0  0  0  0  0  0  0  0  0  0  0
   28.4680   32.3890   16.4790 C   0  0  0  0  0  0  0  0  0  0  0  0
   29.2480   30.4490   15.8360 N   0  0  0  0  0  0  0  0  0  0  0  0
   29.8360   32.4230   16.4650 N   0  0  0  0  0  0  0  0  0  0  0  0
   30.2710   31.2190   16.0680 N   0  0  0  0  0  0  0  0  0  0  0  0
   30.6540   33.4910   16.8200 C   0  0  0  0  0  0  0  0  0  0  0  0
   31.0380   34.4360   15.8640 N   0  0  0  0  0  0  0  0  0  0  0  0
   31.2380   33.6860   18.0540 C   0  0  0  0  0  0  0  0  0  0  0  0
   31.8540   35.3560   16.1660 C   0  0  0  0  0  0  0  0  0  0  0  0
   32.0920   34.6500   18.3540 C   0  0  0  0  0  0  0  0  0  0  0  0
   32.5010   35.6250   17.3990 C   0  0  0  0  0  0  0  0  0  0  0  0
   30.9390   32.6690   19.1360 C   0  0  0  0  0  0  0  0  0  0  0  0
   30.7220   31.9970   19.8580 N   0  0  0  0  0  0  0  0  0  0  0  0
   29.8670   25.5550   16.9770 C   0  0  0  0  0  0  0  0  0  0  0  0
   28.3450   25.7220   17.0260 C   0  0  0  0  0  0  0  0  0  0  0  0
   27.6010   24.4030   16.8850 C   0  0  0  0  0  0  0  0  0  0  0  0
   26.6650   24.1550   18.0350 C   0  0  0  0  0  0  0  0  0  0  0  0
   25.5190   23.2600   17.5750 C   0  0  0  0  0  0  0  0  0  0  0  0
   24.4680   24.0640   16.9070 N   0  0  0  0  0  0  0  0  0  0  0  0
  1  5  1  0  0  0  0
  2  1  1  0  0  0  0
  2  3  2  0  0  0  0
  4  1  1  0  0  0  0
  6  5  1  6  0  0  0
  6  7  1  0  0  0  0
  7 27  1  6  0  0  0
  8  7  1  1  0  0  0
  8 11  1  0  0  0  0
  8 13  1  0  0  0  0
  9 14  1  1  0  0  0
  9 16  1  0  0  0  0
  9 10  1  0  0  0  0
 11  9  1  0  0  0  0
 12 20  1  1  0  0  0
 12 10  1  0  0  0  0
 13 22  1  6  0  0  0
 13 12  1  0  0  0  0
 14 15  1  0  0  0  0
 16 17  2  0  0  0  0
 18 16  1  0  0  0  0
 18 19  1  0  0  0  0
 20 21  1  0  0  0  0
 22 23  1  0  0  0  0
 23 26  2  0  0  0  0
 24 22  1  0  0  0  0
 25 23  1  0  0  0  0
 28 27  1  0  0  0  0
 29 30  1  0  0  0  0
 29  6  1  0  0  0  0
 31  2  1  0  0  0  0
 32 33  1  0  0  0  0
 32 31  1  0  0  0  0
 33 34  2  0  0  0  0
 35 37  2  0  0  0  0
 35 33  1  0  0  0  0
 36 34  1  0  0  0  0
 36 38  1  0  0  0  0
 37 36  1  0  0  0  0
 38 40  2  0  0  0  0
 39 41  2  0  0  0  0
 39 38  1  0  0  0  0
 40 42  1  0  0  0  0
 40 44  1  0  0  0  0
 41 43  1  0  0  0  0
 43 42  2  0  0  0  0
 44 45  3  0  0  0  0
 46 47  1  0  0  0  0
 48 47  1  0  0  0  0
 48 49  1  0  0  0  0
 50 49  1  0  0  0  0
 51 50  1  0  0  0  0
M  END
>  <REMARK>
 VINA RESULT:    -4.088      7.949     12.726
 INTER + INTRA:         -14.356
 INTER:                  -8.418
 INTRA:                  -5.939
 UNBOUND:                -7.042
 SMILES CC(=O)N[C@@H]1[C@@H](O)C[C@](O)(C(=O)O)O[C@H]1C(O)[C@H](O)CNC(=O)OCc1cn(-c2ncccc2C#N)nn1
 SMILES IDX 21 1 22 2 23 3 20 5 18 6 16 7 15 8 9 9 8 10 14 11 6 12 5 13
 SMILES IDX 10 14 11 16 12 17 13 18 7 20 4 22 2 23 1 25 3 26 17 27 19 29
 SMILES IDX 24 31 25 32 26 33 27 34 38 35 28 36 37 37 29 38 30 39 34 40
 SMILES IDX 31 41 33 42 32 43 35 44 36 45
 H PARENT 21 4 10 15 13 19 7 21 4 24 17 28 19 30
 Flexibility Score: inf
  4 active torsions:
  status: ('A' for Active; 'I' for Inactive)
    1  A    between atoms: CA   and  CB  
    2  A    between atoms: CB   and  CG  
    3  A    between atoms: CG   and  CD  
    4  A    between atoms: CD   and  CE  

>  <TORSDO>
F 16

>  <BEGIN_>
RES LYS A 131

$$$$
ligand_63_pose_13_2HRL.pdbqt
 OpenBabel07062320523D

  6  5  0  0  0  0  0  0  0  0999 V2000
   33.1930   34.6630    9.2900 C   0  0  0  0  0  0  0  0  0  0  0  0
   32.0600   35.3600   10.0340 C   0  0  0  0  0  0  0  0  0  0  0  0
   30.6910   34.8560    9.6560 C   0  0  0  0  0  0  0  0  0  0  0  0
   30.6200   34.5620    8.1660 C   0  0  0  0  0  0  0  0  0  0  0  0
   29.2950   35.0300    7.5940 C   0  0  0  0  0  0  0  0  0  0  0  0
   29.1450   36.5060    7.7240 N   0  0  0  0  0  0  0  0  0  0  0  0
  1  2  1  0  0  0  0
  3  2  1  0  0  0  0
  4  3  1  0  0  0  0
  5  6  1  0  0  0  0
  5  4  1  0  0  0  0
M  END
>  <EGIN_R>
ES LYS A 135

>  <REMARK>
  4 active torsions:
  status: ('A' for Active; 'I' for Inactive)
    5  A    between atoms: CA   and  CB  
    6  A    between atoms: CB   and  CG  
    7  A    between atoms: CG   and  CD  
    8  A    between atoms: CD   and  CE  

$$$$
