ligand_5_pose_4_2HRL.pdbqt
 OpenBabel07062320523D

 51 52  0  0  1  0  0  0  0  0999 V2000
   25.0050   28.9330   19.0960 N   0  0  0  0  0  0  0  0  0  0  0  0
   25.1640   30.2820   18.7120 C   0  0  0  0  0  0  0  0  0  0  0  0
   25.6500   31.1350   19.4690 O   0  0  0  0  0  0  0  0  0  0  0  0
   24.5470   28.3130   18.3520 H   0  0  0  0  0  0  0  0  0  0  0  0
   25.3650   28.3080   20.3040 C   0  0  0  0  0  0  0  0  0  0  0  0
   26.7310   27.8300   20.5050 C   0  0  2  0  0  0  0  0  0  0  0  0
   27.7660   28.1600   19.5510 C   0  0  1  0  0  0  0  0  0  0  0  0
   29.1920   28.3260   20.1190 C   0  0  2  0  0  0  0  0  0  0  0  0
   30.2810   27.0850   21.8030 C   0  0  2  0  0  0  0  0  0  0  0  0
   29.9870   28.1830   22.8380 C   0  0  0  0  0  0  0  0  0  0  0  0
   29.3340   27.1690   20.8650 O   0  0  0  0  0  0  0  0  0  0  0  0
   30.2000   29.4700   22.1380 C   0  0  1  0  0  0  0  0  0  0  0  0
   29.4330   29.5870   20.8080 C   0  0  1  0  0  0  0  0  0  0  0  0
   29.9990   25.8910   22.5220 O   0  0  0  0  0  0  0  0  0  0  0  0
   29.3690   26.0650   23.2630 H   0  0  0  0  0  0  0  0  0  0  0  0
   31.6670   27.0320   21.3850 C   0  0  0  0  0  0  0  0  0  0  0  0
   32.5880   26.9960   22.2400 O   0  0  0  0  0  0  0  0  0  0  0  0
   32.1160   27.0150   20.0630 O   0  0  0  0  0  0  0  0  0  0  0  0
   32.0290   27.8250   19.4450 H   0  0  0  0  0  0  0  0  0  0  0  0
   29.8380   30.5930   22.8980 O   0  0  0  0  0  0  0  0  0  0  0  0
   30.2420   30.4260   23.8070 H   0  0  0  0  0  0  0  0  0  0  0  0
   30.1860   30.5900   20.1200 N   0  0  0  0  0  0  0  0  0  0  0  0
   29.8650   31.9380   19.9580 C   0  0  0  0  0  0  0  0  0  0  0  0
   31.0960   30.2480   19.6870 H   0  0  0  0  0  0  0  0  0  0  0  0
   30.7560   32.8720   19.2020 C   0  0  0  0  0  0  0  0  0  0  0  0
   28.8080   32.3320   20.4640 O   0  0  0  0  0  0  0  0  0  0  0  0
   27.7640   27.2460   18.5020 O   0  0  0  0  0  0  0  0  0  0  0  0
   27.9890   26.3290   18.8010 H   0  0  0  0  0  0  0  0  0  0  0  0
   26.7060   26.4490   20.8510 O   0  0  0  0  0  0  0  0  0  0  0  0
   27.1140   25.9120   20.1210 H   0  0  0  0  0  0  0  0  0  0  0  0
   24.7720   30.7250   17.4320 O   0  0  0  0  0  0  0  0  0  0  0  0
   25.2060   30.0270   16.2910 C   0  0  0  0  0  0  0  0  0  0  0  0
   26.6540   30.2180   16.1140 C   0  0  0  0  0  0  0  0  0  0  0  0
   27.2390   31.4500   15.8010 C   0  0  0  0  0  0  0  0  0  0  0  0
   27.6720   29.3660   16.1960 N   0  0  0  0  0  0  0  0  0  0  0  0
   28.5710   31.2770   15.7120 N   0  0  0  0  0  0  0  0  0  0  0  0
   28.7950   29.9890   15.9600 N   0  0  0  0  0  0  0  0  0  0  0  0
   29.5500   32.2630   15.4150 C   0  0  0  0  0  0  0  0  0  0  0  0
   30.8910   32.0900   15.6710 C   0  0  0  0  0  0  0  0  0  0  0  0
   29.1760   33.4760   14.8320 C   0  0  0  0  0  0  0  0  0  0  0  0
   31.8340   33.0660   15.3700 C   0  0  0  0  0  0  0  0  0  0  0  0
   30.1150   34.4450   14.5350 C   0  0  0  0  0  0  0  0  0  0  0  0
   31.4510   34.2560   14.7970 C   0  0  0  0  0  0  0  0  0  0  0  0
   32.3790   35.2090   14.5040 O   0  0  0  0  0  0  0  0  0  0  0  0
   32.2030   36.5300   14.9670 C   0  0  0  0  0  0  0  0  0  0  0  0
   29.8670   25.5550   16.9770 C   0  0  0  0  0  0  0  0  0  0  0  0
   28.3450   25.7220   17.0260 C   0  0  0  0  0  0  0  0  0  0  0  0
   27.5990   24.4750   16.5760 C   0  0  0  0  0  0  0  0  0  0  0  0
   27.1770   23.6180   17.7360 C   0  0  0  0  0  0  0  0  0  0  0  0
   25.7440   23.9630   18.1290 C   0  0  0  0  0  0  0  0  0  0  0  0
   24.9710   24.3980   16.9420 N   0  0  0  0  0  0  0  0  0  0  0  0
  1  5  1  0  0  0  0
  2  1  1  0  0  0  0
  2  3  2  0  0  0  0
  4  1  1  0  0  0  0
  6  5  1  6  0  0  0
  6 29  1  0  0  0  0
  7 27  1  6  0  0  0
  7  6  1  0  0  0  0
  8  7  1  1  0  0  0
  8 13  1  0  0  0  0
  8 11  1  0  0  0  0
  9 16  1  6  0  0  0
  9 14  1  0  0  0  0
  9 10  1  0  0  0  0
 11  9  1  0  0  0  0
 12 10  1  0  0  0  0
 12 20  1  1  0  0  0
 13 22  1  6  0  0  0
 13 12  1  0  0  0  0
 14 15  1  0  0  0  0
 16 17  2  0  0  0  0
 18 16  1  0  0  0  0
 19 18  1  0  0  0  0
 20 21  1  0  0  0  0
 23 22  1  0  0  0  0
 23 26  2  0  0  0  0
 24 22  1  0  0  0  0
 25 23  1  0  0  0  0
 27 28  1  0  0  0  0
 30 29  1  0  0  0  0
 31  2  1  0  0  0  0
 32 31  1  0  0  0  0
 33 35  1  0  0  0  0
 33 32  1  0  0  0  0
 34 33  2  0  0  0  0
 36 34  1  0  0  0  0
 36 37  1  0  0  0  0
 37 35  2  0  0  0  0
 38 39  1  0  0  0  0
 38 36  1  0  0  0  0
 40 38  2  0  0  0  0
 41 39  2  0  0  0  0
 42 43  2  0  0  0  0
 42 40  1  0  0  0  0
 43 41  1  0  0  0  0
 44 43  1  0  0  0  0
 44 45  1  0  0  0  0
 46 47  1  0  0  0  0
 48 47  1  0  0  0  0
 48 49  1  0  0  0  0
 49 50  1  0  0  0  0
 51 50  1  0  0  0  0
M  END
>  <REMARK>
 VINA RESULT:    -5.325      2.766      3.699
 INTER + INTRA:         -14.754
 INTER:                  -9.282
 INTRA:                  -5.472
 UNBOUND:                -5.226
 SMILES COc1ccc(-n2cc(COC(=O)NC[C@@H](O)C(O)[C@@H]3O[C@@](O)(C(=O)O)C[C@H](O)[C@H]3NC(C)=O)nn2)cc1
 SMILES IDX 14 1 12 2 13 3 15 5 16 6 18 7 20 8 22 9 27 10 21 11 28 12
 SMILES IDX 30 13 23 14 24 16 25 17 26 18 29 20 31 22 32 23 33 25 34 26
 SMILES IDX 19 27 17 29 11 31 10 32 9 33 8 34 35 35 7 36 36 37 6 38 5 39
 SMILES IDX 37 40 4 41 38 42 3 43 2 44 1 45
 H PARENT 14 4 23 15 26 19 29 21 31 24 19 28 17 30
 Flexibility Score: inf
  4 active torsions:
  status: ('A' for Active; 'I' for Inactive)
    1  A    between atoms: CA   and  CB  
    2  A    between atoms: CB   and  CG  
    3  A    between atoms: CG   and  CD  
    4  A    between atoms: CD   and  CE  

>  <TORSDO>
F 16

>  <BEGIN_>
RES LYS A 131

$$$$
ligand_5_pose_4_2HRL.pdbqt
 OpenBabel07062320523D

  6  5  0  0  0  0  0  0  0  0999 V2000
   33.1930   34.6630    9.2900 C   0  0  0  0  0  0  0  0  0  0  0  0
   32.0600   35.3600   10.0340 C   0  0  0  0  0  0  0  0  0  0  0  0
   30.7600   35.3760    9.2730 C   0  0  0  0  0  0  0  0  0  0  0  0
   29.7040   34.5540    9.9960 C   0  0  0  0  0  0  0  0  0  0  0  0
   28.6470   34.0700    9.0220 C   0  0  0  0  0  0  0  0  0  0  0  0
   27.3500   33.8300    9.7140 N   0  0  0  0  0  0  0  0  0  0  0  0
  1  2  1  0  0  0  0
  3  4  1  0  0  0  0
  3  2  1  0  0  0  0
  5  6  1  0  0  0  0
  5  4  1  0  0  0  0
M  END
>  <EGIN_R>
ES LYS A 135

>  <REMARK>
  4 active torsions:
  status: ('A' for Active; 'I' for Inactive)
    5  A    between atoms: CA   and  CB  
    6  A    between atoms: CB   and  CG  
    7  A    between atoms: CG   and  CD  
    8  A    between atoms: CD   and  CE  

$$$$
