ligand_18_pose_12_2HRL.pdbqt
 OpenBabel07062320523D

 54 55  0  0  1  0  0  0  0  0999 V2000
   23.2360   37.5080   10.0950 N   0  0  0  0  0  0  0  0  0  0  0  0
   23.4670   37.3710   11.4800 C   0  0  0  0  0  0  0  0  0  0  0  0
   23.8980   36.2730   11.9090 O   0  0  0  0  0  0  0  0  0  0  0  0
   22.8770   38.4290    9.7610 H   0  0  0  0  0  0  0  0  0  0  0  0
   23.4600   36.4710    9.1070 C   0  0  0  0  0  0  0  0  0  0  0  0
   24.4000   36.9450    8.0350 C   0  0  2  0  0  0  0  0  0  0  0  0
   25.7980   37.1880    8.4920 C   0  0  1  0  0  0  0  0  0  0  0  0
   26.9080   36.7350    7.6200 C   0  0  2  0  0  0  0  0  0  0  0  0
   29.0460   35.8280    7.8990 C   0  0  2  0  0  0  0  0  0  0  0  0
   28.8660   35.6030    6.4090 C   0  0  0  0  0  0  0  0  0  0  0  0
   27.9350   36.3090    8.5250 O   0  0  0  0  0  0  0  0  0  0  0  0
   28.4870   36.9030    5.7900 C   0  0  1  0  0  0  0  0  0  0  0  0
   27.5690   37.7080    6.7320 C   0  0  1  0  0  0  0  0  0  0  0  0
   30.1470   36.6990    8.0110 O   0  0  0  0  0  0  0  0  0  0  0  0
   30.0460   37.4220    7.3330 H   0  0  0  0  0  0  0  0  0  0  0  0
   29.4220   34.5570    8.5720 C   0  0  0  0  0  0  0  0  0  0  0  0
   28.5210   33.8390    9.0540 O   0  0  0  0  0  0  0  0  0  0  0  0
   30.7460   34.1430    8.6820 O   0  0  0  0  0  0  0  0  0  0  0  0
   30.9240   33.3830    9.3400 H   0  0  0  0  0  0  0  0  0  0  0  0
   29.5600   37.6640    5.3820 O   0  0  0  0  0  0  0  0  0  0  0  0
   30.4130   37.1750    5.4950 H   0  0  0  0  0  0  0  0  0  0  0  0
   26.7760   38.5190    5.8850 N   0  0  0  0  0  0  0  0  0  0  0  0
   26.6090   39.8910    6.1660 C   0  0  0  0  0  0  0  0  0  0  0  0
   26.3060   38.1380    5.0520 H   0  0  0  0  0  0  0  0  0  0  0  0
   25.7800   40.7870    5.3020 C   0  0  0  0  0  0  0  0  0  0  0  0
   27.1530   40.4540    7.1740 O   0  0  0  0  0  0  0  0  0  0  0  0
   26.0000   38.3790    9.1740 O   0  0  0  0  0  0  0  0  0  0  0  0
   25.2720   38.6440    9.7490 H   0  0  0  0  0  0  0  0  0  0  0  0
   23.8940   37.9660    7.2410 O   0  0  0  0  0  0  0  0  0  0  0  0
   22.9210   38.0840    7.3330 H   0  0  0  0  0  0  0  0  0  0  0  0
   23.2350   38.4130   12.3880 O   0  0  0  0  0  0  0  0  0  0  0  0
   22.7420   39.6620   11.9420 C   0  0  0  0  0  0  0  0  0  0  0  0
   23.8520   40.3780   11.2540 C   0  0  0  0  0  0  0  0  0  0  0  0
   24.9430   41.0040   11.8200 C   0  0  0  0  0  0  0  0  0  0  0  0
   24.0080   40.5550    9.9320 N   0  0  0  0  0  0  0  0  0  0  0  0
   25.7040   41.5270   10.8470 N   0  0  0  0  0  0  0  0  0  0  0  0
   25.1130   41.2390    9.7080 N   0  0  0  0  0  0  0  0  0  0  0  0
   26.9570   42.2660   11.0690 C   0  0  0  0  0  0  0  0  0  0  0  0
   28.0550   41.2760   10.9760 C   0  0  0  0  0  0  0  0  0  0  0  0
   28.8900   41.2060   11.9380 O   0  0  0  0  0  0  0  0  0  0  0  0
   28.2620   40.3880    9.8950 N   0  0  0  0  0  0  0  0  0  0  0  0
   27.5840   40.4460    9.1140 H   0  0  0  0  0  0  0  0  0  0  0  0
   29.3480   39.4360    9.8470 C   0  0  0  0  0  0  0  0  0  0  0  0
   30.4430   40.0760    9.0160 C   0  0  0  0  0  0  0  0  0  0  0  0
   30.5820   40.1340    7.6960 C   0  0  0  0  0  0  0  0  0  0  0  0
   31.8280   40.9140    9.6330 S   0  0  0  0  0  0  0  0  0  0  0  0
   31.6450   40.7570    7.1440 C   0  0  0  0  0  0  0  0  0  0  0  0
   32.5580   41.3190    8.0480 C   0  0  0  0  0  0  0  0  0  0  0  0
   29.8670   25.5550   16.9770 C   0  0  0  0  0  0  0  0  0  0  0  0
   28.3450   25.7220   17.0260 C   0  0  0  0  0  0  0  0  0  0  0  0
   27.6020   24.3970   16.9450 C   0  0  0  0  0  0  0  0  0  0  0  0
   26.6400   24.2160   18.0860 C   0  0  0  0  0  0  0  0  0  0  0  0
   26.3940   25.5610   18.7620 C   0  0  0  0  0  0  0  0  0  0  0  0
   25.5710   25.3850   19.9820 N   0  0  0  0  0  0  0  0  0  0  0  0
  1  2  1  0  0  0  0
  2  3  2  0  0  0  0
  2 31  1  0  0  0  0
  4  1  1  0  0  0  0
  5  1  1  0  0  0  0
  6  7  1  0  0  0  0
  6  5  1  1  0  0  0
  7 27  1  6  0  0  0
  8  7  1  1  0  0  0
  8 11  1  0  0  0  0
  9 14  1  1  0  0  0
  9 11  1  0  0  0  0
  9 16  1  0  0  0  0
 10  9  1  0  0  0  0
 12 20  1  1  0  0  0
 12 10  1  0  0  0  0
 12 13  1  0  0  0  0
 13 22  1  6  0  0  0
 13  8  1  0  0  0  0
 15 14  1  0  0  0  0
 16 18  1  0  0  0  0
 16 17  2  0  0  0  0
 18 19  1  0  0  0  0
 20 21  1  0  0  0  0
 22 23  1  0  0  0  0
 23 26  2  0  0  0  0
 24 22  1  0  0  0  0
 25 23  1  0  0  0  0
 27 28  1  0  0  0  0
 29 30  1  0  0  0  0
 29  6  1  0  0  0  0
 32 31  1  0  0  0  0
 33 34  2  0  0  0  0
 33 32  1  0  0  0  0
 35 33  1  0  0  0  0
 36 38  1  0  0  0  0
 36 34  1  0  0  0  0
 37 35  2  0  0  0  0
 37 36  1  0  0  0  0
 39 38  1  0  0  0  0
 39 40  2  0  0  0  0
 41 39  1  0  0  0  0
 42 41  1  0  0  0  0
 43 41  1  0  0  0  0
 44 46  1  0  0  0  0
 44 43  1  0  0  0  0
 45 44  2  0  0  0  0
 47 45  1  0  0  0  0
 47 48  2  0  0  0  0
 48 46  1  0  0  0  0
 49 50  1  0  0  0  0
 51 50  1  0  0  0  0
 51 52  1  0  0  0  0
 52 53  1  0  0  0  0
 53 54  1  0  0  0  0
M  END
>  <REMARK>
 VINA RESULT:    -4.182      3.102      5.959
 INTER + INTRA:         -14.760
 INTER:                  -8.213
 INTRA:                  -6.548
 UNBOUND:                -6.788
 SMILES CC(=O)N[C@@H]1[C@@H](O)C[C@](O)(C(=O)O)O[C@H]1C(O)[C@H](O)CNC(=O)OCc1cn(CC(=O)NCc2cccs2)nn1
 SMILES IDX 21 1 22 2 23 3 20 5 18 6 16 7 15 8 9 9 8 10 14 11 6 12 5 13
 SMILES IDX 10 14 11 16 12 17 13 18 7 20 4 22 2 23 1 25 3 26 17 27 19 29
 SMILES IDX 24 31 25 32 26 33 27 34 40 35 28 36 39 37 29 38 30 39 31 40
 SMILES IDX 32 41 33 43 34 44 35 45 38 46 36 47 37 48
 H PARENT 21 4 10 15 13 19 7 21 4 24 17 28 19 30 32 42
 Flexibility Score: inf
  4 active torsions:
  status: ('A' for Active; 'I' for Inactive)
    1  A    between atoms: CA   and  CB  
    2  A    between atoms: CB   and  CG  
    3  A    between atoms: CG   and  CD  
    4  A    between atoms: CD   and  CE  

>  <TORSDO>
F 18

>  <BEGIN_>
RES LYS A 131

$$$$
ligand_18_pose_12_2HRL.pdbqt
 OpenBabel07062320523D

  6  5  0  0  0  0  0  0  0  0999 V2000
   33.1930   34.6630    9.2900 C   0  0  0  0  0  0  0  0  0  0  0  0
   32.0600   35.3600   10.0340 C   0  0  0  0  0  0  0  0  0  0  0  0
   32.4960   36.0140   11.3200 C   0  0  0  0  0  0  0  0  0  0  0  0
   31.4890   35.7440   12.4270 C   0  0  0  0  0  0  0  0  0  0  0  0
   30.0760   35.9950   11.9350 C   0  0  0  0  0  0  0  0  0  0  0  0
   29.1770   34.8620   12.2880 N   0  0  0  0  0  0  0  0  0  0  0  0
  1  2  1  0  0  0  0
  2  3  1  0  0  0  0
  3  4  1  0  0  0  0
  5  6  1  0  0  0  0
  5  4  1  0  0  0  0
M  END
>  <EGIN_R>
ES LYS A 135

>  <REMARK>
  4 active torsions:
  status: ('A' for Active; 'I' for Inactive)
    5  A    between atoms: CA   and  CB  
    6  A    between atoms: CB   and  CG  
    7  A    between atoms: CG   and  CD  
    8  A    between atoms: CD   and  CE  

$$$$
