ligand_9_pose_0_2HRL.pdbqt
 OpenBabel07062320523D

 54 55  0  0  1  0  0  0  0  0999 V2000
   25.8220   27.8020   18.1440 N   0  0  0  0  0  0  0  0  0  0  0  0
   24.5140   28.1300   17.6960 C   0  0  0  0  0  0  0  0  0  0  0  0
   23.5740   28.1090   18.5290 O   0  0  0  0  0  0  0  0  0  0  0  0
   26.5850   27.8270   17.4380 H   0  0  0  0  0  0  0  0  0  0  0  0
   26.0840   27.4480   19.5240 C   0  0  0  0  0  0  0  0  0  0  0  0
   27.5130   27.6290   19.9100 C   0  0  2  0  0  0  0  0  0  0  0  0
   28.0360   29.0070   19.6570 C   0  0  1  0  0  0  0  0  0  0  0  0
   29.4370   29.1810   20.2990 C   0  0  2  0  0  0  0  0  0  0  0  0
   30.8720   28.2020   21.7480 C   0  0  2  0  0  0  0  0  0  0  0  0
   30.8250   29.3490   22.7320 C   0  0  0  0  0  0  0  0  0  0  0  0
   29.6730   28.1060   21.1150 O   0  0  0  0  0  0  0  0  0  0  0  0
   30.4790   30.6540   22.0810 C   0  0  1  0  0  0  0  0  0  0  0  0
   29.5260   30.5210   20.9280 C   0  0  1  0  0  0  0  0  0  0  0  0
   30.9970   27.0360   22.5560 O   0  0  0  0  0  0  0  0  0  0  0  0
   30.8140   27.2200   23.4950 H   0  0  0  0  0  0  0  0  0  0  0  0
   32.0670   28.2850   20.8970 C   0  0  0  0  0  0  0  0  0  0  0  0
   32.9960   29.1430   21.0770 O   0  0  0  0  0  0  0  0  0  0  0  0
   32.1900   27.3710   19.8330 O   0  0  0  0  0  0  0  0  0  0  0  0
   31.3670   26.7970   19.6120 H   0  0  0  0  0  0  0  0  0  0  0  0
   29.9890   31.5220   23.0540 O   0  0  0  0  0  0  0  0  0  0  0  0
   29.0170   31.4160   23.2060 H   0  0  0  0  0  0  0  0  0  0  0  0
   29.7820   31.5210   19.9060 N   0  0  0  0  0  0  0  0  0  0  0  0
   29.2180   32.8230   19.9700 C   0  0  0  0  0  0  0  0  0  0  0  0
   30.4130   31.2510   19.0940 H   0  0  0  0  0  0  0  0  0  0  0  0
   29.5240   33.7910   18.8860 C   0  0  0  0  0  0  0  0  0  0  0  0
   28.4600   33.1660   20.9400 O   0  0  0  0  0  0  0  0  0  0  0  0
   28.1360   29.3600   18.3350 O   0  0  0  0  0  0  0  0  0  0  0  0
   27.6940   30.1910   18.0860 H   0  0  0  0  0  0  0  0  0  0  0  0
   28.3100   26.6280   19.3620 O   0  0  0  0  0  0  0  0  0  0  0  0
   28.1780   25.8120   19.9160 H   0  0  0  0  0  0  0  0  0  0  0  0
   24.2120   28.4740   16.3900 O   0  0  0  0  0  0  0  0  0  0  0  0
   24.1060   29.8220   15.9740 C   0  0  0  0  0  0  0  0  0  0  0  0
   25.3370   30.5650   16.3050 C   0  0  0  0  0  0  0  0  0  0  0  0
   26.4430   30.8080   15.5100 C   0  0  0  0  0  0  0  0  0  0  0  0
   25.6270   31.1660   17.4800 N   0  0  0  0  0  0  0  0  0  0  0  0
   27.3450   31.5290   16.2090 N   0  0  0  0  0  0  0  0  0  0  0  0
   26.8030   31.7270   17.4140 N   0  0  0  0  0  0  0  0  0  0  0  0
   28.6120   32.0020   15.8040 C   0  0  0  0  0  0  0  0  0  0  0  0
   28.7430   33.1250   15.0080 C   0  0  0  0  0  0  0  0  0  0  0  0
   29.7690   31.3630   16.1900 C   0  0  0  0  0  0  0  0  0  0  0  0
   29.9620   33.6210   14.5900 C   0  0  0  0  0  0  0  0  0  0  0  0
   31.0130   31.8400   15.7860 C   0  0  0  0  0  0  0  0  0  0  0  0
   31.0980   32.9570   14.9950 C   0  0  0  0  0  0  0  0  0  0  0  0
   30.0710   34.8080   13.7500 C   0  0  0  0  0  0  0  0  0  0  0  0
   29.7130   34.7460   12.5490 O   0  0  0  0  0  0  0  0  0  0  0  0
   30.5550   36.0160   14.2250 O   0  0  0  0  0  0  0  0  0  0  0  0
   31.8680   36.4690   13.9600 C   0  0  0  0  0  0  0  0  0  0  0  0
   32.5840   36.6560   15.2660 C   0  0  0  0  0  0  0  0  0  0  0  0
   29.8670   25.5550   16.9770 C   0  0  0  0  0  0  0  0  0  0  0  0
   28.3450   25.7220   17.0260 C   0  0  0  0  0  0  0  0  0  0  0  0
   27.5990   24.4390   16.6920 C   0  0  0  0  0  0  0  0  0  0  0  0
   26.9800   23.8110   17.9100 C   0  0  0  0  0  0  0  0  0  0  0  0
   25.5580   23.3660   17.5860 C   0  0  0  0  0  0  0  0  0  0  0  0
   24.8160   24.4540   16.9070 N   0  0  0  0  0  0  0  0  0  0  0  0
  1  5  1  0  0  0  0
  2  1  1  0  0  0  0
  2  3  2  0  0  0  0
  4  1  1  0  0  0  0
  6  5  1  6  0  0  0
  7 27  1  6  0  0  0
  7  6  1  0  0  0  0
  8  7  1  1  0  0  0
  8 13  1  0  0  0  0
  8 11  1  0  0  0  0
  9 16  1  6  0  0  0
  9 14  1  0  0  0  0
  9 10  1  0  0  0  0
 11  9  1  0  0  0  0
 12 10  1  0  0  0  0
 12 20  1  1  0  0  0
 13 22  1  6  0  0  0
 13 12  1  0  0  0  0
 14 15  1  0  0  0  0
 16 17  2  0  0  0  0
 18 16  1  0  0  0  0
 19 18  1  0  0  0  0
 20 21  1  0  0  0  0
 22 23  1  0  0  0  0
 23 26  2  0  0  0  0
 24 22  1  0  0  0  0
 25 23  1  0  0  0  0
 28 27  1  0  0  0  0
 29  6  1  0  0  0  0
 29 30  1  0  0  0  0
 31  2  1  0  0  0  0
 32 33  1  0  0  0  0
 32 31  1  0  0  0  0
 33 35  1  0  0  0  0
 34 36  1  0  0  0  0
 34 33  2  0  0  0  0
 36 37  1  0  0  0  0
 37 35  2  0  0  0  0
 38 40  1  0  0  0  0
 38 36  1  0  0  0  0
 39 38  2  0  0  0  0
 41 43  2  0  0  0  0
 41 39  1  0  0  0  0
 42 40  2  0  0  0  0
 43 42  1  0  0  0  0
 44 46  1  0  0  0  0
 44 41  1  0  0  0  0
 45 44  2  0  0  0  0
 47 46  1  0  0  0  0
 47 48  1  0  0  0  0
 49 50  1  0  0  0  0
 51 50  1  0  0  0  0
 51 52  1  0  0  0  0
 53 52  1  0  0  0  0
 54 53  1  0  0  0  0
M  END
>  <REMARK>
 VINA RESULT:    -5.521      0.000      0.000
 INTER + INTRA:         -16.196
 INTER:                  -9.417
 INTRA:                  -6.779
 UNBOUND:                -5.671
 SMILES CCOC(=O)c1cccc(-n2cc(COC(=O)NC[C@@H](O)C(O)[C@@H]3O[C@@](O)(C(=O)O)C[C@H](O)[C@H]3NC(C)=O)nn2)c1
 SMILES IDX 18 1 16 2 17 3 19 5 20 6 22 7 24 8 26 9 31 10 25 11 32 12
 SMILES IDX 34 13 27 14 28 16 29 17 30 18 33 20 35 22 36 23 37 25 38 26
 SMILES IDX 23 27 21 29 15 31 14 32 13 33 12 34 39 35 11 36 40 37 10 38
 SMILES IDX 41 39 9 40 6 41 8 42 7 43 4 44 5 45 3 46 2 47 1 48
 H PARENT 18 4 27 15 30 19 33 21 35 24 23 28 21 30
 Flexibility Score: inf
  4 active torsions:
  status: ('A' for Active; 'I' for Inactive)
    1  A    between atoms: CA   and  CB  
    2  A    between atoms: CB   and  CG  
    3  A    between atoms: CG   and  CD  
    4  A    between atoms: CD   and  CE  

>  <TORSDO>
F 18

>  <BEGIN_>
RES LYS A 131

$$$$
ligand_9_pose_0_2HRL.pdbqt
 OpenBabel07062320523D

  6  5  0  0  0  0  0  0  0  0999 V2000
   33.1930   34.6630    9.2900 C   0  0  0  0  0  0  0  0  0  0  0  0
   32.0600   35.3600   10.0340 C   0  0  0  0  0  0  0  0  0  0  0  0
   30.7990   35.4960    9.2200 C   0  0  0  0  0  0  0  0  0  0  0  0
   30.1350   34.1410    9.0290 C   0  0  0  0  0  0  0  0  0  0  0  0
   28.6680   34.3120    8.6830 C   0  0  0  0  0  0  0  0  0  0  0  0
   27.7960   33.6920    9.7190 N   0  0  0  0  0  0  0  0  0  0  0  0
  1  2  1  0  0  0  0
  3  2  1  0  0  0  0
  4  3  1  0  0  0  0
  5  4  1  0  0  0  0
  5  6  1  0  0  0  0
M  END
>  <EGIN_R>
ES LYS A 135

>  <REMARK>
  4 active torsions:
  status: ('A' for Active; 'I' for Inactive)
    5  A    between atoms: CA   and  CB  
    6  A    between atoms: CB   and  CG  
    7  A    between atoms: CG   and  CD  
    8  A    between atoms: CD   and  CE  

$$$$
