ligand_89_pose_13_2HRL.pdbqt
 OpenBabel07062320523D

 60 63  0  0  1  0  0  0  0  0999 V2000
   31.2790   34.1730   18.2580 N   0  0  0  0  0  0  0  0  0  0  0  0
   31.9060   34.6840   17.1220 C   0  0  0  0  0  0  0  0  0  0  0  0
   33.0000   35.2520   17.1360 O   0  0  0  0  0  0  0  0  0  0  0  0
   30.3240   33.6660   18.0820 H   0  0  0  0  0  0  0  0  0  0  0  0
   31.7470   34.2450   19.5890 C   0  0  0  0  0  0  0  0  0  0  0  0
   31.5160   33.0760   20.4380 C   0  0  2  0  0  0  0  0  0  0  0  0
   30.2390   32.3410   20.4690 C   0  0  1  0  0  0  0  0  0  0  0  0
   30.5210   30.9750   19.7760 C   0  0  2  0  0  0  0  0  0  0  0  0
   29.4370   31.1390   17.6990 C   0  0  2  0  0  0  0  0  0  0  0  0
   28.6040   29.9470   18.0330 C   0  0  0  0  0  0  0  0  0  0  0  0
   30.5670   31.1800   18.4480 O   0  0  0  0  0  0  0  0  0  0  0  0
   28.3540   29.7570   19.5070 C   0  0  1  0  0  0  0  0  0  0  0  0
   29.6260   29.9200   20.3090 C   0  0  1  0  0  0  0  0  0  0  0  0
   28.7000   32.3260   17.9420 O   0  0  0  0  0  0  0  0  0  0  0  0
   28.9160   32.9220   17.1760 H   0  0  0  0  0  0  0  0  0  0  0  0
   29.7320   31.0490   16.2300 C   0  0  0  0  0  0  0  0  0  0  0  0
   30.7970   31.5020   15.7900 O   0  0  0  0  0  0  0  0  0  0  0  0
   28.8220   30.4640   15.3810 O   0  0  0  0  0  0  0  0  0  0  0  0
   28.7030   29.4470   15.3640 H   0  0  0  0  0  0  0  0  0  0  0  0
   27.3600   30.6070   19.9960 O   0  0  0  0  0  0  0  0  0  0  0  0
   27.6900   31.5380   19.9800 H   0  0  0  0  0  0  0  0  0  0  0  0
   30.2830   28.6060   20.3320 N   0  0  0  0  0  0  0  0  0  0  0  0
   31.0080   28.1390   21.4470 C   0  0  0  0  0  0  0  0  0  0  0  0
   30.2290   27.9620   19.4930 H   0  0  0  0  0  0  0  0  0  0  0  0
   31.6720   26.8100   21.4650 C   0  0  0  0  0  0  0  0  0  0  0  0
   31.1120   28.8630   22.4830 O   0  0  0  0  0  0  0  0  0  0  0  0
   29.7310   32.0840   21.7440 O   0  0  0  0  0  0  0  0  0  0  0  0
   29.4760   32.9470   22.1980 H   0  0  0  0  0  0  0  0  0  0  0  0
   31.8330   33.5070   21.7820 O   0  0  0  0  0  0  0  0  0  0  0  0
   32.5290   34.1870   21.7680 H   0  0  0  0  0  0  0  0  0  0  0  0
   31.2980   34.5760   15.8510 O   0  0  0  0  0  0  0  0  0  0  0  0
   30.3430   35.4990   15.4120 C   0  0  0  0  0  0  0  0  0  0  0  0
   28.9830   34.9300   15.5820 C   0  0  0  0  0  0  0  0  0  0  0  0
   28.1710   34.3910   14.5880 C   0  0  0  0  0  0  0  0  0  0  0  0
   28.2570   34.8070   16.7080 N   0  0  0  0  0  0  0  0  0  0  0  0
   26.9940   33.9650   15.1280 N   0  0  0  0  0  0  0  0  0  0  0  0
   27.1060   34.2410   16.4020 N   0  0  0  0  0  0  0  0  0  0  0  0
   25.9520   33.3610   14.3680 C   0  0  0  0  0  0  0  0  0  0  0  0
   25.4430   33.8410   13.1940 N   0  0  0  0  0  0  0  0  0  0  0  0
   25.2510   32.2120   14.6250 C   0  0  0  0  0  0  0  0  0  0  0  0
   24.4810   33.0110   12.7720 C   0  0  0  0  0  0  0  0  0  0  0  0
   24.3330   31.9890   13.6350 N   0  0  0  0  0  0  0  0  0  0  0  0
   25.3110   31.3080   15.6390 C   0  0  0  0  0  0  0  0  0  0  0  0
   23.5130   30.9220   13.6460 C   0  0  0  0  0  0  0  0  0  0  0  0
   24.5190   30.2400   15.6890 N   0  0  0  0  0  0  0  0  0  0  0  0
   26.1280   31.4480   16.5830 O   0  0  0  0  0  0  0  0  0  0  0  0
   22.5990   30.7300   12.6300 C   0  0  0  0  0  0  0  0  0  0  0  0
   23.6220   30.0410   14.7010 C   0  0  0  0  0  0  0  0  0  0  0  0
   21.7420   29.6410   12.6150 C   0  0  0  0  0  0  0  0  0  0  0  0
   22.7530   28.9600   14.6640 C   0  0  0  0  0  0  0  0  0  0  0  0
   21.8340   28.7550   13.6530 C   0  0  0  0  0  0  0  0  0  0  0  0
   24.5340   29.2410   16.7350 C   0  0  0  0  0  0  0  0  0  0  0  0
   24.1970   29.9480   18.0310 C   0  0  0  0  0  0  0  0  0  0  0  0
   25.8470   28.5500   16.9210 C   0  0  0  0  0  0  0  0  0  0  0  0
   29.8670   25.5550   16.9770 C   0  0  0  0  0  0  0  0  0  0  0  0
   28.3450   25.7220   17.0260 C   0  0  0  0  0  0  0  0  0  0  0  0
   27.6020   24.3990   16.9280 C   0  0  0  0  0  0  0  0  0  0  0  0
   26.1590   24.5270   17.3320 C   0  0  0  0  0  0  0  0  0  0  0  0
   25.9130   23.7200   18.6020 C   0  0  0  0  0  0  0  0  0  0  0  0
   24.4610   23.6330   18.8880 N   0  0  0  0  0  0  0  0  0  0  0  0
  1  5  1  0  0  0  0
  2  3  2  0  0  0  0
  2  1  1  0  0  0  0
  4  1  1  0  0  0  0
  6  5  1  6  0  0  0
  6  7  1  0  0  0  0
  6 29  1  0  0  0  0
  7 27  1  1  0  0  0
  8 13  1  0  0  0  0
  8  7  1  1  0  0  0
  9 16  1  6  0  0  0
  9 14  1  0  0  0  0
  9 10  1  0  0  0  0
  9 11  1  0  0  0  0
 10 12  1  0  0  0  0
 11  8  1  0  0  0  0
 12 20  1  1  0  0  0
 12 13  1  0  0  0  0
 13 22  1  6  0  0  0
 15 14  1  0  0  0  0
 17 16  2  0  0  0  0
 18 16  1  0  0  0  0
 19 18  1  0  0  0  0
 21 20  1  0  0  0  0
 22 23  1  0  0  0  0
 23 25  1  0  0  0  0
 23 26  2  0  0  0  0
 24 22  1  0  0  0  0
 27 28  1  0  0  0  0
 30 29  1  0  0  0  0
 31  2  1  0  0  0  0
 32 33  1  0  0  0  0
 32 31  1  0  0  0  0
 33 35  1  0  0  0  0
 34 36  1  0  0  0  0
 34 33  2  0  0  0  0
 36 37  1  0  0  0  0
 37 35  2  0  0  0  0
 38 40  2  0  0  0  0
 38 36  1  0  0  0  0
 39 38  1  0  0  0  0
 40 43  1  0  0  0  0
 41 39  2  0  0  0  0
 41 42  1  0  0  0  0
 42 44  1  0  0  0  0
 42 40  1  0  0  0  0
 43 45  1  0  0  0  0
 43 46  2  0  0  0  0
 44 48  2  0  0  0  0
 45 52  1  0  0  0  0
 47 44  1  0  0  0  0
 48 45  1  0  0  0  0
 49 47  2  0  0  0  0
 49 51  1  0  0  0  0
 50 48  1  0  0  0  0
 51 50  2  0  0  0  0
 52 54  1  0  0  0  0
 52 53  1  0  0  0  0
 55 56  1  0  0  0  0
 57 56  1  0  0  0  0
 57 58  1  0  0  0  0
 58 59  1  0  0  0  0
 59 60  1  0  0  0  0
M  END
>  <REMARK>
 VINA RESULT:    -4.403      3.048      6.270
 INTER + INTRA:         -14.986
 INTER:                  -8.674
 INTRA:                  -6.312
 UNBOUND:                -7.109
 SMILES CC(=O)N[C@@H]1[C@@H](O)C[C@](O)(C(=O)O)O[C@H]1C(O)[C@H](O)CNC(=O)OCc1cn(-c2ncn3c2c(=O)n(C(C)C)c2ccccc23)nn1
 SMILES IDX 21 1 22 2 23 3 20 5 18 6 16 7 15 8 9 9 8 10 14 11 6 12 5 13
 SMILES IDX 10 14 11 16 12 17 13 18 7 20 4 22 2 23 1 25 3 26 17 27 19 29
 SMILES IDX 24 31 25 32 26 33 27 34 47 35 28 36 46 37 29 38 30 39 33 40
 SMILES IDX 31 41 32 42 34 43 45 44 36 45 35 46 44 47 40 48 43 49 41 50
 SMILES IDX 42 51 37 52 38 53 39 54
 H PARENT 21 4 10 15 13 19 7 21 4 24 17 28 19 30
 Flexibility Score: inf
  4 active torsions:
  status: ('A' for Active; 'I' for Inactive)
    1  A    between atoms: CA   and  CB  
    2  A    between atoms: CB   and  CG  
    3  A    between atoms: CG   and  CD  
    4  A    between atoms: CD   and  CE  

>  <TORSDO>
F 16

>  <BEGIN_>
RES LYS A 131

$$$$
ligand_89_pose_13_2HRL.pdbqt
 OpenBabel07062320523D

  6  5  0  0  0  0  0  0  0  0999 V2000
   33.1930   34.6630    9.2900 C   0  0  0  0  0  0  0  0  0  0  0  0
   32.0600   35.3600   10.0340 C   0  0  0  0  0  0  0  0  0  0  0  0
   30.7050   34.7560    9.7710 C   0  0  0  0  0  0  0  0  0  0  0  0
   30.5110   34.5000    8.2840 C   0  0  0  0  0  0  0  0  0  0  0  0
   29.1240   34.9290    7.8470 C   0  0  0  0  0  0  0  0  0  0  0  0
   28.9170   36.3870    8.0720 N   0  0  0  0  0  0  0  0  0  0  0  0
  1  2  1  0  0  0  0
  3  2  1  0  0  0  0
  4  3  1  0  0  0  0
  5  6  1  0  0  0  0
  5  4  1  0  0  0  0
M  END
>  <EGIN_R>
ES LYS A 135

>  <REMARK>
  4 active torsions:
  status: ('A' for Active; 'I' for Inactive)
    5  A    between atoms: CA   and  CB  
    6  A    between atoms: CB   and  CG  
    7  A    between atoms: CG   and  CD  
    8  A    between atoms: CD   and  CE  

$$$$
