ligand_25_pose_17_2HRL.pdbqt
 OpenBabel07062320523D

 56 59  0  0  1  0  0  0  0  0999 V2000
   29.5050   33.8250   17.0340 C   0  0  0  0  0  0  0  0  0  0  0  0
   30.6680   32.9080   17.1310 C   0  0  2  0  0  0  0  0  0  0  0  0
   30.2980   31.5100   17.5100 C   0  0  1  0  0  0  0  0  0  0  0  0
   29.4130   31.3660   18.7160 C   0  0  2  0  0  0  0  0  0  0  0  0
   30.5040   30.2350   20.4520 C   0  0  2  0  0  0  0  0  0  0  0  0
   29.2340   29.7720   21.1350 C   0  0  0  0  0  0  0  0  0  0  0  0
   30.2660   31.4130   19.8200 O   0  0  0  0  0  0  0  0  0  0  0  0
   28.1160   29.8100   20.1590 C   0  0  1  0  0  0  0  0  0  0  0  0
   28.5690   30.1200   18.7230 C   0  0  1  0  0  0  0  0  0  0  0  0
   30.9610   29.1920   19.6920 O   0  0  0  0  0  0  0  0  0  0  0  0
   30.2830   28.8650   19.0600 H   0  0  0  0  0  0  0  0  0  0  0  0
   31.4840   30.5060   21.5480 C   0  0  0  0  0  0  0  0  0  0  0  0
   32.6180   29.9740   21.5040 O   0  0  0  0  0  0  0  0  0  0  0  0
   31.1920   31.3280   22.6270 O   0  0  0  0  0  0  0  0  0  0  0  0
   31.5710   31.1170   23.5610 H   0  0  0  0  0  0  0  0  0  0  0  0
   27.3730   28.6420   20.1060 O   0  0  0  0  0  0  0  0  0  0  0  0
   26.9300   28.4190   20.9560 H   0  0  0  0  0  0  0  0  0  0  0  0
   27.3340   30.3620   18.0130 N   0  0  0  0  0  0  0  0  0  0  0  0
   26.8590   29.5870   16.9230 C   0  0  0  0  0  0  0  0  0  0  0  0
   26.7460   31.1630   18.3250 H   0  0  0  0  0  0  0  0  0  0  0  0
   25.5640   29.9030   16.2380 C   0  0  0  0  0  0  0  0  0  0  0  0
   27.5660   28.6170   16.5470 O   0  0  0  0  0  0  0  0  0  0  0  0
   29.8300   30.7290   16.4600 O   0  0  0  0  0  0  0  0  0  0  0  0
   29.4750   29.8620   16.7160 H   0  0  0  0  0  0  0  0  0  0  0  0
   31.5470   33.3720   18.1070 O   0  0  0  0  0  0  0  0  0  0  0  0
   31.2110   33.2530   19.0160 H   0  0  0  0  0  0  0  0  0  0  0  0
   28.6180   33.5950   15.9560 N   0  0  0  0  0  0  0  0  0  0  0  0
   27.2470   33.3220   16.1030 C   0  0  0  0  0  0  0  0  0  0  0  0
   28.9950   33.6280   14.9530 H   0  0  0  0  0  0  0  0  0  0  0  0
   26.7000   33.2710   17.2010 O   0  0  0  0  0  0  0  0  0  0  0  0
   26.4270   33.0920   14.9840 O   0  0  0  0  0  0  0  0  0  0  0  0
   25.4960   34.0170   14.5110 C   0  0  0  0  0  0  0  0  0  0  0  0
   25.8360   34.5830   13.1830 C   0  0  0  0  0  0  0  0  0  0  0  0
   25.7090   34.0210   11.9360 C   0  0  0  0  0  0  0  0  0  0  0  0
   26.3480   35.8030   13.0150 N   0  0  0  0  0  0  0  0  0  0  0  0
   26.1480   34.9170   11.0590 N   0  0  0  0  0  0  0  0  0  0  0  0
   26.5290   35.9860   11.7270 N   0  0  0  0  0  0  0  0  0  0  0  0
   26.2100   34.7790    9.6120 C   0  0  0  0  0  0  0  0  0  0  0  0
   27.6000   34.6960    9.1300 C   0  0  0  0  0  0  0  0  0  0  0  0
   25.6100   35.9040    8.9120 C   0  0  0  0  0  0  0  0  0  0  0  0
   28.6260   33.7970    9.4720 C   0  0  0  0  0  0  0  0  0  0  0  0
   27.7860   35.6980    8.2210 C   0  0  0  0  0  0  0  0  0  0  0  0
   26.5460   36.4580    8.0800 C   0  0  0  0  0  0  0  0  0  0  0  0
   24.3240   36.4800    8.9420 C   0  0  0  0  0  0  0  0  0  0  0  0
   29.8470   33.9460    8.8640 C   0  0  0  0  0  0  0  0  0  0  0  0
   29.0420   35.8170    7.6260 C   0  0  0  0  0  0  0  0  0  0  0  0
   26.2850   37.5620    7.2620 C   0  0  0  0  0  0  0  0  0  0  0  0
   24.0460   37.5620    8.1500 C   0  0  0  0  0  0  0  0  0  0  0  0
   30.0640   34.9500    7.9420 C   0  0  0  0  0  0  0  0  0  0  0  0
   25.0180   38.0960    7.3200 C   0  0  0  0  0  0  0  0  0  0  0  0
   29.8670   25.5550   16.9770 C   0  0  0  0  0  0  0  0  0  0  0  0
   28.3450   25.7220   17.0260 C   0  0  0  0  0  0  0  0  0  0  0  0
   27.6010   24.4020   16.8960 C   0  0  0  0  0  0  0  0  0  0  0  0
   26.4070   24.3320   17.8070 C   0  0  0  0  0  0  0  0  0  0  0  0
   26.4110   25.5350   18.7440 C   0  0  0  0  0  0  0  0  0  0  0  0
   25.0540   25.7710   19.2910 N   0  0  0  0  0  0  0  0  0  0  0  0
  2  1  1  1  0  0  0
  2  3  1  0  0  0  0
  2 25  1  0  0  0  0
  3 23  1  6  0  0  0
  4  3  1  6  0  0  0
  4  9  1  0  0  0  0
  4  7  1  0  0  0  0
  5 10  1  6  0  0  0
  5  6  1  0  0  0  0
  5 12  1  0  0  0  0
  7  5  1  0  0  0  0
  8 16  1  6  0  0  0
  8  6  1  0  0  0  0
  9 18  1  6  0  0  0
  9  8  1  0  0  0  0
 11 10  1  0  0  0  0
 12 14  1  0  0  0  0
 13 12  2  0  0  0  0
 14 15  1  0  0  0  0
 16 17  1  0  0  0  0
 18 20  1  0  0  0  0
 19 18  1  0  0  0  0
 21 19  1  0  0  0  0
 22 19  2  0  0  0  0
 23 24  1  0  0  0  0
 25 26  1  0  0  0  0
 27 28  1  0  0  0  0
 27  1  1  0  0  0  0
 28 30  2  0  0  0  0
 29 27  1  0  0  0  0
 31 28  1  0  0  0  0
 32 31  1  0  0  0  0
 33 32  1  0  0  0  0
 34 33  2  0  0  0  0
 35 33  1  0  0  0  0
 36 37  1  0  0  0  0
 36 34  1  0  0  0  0
 37 35  2  0  0  0  0
 38 36  1  0  0  0  0
 39 41  1  0  0  0  0
 39 38  1  0  0  0  0
 40 44  1  0  0  0  0
 40 38  1  0  0  0  0
 42 39  2  0  0  0  0
 43 42  1  0  0  0  0
 43 40  2  0  0  0  0
 45 41  2  0  0  0  0
 46 49  2  0  0  0  0
 46 42  1  0  0  0  0
 47 50  2  0  0  0  0
 47 43  1  0  0  0  0
 48 44  2  0  0  0  0
 49 45  1  0  0  0  0
 50 48  1  0  0  0  0
 51 52  1  0  0  0  0
 53 52  1  0  0  0  0
 53 54  1  0  0  0  0
 54 55  1  0  0  0  0
 55 56  1  0  0  0  0
M  END
>  <REMARK>
 VINA RESULT:    -6.299      2.589      3.753
 INTER + INTRA:         -15.480
 INTER:                 -11.094
 INTRA:                  -4.386
 UNBOUND:                -4.578
 SMILES CC(=O)N[C@@H]1[C@@H](O)C[C@](O)(C(=O)O)O[C@H]1C(O)[C@H](O)CNC(=O)OCc1cn(C2c3ccccc3-c3ccccc32)nn1
 SMILES IDX 20 1 18 2 16 3 15 4 9 5 8 6 14 7 6 8 5 9 10 10 11 12 12 13
 SMILES IDX 13 14 7 16 4 18 2 19 1 21 3 22 17 23 19 25 21 27 22 28 23 30
 SMILES IDX 24 31 25 32 26 33 27 34 43 35 28 36 42 37 29 38 30 39 41 40
 SMILES IDX 31 41 35 42 36 43 40 44 32 45 34 46 37 47 39 48 33 49 38 50
 H PARENT 10 11 13 15 7 17 4 20 17 24 19 26 21 29
 Flexibility Score: inf
  4 active torsions:
  status: ('A' for Active; 'I' for Inactive)
    1  A    between atoms: CA   and  CB  
    2  A    between atoms: CB   and  CG  
    3  A    between atoms: CG   and  CD  
    4  A    between atoms: CD   and  CE  

>  <TORSDO>
F 15

>  <BEGIN_>
RES LYS A 131

$$$$
ligand_25_pose_17_2HRL.pdbqt
 OpenBabel07062320523D

  6  5  0  0  0  0  0  0  0  0999 V2000
   33.1930   34.6630    9.2900 C   0  0  0  0  0  0  0  0  0  0  0  0
   32.0600   35.3600   10.0340 C   0  0  0  0  0  0  0  0  0  0  0  0
   32.5000   36.0320   11.3090 C   0  0  0  0  0  0  0  0  0  0  0  0
   31.7350   37.3280   11.5250 C   0  0  0  0  0  0  0  0  0  0  0  0
   30.8790   37.6490   10.3140 C   0  0  0  0  0  0  0  0  0  0  0  0
   29.4420   37.7630   10.6880 N   0  0  0  0  0  0  0  0  0  0  0  0
  1  2  1  0  0  0  0
  2  3  1  0  0  0  0
  3  4  1  0  0  0  0
  5  6  1  0  0  0  0
  5  4  1  0  0  0  0
M  END
>  <EGIN_R>
ES LYS A 135

>  <REMARK>
  4 active torsions:
  status: ('A' for Active; 'I' for Inactive)
    5  A    between atoms: CA   and  CB  
    6  A    between atoms: CB   and  CG  
    7  A    between atoms: CG   and  CD  
    8  A    between atoms: CD   and  CE  

$$$$
