ligand_66_pose_5_2HRL.pdbqt
 OpenBabel07062320523D

 52 53  0  0  1  0  0  0  0  0999 V2000
   28.9410   31.1390   20.0710 N   0  0  0  0  0  0  0  0  0  0  0  0
   27.9300   30.2860   19.6160 C   0  0  0  0  0  0  0  0  0  0  0  0
   26.7890   30.3200   20.1220 O   0  0  0  0  0  0  0  0  0  0  0  0
   29.8860   31.0550   19.5880 H   0  0  0  0  0  0  0  0  0  0  0  0
   28.7680   32.0990   21.1290 C   0  0  0  0  0  0  0  0  0  0  0  0
   29.6180   31.8070   22.3340 C   0  0  2  0  0  0  0  0  0  0  0  0
   29.2830   30.5720   23.0760 C   0  0  2  0  0  0  0  0  0  0  0  0
   30.1640   29.3560   22.7480 C   0  0  2  0  0  0  0  0  0  0  0  0
   32.1300   28.7960   21.7430 C   0  0  2  0  0  0  0  0  0  0  0  0
   31.4060   27.9930   20.6820 C   0  0  0  0  0  0  0  0  0  0  0  0
   31.2830   29.7900   22.1580 O   0  0  0  0  0  0  0  0  0  0  0  0
   30.1680   27.3440   21.2390 C   0  0  1  0  0  0  0  0  0  0  0  0
   29.3820   28.2600   22.1320 C   0  0  1  0  0  0  0  0  0  0  0  0
   33.2680   29.3800   21.1320 O   0  0  0  0  0  0  0  0  0  0  0  0
   33.1180   29.2380   20.1530 H   0  0  0  0  0  0  0  0  0  0  0  0
   32.6370   27.8910   22.7800 C   0  0  0  0  0  0  0  0  0  0  0  0
   32.5160   28.1440   24.0010 O   0  0  0  0  0  0  0  0  0  0  0  0
   33.2960   26.6780   22.4930 O   0  0  0  0  0  0  0  0  0  0  0  0
   33.1550   25.9390   23.1850 H   0  0  0  0  0  0  0  0  0  0  0  0
   29.3860   26.9320   20.1610 O   0  0  0  0  0  0  0  0  0  0  0  0
   29.3680   25.9570   20.0600 H   0  0  0  0  0  0  0  0  0  0  0  0
   28.7140   27.4640   23.1440 N   0  0  0  0  0  0  0  0  0  0  0  0
   27.3630   26.9830   22.9830 C   0  0  0  0  0  0  0  0  0  0  0  0
   29.1520   27.1830   24.0570 H   0  0  0  0  0  0  0  0  0  0  0  0
   26.7150   26.1670   24.0570 C   0  0  0  0  0  0  0  0  0  0  0  0
   26.7260   27.2460   21.9440 O   0  0  0  0  0  0  0  0  0  0  0  0
   27.9630   30.1590   22.8920 O   0  0  0  0  0  0  0  0  0  0  0  0
   27.8610   29.5090   22.1550 H   0  0  0  0  0  0  0  0  0  0  0  0
   29.6920   32.9700   23.0990 O   0  0  0  0  0  0  0  0  0  0  0  0
   29.8250   33.7300   22.4810 H   0  0  0  0  0  0  0  0  0  0  0  0
   28.1290   29.3590   18.5930 O   0  0  0  0  0  0  0  0  0  0  0  0
   27.5000   29.5800   17.3560 C   0  0  0  0  0  0  0  0  0  0  0  0
   28.2030   30.6690   16.6490 C   0  0  0  0  0  0  0  0  0  0  0  0
   29.5320   30.7350   16.2930 C   0  0  0  0  0  0  0  0  0  0  0  0
   27.6470   31.8150   16.2170 N   0  0  0  0  0  0  0  0  0  0  0  0
   29.7430   31.9050   15.6620 N   0  0  0  0  0  0  0  0  0  0  0  0
   28.5710   32.5290   15.6380 N   0  0  0  0  0  0  0  0  0  0  0  0
   30.9410   32.4550   15.0870 C   0  0  0  0  0  0  0  0  0  0  0  0
   31.5450   33.4810   16.0000 C   0  0  0  0  0  0  0  0  0  0  0  0
   32.3430   34.4760   15.4810 C   0  0  0  0  0  0  0  0  0  0  0  0
   31.3210   33.4640   17.3510 C   0  0  0  0  0  0  0  0  0  0  0  0
   32.9030   35.4400   16.3270 C   0  0  0  0  0  0  0  0  0  0  0  0
   31.8550   34.3980   18.2140 C   0  0  0  0  0  0  0  0  0  0  0  0
   32.6520   35.3930   17.6940 C   0  0  0  0  0  0  0  0  0  0  0  0
   31.6350   34.4010   19.6300 C   0  0  0  0  0  0  0  0  0  0  0  0
   31.4690   34.3910   20.7850 N   0  0  0  0  0  0  0  0  0  0  0  0
   29.8670   25.5550   16.9770 C   0  0  0  0  0  0  0  0  0  0  0  0
   28.3450   25.7220   17.0260 C   0  0  0  0  0  0  0  0  0  0  0  0
   27.5990   24.4290   16.7350 C   0  0  0  0  0  0  0  0  0  0  0  0
   26.9530   23.8580   17.9670 C   0  0  0  0  0  0  0  0  0  0  0  0
   25.5670   23.3270   17.6160 C   0  0  0  0  0  0  0  0  0  0  0  0
   24.7770   24.3650   16.9130 N   0  0  0  0  0  0  0  0  0  0  0  0
  1  5  1  0  0  0  0
  2  1  1  0  0  0  0
  2  3  2  0  0  0  0
  4  1  1  0  0  0  0
  6  5  1  6  0  0  0
  6  7  1  0  0  0  0
  6 29  1  0  0  0  0
  7 27  1  6  0  0  0
  8  7  1  6  0  0  0
  9 14  1  6  0  0  0
  9 11  1  0  0  0  0
  9 16  1  0  0  0  0
 10 12  1  0  0  0  0
 10  9  1  0  0  0  0
 11  8  1  0  0  0  0
 12 20  1  6  0  0  0
 12 13  1  0  0  0  0
 13  8  1  0  0  0  0
 13 22  1  1  0  0  0
 15 14  1  0  0  0  0
 16 17  2  0  0  0  0
 18 16  1  0  0  0  0
 18 19  1  0  0  0  0
 21 20  1  0  0  0  0
 22 24  1  0  0  0  0
 23 22  1  0  0  0  0
 23 25  1  0  0  0  0
 26 23  2  0  0  0  0
 28 27  1  0  0  0  0
 30 29  1  0  0  0  0
 31  2  1  0  0  0  0
 32 31  1  0  0  0  0
 33 32  1  0  0  0  0
 34 33  2  0  0  0  0
 35 33  1  0  0  0  0
 36 34  1  0  0  0  0
 37 36  1  0  0  0  0
 37 35  2  0  0  0  0
 38 36  1  0  0  0  0
 38 39  1  0  0  0  0
 39 41  1  0  0  0  0
 40 39  2  0  0  0  0
 40 42  1  0  0  0  0
 41 43  2  0  0  0  0
 42 44  2  0  0  0  0
 43 45  1  0  0  0  0
 44 43  1  0  0  0  0
 45 46  3  0  0  0  0
 47 48  1  0  0  0  0
 49 48  1  0  0  0  0
 49 50  1  0  0  0  0
 51 50  1  0  0  0  0
 52 51  1  0  0  0  0
M  END
>  <REMARK>
 VINA RESULT:    -5.167      4.742      8.766
 INTER + INTRA:         -14.759
 INTER:                  -8.370
 INTRA:                  -6.390
 UNBOUND:                -5.212
 SMILES CC(=O)N[C@@H]1[C@@H](O)C[C@](O)(C(=O)O)O[C@H]1C(O)[C@H](O)CNC(=O)OCc1cn(Cc2cccc(C#N)c2)nn1
 SMILES IDX 21 1 22 2 23 3 20 5 18 6 16 7 15 8 9 9 8 10 14 11 6 12 5 13
 SMILES IDX 10 14 11 16 12 17 13 18 7 20 4 22 2 23 1 25 3 26 17 27 19 29
 SMILES IDX 24 31 25 32 26 33 27 34 39 35 28 36 38 37 29 38 30 39 31 40
 SMILES IDX 37 41 32 42 34 43 33 44 35 45 36 46
 H PARENT 21 4 10 15 13 19 7 21 4 24 17 28 19 30
 Flexibility Score: inf
  4 active torsions:
  status: ('A' for Active; 'I' for Inactive)
    1  A    between atoms: CA   and  CB  
    2  A    between atoms: CB   and  CG  
    3  A    between atoms: CG   and  CD  
    4  A    between atoms: CD   and  CE  

>  <TORSDO>
F 17

>  <BEGIN_>
RES LYS A 131

$$$$
ligand_66_pose_5_2HRL.pdbqt
 OpenBabel07062320523D

  6  5  0  0  0  0  0  0  0  0999 V2000
   33.1930   34.6630    9.2900 C   0  0  0  0  0  0  0  0  0  0  0  0
   32.0600   35.3600   10.0340 C   0  0  0  0  0  0  0  0  0  0  0  0
   30.7980   35.4920    9.2220 C   0  0  0  0  0  0  0  0  0  0  0  0
   30.0460   34.1710    9.1790 C   0  0  0  0  0  0  0  0  0  0  0  0
   28.6120   34.3880    8.7350 C   0  0  0  0  0  0  0  0  0  0  0  0
   27.6620   33.6330    9.5980 N   0  0  0  0  0  0  0  0  0  0  0  0
  1  2  1  0  0  0  0
  3  2  1  0  0  0  0
  4  3  1  0  0  0  0
  5  4  1  0  0  0  0
  5  6  1  0  0  0  0
M  END
>  <EGIN_R>
ES LYS A 135

>  <REMARK>
  4 active torsions:
  status: ('A' for Active; 'I' for Inactive)
    5  A    between atoms: CA   and  CB  
    6  A    between atoms: CB   and  CG  
    7  A    between atoms: CG   and  CD  
    8  A    between atoms: CD   and  CE  

$$$$
