ligand_11_pose_17_2HRL.pdbqt
 OpenBabel07062320523D

 54 54  0  0  1  0  0  0  0  0999 V2000
   27.7030   33.9400   22.4280 O   0  0  0  0  0  0  0  0  0  0  0  0
   28.8890   34.5460   21.9950 C   0  0  0  0  0  0  0  0  0  0  0  0
   29.3660   34.4240   20.6820 N   0  0  0  0  0  0  0  0  0  0  0  0
   28.7630   33.8200   20.0290 H   0  0  0  0  0  0  0  0  0  0  0  0
   29.5120   35.2100   22.8380 O   0  0  0  0  0  0  0  0  0  0  0  0
   30.5550   35.0100   20.1330 C   0  0  0  0  0  0  0  0  0  0  0  0
   31.5170   33.9820   19.6840 C   0  0  2  0  0  0  0  0  0  0  0  0
   31.5000   33.7580   18.1830 C   0  0  1  0  0  0  0  0  0  0  0  0
   30.0740   33.4720   17.7050 C   0  0  2  0  0  0  0  0  0  0  0  0
   29.7030   31.1730   17.9340 C   0  0  2  0  0  0  0  0  0  0  0  0
   30.5010   31.0540   16.6670 C   0  0  0  0  0  0  0  0  0  0  0  0
   29.4780   32.4450   18.3600 O   0  0  0  0  0  0  0  0  0  0  0  0
   30.2190   32.0820   15.6320 C   0  0  1  0  0  0  0  0  0  0  0  0
   29.9940   33.4510   16.2080 C   0  0  1  0  0  0  0  0  0  0  0  0
   30.4450   30.5180   18.9190 O   0  0  0  0  0  0  0  0  0  0  0  0
   29.9930   29.7130   19.2450 H   0  0  0  0  0  0  0  0  0  0  0  0
   28.4180   30.4440   17.7880 C   0  0  0  0  0  0  0  0  0  0  0  0
   27.4620   30.6970   18.5580 O   0  0  0  0  0  0  0  0  0  0  0  0
   28.2270   29.4720   16.8110 O   0  0  0  0  0  0  0  0  0  0  0  0
   28.7940   29.5670   15.9680 H   0  0  0  0  0  0  0  0  0  0  0  0
   31.3100   32.1310   14.7660 O   0  0  0  0  0  0  0  0  0  0  0  0
   31.1230   32.7150   13.9840 H   0  0  0  0  0  0  0  0  0  0  0  0
   28.7370   34.0200   15.8180 N   0  0  0  0  0  0  0  0  0  0  0  0
   28.5820   34.5470   14.5110 C   0  0  0  0  0  0  0  0  0  0  0  0
   27.9270   34.0480   16.5030 H   0  0  0  0  0  0  0  0  0  0  0  0
   27.2880   35.1350   14.1060 C   0  0  0  0  0  0  0  0  0  0  0  0
   29.5150   34.5370   13.6630 O   0  0  0  0  0  0  0  0  0  0  0  0
   31.9760   34.8890   17.5500 O   0  0  0  0  0  0  0  0  0  0  0  0
   32.3690   34.6230   16.6810 H   0  0  0  0  0  0  0  0  0  0  0  0
   31.4480   32.8320   20.4010 O   0  0  0  0  0  0  0  0  0  0  0  0
   30.5870   32.6550   20.8420 H   0  0  0  0  0  0  0  0  0  0  0  0
   27.7640   32.8470   23.3400 C   0  0  0  0  0  0  0  0  0  0  0  0
   28.7850   31.8770   22.9680 C   0  0  0  0  0  0  0  0  0  0  0  0
   29.7110   31.2630   23.7670 C   0  0  0  0  0  0  0  0  0  0  0  0
   29.0080   31.3920   21.7360 N   0  0  0  0  0  0  0  0  0  0  0  0
   30.4680   30.4340   23.0350 N   0  0  0  0  0  0  0  0  0  0  0  0
   30.0120   30.5360   21.8010 N   0  0  0  0  0  0  0  0  0  0  0  0
   31.5730   29.5670   23.4060 C   0  0  1  0  0  0  0  0  0  0  0  0
   31.2120   28.1430   23.1860 C   0  0  0  0  0  0  0  0  0  0  0  0
   31.9960   27.4170   22.1600 C   0  0  0  0  0  0  0  0  0  0  0  0
   31.5050   27.6060   20.7960 C   0  0  0  0  0  0  0  0  0  0  0  0
   32.1260   28.3500   19.9600 O   0  0  0  0  0  0  0  0  0  0  0  0
   30.3330   26.9690   20.3830 O   0  0  0  0  0  0  0  0  0  0  0  0
   30.0260   27.1320   19.4350 H   0  0  0  0  0  0  0  0  0  0  0  0
   32.8620   30.0170   22.9100 C   0  0  0  0  0  0  0  0  0  0  0  0
   33.9490   29.8490   23.4590 O   0  0  0  0  0  0  0  0  0  0  0  0
   32.8620   30.7170   21.6880 O   0  0  0  0  0  0  0  0  0  0  0  0
   33.4510   31.5270   21.5980 H   0  0  0  0  0  0  0  0  0  0  0  0
   29.8670   25.5550   16.9770 C   0  0  0  0  0  0  0  0  0  0  0  0
   28.3450   25.7220   17.0260 C   0  0  0  0  0  0  0  0  0  0  0  0
   27.6010   24.4010   16.9060 C   0  0  0  0  0  0  0  0  0  0  0  0
   26.5680   24.2320   17.9840 C   0  0  0  0  0  0  0  0  0  0  0  0
   25.2320   23.8490   17.3540 C   0  0  0  0  0  0  0  0  0  0  0  0
   24.9200   22.4260   17.6260 N   0  0  0  0  0  0  0  0  0  0  0  0
  1 32  1  0  0  0  0
  2  1  1  0  0  0  0
  2  5  2  0  0  0  0
  3  2  1  0  0  0  0
  4  3  1  0  0  0  0
  6  3  1  0  0  0  0
  7  6  1  1  0  0  0
  7 30  1  0  0  0  0
  8 28  1  6  0  0  0
  8  7  1  0  0  0  0
  9  8  1  6  0  0  0
  9 12  1  0  0  0  0
 10 17  1  6  0  0  0
 10 12  1  0  0  0  0
 10 15  1  0  0  0  0
 11 10  1  0  0  0  0
 13 21  1  6  0  0  0
 13 14  1  0  0  0  0
 13 11  1  0  0  0  0
 14 23  1  1  0  0  0
 14  9  1  0  0  0  0
 15 16  1  0  0  0  0
 17 18  2  0  0  0  0
 19 17  1  0  0  0  0
 20 19  1  0  0  0  0
 22 21  1  0  0  0  0
 23 25  1  0  0  0  0
 24 23  1  0  0  0  0
 26 24  1  0  0  0  0
 27 24  2  0  0  0  0
 29 28  1  0  0  0  0
 30 31  1  0  0  0  0
 33 32  1  0  0  0  0
 33 34  2  0  0  0  0
 35 37  2  0  0  0  0
 35 33  1  0  0  0  0
 36 38  1  0  0  0  0
 36 34  1  0  0  0  0
 37 36  1  0  0  0  0
 38 39  1  6  0  0  0
 40 39  1  0  0  0  0
 41 40  1  0  0  0  0
 42 41  2  0  0  0  0
 43 41  1  0  0  0  0
 44 43  1  0  0  0  0
 45 38  1  0  0  0  0
 45 46  2  0  0  0  0
 47 45  1  0  0  0  0
 48 47  1  0  0  0  0
 49 50  1  0  0  0  0
 51 50  1  0  0  0  0
 51 52  1  0  0  0  0
 53 54  1  0  0  0  0
 53 52  1  0  0  0  0
M  END
>  <REMARK>
 VINA RESULT:    -3.722      7.127     12.003
 INTER + INTRA:         -14.968
 INTER:                  -7.086
 INTRA:                  -7.883
 UNBOUND:                -7.438
 SMILES CC(=O)N[C@@H]1[C@@H](O)C[C@](O)(C(=O)O)O[C@H]1C(O)[C@H](O)CNC(=O)OCc1cn([C@@H](CCC(=O)O)C(=O)O)nn1
 SMILES IDX 24 1 22 2 21 3 23 5 20 6 18 7 16 8 15 9 9 10 8 11 14 12 6 13
 SMILES IDX 5 14 10 15 11 17 12 18 13 19 7 21 4 23 2 24 1 26 3 27 17 28
 SMILES IDX 19 30 25 32 26 33 27 34 39 35 28 36 38 37 29 38 30 39 31 40
 SMILES IDX 32 41 33 42 34 43 35 45 36 46 37 47
 H PARENT 21 4 10 16 13 20 7 22 4 25 17 29 19 31 34 44 37 48
 Flexibility Score: inf
  4 active torsions:
  status: ('A' for Active; 'I' for Inactive)
    1  A    between atoms: CA   and  CB  
    2  A    between atoms: CB   and  CG  
    3  A    between atoms: CG   and  CD  
    4  A    between atoms: CD   and  CE  

>  <TORSDO>
F 21

>  <BEGIN_>
RES LYS A 131

$$$$
ligand_11_pose_17_2HRL.pdbqt
 OpenBabel07062320523D

  6  5  0  0  0  0  0  0  0  0999 V2000
   33.1930   34.6630    9.2900 C   0  0  0  0  0  0  0  0  0  0  0  0
   32.0600   35.3600   10.0340 C   0  0  0  0  0  0  0  0  0  0  0  0
   30.7070   34.7440    9.7850 C   0  0  0  0  0  0  0  0  0  0  0  0
   30.4870   34.5160    8.2980 C   0  0  0  0  0  0  0  0  0  0  0  0
   29.0700   34.8880    7.9060 C   0  0  0  0  0  0  0  0  0  0  0  0
   28.0780   34.2720    8.8300 N   0  0  0  0  0  0  0  0  0  0  0  0
  1  2  1  0  0  0  0
  3  2  1  0  0  0  0
  4  3  1  0  0  0  0
  5  4  1  0  0  0  0
  5  6  1  0  0  0  0
M  END
>  <EGIN_R>
ES LYS A 135

>  <REMARK>
  4 active torsions:
  status: ('A' for Active; 'I' for Inactive)
    5  A    between atoms: CA   and  CB  
    6  A    between atoms: CB   and  CG  
    7  A    between atoms: CG   and  CD  
    8  A    between atoms: CD   and  CE  

$$$$
