ligand_36_pose_12_2HRL.pdbqt
 OpenBabel07062320523D

 52 53  0  0  1  0  0  0  0  0999 V2000
   31.2000   32.1340   15.1420 N   0  0  0  0  0  0  0  0  0  0  0  0
   31.7590   33.3870   15.5280 C   0  0  0  0  0  0  0  0  0  0  0  0
   31.8050   33.6900   16.7710 O   0  0  0  0  0  0  0  0  0  0  0  0
   31.1770   31.9100   14.1300 H   0  0  0  0  0  0  0  0  0  0  0  0
   30.7050   31.2530   16.1360 C   0  0  0  0  0  0  0  0  0  0  0  0
   29.2030   31.1470   16.2500 C   0  0  2  0  0  0  0  0  0  0  0  0
   28.7140   31.1080   17.6840 C   0  0  2  0  0  0  0  0  0  0  0  0
   27.9290   29.8800   17.9960 C   0  0  2  0  0  0  0  0  0  0  0  0
   25.7740   29.1810   18.5300 C   0  0  2  0  0  0  0  0  0  0  0  0
   26.4160   27.8130   18.4610 C   0  0  0  0  0  0  0  0  0  0  0  0
   26.5620   30.1770   18.0360 O   0  0  0  0  0  0  0  0  0  0  0  0
   27.7340   27.7500   19.1490 C   0  0  1  0  0  0  0  0  0  0  0  0
   28.2600   29.1900   19.2820 C   0  0  1  0  0  0  0  0  0  0  0  0
   25.3810   29.4190   19.8640 O   0  0  0  0  0  0  0  0  0  0  0  0
   26.0670   28.9930   20.4570 H   0  0  0  0  0  0  0  0  0  0  0  0
   24.5410   29.1140   17.7170 C   0  0  0  0  0  0  0  0  0  0  0  0
   23.7680   30.0970   17.6900 O   0  0  0  0  0  0  0  0  0  0  0  0
   24.2420   27.9820   16.9950 O   0  0  0  0  0  0  0  0  0  0  0  0
   24.2560   27.0450   17.3550 H   0  0  0  0  0  0  0  0  0  0  0  0
   27.7060   27.1190   20.3770 O   0  0  0  0  0  0  0  0  0  0  0  0
   27.0980   26.3230   20.2810 H   0  0  0  0  0  0  0  0  0  0  0  0
   29.6390   29.1880   19.6610 N   0  0  0  0  0  0  0  0  0  0  0  0
   30.0700   29.7720   20.9010 C   0  0  0  0  0  0  0  0  0  0  0  0
   30.3940   28.7540   19.0590 H   0  0  0  0  0  0  0  0  0  0  0  0
   31.5130   29.7640   21.2880 C   0  0  0  0  0  0  0  0  0  0  0  0
   29.2460   30.3020   21.6850 O   0  0  0  0  0  0  0  0  0  0  0  0
   28.1270   32.2840   18.0220 O   0  0  0  0  0  0  0  0  0  0  0  0
   27.1800   32.2680   18.1650 H   0  0  0  0  0  0  0  0  0  0  0  0
   28.8960   29.9110   15.6250 O   0  0  0  0  0  0  0  0  0  0  0  0
   28.4150   30.0360   14.7860 H   0  0  0  0  0  0  0  0  0  0  0  0
   32.2690   34.3240   14.6480 O   0  0  0  0  0  0  0  0  0  0  0  0
   31.5450   35.5140   14.4260 C   0  0  0  0  0  0  0  0  0  0  0  0
   30.1770   35.2480   13.9240 C   0  0  0  0  0  0  0  0  0  0  0  0
   28.9700   35.4860   14.5620 C   0  0  0  0  0  0  0  0  0  0  0  0
   29.8710   34.7200   12.7330 N   0  0  0  0  0  0  0  0  0  0  0  0
   27.9840   35.1010   13.7460 N   0  0  0  0  0  0  0  0  0  0  0  0
   28.5590   34.6440   12.6540 N   0  0  0  0  0  0  0  0  0  0  0  0
   26.5600   35.1710   13.9930 C   0  0  0  0  0  0  0  0  0  0  0  0
   25.8980   33.8660   14.0320 C   0  0  0  0  0  0  0  0  0  0  0  0
   25.0260   33.5080   13.0370 C   0  0  0  0  0  0  0  0  0  0  0  0
   26.1510   32.9940   15.0790 C   0  0  0  0  0  0  0  0  0  0  0  0
   24.3900   32.2820   13.0630 C   0  0  0  0  0  0  0  0  0  0  0  0
   25.5240   31.7560   15.1290 C   0  0  0  0  0  0  0  0  0  0  0  0
   24.6400   31.4140   14.1050 C   0  0  0  0  0  0  0  0  0  0  0  0
   23.9840   30.1410   14.1430 C   0  0  0  0  0  0  0  0  0  0  0  0
   23.4470   29.1010   14.1920 N   0  0  0  0  0  0  0  0  0  0  0  0
   29.8670   25.5550   16.9770 C   0  0  0  0  0  0  0  0  0  0  0  0
   28.3450   25.7220   17.0260 C   0  0  0  0  0  0  0  0  0  0  0  0
   27.5990   24.4390   16.6940 C   0  0  0  0  0  0  0  0  0  0  0  0
   26.1960   24.4440   17.2340 C   0  0  0  0  0  0  0  0  0  0  0  0
   26.2220   24.1110   18.7230 C   0  0  0  0  0  0  0  0  0  0  0  0
   24.9980   23.3710   19.1110 N   0  0  0  0  0  0  0  0  0  0  0  0
  1  2  1  0  0  0  0
  1  5  1  0  0  0  0
  2  3  2  0  0  0  0
  4  1  1  0  0  0  0
  6  5  1  1  0  0  0
  6  7  1  0  0  0  0
  7 27  1  6  0  0  0
  8  7  1  1  0  0  0
  8 11  1  0  0  0  0
  8 13  1  0  0  0  0
  9 16  1  6  0  0  0
  9 14  1  0  0  0  0
 10  9  1  0  0  0  0
 10 12  1  0  0  0  0
 11  9  1  0  0  0  0
 12 13  1  0  0  0  0
 12 20  1  1  0  0  0
 13 22  1  6  0  0  0
 14 15  1  0  0  0  0
 17 16  2  0  0  0  0
 18 19  1  0  0  0  0
 18 16  1  0  0  0  0
 21 20  1  0  0  0  0
 22 23  1  0  0  0  0
 23 25  1  0  0  0  0
 23 26  2  0  0  0  0
 24 22  1  0  0  0  0
 27 28  1  0  0  0  0
 29  6  1  0  0  0  0
 30 29  1  0  0  0  0
 31  2  1  0  0  0  0
 32 31  1  0  0  0  0
 33 32  1  0  0  0  0
 33 34  2  0  0  0  0
 35 33  1  0  0  0  0
 36 38  1  0  0  0  0
 36 34  1  0  0  0  0
 37 35  2  0  0  0  0
 37 36  1  0  0  0  0
 38 39  1  0  0  0  0
 39 41  2  0  0  0  0
 40 42  2  0  0  0  0
 40 39  1  0  0  0  0
 41 43  1  0  0  0  0
 42 44  1  0  0  0  0
 44 45  1  0  0  0  0
 44 43  2  0  0  0  0
 45 46  3  0  0  0  0
 47 48  1  0  0  0  0
 49 48  1  0  0  0  0
 49 50  1  0  0  0  0
 50 51  1  0  0  0  0
 51 52  1  0  0  0  0
M  END
>  <REMARK>
 VINA RESULT:    -4.205      2.804      6.104
 INTER + INTRA:         -14.750
 INTER:                  -9.046
 INTRA:                  -5.704
 UNBOUND:                -6.980
 SMILES CC(=O)N[C@@H]1[C@@H](O)C[C@](O)(C(=O)O)O[C@H]1C(O)[C@H](O)CNC(=O)OCc1cn(Cc2ccc(C#N)cc2)nn1
 SMILES IDX 21 1 22 2 23 3 20 5 18 6 16 7 15 8 9 9 8 10 14 11 6 12 5 13
 SMILES IDX 10 14 11 16 12 17 13 18 7 20 4 22 2 23 1 25 3 26 17 27 19 29
 SMILES IDX 24 31 25 32 26 33 27 34 39 35 28 36 38 37 29 38 30 39 31 40
 SMILES IDX 37 41 32 42 36 43 33 44 34 45 35 46
 H PARENT 21 4 10 15 13 19 7 21 4 24 17 28 19 30
 Flexibility Score: inf
  4 active torsions:
  status: ('A' for Active; 'I' for Inactive)
    1  A    between atoms: CA   and  CB  
    2  A    between atoms: CB   and  CG  
    3  A    between atoms: CG   and  CD  
    4  A    between atoms: CD   and  CE  

>  <TORSDO>
F 17

>  <BEGIN_>
RES LYS A 131

$$$$
ligand_36_pose_12_2HRL.pdbqt
 OpenBabel07062320523D

  6  5  0  0  0  0  0  0  0  0999 V2000
   33.1930   34.6630    9.2900 C   0  0  0  0  0  0  0  0  0  0  0  0
   32.0600   35.3600   10.0340 C   0  0  0  0  0  0  0  0  0  0  0  0
   30.7870   35.4610    9.2350 C   0  0  0  0  0  0  0  0  0  0  0  0
   30.2230   34.0780    8.9460 C   0  0  0  0  0  0  0  0  0  0  0  0
   28.7190   34.0660    9.1350 C   0  0  0  0  0  0  0  0  0  0  0  0
   28.0330   34.7930    8.0310 N   0  0  0  0  0  0  0  0  0  0  0  0
  1  2  1  0  0  0  0
  3  2  1  0  0  0  0
  4  5  1  0  0  0  0
  4  3  1  0  0  0  0
  6  5  1  0  0  0  0
M  END
>  <EGIN_R>
ES LYS A 135

>  <REMARK>
  4 active torsions:
  status: ('A' for Active; 'I' for Inactive)
    5  A    between atoms: CA   and  CB  
    6  A    between atoms: CB   and  CG  
    7  A    between atoms: CG   and  CD  
    8  A    between atoms: CD   and  CE  

$$$$
