ligand_71_pose_14_2HRL.pdbqt
 OpenBabel07062320523D

 54 55  0  0  1  0  0  0  0  0999 V2000
   24.4930   32.8660   17.7390 N   0  0  0  0  0  0  0  0  0  0  0  0
   23.6840   32.9120   16.5520 C   0  0  0  0  0  0  0  0  0  0  0  0
   23.7380   33.8930   15.7700 O   0  0  0  0  0  0  0  0  0  0  0  0
   24.4360   32.0490   18.3690 H   0  0  0  0  0  0  0  0  0  0  0  0
   25.3610   33.9810   18.0000 C   0  0  0  0  0  0  0  0  0  0  0  0
   26.8240   33.6570   17.8190 C   0  0  2  0  0  0  0  0  0  0  0  0
   27.2350   34.1780   16.4640 C   0  0  1  0  0  0  0  0  0  0  0  0
   28.7560   34.1420   16.2950 C   0  0  2  0  0  0  0  0  0  0  0  0
   30.6340   33.1330   17.0370 C   0  0  2  0  0  0  0  0  0  0  0  0
   31.4130   34.3490   16.6860 C   0  0  0  0  0  0  0  0  0  0  0  0
   29.3310   33.4280   17.3180 O   0  0  0  0  0  0  0  0  0  0  0  0
   30.6730   35.6590   16.8130 C   0  0  1  0  0  0  0  0  0  0  0  0
   29.2580   35.5760   16.3150 C   0  0  1  0  0  0  0  0  0  0  0  0
   31.1530   32.5960   18.2630 O   0  0  0  0  0  0  0  0  0  0  0  0
   31.3580   33.3550   18.8750 H   0  0  0  0  0  0  0  0  0  0  0  0
   30.8200   32.0360   16.0430 C   0  0  0  0  0  0  0  0  0  0  0  0
   30.3260   30.9230   16.2270 O   0  0  0  0  0  0  0  0  0  0  0  0
   31.5600   32.2270   14.8730 O   0  0  0  0  0  0  0  0  0  0  0  0
   32.0120   31.4670   14.3960 H   0  0  0  0  0  0  0  0  0  0  0  0
   30.7170   36.0170   18.1630 O   0  0  0  0  0  0  0  0  0  0  0  0
   30.6870   37.0090   18.2820 H   0  0  0  0  0  0  0  0  0  0  0  0
   29.0330   36.1610   15.0390 N   0  0  0  0  0  0  0  0  0  0  0  0
   29.3050   35.5340   13.7970 C   0  0  0  0  0  0  0  0  0  0  0  0
   28.6380   37.1320   14.9800 H   0  0  0  0  0  0  0  0  0  0  0  0
   29.0480   36.2130   12.4890 C   0  0  0  0  0  0  0  0  0  0  0  0
   29.7740   34.3820   13.8230 O   0  0  0  0  0  0  0  0  0  0  0  0
   26.6130   33.4970   15.4350 O   0  0  0  0  0  0  0  0  0  0  0  0
   26.3760   32.5780   15.7700 H   0  0  0  0  0  0  0  0  0  0  0  0
   26.9640   32.2730   17.9010 O   0  0  0  0  0  0  0  0  0  0  0  0
   26.0480   31.8850   17.8580 H   0  0  0  0  0  0  0  0  0  0  0  0
   22.8270   31.8850   16.2320 O   0  0  0  0  0  0  0  0  0  0  0  0
   23.1470   30.7380   15.5010 C   0  0  0  0  0  0  0  0  0  0  0  0
   24.5080   30.2750   15.8470 C   0  0  0  0  0  0  0  0  0  0  0  0
   24.8830   29.2140   16.6440 C   0  0  0  0  0  0  0  0  0  0  0  0
   25.6410   30.8430   15.4050 N   0  0  0  0  0  0  0  0  0  0  0  0
   26.2140   29.1800   16.6560 N   0  0  0  0  0  0  0  0  0  0  0  0
   26.6410   30.1750   15.9000 N   0  0  0  0  0  0  0  0  0  0  0  0
   27.0140   28.1880   17.3830 C   0  0  0  0  0  0  0  0  0  0  0  0
   27.5940   28.8100   18.6100 C   0  0  0  0  0  0  0  0  0  0  0  0
   27.2420   28.5310   19.7680 O   0  0  0  0  0  0  0  0  0  0  0  0
   28.6230   29.7910   18.4380 N   0  0  0  0  0  0  0  0  0  0  0  0
   28.9390   30.0470   17.4750 H   0  0  0  0  0  0  0  0  0  0  0  0
   29.2380   30.4310   19.5390 C   0  0  0  0  0  0  0  0  0  0  0  0
   28.7260   31.5190   20.1470 N   0  0  0  0  0  0  0  0  0  0  0  0
   30.3970   29.9550   20.0350 N   0  0  0  0  0  0  0  0  0  0  0  0
   29.3340   32.1070   21.1960 C   0  0  0  0  0  0  0  0  0  0  0  0
   31.0450   30.4890   21.0670 C   0  0  0  0  0  0  0  0  0  0  0  0
   30.5210   31.6040   21.6890 C   0  0  0  0  0  0  0  0  0  0  0  0
   29.8670   25.5550   16.9770 C   0  0  0  0  0  0  0  0  0  0  0  0
   28.3450   25.7220   17.0260 C   0  0  0  0  0  0  0  0  0  0  0  0
   27.6010   24.4030   16.8880 C   0  0  0  0  0  0  0  0  0  0  0  0
   26.6630   24.1580   18.0380 C   0  0  0  0  0  0  0  0  0  0  0  0
   25.6500   23.0870   17.6490 C   0  0  0  0  0  0  0  0  0  0  0  0
   24.9200   22.6050   18.8450 N   0  0  0  0  0  0  0  0  0  0  0  0
  1  5  1  0  0  0  0
  1  4  1  0  0  0  0
  2  1  1  0  0  0  0
  3  2  2  0  0  0  0
  6 29  1  0  0  0  0
  6  5  1  6  0  0  0
  7 27  1  6  0  0  0
  7  6  1  0  0  0  0
  8 13  1  0  0  0  0
  8  7  1  1  0  0  0
  8 11  1  0  0  0  0
  9 16  1  6  0  0  0
  9 11  1  0  0  0  0
  9 14  1  0  0  0  0
 10 12  1  0  0  0  0
 10  9  1  0  0  0  0
 12 20  1  1  0  0  0
 13 22  1  6  0  0  0
 13 12  1  0  0  0  0
 14 15  1  0  0  0  0
 16 17  2  0  0  0  0
 18 16  1  0  0  0  0
 19 18  1  0  0  0  0
 20 21  1  0  0  0  0
 23 26  2  0  0  0  0
 23 22  1  0  0  0  0
 24 22  1  0  0  0  0
 25 23  1  0  0  0  0
 27 28  1  0  0  0  0
 30 29  1  0  0  0  0
 31  2  1  0  0  0  0
 32 33  1  0  0  0  0
 32 31  1  0  0  0  0
 33 34  2  0  0  0  0
 34 36  1  0  0  0  0
 35 33  1  0  0  0  0
 35 37  2  0  0  0  0
 36 38  1  0  0  0  0
 37 36  1  0  0  0  0
 38 39  1  0  0  0  0
 39 40  2  0  0  0  0
 41 39  1  0  0  0  0
 41 43  1  0  0  0  0
 42 41  1  0  0  0  0
 43 45  1  0  0  0  0
 43 44  2  0  0  0  0
 44 46  1  0  0  0  0
 45 47  2  0  0  0  0
 46 48  2  0  0  0  0
 47 48  1  0  0  0  0
 49 50  1  0  0  0  0
 51 50  1  0  0  0  0
 51 52  1  0  0  0  0
 53 52  1  0  0  0  0
 53 54  1  0  0  0  0
M  END
>  <REMARK>
 VINA RESULT:    -3.859      2.631      6.020
 INTER + INTRA:         -14.695
 INTER:                  -6.984
 INTRA:                  -7.711
 UNBOUND:                -7.565
 SMILES CC(=O)N[C@@H]1[C@@H](O)C[C@](O)(C(=O)O)O[C@H]1C(O)[C@H](O)CNC(=O)OCc1cn(CC(=O)Nc2ncccn2)nn1
 SMILES IDX 21 1 22 2 23 3 20 5 18 6 16 7 15 8 9 9 8 10 14 11 6 12 5 13
 SMILES IDX 10 14 11 16 12 17 13 18 7 20 4 22 2 23 1 25 3 26 17 27 19 29
 SMILES IDX 24 31 25 32 26 33 27 34 40 35 28 36 39 37 29 38 30 39 31 40
 SMILES IDX 32 41 33 43 34 44 38 45 35 46 37 47 36 48
 H PARENT 21 4 10 15 13 19 7 21 4 24 17 28 19 30 32 42
 Flexibility Score: inf
  4 active torsions:
  status: ('A' for Active; 'I' for Inactive)
    1  A    between atoms: CA   and  CB  
    2  A    between atoms: CB   and  CG  
    3  A    between atoms: CG   and  CD  
    4  A    between atoms: CD   and  CE  

>  <TORSDO>
F 17

>  <BEGIN_>
RES LYS A 131

$$$$
ligand_71_pose_14_2HRL.pdbqt
 OpenBabel07062320523D

  6  5  0  0  0  0  0  0  0  0999 V2000
   33.1930   34.6630    9.2900 C   0  0  0  0  0  0  0  0  0  0  0  0
   32.0600   35.3600   10.0340 C   0  0  0  0  0  0  0  0  0  0  0  0
   30.7760   34.5720   10.0510 C   0  0  0  0  0  0  0  0  0  0  0  0
   30.3880   34.1470    8.6430 C   0  0  0  0  0  0  0  0  0  0  0  0
   29.5580   35.2240    7.9720 C   0  0  0  0  0  0  0  0  0  0  0  0
   28.1130   34.8640    7.9680 N   0  0  0  0  0  0  0  0  0  0  0  0
  1  2  1  0  0  0  0
  2  3  1  0  0  0  0
  4  3  1  0  0  0  0
  5  4  1  0  0  0  0
  6  5  1  0  0  0  0
M  END
>  <EGIN_R>
ES LYS A 135

>  <REMARK>
  4 active torsions:
  status: ('A' for Active; 'I' for Inactive)
    5  A    between atoms: CA   and  CB  
    6  A    between atoms: CB   and  CG  
    7  A    between atoms: CG   and  CD  
    8  A    between atoms: CD   and  CE  

$$$$
