ligand_8_pose_16_2HRL.pdbqt
 OpenBabel07062320523D

 50 51  0  0  1  0  0  0  0  0999 V2000
   28.7970   31.7350   18.6660 C   0  0  0  0  0  0  0  0  0  0  0  0
   28.8910   31.2290   20.0820 C   0  0  2  0  0  0  0  0  0  0  0  0
   30.1380   30.4090   20.1980 C   0  0  1  0  0  0  0  0  0  0  0  0
   30.1110   29.3210   21.2450 C   0  0  2  0  0  0  0  0  0  0  0  0
   32.2960   28.9310   22.0020 C   0  0  2  0  0  0  0  0  0  0  0  0
   31.9400   27.4920   22.3780 C   0  0  0  0  0  0  0  0  0  0  0  0
   31.1430   29.6320   22.1210 O   0  0  0  0  0  0  0  0  0  0  0  0
   31.1010   26.9790   21.2430 C   0  0  1  0  0  0  0  0  0  0  0  0
   30.0570   27.9430   20.7450 C   0  0  1  0  0  0  0  0  0  0  0  0
   32.8790   28.8860   20.7620 O   0  0  0  0  0  0  0  0  0  0  0  0
   33.6140   29.5490   20.7500 H   0  0  0  0  0  0  0  0  0  0  0  0
   33.2960   29.4510   22.9750 C   0  0  0  0  0  0  0  0  0  0  0  0
   34.0470   30.3970   22.6290 O   0  0  0  0  0  0  0  0  0  0  0  0
   33.4170   28.9150   24.2520 O   0  0  0  0  0  0  0  0  0  0  0  0
   33.5090   27.9180   24.4300 H   0  0  0  0  0  0  0  0  0  0  0  0
   31.9840   26.6700   20.2080 O   0  0  0  0  0  0  0  0  0  0  0  0
   31.5530   26.1420   19.5130 H   0  0  0  0  0  0  0  0  0  0  0  0
   28.7260   27.3860   21.0670 N   0  0  0  0  0  0  0  0  0  0  0  0
   27.6970   27.3350   20.1010 C   0  0  0  0  0  0  0  0  0  0  0  0
   28.5250   27.0120   22.0390 H   0  0  0  0  0  0  0  0  0  0  0  0
   26.3390   26.7790   20.4230 C   0  0  0  0  0  0  0  0  0  0  0  0
   27.9440   27.7710   18.9480 O   0  0  0  0  0  0  0  0  0  0  0  0
   30.5800   30.0180   18.9610 O   0  0  0  0  0  0  0  0  0  0  0  0
   30.8170   30.7950   18.3700 H   0  0  0  0  0  0  0  0  0  0  0  0
   27.7820   30.4860   20.3950 O   0  0  0  0  0  0  0  0  0  0  0  0
   27.6060   30.4470   21.3750 H   0  0  0  0  0  0  0  0  0  0  0  0
   29.8110   32.6370   18.2370 N   0  0  0  0  0  0  0  0  0  0  0  0
   30.6140   32.4460   17.0920 C   0  0  0  0  0  0  0  0  0  0  0  0
   30.0070   33.5320   18.7970 H   0  0  0  0  0  0  0  0  0  0  0  0
   30.5200   31.4480   16.3400 O   0  0  0  0  0  0  0  0  0  0  0  0
   31.5700   33.4230   16.7750 O   0  0  0  0  0  0  0  0  0  0  0  0
   31.8190   33.6680   15.4100 C   0  0  0  0  0  0  0  0  0  0  0  0
   30.9670   34.8070   14.9870 C   0  0  0  0  0  0  0  0  0  0  0  0
   30.4290   34.9600   13.7020 C   0  0  0  0  0  0  0  0  0  0  0  0
   30.5330   35.8860   15.6470 N   0  0  0  0  0  0  0  0  0  0  0  0
   29.7110   36.0940   13.6390 N   0  0  0  0  0  0  0  0  0  0  0  0
   29.7920   36.6390   14.8400 N   0  0  0  0  0  0  0  0  0  0  0  0
   29.0120   36.5880   12.4960 C   0  0  0  0  0  0  0  0  0  0  0  0
   27.7220   36.1990   12.2110 C   0  0  0  0  0  0  0  0  0  0  0  0
   29.6060   37.4820   11.6300 C   0  0  0  0  0  0  0  0  0  0  0  0
   27.0530   36.6920   11.0890 C   0  0  0  0  0  0  0  0  0  0  0  0
   28.9460   37.9740   10.5160 C   0  0  0  0  0  0  0  0  0  0  0  0
   31.4040   38.0310   12.0190 Br  0  0  0  0  0  0  0  0  0  0  0  0
   27.6540   37.5860   10.2280 C   0  0  0  0  0  0  0  0  0  0  0  0
   29.8670   25.5550   16.9770 C   0  0  0  0  0  0  0  0  0  0  0  0
   28.3450   25.7220   17.0260 C   0  0  0  0  0  0  0  0  0  0  0  0
   27.6000   24.4170   16.7950 C   0  0  0  0  0  0  0  0  0  0  0  0
   26.7870   24.0090   17.9920 C   0  0  0  0  0  0  0  0  0  0  0  0
   25.3270   23.8410   17.5830 C   0  0  0  0  0  0  0  0  0  0  0  0
   24.7110   25.1600   17.3050 N   0  0  0  0  0  0  0  0  0  0  0  0
  2  1  1  6  0  0  0
  2  3  1  0  0  0  0
  2 25  1  0  0  0  0
  3 23  1  6  0  0  0
  4  3  1  6  0  0  0
  4  7  1  0  0  0  0
  5 10  1  6  0  0  0
  5  7  1  0  0  0  0
  5  6  1  0  0  0  0
  5 12  1  0  0  0  0
  8 16  1  6  0  0  0
  8  6  1  0  0  0  0
  9 18  1  1  0  0  0
  9  8  1  0  0  0  0
  9  4  1  0  0  0  0
 11 10  1  0  0  0  0
 12 14  1  0  0  0  0
 13 12  2  0  0  0  0
 14 15  1  0  0  0  0
 17 16  1  0  0  0  0
 18 20  1  0  0  0  0
 19 21  1  0  0  0  0
 19 18  1  0  0  0  0
 22 19  2  0  0  0  0
 24 23  1  0  0  0  0
 25 26  1  0  0  0  0
 27  1  1  0  0  0  0
 27 29  1  0  0  0  0
 28 27  1  0  0  0  0
 30 28  2  0  0  0  0
 31 28  1  0  0  0  0
 32 31  1  0  0  0  0
 33 32  1  0  0  0  0
 33 35  1  0  0  0  0
 34 33  2  0  0  0  0
 36 34  1  0  0  0  0
 36 37  1  0  0  0  0
 37 35  2  0  0  0  0
 38 36  1  0  0  0  0
 39 38  1  0  0  0  0
 40 43  1  0  0  0  0
 40 38  2  0  0  0  0
 41 39  2  0  0  0  0
 42 40  1  0  0  0  0
 44 42  2  0  0  0  0
 44 41  1  0  0  0  0
 45 46  1  0  0  0  0
 47 46  1  0  0  0  0
 47 48  1  0  0  0  0
 49 48  1  0  0  0  0
 50 49  1  0  0  0  0
M  END
>  <REMARK>
 VINA RESULT:    -5.444      2.193      4.128
 INTER + INTRA:         -13.818
 INTER:                  -8.816
 INTRA:                  -5.002
 UNBOUND:                -4.396
 SMILES CC(=O)N[C@@H]1[C@@H](O)C[C@](O)(C(=O)O)O[C@H]1C(O)[C@H](O)CNC(=O)OCc1cn(-c2ccccc2Br)nn1
 SMILES IDX 20 1 18 2 16 3 15 4 9 5 8 6 14 7 6 8 5 9 10 10 11 12 12 13
 SMILES IDX 13 14 7 16 4 18 2 19 1 21 3 22 17 23 19 25 21 27 22 28 23 30
 SMILES IDX 24 31 25 32 26 33 27 34 37 35 28 36 36 37 29 38 30 39 34 40
 SMILES IDX 31 41 33 42 35 43 32 44
 H PARENT 10 11 13 15 7 17 4 20 17 24 19 26 21 29
 Flexibility Score: inf
  4 active torsions:
  status: ('A' for Active; 'I' for Inactive)
    1  A    between atoms: CA   and  CB  
    2  A    between atoms: CB   and  CG  
    3  A    between atoms: CG   and  CD  
    4  A    between atoms: CD   and  CE  

>  <TORSDO>
F 15

>  <BEGIN_>
RES LYS A 131

$$$$
ligand_8_pose_16_2HRL.pdbqt
 OpenBabel07062320523D

  6  5  0  0  0  0  0  0  0  0999 V2000
   33.1930   34.6630    9.2900 C   0  0  0  0  0  0  0  0  0  0  0  0
   32.0600   35.3600   10.0340 C   0  0  0  0  0  0  0  0  0  0  0  0
   30.7230   34.6870    9.8630 C   0  0  0  0  0  0  0  0  0  0  0  0
   30.2630   34.7670    8.4150 C   0  0  0  0  0  0  0  0  0  0  0  0
   28.7620   34.5710    8.3210 C   0  0  0  0  0  0  0  0  0  0  0  0
   28.2520   33.7770    9.4730 N   0  0  0  0  0  0  0  0  0  0  0  0
  1  2  1  0  0  0  0
  3  2  1  0  0  0  0
  4  3  1  0  0  0  0
  5  4  1  0  0  0  0
  5  6  1  0  0  0  0
M  END
>  <EGIN_R>
ES LYS A 135

>  <REMARK>
  4 active torsions:
  status: ('A' for Active; 'I' for Inactive)
    5  A    between atoms: CA   and  CB  
    6  A    between atoms: CB   and  CG  
    7  A    between atoms: CG   and  CD  
    8  A    between atoms: CD   and  CE  

$$$$
