ligand_18_pose_10_2HRL.pdbqt
 OpenBabel07062320523D

 54 55  0  0  1  0  0  0  0  0999 V2000
   29.2930   29.6300   19.4800 N   0  0  0  0  0  0  0  0  0  0  0  0
   28.1850   29.3340   20.3010 C   0  0  0  0  0  0  0  0  0  0  0  0
   27.5690   30.2860   20.8400 O   0  0  0  0  0  0  0  0  0  0  0  0
   29.7900   28.8230   19.0420 H   0  0  0  0  0  0  0  0  0  0  0  0
   29.7880   30.9620   19.1980 C   0  0  0  0  0  0  0  0  0  0  0  0
   29.4510   31.3740   17.7920 C   0  0  2  0  0  0  0  0  0  0  0  0
   28.1930   32.1640   17.6580 C   0  0  1  0  0  0  0  0  0  0  0  0
   28.0400   33.0370   16.4710 C   0  0  2  0  0  0  0  0  0  0  0  0
   29.4360   34.2960   15.0770 C   0  0  2  0  0  0  0  0  0  0  0  0
   28.1550   34.3400   14.2620 C   0  0  0  0  0  0  0  0  0  0  0  0
   29.3690   33.4860   16.1710 O   0  0  0  0  0  0  0  0  0  0  0  0
   27.0610   34.8190   15.1510 C   0  0  1  0  0  0  0  0  0  0  0  0
   27.2420   34.2720   16.5820 C   0  0  1  0  0  0  0  0  0  0  0  0
   29.7070   35.6360   15.4130 O   0  0  0  0  0  0  0  0  0  0  0  0
   28.8390   36.1070   15.5510 H   0  0  0  0  0  0  0  0  0  0  0  0
   30.5650   33.8170   14.2380 C   0  0  0  0  0  0  0  0  0  0  0  0
   30.8920   34.4770   13.2300 O   0  0  0  0  0  0  0  0  0  0  0  0
   31.2700   32.6560   14.5420 O   0  0  0  0  0  0  0  0  0  0  0  0
   31.8570   32.2800   13.7960 H   0  0  0  0  0  0  0  0  0  0  0  0
   26.9090   36.1880   15.1660 O   0  0  0  0  0  0  0  0  0  0  0  0
   26.8020   36.5490   14.2510 H   0  0  0  0  0  0  0  0  0  0  0  0
   25.9370   34.2020   17.1270 N   0  0  0  0  0  0  0  0  0  0  0  0
   25.6140   34.9290   18.2920 C   0  0  0  0  0  0  0  0  0  0  0  0
   25.1980   33.6300   16.6970 H   0  0  0  0  0  0  0  0  0  0  0  0
   24.2510   34.8870   18.9060 C   0  0  0  0  0  0  0  0  0  0  0  0
   26.4630   35.6680   18.8950 O   0  0  0  0  0  0  0  0  0  0  0  0
   27.0440   31.5280   18.1050 O   0  0  0  0  0  0  0  0  0  0  0  0
   26.2430   32.0650   18.0620 H   0  0  0  0  0  0  0  0  0  0  0  0
   29.5660   30.3570   16.8540 O   0  0  0  0  0  0  0  0  0  0  0  0
   29.3680   29.4650   17.2220 H   0  0  0  0  0  0  0  0  0  0  0  0
   27.7490   28.0220   20.5340 O   0  0  0  0  0  0  0  0  0  0  0  0
   27.5060   27.1400   19.4530 C   0  0  0  0  0  0  0  0  0  0  0  0
   26.8350   27.9120   18.3700 C   0  0  0  0  0  0  0  0  0  0  0  0
   25.4960   28.2210   18.2470 C   0  0  0  0  0  0  0  0  0  0  0  0
   27.4100   28.4630   17.2890 N   0  0  0  0  0  0  0  0  0  0  0  0
   25.3100   28.9300   17.1240 N   0  0  0  0  0  0  0  0  0  0  0  0
   26.4910   29.0630   16.5600 N   0  0  0  0  0  0  0  0  0  0  0  0
   24.0100   29.4420   16.6620 C   0  0  0  0  0  0  0  0  0  0  0  0
   24.2830   30.7140   15.9530 C   0  0  0  0  0  0  0  0  0  0  0  0
   24.3630   31.7850   16.6410 O   0  0  0  0  0  0  0  0  0  0  0  0
   24.4660   30.8460   14.5570 N   0  0  0  0  0  0  0  0  0  0  0  0
   24.4010   29.9760   13.9990 H   0  0  0  0  0  0  0  0  0  0  0  0
   24.7330   32.1090   13.9080 C   0  0  0  0  0  0  0  0  0  0  0  0
   23.4240   32.5590   13.2900 C   0  0  0  0  0  0  0  0  0  0  0  0
   22.2980   31.8810   13.1000 C   0  0  0  0  0  0  0  0  0  0  0  0
   23.0880   34.1370   12.6580 S   0  0  0  0  0  0  0  0  0  0  0  0
   21.2290   32.4700   12.5230 C   0  0  0  0  0  0  0  0  0  0  0  0
   21.4010   33.8110   12.1520 C   0  0  0  0  0  0  0  0  0  0  0  0
   29.8670   25.5550   16.9770 C   0  0  0  0  0  0  0  0  0  0  0  0
   28.3450   25.7220   17.0260 C   0  0  0  0  0  0  0  0  0  0  0  0
   27.6010   24.4020   16.8920 C   0  0  0  0  0  0  0  0  0  0  0  0
   26.1500   24.5290   17.2650 C   0  0  0  0  0  0  0  0  0  0  0  0
   25.8680   23.6870   18.5050 C   0  0  0  0  0  0  0  0  0  0  0  0
   24.4240   23.7200   18.8370 N   0  0  0  0  0  0  0  0  0  0  0  0
  1  2  1  0  0  0  0
  2 31  1  0  0  0  0
  2  3  2  0  0  0  0
  4  1  1  0  0  0  0
  5  1  1  0  0  0  0
  6  5  1  1  0  0  0
  7  6  1  0  0  0  0
  7 27  1  6  0  0  0
  8 13  1  0  0  0  0
  8  7  1  1  0  0  0
  9 16  1  6  0  0  0
  9 14  1  0  0  0  0
  9 11  1  0  0  0  0
 10  9  1  0  0  0  0
 10 12  1  0  0  0  0
 11  8  1  0  0  0  0
 12 20  1  1  0  0  0
 12 13  1  0  0  0  0
 13 22  1  6  0  0  0
 14 15  1  0  0  0  0
 16 18  1  0  0  0  0
 17 16  2  0  0  0  0
 19 18  1  0  0  0  0
 21 20  1  0  0  0  0
 22 23  1  0  0  0  0
 23 26  2  0  0  0  0
 23 25  1  0  0  0  0
 24 22  1  0  0  0  0
 28 27  1  0  0  0  0
 29 30  1  0  0  0  0
 29  6  1  0  0  0  0
 32 31  1  0  0  0  0
 33 32  1  0  0  0  0
 34 33  2  0  0  0  0
 35 33  1  0  0  0  0
 36 34  1  0  0  0  0
 37 36  1  0  0  0  0
 37 35  2  0  0  0  0
 38 36  1  0  0  0  0
 39 40  2  0  0  0  0
 39 38  1  0  0  0  0
 41 39  1  0  0  0  0
 42 41  1  0  0  0  0
 43 41  1  0  0  0  0
 44 43  1  0  0  0  0
 45 44  2  0  0  0  0
 46 44  1  0  0  0  0
 47 45  1  0  0  0  0
 48 47  2  0  0  0  0
 48 46  1  0  0  0  0
 49 50  1  0  0  0  0
 51 50  1  0  0  0  0
 51 52  1  0  0  0  0
 52 53  1  0  0  0  0
 53 54  1  0  0  0  0
M  END
>  <REMARK>
 VINA RESULT:    -4.201      4.462      8.758
 INTER + INTRA:         -14.795
 INTER:                  -7.366
 INTRA:                  -7.430
 UNBOUND:                -6.788
 SMILES CC(=O)N[C@@H]1[C@@H](O)C[C@](O)(C(=O)O)O[C@H]1C(O)[C@H](O)CNC(=O)OCc1cn(CC(=O)NCc2cccs2)nn1
 SMILES IDX 21 1 22 2 23 3 20 5 18 6 16 7 15 8 9 9 8 10 14 11 6 12 5 13
 SMILES IDX 10 14 11 16 12 17 13 18 7 20 4 22 2 23 1 25 3 26 17 27 19 29
 SMILES IDX 24 31 25 32 26 33 27 34 40 35 28 36 39 37 29 38 30 39 31 40
 SMILES IDX 32 41 33 43 34 44 35 45 38 46 36 47 37 48
 H PARENT 21 4 10 15 13 19 7 21 4 24 17 28 19 30 32 42
 Flexibility Score: inf
  4 active torsions:
  status: ('A' for Active; 'I' for Inactive)
    1  A    between atoms: CA   and  CB  
    2  A    between atoms: CB   and  CG  
    3  A    between atoms: CG   and  CD  
    4  A    between atoms: CD   and  CE  

>  <TORSDO>
F 18

>  <BEGIN_>
RES LYS A 131

$$$$
ligand_18_pose_10_2HRL.pdbqt
 OpenBabel07062320523D

  6  5  0  0  0  0  0  0  0  0999 V2000
   33.1930   34.6630    9.2900 C   0  0  0  0  0  0  0  0  0  0  0  0
   32.0600   35.3600   10.0340 C   0  0  0  0  0  0  0  0  0  0  0  0
   30.7580   35.3700    9.2760 C   0  0  0  0  0  0  0  0  0  0  0  0
   29.6360   34.7990   10.1290 C   0  0  0  0  0  0  0  0  0  0  0  0
   28.7290   33.9150    9.2950 C   0  0  0  0  0  0  0  0  0  0  0  0
   28.0000   34.7110    8.2690 N   0  0  0  0  0  0  0  0  0  0  0  0
  1  2  1  0  0  0  0
  3  2  1  0  0  0  0
  3  4  1  0  0  0  0
  5  4  1  0  0  0  0
  6  5  1  0  0  0  0
M  END
>  <EGIN_R>
ES LYS A 135

>  <REMARK>
  4 active torsions:
  status: ('A' for Active; 'I' for Inactive)
    5  A    between atoms: CA   and  CB  
    6  A    between atoms: CB   and  CG  
    7  A    between atoms: CG   and  CD  
    8  A    between atoms: CD   and  CE  

$$$$
