ligand_44_pose_19_2HRL.pdbqt
 OpenBabel07062320523D

 51 52  0  0  1  0  0  0  0  0999 V2000
   23.9710   32.6010   14.9170 N   0  0  0  0  0  0  0  0  0  0  0  0
   23.4890   31.4380   15.5660 C   0  0  0  0  0  0  0  0  0  0  0  0
   22.4010   30.8740   15.3420 O   0  0  0  0  0  0  0  0  0  0  0  0
   24.9260   32.9970   15.1860 H   0  0  0  0  0  0  0  0  0  0  0  0
   23.1840   33.2390   13.9080 C   0  0  0  0  0  0  0  0  0  0  0  0
   23.9730   33.9190   12.8190 C   0  0  2  0  0  0  0  0  0  0  0  0
   24.9830   34.8820   13.3300 C   0  0  1  0  0  0  0  0  0  0  0  0
   26.4150   34.6000   13.1030 C   0  0  2  0  0  0  0  0  0  0  0  0
   27.7260   35.6360   14.6930 C   0  0  2  0  0  0  0  0  0  0  0  0
   29.0150   35.4640   13.9220 C   0  0  0  0  0  0  0  0  0  0  0  0
   26.9760   34.5120   14.3880 O   0  0  0  0  0  0  0  0  0  0  0  0
   28.6580   35.5350   12.4770 C   0  0  1  0  0  0  0  0  0  0  0  0
   27.1780   35.4250   12.1670 C   0  0  1  0  0  0  0  0  0  0  0  0
   27.1630   36.8310   14.3030 O   0  0  0  0  0  0  0  0  0  0  0  0
   26.4190   37.1330   14.8580 H   0  0  0  0  0  0  0  0  0  0  0  0
   28.0610   35.6050   16.1370 C   0  0  0  0  0  0  0  0  0  0  0  0
   28.6880   36.5200   16.7140 O   0  0  0  0  0  0  0  0  0  0  0  0
   27.6450   34.4900   16.8590 O   0  0  0  0  0  0  0  0  0  0  0  0
   27.5500   33.5740   16.4520 H   0  0  0  0  0  0  0  0  0  0  0  0
   29.0650   36.8100   12.0170 O   0  0  0  0  0  0  0  0  0  0  0  0
   29.5230   37.3190   12.7150 H   0  0  0  0  0  0  0  0  0  0  0  0
   27.1930   34.8340   10.8100 N   0  0  0  0  0  0  0  0  0  0  0  0
   26.2240   35.1150    9.8400 C   0  0  0  0  0  0  0  0  0  0  0  0
   27.9950   34.1820   10.6350 H   0  0  0  0  0  0  0  0  0  0  0  0
   26.3230   34.4590    8.5020 C   0  0  0  0  0  0  0  0  0  0  0  0
   25.2920   35.8960   10.0820 O   0  0  0  0  0  0  0  0  0  0  0  0
   24.5560   36.1760   13.0740 O   0  0  0  0  0  0  0  0  0  0  0  0
   25.0450   36.5370   12.2810 H   0  0  0  0  0  0  0  0  0  0  0  0
   23.2140   34.3900   11.7620 O   0  0  0  0  0  0  0  0  0  0  0  0
   22.8240   33.6820   11.2120 H   0  0  0  0  0  0  0  0  0  0  0  0
   24.2930   30.8560   16.5450 O   0  0  0  0  0  0  0  0  0  0  0  0
   25.2660   29.8930   16.2190 C   0  0  0  0  0  0  0  0  0  0  0  0
   26.6270   30.4580   16.2310 C   0  0  0  0  0  0  0  0  0  0  0  0
   27.7940   29.9870   16.7840 C   0  0  0  0  0  0  0  0  0  0  0  0
   26.9180   31.6390   15.6380 N   0  0  0  0  0  0  0  0  0  0  0  0
   28.7580   30.8960   16.5090 N   0  0  0  0  0  0  0  0  0  0  0  0
   28.1910   31.8690   15.8210 N   0  0  0  0  0  0  0  0  0  0  0  0
   30.1440   30.7820   16.9140 C   0  0  0  0  0  0  0  0  0  0  0  0
   30.7900   32.1150   16.6790 C   0  0  0  0  0  0  0  0  0  0  0  0
   30.8120   33.0460   17.7060 C   0  0  0  0  0  0  0  0  0  0  0  0
   31.3530   32.3940   15.4520 C   0  0  0  0  0  0  0  0  0  0  0  0
   31.4070   34.2570   17.4690 C   0  0  0  0  0  0  0  0  0  0  0  0
   31.9590   33.6260   15.2090 C   0  0  0  0  0  0  0  0  0  0  0  0
   31.9670   34.5290   16.2420 C   0  0  0  0  0  0  0  0  0  0  0  0
   32.7920   36.2280   15.9410 Br  0  0  0  0  0  0  0  0  0  0  0  0
   29.8670   25.5550   16.9770 C   0  0  0  0  0  0  0  0  0  0  0  0
   28.3450   25.7220   17.0260 C   0  0  0  0  0  0  0  0  0  0  0  0
   27.6010   24.4010   16.9000 C   0  0  0  0  0  0  0  0  0  0  0  0
   26.6770   24.1590   18.0610 C   0  0  0  0  0  0  0  0  0  0  0  0
   25.7890   25.3810   18.2690 C   0  0  0  0  0  0  0  0  0  0  0  0
   24.5790   25.2940   17.4180 N   0  0  0  0  0  0  0  0  0  0  0  0
  1  4  1  0  0  0  0
  1  2  1  0  0  0  0
  2 31  1  0  0  0  0
  3  2  2  0  0  0  0
  5  1  1  0  0  0  0
  6  7  1  0  0  0  0
  6  5  1  1  0  0  0
  7 27  1  6  0  0  0
  8  7  1  1  0  0  0
  8 11  1  0  0  0  0
  9 14  1  6  0  0  0
  9 16  1  0  0  0  0
 10  9  1  0  0  0  0
 11  9  1  0  0  0  0
 12 20  1  1  0  0  0
 12 10  1  0  0  0  0
 13 22  1  6  0  0  0
 13 12  1  0  0  0  0
 13  8  1  0  0  0  0
 14 15  1  0  0  0  0
 16 17  2  0  0  0  0
 16 18  1  0  0  0  0
 19 18  1  0  0  0  0
 20 21  1  0  0  0  0
 23 26  2  0  0  0  0
 23 22  1  0  0  0  0
 24 22  1  0  0  0  0
 25 23  1  0  0  0  0
 28 27  1  0  0  0  0
 29  6  1  0  0  0  0
 30 29  1  0  0  0  0
 32 33  1  0  0  0  0
 32 31  1  0  0  0  0
 33 34  2  0  0  0  0
 35 37  2  0  0  0  0
 35 33  1  0  0  0  0
 36 34  1  0  0  0  0
 36 38  1  0  0  0  0
 37 36  1  0  0  0  0
 39 38  1  0  0  0  0
 39 40  2  0  0  0  0
 41 39  1  0  0  0  0
 42 40  1  0  0  0  0
 43 41  2  0  0  0  0
 43 44  1  0  0  0  0
 44 42  2  0  0  0  0
 45 44  1  0  0  0  0
 46 47  1  0  0  0  0
 48 47  1  0  0  0  0
 48 49  1  0  0  0  0
 49 50  1  0  0  0  0
 51 50  1  0  0  0  0
M  END
>  <REMARK>
 VINA RESULT:    -4.387      3.437      6.590
 INTER + INTRA:         -14.246
 INTER:                  -7.849
 INTRA:                  -6.398
 UNBOUND:                -6.398
 SMILES CC(=O)N[C@@H]1[C@@H](O)C[C@](O)(C(=O)O)O[C@H]1C(O)[C@H](O)CNC(=O)OCc1cn(Cc2ccc(Br)cc2)nn1
 SMILES IDX 21 1 22 2 23 3 20 5 18 6 16 7 15 8 9 9 8 10 14 11 6 12 5 13
 SMILES IDX 10 14 11 16 12 17 13 18 7 20 4 22 2 23 1 25 3 26 17 27 19 29
 SMILES IDX 24 31 25 32 26 33 27 34 38 35 28 36 37 37 29 38 30 39 31 40
 SMILES IDX 36 41 32 42 35 43 33 44 34 45
 H PARENT 21 4 10 15 13 19 7 21 4 24 17 28 19 30
 Flexibility Score: inf
  4 active torsions:
  status: ('A' for Active; 'I' for Inactive)
    1  A    between atoms: CA   and  CB  
    2  A    between atoms: CB   and  CG  
    3  A    between atoms: CG   and  CD  
    4  A    between atoms: CD   and  CE  

>  <TORSDO>
F 16

>  <BEGIN_>
RES LYS A 131

$$$$
ligand_44_pose_19_2HRL.pdbqt
 OpenBabel07062320523D

  6  5  0  0  0  0  0  0  0  0999 V2000
   33.1930   34.6630    9.2900 C   0  0  0  0  0  0  0  0  0  0  0  0
   32.0600   35.3600   10.0340 C   0  0  0  0  0  0  0  0  0  0  0  0
   30.6950   34.8200    9.6950 C   0  0  0  0  0  0  0  0  0  0  0  0
   30.6150   34.4480    8.2220 C   0  0  0  0  0  0  0  0  0  0  0  0
   29.5630   35.2850    7.5190 C   0  0  0  0  0  0  0  0  0  0  0  0
   29.2520   36.5180    8.2930 N   0  0  0  0  0  0  0  0  0  0  0  0
  1  2  1  0  0  0  0
  3  2  1  0  0  0  0
  4  3  1  0  0  0  0
  5  4  1  0  0  0  0
  5  6  1  0  0  0  0
M  END
>  <EGIN_R>
ES LYS A 135

>  <REMARK>
  4 active torsions:
  status: ('A' for Active; 'I' for Inactive)
    5  A    between atoms: CA   and  CB  
    6  A    between atoms: CB   and  CG  
    7  A    between atoms: CG   and  CD  
    8  A    between atoms: CD   and  CE  

$$$$
