ligand_14_pose_1_2HRL.pdbqt
 OpenBabel07062320523D

 50 51  0  0  1  0  0  0  0  0999 V2000
   29.7420   30.3910   18.1300 N   0  0  0  0  0  0  0  0  0  0  0  0
   28.8830   30.6470   19.2140 C   0  0  0  0  0  0  0  0  0  0  0  0
   28.6730   31.8080   19.5900 O   0  0  0  0  0  0  0  0  0  0  0  0
   29.8590   29.3470   17.8980 H   0  0  0  0  0  0  0  0  0  0  0  0
   30.4430   31.3550   17.3430 C   0  0  0  0  0  0  0  0  0  0  0  0
   29.8050   31.5150   15.9940 C   0  0  2  0  0  0  0  0  0  0  0  0
   28.8110   32.6730   15.9820 C   0  0  1  0  0  0  0  0  0  0  0  0
   29.0820   33.4630   14.6890 C   0  0  2  0  0  0  0  0  0  0  0  0
   31.1660   34.5370   14.6260 C   0  0  2  0  0  0  0  0  0  0  0  0
   30.5250   35.5830   15.5170 C   0  0  0  0  0  0  0  0  0  0  0  0
   30.3980   33.4410   14.3850 O   0  0  0  0  0  0  0  0  0  0  0  0
   29.1880   35.9700   14.9860 C   0  0  1  0  0  0  0  0  0  0  0  0
   28.3660   34.7630   14.6690 C   0  0  1  0  0  0  0  0  0  0  0  0
   32.2820   34.0780   15.3670 O   0  0  0  0  0  0  0  0  0  0  0  0
   32.1350   33.1050   15.5760 H   0  0  0  0  0  0  0  0  0  0  0  0
   31.7040   35.1430   13.3850 C   0  0  0  0  0  0  0  0  0  0  0  0
   32.3110   36.2340   13.4440 O   0  0  0  0  0  0  0  0  0  0  0  0
   31.5460   34.5200   12.1620 O   0  0  0  0  0  0  0  0  0  0  0  0
   30.9780   34.9690   11.4570 H   0  0  0  0  0  0  0  0  0  0  0  0
   28.5630   36.7700   15.9350 O   0  0  0  0  0  0  0  0  0  0  0  0
   29.1450   36.8750   16.7350 H   0  0  0  0  0  0  0  0  0  0  0  0
   27.6050   34.9350   13.4330 N   0  0  0  0  0  0  0  0  0  0  0  0
   26.3460   35.5460   13.3970 C   0  0  0  0  0  0  0  0  0  0  0  0
   28.0440   34.5760   12.5640 H   0  0  0  0  0  0  0  0  0  0  0  0
   25.6430   35.6770   12.0950 C   0  0  0  0  0  0  0  0  0  0  0  0
   25.8100   35.9830   14.4670 O   0  0  0  0  0  0  0  0  0  0  0  0
   27.5320   32.1270   15.9490 O   0  0  0  0  0  0  0  0  0  0  0  0
   27.2460   31.7230   16.7850 H   0  0  0  0  0  0  0  0  0  0  0  0
   29.2460   30.3680   15.4780 O   0  0  0  0  0  0  0  0  0  0  0  0
   28.9910   30.4180   14.5270 H   0  0  0  0  0  0  0  0  0  0  0  0
   28.2340   29.6270   19.9140 O   0  0  0  0  0  0  0  0  0  0  0  0
   26.8550   29.3870   19.7210 C   0  0  0  0  0  0  0  0  0  0  0  0
   26.4650   29.4470   18.2900 C   0  0  0  0  0  0  0  0  0  0  0  0
   25.2510   29.8950   17.7650 C   0  0  0  0  0  0  0  0  0  0  0  0
   27.1790   29.0900   17.2080 N   0  0  0  0  0  0  0  0  0  0  0  0
   25.2620   29.8000   16.4240 N   0  0  0  0  0  0  0  0  0  0  0  0
   26.4700   29.2990   16.1250 N   0  0  0  0  0  0  0  0  0  0  0  0
   24.2250   30.1450   15.4740 C   0  0  0  0  0  0  0  0  0  0  0  0
   24.7590   30.7590   14.2240 C   0  0  0  0  0  0  0  0  0  0  0  0
   23.8540   30.7210   13.1030 N   0  0  0  0  0  0  0  0  0  0  0  0
   23.6440   29.3290   12.7440 C   0  0  0  0  0  0  0  0  0  0  0  0
   22.5440   31.2440   13.4390 C   0  0  0  0  0  0  0  0  0  0  0  0
   22.1850   29.1380   12.4820 C   0  0  0  0  0  0  0  0  0  0  0  0
   21.6710   30.5600   12.4060 C   0  0  0  0  0  0  0  0  0  0  0  0
   29.8670   25.5550   16.9770 C   0  0  0  0  0  0  0  0  0  0  0  0
   28.3450   25.7220   17.0260 C   0  0  0  0  0  0  0  0  0  0  0  0
   27.6020   24.3990   16.9230 C   0  0  0  0  0  0  0  0  0  0  0  0
   26.2890   24.4290   17.6550 C   0  0  0  0  0  0  0  0  0  0  0  0
   26.1870   25.7170   18.4650 C   0  0  0  0  0  0  0  0  0  0  0  0
   25.4900   25.4690   19.7500 N   0  0  0  0  0  0  0  0  0  0  0  0
  1  2  1  0  0  0  0
  2  3  2  0  0  0  0
  2 31  1  0  0  0  0
  4  1  1  0  0  0  0
  5  1  1  0  0  0  0
  6  5  1  1  0  0  0
  7 27  1  6  0  0  0
  7  6  1  0  0  0  0
  8  7  1  1  0  0  0
  9 16  1  6  0  0  0
  9 14  1  0  0  0  0
  9 10  1  0  0  0  0
 11  9  1  0  0  0  0
 11  8  1  0  0  0  0
 12 10  1  0  0  0  0
 12 20  1  1  0  0  0
 13 22  1  6  0  0  0
 13  8  1  0  0  0  0
 13 12  1  0  0  0  0
 14 15  1  0  0  0  0
 16 17  2  0  0  0  0
 18 16  1  0  0  0  0
 19 18  1  0  0  0  0
 20 21  1  0  0  0  0
 23 22  1  0  0  0  0
 23 26  2  0  0  0  0
 24 22  1  0  0  0  0
 25 23  1  0  0  0  0
 27 28  1  0  0  0  0
 29  6  1  0  0  0  0
 30 29  1  0  0  0  0
 32 31  1  0  0  0  0
 33 32  1  0  0  0  0
 34 33  2  0  0  0  0
 35 33  1  0  0  0  0
 36 34  1  0  0  0  0
 37 36  1  0  0  0  0
 37 35  2  0  0  0  0
 38 36  1  0  0  0  0
 39 38  1  0  0  0  0
 40 42  1  0  0  0  0
 40 39  1  0  0  0  0
 41 40  1  0  0  0  0
 43 41  1  0  0  0  0
 44 43  1  0  0  0  0
 44 42  1  0  0  0  0
 45 46  1  0  0  0  0
 47 46  1  0  0  0  0
 47 48  1  0  0  0  0
 48 49  1  0  0  0  0
 49 50  1  0  0  0  0
M  END
>  <REMARK>
 VINA RESULT:    -4.677      5.077      8.925
 INTER + INTRA:         -14.636
 INTER:                  -8.769
 INTRA:                  -5.867
 UNBOUND:                -5.994
 SMILES CC(=O)N[C@@H]1[C@@H](O)C[C@](O)(C(=O)O)O[C@H]1C(O)[C@H](O)CNC(=O)OCc1cn(CCN2CCCC2)nn1
 SMILES IDX 21 1 22 2 23 3 20 5 18 6 16 7 15 8 9 9 8 10 14 11 6 12 5 13
 SMILES IDX 10 14 11 16 12 17 13 18 7 20 4 22 2 23 1 25 3 26 17 27 19 29
 SMILES IDX 24 31 25 32 26 33 27 34 37 35 28 36 36 37 29 38 30 39 31 40
 SMILES IDX 32 41 35 42 33 43 34 44
 H PARENT 21 4 10 15 13 19 7 21 4 24 17 28 19 30
 Flexibility Score: inf
  4 active torsions:
  status: ('A' for Active; 'I' for Inactive)
    1  A    between atoms: CA   and  CB  
    2  A    between atoms: CB   and  CG  
    3  A    between atoms: CG   and  CD  
    4  A    between atoms: CD   and  CE  

>  <TORSDO>
F 17

>  <BEGIN_>
RES LYS A 131

$$$$
ligand_14_pose_1_2HRL.pdbqt
 OpenBabel07062320523D

  6  5  0  0  0  0  0  0  0  0999 V2000
   33.1930   34.6630    9.2900 C   0  0  0  0  0  0  0  0  0  0  0  0
   32.0600   35.3600   10.0340 C   0  0  0  0  0  0  0  0  0  0  0  0
   30.8360   35.5930    9.1860 C   0  0  0  0  0  0  0  0  0  0  0  0
   30.3500   34.2880    8.5750 C   0  0  0  0  0  0  0  0  0  0  0  0
   28.8400   34.1850    8.6710 C   0  0  0  0  0  0  0  0  0  0  0  0
   28.3690   34.4700   10.0550 N   0  0  0  0  0  0  0  0  0  0  0  0
  1  2  1  0  0  0  0
  3  2  1  0  0  0  0
  4  5  1  0  0  0  0
  4  3  1  0  0  0  0
  5  6  1  0  0  0  0
M  END
>  <EGIN_R>
ES LYS A 135

>  <REMARK>
  4 active torsions:
  status: ('A' for Active; 'I' for Inactive)
    5  A    between atoms: CA   and  CB  
    6  A    between atoms: CB   and  CG  
    7  A    between atoms: CG   and  CD  
    8  A    between atoms: CD   and  CE  

$$$$
