ligand_60_pose_19_2HRL.pdbqt
 OpenBabel07062320523D

 55 56  0  0  1  0  0  0  0  0999 V2000
   29.0020   30.6770   15.7280 N   0  0  0  0  0  0  0  0  0  0  0  0
   30.1750   31.2700   16.2160 C   0  0  0  0  0  0  0  0  0  0  0  0
   30.3880   31.3510   17.4370 O   0  0  0  0  0  0  0  0  0  0  0  0
   28.8820   30.6370   14.6790 H   0  0  0  0  0  0  0  0  0  0  0  0
   28.0010   30.1460   16.5850 C   0  0  0  0  0  0  0  0  0  0  0  0
   26.6660   29.9260   15.8850 C   0  0  2  0  0  0  0  0  0  0  0  0
   26.1220   31.2630   15.4720 C   0  0  1  0  0  0  0  0  0  0  0  0
   24.7520   31.2290   14.9100 C   0  0  2  0  0  0  0  0  0  0  0  0
   23.2830   29.7160   13.9190 C   0  0  2  0  0  0  0  0  0  0  0  0
   22.3530   30.8700   14.2070 C   0  0  0  0  0  0  0  0  0  0  0  0
   24.5720   29.9560   14.3060 O   0  0  0  0  0  0  0  0  0  0  0  0
   22.8790   32.1870   13.7290 C   0  0  1  0  0  0  0  0  0  0  0  0
   24.3810   32.2190   13.8710 C   0  0  1  0  0  0  0  0  0  0  0  0
   23.2020   29.3270   12.5610 O   0  0  0  0  0  0  0  0  0  0  0  0
   22.4660   28.6780   12.4260 H   0  0  0  0  0  0  0  0  0  0  0  0
   22.7810   28.5510   14.6950 C   0  0  0  0  0  0  0  0  0  0  0  0
   21.7970   27.9160   14.2380 O   0  0  0  0  0  0  0  0  0  0  0  0
   23.3290   28.1200   15.8880 O   0  0  0  0  0  0  0  0  0  0  0  0
   24.2490   27.6870   15.9150 H   0  0  0  0  0  0  0  0  0  0  0  0
   22.4550   32.3790   12.4210 O   0  0  0  0  0  0  0  0  0  0  0  0
   22.3180   33.3550   12.3110 H   0  0  0  0  0  0  0  0  0  0  0  0
   24.9200   33.5230   13.9600 N   0  0  0  0  0  0  0  0  0  0  0  0
   24.5210   34.4460   14.9530 C   0  0  0  0  0  0  0  0  0  0  0  0
   25.6550   33.8330   13.2950 H   0  0  0  0  0  0  0  0  0  0  0  0
   25.1040   35.8300   15.0330 C   0  0  0  0  0  0  0  0  0  0  0  0
   23.6590   34.0810   15.7730 O   0  0  0  0  0  0  0  0  0  0  0  0
   26.4510   32.3190   16.2790 O   0  0  0  0  0  0  0  0  0  0  0  0
   27.0360   32.9350   15.7840 H   0  0  0  0  0  0  0  0  0  0  0  0
   25.8560   29.1800   16.6980 O   0  0  0  0  0  0  0  0  0  0  0  0
   26.3370   28.9340   17.5360 H   0  0  0  0  0  0  0  0  0  0  0  0
   31.1610   31.7970   15.3680 O   0  0  0  0  0  0  0  0  0  0  0  0
   31.2730   33.1700   15.1620 C   0  0  0  0  0  0  0  0  0  0  0  0
   30.0560   33.7450   14.5470 C   0  0  0  0  0  0  0  0  0  0  0  0
   29.8980   34.4220   13.3610 C   0  0  0  0  0  0  0  0  0  0  0  0
   28.8170   33.6840   15.0980 N   0  0  0  0  0  0  0  0  0  0  0  0
   28.6040   34.7560   13.2070 N   0  0  0  0  0  0  0  0  0  0  0  0
   27.9830   34.2950   14.2740 N   0  0  0  0  0  0  0  0  0  0  0  0
   27.9880   35.4610   12.1340 C   0  0  0  0  0  0  0  0  0  0  0  0
   28.4720   36.6720   11.6880 C   0  0  0  0  0  0  0  0  0  0  0  0
   26.8710   34.9570   11.4930 C   0  0  0  0  0  0  0  0  0  0  0  0
   27.8880   37.3660   10.6520 C   0  0  0  0  0  0  0  0  0  0  0  0
   26.2830   35.6490   10.4560 C   0  0  0  0  0  0  0  0  0  0  0  0
   26.7580   36.8610   10.0010 C   0  0  0  0  0  0  0  0  0  0  0  0
   26.0180   37.7460    8.6870 S   0  0  0  0  0  0  0  0  0  0  0  0
   25.7570   36.7640    7.5800 O   0  0  0  0  0  0  0  0  0  0  0  0
   24.6680   38.2490    9.1460 O   0  0  0  0  0  0  0  0  0  0  0  0
   26.9910   39.0380    8.1240 N   0  0  0  0  0  0  0  0  0  0  0  0
   27.4310   38.8870    7.2090 H   0  0  0  0  0  0  0  0  0  0  0  0
   26.5030   39.9590    8.1860 H   0  0  0  0  0  0  0  0  0  0  0  0
   29.8670   25.5550   16.9770 C   0  0  0  0  0  0  0  0  0  0  0  0
   28.3450   25.7220   17.0260 C   0  0  0  0  0  0  0  0  0  0  0  0
   27.6000   24.4130   16.8140 C   0  0  0  0  0  0  0  0  0  0  0  0
   26.7440   24.0510   17.9960 C   0  0  0  0  0  0  0  0  0  0  0  0
   25.4450   23.4180   17.5090 C   0  0  0  0  0  0  0  0  0  0  0  0
   24.5860   24.4340   16.8550 N   0  0  0  0  0  0  0  0  0  0  0  0
  1  2  1  0  0  0  0
  1  5  1  0  0  0  0
  2  3  2  0  0  0  0
  4  1  1  0  0  0  0
  6  5  1  1  0  0  0
  6 29  1  0  0  0  0
  7  6  1  0  0  0  0
  7 27  1  1  0  0  0
  8  7  1  6  0  0  0
  9 14  1  6  0  0  0
  9 10  1  0  0  0  0
  9 11  1  0  0  0  0
  9 16  1  0  0  0  0
 11  8  1  0  0  0  0
 12 20  1  6  0  0  0
 12 13  1  0  0  0  0
 12 10  1  0  0  0  0
 13 22  1  1  0  0  0
 13  8  1  0  0  0  0
 15 14  1  0  0  0  0
 16 18  1  0  0  0  0
 17 16  2  0  0  0  0
 18 19  1  0  0  0  0
 21 20  1  0  0  0  0
 22 23  1  0  0  0  0
 23 25  1  0  0  0  0
 23 26  2  0  0  0  0
 24 22  1  0  0  0  0
 28 27  1  0  0  0  0
 29 30  1  0  0  0  0
 31  2  1  0  0  0  0
 32 31  1  0  0  0  0
 33 35  1  0  0  0  0
 33 32  1  0  0  0  0
 34 33  2  0  0  0  0
 36 34  1  0  0  0  0
 36 37  1  0  0  0  0
 37 35  2  0  0  0  0
 38 36  1  0  0  0  0
 39 38  1  0  0  0  0
 40 38  2  0  0  0  0
 41 39  2  0  0  0  0
 42 40  1  0  0  0  0
 43 42  2  0  0  0  0
 43 41  1  0  0  0  0
 44 46  2  0  0  0  0
 44 43  1  0  0  0  0
 45 44  2  0  0  0  0
 47 49  1  0  0  0  0
 47 44  1  0  0  0  0
 48 47  1  0  0  0  0
 50 51  1  0  0  0  0
 52 51  1  0  0  0  0
 52 53  1  0  0  0  0
 54 53  1  0  0  0  0
 55 54  1  0  0  0  0
M  END
>  <REMARK>
 VINA RESULT:    -4.631      4.888      8.730
 INTER + INTRA:         -14.385
 INTER:                  -8.421
 INTRA:                  -5.964
 UNBOUND:                -5.964
 SMILES CC(=O)N[C@@H]1[C@@H](O)C[C@](O)(C(=O)O)O[C@H]1C(O)[C@H](O)CNC(=O)OCc1cn(-c2ccc(S(N)(=O)=O)cc2)nn1
 SMILES IDX 21 1 22 2 23 3 20 5 18 6 16 7 15 8 9 9 8 10 14 11 6 12 5 13
 SMILES IDX 10 14 11 16 12 17 13 18 7 20 4 22 2 23 1 25 3 26 17 27 19 29
 SMILES IDX 24 31 25 32 26 33 27 34 40 35 28 36 39 37 29 38 30 39 38 40
 SMILES IDX 31 41 37 42 32 43 33 44 35 45 36 46 34 47
 H PARENT 21 4 10 15 13 19 7 21 4 24 17 28 19 30 34 48 34 49
 Flexibility Score: inf
  4 active torsions:
  status: ('A' for Active; 'I' for Inactive)
    1  A    between atoms: CA   and  CB  
    2  A    between atoms: CB   and  CG  
    3  A    between atoms: CG   and  CD  
    4  A    between atoms: CD   and  CE  

>  <TORSDO>
F 17

>  <BEGIN_>
RES LYS A 131

$$$$
ligand_60_pose_19_2HRL.pdbqt
 OpenBabel07062320523D

  6  5  0  0  0  0  0  0  0  0999 V2000
   33.1930   34.6630    9.2900 C   0  0  0  0  0  0  0  0  0  0  0  0
   32.0600   35.3600   10.0340 C   0  0  0  0  0  0  0  0  0  0  0  0
   30.8240   35.5640    9.1960 C   0  0  0  0  0  0  0  0  0  0  0  0
   30.0910   34.2470    8.9920 C   0  0  0  0  0  0  0  0  0  0  0  0
   28.7940   34.4710    8.2390 C   0  0  0  0  0  0  0  0  0  0  0  0
   28.9860   35.4220    7.1100 N   0  0  0  0  0  0  0  0  0  0  0  0
  1  2  1  0  0  0  0
  3  2  1  0  0  0  0
  4  3  1  0  0  0  0
  5  4  1  0  0  0  0
  6  5  1  0  0  0  0
M  END
>  <EGIN_R>
ES LYS A 135

>  <REMARK>
  4 active torsions:
  status: ('A' for Active; 'I' for Inactive)
    5  A    between atoms: CA   and  CB  
    6  A    between atoms: CB   and  CG  
    7  A    between atoms: CG   and  CD  
    8  A    between atoms: CD   and  CE  

$$$$
