ligand_42_pose_2_2HRL.pdbqt
 OpenBabel07062320523D

 52 54  0  0  1  0  0  0  0  0999 V2000
   26.7660   36.1480   15.8140 C   0  0  0  0  0  0  0  0  0  0  0  0
   28.2210   36.4150   15.6210 C   0  0  2  0  0  0  0  0  0  0  0  0
   29.0610   35.6840   16.6810 C   0  0  1  0  0  0  0  0  0  0  0  0
   30.2100   35.0550   15.9790 C   0  0  2  0  0  0  0  0  0  0  0  0
   31.3450   34.8720   14.0110 C   0  0  2  0  0  0  0  0  0  0  0  0
   32.2460   34.0650   14.9210 C   0  0  0  0  0  0  0  0  0  0  0  0
   30.3170   35.5020   14.6660 O   0  0  0  0  0  0  0  0  0  0  0  0
   31.4770   33.0180   15.7050 C   0  0  1  0  0  0  0  0  0  0  0  0
   30.0910   33.5330   15.9010 C   0  0  1  0  0  0  0  0  0  0  0  0
   30.9000   33.9920   13.0220 O   0  0  0  0  0  0  0  0  0  0  0  0
   31.4640   34.1740   12.2230 H   0  0  0  0  0  0  0  0  0  0  0  0
   32.1910   35.9210   13.3970 C   0  0  0  0  0  0  0  0  0  0  0  0
   32.1810   37.0780   13.8790 O   0  0  0  0  0  0  0  0  0  0  0  0
   33.0040   35.6820   12.3020 O   0  0  0  0  0  0  0  0  0  0  0  0
   32.6490   35.4680   11.3760 H   0  0  0  0  0  0  0  0  0  0  0  0
   31.4950   31.8540   14.9070 O   0  0  0  0  0  0  0  0  0  0  0  0
   31.0600   32.0120   14.0500 H   0  0  0  0  0  0  0  0  0  0  0  0
   29.3670   32.9670   16.9800 N   0  0  0  0  0  0  0  0  0  0  0  0
   28.7530   31.6870   17.0130 C   0  0  0  0  0  0  0  0  0  0  0  0
   29.2660   33.5390   17.8470 H   0  0  0  0  0  0  0  0  0  0  0  0
   28.0100   31.1830   18.2050 C   0  0  0  0  0  0  0  0  0  0  0  0
   28.8570   30.9760   15.9870 O   0  0  0  0  0  0  0  0  0  0  0  0
   29.4500   36.6080   17.6110 O   0  0  0  0  0  0  0  0  0  0  0  0
   28.8580   37.3420   17.8090 H   0  0  0  0  0  0  0  0  0  0  0  0
   28.5130   37.7500   15.7010 O   0  0  0  0  0  0  0  0  0  0  0  0
   27.9410   38.3580   15.1850 H   0  0  0  0  0  0  0  0  0  0  0  0
   26.1540   35.6260   14.6430 N   0  0  0  0  0  0  0  0  0  0  0  0
   26.1690   34.2650   14.2990 C   0  0  0  0  0  0  0  0  0  0  0  0
   25.6480   36.2730   13.9650 H   0  0  0  0  0  0  0  0  0  0  0  0
   26.7180   33.3650   14.9550 O   0  0  0  0  0  0  0  0  0  0  0  0
   25.5170   33.8590   13.1200 O   0  0  0  0  0  0  0  0  0  0  0  0
   24.2980   34.4450   12.7770 C   0  0  0  0  0  0  0  0  0  0  0  0
   24.3640   34.9150   11.3690 C   0  0  0  0  0  0  0  0  0  0  0  0
   25.5190   35.1590   10.6340 C   0  0  0  0  0  0  0  0  0  0  0  0
   23.3520   35.1960   10.5300 N   0  0  0  0  0  0  0  0  0  0  0  0
   25.1860   35.5720    9.3980 N   0  0  0  0  0  0  0  0  0  0  0  0
   23.8660   35.5800    9.3770 N   0  0  0  0  0  0  0  0  0  0  0  0
   26.0940   35.9170    8.3590 C   0  0  0  0  0  0  0  0  0  0  0  0
   27.0050   34.9930    7.8880 C   0  0  0  0  0  0  0  0  0  0  0  0
   26.1160   37.1670    7.7750 C   0  0  0  0  0  0  0  0  0  0  0  0
   27.9040   35.3110    6.8700 C   0  0  0  0  0  0  0  0  0  0  0  0
   27.0060   37.5070    6.7570 C   0  0  0  0  0  0  0  0  0  0  0  0
   27.9050   36.5670    6.3040 C   0  0  0  0  0  0  0  0  0  0  0  0
   27.2210   38.6710    6.0230 O   0  0  0  0  0  0  0  0  0  0  0  0
   28.6570   37.1880    5.2920 O   0  0  0  0  0  0  0  0  0  0  0  0
   28.5030   38.6050    5.4240 C   0  0  0  0  0  0  0  0  0  0  0  0
   29.8670   25.5550   16.9770 C   0  0  0  0  0  0  0  0  0  0  0  0
   28.3450   25.7220   17.0260 C   0  0  0  0  0  0  0  0  0  0  0  0
   27.6010   24.4020   16.8950 C   0  0  0  0  0  0  0  0  0  0  0  0
   26.2340   24.4570   17.5190 C   0  0  0  0  0  0  0  0  0  0  0  0
   26.0980   25.7400   18.3320 C   0  0  0  0  0  0  0  0  0  0  0  0
   25.7000   25.4320   19.7250 N   0  0  0  0  0  0  0  0  0  0  0  0
  2 25  1  0  0  0  0
  2  1  1  1  0  0  0
  2  3  1  0  0  0  0
  3 23  1  1  0  0  0
  4  3  1  6  0  0  0
  5 10  1  6  0  0  0
  5  7  1  0  0  0  0
  5  6  1  0  0  0  0
  6  8  1  0  0  0  0
  7  4  1  0  0  0  0
  8 16  1  6  0  0  0
  8  9  1  0  0  0  0
  9  4  1  0  0  0  0
  9 18  1  1  0  0  0
 11 10  1  0  0  0  0
 12 13  2  0  0  0  0
 12  5  1  0  0  0  0
 14 12  1  0  0  0  0
 15 14  1  0  0  0  0
 17 16  1  0  0  0  0
 18 19  1  0  0  0  0
 18 20  1  0  0  0  0
 19 21  1  0  0  0  0
 22 19  2  0  0  0  0
 23 24  1  0  0  0  0
 26 25  1  0  0  0  0
 27  1  1  0  0  0  0
 28 27  1  0  0  0  0
 28 30  2  0  0  0  0
 29 27  1  0  0  0  0
 31 28  1  0  0  0  0
 32 31  1  0  0  0  0
 33 32  1  0  0  0  0
 34 33  2  0  0  0  0
 35 33  1  0  0  0  0
 36 34  1  0  0  0  0
 37 36  1  0  0  0  0
 37 35  2  0  0  0  0
 38 36  1  0  0  0  0
 39 38  1  0  0  0  0
 40 38  2  0  0  0  0
 41 39  2  0  0  0  0
 42 40  1  0  0  0  0
 43 42  2  0  0  0  0
 43 41  1  0  0  0  0
 44 42  1  0  0  0  0
 45 46  1  0  0  0  0
 45 43  1  0  0  0  0
 46 44  1  0  0  0  0
 47 48  1  0  0  0  0
 49 48  1  0  0  0  0
 49 50  1  0  0  0  0
 50 51  1  0  0  0  0
 51 52  1  0  0  0  0
M  END
>  <REMARK>
 VINA RESULT:    -5.844      5.045      9.146
 INTER + INTRA:         -14.662
 INTER:                 -10.580
 INTRA:                  -4.082
 UNBOUND:                -4.548
 SMILES CC(=O)N[C@@H]1[C@@H](O)C[C@](O)(C(=O)O)O[C@H]1C(O)[C@H](O)CNC(=O)OCc1cn(-c2ccc3c(c2)OCO3)nn1
 SMILES IDX 20 1 18 2 16 3 15 4 9 5 8 6 14 7 6 8 5 9 10 10 11 12 12 13
 SMILES IDX 13 14 7 16 4 18 2 19 1 21 3 22 17 23 19 25 21 27 22 28 23 30
 SMILES IDX 24 31 25 32 26 33 27 34 39 35 28 36 38 37 29 38 30 39 34 40
 SMILES IDX 31 41 33 42 32 43 35 44 37 45 36 46
 H PARENT 10 11 13 15 7 17 4 20 17 24 19 26 21 29
 Flexibility Score: inf
  4 active torsions:
  status: ('A' for Active; 'I' for Inactive)
    1  A    between atoms: CA   and  CB  
    2  A    between atoms: CB   and  CG  
    3  A    between atoms: CG   and  CD  
    4  A    between atoms: CD   and  CE  

>  <TORSDO>
F 15

>  <BEGIN_>
RES LYS A 131

$$$$
ligand_42_pose_2_2HRL.pdbqt
 OpenBabel07062320523D

  6  5  0  0  0  0  0  0  0  0999 V2000
   33.1930   34.6630    9.2900 C   0  0  0  0  0  0  0  0  0  0  0  0
   32.0600   35.3600   10.0340 C   0  0  0  0  0  0  0  0  0  0  0  0
   30.7610   35.3810    9.2710 C   0  0  0  0  0  0  0  0  0  0  0  0
   30.0500   36.7130    9.4560 C   0  0  0  0  0  0  0  0  0  0  0  0
   28.9990   36.6080   10.5450 C   0  0  0  0  0  0  0  0  0  0  0  0
   29.4090   37.3640   11.7610 N   0  0  0  0  0  0  0  0  0  0  0  0
  1  2  1  0  0  0  0
  3  4  1  0  0  0  0
  3  2  1  0  0  0  0
  4  5  1  0  0  0  0
  5  6  1  0  0  0  0
M  END
>  <EGIN_R>
ES LYS A 135

>  <REMARK>
  4 active torsions:
  status: ('A' for Active; 'I' for Inactive)
    5  A    between atoms: CA   and  CB  
    6  A    between atoms: CB   and  CG  
    7  A    between atoms: CG   and  CD  
    8  A    between atoms: CD   and  CE  

$$$$
