ligand_88_pose_14_2HRL.pdbqt
 OpenBabel07062320523D

 54 55  0  0  1  0  0  0  0  0999 V2000
   28.6620   35.0380   19.5660 N   0  0  0  0  0  0  0  0  0  0  0  0
   29.7110   35.9180   19.1740 C   0  0  0  0  0  0  0  0  0  0  0  0
   29.4200   36.9820   18.5820 O   0  0  0  0  0  0  0  0  0  0  0  0
   28.9290   34.1650   20.0530 H   0  0  0  0  0  0  0  0  0  0  0  0
   27.2800   35.3310   19.3020 C   0  0  0  0  0  0  0  0  0  0  0  0
   26.7970   34.6080   18.0770 C   0  0  2  0  0  0  0  0  0  0  0  0
   27.8670   33.7220   17.4790 C   0  0  1  0  0  0  0  0  0  0  0  0
   27.3100   32.2960   17.3070 C   0  0  2  0  0  0  0  0  0  0  0  0
   28.4160   30.3320   17.9840 C   0  0  2  0  0  0  0  0  0  0  0  0
   27.7050   29.6620   16.7970 C   0  0  0  0  0  0  0  0  0  0  0  0
   27.8650   31.5380   18.2590 O   0  0  0  0  0  0  0  0  0  0  0  0
   28.0490   30.5680   15.6250 C   0  0  1  0  0  0  0  0  0  0  0  0
   27.3870   31.8870   15.8980 C   0  0  1  0  0  0  0  0  0  0  0  0
   29.7540   30.3630   17.6450 O   0  0  0  0  0  0  0  0  0  0  0  0
   30.0580   29.5680   17.1440 H   0  0  0  0  0  0  0  0  0  0  0  0
   28.2570   29.4730   19.1840 C   0  0  0  0  0  0  0  0  0  0  0  0
   27.0980   29.2250   19.6000 O   0  0  0  0  0  0  0  0  0  0  0  0
   29.3450   28.9350   19.8640 O   0  0  0  0  0  0  0  0  0  0  0  0
   29.9030   29.6100   20.4060 H   0  0  0  0  0  0  0  0  0  0  0  0
   29.4300   30.6880   15.4810 O   0  0  0  0  0  0  0  0  0  0  0  0
   29.8350   29.8580   15.8100 H   0  0  0  0  0  0  0  0  0  0  0  0
   26.0820   31.8490   15.2380 N   0  0  0  0  0  0  0  0  0  0  0  0
   25.5170   32.9620   14.5690 C   0  0  0  0  0  0  0  0  0  0  0  0
   25.5000   30.9650   15.2370 H   0  0  0  0  0  0  0  0  0  0  0  0
   24.1790   32.8770   13.9080 C   0  0  0  0  0  0  0  0  0  0  0  0
   26.1510   34.0480   14.5280 O   0  0  0  0  0  0  0  0  0  0  0  0
   28.4180   34.2110   16.3200 O   0  0  0  0  0  0  0  0  0  0  0  0
   29.1330   34.8600   16.4850 H   0  0  0  0  0  0  0  0  0  0  0  0
   26.2380   35.4970   17.1860 O   0  0  0  0  0  0  0  0  0  0  0  0
   25.2730   35.6070   17.2750 H   0  0  0  0  0  0  0  0  0  0  0  0
   31.0220   35.6100   19.4390 O   0  0  0  0  0  0  0  0  0  0  0  0
   31.5240   34.2920   19.3110 C   0  0  0  0  0  0  0  0  0  0  0  0
   31.5360   33.9240   17.8710 C   0  0  0  0  0  0  0  0  0  0  0  0
   32.0210   34.6900   16.8190 C   0  0  0  0  0  0  0  0  0  0  0  0
   31.0930   32.8000   17.2770 N   0  0  0  0  0  0  0  0  0  0  0  0
   31.8560   34.0200   15.6690 N   0  0  0  0  0  0  0  0  0  0  0  0
   31.2780   32.8480   15.9770 N   0  0  0  0  0  0  0  0  0  0  0  0
   32.2170   34.4380   14.3430 C   0  0  0  0  0  0  0  0  0  0  0  0
   31.2170   35.3470   13.7270 C   0  0  0  0  0  0  0  0  0  0  0  0
   30.1620   34.7840   13.0380 C   0  0  0  0  0  0  0  0  0  0  0  0
   31.2910   36.7180   13.8090 C   0  0  0  0  0  0  0  0  0  0  0  0
   29.1790   35.5320   12.4270 C   0  0  0  0  0  0  0  0  0  0  0  0
   30.3070   37.5000   13.1980 C   0  0  0  0  0  0  0  0  0  0  0  0
   27.7370   34.7290   11.4860 Br  0  0  0  0  0  0  0  0  0  0  0  0
   29.2670   36.9150   12.5170 C   0  0  0  0  0  0  0  0  0  0  0  0
   30.4870   39.4050   13.3610 Br  0  0  0  0  0  0  0  0  0  0  0  0
   32.3350   37.3130   14.4930 O   0  0  0  0  0  0  0  0  0  0  0  0
   32.9510   36.7380   15.0510 H   0  0  0  0  0  0  0  0  0  0  0  0
   29.8670   25.5550   16.9770 C   0  0  0  0  0  0  0  0  0  0  0  0
   28.3450   25.7220   17.0260 C   0  0  0  0  0  0  0  0  0  0  0  0
   27.6020   24.3990   16.9230 C   0  0  0  0  0  0  0  0  0  0  0  0
   26.3610   24.3790   17.7720 C   0  0  0  0  0  0  0  0  0  0  0  0
   26.4090   25.5310   18.7710 C   0  0  0  0  0  0  0  0  0  0  0  0
   25.1800   25.5510   19.5990 N   0  0  0  0  0  0  0  0  0  0  0  0
  1  4  1  0  0  0  0
  2 31  1  0  0  0  0
  2  1  1  0  0  0  0
  3  2  2  0  0  0  0
  5  1  1  0  0  0  0
  6  5  1  1  0  0  0
  7 27  1  6  0  0  0
  7  6  1  0  0  0  0
  8  7  1  6  0  0  0
  8 11  1  0  0  0  0
  9 14  1  6  0  0  0
  9 11  1  0  0  0  0
  9 16  1  0  0  0  0
 10  9  1  0  0  0  0
 12 20  1  1  0  0  0
 12 13  1  0  0  0  0
 12 10  1  0  0  0  0
 13 22  1  1  0  0  0
 13  8  1  0  0  0  0
 15 14  1  0  0  0  0
 16 17  2  0  0  0  0
 16 18  1  0  0  0  0
 18 19  1  0  0  0  0
 20 21  1  0  0  0  0
 23 22  1  0  0  0  0
 24 22  1  0  0  0  0
 25 23  1  0  0  0  0
 26 23  2  0  0  0  0
 27 28  1  0  0  0  0
 29 30  1  0  0  0  0
 29  6  1  0  0  0  0
 32 31  1  0  0  0  0
 33 32  1  0  0  0  0
 34 33  2  0  0  0  0
 35 33  1  0  0  0  0
 36 37  1  0  0  0  0
 36 34  1  0  0  0  0
 37 35  2  0  0  0  0
 38 36  1  0  0  0  0
 39 41  1  0  0  0  0
 39 38  1  0  0  0  0
 40 39  2  0  0  0  0
 41 47  1  0  0  0  0
 42 45  2  0  0  0  0
 42 40  1  0  0  0  0
 43 46  1  0  0  0  0
 43 41  2  0  0  0  0
 44 42  1  0  0  0  0
 45 43  1  0  0  0  0
 47 48  1  0  0  0  0
 49 50  1  0  0  0  0
 51 50  1  0  0  0  0
 51 52  1  0  0  0  0
 52 53  1  0  0  0  0
 53 54  1  0  0  0  0
M  END
>  <REMARK>
 VINA RESULT:    -5.048      2.925      5.643
 INTER + INTRA:         -14.973
 INTER:                  -7.641
 INTRA:                  -7.333
 UNBOUND:                -5.794
 SMILES CC(=O)N[C@@H]1[C@@H](O)C[C@](O)(C(=O)O)O[C@H]1C(O)[C@H](O)CNC(=O)OCc1cn(Cc2cc(Br)cc(Br)c2O)nn1
 SMILES IDX 21 1 22 2 23 3 20 5 18 6 16 7 15 8 9 9 8 10 14 11 6 12 5 13
 SMILES IDX 10 14 11 16 12 17 13 18 7 20 4 22 2 23 1 25 3 26 17 27 19 29
 SMILES IDX 24 31 25 32 26 33 27 34 40 35 28 36 39 37 29 38 30 39 31 40
 SMILES IDX 37 41 32 42 35 43 33 44 34 45 36 46 38 47
 H PARENT 21 4 10 15 13 19 7 21 4 24 17 28 19 30 38 48
 Flexibility Score: inf
  4 active torsions:
  status: ('A' for Active; 'I' for Inactive)
    1  A    between atoms: CA   and  CB  
    2  A    between atoms: CB   and  CG  
    3  A    between atoms: CG   and  CD  
    4  A    between atoms: CD   and  CE  

>  <TORSDO>
F 17

>  <BEGIN_>
RES LYS A 131

$$$$
ligand_88_pose_14_2HRL.pdbqt
 OpenBabel07062320523D

  6  5  0  0  0  0  0  0  0  0999 V2000
   33.1930   34.6630    9.2900 C   0  0  0  0  0  0  0  0  0  0  0  0
   32.0600   35.3600   10.0340 C   0  0  0  0  0  0  0  0  0  0  0  0
   30.8850   35.7060    9.1560 C   0  0  0  0  0  0  0  0  0  0  0  0
   30.1970   34.4440    8.6580 C   0  0  0  0  0  0  0  0  0  0  0  0
   28.9610   34.7940    7.8520 C   0  0  0  0  0  0  0  0  0  0  0  0
   28.6780   36.2540    7.9110 N   0  0  0  0  0  0  0  0  0  0  0  0
  1  2  1  0  0  0  0
  3  2  1  0  0  0  0
  4  3  1  0  0  0  0
  5  6  1  0  0  0  0
  5  4  1  0  0  0  0
M  END
>  <EGIN_R>
ES LYS A 135

>  <REMARK>
  4 active torsions:
  status: ('A' for Active; 'I' for Inactive)
    5  A    between atoms: CA   and  CB  
    6  A    between atoms: CB   and  CG  
    7  A    between atoms: CG   and  CD  
    8  A    between atoms: CD   and  CE  

$$$$
