ligand_60_pose_18_2HRL.pdbqt
 OpenBabel07062320523D

 55 56  0  0  1  0  0  0  0  0999 V2000
   24.3020   33.8220   15.4680 N   0  0  0  0  0  0  0  0  0  0  0  0
   23.0290   34.2530   15.0680 C   0  0  0  0  0  0  0  0  0  0  0  0
   22.5360   35.2970   15.5260 O   0  0  0  0  0  0  0  0  0  0  0  0
   24.6650   32.9270   15.0390 H   0  0  0  0  0  0  0  0  0  0  0  0
   25.0900   34.5390   16.4070 C   0  0  0  0  0  0  0  0  0  0  0  0
   26.4110   33.8510   16.7300 C   0  0  2  0  0  0  0  0  0  0  0  0
   27.3810   34.1450   15.6230 C   0  0  1  0  0  0  0  0  0  0  0  0
   28.6480   33.3810   15.6900 C   0  0  2  0  0  0  0  0  0  0  0  0
   30.0640   32.4370   17.2820 C   0  0  2  0  0  0  0  0  0  0  0  0
   30.6010   31.8130   16.0170 C   0  0  0  0  0  0  0  0  0  0  0  0
   29.0150   33.2850   17.0590 O   0  0  0  0  0  0  0  0  0  0  0  0
   30.8670   32.8110   14.9320 C   0  0  1  0  0  0  0  0  0  0  0  0
   29.8430   33.9170   14.9950 C   0  0  1  0  0  0  0  0  0  0  0  0
   31.0990   33.0580   18.0210 O   0  0  0  0  0  0  0  0  0  0  0  0
   30.9480   32.9510   18.9940 H   0  0  0  0  0  0  0  0  0  0  0  0
   29.5790   31.3240   18.1410 C   0  0  0  0  0  0  0  0  0  0  0  0
   28.3770   31.3420   18.5100 O   0  0  0  0  0  0  0  0  0  0  0  0
   30.3680   30.2690   18.5610 O   0  0  0  0  0  0  0  0  0  0  0  0
   30.8030   29.6430   17.8890 H   0  0  0  0  0  0  0  0  0  0  0  0
   32.1710   33.2710   15.0700 O   0  0  0  0  0  0  0  0  0  0  0  0
   32.1070   34.2440   15.2450 H   0  0  0  0  0  0  0  0  0  0  0  0
   29.6600   34.5970   13.7690 N   0  0  0  0  0  0  0  0  0  0  0  0
   29.9200   35.9780   13.6170 C   0  0  0  0  0  0  0  0  0  0  0  0
   29.3410   34.0810   12.9260 H   0  0  0  0  0  0  0  0  0  0  0  0
   29.7190   36.6870   12.3060 C   0  0  0  0  0  0  0  0  0  0  0  0
   30.3260   36.6060   14.6120 O   0  0  0  0  0  0  0  0  0  0  0  0
   26.8330   34.3570   14.3860 O   0  0  0  0  0  0  0  0  0  0  0  0
   26.9760   35.2940   14.1260 H   0  0  0  0  0  0  0  0  0  0  0  0
   26.1720   32.5250   16.9760 O   0  0  0  0  0  0  0  0  0  0  0  0
   25.5110   32.4240   17.7150 H   0  0  0  0  0  0  0  0  0  0  0  0
   22.2500   33.5410   14.1420 O   0  0  0  0  0  0  0  0  0  0  0  0
   22.0410   34.0270   12.8540 C   0  0  0  0  0  0  0  0  0  0  0  0
   23.3070   34.3990   12.1850 C   0  0  0  0  0  0  0  0  0  0  0  0
   23.5390   35.2730   11.1490 C   0  0  0  0  0  0  0  0  0  0  0  0
   24.5250   33.9000   12.5160 N   0  0  0  0  0  0  0  0  0  0  0  0
   24.8550   35.2960   10.8700 N   0  0  0  0  0  0  0  0  0  0  0  0
   25.4170   34.4550   11.7150 N   0  0  0  0  0  0  0  0  0  0  0  0
   25.5420   36.0530    9.8790 C   0  0  0  0  0  0  0  0  0  0  0  0
   26.5860   36.8920   10.2010 C   0  0  0  0  0  0  0  0  0  0  0  0
   25.1850   35.9780    8.5450 C   0  0  0  0  0  0  0  0  0  0  0  0
   27.2600   37.6310    9.2550 C   0  0  0  0  0  0  0  0  0  0  0  0
   25.8580   36.7160    7.5940 C   0  0  0  0  0  0  0  0  0  0  0  0
   26.9040   37.5590    7.9040 C   0  0  0  0  0  0  0  0  0  0  0  0
   27.7620   38.5010    6.7060 S   0  0  0  0  0  0  0  0  0  0  0  0
   27.4110   39.9430    6.9390 O   0  0  0  0  0  0  0  0  0  0  0  0
   29.2460   38.3690    6.9640 O   0  0  0  0  0  0  0  0  0  0  0  0
   27.3790   38.0420    5.1010 N   0  0  0  0  0  0  0  0  0  0  0  0
   27.9610   38.4720    4.3730 H   0  0  0  0  0  0  0  0  0  0  0  0
   27.3030   37.0060    4.9920 H   0  0  0  0  0  0  0  0  0  0  0  0
   29.8670   25.5550   16.9770 C   0  0  0  0  0  0  0  0  0  0  0  0
   28.3450   25.7220   17.0260 C   0  0  0  0  0  0  0  0  0  0  0  0
   27.6010   24.4030   16.8820 C   0  0  0  0  0  0  0  0  0  0  0  0
   26.6710   24.1490   18.0360 C   0  0  0  0  0  0  0  0  0  0  0  0
   25.5540   23.2090   17.5920 C   0  0  0  0  0  0  0  0  0  0  0  0
   24.2540   23.6460   18.1550 N   0  0  0  0  0  0  0  0  0  0  0  0
  1  5  1  0  0  0  0
  2  1  1  0  0  0  0
  2  3  2  0  0  0  0
  4  1  1  0  0  0  0
  6  5  1  6  0  0  0
  6 29  1  0  0  0  0
  7 27  1  6  0  0  0
  7  6  1  0  0  0  0
  8  7  1  1  0  0  0
  8 11  1  0  0  0  0
  9 14  1  1  0  0  0
  9 16  1  0  0  0  0
 10  9  1  0  0  0  0
 11  9  1  0  0  0  0
 12 13  1  0  0  0  0
 12 20  1  1  0  0  0
 12 10  1  0  0  0  0
 13 22  1  6  0  0  0
 13  8  1  0  0  0  0
 14 15  1  0  0  0  0
 16 17  2  0  0  0  0
 16 18  1  0  0  0  0
 19 18  1  0  0  0  0
 20 21  1  0  0  0  0
 23 22  1  0  0  0  0
 23 26  2  0  0  0  0
 24 22  1  0  0  0  0
 25 23  1  0  0  0  0
 28 27  1  0  0  0  0
 29 30  1  0  0  0  0
 31  2  1  0  0  0  0
 32 31  1  0  0  0  0
 33 35  1  0  0  0  0
 33 32  1  0  0  0  0
 34 33  2  0  0  0  0
 36 34  1  0  0  0  0
 36 37  1  0  0  0  0
 37 35  2  0  0  0  0
 38 39  1  0  0  0  0
 38 36  1  0  0  0  0
 40 38  2  0  0  0  0
 41 39  2  0  0  0  0
 42 43  2  0  0  0  0
 42 40  1  0  0  0  0
 43 41  1  0  0  0  0
 44 45  2  0  0  0  0
 44 46  2  0  0  0  0
 44 43  1  0  0  0  0
 47 44  1  0  0  0  0
 48 47  1  0  0  0  0
 49 47  1  0  0  0  0
 50 51  1  0  0  0  0
 52 51  1  0  0  0  0
 52 53  1  0  0  0  0
 54 53  1  0  0  0  0
 54 55  1  0  0  0  0
M  END
>  <REMARK>
 VINA RESULT:    -4.672      4.508      7.795
 INTER + INTRA:         -14.459
 INTER:                  -8.428
 INTRA:                  -6.031
 UNBOUND:                -5.964
 SMILES CC(=O)N[C@@H]1[C@@H](O)C[C@](O)(C(=O)O)O[C@H]1C(O)[C@H](O)CNC(=O)OCc1cn(-c2ccc(S(N)(=O)=O)cc2)nn1
 SMILES IDX 21 1 22 2 23 3 20 5 18 6 16 7 15 8 9 9 8 10 14 11 6 12 5 13
 SMILES IDX 10 14 11 16 12 17 13 18 7 20 4 22 2 23 1 25 3 26 17 27 19 29
 SMILES IDX 24 31 25 32 26 33 27 34 40 35 28 36 39 37 29 38 30 39 38 40
 SMILES IDX 31 41 37 42 32 43 33 44 35 45 36 46 34 47
 H PARENT 21 4 10 15 13 19 7 21 4 24 17 28 19 30 34 48 34 49
 Flexibility Score: inf
  4 active torsions:
  status: ('A' for Active; 'I' for Inactive)
    1  A    between atoms: CA   and  CB  
    2  A    between atoms: CB   and  CG  
    3  A    between atoms: CG   and  CD  
    4  A    between atoms: CD   and  CE  

>  <TORSDO>
F 17

>  <BEGIN_>
RES LYS A 131

$$$$
ligand_60_pose_18_2HRL.pdbqt
 OpenBabel07062320523D

  6  5  0  0  0  0  0  0  0  0999 V2000
   33.1930   34.6630    9.2900 C   0  0  0  0  0  0  0  0  0  0  0  0
   32.0600   35.3600   10.0340 C   0  0  0  0  0  0  0  0  0  0  0  0
   30.8550   35.6390    9.1730 C   0  0  0  0  0  0  0  0  0  0  0  0
   30.3210   34.3510    8.5640 C   0  0  0  0  0  0  0  0  0  0  0  0
   28.8110   34.4100    8.4360 C   0  0  0  0  0  0  0  0  0  0  0  0
   28.1490   33.6650    9.5430 N   0  0  0  0  0  0  0  0  0  0  0  0
  1  2  1  0  0  0  0
  3  2  1  0  0  0  0
  4  3  1  0  0  0  0
  5  4  1  0  0  0  0
  5  6  1  0  0  0  0
M  END
>  <EGIN_R>
ES LYS A 135

>  <REMARK>
  4 active torsions:
  status: ('A' for Active; 'I' for Inactive)
    5  A    between atoms: CA   and  CB  
    6  A    between atoms: CB   and  CG  
    7  A    between atoms: CG   and  CD  
    8  A    between atoms: CD   and  CE  

$$$$
