ligand_63_pose_4_2HRL.pdbqt
 OpenBabel07062320523D

 51 52  0  0  1  0  0  0  0  0999 V2000
   26.8890   28.1570   18.0490 N   0  0  0  0  0  0  0  0  0  0  0  0
   26.6880   29.5410   17.7260 C   0  0  0  0  0  0  0  0  0  0  0  0
   25.7710   30.1970   18.2310 O   0  0  0  0  0  0  0  0  0  0  0  0
   27.7390   27.7340   17.5470 H   0  0  0  0  0  0  0  0  0  0  0  0
   26.1260   27.4260   18.9420 C   0  0  0  0  0  0  0  0  0  0  0  0
   26.6720   27.2300   20.3790 C   0  0  2  0  0  0  0  0  0  0  0  0
   28.0910   27.6370   20.2810 C   0  0  1  0  0  0  0  0  0  0  0  0
   28.5830   28.7990   21.0680 C   0  0  2  0  0  0  0  0  0  0  0  0
   30.3390   30.0930   20.1870 C   0  0  2  0  0  0  0  0  0  0  0  0
   30.7460   30.6590   21.5260 C   0  0  0  0  0  0  0  0  0  0  0  0
   28.9740   29.7990   20.1350 O   0  0  0  0  0  0  0  0  0  0  0  0
   29.9190   30.0060   22.6510 C   0  0  1  0  0  0  0  0  0  0  0  0
   29.6090   28.5980   22.0880 C   0  0  1  0  0  0  0  0  0  0  0  0
   31.1590   29.0320   19.8370 O   0  0  0  0  0  0  0  0  0  0  0  0
   31.0700   28.7310   18.9210 H   0  0  0  0  0  0  0  0  0  0  0  0
   30.5030   31.1960   19.2180 C   0  0  0  0  0  0  0  0  0  0  0  0
   30.7460   32.3320   19.3550 O   0  0  0  0  0  0  0  0  0  0  0  0
   30.3210   30.7340   17.8240 O   0  0  0  0  0  0  0  0  0  0  0  0
   30.5450   31.4230   17.1030 H   0  0  0  0  0  0  0  0  0  0  0  0
   30.6350   29.9380   23.8180 O   0  0  0  0  0  0  0  0  0  0  0  0
   31.1360   29.1060   23.8890 H   0  0  0  0  0  0  0  0  0  0  0  0
   29.1670   27.7790   23.2270 N   0  0  0  0  0  0  0  0  0  0  0  0
   29.7830   26.5350   23.4340 C   0  0  0  0  0  0  0  0  0  0  0  0
   28.4560   28.1240   23.8420 H   0  0  0  0  0  0  0  0  0  0  0  0
   29.6760   25.5000   24.3950 C   0  0  0  0  0  0  0  0  0  0  0  0
   30.7080   26.3350   22.4520 O   0  0  0  0  0  0  0  0  0  0  0  0
   28.9190   26.5580   20.1690 O   0  0  0  0  0  0  0  0  0  0  0  0
   28.5580   25.8580   19.5630 H   0  0  0  0  0  0  0  0  0  0  0  0
   26.3830   25.9340   20.6990 O   0  0  0  0  0  0  0  0  0  0  0  0
   26.4160   25.8190   21.6810 H   0  0  0  0  0  0  0  0  0  0  0  0
   27.5590   30.1510   16.8200 O   0  0  0  0  0  0  0  0  0  0  0  0
   27.0810   31.1380   15.8810 C   0  0  0  0  0  0  0  0  0  0  0  0
   28.1960   32.1560   15.8750 C   0  0  0  0  0  0  0  0  0  0  0  0
   29.1430   32.3170   14.9080 C   0  0  0  0  0  0  0  0  0  0  0  0
   28.3580   33.1110   16.7900 N   0  0  0  0  0  0  0  0  0  0  0  0
   29.8690   33.4140   15.2850 N   0  0  0  0  0  0  0  0  0  0  0  0
   29.3560   33.8680   16.4370 N   0  0  0  0  0  0  0  0  0  0  0  0
   30.9340   33.9930   14.6020 C   0  0  0  0  0  0  0  0  0  0  0  0
   32.2210   33.9710   15.1490 N   0  0  0  0  0  0  0  0  0  0  0  0
   30.8470   34.7060   13.4250 C   0  0  0  0  0  0  0  0  0  0  0  0
   33.1710   34.5760   14.5700 C   0  0  0  0  0  0  0  0  0  0  0  0
   31.8480   35.3350   12.8330 C   0  0  0  0  0  0  0  0  0  0  0  0
   33.1690   35.3310   13.3700 C   0  0  0  0  0  0  0  0  0  0  0  0
   29.4770   34.8470   12.7940 C   0  0  0  0  0  0  0  0  0  0  0  0
   28.5640   34.9240   12.3680 N   0  0  0  0  0  0  0  0  0  0  0  0
   29.8670   25.5550   16.9770 C   0  0  0  0  0  0  0  0  0  0  0  0
   28.3450   25.7220   17.0260 C   0  0  0  0  0  0  0  0  0  0  0  0
   27.5990   24.4370   16.7000 C   0  0  0  0  0  0  0  0  0  0  0  0
   26.9620   23.8280   17.9180 C   0  0  0  0  0  0  0  0  0  0  0  0
   25.4490   23.7830   17.7330 C   0  0  0  0  0  0  0  0  0  0  0  0
   24.9590   22.3860   17.7930 N   0  0  0  0  0  0  0  0  0  0  0  0
  1  5  1  0  0  0  0
  2  1  1  0  0  0  0
  2  3  2  0  0  0  0
  4  1  1  0  0  0  0
  6  5  1  6  0  0  0
  6 29  1  0  0  0  0
  7 27  1  1  0  0  0
  7  6  1  0  0  0  0
  8  7  1  6  0  0  0
  8 13  1  0  0  0  0
  9 16  1  6  0  0  0
  9 10  1  0  0  0  0
 10 12  1  0  0  0  0
 11  9  1  0  0  0  0
 11  8  1  0  0  0  0
 12 20  1  1  0  0  0
 13 12  1  0  0  0  0
 13 22  1  1  0  0  0
 14  9  1  0  0  0  0
 15 14  1  0  0  0  0
 16 17  2  0  0  0  0
 18 16  1  0  0  0  0
 19 18  1  0  0  0  0
 20 21  1  0  0  0  0
 22 23  1  0  0  0  0
 22 24  1  0  0  0  0
 23 25  1  0  0  0  0
 26 23  2  0  0  0  0
 28 27  1  0  0  0  0
 29 30  1  0  0  0  0
 31  2  1  0  0  0  0
 32 31  1  0  0  0  0
 33 32  1  0  0  0  0
 33 35  1  0  0  0  0
 34 36  1  0  0  0  0
 34 33  2  0  0  0  0
 36 37  1  0  0  0  0
 37 35  2  0  0  0  0
 38 39  1  0  0  0  0
 38 36  1  0  0  0  0
 40 38  2  0  0  0  0
 41 39  2  0  0  0  0
 42 43  2  0  0  0  0
 42 40  1  0  0  0  0
 43 41  1  0  0  0  0
 44 40  1  0  0  0  0
 45 44  3  0  0  0  0
 46 47  1  0  0  0  0
 48 47  1  0  0  0  0
 48 49  1  0  0  0  0
 50 51  1  0  0  0  0
 50 49  1  0  0  0  0
M  END
>  <REMARK>
 VINA RESULT:    -4.278      6.471     11.635
 INTER + INTRA:         -14.696
 INTER:                  -9.065
 INTRA:                  -5.631
 UNBOUND:                -7.042
 SMILES CC(=O)N[C@@H]1[C@@H](O)C[C@](O)(C(=O)O)O[C@H]1C(O)[C@H](O)CNC(=O)OCc1cn(-c2ncccc2C#N)nn1
 SMILES IDX 21 1 22 2 23 3 20 5 18 6 16 7 15 8 9 9 8 10 14 11 6 12 5 13
 SMILES IDX 10 14 11 16 12 17 13 18 7 20 4 22 2 23 1 25 3 26 17 27 19 29
 SMILES IDX 24 31 25 32 26 33 27 34 38 35 28 36 37 37 29 38 30 39 34 40
 SMILES IDX 31 41 33 42 32 43 35 44 36 45
 H PARENT 21 4 10 15 13 19 7 21 4 24 17 28 19 30
 Flexibility Score: inf
  4 active torsions:
  status: ('A' for Active; 'I' for Inactive)
    1  A    between atoms: CA   and  CB  
    2  A    between atoms: CB   and  CG  
    3  A    between atoms: CG   and  CD  
    4  A    between atoms: CD   and  CE  

>  <TORSDO>
F 16

>  <BEGIN_>
RES LYS A 131

$$$$
ligand_63_pose_4_2HRL.pdbqt
 OpenBabel07062320523D

  6  5  0  0  0  0  0  0  0  0999 V2000
   33.1930   34.6630    9.2900 C   0  0  0  0  0  0  0  0  0  0  0  0
   32.0600   35.3600   10.0340 C   0  0  0  0  0  0  0  0  0  0  0  0
   30.8200   35.5520    9.2000 C   0  0  0  0  0  0  0  0  0  0  0  0
   30.0360   34.2530    9.0970 C   0  0  0  0  0  0  0  0  0  0  0  0
   28.7340   34.4740    8.3500 C   0  0  0  0  0  0  0  0  0  0  0  0
   27.9440   35.5770    8.9640 N   0  0  0  0  0  0  0  0  0  0  0  0
  1  2  1  0  0  0  0
  3  2  1  0  0  0  0
  4  3  1  0  0  0  0
  5  6  1  0  0  0  0
  5  4  1  0  0  0  0
M  END
>  <EGIN_R>
ES LYS A 135

>  <REMARK>
  4 active torsions:
  status: ('A' for Active; 'I' for Inactive)
    5  A    between atoms: CA   and  CB  
    6  A    between atoms: CB   and  CG  
    7  A    between atoms: CG   and  CD  
    8  A    between atoms: CD   and  CE  

$$$$
