ligand_62_pose_8_2HRL.pdbqt
 OpenBabel07062320523D

 52 52  0  0  1  0  0  0  0  0999 V2000
   25.6510   35.0190   13.6220 N   0  0  0  0  0  0  0  0  0  0  0  0
   25.2930   34.3090   12.4580 C   0  0  0  0  0  0  0  0  0  0  0  0
   24.9840   33.0960   12.4870 O   0  0  0  0  0  0  0  0  0  0  0  0
   25.8900   36.0350   13.4960 H   0  0  0  0  0  0  0  0  0  0  0  0
   25.7200   34.4900   14.9410 C   0  0  0  0  0  0  0  0  0  0  0  0
   27.0370   34.0000   15.4180 C   0  0  2  0  0  0  0  0  0  0  0  0
   28.1970   34.5080   14.5900 C   0  0  2  0  0  0  0  0  0  0  0  0
   29.5220   33.8990   14.9220 C   0  0  2  0  0  0  0  0  0  0  0  0
   30.6010   32.8790   16.6960 C   0  0  2  0  0  0  0  0  0  0  0  0
   31.5660   32.6280   15.5690 C   0  0  0  0  0  0  0  0  0  0  0  0
   29.4520   33.5310   16.2820 O   0  0  0  0  0  0  0  0  0  0  0  0
   31.9390   33.8520   14.8120 C   0  0  1  0  0  0  0  0  0  0  0  0
   30.7140   34.7800   14.7690 C   0  0  1  0  0  0  0  0  0  0  0  0
   31.2640   33.5430   17.7130 O   0  0  0  0  0  0  0  0  0  0  0  0
   30.7460   34.2930   18.0970 H   0  0  0  0  0  0  0  0  0  0  0  0
   30.1880   31.5510   17.2250 C   0  0  0  0  0  0  0  0  0  0  0  0
   30.4730   31.1830   18.3990 O   0  0  0  0  0  0  0  0  0  0  0  0
   29.4620   30.6380   16.4520 O   0  0  0  0  0  0  0  0  0  0  0  0
   29.6190   29.6410   16.5210 H   0  0  0  0  0  0  0  0  0  0  0  0
   33.0370   34.5210   15.3500 O   0  0  0  0  0  0  0  0  0  0  0  0
   33.3890   35.1130   14.6300 H   0  0  0  0  0  0  0  0  0  0  0  0
   30.8310   35.5250   13.5630 N   0  0  0  0  0  0  0  0  0  0  0  0
   31.4710   36.8210   13.5050 C   0  0  0  0  0  0  0  0  0  0  0  0
   30.4750   35.1820   12.6460 H   0  0  0  0  0  0  0  0  0  0  0  0
   31.5690   37.5600   12.2250 C   0  0  0  0  0  0  0  0  0  0  0  0
   31.9430   37.3180   14.5340 O   0  0  0  0  0  0  0  0  0  0  0  0
   28.3170   35.8770   14.9850 O   0  0  0  0  0  0  0  0  0  0  0  0
   28.5620   35.9500   15.9220 H   0  0  0  0  0  0  0  0  0  0  0  0
   27.0900   32.6100   15.3400 O   0  0  0  0  0  0  0  0  0  0  0  0
   27.9780   32.3240   15.0220 H   0  0  0  0  0  0  0  0  0  0  0  0
   25.2680   34.9350   11.2150 O   0  0  0  0  0  0  0  0  0  0  0  0
   25.1130   36.3250   11.0910 C   0  0  0  0  0  0  0  0  0  0  0  0
   26.3110   36.9370   10.4870 C   0  0  0  0  0  0  0  0  0  0  0  0
   26.3820   37.6840    9.3270 C   0  0  0  0  0  0  0  0  0  0  0  0
   27.5590   36.8540   10.9940 N   0  0  0  0  0  0  0  0  0  0  0  0
   27.6560   38.0260    9.1730 N   0  0  0  0  0  0  0  0  0  0  0  0
   28.3490   37.5330   10.1580 N   0  0  0  0  0  0  0  0  0  0  0  0
   28.2060   38.8230    8.0800 C   0  0  1  0  0  0  0  0  0  0  0  0
   28.8570   40.0460    8.6620 C   0  0  0  0  0  0  0  0  0  0  0  0
   29.5220   40.7580    7.6900 O   0  0  0  0  0  0  0  0  0  0  0  0
   30.5640   41.5310    8.1540 C   0  0  0  0  0  0  0  0  0  0  0  0
   29.2540   38.0150    7.3750 C   0  0  0  0  0  0  0  0  0  0  0  0
   28.9960   37.4290    6.3140 O   0  0  0  0  0  0  0  0  0  0  0  0
   30.5430   37.9490    7.9680 N   0  0  0  0  0  0  0  0  0  0  0  0
   31.3650   37.7440    7.3540 H   0  0  0  0  0  0  0  0  0  0  0  0
   30.6710   38.0980    8.9760 H   0  0  0  0  0  0  0  0  0  0  0  0
   29.8670   25.5550   16.9770 C   0  0  0  0  0  0  0  0  0  0  0  0
   28.3450   25.7220   17.0260 C   0  0  0  0  0  0  0  0  0  0  0  0
   27.5990   24.4420   16.6830 C   0  0  0  0  0  0  0  0  0  0  0  0
   27.0210   23.7790   17.9030 C   0  0  0  0  0  0  0  0  0  0  0  0
   25.6040   23.3020   17.6000 C   0  0  0  0  0  0  0  0  0  0  0  0
   24.7860   24.4150   17.0620 N   0  0  0  0  0  0  0  0  0  0  0  0
  1  5  1  0  0  0  0
  2  3  2  0  0  0  0
  2  1  1  0  0  0  0
  4  1  1  0  0  0  0
  6  5  1  6  0  0  0
  7 27  1  1  0  0  0
  7  6  1  0  0  0  0
  8  7  1  1  0  0  0
  8 11  1  0  0  0  0
  9 16  1  1  0  0  0
  9 14  1  0  0  0  0
 10  9  1  0  0  0  0
 11  9  1  0  0  0  0
 12 20  1  1  0  0  0
 12 10  1  0  0  0  0
 13 22  1  6  0  0  0
 13 12  1  0  0  0  0
 13  8  1  0  0  0  0
 14 15  1  0  0  0  0
 16 17  2  0  0  0  0
 18 19  1  0  0  0  0
 18 16  1  0  0  0  0
 21 20  1  0  0  0  0
 23 22  1  0  0  0  0
 23 26  2  0  0  0  0
 24 22  1  0  0  0  0
 25 23  1  0  0  0  0
 27 28  1  0  0  0  0
 29  6  1  0  0  0  0
 30 29  1  0  0  0  0
 31  2  1  0  0  0  0
 32 31  1  0  0  0  0
 33 35  1  0  0  0  0
 33 32  1  0  0  0  0
 34 33  2  0  0  0  0
 36 34  1  0  0  0  0
 36 37  1  0  0  0  0
 37 35  2  0  0  0  0
 38 39  1  1  0  0  0
 38 36  1  0  0  0  0
 40 41  1  0  0  0  0
 40 39  1  0  0  0  0
 42 44  1  0  0  0  0
 42 38  1  0  0  0  0
 43 42  2  0  0  0  0
 44 46  1  0  0  0  0
 45 44  1  0  0  0  0
 47 48  1  0  0  0  0
 49 48  1  0  0  0  0
 49 50  1  0  0  0  0
 51 50  1  0  0  0  0
 52 51  1  0  0  0  0
M  END
>  <REMARK>
 VINA RESULT:    -4.039      3.421      6.563
 INTER + INTRA:         -14.451
 INTER:                  -8.026
 INTRA:                  -6.425
 UNBOUND:                -6.753
 SMILES COCC(C(N)=O)n1cc(COC(=O)NC[C@@H](O)C(O)[C@@H]2O[C@@](O)(C(=O)O)C[C@H](O)[C@H]2NC(C)=O)nn1
 SMILES IDX 15 1 13 2 14 3 16 5 17 6 19 7 21 8 23 9 28 10 22 11 29 12
 SMILES IDX 31 13 24 14 25 16 26 17 27 18 30 20 32 22 33 23 34 25 35 26
 SMILES IDX 20 27 18 29 12 31 11 32 10 33 9 34 36 35 8 36 37 37 4 38
 SMILES IDX 3 39 2 40 1 41 5 42 7 43 6 44
 H PARENT 15 4 24 15 27 19 30 21 32 24 20 28 18 30 6 45 6 46
 Flexibility Score: inf
  4 active torsions:
  status: ('A' for Active; 'I' for Inactive)
    1  A    between atoms: CA   and  CB  
    2  A    between atoms: CB   and  CG  
    3  A    between atoms: CG   and  CD  
    4  A    between atoms: CD   and  CE  

>  <TORSDO>
F 18

>  <BEGIN_>
RES LYS A 131

$$$$
ligand_62_pose_8_2HRL.pdbqt
 OpenBabel07062320523D

  6  5  0  0  0  0  0  0  0  0999 V2000
   33.1930   34.6630    9.2900 C   0  0  0  0  0  0  0  0  0  0  0  0
   32.0600   35.3600   10.0340 C   0  0  0  0  0  0  0  0  0  0  0  0
   30.7450   34.6300    9.9500 C   0  0  0  0  0  0  0  0  0  0  0  0
   30.3280   34.4400    8.4990 C   0  0  0  0  0  0  0  0  0  0  0  0
   28.8160   34.4490    8.3740 C   0  0  0  0  0  0  0  0  0  0  0  0
   28.1790   33.7590    9.5290 N   0  0  0  0  0  0  0  0  0  0  0  0
  1  2  1  0  0  0  0
  3  2  1  0  0  0  0
  4  3  1  0  0  0  0
  5  4  1  0  0  0  0
  5  6  1  0  0  0  0
M  END
>  <EGIN_R>
ES LYS A 135

>  <REMARK>
  4 active torsions:
  status: ('A' for Active; 'I' for Inactive)
    5  A    between atoms: CA   and  CB  
    6  A    between atoms: CB   and  CG  
    7  A    between atoms: CG   and  CD  
    8  A    between atoms: CD   and  CE  

$$$$
