ligand_24_pose_12_2HRL.pdbqt
 OpenBabel07062320523D

 52 53  0  0  1  0  0  0  0  0999 V2000
   26.1580   30.0020   18.3930 N   0  0  0  0  0  0  0  0  0  0  0  0
   26.2050   28.5930   18.3290 C   0  0  0  0  0  0  0  0  0  0  0  0
   27.2020   27.9210   18.6880 O   0  0  0  0  0  0  0  0  0  0  0  0
   25.2770   30.4600   18.0620 H   0  0  0  0  0  0  0  0  0  0  0  0
   27.2220   30.8240   18.8750 C   0  0  0  0  0  0  0  0  0  0  0  0
   28.2710   31.1500   17.8680 C   0  0  2  0  0  0  0  0  0  0  0  0
   27.6930   31.5970   16.5440 C   0  0  1  0  0  0  0  0  0  0  0  0
   28.5240   32.5910   15.8150 C   0  0  2  0  0  0  0  0  0  0  0  0
   30.2920   34.0700   16.0180 C   0  0  2  0  0  0  0  0  0  0  0  0
   29.5860   35.1250   15.2150 C   0  0  0  0  0  0  0  0  0  0  0  0
   29.4930   33.1620   16.6360 O   0  0  0  0  0  0  0  0  0  0  0  0
   28.3890   34.5820   14.4610 C   0  0  1  0  0  0  0  0  0  0  0  0
   27.6060   33.7540   15.4230 C   0  0  1  0  0  0  0  0  0  0  0  0
   30.9530   34.7820   17.0540 O   0  0  0  0  0  0  0  0  0  0  0  0
   31.3120   35.5950   16.6210 H   0  0  0  0  0  0  0  0  0  0  0  0
   31.3620   33.4950   15.1690 C   0  0  0  0  0  0  0  0  0  0  0  0
   31.7500   32.2950   15.2860 O   0  0  0  0  0  0  0  0  0  0  0  0
   32.0040   34.2480   14.1870 O   0  0  0  0  0  0  0  0  0  0  0  0
   32.1470   33.8780   13.2670 H   0  0  0  0  0  0  0  0  0  0  0  0
   27.6700   35.6250   13.9120 O   0  0  0  0  0  0  0  0  0  0  0  0
   27.1560   35.3050   13.1550 H   0  0  0  0  0  0  0  0  0  0  0  0
   26.3250   33.3370   14.9490 N   0  0  0  0  0  0  0  0  0  0  0  0
   25.1310   34.0560   15.0980 C   0  0  0  0  0  0  0  0  0  0  0  0
   26.2700   32.4120   14.4420 H   0  0  0  0  0  0  0  0  0  0  0  0
   23.8630   33.5130   14.5590 C   0  0  0  0  0  0  0  0  0  0  0  0
   25.1300   35.1460   15.6790 O   0  0  0  0  0  0  0  0  0  0  0  0
   27.4420   30.4910   15.7600 O   0  0  0  0  0  0  0  0  0  0  0  0
   28.1420   30.2660   15.1090 H   0  0  0  0  0  0  0  0  0  0  0  0
   29.2110   30.1740   17.7180 O   0  0  0  0  0  0  0  0  0  0  0  0
   30.1140   30.5920   17.8590 H   0  0  0  0  0  0  0  0  0  0  0  0
   25.0900   27.8840   17.8430 O   0  0  0  0  0  0  0  0  0  0  0  0
   23.9420   28.6160   17.4780 C   0  0  0  0  0  0  0  0  0  0  0  0
   23.9840   29.0640   16.0750 C   0  0  0  0  0  0  0  0  0  0  0  0
   23.2710   28.5310   14.9970 C   0  0  0  0  0  0  0  0  0  0  0  0
   24.7100   30.0660   15.5480 N   0  0  0  0  0  0  0  0  0  0  0  0
   23.5880   29.2170   13.8890 N   0  0  0  0  0  0  0  0  0  0  0  0
   24.4600   30.1390   14.2500 N   0  0  0  0  0  0  0  0  0  0  0  0
   23.0930   29.0130   12.5530 C   0  0  0  0  0  0  0  0  0  0  0  0
   21.7490   29.6030   12.3760 C   0  0  0  0  0  0  0  0  0  0  0  0
   20.6790   28.8110   12.0280 C   0  0  0  0  0  0  0  0  0  0  0  0
   21.5680   30.9490   12.5600 C   0  0  0  0  0  0  0  0  0  0  0  0
   19.4160   29.3750   11.8640 C   0  0  0  0  0  0  0  0  0  0  0  0
   20.3090   31.5270   12.3990 C   0  0  0  0  0  0  0  0  0  0  0  0
   19.2430   30.7370   12.0530 C   0  0  0  0  0  0  0  0  0  0  0  0
   17.9700   31.2840   11.8840 O   0  0  0  0  0  0  0  0  0  0  0  0
   17.1180   31.4300   13.0070 C   0  0  0  0  0  0  0  0  0  0  0  0
   29.8670   25.5550   16.9770 C   0  0  0  0  0  0  0  0  0  0  0  0
   28.3450   25.7220   17.0260 C   0  0  0  0  0  0  0  0  0  0  0  0
   27.6010   24.4010   16.8990 C   0  0  0  0  0  0  0  0  0  0  0  0
   26.1500   24.5310   17.2690 C   0  0  0  0  0  0  0  0  0  0  0  0
   25.9990   24.4290   18.7830 C   0  0  0  0  0  0  0  0  0  0  0  0
   24.6250   24.8040   19.1940 N   0  0  0  0  0  0  0  0  0  0  0  0
  1  5  1  0  0  0  0
  2  1  1  0  0  0  0
  2  3  2  0  0  0  0
  4  1  1  0  0  0  0
  6  5  1  1  0  0  0
  7 27  1  6  0  0  0
  7  6  1  0  0  0  0
  8  7  1  1  0  0  0
  8 11  1  0  0  0  0
  9 16  1  6  0  0  0
  9 11  1  0  0  0  0
  9 14  1  0  0  0  0
 10  9  1  0  0  0  0
 12 20  1  1  0  0  0
 12 10  1  0  0  0  0
 12 13  1  0  0  0  0
 13 22  1  6  0  0  0
 13  8  1  0  0  0  0
 15 14  1  0  0  0  0
 16 17  2  0  0  0  0
 18 16  1  0  0  0  0
 19 18  1  0  0  0  0
 21 20  1  0  0  0  0
 22 23  1  0  0  0  0
 23 26  2  0  0  0  0
 24 22  1  0  0  0  0
 25 23  1  0  0  0  0
 28 27  1  0  0  0  0
 29 30  1  0  0  0  0
 29  6  1  0  0  0  0
 31  2  1  0  0  0  0
 32 31  1  0  0  0  0
 33 32  1  0  0  0  0
 34 33  2  0  0  0  0
 35 33  1  0  0  0  0
 36 37  1  0  0  0  0
 36 34  1  0  0  0  0
 37 35  2  0  0  0  0
 38 36  1  0  0  0  0
 39 38  1  0  0  0  0
 39 41  2  0  0  0  0
 40 39  1  0  0  0  0
 42 40  2  0  0  0  0
 42 44  1  0  0  0  0
 43 41  1  0  0  0  0
 44 43  2  0  0  0  0
 45 44  1  0  0  0  0
 45 46  1  0  0  0  0
 47 48  1  0  0  0  0
 49 48  1  0  0  0  0
 49 50  1  0  0  0  0
 50 51  1  0  0  0  0
 51 52  1  0  0  0  0
M  END
>  <REMARK>
 VINA RESULT:    -4.971      3.895      7.558
 INTER + INTRA:         -14.461
 INTER:                  -8.453
 INTRA:                  -6.007
 UNBOUND:                -5.276
 SMILES COc1ccc(Cn2cc(COC(=O)NC[C@@H](O)C(O)[C@@H]3O[C@@](O)(C(=O)O)C[C@H](O)[C@H]3NC(C)=O)nn2)cc1
 SMILES IDX 15 1 13 2 14 3 16 5 17 6 19 7 21 8 23 9 28 10 22 11 29 12
 SMILES IDX 31 13 24 14 25 16 26 17 27 18 30 20 32 22 33 23 34 25 35 26
 SMILES IDX 20 27 18 29 12 31 11 32 10 33 9 34 36 35 8 36 37 37 7 38
 SMILES IDX 6 39 5 40 38 41 4 42 39 43 3 44 2 45 1 46
 H PARENT 15 4 24 15 27 19 30 21 32 24 20 28 18 30
 Flexibility Score: inf
  4 active torsions:
  status: ('A' for Active; 'I' for Inactive)
    1  A    between atoms: CA   and  CB  
    2  A    between atoms: CB   and  CG  
    3  A    between atoms: CG   and  CD  
    4  A    between atoms: CD   and  CE  

>  <TORSDO>
F 17

>  <BEGIN_>
RES LYS A 131

$$$$
ligand_24_pose_12_2HRL.pdbqt
 OpenBabel07062320523D

  6  5  0  0  0  0  0  0  0  0999 V2000
   33.1930   34.6630    9.2900 C   0  0  0  0  0  0  0  0  0  0  0  0
   32.0600   35.3600   10.0340 C   0  0  0  0  0  0  0  0  0  0  0  0
   30.7420   34.6360    9.9390 C   0  0  0  0  0  0  0  0  0  0  0  0
   30.3210   34.4750    8.4860 C   0  0  0  0  0  0  0  0  0  0  0  0
   28.8120   34.5510    8.3570 C   0  0  0  0  0  0  0  0  0  0  0  0
   28.1410   33.8020    9.4560 N   0  0  0  0  0  0  0  0  0  0  0  0
  1  2  1  0  0  0  0
  3  2  1  0  0  0  0
  4  3  1  0  0  0  0
  5  4  1  0  0  0  0
  5  6  1  0  0  0  0
M  END
>  <EGIN_R>
ES LYS A 135

>  <REMARK>
  4 active torsions:
  status: ('A' for Active; 'I' for Inactive)
    5  A    between atoms: CA   and  CB  
    6  A    between atoms: CB   and  CG  
    7  A    between atoms: CG   and  CD  
    8  A    between atoms: CD   and  CE  

$$$$
