ligand_90_pose_13_2HRL.pdbqt
 OpenBabel07062320523D

 61 62  0  0  1  0  0  0  0  0999 V2000
   27.3940   36.0930   14.0000 C   0  0  0  0  0  0  0  0  0  0  0  0
   26.8110   37.2880   14.4800 O   0  0  0  0  0  0  0  0  0  0  0  0
   26.6110   38.3820   13.6560 C   0  0  0  0  0  0  0  0  0  0  0  0
   27.2790   38.4910   12.3880 N   0  0  0  0  0  0  0  0  0  0  0  0
   27.9180   37.7090   12.1380 H   0  0  0  0  0  0  0  0  0  0  0  0
   25.8380   39.2770   14.0360 O   0  0  0  0  0  0  0  0  0  0  0  0
   27.1000   39.5890   11.5010 C   0  0  0  0  0  0  0  0  0  0  0  0
   26.6780   39.2140   10.1240 C   0  0  2  0  0  0  0  0  0  0  0  0
   27.8080   38.4520    9.4520 C   0  0  1  0  0  0  0  0  0  0  0  0
   27.3190   37.4150    8.4920 C   0  0  2  0  0  0  0  0  0  0  0  0
   28.9940   35.8500    8.0760 C   0  0  2  0  0  0  0  0  0  0  0  0
   28.7200   35.7280    6.5840 C   0  0  0  0  0  0  0  0  0  0  0  0
   27.8700   36.1920    8.7760 O   0  0  0  0  0  0  0  0  0  0  0  0
   27.4580   36.5040    6.2320 C   0  0  1  0  0  0  0  0  0  0  0  0
   27.5150   37.7930    7.0610 C   0  0  1  0  0  0  0  0  0  0  0  0
   29.9470   36.8430    8.2100 O   0  0  0  0  0  0  0  0  0  0  0  0
   29.9800   37.4110    7.3990 H   0  0  0  0  0  0  0  0  0  0  0  0
   29.5600   34.5920    8.6270 C   0  0  0  0  0  0  0  0  0  0  0  0
   28.8460   33.7600    9.2560 O   0  0  0  0  0  0  0  0  0  0  0  0
   30.9000   34.2820    8.4700 O   0  0  0  0  0  0  0  0  0  0  0  0
   31.6660   34.9190    8.5960 H   0  0  0  0  0  0  0  0  0  0  0  0
   27.5000   36.7790    4.8770 O   0  0  0  0  0  0  0  0  0  0  0  0
   27.2020   36.0280    4.3170 H   0  0  0  0  0  0  0  0  0  0  0  0
   26.4840   38.7120    6.5990 N   0  0  0  0  0  0  0  0  0  0  0  0
   26.8590   39.9360    6.0100 C   0  0  0  0  0  0  0  0  0  0  0  0
   25.4980   38.4630    6.7100 H   0  0  0  0  0  0  0  0  0  0  0  0
   25.8240   40.9170    5.5170 C   0  0  0  0  0  0  0  0  0  0  0  0
   28.0520   40.2920    5.8570 O   0  0  0  0  0  0  0  0  0  0  0  0
   28.6760   39.3130    8.7990 O   0  0  0  0  0  0  0  0  0  0  0  0
   28.2960   40.1940    8.6290 H   0  0  0  0  0  0  0  0  0  0  0  0
   26.3110   40.2800    9.3190 O   0  0  0  0  0  0  0  0  0  0  0  0
   25.8430   39.9900    8.4900 H   0  0  0  0  0  0  0  0  0  0  0  0
   26.4040   35.5120   13.0610 C   0  0  0  0  0  0  0  0  0  0  0  0
   25.2020   34.9620   13.4480 C   0  0  0  0  0  0  0  0  0  0  0  0
   26.4210   35.3770   11.7270 N   0  0  0  0  0  0  0  0  0  0  0  0
   24.5200   34.5090   12.3510 N   0  0  0  0  0  0  0  0  0  0  0  0
   25.2860   34.7760   11.3220 N   0  0  0  0  0  0  0  0  0  0  0  0
   23.2240   33.8750   12.4620 C   0  0  0  0  0  0  0  0  0  0  0  0
   22.2740   34.7050   11.6190 C   0  0  0  0  0  0  0  0  0  0  0  0
   21.2600   35.2170   12.1400 O   0  0  0  0  0  0  0  0  0  0  0  0
   22.4890   34.9270   10.2570 N   0  0  0  0  0  0  0  0  0  0  0  0
   23.4060   34.4620    9.8940 H   0  0  0  0  0  0  0  0  0  0  0  0
   21.7110   35.6380    9.3100 C   0  0  0  0  0  0  0  0  0  0  0  0
   22.3410   36.2680    8.1530 C   0  0  1  0  0  0  0  0  0  0  0  0
   21.4020   36.7140    7.1840 O   0  0  0  0  0  0  0  0  0  0  0  0
   20.6580   37.1760    7.6400 H   0  0  0  0  0  0  0  0  0  0  0  0
   23.5280   37.1290    8.2830 C   0  0  0  0  0  0  0  0  0  0  0  0
   23.2130   38.5220    8.5350 N   0  0  0  0  0  0  0  0  0  0  0  0
   23.1930   39.5090    7.6040 C   0  0  0  0  0  0  0  0  0  0  0  0
   22.9090   39.0580    9.7310 C   0  0  0  0  0  0  0  0  0  0  0  0
   22.8670   40.6740    8.2730 C   0  0  0  0  0  0  0  0  0  0  0  0
   22.6950   40.3990    9.5670 N   0  0  0  0  0  0  0  0  0  0  0  0
   22.8020   38.4260   10.9940 N   0  0  0  0  0  0  0  0  0  0  0  0
   21.6780   38.4650   11.5770 O   0  0  0  0  0  0  0  0  0  0  0  0
   23.7910   37.7780   11.6530 O   0  0  0  0  0  0  0  0  0  0  0  0
   29.8670   25.5550   16.9770 C   0  0  0  0  0  0  0  0  0  0  0  0
   28.3450   25.7220   17.0260 C   0  0  0  0  0  0  0  0  0  0  0  0
   27.6010   24.4010   16.9050 C   0  0  0  0  0  0  0  0  0  0  0  0
   26.1530   24.5290   17.2860 C   0  0  0  0  0  0  0  0  0  0  0  0
   25.6370   23.1840   17.7870 C   0  0  0  0  0  0  0  0  0  0  0  0
   25.5130   23.1940   19.2640 N   0  0  0  0  0  0  0  0  0  0  0  0
  1  2  1  0  0  0  0
  3  6  2  0  0  0  0
  3  2  1  0  0  0  0
  4  3  1  0  0  0  0
  5  4  1  0  0  0  0
  7  4  1  0  0  0  0
  8  7  1  1  0  0  0
  9 29  1  6  0  0  0
  9  8  1  0  0  0  0
 10 13  1  0  0  0  0
 10  9  1  1  0  0  0
 11 16  1  1  0  0  0
 11 18  1  0  0  0  0
 11 13  1  0  0  0  0
 12 11  1  0  0  0  0
 14 22  1  6  0  0  0
 14 12  1  0  0  0  0
 14 15  1  0  0  0  0
 15 24  1  6  0  0  0
 15 10  1  0  0  0  0
 17 16  1  0  0  0  0
 18 19  2  0  0  0  0
 20 21  1  0  0  0  0
 20 18  1  0  0  0  0
 23 22  1  0  0  0  0
 24 26  1  0  0  0  0
 25 24  1  0  0  0  0
 27 25  1  0  0  0  0
 28 25  2  0  0  0  0
 30 29  1  0  0  0  0
 31  8  1  0  0  0  0
 32 31  1  0  0  0  0
 33 34  2  0  0  0  0
 33  1  1  0  0  0  0
 35 33  1  0  0  0  0
 36 38  1  0  0  0  0
 36 34  1  0  0  0  0
 37 35  2  0  0  0  0
 37 36  1  0  0  0  0
 39 40  2  0  0  0  0
 39 38  1  0  0  0  0
 41 39  1  0  0  0  0
 42 41  1  0  0  0  0
 43 41  1  0  0  0  0
 44 47  1  1  0  0  0
 44 43  1  0  0  0  0
 45 46  1  0  0  0  0
 45 44  1  0  0  0  0
 47 48  1  0  0  0  0
 48 50  1  0  0  0  0
 49 51  2  0  0  0  0
 49 48  1  0  0  0  0
 50 53  1  0  0  0  0
 51 52  1  0  0  0  0
 52 50  2  0  0  0  0
 53 54  2  0  0  0  0
 53 55  2  0  0  0  0
 56 57  1  0  0  0  0
 58 57  1  0  0  0  0
 58 59  1  0  0  0  0
 59 60  1  0  0  0  0
 60 61  1  0  0  0  0
M  END
>  <REMARK>
 VINA RESULT:    -5.171      2.345      7.276
 INTER + INTRA:         -16.673
 INTER:                  -9.544
 INTRA:                  -7.128
 UNBOUND:                -5.759
 SMILES CC(=O)N[C@@H]1[C@@H](O)C[C@](O)(C(=O)O)O[C@H]1C(O)[C@H](O)CNC(=O)OCc1cn(CC(=O)NCC(O)Cn2ccnc2[N+](=O)[O-])nn1
 SMILES IDX 25 1 24 2 22 3 21 4 23 6 20 7 18 8 16 9 15 10 9 11 8 12
 SMILES IDX 14 13 6 14 5 15 10 16 11 18 12 19 13 20 7 22 4 24 2 25 1 27
 SMILES IDX 3 28 17 29 19 31 26 33 27 34 46 35 28 36 45 37 29 38 30 39
 SMILES IDX 31 40 32 41 33 43 34 44 35 45 36 47 37 48 38 49 41 50 39 51
 SMILES IDX 40 52 42 53 43 54 44 55
 H PARENT 21 5 10 17 13 21 7 23 4 26 17 30 19 32 32 42 35 46
 Flexibility Score: inf
  4 active torsions:
  status: ('A' for Active; 'I' for Inactive)
    1  A    between atoms: CA   and  CB  
    2  A    between atoms: CB   and  CG  
    3  A    between atoms: CG   and  CD  
    4  A    between atoms: CD   and  CE  

>  <TORSDO>
F 22

>  <BEGIN_>
RES LYS A 131

$$$$
ligand_90_pose_13_2HRL.pdbqt
 OpenBabel07062320523D

  6  5  0  0  0  0  0  0  0  0999 V2000
   33.1930   34.6630    9.2900 C   0  0  0  0  0  0  0  0  0  0  0  0
   32.0600   35.3600   10.0340 C   0  0  0  0  0  0  0  0  0  0  0  0
   32.5010   36.0370   11.3060 C   0  0  0  0  0  0  0  0  0  0  0  0
   31.8970   37.4290   11.4100 C   0  0  0  0  0  0  0  0  0  0  0  0
   30.5480   37.3740   12.1010 C   0  0  0  0  0  0  0  0  0  0  0  0
   30.6760   37.6800   13.5530 N   0  0  0  0  0  0  0  0  0  0  0  0
  1  2  1  0  0  0  0
  2  3  1  0  0  0  0
  3  4  1  0  0  0  0
  4  5  1  0  0  0  0
  5  6  1  0  0  0  0
M  END
>  <EGIN_R>
ES LYS A 135

>  <REMARK>
  4 active torsions:
  status: ('A' for Active; 'I' for Inactive)
    5  A    between atoms: CA   and  CB  
    6  A    between atoms: CB   and  CG  
    7  A    between atoms: CG   and  CD  
    8  A    between atoms: CD   and  CE  

$$$$
