ligand_58_pose_16_2HRL.pdbqt
 OpenBabel07062320523D

 56 58  0  0  1  0  0  0  0  0999 V2000
   27.4670   31.5810   17.2480 N   0  0  0  0  0  0  0  0  0  0  0  0
   26.5730   31.3040   16.1910 C   0  0  0  0  0  0  0  0  0  0  0  0
   26.9240   30.5530   15.2500 O   0  0  0  0  0  0  0  0  0  0  0  0
   27.1470   32.2100   18.0120 H   0  0  0  0  0  0  0  0  0  0  0  0
   28.7810   31.0220   17.2850 C   0  0  0  0  0  0  0  0  0  0  0  0
   29.7730   32.1210   17.6680 C   0  0  2  0  0  0  0  0  0  0  0  0
   30.3590   32.6160   16.3560 C   0  0  2  0  0  0  0  0  0  0  0  0
   29.7850   33.9120   15.8580 C   0  0  2  0  0  0  0  0  0  0  0  0
   31.5640   34.6770   14.5190 C   0  0  2  0  0  0  0  0  0  0  0  0
   31.8870   35.7660   15.5170 C   0  0  0  0  0  0  0  0  0  0  0  0
   30.3260   34.1370   14.6070 O   0  0  0  0  0  0  0  0  0  0  0  0
   31.4130   35.4470   16.9040 C   0  0  1  0  0  0  0  0  0  0  0  0
   29.9760   35.0310   16.8020 C   0  0  1  0  0  0  0  0  0  0  0  0
   32.5040   33.6700   14.7490 O   0  0  0  0  0  0  0  0  0  0  0  0
   32.9590   33.5010   13.8760 H   0  0  0  0  0  0  0  0  0  0  0  0
   31.8420   35.2090   13.1350 C   0  0  0  0  0  0  0  0  0  0  0  0
   32.3380   36.3260   12.9600 O   0  0  0  0  0  0  0  0  0  0  0  0
   31.5290   34.4140   12.0580 O   0  0  0  0  0  0  0  0  0  0  0  0
   31.1250   33.4850   12.2250 H   0  0  0  0  0  0  0  0  0  0  0  0
   32.2440   34.5060   17.4410 O   0  0  0  0  0  0  0  0  0  0  0  0
   33.1950   34.6740   17.1980 H   0  0  0  0  0  0  0  0  0  0  0  0
   29.2170   36.2230   16.3730 N   0  0  0  0  0  0  0  0  0  0  0  0
   28.4880   37.0130   17.2790 C   0  0  0  0  0  0  0  0  0  0  0  0
   29.2310   36.4710   15.3610 H   0  0  0  0  0  0  0  0  0  0  0  0
   27.7370   38.2050   16.8040 C   0  0  0  0  0  0  0  0  0  0  0  0
   28.4620   36.7220   18.5060 O   0  0  0  0  0  0  0  0  0  0  0  0
   30.0000   31.5930   15.4030 O   0  0  0  0  0  0  0  0  0  0  0  0
   30.5480   31.6560   14.6060 H   0  0  0  0  0  0  0  0  0  0  0  0
   30.7190   31.4970   18.4680 O   0  0  0  0  0  0  0  0  0  0  0  0
   31.6350   31.6130   18.1470 H   0  0  0  0  0  0  0  0  0  0  0  0
   25.2930   31.8420   16.1530 O   0  0  0  0  0  0  0  0  0  0  0  0
   25.1420   33.2350   16.1820 C   0  0  0  0  0  0  0  0  0  0  0  0
   25.4160   33.7780   14.8260 C   0  0  0  0  0  0  0  0  0  0  0  0
   26.5920   34.4280   14.4410 C   0  0  0  0  0  0  0  0  0  0  0  0
   24.6560   33.7840   13.7180 N   0  0  0  0  0  0  0  0  0  0  0  0
   26.4900   34.7840   13.1580 N   0  0  0  0  0  0  0  0  0  0  0  0
   25.3170   34.3890   12.7380 N   0  0  0  0  0  0  0  0  0  0  0  0
   27.4720   35.4820   12.3420 C   0  0  0  0  0  0  0  0  0  0  0  0
   27.2660   35.2280   10.9160 C   0  0  0  0  0  0  0  0  0  0  0  0
   26.6270   36.1520   10.0810 C   0  0  0  0  0  0  0  0  0  0  0  0
   27.7260   34.0560   10.3500 C   0  0  0  0  0  0  0  0  0  0  0  0
   26.4620   35.8940    8.7380 C   0  0  0  0  0  0  0  0  0  0  0  0
   27.5480   33.8220    9.0010 C   0  0  0  0  0  0  0  0  0  0  0  0
   26.9190   34.7230    8.1680 C   0  0  0  0  0  0  0  0  0  0  0  0
   27.6680   36.8810   12.7320 C   0  0  0  0  0  0  0  0  0  0  0  0
   28.9650   37.4090   12.8620 C   0  0  0  0  0  0  0  0  0  0  0  0
   26.5910   37.7000   12.9700 C   0  0  0  0  0  0  0  0  0  0  0  0
   29.1530   38.7190   13.2180 C   0  0  0  0  0  0  0  0  0  0  0  0
   26.7960   39.0350   13.3340 C   0  0  0  0  0  0  0  0  0  0  0  0
   28.0710   39.5370   13.4560 C   0  0  0  0  0  0  0  0  0  0  0  0
   29.8670   25.5550   16.9770 C   0  0  0  0  0  0  0  0  0  0  0  0
   28.3450   25.7220   17.0260 C   0  0  0  0  0  0  0  0  0  0  0  0
   27.6010   24.4010   16.9070 C   0  0  0  0  0  0  0  0  0  0  0  0
   26.1560   24.5260   17.3010 C   0  0  0  0  0  0  0  0  0  0  0  0
   25.9540   23.9350   18.6920 C   0  0  0  0  0  0  0  0  0  0  0  0
   24.6430   23.2500   18.7800 N   0  0  0  0  0  0  0  0  0  0  0  0
  1  5  1  0  0  0  0
  1  4  1  0  0  0  0
  2  1  1  0  0  0  0
  3  2  2  0  0  0  0
  6  5  1  6  0  0  0
  6 29  1  0  0  0  0
  7 27  1  6  0  0  0
  7  6  1  0  0  0  0
  8  7  1  1  0  0  0
  8 13  1  0  0  0  0
  9 16  1  6  0  0  0
  9 11  1  0  0  0  0
  9 14  1  0  0  0  0
  9 10  1  0  0  0  0
 10 12  1  0  0  0  0
 11  8  1  0  0  0  0
 12 20  1  6  0  0  0
 13 22  1  6  0  0  0
 13 12  1  0  0  0  0
 15 14  1  0  0  0  0
 17 16  2  0  0  0  0
 18 19  1  0  0  0  0
 18 16  1  0  0  0  0
 21 20  1  0  0  0  0
 22 23  1  0  0  0  0
 23 26  2  0  0  0  0
 24 22  1  0  0  0  0
 25 23  1  0  0  0  0
 28 27  1  0  0  0  0
 30 29  1  0  0  0  0
 31 32  1  0  0  0  0
 31  2  1  0  0  0  0
 33 32  1  0  0  0  0
 34 33  2  0  0  0  0
 35 33  1  0  0  0  0
 36 34  1  0  0  0  0
 37 36  1  0  0  0  0
 37 35  2  0  0  0  0
 38 45  1  0  0  0  0
 38 36  1  0  0  0  0
 39 38  1  0  0  0  0
 40 39  2  0  0  0  0
 41 39  1  0  0  0  0
 42 40  1  0  0  0  0
 43 41  2  0  0  0  0
 44 42  2  0  0  0  0
 44 43  1  0  0  0  0
 45 46  2  0  0  0  0
 45 47  1  0  0  0  0
 46 48  1  0  0  0  0
 47 49  2  0  0  0  0
 48 50  2  0  0  0  0
 49 50  1  0  0  0  0
 51 52  1  0  0  0  0
 53 52  1  0  0  0  0
 53 54  1  0  0  0  0
 54 55  1  0  0  0  0
 55 56  1  0  0  0  0
M  END
>  <REMARK>
 VINA RESULT:    -5.449      2.419      5.325
 INTER + INTRA:         -15.558
 INTER:                  -9.348
 INTRA:                  -6.209
 UNBOUND:                -5.490
 SMILES CC(=O)N[C@@H]1[C@@H](O)C[C@](O)(C(=O)O)O[C@H]1C(O)[C@H](O)CNC(=O)OCc1cn(C(c2ccccc2)c2ccccc2)nn1
 SMILES IDX 21 1 22 2 23 3 20 5 18 6 16 7 15 8 9 9 8 10 14 11 6 12 5 13
 SMILES IDX 10 14 11 16 12 17 13 18 7 20 4 22 2 23 1 25 3 26 17 27 19 29
 SMILES IDX 24 31 25 32 26 33 27 34 43 35 28 36 42 37 29 38 30 39 31 40
 SMILES IDX 35 41 32 42 34 43 33 44 36 45 37 46 41 47 38 48 40 49 39 50
 H PARENT 21 4 10 15 13 19 7 21 4 24 17 28 19 30
 Flexibility Score: inf
  4 active torsions:
  status: ('A' for Active; 'I' for Inactive)
    1  A    between atoms: CA   and  CB  
    2  A    between atoms: CB   and  CG  
    3  A    between atoms: CG   and  CD  
    4  A    between atoms: CD   and  CE  

>  <TORSDO>
F 17

>  <BEGIN_>
RES LYS A 131

$$$$
ligand_58_pose_16_2HRL.pdbqt
 OpenBabel07062320523D

  6  5  0  0  0  0  0  0  0  0999 V2000
   33.1930   34.6630    9.2900 C   0  0  0  0  0  0  0  0  0  0  0  0
   32.0600   35.3600   10.0340 C   0  0  0  0  0  0  0  0  0  0  0  0
   30.8080   35.5220    9.2110 C   0  0  0  0  0  0  0  0  0  0  0  0
   30.2680   36.9390    9.3280 C   0  0  0  0  0  0  0  0  0  0  0  0
   31.3110   37.8580    9.9360 C   0  0  0  0  0  0  0  0  0  0  0  0
   31.6670   38.9590    8.9990 N   0  0  0  0  0  0  0  0  0  0  0  0
  1  2  1  0  0  0  0
  3  4  1  0  0  0  0
  3  2  1  0  0  0  0
  4  5  1  0  0  0  0
  6  5  1  0  0  0  0
M  END
>  <EGIN_R>
ES LYS A 135

>  <REMARK>
  4 active torsions:
  status: ('A' for Active; 'I' for Inactive)
    5  A    between atoms: CA   and  CB  
    6  A    between atoms: CB   and  CG  
    7  A    between atoms: CG   and  CD  
    8  A    between atoms: CD   and  CE  

$$$$
