ligand_63_pose_19_2HRL.pdbqt
 OpenBabel07062320523D

 51 52  0  0  1  0  0  0  0  0999 V2000
   23.4660   35.9800   13.1210 N   0  0  0  0  0  0  0  0  0  0  0  0
   24.1430   37.1760   12.7070 C   0  0  0  0  0  0  0  0  0  0  0  0
   23.6740   37.9170   11.8370 O   0  0  0  0  0  0  0  0  0  0  0  0
   23.9880   35.4580   13.9020 H   0  0  0  0  0  0  0  0  0  0  0  0
   22.2490   35.5400   12.6300 C   0  0  0  0  0  0  0  0  0  0  0  0
   22.2550   34.3880   11.5940 C   0  0  2  0  0  0  0  0  0  0  0  0
   22.2180   35.0820   10.2870 C   0  0  1  0  0  0  0  0  0  0  0  0
   21.0510   35.9300    9.9330 C   0  0  2  0  0  0  0  0  0  0  0  0
   19.4820   35.1020    8.3880 C   0  0  2  0  0  0  0  0  0  0  0  0
   18.9480   36.4660    8.0260 C   0  0  0  0  0  0  0  0  0  0  0  0
   19.9530   35.0560    9.7020 O   0  0  0  0  0  0  0  0  0  0  0  0
   19.7720   37.5630    8.7300 C   0  0  1  0  0  0  0  0  0  0  0  0
   21.1730   36.9180    8.8640 C   0  0  1  0  0  0  0  0  0  0  0  0
   20.4010   34.6730    7.4430 O   0  0  0  0  0  0  0  0  0  0  0  0
   20.0550   34.5980    6.5410 H   0  0  0  0  0  0  0  0  0  0  0  0
   18.3120   34.2010    8.3970 C   0  0  0  0  0  0  0  0  0  0  0  0
   18.0780   33.2230    8.9940 O   0  0  0  0  0  0  0  0  0  0  0  0
   17.2590   34.6600    7.4640 O   0  0  0  0  0  0  0  0  0  0  0  0
   16.3980   34.1080    7.4720 H   0  0  0  0  0  0  0  0  0  0  0  0
   19.8130   38.7110    7.9810 O   0  0  0  0  0  0  0  0  0  0  0  0
   19.5290   38.5570    7.0620 H   0  0  0  0  0  0  0  0  0  0  0  0
   22.1100   38.0110    9.1640 N   0  0  0  0  0  0  0  0  0  0  0  0
   23.1770   38.2380    8.2810 C   0  0  0  0  0  0  0  0  0  0  0  0
   21.9660   38.5830    9.9740 H   0  0  0  0  0  0  0  0  0  0  0  0
   24.2380   39.1720    8.1930 C   0  0  0  0  0  0  0  0  0  0  0  0
   23.1170   37.3170    7.2770 O   0  0  0  0  0  0  0  0  0  0  0  0
   23.4540   35.5260    9.9160 O   0  0  0  0  0  0  0  0  0  0  0  0
   23.8120   36.2220   10.5280 H   0  0  0  0  0  0  0  0  0  0  0  0
   21.2040   33.5880   11.9410 O   0  0  0  0  0  0  0  0  0  0  0  0
   20.8510   33.1360   11.1340 H   0  0  0  0  0  0  0  0  0  0  0  0
   25.3570   37.5030   13.3150 O   0  0  0  0  0  0  0  0  0  0  0  0
   26.4330   36.5430   13.3860 C   0  0  0  0  0  0  0  0  0  0  0  0
   26.4920   36.0050   11.9780 C   0  0  0  0  0  0  0  0  0  0  0  0
   27.0480   36.6190   10.8950 C   0  0  0  0  0  0  0  0  0  0  0  0
   26.0760   34.7930   11.6090 N   0  0  0  0  0  0  0  0  0  0  0  0
   26.9510   35.7170    9.8710 N   0  0  0  0  0  0  0  0  0  0  0  0
   26.3530   34.6170   10.3490 N   0  0  0  0  0  0  0  0  0  0  0  0
   27.4070   35.8750    8.5650 C   0  0  0  0  0  0  0  0  0  0  0  0
   26.6340   36.5630    7.6250 N   0  0  0  0  0  0  0  0  0  0  0  0
   28.5540   35.3190    8.0380 C   0  0  0  0  0  0  0  0  0  0  0  0
   27.0080   36.6290    6.4170 C   0  0  0  0  0  0  0  0  0  0  0  0
   28.9290   35.3940    6.7720 C   0  0  0  0  0  0  0  0  0  0  0  0
   28.1600   36.0880    5.7930 C   0  0  0  0  0  0  0  0  0  0  0  0
   29.4190   34.4920    8.9650 C   0  0  0  0  0  0  0  0  0  0  0  0
   29.9960   33.9530    9.5950 N   0  0  0  0  0  0  0  0  0  0  0  0
   29.8670   25.5550   16.9770 C   0  0  0  0  0  0  0  0  0  0  0  0
   28.3450   25.7220   17.0260 C   0  0  0  0  0  0  0  0  0  0  0  0
   27.6010   24.4060   16.8640 C   0  0  0  0  0  0  0  0  0  0  0  0
   26.5740   24.1990   17.9430 C   0  0  0  0  0  0  0  0  0  0  0  0
   26.4060   25.4890   18.7390 C   0  0  0  0  0  0  0  0  0  0  0  0
   24.9860   25.9160   18.7410 N   0  0  0  0  0  0  0  0  0  0  0  0
  1  4  1  0  0  0  0
  2  1  1  0  0  0  0
  2 31  1  0  0  0  0
  3  2  2  0  0  0  0
  5  1  1  0  0  0  0
  6 29  1  0  0  0  0
  6  5  1  1  0  0  0
  7 27  1  1  0  0  0
  7  6  1  0  0  0  0
  8  7  1  6  0  0  0
  9 14  1  6  0  0  0
  9 16  1  0  0  0  0
  9 11  1  0  0  0  0
 10  9  1  0  0  0  0
 10 12  1  0  0  0  0
 11  8  1  0  0  0  0
 12 20  1  6  0  0  0
 12 13  1  0  0  0  0
 13 22  1  1  0  0  0
 13  8  1  0  0  0  0
 15 14  1  0  0  0  0
 16 17  2  0  0  0  0
 18 19  1  0  0  0  0
 18 16  1  0  0  0  0
 21 20  1  0  0  0  0
 22 24  1  0  0  0  0
 23 22  1  0  0  0  0
 25 23  1  0  0  0  0
 26 23  2  0  0  0  0
 27 28  1  0  0  0  0
 30 29  1  0  0  0  0
 31 32  1  0  0  0  0
 33 32  1  0  0  0  0
 34 33  2  0  0  0  0
 35 33  1  0  0  0  0
 36 37  1  0  0  0  0
 36 34  1  0  0  0  0
 37 35  2  0  0  0  0
 38 36  1  0  0  0  0
 39 38  2  0  0  0  0
 40 38  1  0  0  0  0
 40 44  1  0  0  0  0
 41 39  1  0  0  0  0
 42 40  2  0  0  0  0
 43 41  2  0  0  0  0
 43 42  1  0  0  0  0
 44 45  3  0  0  0  0
 46 47  1  0  0  0  0
 48 47  1  0  0  0  0
 48 49  1  0  0  0  0
 49 50  1  0  0  0  0
 50 51  1  0  0  0  0
M  END
>  <REMARK>
 VINA RESULT:    -3.951      3.108      6.218
 INTER + INTRA:         -14.110
 INTER:                  -8.767
 INTRA:                  -5.343
 UNBOUND:                -7.042
 SMILES CC(=O)N[C@@H]1[C@@H](O)C[C@](O)(C(=O)O)O[C@H]1C(O)[C@H](O)CNC(=O)OCc1cn(-c2ncccc2C#N)nn1
 SMILES IDX 21 1 22 2 23 3 20 5 18 6 16 7 15 8 9 9 8 10 14 11 6 12 5 13
 SMILES IDX 10 14 11 16 12 17 13 18 7 20 4 22 2 23 1 25 3 26 17 27 19 29
 SMILES IDX 24 31 25 32 26 33 27 34 38 35 28 36 37 37 29 38 30 39 34 40
 SMILES IDX 31 41 33 42 32 43 35 44 36 45
 H PARENT 21 4 10 15 13 19 7 21 4 24 17 28 19 30
 Flexibility Score: inf
  4 active torsions:
  status: ('A' for Active; 'I' for Inactive)
    1  A    between atoms: CA   and  CB  
    2  A    between atoms: CB   and  CG  
    3  A    between atoms: CG   and  CD  
    4  A    between atoms: CD   and  CE  

>  <TORSDO>
F 16

>  <BEGIN_>
RES LYS A 131

$$$$
ligand_63_pose_19_2HRL.pdbqt
 OpenBabel07062320523D

  6  5  0  0  0  0  0  0  0  0999 V2000
   33.1930   34.6630    9.2900 C   0  0  0  0  0  0  0  0  0  0  0  0
   32.0600   35.3600   10.0340 C   0  0  0  0  0  0  0  0  0  0  0  0
   32.5020   36.0430   11.3030 C   0  0  0  0  0  0  0  0  0  0  0  0
   31.9360   37.4520   11.3790 C   0  0  0  0  0  0  0  0  0  0  0  0
   31.2940   37.8400   10.0610 C   0  0  0  0  0  0  0  0  0  0  0  0
   32.0260   38.9670    9.4180 N   0  0  0  0  0  0  0  0  0  0  0  0
  1  2  1  0  0  0  0
  2  3  1  0  0  0  0
  3  4  1  0  0  0  0
  5  4  1  0  0  0  0
  6  5  1  0  0  0  0
M  END
>  <EGIN_R>
ES LYS A 135

>  <REMARK>
  4 active torsions:
  status: ('A' for Active; 'I' for Inactive)
    5  A    between atoms: CA   and  CB  
    6  A    between atoms: CB   and  CG  
    7  A    between atoms: CG   and  CD  
    8  A    between atoms: CD   and  CE  

$$$$
