ligand_32_pose_7_2HRL.pdbqt
 OpenBabel07062320523D

 49 49  0  0  1  0  0  0  0  0999 V2000
   29.3980   27.0010   20.3430 N   0  0  0  0  0  0  0  0  0  0  0  0
   28.0940   27.3950   20.7370 C   0  0  0  0  0  0  0  0  0  0  0  0
   27.8250   27.6640   21.9460 O   0  0  0  0  0  0  0  0  0  0  0  0
   29.5790   26.7900   19.3430 H   0  0  0  0  0  0  0  0  0  0  0  0
   30.4760   26.8840   21.2950 C   0  0  0  0  0  0  0  0  0  0  0  0
   31.6500   27.7760   20.9960 C   0  0  2  0  0  0  0  0  0  0  0  0
   31.2150   29.2380   20.8960 C   0  0  1  0  0  0  0  0  0  0  0  0
   32.3550   30.1460   21.3220 C   0  0  2  0  0  0  0  0  0  0  0  0
   34.0710   30.0210   22.9010 C   0  0  2  0  0  0  0  0  0  0  0  0
   34.2350   31.5140   22.8360 C   0  0  0  0  0  0  0  0  0  0  0  0
   33.4310   29.4780   21.8100 O   0  0  0  0  0  0  0  0  0  0  0  0
   33.0800   32.2510   22.2580 C   0  0  1  0  0  0  0  0  0  0  0  0
   31.8940   31.2750   22.2050 C   0  0  1  0  0  0  0  0  0  0  0  0
   33.4510   29.7000   24.1040 O   0  0  0  0  0  0  0  0  0  0  0  0
   33.9110   28.8800   24.4350 H   0  0  0  0  0  0  0  0  0  0  0  0
   35.4350   29.4470   22.9300 C   0  0  0  0  0  0  0  0  0  0  0  0
   36.4770   30.1370   22.9490 O   0  0  0  0  0  0  0  0  0  0  0  0
   35.5870   28.0720   22.9360 O   0  0  0  0  0  0  0  0  0  0  0  0
   36.2490   27.5840   23.5270 H   0  0  0  0  0  0  0  0  0  0  0  0
   32.7400   33.3920   22.9780 O   0  0  0  0  0  0  0  0  0  0  0  0
   31.7540   33.5300   23.0210 H   0  0  0  0  0  0  0  0  0  0  0  0
   30.7220   31.9360   21.6650 N   0  0  0  0  0  0  0  0  0  0  0  0
   30.8370   32.8040   20.5430 C   0  0  0  0  0  0  0  0  0  0  0  0
   29.7670   31.8050   22.0730 H   0  0  0  0  0  0  0  0  0  0  0  0
   29.6520   33.5100   19.9500 C   0  0  0  0  0  0  0  0  0  0  0  0
   31.9730   33.0040   20.0050 O   0  0  0  0  0  0  0  0  0  0  0  0
   30.8960   29.5010   19.5670 O   0  0  0  0  0  0  0  0  0  0  0  0
   31.6260   29.2400   18.9420 H   0  0  0  0  0  0  0  0  0  0  0  0
   32.1930   27.3470   19.7820 O   0  0  0  0  0  0  0  0  0  0  0  0
   33.1020   27.7270   19.6900 H   0  0  0  0  0  0  0  0  0  0  0  0
   27.1050   27.4870   19.7840 O   0  0  0  0  0  0  0  0  0  0  0  0
   26.5390   28.7150   19.3620 C   0  0  0  0  0  0  0  0  0  0  0  0
   27.2100   29.1870   18.1040 C   0  0  0  0  0  0  0  0  0  0  0  0
   27.9130   30.3500   17.9290 C   0  0  0  0  0  0  0  0  0  0  0  0
   27.2120   28.5260   16.9300 N   0  0  0  0  0  0  0  0  0  0  0  0
   28.3340   30.3710   16.6410 N   0  0  0  0  0  0  0  0  0  0  0  0
   27.8950   29.2590   16.0660 N   0  0  0  0  0  0  0  0  0  0  0  0
   29.1180   31.4400   16.0610 C   0  0  0  0  0  0  0  0  0  0  0  0
   30.4310   31.5250   16.8350 C   0  0  0  0  0  0  0  0  0  0  0  0
   31.2790   32.5310   16.1270 C   0  0  0  0  0  0  0  0  0  0  0  0
   31.6800   33.5740   16.6600 O   0  0  0  0  0  0  0  0  0  0  0  0
   31.6110   32.2430   14.8030 O   0  0  0  0  0  0  0  0  0  0  0  0
   31.1000   32.6930   14.0460 H   0  0  0  0  0  0  0  0  0  0  0  0
   29.8670   25.5550   16.9770 C   0  0  0  0  0  0  0  0  0  0  0  0
   28.3450   25.7220   17.0260 C   0  0  0  0  0  0  0  0  0  0  0  0
   27.6030   24.3960   16.9680 C   0  0  0  0  0  0  0  0  0  0  0  0
   26.2010   24.5070   17.5010 C   0  0  0  0  0  0  0  0  0  0  0  0
   25.8000   23.1890   18.1550 C   0  0  0  0  0  0  0  0  0  0  0  0
   24.6730   22.5670   17.4210 N   0  0  0  0  0  0  0  0  0  0  0  0
  1  2  1  0  0  0  0
  1  5  1  0  0  0  0
  2  3  2  0  0  0  0
  4  1  1  0  0  0  0
  6  5  1  6  0  0  0
  7 27  1  6  0  0  0
  7  6  1  0  0  0  0
  8  7  1  1  0  0  0
  8 11  1  0  0  0  0
  8 13  1  0  0  0  0
  9 16  1  1  0  0  0
  9 14  1  0  0  0  0
 10  9  1  0  0  0  0
 11  9  1  0  0  0  0
 12 10  1  0  0  0  0
 12 20  1  1  0  0  0
 13 22  1  6  0  0  0
 13 12  1  0  0  0  0
 14 15  1  0  0  0  0
 16 18  1  0  0  0  0
 16 17  2  0  0  0  0
 18 19  1  0  0  0  0
 20 21  1  0  0  0  0
 22 24  1  0  0  0  0
 23 22  1  0  0  0  0
 25 23  1  0  0  0  0
 26 23  2  0  0  0  0
 28 27  1  0  0  0  0
 29  6  1  0  0  0  0
 30 29  1  0  0  0  0
 31  2  1  0  0  0  0
 32 31  1  0  0  0  0
 33 32  1  0  0  0  0
 34 33  2  0  0  0  0
 35 33  1  0  0  0  0
 36 34  1  0  0  0  0
 37 36  1  0  0  0  0
 37 35  2  0  0  0  0
 38 36  1  0  0  0  0
 38 39  1  0  0  0  0
 40 41  2  0  0  0  0
 40 39  1  0  0  0  0
 42 40  1  0  0  0  0
 43 42  1  0  0  0  0
 44 45  1  0  0  0  0
 46 45  1  0  0  0  0
 46 47  1  0  0  0  0
 47 48  1  0  0  0  0
 49 48  1  0  0  0  0
M  END
>  <REMARK>
 VINA RESULT:    -4.411      2.026      4.980
 INTER + INTRA:         -13.923
 INTER:                  -9.211
 INTRA:                  -4.712
 UNBOUND:                -5.644
 SMILES CC(=O)N[C@@H]1[C@@H](O)C[C@](O)(C(=O)O)O[C@H]1C(O)[C@H](O)CNC(=O)OCc1cn(CCC(=O)O)nn1
 SMILES IDX 21 1 22 2 23 3 20 5 18 6 16 7 15 8 9 9 8 10 14 11 6 12 5 13
 SMILES IDX 10 14 11 16 12 17 13 18 7 20 4 22 2 23 1 25 3 26 17 27 19 29
 SMILES IDX 24 31 25 32 26 33 27 34 35 35 28 36 34 37 29 38 30 39 31 40
 SMILES IDX 32 41 33 42
 H PARENT 21 4 10 15 13 19 7 21 4 24 17 28 19 30 33 43
 Flexibility Score: inf
  4 active torsions:
  status: ('A' for Active; 'I' for Inactive)
    1  A    between atoms: CA   and  CB  
    2  A    between atoms: CB   and  CG  
    3  A    between atoms: CG   and  CD  
    4  A    between atoms: CD   and  CE  

>  <TORSDO>
F 18

>  <BEGIN_>
RES LYS A 131

$$$$
ligand_32_pose_7_2HRL.pdbqt
 OpenBabel07062320523D

  6  5  0  0  0  0  0  0  0  0999 V2000
   33.1930   34.6630    9.2900 C   0  0  0  0  0  0  0  0  0  0  0  0
   32.0600   35.3600   10.0340 C   0  0  0  0  0  0  0  0  0  0  0  0
   30.7280   34.6700    9.8870 C   0  0  0  0  0  0  0  0  0  0  0  0
   30.3470   34.5470    8.4200 C   0  0  0  0  0  0  0  0  0  0  0  0
   28.8400   34.5920    8.2560 C   0  0  0  0  0  0  0  0  0  0  0  0
   28.1570   33.9000    9.3850 N   0  0  0  0  0  0  0  0  0  0  0  0
  1  2  1  0  0  0  0
  3  2  1  0  0  0  0
  4  3  1  0  0  0  0
  5  4  1  0  0  0  0
  5  6  1  0  0  0  0
M  END
>  <EGIN_R>
ES LYS A 135

>  <REMARK>
  4 active torsions:
  status: ('A' for Active; 'I' for Inactive)
    5  A    between atoms: CA   and  CB  
    6  A    between atoms: CB   and  CG  
    7  A    between atoms: CG   and  CD  
    8  A    between atoms: CD   and  CE  

$$$$
