ligand_78_pose_4_2HRL.pdbqt
 OpenBabel07062320523D

 53 54  0  0  1  0  0  0  0  0999 V2000
   26.1870   37.1410   11.4590 N   0  0  0  0  0  0  0  0  0  0  0  0
   26.1060   35.7970   11.9740 C   0  0  0  0  0  0  0  0  0  0  0  0
   25.9160   34.8620   11.1830 O   0  0  0  0  0  0  0  0  0  0  0  0
   26.3530   37.8630   12.1850 H   0  0  0  0  0  0  0  0  0  0  0  0
   26.0450   37.3930   10.0360 C   0  0  0  0  0  0  0  0  0  0  0  0
   24.6540   37.7760    9.6560 C   0  0  2  0  0  0  0  0  0  0  0  0
   23.9260   36.7460    8.8600 C   0  0  2  0  0  0  0  0  0  0  0  0
   22.8550   35.9880    9.5560 C   0  0  2  0  0  0  0  0  0  0  0  0
   21.2020   36.4770    7.9760 C   0  0  2  0  0  0  0  0  0  0  0  0
   20.8850   37.7280    8.7260 C   0  0  0  0  0  0  0  0  0  0  0  0
   21.9140   35.5140    8.6440 O   0  0  0  0  0  0  0  0  0  0  0  0
   21.1850   37.7360   10.1740 C   0  0  1  0  0  0  0  0  0  0  0  0
   22.0900   36.6320   10.6430 C   0  0  1  0  0  0  0  0  0  0  0  0
   21.9020   36.7520    6.8000 O   0  0  0  0  0  0  0  0  0  0  0  0
   22.8390   36.9660    6.9350 H   0  0  0  0  0  0  0  0  0  0  0  0
   19.9260   35.8320    7.5670 C   0  0  0  0  0  0  0  0  0  0  0  0
   18.8760   36.5090    7.5550 O   0  0  0  0  0  0  0  0  0  0  0  0
   19.8360   34.4970    7.1930 O   0  0  0  0  0  0  0  0  0  0  0  0
   20.6460   33.8670    7.2850 H   0  0  0  0  0  0  0  0  0  0  0  0
   21.6900   38.9840   10.5310 O   0  0  0  0  0  0  0  0  0  0  0  0
   21.8430   39.0740   11.4900 H   0  0  0  0  0  0  0  0  0  0  0  0
   21.3380   35.5900   11.3500 N   0  0  0  0  0  0  0  0  0  0  0  0
   21.7450   35.1000   12.6090 C   0  0  0  0  0  0  0  0  0  0  0  0
   20.4790   35.1930   10.9220 H   0  0  0  0  0  0  0  0  0  0  0  0
   20.9900   34.0400   13.3420 C   0  0  0  0  0  0  0  0  0  0  0  0
   22.7870   35.5930   13.1090 O   0  0  0  0  0  0  0  0  0  0  0  0
   24.9510   35.7170    8.6790 O   0  0  0  0  0  0  0  0  0  0  0  0
   25.4120   35.9520    7.8540 H   0  0  0  0  0  0  0  0  0  0  0  0
   24.4940   39.0590    9.1720 O   0  0  0  0  0  0  0  0  0  0  0  0
   23.5910   39.2160    8.8050 H   0  0  0  0  0  0  0  0  0  0  0  0
   26.2390   35.5380   13.3250 O   0  0  0  0  0  0  0  0  0  0  0  0
   27.0690   34.5070   13.8280 C   0  0  0  0  0  0  0  0  0  0  0  0
   28.4940   34.8560   13.7300 C   0  0  0  0  0  0  0  0  0  0  0  0
   29.3000   35.5480   14.5890 C   0  0  0  0  0  0  0  0  0  0  0  0
   29.2850   34.5190   12.6900 N   0  0  0  0  0  0  0  0  0  0  0  0
   30.5440   35.6100   14.0510 N   0  0  0  0  0  0  0  0  0  0  0  0
   30.5030   34.9740   12.8920 N   0  0  0  0  0  0  0  0  0  0  0  0
   31.6710   36.2600   14.6650 C   0  0  0  0  0  0  0  0  0  0  0  0
   32.8020   35.0480   15.3320 S   0  0  0  0  0  0  0  0  0  0  0  0
   33.6870   35.7440   16.3340 O   0  0  0  0  0  0  0  0  0  0  0  0
   33.6180   34.5260   14.2100 O   0  0  0  0  0  0  0  0  0  0  0  0
   31.8680   33.7800   16.1060 C   0  0  0  0  0  0  0  0  0  0  0  0
   31.5020   33.9600   17.4350 C   0  0  0  0  0  0  0  0  0  0  0  0
   31.5170   32.6510   15.4060 C   0  0  0  0  0  0  0  0  0  0  0  0
   30.7710   32.9660   18.0400 C   0  0  0  0  0  0  0  0  0  0  0  0
   30.7830   31.6840   16.0590 C   0  0  0  0  0  0  0  0  0  0  0  0
   30.3930   31.8050   17.3700 C   0  0  0  0  0  0  0  0  0  0  0  0
   29.8670   25.5550   16.9770 C   0  0  0  0  0  0  0  0  0  0  0  0
   28.3450   25.7220   17.0260 C   0  0  0  0  0  0  0  0  0  0  0  0
   27.6020   24.4000   16.9140 C   0  0  0  0  0  0  0  0  0  0  0  0
   26.5780   24.2320   18.0030 C   0  0  0  0  0  0  0  0  0  0  0  0
   25.9940   25.5930   18.3660 C   0  0  0  0  0  0  0  0  0  0  0  0
   24.5790   25.6830   17.9340 N   0  0  0  0  0  0  0  0  0  0  0  0
  1  2  1  0  0  0  0
  1  4  1  0  0  0  0
  2 31  1  0  0  0  0
  3  2  2  0  0  0  0
  5  1  1  0  0  0  0
  6  5  1  6  0  0  0
  7 27  1  1  0  0  0
  7  6  1  0  0  0  0
  8  7  1  6  0  0  0
  8 13  1  0  0  0  0
  9 14  1  6  0  0  0
  9 11  1  0  0  0  0
  9 10  1  0  0  0  0
 10 12  1  0  0  0  0
 11  8  1  0  0  0  0
 12 20  1  6  0  0  0
 12 13  1  0  0  0  0
 13 22  1  6  0  0  0
 14 15  1  0  0  0  0
 16  9  1  0  0  0  0
 17 16  2  0  0  0  0
 18 19  1  0  0  0  0
 18 16  1  0  0  0  0
 20 21  1  0  0  0  0
 22 23  1  0  0  0  0
 23 26  2  0  0  0  0
 23 25  1  0  0  0  0
 24 22  1  0  0  0  0
 28 27  1  0  0  0  0
 29  6  1  0  0  0  0
 30 29  1  0  0  0  0
 31 32  1  0  0  0  0
 33 32  1  0  0  0  0
 33 34  2  0  0  0  0
 35 37  2  0  0  0  0
 35 33  1  0  0  0  0
 36 34  1  0  0  0  0
 36 38  1  0  0  0  0
 37 36  1  0  0  0  0
 38 39  1  0  0  0  0
 39 42  1  0  0  0  0
 39 40  2  0  0  0  0
 41 39  2  0  0  0  0
 42 43  2  0  0  0  0
 43 45  1  0  0  0  0
 44 46  2  0  0  0  0
 44 42  1  0  0  0  0
 46 47  1  0  0  0  0
 47 45  2  0  0  0  0
 48 49  1  0  0  0  0
 50 49  1  0  0  0  0
 50 51  1  0  0  0  0
 51 52  1  0  0  0  0
 53 52  1  0  0  0  0
M  END
>  <REMARK>
 VINA RESULT:    -5.582      6.094      9.826
 INTER + INTRA:         -15.325
 INTER:                 -10.102
 INTRA:                  -5.223
 UNBOUND:                -5.011
 SMILES CC(=O)N[C@@H]1[C@@H](O)C[C@](O)(C(=O)O)O[C@H]1C(O)[C@H](O)CNC(=O)OCc1cn(CS(=O)(=O)c2ccccc2)nn1
 SMILES IDX 21 1 22 2 23 3 20 5 18 6 16 7 15 8 9 9 8 10 14 11 6 12 5 13
 SMILES IDX 10 14 11 16 12 17 13 18 7 20 4 22 2 23 1 25 3 26 17 27 19 29
 SMILES IDX 24 31 25 32 26 33 27 34 40 35 28 36 39 37 29 38 30 39 31 40
 SMILES IDX 32 41 33 42 34 43 38 44 35 45 37 46 36 47
 H PARENT 21 4 10 15 13 19 7 21 4 24 17 28 19 30
 Flexibility Score: inf
  4 active torsions:
  status: ('A' for Active; 'I' for Inactive)
    1  A    between atoms: CA   and  CB  
    2  A    between atoms: CB   and  CG  
    3  A    between atoms: CG   and  CD  
    4  A    between atoms: CD   and  CE  

>  <TORSDO>
F 17

>  <BEGIN_>
RES LYS A 131

$$$$
ligand_78_pose_4_2HRL.pdbqt
 OpenBabel07062320523D

  6  5  0  0  0  0  0  0  0  0999 V2000
   33.1930   34.6630    9.2900 C   0  0  0  0  0  0  0  0  0  0  0  0
   32.0600   35.3600   10.0340 C   0  0  0  0  0  0  0  0  0  0  0  0
   30.7810   35.4440    9.2420 C   0  0  0  0  0  0  0  0  0  0  0  0
   30.1800   34.0610    9.0440 C   0  0  0  0  0  0  0  0  0  0  0  0
   28.6650   34.1300    9.0630 C   0  0  0  0  0  0  0  0  0  0  0  0
   28.1480   34.8920    7.8920 N   0  0  0  0  0  0  0  0  0  0  0  0
  1  2  1  0  0  0  0
  3  2  1  0  0  0  0
  4  5  1  0  0  0  0
  4  3  1  0  0  0  0
  6  5  1  0  0  0  0
M  END
>  <EGIN_R>
ES LYS A 135

>  <REMARK>
  4 active torsions:
  status: ('A' for Active; 'I' for Inactive)
    5  A    between atoms: CA   and  CB  
    6  A    between atoms: CB   and  CG  
    7  A    between atoms: CG   and  CD  
    8  A    between atoms: CD   and  CE  

$$$$
