ligand_74_pose_16_2HRL.pdbqt
 OpenBabel07062320523D

 54 54  0  0  1  0  0  0  0  0999 V2000
   26.2130   38.0020   13.9710 O   0  0  0  0  0  0  0  0  0  0  0  0
   26.6530   38.9830   13.0640 C   0  0  0  0  0  0  0  0  0  0  0  0
   28.0200   39.1050   12.7190 N   0  0  0  0  0  0  0  0  0  0  0  0
   28.6840   38.4090   13.1840 H   0  0  0  0  0  0  0  0  0  0  0  0
   25.7920   39.7500   12.5710 O   0  0  0  0  0  0  0  0  0  0  0  0
   28.5270   40.0960   11.7980 C   0  0  0  0  0  0  0  0  0  0  0  0
   29.0070   39.4250   10.5580 C   0  0  2  0  0  0  0  0  0  0  0  0
   27.9060   38.7300    9.7740 C   0  0  2  0  0  0  0  0  0  0  0  0
   28.4180   38.1600    8.4880 C   0  0  2  0  0  0  0  0  0  0  0  0
   29.3090   39.5010    6.8150 C   0  0  2  0  0  0  0  0  0  0  0  0
   28.7440   38.6660    5.6920 C   0  0  0  0  0  0  0  0  0  0  0  0
   29.5240   38.7660    7.9700 O   0  0  0  0  0  0  0  0  0  0  0  0
   27.9860   37.4630    6.2120 C   0  0  1  0  0  0  0  0  0  0  0  0
   27.2860   37.9540    7.4870 C   0  0  1  0  0  0  0  0  0  0  0  0
   28.5130   40.6260    7.0510 O   0  0  0  0  0  0  0  0  0  0  0  0
   27.9420   40.5390    7.8370 H   0  0  0  0  0  0  0  0  0  0  0  0
   30.6360   40.0010    6.3670 C   0  0  0  0  0  0  0  0  0  0  0  0
   31.1050   41.0520    6.9000 O   0  0  0  0  0  0  0  0  0  0  0  0
   31.3970   39.3830    5.3970 O   0  0  0  0  0  0  0  0  0  0  0  0
   31.2520   39.6400    4.4080 H   0  0  0  0  0  0  0  0  0  0  0  0
   27.1030   36.9410    5.3010 O   0  0  0  0  0  0  0  0  0  0  0  0
   27.6180   36.2790    4.7440 H   0  0  0  0  0  0  0  0  0  0  0  0
   26.3880   36.9480    7.9980 N   0  0  0  0  0  0  0  0  0  0  0  0
   24.9970   37.2280    8.1630 C   0  0  0  0  0  0  0  0  0  0  0  0
   26.6980   35.9830    8.2700 H   0  0  0  0  0  0  0  0  0  0  0  0
   24.0520   36.2220    8.6830 C   0  0  0  0  0  0  0  0  0  0  0  0
   24.5570   38.3650    7.8570 O   0  0  0  0  0  0  0  0  0  0  0  0
   26.8100   39.5500    9.6380 O   0  0  0  0  0  0  0  0  0  0  0  0
   26.4350   39.7320   10.5250 H   0  0  0  0  0  0  0  0  0  0  0  0
   29.9370   38.4240   10.9290 O   0  0  0  0  0  0  0  0  0  0  0  0
   30.3050   38.5980   11.8250 H   0  0  0  0  0  0  0  0  0  0  0  0
   26.2730   36.6610   13.5540 C   0  0  0  0  0  0  0  0  0  0  0  0
   27.4070   35.9350   14.1530 C   0  0  0  0  0  0  0  0  0  0  0  0
   27.8520   35.9020   15.4670 C   0  0  0  0  0  0  0  0  0  0  0  0
   28.2480   35.1360   13.4850 N   0  0  0  0  0  0  0  0  0  0  0  0
   28.9270   35.0980   15.5450 N   0  0  0  0  0  0  0  0  0  0  0  0
   29.1450   34.6490   14.3350 N   0  0  0  0  0  0  0  0  0  0  0  0
   29.6850   34.8100   16.7930 C   0  0  0  0  0  0  0  0  0  0  0  0
   31.0520   34.3320   16.4500 C   0  0  2  0  0  0  0  0  0  0  0  0
   31.2220   32.9460   17.0480 C   0  0  0  0  0  0  0  0  0  0  0  0
   30.7910   31.9290   16.0550 C   0  0  0  0  0  0  0  0  0  0  0  0
   30.2480   30.8700   16.4170 O   0  0  0  0  0  0  0  0  0  0  0  0
   31.0220   32.2100   14.7060 O   0  0  0  0  0  0  0  0  0  0  0  0
   30.7550   33.1010   14.3340 H   0  0  0  0  0  0  0  0  0  0  0  0
   32.1160   35.2870   16.7990 C   0  0  0  0  0  0  0  0  0  0  0  0
   33.0170   35.7610   15.7230 C   0  0  0  0  0  0  0  0  0  0  0  0
   34.3910   36.0050   16.4100 C   0  0  0  0  0  0  0  0  0  0  0  0
   33.2650   34.8350   14.5810 C   0  0  0  0  0  0  0  0  0  0  0  0
   29.8670   25.5550   16.9770 C   0  0  0  0  0  0  0  0  0  0  0  0
   28.3450   25.7220   17.0260 C   0  0  0  0  0  0  0  0  0  0  0  0
   27.6010   24.4040   16.8800 C   0  0  0  0  0  0  0  0  0  0  0  0
   26.1460   24.5310   17.2390 C   0  0  0  0  0  0  0  0  0  0  0  0
   25.5740   23.1500   17.5400 C   0  0  0  0  0  0  0  0  0  0  0  0
   24.1630   23.0650   17.0950 N   0  0  0  0  0  0  0  0  0  0  0  0
  2  1  1  0  0  0  0
  3  2  1  0  0  0  0
  3  4  1  0  0  0  0
  5  2  2  0  0  0  0
  6  3  1  0  0  0  0
  7 30  1  0  0  0  0
  7  6  1  1  0  0  0
  8 28  1  6  0  0  0
  8  7  1  0  0  0  0
  9  8  1  1  0  0  0
 10 17  1  6  0  0  0
 10 15  1  0  0  0  0
 10 12  1  0  0  0  0
 11 13  1  0  0  0  0
 11 10  1  0  0  0  0
 12  9  1  0  0  0  0
 13 21  1  6  0  0  0
 13 14  1  0  0  0  0
 14 23  1  1  0  0  0
 14  9  1  0  0  0  0
 15 16  1  0  0  0  0
 17 18  2  0  0  0  0
 19 17  1  0  0  0  0
 20 19  1  0  0  0  0
 22 21  1  0  0  0  0
 23 24  1  0  0  0  0
 23 25  1  0  0  0  0
 24 26  1  0  0  0  0
 27 24  2  0  0  0  0
 28 29  1  0  0  0  0
 30 31  1  0  0  0  0
 32  1  1  0  0  0  0
 32 33  1  0  0  0  0
 33 34  2  0  0  0  0
 34 36  1  0  0  0  0
 35 33  1  0  0  0  0
 35 37  2  0  0  0  0
 36 38  1  0  0  0  0
 37 36  1  0  0  0  0
 39 38  1  1  0  0  0
 39 45  1  0  0  0  0
 39 40  1  0  0  0  0
 41 42  2  0  0  0  0
 41 40  1  0  0  0  0
 43 41  1  0  0  0  0
 44 43  1  0  0  0  0
 46 47  1  0  0  0  0
 46 45  1  0  0  0  0
 48 46  1  0  0  0  0
 49 50  1  0  0  0  0
 51 50  1  0  0  0  0
 51 52  1  0  0  0  0
 52 53  1  0  0  0  0
 54 53  1  0  0  0  0
M  END
>  <REMARK>
 VINA RESULT:    -4.003      5.580     11.855
 INTER + INTRA:         -15.334
 INTER:                  -8.900
 INTRA:                  -6.434
 UNBOUND:                -7.118
 SMILES CC(=O)N[C@@H]1[C@@H](O)C[C@](O)(C(=O)O)O[C@H]1C(O)[C@H](O)CNC(=O)OCc1cn(C[C@H](CC(=O)O)CC(C)C)nn1
 SMILES IDX 24 1 22 2 21 3 23 5 20 6 18 7 16 8 15 9 9 10 8 11 14 12 6 13
 SMILES IDX 5 14 10 15 11 17 12 18 13 19 7 21 4 23 2 24 1 26 3 27 17 28
 SMILES IDX 19 30 25 32 26 33 27 34 40 35 28 36 39 37 29 38 30 39 31 40
 SMILES IDX 32 41 33 42 34 43 35 45 36 46 37 47 38 48
 H PARENT 21 4 10 16 13 20 7 22 4 25 17 29 19 31 34 44
 Flexibility Score: inf
  4 active torsions:
  status: ('A' for Active; 'I' for Inactive)
    1  A    between atoms: CA   and  CB  
    2  A    between atoms: CB   and  CG  
    3  A    between atoms: CG   and  CD  
    4  A    between atoms: CD   and  CE  

>  <TORSDO>
F 21

>  <BEGIN_>
RES LYS A 131

$$$$
ligand_74_pose_16_2HRL.pdbqt
 OpenBabel07062320523D

  6  5  0  0  0  0  0  0  0  0999 V2000
   33.1930   34.6630    9.2900 C   0  0  0  0  0  0  0  0  0  0  0  0
   32.0600   35.3600   10.0340 C   0  0  0  0  0  0  0  0  0  0  0  0
   30.8010   35.5030    9.2180 C   0  0  0  0  0  0  0  0  0  0  0  0
   30.1460   34.1470    9.0000 C   0  0  0  0  0  0  0  0  0  0  0  0
   28.6920   34.3160    8.6060 C   0  0  0  0  0  0  0  0  0  0  0  0
   27.7860   33.7280    9.6320 N   0  0  0  0  0  0  0  0  0  0  0  0
  1  2  1  0  0  0  0
  3  2  1  0  0  0  0
  4  3  1  0  0  0  0
  5  4  1  0  0  0  0
  5  6  1  0  0  0  0
M  END
>  <EGIN_R>
ES LYS A 135

>  <REMARK>
  4 active torsions:
  status: ('A' for Active; 'I' for Inactive)
    5  A    between atoms: CA   and  CB  
    6  A    between atoms: CB   and  CG  
    7  A    between atoms: CG   and  CD  
    8  A    between atoms: CD   and  CE  

$$$$
