ligand_68_pose_3_2HRL.pdbqt
 OpenBabel07062320523D

 53 54  0  0  1  0  0  0  0  0999 V2000
   27.0980   26.6130   21.5190 N   0  0  0  0  0  0  0  0  0  0  0  0
   25.9720   27.3770   21.1250 C   0  0  0  0  0  0  0  0  0  0  0  0
   25.6630   28.3860   21.7980 O   0  0  0  0  0  0  0  0  0  0  0  0
   27.2950   25.7730   20.8910 H   0  0  0  0  0  0  0  0  0  0  0  0
   27.9380   26.9030   22.6580 C   0  0  0  0  0  0  0  0  0  0  0  0
   29.3580   27.2360   22.2520 C   0  0  2  0  0  0  0  0  0  0  0  0
   29.5190   28.7480   22.0870 C   0  0  2  0  0  0  0  0  0  0  0  0
   30.7370   29.3080   22.7720 C   0  0  2  0  0  0  0  0  0  0  0  0
   30.9210   31.1940   21.3980 C   0  0  2  0  0  0  0  0  0  0  0  0
   31.5470   30.3370   20.3720 C   0  0  0  0  0  0  0  0  0  0  0  0
   30.7020   30.6980   22.6380 O   0  0  0  0  0  0  0  0  0  0  0  0
   32.2930   29.1280   20.8430 C   0  0  1  0  0  0  0  0  0  0  0  0
   31.9900   28.7300   22.2680 C   0  0  1  0  0  0  0  0  0  0  0  0
   29.6340   31.5410   20.8890 O   0  0  0  0  0  0  0  0  0  0  0  0
   29.0070   30.9360   21.3430 H   0  0  0  0  0  0  0  0  0  0  0  0
   31.6600   32.5110   21.4360 C   0  0  0  0  0  0  0  0  0  0  0  0
   32.9050   32.5740   21.5660 O   0  0  0  0  0  0  0  0  0  0  0  0
   30.9510   33.7030   21.3240 O   0  0  0  0  0  0  0  0  0  0  0  0
   30.7440   34.3050   22.1060 H   0  0  0  0  0  0  0  0  0  0  0  0
   32.0330   28.0390   19.9640 O   0  0  0  0  0  0  0  0  0  0  0  0
   32.7640   27.4040   20.0860 H   0  0  0  0  0  0  0  0  0  0  0  0
   33.1660   29.0990   23.0400 N   0  0  0  0  0  0  0  0  0  0  0  0
   34.0780   28.1640   23.5880 C   0  0  0  0  0  0  0  0  0  0  0  0
   33.3080   30.1230   23.1750 H   0  0  0  0  0  0  0  0  0  0  0  0
   35.2690   28.5730   24.3720 C   0  0  0  0  0  0  0  0  0  0  0  0
   33.8200   26.9520   23.3700 O   0  0  0  0  0  0  0  0  0  0  0  0
   28.3860   29.2420   22.8400 O   0  0  0  0  0  0  0  0  0  0  0  0
   27.5500   29.0150   22.4050 H   0  0  0  0  0  0  0  0  0  0  0  0
   29.6760   26.5280   21.1170 O   0  0  0  0  0  0  0  0  0  0  0  0
   29.0430   25.7760   21.0440 H   0  0  0  0  0  0  0  0  0  0  0  0
   25.1900   27.0600   20.0240 O   0  0  0  0  0  0  0  0  0  0  0  0
   24.6870   28.0420   19.1400 C   0  0  0  0  0  0  0  0  0  0  0  0
   25.8020   28.5640   18.3240 C   0  0  0  0  0  0  0  0  0  0  0  0
   26.3270   29.8460   18.3730 C   0  0  0  0  0  0  0  0  0  0  0  0
   26.5400   27.9350   17.3790 N   0  0  0  0  0  0  0  0  0  0  0  0
   27.3320   29.9540   17.4860 N   0  0  0  0  0  0  0  0  0  0  0  0
   27.4360   28.7850   16.9020 N   0  0  0  0  0  0  0  0  0  0  0  0
   28.1320   31.1640   17.2520 C   0  0  0  0  0  0  0  0  0  0  0  0
   29.4350   30.7680   16.6010 C   0  0  1  0  0  0  0  0  0  0  0  0
   29.1330   30.4020   15.2700 O   0  0  0  0  0  0  0  0  0  0  0  0
   29.1350   31.2200   14.7010 H   0  0  0  0  0  0  0  0  0  0  0  0
   30.3440   31.9300   16.5530 C   0  0  0  0  0  0  0  0  0  0  0  0
   31.0290   32.2930   15.4110 C   0  0  0  0  0  0  0  0  0  0  0  0
   30.5190   32.7000   17.7110 C   0  0  0  0  0  0  0  0  0  0  0  0
   31.8680   33.3790   15.3860 C   0  0  0  0  0  0  0  0  0  0  0  0
   31.3540   33.7800   17.6880 C   0  0  0  0  0  0  0  0  0  0  0  0
   32.0240   34.1180   16.5350 C   0  0  0  0  0  0  0  0  0  0  0  0
   29.8670   25.5550   16.9770 C   0  0  0  0  0  0  0  0  0  0  0  0
   28.3450   25.7220   17.0260 C   0  0  0  0  0  0  0  0  0  0  0  0
   27.6020   24.3980   16.9340 C   0  0  0  0  0  0  0  0  0  0  0  0
   26.5090   24.2900   17.9610 C   0  0  0  0  0  0  0  0  0  0  0  0
   25.2090   23.8780   17.2790 C   0  0  0  0  0  0  0  0  0  0  0  0
   24.3090   25.0470   17.1290 N   0  0  0  0  0  0  0  0  0  0  0  0
  1  5  1  0  0  0  0
  2  1  1  0  0  0  0
  2  3  2  0  0  0  0
  4  1  1  0  0  0  0
  6  5  1  6  0  0  0
  7  6  1  0  0  0  0
  7 27  1  1  0  0  0
  8  7  1  6  0  0  0
  9 14  1  6  0  0  0
  9 16  1  0  0  0  0
  9 11  1  0  0  0  0
 10 12  1  0  0  0  0
 10  9  1  0  0  0  0
 11  8  1  0  0  0  0
 12 20  1  6  0  0  0
 12 13  1  0  0  0  0
 13  8  1  0  0  0  0
 13 22  1  1  0  0  0
 14 15  1  0  0  0  0
 16 17  2  0  0  0  0
 18 16  1  0  0  0  0
 18 19  1  0  0  0  0
 20 21  1  0  0  0  0
 22 24  1  0  0  0  0
 22 23  1  0  0  0  0
 23 25  1  0  0  0  0
 26 23  2  0  0  0  0
 28 27  1  0  0  0  0
 29  6  1  0  0  0  0
 30 29  1  0  0  0  0
 31  2  1  0  0  0  0
 32 31  1  0  0  0  0
 33 34  2  0  0  0  0
 33 32  1  0  0  0  0
 35 33  1  0  0  0  0
 36 34  1  0  0  0  0
 37 35  2  0  0  0  0
 37 36  1  0  0  0  0
 38 36  1  0  0  0  0
 39 38  1  1  0  0  0
 40 39  1  0  0  0  0
 41 40  1  0  0  0  0
 42 39  1  0  0  0  0
 42 44  2  0  0  0  0
 43 42  1  0  0  0  0
 45 43  2  0  0  0  0
 45 47  1  0  0  0  0
 46 44  1  0  0  0  0
 47 46  2  0  0  0  0
 48 49  1  0  0  0  0
 50 49  1  0  0  0  0
 50 51  1  0  0  0  0
 52 51  1  0  0  0  0
 53 52  1  0  0  0  0
M  END
>  <REMARK>
 VINA RESULT:    -5.774      1.729      1.965
 INTER + INTRA:         -15.849
 INTER:                  -9.313
 INTRA:                  -6.535
 UNBOUND:                -5.012
 SMILES CC(=O)N[C@@H]1[C@@H](O)C[C@](O)(C(=O)O)O[C@H]1C(O)[C@H](O)CNC(=O)OCc1cn(CC(O)c2ccccc2)nn1
 SMILES IDX 21 1 22 2 23 3 20 5 18 6 16 7 15 8 9 9 8 10 14 11 6 12 5 13
 SMILES IDX 10 14 11 16 12 17 13 18 7 20 4 22 2 23 1 25 3 26 17 27 19 29
 SMILES IDX 24 31 25 32 26 33 27 34 39 35 28 36 38 37 29 38 30 39 31 40
 SMILES IDX 32 42 33 43 37 44 34 45 36 46 35 47
 H PARENT 21 4 10 15 13 19 7 21 4 24 17 28 19 30 31 41
 Flexibility Score: inf
  4 active torsions:
  status: ('A' for Active; 'I' for Inactive)
    1  A    between atoms: CA   and  CB  
    2  A    between atoms: CB   and  CG  
    3  A    between atoms: CG   and  CD  
    4  A    between atoms: CD   and  CE  

>  <TORSDO>
F 18

>  <BEGIN_>
RES LYS A 131

$$$$
ligand_68_pose_3_2HRL.pdbqt
 OpenBabel07062320523D

  6  5  0  0  0  0  0  0  0  0999 V2000
   33.1930   34.6630    9.2900 C   0  0  0  0  0  0  0  0  0  0  0  0
   32.0600   35.3600   10.0340 C   0  0  0  0  0  0  0  0  0  0  0  0
   30.7540   34.6110    9.9810 C   0  0  0  0  0  0  0  0  0  0  0  0
   30.4200   34.2150    8.5510 C   0  0  0  0  0  0  0  0  0  0  0  0
   29.0080   34.6410    8.1960 C   0  0  0  0  0  0  0  0  0  0  0  0
   29.0070   35.6090    7.0650 N   0  0  0  0  0  0  0  0  0  0  0  0
  1  2  1  0  0  0  0
  3  2  1  0  0  0  0
  4  3  1  0  0  0  0
  5  4  1  0  0  0  0
  6  5  1  0  0  0  0
M  END
>  <EGIN_R>
ES LYS A 135

>  <REMARK>
  4 active torsions:
  status: ('A' for Active; 'I' for Inactive)
    5  A    between atoms: CA   and  CB  
    6  A    between atoms: CB   and  CG  
    7  A    between atoms: CG   and  CD  
    8  A    between atoms: CD   and  CE  

$$$$
