ligand_41_pose_16_2HRL.pdbqt
 OpenBabel07062320523D

 52 53  0  0  1  0  0  0  0  0999 V2000
   25.1940   34.8000   13.1670 N   0  0  0  0  0  0  0  0  0  0  0  0
   24.7280   36.0320   12.5910 C   0  0  0  0  0  0  0  0  0  0  0  0
   25.1450   37.1160   13.0640 O   0  0  0  0  0  0  0  0  0  0  0  0
   24.8320   33.9230   12.7430 H   0  0  0  0  0  0  0  0  0  0  0  0
   26.1070   34.8280   14.2720 C   0  0  0  0  0  0  0  0  0  0  0  0
   27.5590   34.7220   13.9410 C   0  0  2  0  0  0  0  0  0  0  0  0
   28.4110   34.1900   15.0540 C   0  0  2  0  0  0  0  0  0  0  0  0
   29.8290   34.6970   15.0540 C   0  0  2  0  0  0  0  0  0  0  0  0
   31.6860   35.0390   13.7240 C   0  0  2  0  0  0  0  0  0  0  0  0
   32.6090   34.2470   14.6310 C   0  0  0  0  0  0  0  0  0  0  0  0
   30.4190   34.5940   13.8430 O   0  0  0  0  0  0  0  0  0  0  0  0
   31.8540   33.3620   15.5650 C   0  0  1  0  0  0  0  0  0  0  0  0
   30.6300   33.9860   16.1230 C   0  0  1  0  0  0  0  0  0  0  0  0
   32.1720   34.7390   12.4060 O   0  0  0  0  0  0  0  0  0  0  0  0
   32.3720   35.6090   11.9400 H   0  0  0  0  0  0  0  0  0  0  0  0
   31.9380   36.4730   13.9030 C   0  0  0  0  0  0  0  0  0  0  0  0
   31.7670   37.3230   13.0010 O   0  0  0  0  0  0  0  0  0  0  0  0
   32.3920   36.9780   15.1240 O   0  0  0  0  0  0  0  0  0  0  0  0
   31.9310   36.7220   15.9900 H   0  0  0  0  0  0  0  0  0  0  0  0
   31.4850   32.2010   14.8640 O   0  0  0  0  0  0  0  0  0  0  0  0
   31.4510   32.3430   13.8870 H   0  0  0  0  0  0  0  0  0  0  0  0
   30.9160   34.7870   17.2700 N   0  0  0  0  0  0  0  0  0  0  0  0
   30.9980   34.2560   18.5870 C   0  0  0  0  0  0  0  0  0  0  0  0
   31.0780   35.8050   17.1530 H   0  0  0  0  0  0  0  0  0  0  0  0
   31.2990   35.1340   19.7470 C   0  0  0  0  0  0  0  0  0  0  0  0
   30.8200   33.0310   18.8110 O   0  0  0  0  0  0  0  0  0  0  0  0
   28.2650   32.8480   15.2900 O   0  0  0  0  0  0  0  0  0  0  0  0
   27.6790   32.7530   16.0990 H   0  0  0  0  0  0  0  0  0  0  0  0
   28.0040   36.0950   13.7540 O   0  0  0  0  0  0  0  0  0  0  0  0
   27.4970   36.3850   12.9490 H   0  0  0  0  0  0  0  0  0  0  0  0
   23.8410   36.0790   11.5420 O   0  0  0  0  0  0  0  0  0  0  0  0
   24.1940   35.6230   10.2390 C   0  0  0  0  0  0  0  0  0  0  0  0
   25.0520   36.6070    9.5320 C   0  0  0  0  0  0  0  0  0  0  0  0
   26.4200   36.6750    9.5030 C   0  0  0  0  0  0  0  0  0  0  0  0
   24.6210   37.6480    8.7680 N   0  0  0  0  0  0  0  0  0  0  0  0
   26.7750   37.7500    8.7260 N   0  0  0  0  0  0  0  0  0  0  0  0
   25.6540   38.3040    8.3060 N   0  0  0  0  0  0  0  0  0  0  0  0
   28.0750   38.2400    8.4450 C   0  0  0  0  0  0  0  0  0  0  0  0
   28.7460   38.0420    7.2880 C   0  0  0  0  0  0  0  0  0  0  0  0
   28.6470   38.9930    9.4940 C   0  0  0  0  0  0  0  0  0  0  0  0
   30.0210   38.5970    7.1440 C   0  0  0  0  0  0  0  0  0  0  0  0
   29.9000   39.5320    9.3390 C   0  0  0  0  0  0  0  0  0  0  0  0
   30.5660   39.3230    8.1610 C   0  0  0  0  0  0  0  0  0  0  0  0
   28.2350   37.2780    6.1710 C   0  0  1  0  0  0  0  0  0  0  0  0
   27.8050   37.9610    5.1550 O   0  0  0  0  0  0  0  0  0  0  0  0
   28.1420   35.8240    6.0430 C   0  0  0  0  0  0  0  0  0  0  0  0
   29.8670   25.5550   16.9770 C   0  0  0  0  0  0  0  0  0  0  0  0
   28.3450   25.7220   17.0260 C   0  0  0  0  0  0  0  0  0  0  0  0
   27.6040   24.3940   16.9990 C   0  0  0  0  0  0  0  0  0  0  0  0
   26.1240   24.5680   17.1990 C   0  0  0  0  0  0  0  0  0  0  0  0
   25.8690   25.7830   18.0840 C   0  0  0  0  0  0  0  0  0  0  0  0
   25.8120   25.3830   19.5100 N   0  0  0  0  0  0  0  0  0  0  0  0
  1  5  1  0  0  0  0
  2  3  2  0  0  0  0
  2  1  1  0  0  0  0
  4  1  1  0  0  0  0
  6  5  1  1  0  0  0
  6  7  1  0  0  0  0
  7 27  1  6  0  0  0
  8  7  1  6  0  0  0
  8 13  1  0  0  0  0
  9 14  1  6  0  0  0
  9 11  1  0  0  0  0
  9 16  1  0  0  0  0
  9 10  1  0  0  0  0
 10 12  1  0  0  0  0
 11  8  1  0  0  0  0
 12 20  1  6  0  0  0
 12 13  1  0  0  0  0
 13 22  1  1  0  0  0
 15 14  1  0  0  0  0
 16 18  1  0  0  0  0
 17 16  2  0  0  0  0
 18 19  1  0  0  0  0
 21 20  1  0  0  0  0
 22 23  1  0  0  0  0
 23 26  2  0  0  0  0
 23 25  1  0  0  0  0
 24 22  1  0  0  0  0
 27 28  1  0  0  0  0
 29  6  1  0  0  0  0
 30 29  1  0  0  0  0
 31  2  1  0  0  0  0
 32 31  1  0  0  0  0
 33 32  1  0  0  0  0
 34 33  2  0  0  0  0
 35 33  1  0  0  0  0
 36 34  1  0  0  0  0
 37 36  1  0  0  0  0
 37 35  2  0  0  0  0
 38 36  1  0  0  0  0
 38 40  2  0  0  0  0
 39 38  1  0  0  0  0
 41 39  2  0  0  0  0
 41 43  1  0  0  0  0
 42 40  1  0  0  0  0
 43 42  2  0  0  0  0
 44 46  1  6  0  0  0
 44 39  1  0  0  0  0
 45 44  1  0  0  0  0
 47 48  1  0  0  0  0
 49 48  1  0  0  0  0
 49 50  1  0  0  0  0
 50 51  1  0  0  0  0
 51 52  1  0  0  0  0
M  END
>  <REMARK>
 VINA RESULT:    -4.286      3.233      7.076
 INTER + INTRA:         -14.472
 INTER:                  -9.308
 INTRA:                  -5.164
 UNBOUND:                -6.804
 SMILES CC(=O)N[C@@H]1[C@@H](O)C[C@](O)(C(=O)O)O[C@H]1C(O)[C@H](O)CNC(=O)OCc1cn(-c2ccccc2C(C)=O)nn1
 SMILES IDX 21 1 22 2 23 3 20 5 18 6 16 7 15 8 9 9 8 10 14 11 6 12 5 13
 SMILES IDX 10 14 11 16 12 17 13 18 7 20 4 22 2 23 1 25 3 26 17 27 19 29
 SMILES IDX 24 31 25 32 26 33 27 34 39 35 28 36 38 37 29 38 34 39 30 40
 SMILES IDX 33 41 31 42 32 43 35 44 37 45 36 46
 H PARENT 21 4 10 15 13 19 7 21 4 24 17 28 19 30
 Flexibility Score: inf
  4 active torsions:
  status: ('A' for Active; 'I' for Inactive)
    1  A    between atoms: CA   and  CB  
    2  A    between atoms: CB   and  CG  
    3  A    between atoms: CG   and  CD  
    4  A    between atoms: CD   and  CE  

>  <TORSDO>
F 16

>  <BEGIN_>
RES LYS A 131

$$$$
ligand_41_pose_16_2HRL.pdbqt
 OpenBabel07062320523D

  6  5  0  0  0  0  0  0  0  0999 V2000
   33.1930   34.6630    9.2900 C   0  0  0  0  0  0  0  0  0  0  0  0
   32.0600   35.3600   10.0340 C   0  0  0  0  0  0  0  0  0  0  0  0
   30.8290   35.5770    9.1920 C   0  0  0  0  0  0  0  0  0  0  0  0
   30.2910   34.2500    8.6780 C   0  0  0  0  0  0  0  0  0  0  0  0
   28.8990   33.9930    9.2240 C   0  0  0  0  0  0  0  0  0  0  0  0
   28.8020   34.3950   10.6540 N   0  0  0  0  0  0  0  0  0  0  0  0
  1  2  1  0  0  0  0
  3  2  1  0  0  0  0
  4  3  1  0  0  0  0
  4  5  1  0  0  0  0
  5  6  1  0  0  0  0
M  END
>  <EGIN_R>
ES LYS A 135

>  <REMARK>
  4 active torsions:
  status: ('A' for Active; 'I' for Inactive)
    5  A    between atoms: CA   and  CB  
    6  A    between atoms: CB   and  CG  
    7  A    between atoms: CG   and  CD  
    8  A    between atoms: CD   and  CE  

$$$$
