ligand_75_pose_13_2HRL.pdbqt
 OpenBabel07062320523D

 55 56  0  0  1  0  0  0  0  0999 V2000
   29.4500   26.9600   20.3020 N   0  0  0  0  0  0  0  0  0  0  0  0
   28.2590   27.6480   19.9750 C   0  0  0  0  0  0  0  0  0  0  0  0
   27.6990   28.4380   20.7630 O   0  0  0  0  0  0  0  0  0  0  0  0
   29.8280   26.2990   19.5390 H   0  0  0  0  0  0  0  0  0  0  0  0
   30.1820   27.0650   21.5310 C   0  0  0  0  0  0  0  0  0  0  0  0
   31.6350   27.3070   21.2770 C   0  0  2  0  0  0  0  0  0  0  0  0
   32.1630   28.5900   21.8900 C   0  0  2  0  0  0  0  0  0  0  0  0
   31.2410   29.7250   21.6290 C   0  0  2  0  0  0  0  0  0  0  0  0
   30.3390   31.2740   20.1740 C   0  0  2  0  0  0  0  0  0  0  0  0
   29.4860   31.5920   21.3710 C   0  0  0  0  0  0  0  0  0  0  0  0
   31.1280   30.1530   20.3440 O   0  0  0  0  0  0  0  0  0  0  0  0
   30.2070   31.6620   22.6660 C   0  0  1  0  0  0  0  0  0  0  0  0
   31.5080   30.9040   22.5620 C   0  0  1  0  0  0  0  0  0  0  0  0
   31.0690   32.4060   19.8150 O   0  0  0  0  0  0  0  0  0  0  0  0
   30.5090   33.2070   19.7360 H   0  0  0  0  0  0  0  0  0  0  0  0
   29.4120   30.9820   19.0440 C   0  0  0  0  0  0  0  0  0  0  0  0
   28.1940   31.3580   19.1230 O   0  0  0  0  0  0  0  0  0  0  0  0
   29.8250   30.3130   17.9010 O   0  0  0  0  0  0  0  0  0  0  0  0
   29.7540   29.3210   17.7950 H   0  0  0  0  0  0  0  0  0  0  0  0
   30.4020   32.9610   23.1260 O   0  0  0  0  0  0  0  0  0  0  0  0
   30.5960   32.9470   24.0770 H   0  0  0  0  0  0  0  0  0  0  0  0
   32.0200   30.4990   23.8340 N   0  0  0  0  0  0  0  0  0  0  0  0
   33.2230   31.0210   24.3770 C   0  0  0  0  0  0  0  0  0  0  0  0
   31.5120   29.7810   24.4320 H   0  0  0  0  0  0  0  0  0  0  0  0
   33.7120   30.5730   25.6950 C   0  0  0  0  0  0  0  0  0  0  0  0
   33.8940   31.8750   23.7450 O   0  0  0  0  0  0  0  0  0  0  0  0
   33.4920   28.8250   21.5560 O   0  0  0  0  0  0  0  0  0  0  0  0
   34.0430   28.6020   22.3380 H   0  0  0  0  0  0  0  0  0  0  0  0
   31.9290   27.3160   19.9120 O   0  0  0  0  0  0  0  0  0  0  0  0
   31.1560   27.7180   19.4260 H   0  0  0  0  0  0  0  0  0  0  0  0
   27.6400   27.4680   18.7210 O   0  0  0  0  0  0  0  0  0  0  0  0
   26.3580   27.9740   18.5230 C   0  0  0  0  0  0  0  0  0  0  0  0
   26.2540   28.8280   17.3160 C   0  0  0  0  0  0  0  0  0  0  0  0
   25.1480   29.2500   16.6170 C   0  0  0  0  0  0  0  0  0  0  0  0
   27.3040   29.3620   16.6700 N   0  0  0  0  0  0  0  0  0  0  0  0
   25.5390   30.0220   15.5720 N   0  0  0  0  0  0  0  0  0  0  0  0
   26.8570   30.0710   15.6320 N   0  0  0  0  0  0  0  0  0  0  0  0
   24.6610   30.6350   14.6270 C   0  0  0  0  0  0  0  0  0  0  0  0
   23.7690   29.8920   13.8990 C   0  0  0  0  0  0  0  0  0  0  0  0
   24.7000   31.9960   14.4270 C   0  0  0  0  0  0  0  0  0  0  0  0
   22.8920   30.4950   12.9550 C   0  0  0  0  0  0  0  0  0  0  0  0
   23.8870   32.6330   13.5380 C   0  0  0  0  0  0  0  0  0  0  0  0
   22.9780   31.8530   12.8030 C   0  0  0  0  0  0  0  0  0  0  0  0
   21.9590   29.6750   12.2620 C   0  0  0  0  0  0  0  0  0  0  0  0
   20.9900   28.8860   12.5200 C   0  0  0  0  0  0  0  0  0  0  0  0
   20.3370   28.4250   13.6790 C   0  0  0  0  0  0  0  0  0  0  0  0
   20.0980   29.3050   14.6500 O   0  0  0  0  0  0  0  0  0  0  0  0
   19.8690   27.1880   14.0450 O   0  0  0  0  0  0  0  0  0  0  0  0
   18.8950   26.9310   14.0230 H   0  0  0  0  0  0  0  0  0  0  0  0
   29.8670   25.5550   16.9770 C   0  0  0  0  0  0  0  0  0  0  0  0
   28.3450   25.7220   17.0260 C   0  0  0  0  0  0  0  0  0  0  0  0
   27.6010   24.4010   16.8980 C   0  0  0  0  0  0  0  0  0  0  0  0
   26.5000   24.2710   17.9140 C   0  0  0  0  0  0  0  0  0  0  0  0
   25.1630   24.6000   17.2600 C   0  0  0  0  0  0  0  0  0  0  0  0
   24.0550   24.4350   18.2310 N   0  0  0  0  0  0  0  0  0  0  0  0
  1  5  1  0  0  0  0
  2  1  1  0  0  0  0
  2  3  2  0  0  0  0
  4  1  1  0  0  0  0
  6  5  1  6  0  0  0
  6  7  1  0  0  0  0
  7 27  1  6  0  0  0
  8  7  1  6  0  0  0
  8 13  1  0  0  0  0
  9 16  1  6  0  0  0
  9 11  1  0  0  0  0
  9 10  1  0  0  0  0
 10 12  1  0  0  0  0
 11  8  1  0  0  0  0
 12 20  1  6  0  0  0
 13 12  1  0  0  0  0
 13 22  1  1  0  0  0
 14  9  1  0  0  0  0
 15 14  1  0  0  0  0
 16 17  2  0  0  0  0
 18 16  1  0  0  0  0
 19 18  1  0  0  0  0
 20 21  1  0  0  0  0
 22 23  1  0  0  0  0
 22 24  1  0  0  0  0
 23 25  1  0  0  0  0
 26 23  2  0  0  0  0
 27 28  1  0  0  0  0
 29  6  1  0  0  0  0
 30 29  1  0  0  0  0
 31  2  1  0  0  0  0
 32 31  1  0  0  0  0
 33 32  1  0  0  0  0
 34 33  2  0  0  0  0
 35 33  1  0  0  0  0
 36 37  1  0  0  0  0
 36 34  1  0  0  0  0
 37 35  2  0  0  0  0
 38 36  1  0  0  0  0
 39 38  2  0  0  0  0
 40 38  1  0  0  0  0
 41 39  1  0  0  0  0
 42 40  2  0  0  0  0
 43 41  2  0  0  0  0
 43 42  1  0  0  0  0
 44 45  2  0  0  0  0
 44 41  1  0  0  0  0
 45 46  1  0  0  0  0
 46 48  1  0  0  0  0
 46 47  2  0  0  0  0
 49 48  1  0  0  0  0
 50 51  1  0  0  0  0
 52 51  1  0  0  0  0
 52 53  1  0  0  0  0
 54 53  1  0  0  0  0
 54 55  1  0  0  0  0
M  END
>  <REMARK>
 VINA RESULT:    -4.897      7.836     14.278
 INTER + INTRA:         -15.508
 INTER:                  -9.867
 INTRA:                  -5.642
 UNBOUND:                -6.317
 SMILES CC(=O)N[C@@H]1[C@@H](O)C[C@](O)(C(=O)O)O[C@H]1C(O)[C@H](O)CNC(=O)OCc1cn(-c2cccc(C=CC(=O)O)c2)nn1
 SMILES IDX 21 1 22 2 23 3 20 5 18 6 16 7 15 8 9 9 8 10 14 11 6 12 5 13
 SMILES IDX 10 14 11 16 12 17 13 18 7 20 4 22 2 23 1 25 3 26 17 27 19 29
 SMILES IDX 24 31 25 32 26 33 27 34 41 35 28 36 40 37 29 38 39 39 30 40
 SMILES IDX 33 41 31 42 32 43 34 44 35 45 36 46 37 47 38 48
 H PARENT 21 4 10 15 13 19 7 21 4 24 17 28 19 30 38 49
 Flexibility Score: inf
  4 active torsions:
  status: ('A' for Active; 'I' for Inactive)
    1  A    between atoms: CA   and  CB  
    2  A    between atoms: CB   and  CG  
    3  A    between atoms: CG   and  CD  
    4  A    between atoms: CD   and  CE  

>  <TORSDO>
F 18

>  <BEGIN_>
RES LYS A 131

$$$$
ligand_75_pose_13_2HRL.pdbqt
 OpenBabel07062320523D

  6  5  0  0  0  0  0  0  0  0999 V2000
   33.1930   34.6630    9.2900 C   0  0  0  0  0  0  0  0  0  0  0  0
   32.0600   35.3600   10.0340 C   0  0  0  0  0  0  0  0  0  0  0  0
   30.7630   34.5930   10.0110 C   0  0  0  0  0  0  0  0  0  0  0  0
   30.4380   34.1300    8.6000 C   0  0  0  0  0  0  0  0  0  0  0  0
   29.5740   35.1530    7.8880 C   0  0  0  0  0  0  0  0  0  0  0  0
   28.1280   34.8230    8.0270 N   0  0  0  0  0  0  0  0  0  0  0  0
  1  2  1  0  0  0  0
  3  2  1  0  0  0  0
  4  3  1  0  0  0  0
  5  6  1  0  0  0  0
  5  4  1  0  0  0  0
M  END
>  <EGIN_R>
ES LYS A 135

>  <REMARK>
  4 active torsions:
  status: ('A' for Active; 'I' for Inactive)
    5  A    between atoms: CA   and  CB  
    6  A    between atoms: CB   and  CG  
    7  A    between atoms: CG   and  CD  
    8  A    between atoms: CD   and  CE  

$$$$
