ligand_77_pose_13_2HRL.pdbqt
 OpenBabel07062320523D

 61 63  0  0  1  0  0  0  0  0999 V2000
   29.2880   30.4470   16.0760 N   0  0  0  0  0  0  0  0  0  0  0  0
   28.1800   29.9740   16.8190 C   0  0  0  0  0  0  0  0  0  0  0  0
   28.1590   30.1000   18.0480 O   0  0  0  0  0  0  0  0  0  0  0  0
   29.2180   30.2980   15.0220 H   0  0  0  0  0  0  0  0  0  0  0  0
   30.4550   31.0890   16.6360 C   0  0  0  0  0  0  0  0  0  0  0  0
   30.7930   32.2920   15.8230 C   0  0  2  0  0  0  0  0  0  0  0  0
   30.1960   33.5670   16.3780 C   0  0  1  0  0  0  0  0  0  0  0  0
   30.6600   34.8150   15.7060 C   0  0  2  0  0  0  0  0  0  0  0  0
   32.5220   35.5590   14.5460 C   0  0  2  0  0  0  0  0  0  0  0  0
   32.0120   36.9610   14.6700 C   0  0  0  0  0  0  0  0  0  0  0  0
   31.5310   34.6000   14.6630 O   0  0  0  0  0  0  0  0  0  0  0  0
   31.0940   37.1900   15.8160 C   0  0  1  0  0  0  0  0  0  0  0  0
   31.0760   35.9050   16.6620 C   0  0  1  0  0  0  0  0  0  0  0  0
   33.5870   35.3170   15.4420 O   0  0  0  0  0  0  0  0  0  0  0  0
   34.3380   35.8810   15.1880 H   0  0  0  0  0  0  0  0  0  0  0  0
   33.1080   35.4140   13.1810 C   0  0  0  0  0  0  0  0  0  0  0  0
   32.7620   36.2410   12.2810 O   0  0  0  0  0  0  0  0  0  0  0  0
   34.0050   34.4370   12.8300 O   0  0  0  0  0  0  0  0  0  0  0  0
   35.0060   34.6180   12.8630 H   0  0  0  0  0  0  0  0  0  0  0  0
   31.4340   38.2840   16.5960 O   0  0  0  0  0  0  0  0  0  0  0  0
   30.9860   39.1080   16.2230 H   0  0  0  0  0  0  0  0  0  0  0  0
   30.0270   36.0370   17.6650 N   0  0  0  0  0  0  0  0  0  0  0  0
   30.3300   35.8560   19.0370 C   0  0  0  0  0  0  0  0  0  0  0  0
   29.0410   36.2620   17.4140 H   0  0  0  0  0  0  0  0  0  0  0  0
   29.2690   35.9810   20.0990 C   0  0  0  0  0  0  0  0  0  0  0  0
   31.4790   35.5830   19.4460 O   0  0  0  0  0  0  0  0  0  0  0  0
   28.8080   33.4040   16.2880 O   0  0  0  0  0  0  0  0  0  0  0  0
   28.5250   33.7200   15.4040 H   0  0  0  0  0  0  0  0  0  0  0  0
   30.4980   32.0900   14.4830 O   0  0  0  0  0  0  0  0  0  0  0  0
   30.9390   31.2550   14.1850 H   0  0  0  0  0  0  0  0  0  0  0  0
   27.0830   29.3580   16.2260 O   0  0  0  0  0  0  0  0  0  0  0  0
   25.7650   29.8660   16.3720 C   0  0  0  0  0  0  0  0  0  0  0  0
   25.6680   31.2870   15.9310 C   0  0  0  0  0  0  0  0  0  0  0  0
   25.3980   31.6770   14.6480 C   0  0  0  0  0  0  0  0  0  0  0  0
   25.8160   32.4000   16.6620 N   0  0  0  0  0  0  0  0  0  0  0  0
   25.3880   33.0300   14.6230 N   0  0  0  0  0  0  0  0  0  0  0  0
   25.6410   33.4170   15.8420 N   0  0  0  0  0  0  0  0  0  0  0  0
   25.1390   33.7850   13.4480 C   0  0  0  0  0  0  0  0  0  0  0  0
   23.8760   33.8170   12.8980 C   0  0  0  0  0  0  0  0  0  0  0  0
   26.1250   34.5080   12.8130 C   0  0  0  0  0  0  0  0  0  0  0  0
   23.5890   34.5410   11.7530 C   0  0  0  0  0  0  0  0  0  0  0  0
   25.8460   35.2430   11.6570 C   0  0  0  0  0  0  0  0  0  0  0  0
   24.5790   35.2590   11.1270 C   0  0  0  0  0  0  0  0  0  0  0  0
   24.2200   36.1630    9.6980 S   0  0  0  0  0  0  0  0  0  0  0  0
   23.8520   37.5620   10.0610 O   0  0  0  0  0  0  0  0  0  0  0  0
   23.0850   35.5760    8.9130 O   0  0  0  0  0  0  0  0  0  0  0  0
   25.6480   36.1230    8.6690 C   0  0  0  0  0  0  0  0  0  0  0  0
   26.2580   34.9200    8.4330 C   0  0  0  0  0  0  0  0  0  0  0  0
   26.1620   37.2810    8.0940 C   0  0  0  0  0  0  0  0  0  0  0  0
   27.3870   34.8420    7.6270 C   0  0  0  0  0  0  0  0  0  0  0  0
   27.2860   37.2380    7.2840 C   0  0  0  0  0  0  0  0  0  0  0  0
   27.8700   36.0120    7.0730 C   0  0  0  0  0  0  0  0  0  0  0  0
   29.0170   35.9460    6.2510 N   0  0  0  0  0  0  0  0  0  0  0  0
   29.5020   35.0460    6.1000 H   0  0  0  0  0  0  0  0  0  0  0  0
   29.3700   36.8080    5.8020 H   0  0  0  0  0  0  0  0  0  0  0  0
   29.8670   25.5550   16.9770 C   0  0  0  0  0  0  0  0  0  0  0  0
   28.3450   25.7220   17.0260 C   0  0  0  0  0  0  0  0  0  0  0  0
   27.8560   26.3030   18.3440 C   0  0  0  0  0  0  0  0  0  0  0  0
   26.3870   26.6190   18.3140 C   0  0  0  0  0  0  0  0  0  0  0  0
   25.6170   25.4110   17.7900 C   0  0  0  0  0  0  0  0  0  0  0  0
   24.2090   25.4540   18.2490 N   0  0  0  0  0  0  0  0  0  0  0  0
  1  5  1  0  0  0  0
  1  2  1  0  0  0  0
  2  3  2  0  0  0  0
  4  1  1  0  0  0  0
  6  7  1  0  0  0  0
  6  5  1  1  0  0  0
  7 27  1  6  0  0  0
  8  7  1  1  0  0  0
  8 13  1  0  0  0  0
  9 16  1  6  0  0  0
  9 11  1  0  0  0  0
  9 10  1  0  0  0  0
  9 14  1  0  0  0  0
 10 12  1  0  0  0  0
 11  8  1  0  0  0  0
 12 20  1  1  0  0  0
 12 13  1  0  0  0  0
 13 22  1  1  0  0  0
 15 14  1  0  0  0  0
 17 16  2  0  0  0  0
 18 19  1  0  0  0  0
 18 16  1  0  0  0  0
 21 20  1  0  0  0  0
 22 23  1  0  0  0  0
 23 26  2  0  0  0  0
 23 25  1  0  0  0  0
 24 22  1  0  0  0  0
 28 27  1  0  0  0  0
 29  6  1  0  0  0  0
 30 29  1  0  0  0  0
 31 32  1  0  0  0  0
 31  2  1  0  0  0  0
 33 32  1  0  0  0  0
 33 35  1  0  0  0  0
 34 33  2  0  0  0  0
 36 34  1  0  0  0  0
 36 37  1  0  0  0  0
 37 35  2  0  0  0  0
 38 36  1  0  0  0  0
 39 38  1  0  0  0  0
 40 38  2  0  0  0  0
 41 39  2  0  0  0  0
 42 40  1  0  0  0  0
 43 42  2  0  0  0  0
 43 41  1  0  0  0  0
 44 45  2  0  0  0  0
 44 43  1  0  0  0  0
 46 44  2  0  0  0  0
 47 44  1  0  0  0  0
 48 47  1  0  0  0  0
 49 47  2  0  0  0  0
 50 48  2  0  0  0  0
 51 49  1  0  0  0  0
 52 51  2  0  0  0  0
 52 50  1  0  0  0  0
 53 52  1  0  0  0  0
 54 53  1  0  0  0  0
 55 53  1  0  0  0  0
 56 57  1  0  0  0  0
 57 58  1  0  0  0  0
 59 58  1  0  0  0  0
 60 61  1  0  0  0  0
 60 59  1  0  0  0  0
M  END
>  <REMARK>
 VINA RESULT:    -5.130      4.425      8.003
 INTER + INTRA:         -16.155
 INTER:                 -12.344
 INTRA:                  -3.811
 UNBOUND:                -6.527
 SMILES CC(=O)N[C@@H]1[C@@H](O)C[C@](O)(C(=O)O)O[C@H]1C(O)[C@H](O)CNC(=O)OCc1cn(-c2ccc(S(=O)(=O)c3ccc(N)cc3)cc2)nn1
 SMILES IDX 21 1 22 2 23 3 20 5 18 6 16 7 15 8 9 9 8 10 14 11 6 12 5 13
 SMILES IDX 10 14 11 16 12 17 13 18 7 20 4 22 2 23 1 25 3 26 17 27 19 29
 SMILES IDX 24 31 25 32 26 33 27 34 46 35 28 36 45 37 29 38 30 39 44 40
 SMILES IDX 31 41 43 42 32 43 33 44 34 45 35 46 36 47 37 48 42 49 38 50
 SMILES IDX 41 51 39 52 40 53
 H PARENT 21 4 10 15 13 19 7 21 4 24 17 28 19 30 40 54 40 55
 Flexibility Score: inf
  4 active torsions:
  status: ('A' for Active; 'I' for Inactive)
    1  A    between atoms: CA   and  CB  
    2  A    between atoms: CB   and  CG  
    3  A    between atoms: CG   and  CD  
    4  A    between atoms: CD   and  CE  

>  <TORSDO>
F 18

>  <BEGIN_>
RES LYS A 131

$$$$
ligand_77_pose_13_2HRL.pdbqt
 OpenBabel07062320523D

  6  5  0  0  0  0  0  0  0  0999 V2000
   33.1930   34.6630    9.2900 C   0  0  0  0  0  0  0  0  0  0  0  0
   32.0600   35.3600   10.0340 C   0  0  0  0  0  0  0  0  0  0  0  0
   30.7010   35.1090    9.4340 C   0  0  0  0  0  0  0  0  0  0  0  0
   29.6140   35.7610   10.2740 C   0  0  0  0  0  0  0  0  0  0  0  0
   29.6190   35.1970   11.6820 C   0  0  0  0  0  0  0  0  0  0  0  0
   29.2440   36.2390   12.6780 N   0  0  0  0  0  0  0  0  0  0  0  0
  1  2  1  0  0  0  0
  3  2  1  0  0  0  0
  3  4  1  0  0  0  0
  4  5  1  0  0  0  0
  5  6  1  0  0  0  0
M  END
>  <EGIN_R>
ES LYS A 135

>  <REMARK>
  4 active torsions:
  status: ('A' for Active; 'I' for Inactive)
    5  A    between atoms: CA   and  CB  
    6  A    between atoms: CB   and  CG  
    7  A    between atoms: CG   and  CD  
    8  A    between atoms: CD   and  CE  

$$$$
