ligand_57_pose_16_2HRL.pdbqt
 OpenBabel07062320523D

 50 51  0  0  1  0  0  0  0  0999 V2000
   27.6290   29.5320   16.2130 C   0  0  0  0  0  0  0  0  0  0  0  0
   26.9320   28.4610   16.9830 C   0  0  2  0  0  0  0  0  0  0  0  0
   25.6980   28.9680   17.6990 C   0  0  2  0  0  0  0  0  0  0  0  0
   25.8620   28.7790   19.1920 C   0  0  2  0  0  0  0  0  0  0  0  0
   25.1820   27.4900   21.0170 C   0  0  2  0  0  0  0  0  0  0  0  0
   24.9890   28.7220   21.8470 C   0  0  0  0  0  0  0  0  0  0  0  0
   25.2230   27.6770   19.6670 O   0  0  0  0  0  0  0  0  0  0  0  0
   25.8450   29.8580   21.3560 C   0  0  1  0  0  0  0  0  0  0  0  0
   25.5070   30.0590   19.8810 C   0  0  1  0  0  0  0  0  0  0  0  0
   24.1530   26.5730   21.3710 O   0  0  0  0  0  0  0  0  0  0  0  0
   24.0050   26.5650   22.3480 H   0  0  0  0  0  0  0  0  0  0  0  0
   26.4680   26.8600   21.4150 C   0  0  0  0  0  0  0  0  0  0  0  0
   26.7060   26.6360   22.6280 O   0  0  0  0  0  0  0  0  0  0  0  0
   27.4630   26.4850   20.5250 O   0  0  0  0  0  0  0  0  0  0  0  0
   27.7720   27.0850   19.7600 H   0  0  0  0  0  0  0  0  0  0  0  0
   25.5850   31.0400   22.0550 O   0  0  0  0  0  0  0  0  0  0  0  0
   26.2260   31.7530   21.8410 H   0  0  0  0  0  0  0  0  0  0  0  0
   26.4090   31.1300   19.4360 N   0  0  0  0  0  0  0  0  0  0  0  0
   25.9600   32.4490   19.2260 C   0  0  0  0  0  0  0  0  0  0  0  0
   27.3920   30.8700   19.2860 H   0  0  0  0  0  0  0  0  0  0  0  0
   26.8980   33.5350   18.7710 C   0  0  0  0  0  0  0  0  0  0  0  0
   24.7460   32.7080   19.4270 O   0  0  0  0  0  0  0  0  0  0  0  0
   24.5950   28.3150   17.1980 O   0  0  0  0  0  0  0  0  0  0  0  0
   24.6690   27.3380   17.3440 H   0  0  0  0  0  0  0  0  0  0  0  0
   27.8250   27.9780   17.9690 O   0  0  0  0  0  0  0  0  0  0  0  0
   27.5790   28.3240   18.8670 H   0  0  0  0  0  0  0  0  0  0  0  0
   28.7710   29.9840   16.9780 N   0  0  0  0  0  0  0  0  0  0  0  0
   29.3680   31.2680   16.8480 C   0  0  0  0  0  0  0  0  0  0  0  0
   29.2420   29.3610   17.7020 H   0  0  0  0  0  0  0  0  0  0  0  0
   28.8960   32.0750   16.0340 O   0  0  0  0  0  0  0  0  0  0  0  0
   30.4660   31.6560   17.6050 O   0  0  0  0  0  0  0  0  0  0  0  0
   30.3470   31.8460   19.0000 C   0  0  0  0  0  0  0  0  0  0  0  0
   30.2760   30.5400   19.7050 C   0  0  0  0  0  0  0  0  0  0  0  0
   31.2940   29.8200   20.2610 C   0  0  0  0  0  0  0  0  0  0  0  0
   29.1590   29.8200   19.9200 N   0  0  0  0  0  0  0  0  0  0  0  0
   30.7920   28.6940   20.7960 N   0  0  0  0  0  0  0  0  0  0  0  0
   29.4760   28.7290   20.5680 N   0  0  0  0  0  0  0  0  0  0  0  0
   31.5450   27.6660   21.4790 C   0  0  0  0  0  0  0  0  0  0  0  0
   30.6310   26.6540   22.1340 C   0  0  0  0  0  0  0  0  0  0  0  0
   32.5330   28.2540   22.4410 C   0  0  0  0  0  0  0  0  0  0  0  0
   30.1510   27.1030   23.4940 C   0  0  0  0  0  0  0  0  0  0  0  0
   31.9330   28.6940   23.7400 C   0  0  0  0  0  0  0  0  0  0  0  0
   31.2090   27.6040   24.3210 N   0  0  0  0  0  0  0  0  0  0  0  0
   32.1220   26.5860   24.7520 C   0  0  0  0  0  0  0  0  0  0  0  0
   29.8670   25.5550   16.9770 C   0  0  0  0  0  0  0  0  0  0  0  0
   28.3450   25.7220   17.0260 C   0  0  0  0  0  0  0  0  0  0  0  0
   27.6010   24.4010   16.9040 C   0  0  0  0  0  0  0  0  0  0  0  0
   26.5410   24.2480   17.9590 C   0  0  0  0  0  0  0  0  0  0  0  0
   25.1630   24.3980   17.3210 C   0  0  0  0  0  0  0  0  0  0  0  0
   24.5060   23.0760   17.1910 N   0  0  0  0  0  0  0  0  0  0  0  0
  1 27  1  0  0  0  0
  2  1  1  1  0  0  0
  2  3  1  0  0  0  0
  2 25  1  0  0  0  0
  3 23  1  6  0  0  0
  4  3  1  6  0  0  0
  4  7  1  0  0  0  0
  4  9  1  0  0  0  0
  5 10  1  1  0  0  0
  5 12  1  0  0  0  0
  5  6  1  0  0  0  0
  7  5  1  0  0  0  0
  8  6  1  0  0  0  0
  8 16  1  1  0  0  0
  9 18  1  6  0  0  0
  9  8  1  0  0  0  0
 10 11  1  0  0  0  0
 12 13  2  0  0  0  0
 14 12  1  0  0  0  0
 15 14  1  0  0  0  0
 17 16  1  0  0  0  0
 19 22  2  0  0  0  0
 19 18  1  0  0  0  0
 20 18  1  0  0  0  0
 21 19  1  0  0  0  0
 23 24  1  0  0  0  0
 25 26  1  0  0  0  0
 27 29  1  0  0  0  0
 28 27  1  0  0  0  0
 28 31  1  0  0  0  0
 30 28  2  0  0  0  0
 31 32  1  0  0  0  0
 32 33  1  0  0  0  0
 33 35  1  0  0  0  0
 33 34  2  0  0  0  0
 34 36  1  0  0  0  0
 35 37  2  0  0  0  0
 36 38  1  0  0  0  0
 37 36  1  0  0  0  0
 38 39  1  0  0  0  0
 38 40  1  0  0  0  0
 39 41  1  0  0  0  0
 40 42  1  0  0  0  0
 41 43  1  0  0  0  0
 42 43  1  0  0  0  0
 43 44  1  0  0  0  0
 45 46  1  0  0  0  0
 47 46  1  0  0  0  0
 47 48  1  0  0  0  0
 49 48  1  0  0  0  0
 50 49  1  0  0  0  0
M  END
>  <REMARK>
 VINA RESULT:    -4.290      2.880      6.454
 INTER + INTRA:         -13.212
 INTER:                  -6.242
 INTRA:                  -6.970
 UNBOUND:                -5.786
 SMILES CC(=O)N[C@@H]1[C@@H](O)C[C@](O)(C(=O)O)O[C@H]1C(O)[C@H](O)CNC(=O)OCc1cn(C2CCN(C)CC2)nn1
 SMILES IDX 20 1 18 2 16 3 15 4 9 5 8 6 14 7 6 8 5 9 10 10 11 12 12 13
 SMILES IDX 13 14 7 16 4 18 2 19 1 21 3 22 17 23 19 25 21 27 22 28 23 30
 SMILES IDX 24 31 25 32 26 33 27 34 37 35 28 36 36 37 29 38 30 39 35 40
 SMILES IDX 31 41 34 42 32 43 33 44
 H PARENT 10 11 13 15 7 17 4 20 17 24 19 26 21 29
 Flexibility Score: inf
  4 active torsions:
  status: ('A' for Active; 'I' for Inactive)
    1  A    between atoms: CA   and  CB  
    2  A    between atoms: CB   and  CG  
    3  A    between atoms: CG   and  CD  
    4  A    between atoms: CD   and  CE  

>  <TORSDO>
F 15

>  <BEGIN_>
RES LYS A 131

$$$$
ligand_57_pose_16_2HRL.pdbqt
 OpenBabel07062320523D

  6  5  0  0  0  0  0  0  0  0999 V2000
   33.1930   34.6630    9.2900 C   0  0  0  0  0  0  0  0  0  0  0  0
   32.0600   35.3600   10.0340 C   0  0  0  0  0  0  0  0  0  0  0  0
   30.7100   34.7340    9.7990 C   0  0  0  0  0  0  0  0  0  0  0  0
   30.4690   34.5200    8.3120 C   0  0  0  0  0  0  0  0  0  0  0  0
   29.0270   34.8280    7.9570 C   0  0  0  0  0  0  0  0  0  0  0  0
   28.9360   35.5400    6.6520 N   0  0  0  0  0  0  0  0  0  0  0  0
  1  2  1  0  0  0  0
  3  2  1  0  0  0  0
  4  3  1  0  0  0  0
  5  4  1  0  0  0  0
  6  5  1  0  0  0  0
M  END
>  <EGIN_R>
ES LYS A 135

>  <REMARK>
  4 active torsions:
  status: ('A' for Active; 'I' for Inactive)
    5  A    between atoms: CA   and  CB  
    6  A    between atoms: CB   and  CG  
    7  A    between atoms: CG   and  CD  
    8  A    between atoms: CD   and  CE  

$$$$
