ligand_37_pose_4_2HRL.pdbqt
 OpenBabel07062320523D

 55 56  0  0  1  0  0  0  0  0999 V2000
   25.9900   41.1610    3.9980 O   0  0  0  0  0  0  0  0  0  0  0  0
   27.2760   40.6020    4.1840 C   0  0  0  0  0  0  0  0  0  0  0  0
   28.3250   41.3830    4.7140 N   0  0  0  0  0  0  0  0  0  0  0  0
   28.0730   42.3970    4.9370 H   0  0  0  0  0  0  0  0  0  0  0  0
   27.3960   39.4080    3.8520 O   0  0  0  0  0  0  0  0  0  0  0  0
   29.6430   40.8820    4.9440 C   0  0  0  0  0  0  0  0  0  0  0  0
   29.9590   40.7700    6.3980 C   0  0  2  0  0  0  0  0  0  0  0  0
   29.8730   39.3120    6.8420 C   0  0  2  0  0  0  0  0  0  0  0  0
   31.1270   38.8100    7.4880 C   0  0  2  0  0  0  0  0  0  0  0  0
   30.6240   39.3850    9.7020 C   0  0  2  0  0  0  0  0  0  0  0  0
   31.5260   40.5700    9.5720 C   0  0  0  0  0  0  0  0  0  0  0  0
   30.8780   38.3800    8.8020 O   0  0  0  0  0  0  0  0  0  0  0  0
   32.7690   40.1600    8.8090 C   0  0  1  0  0  0  0  0  0  0  0  0
   32.3050   39.7260    7.4270 C   0  0  1  0  0  0  0  0  0  0  0  0
   29.3060   39.7790    9.6590 O   0  0  0  0  0  0  0  0  0  0  0  0
   28.9780   40.1410   10.5280 H   0  0  0  0  0  0  0  0  0  0  0  0
   30.8550   38.7750   11.0620 C   0  0  0  0  0  0  0  0  0  0  0  0
   31.7990   37.9660   11.2500 O   0  0  0  0  0  0  0  0  0  0  0  0
   30.0490   39.0760   12.1500 O   0  0  0  0  0  0  0  0  0  0  0  0
   30.3440   39.7470   12.8760 H   0  0  0  0  0  0  0  0  0  0  0  0
   33.6730   41.2010    8.7480 O   0  0  0  0  0  0  0  0  0  0  0  0
   34.5750   40.9530    9.0730 H   0  0  0  0  0  0  0  0  0  0  0  0
   33.4400   39.1470    6.7020 N   0  0  0  0  0  0  0  0  0  0  0  0
   33.8450   39.6070    5.4140 C   0  0  0  0  0  0  0  0  0  0  0  0
   34.0010   38.3570    7.1180 H   0  0  0  0  0  0  0  0  0  0  0  0
   35.0110   38.9750    4.7240 C   0  0  0  0  0  0  0  0  0  0  0  0
   33.2180   40.5440    4.8670 O   0  0  0  0  0  0  0  0  0  0  0  0
   29.6080   38.5180    5.7200 O   0  0  0  0  0  0  0  0  0  0  0  0
   29.7990   39.0460    4.8980 H   0  0  0  0  0  0  0  0  0  0  0  0
   29.0560   41.5350    7.1360 O   0  0  0  0  0  0  0  0  0  0  0  0
   28.7570   42.3530    6.6410 H   0  0  0  0  0  0  0  0  0  0  0  0
   25.3990   41.8680    5.0690 C   0  0  0  0  0  0  0  0  0  0  0  0
   25.2250   41.0210    6.2640 C   0  0  0  0  0  0  0  0  0  0  0  0
   24.1330   40.2760    6.6440 C   0  0  0  0  0  0  0  0  0  0  0  0
   26.1460   40.8240    7.2220 N   0  0  0  0  0  0  0  0  0  0  0  0
   24.4100   39.6520    7.8130 N   0  0  0  0  0  0  0  0  0  0  0  0
   25.6260   39.9990    8.1360 N   0  0  0  0  0  0  0  0  0  0  0  0
   23.5200   38.7810    8.5330 C   0  0  1  0  0  0  0  0  0  0  0  0
   23.4350   37.4370    7.8450 C   0  0  0  0  0  0  0  0  0  0  0  0
   23.9600   38.6790    9.9310 C   0  0  0  0  0  0  0  0  0  0  0  0
   23.7130   39.6280   10.7340 O   0  0  0  0  0  0  0  0  0  0  0  0
   24.6400   37.5830   10.4190 O   0  0  0  0  0  0  0  0  0  0  0  0
   26.0190   37.4590   10.5720 C   0  0  0  0  0  0  0  0  0  0  0  0
   26.5480   36.5560    9.5120 C   0  0  0  0  0  0  0  0  0  0  0  0
   26.1530   35.2380    9.4600 C   0  0  0  0  0  0  0  0  0  0  0  0
   27.4280   37.0360    8.5800 C   0  0  0  0  0  0  0  0  0  0  0  0
   26.6350   34.4030    8.4820 C   0  0  0  0  0  0  0  0  0  0  0  0
   27.9240   36.2270    7.5960 C   0  0  0  0  0  0  0  0  0  0  0  0
   27.5280   34.9130    7.5490 C   0  0  0  0  0  0  0  0  0  0  0  0
   29.8670   25.5550   16.9770 C   0  0  0  0  0  0  0  0  0  0  0  0
   28.3450   25.7220   17.0260 C   0  0  0  0  0  0  0  0  0  0  0  0
   27.6010   24.4020   16.8950 C   0  0  0  0  0  0  0  0  0  0  0  0
   26.6700   24.1590   18.0510 C   0  0  0  0  0  0  0  0  0  0  0  0
   25.4040   24.9900   17.8680 C   0  0  0  0  0  0  0  0  0  0  0  0
   24.5250   24.3760   16.8450 N   0  0  0  0  0  0  0  0  0  0  0  0
  1  2  1  0  0  0  0
  1 32  1  0  0  0  0
  2  3  1  0  0  0  0
  3  4  1  0  0  0  0
  3  6  1  0  0  0  0
  5  2  2  0  0  0  0
  7  6  1  6  0  0  0
  7  8  1  0  0  0  0
  7 30  1  0  0  0  0
  8 28  1  6  0  0  0
  9  8  1  1  0  0  0
  9 12  1  0  0  0  0
 10 15  1  6  0  0  0
 10 17  1  0  0  0  0
 11 10  1  0  0  0  0
 12 10  1  0  0  0  0
 13 21  1  6  0  0  0
 13 11  1  0  0  0  0
 14 23  1  1  0  0  0
 14  9  1  0  0  0  0
 14 13  1  0  0  0  0
 15 16  1  0  0  0  0
 17 18  2  0  0  0  0
 17 19  1  0  0  0  0
 19 20  1  0  0  0  0
 21 22  1  0  0  0  0
 23 25  1  0  0  0  0
 24 23  1  0  0  0  0
 26 24  1  0  0  0  0
 27 24  2  0  0  0  0
 29 28  1  0  0  0  0
 31 30  1  0  0  0  0
 32 33  1  0  0  0  0
 33 34  2  0  0  0  0
 33 35  1  0  0  0  0
 34 36  1  0  0  0  0
 35 37  2  0  0  0  0
 36 37  1  0  0  0  0
 36 38  1  0  0  0  0
 38 39  1  6  0  0  0
 38 40  1  0  0  0  0
 40 42  1  0  0  0  0
 40 41  2  0  0  0  0
 42 43  1  0  0  0  0
 44 43  1  0  0  0  0
 45 44  1  0  0  0  0
 46 44  2  0  0  0  0
 47 45  2  0  0  0  0
 48 46  1  0  0  0  0
 49 48  2  0  0  0  0
 49 47  1  0  0  0  0
 50 51  1  0  0  0  0
 52 51  1  0  0  0  0
 52 53  1  0  0  0  0
 54 53  1  0  0  0  0
 55 54  1  0  0  0  0
M  END
>  <REMARK>
 VINA RESULT:    -5.715      3.461      8.714
 INTER + INTRA:         -16.338
 INTER:                  -9.548
 INTRA:                  -6.790
 UNBOUND:                -5.110
 SMILES CC(=O)N[C@@H]1[C@@H](O)C[C@](O)(C(=O)O)O[C@H]1C(O)[C@H](O)CNC(=O)OCc1cn([C@@H](C)C(=O)OCc2ccccc2)nn1
 SMILES IDX 24 1 22 2 21 3 23 5 20 6 18 7 16 8 15 9 9 10 8 11 14 12 6 13
 SMILES IDX 5 14 10 15 11 17 12 18 13 19 7 21 4 23 2 24 1 26 3 27 17 28
 SMILES IDX 19 30 25 32 26 33 27 34 42 35 28 36 41 37 29 38 30 39 31 40
 SMILES IDX 32 41 33 42 34 43 35 44 36 45 40 46 37 47 39 48 38 49
 H PARENT 21 4 10 16 13 20 7 22 4 25 17 29 19 31
 Flexibility Score: inf
  4 active torsions:
  status: ('A' for Active; 'I' for Inactive)
    1  A    between atoms: CA   and  CB  
    2  A    between atoms: CB   and  CG  
    3  A    between atoms: CG   and  CD  
    4  A    between atoms: CD   and  CE  

>  <TORSDO>
F 19

>  <BEGIN_>
RES LYS A 131

$$$$
ligand_37_pose_4_2HRL.pdbqt
 OpenBabel07062320523D

  6  5  0  0  0  0  0  0  0  0999 V2000
   33.1930   34.6630    9.2900 C   0  0  0  0  0  0  0  0  0  0  0  0
   32.0600   35.3600   10.0340 C   0  0  0  0  0  0  0  0  0  0  0  0
   30.6890   34.8820    9.6290 C   0  0  0  0  0  0  0  0  0  0  0  0
   29.7230   34.9680   10.8000 C   0  0  0  0  0  0  0  0  0  0  0  0
   30.4620   34.7940   12.1140 C   0  0  0  0  0  0  0  0  0  0  0  0
   29.5330   34.3740   13.2000 N   0  0  0  0  0  0  0  0  0  0  0  0
  1  2  1  0  0  0  0
  3  2  1  0  0  0  0
  3  4  1  0  0  0  0
  4  5  1  0  0  0  0
  5  6  1  0  0  0  0
M  END
>  <EGIN_R>
ES LYS A 135

>  <REMARK>
  4 active torsions:
  status: ('A' for Active; 'I' for Inactive)
    5  A    between atoms: CA   and  CB  
    6  A    between atoms: CB   and  CG  
    7  A    between atoms: CG   and  CD  
    8  A    between atoms: CD   and  CE  

$$$$
