ligand_11_pose_13_2HRL.pdbqt
 OpenBabel07062320523D

 54 54  0  0  1  0  0  0  0  0999 V2000
   24.7350   35.9190   12.4380 O   0  0  0  0  0  0  0  0  0  0  0  0
   24.4730   36.4220   11.1570 C   0  0  0  0  0  0  0  0  0  0  0  0
   25.3560   37.2800   10.4870 N   0  0  0  0  0  0  0  0  0  0  0  0
   26.2470   37.5380   11.0280 H   0  0  0  0  0  0  0  0  0  0  0  0
   23.4070   36.0680   10.6290 O   0  0  0  0  0  0  0  0  0  0  0  0
   25.1930   37.8400    9.1760 C   0  0  0  0  0  0  0  0  0  0  0  0
   26.0270   37.1440    8.1730 C   0  0  2  0  0  0  0  0  0  0  0  0
   27.4780   37.5900    8.1840 C   0  0  1  0  0  0  0  0  0  0  0  0
   27.5910   39.0410    7.7080 C   0  0  2  0  0  0  0  0  0  0  0  0
   27.9330   38.9950    5.3930 C   0  0  2  0  0  0  0  0  0  0  0  0
   29.3530   38.6570    5.7450 C   0  0  0  0  0  0  0  0  0  0  0  0
   27.1150   39.2380    6.4530 O   0  0  0  0  0  0  0  0  0  0  0  0
   29.9260   39.4060    6.8940 C   0  0  1  0  0  0  0  0  0  0  0  0
   28.9440   39.6110    8.0110 C   0  0  1  0  0  0  0  0  0  0  0  0
   27.4300   37.8860    4.7110 O   0  0  0  0  0  0  0  0  0  0  0  0
   27.7260   37.8640    3.7780 H   0  0  0  0  0  0  0  0  0  0  0  0
   27.9090   40.1430    4.4520 C   0  0  0  0  0  0  0  0  0  0  0  0
   26.8740   40.3900    3.7880 O   0  0  0  0  0  0  0  0  0  0  0  0
   29.0110   40.9740    4.2720 O   0  0  0  0  0  0  0  0  0  0  0  0
   29.7030   40.9690    5.0230 H   0  0  0  0  0  0  0  0  0  0  0  0
   31.0150   38.6830    7.3780 O   0  0  0  0  0  0  0  0  0  0  0  0
   30.8910   38.4430    8.3340 H   0  0  0  0  0  0  0  0  0  0  0  0
   28.7800   40.9910    8.3630 N   0  0  0  0  0  0  0  0  0  0  0  0
   28.5270   41.3460    9.7120 C   0  0  0  0  0  0  0  0  0  0  0  0
   28.8470   41.7450    7.6180 H   0  0  0  0  0  0  0  0  0  0  0  0
   28.3570   42.7670   10.0780 C   0  0  0  0  0  0  0  0  0  0  0  0
   28.4380   40.4860   10.6300 O   0  0  0  0  0  0  0  0  0  0  0  0
   27.9730   37.4920    9.4700 O   0  0  0  0  0  0  0  0  0  0  0  0
   27.2150   37.3430   10.0890 H   0  0  0  0  0  0  0  0  0  0  0  0
   25.4770   37.1310    6.9330 O   0  0  0  0  0  0  0  0  0  0  0  0
   25.9580   37.6450    6.2470 H   0  0  0  0  0  0  0  0  0  0  0  0
   25.4830   34.7150   12.5810 C   0  0  0  0  0  0  0  0  0  0  0  0
   26.9070   34.9680   12.7510 C   0  0  0  0  0  0  0  0  0  0  0  0
   27.7650   34.4330   13.6740 C   0  0  0  0  0  0  0  0  0  0  0  0
   27.6600   35.7950   12.0090 N   0  0  0  0  0  0  0  0  0  0  0  0
   28.9980   34.9260   13.4900 N   0  0  0  0  0  0  0  0  0  0  0  0
   28.8980   35.7540   12.4670 N   0  0  0  0  0  0  0  0  0  0  0  0
   30.2420   34.6810   14.1960 C   0  0  1  0  0  0  0  0  0  0  0  0
   30.3370   33.2570   14.6030 C   0  0  0  0  0  0  0  0  0  0  0  0
   31.5230   32.8810   15.4090 C   0  0  0  0  0  0  0  0  0  0  0  0
   31.5050   33.4100   16.7710 C   0  0  0  0  0  0  0  0  0  0  0  0
   32.1700   34.4570   17.0890 O   0  0  0  0  0  0  0  0  0  0  0  0
   30.7530   32.7690   17.7580 O   0  0  0  0  0  0  0  0  0  0  0  0
   30.0550   33.3190   18.2400 H   0  0  0  0  0  0  0  0  0  0  0  0
   31.4040   35.2770   13.5590 C   0  0  0  0  0  0  0  0  0  0  0  0
   32.0140   36.2720   13.9460 O   0  0  0  0  0  0  0  0  0  0  0  0
   31.8700   34.6570   12.3840 O   0  0  0  0  0  0  0  0  0  0  0  0
   32.4300   35.1950   11.7450 H   0  0  0  0  0  0  0  0  0  0  0  0
   29.8670   25.5550   16.9770 C   0  0  0  0  0  0  0  0  0  0  0  0
   28.3450   25.7220   17.0260 C   0  0  0  0  0  0  0  0  0  0  0  0
   27.6030   24.3950   16.9840 C   0  0  0  0  0  0  0  0  0  0  0  0
   26.3150   24.4410   17.7580 C   0  0  0  0  0  0  0  0  0  0  0  0
   25.5140   23.1710   17.4900 C   0  0  0  0  0  0  0  0  0  0  0  0
   24.1320   23.5080   17.0740 N   0  0  0  0  0  0  0  0  0  0  0  0
  1 32  1  0  0  0  0
  2  1  1  0  0  0  0
  3  4  1  0  0  0  0
  3  2  1  0  0  0  0
  5  2  2  0  0  0  0
  6  3  1  0  0  0  0
  7  8  1  0  0  0  0
  7  6  1  1  0  0  0
  8 28  1  1  0  0  0
  9 14  1  0  0  0  0
  9  8  1  6  0  0  0
 10 17  1  6  0  0  0
 10 11  1  0  0  0  0
 10 12  1  0  0  0  0
 11 13  1  0  0  0  0
 12  9  1  0  0  0  0
 13 21  1  1  0  0  0
 13 14  1  0  0  0  0
 14 23  1  6  0  0  0
 15 10  1  0  0  0  0
 16 15  1  0  0  0  0
 18 17  2  0  0  0  0
 19 17  1  0  0  0  0
 19 20  1  0  0  0  0
 21 22  1  0  0  0  0
 23 24  1  0  0  0  0
 24 26  1  0  0  0  0
 24 27  2  0  0  0  0
 25 23  1  0  0  0  0
 28 29  1  0  0  0  0
 30  7  1  0  0  0  0
 31 30  1  0  0  0  0
 32 33  1  0  0  0  0
 33 34  2  0  0  0  0
 35 37  2  0  0  0  0
 35 33  1  0  0  0  0
 36 34  1  0  0  0  0
 36 38  1  0  0  0  0
 37 36  1  0  0  0  0
 38 39  1  6  0  0  0
 39 40  1  0  0  0  0
 40 41  1  0  0  0  0
 41 42  2  0  0  0  0
 41 43  1  0  0  0  0
 43 44  1  0  0  0  0
 45 46  2  0  0  0  0
 45 38  1  0  0  0  0
 47 45  1  0  0  0  0
 48 47  1  0  0  0  0
 49 50  1  0  0  0  0
 51 50  1  0  0  0  0
 51 52  1  0  0  0  0
 53 52  1  0  0  0  0
 54 53  1  0  0  0  0
M  END
>  <REMARK>
 VINA RESULT:    -3.895      3.054      6.222
 INTER + INTRA:         -15.318
 INTER:                  -9.380
 INTRA:                  -5.937
 UNBOUND:                -7.438
 SMILES CC(=O)N[C@@H]1[C@@H](O)C[C@](O)(C(=O)O)O[C@H]1C(O)[C@H](O)CNC(=O)OCc1cn([C@@H](CCC(=O)O)C(=O)O)nn1
 SMILES IDX 24 1 22 2 21 3 23 5 20 6 18 7 16 8 15 9 9 10 8 11 14 12 6 13
 SMILES IDX 5 14 10 15 11 17 12 18 13 19 7 21 4 23 2 24 1 26 3 27 17 28
 SMILES IDX 19 30 25 32 26 33 27 34 39 35 28 36 38 37 29 38 30 39 31 40
 SMILES IDX 32 41 33 42 34 43 35 45 36 46 37 47
 H PARENT 21 4 10 16 13 20 7 22 4 25 17 29 19 31 34 44 37 48
 Flexibility Score: inf
  4 active torsions:
  status: ('A' for Active; 'I' for Inactive)
    1  A    between atoms: CA   and  CB  
    2  A    between atoms: CB   and  CG  
    3  A    between atoms: CG   and  CD  
    4  A    between atoms: CD   and  CE  

>  <TORSDO>
F 21

>  <BEGIN_>
RES LYS A 131

$$$$
ligand_11_pose_13_2HRL.pdbqt
 OpenBabel07062320523D

  6  5  0  0  0  0  0  0  0  0999 V2000
   33.1930   34.6630    9.2900 C   0  0  0  0  0  0  0  0  0  0  0  0
   32.0600   35.3600   10.0340 C   0  0  0  0  0  0  0  0  0  0  0  0
   30.7750   35.4250    9.2500 C   0  0  0  0  0  0  0  0  0  0  0  0
   29.9860   34.1340    9.4060 C   0  0  0  0  0  0  0  0  0  0  0  0
   28.7100   34.1870    8.5870 C   0  0  0  0  0  0  0  0  0  0  0  0
   27.5370   33.7460    9.3920 N   0  0  0  0  0  0  0  0  0  0  0  0
  1  2  1  0  0  0  0
  3  4  1  0  0  0  0
  3  2  1  0  0  0  0
  5  6  1  0  0  0  0
  5  4  1  0  0  0  0
M  END
>  <EGIN_R>
ES LYS A 135

>  <REMARK>
  4 active torsions:
  status: ('A' for Active; 'I' for Inactive)
    5  A    between atoms: CA   and  CB  
    6  A    between atoms: CB   and  CG  
    7  A    between atoms: CG   and  CD  
    8  A    between atoms: CD   and  CE  

$$$$
