ligand_31_pose_7_2HRL.pdbqt
 OpenBabel07062320523D

 57 58  0  0  1  0  0  0  0  0999 V2000
   29.1690   33.0770   20.9450 O   0  0  0  0  0  0  0  0  0  0  0  0
   29.0680   33.6670   19.6890 C   0  0  0  0  0  0  0  0  0  0  0  0
   29.2220   32.9820   18.4760 N   0  0  0  0  0  0  0  0  0  0  0  0
   29.4240   31.9720   18.4770 H   0  0  0  0  0  0  0  0  0  0  0  0
   28.8220   34.9010   19.6500 O   0  0  0  0  0  0  0  0  0  0  0  0
   29.0960   33.7030   17.2060 C   0  0  0  0  0  0  0  0  0  0  0  0
   30.4180   33.6590   16.4880 C   0  0  2  0  0  0  0  0  0  0  0  0
   30.2770   33.2490   15.0480 C   0  0  1  0  0  0  0  0  0  0  0  0
   30.3410   34.4140   14.1030 C   0  0  2  0  0  0  0  0  0  0  0  0
   31.6370   36.3280   13.7650 C   0  0  2  0  0  0  0  0  0  0  0  0
   30.5140   37.0120   13.0570 C   0  0  0  0  0  0  0  0  0  0  0  0
   31.2780   35.3300   14.6130 O   0  0  0  0  0  0  0  0  0  0  0  0
   29.2800   36.2210   12.8950 C   0  0  1  0  0  0  0  0  0  0  0  0
   29.0620   35.2100   14.0060 C   0  0  1  0  0  0  0  0  0  0  0  0
   32.2400   37.3310   14.5690 O   0  0  0  0  0  0  0  0  0  0  0  0
   32.0220   38.2320   14.2250 H   0  0  0  0  0  0  0  0  0  0  0  0
   32.6920   35.8440   12.8410 C   0  0  0  0  0  0  0  0  0  0  0  0
   32.9320   36.4280   11.7470 O   0  0  0  0  0  0  0  0  0  0  0  0
   33.4760   34.7290   13.1140 O   0  0  0  0  0  0  0  0  0  0  0  0
   34.0910   34.3540   12.4000 H   0  0  0  0  0  0  0  0  0  0  0  0
   28.1660   37.0820   12.8160 O   0  0  0  0  0  0  0  0  0  0  0  0
   28.3900   37.9930   13.0950 H   0  0  0  0  0  0  0  0  0  0  0  0
   27.8780   34.4560   13.7770 N   0  0  0  0  0  0  0  0  0  0  0  0
   26.7030   34.7770   14.5250 C   0  0  0  0  0  0  0  0  0  0  0  0
   27.7940   33.6790   13.0890 H   0  0  0  0  0  0  0  0  0  0  0  0
   25.4230   34.0540   14.3610 C   0  0  0  0  0  0  0  0  0  0  0  0
   26.7360   35.7180   15.3710 O   0  0  0  0  0  0  0  0  0  0  0  0
   31.0870   32.1870   14.6910 O   0  0  0  0  0  0  0  0  0  0  0  0
   31.7970   32.4230   14.0420 H   0  0  0  0  0  0  0  0  0  0  0  0
   31.1470   32.6050   17.1040 O   0  0  0  0  0  0  0  0  0  0  0  0
   31.7300   32.2550   16.3620 H   0  0  0  0  0  0  0  0  0  0  0  0
   30.4230   32.7560   21.5090 C   0  0  0  0  0  0  0  0  0  0  0  0
   30.7390   31.3520   21.1640 C   0  0  0  0  0  0  0  0  0  0  0  0
   30.7520   30.2770   22.0110 C   0  0  0  0  0  0  0  0  0  0  0  0
   31.0690   30.8900   19.9480 N   0  0  0  0  0  0  0  0  0  0  0  0
   31.0880   29.1940   21.2880 N   0  0  0  0  0  0  0  0  0  0  0  0
   31.2800   29.5710   20.0340 N   0  0  0  0  0  0  0  0  0  0  0  0
   31.2280   27.8180   21.7720 C   0  0  0  0  0  0  0  0  0  0  0  0
   29.8550   27.1990   21.7780 C   0  0  0  0  0  0  0  0  0  0  0  0
   29.3880   27.0590   20.4220 N   0  0  0  0  0  0  0  0  0  0  0  0
   28.2190   27.6730   19.9130 C   0  0  0  0  0  0  0  0  0  0  0  0
   29.9360   26.4640   19.7380 H   0  0  0  0  0  0  0  0  0  0  0  0
   27.5340   28.3970   20.6970 O   0  0  0  0  0  0  0  0  0  0  0  0
   27.8410   27.4710   18.5610 N   0  0  0  0  0  0  0  0  0  0  0  0
   28.3830   26.8840   17.9000 H   0  0  0  0  0  0  0  0  0  0  0  0
   26.6400   28.1150   18.0770 C   0  0  0  0  0  0  0  0  0  0  0  0
   27.0290   29.1790   17.1270 C   0  0  0  0  0  0  0  0  0  0  0  0
   26.1820   30.2040   16.7210 C   0  0  0  0  0  0  0  0  0  0  0  0
   28.1750   29.3270   16.5390 O   0  0  0  0  0  0  0  0  0  0  0  0
   26.9240   30.9670   15.8460 C   0  0  0  0  0  0  0  0  0  0  0  0
   28.1650   30.3710   15.7690 C   0  0  0  0  0  0  0  0  0  0  0  0
   29.8670   25.5550   16.9770 C   0  0  0  0  0  0  0  0  0  0  0  0
   28.3450   25.7220   17.0260 C   0  0  0  0  0  0  0  0  0  0  0  0
   27.6010   24.4020   16.8890 C   0  0  0  0  0  0  0  0  0  0  0  0
   26.1490   24.5300   17.2600 C   0  0  0  0  0  0  0  0  0  0  0  0
   25.5780   23.1480   17.5600 C   0  0  0  0  0  0  0  0  0  0  0  0
   24.1560   23.0730   17.1480 N   0  0  0  0  0  0  0  0  0  0  0  0
  1 32  1  0  0  0  0
  2  1  1  0  0  0  0
  3  4  1  0  0  0  0
  3  2  1  0  0  0  0
  5  2  2  0  0  0  0
  6  3  1  0  0  0  0
  7 30  1  0  0  0  0
  7  6  1  1  0  0  0
  8 28  1  6  0  0  0
  8  7  1  0  0  0  0
  9 12  1  0  0  0  0
  9  8  1  1  0  0  0
 10 17  1  6  0  0  0
 10 15  1  0  0  0  0
 10 12  1  0  0  0  0
 11 10  1  0  0  0  0
 13 21  1  1  0  0  0
 13 11  1  0  0  0  0
 13 14  1  0  0  0  0
 14 23  1  6  0  0  0
 14  9  1  0  0  0  0
 16 15  1  0  0  0  0
 17 19  1  0  0  0  0
 18 17  2  0  0  0  0
 20 19  1  0  0  0  0
 21 22  1  0  0  0  0
 23 24  1  0  0  0  0
 24 27  2  0  0  0  0
 25 23  1  0  0  0  0
 26 24  1  0  0  0  0
 29 28  1  0  0  0  0
 31 30  1  0  0  0  0
 33 32  1  0  0  0  0
 33 34  2  0  0  0  0
 35 37  2  0  0  0  0
 35 33  1  0  0  0  0
 36 38  1  0  0  0  0
 36 34  1  0  0  0  0
 37 36  1  0  0  0  0
 38 39  1  0  0  0  0
 40 39  1  0  0  0  0
 41 40  1  0  0  0  0
 41 43  2  0  0  0  0
 42 40  1  0  0  0  0
 44 41  1  0  0  0  0
 45 44  1  0  0  0  0
 46 44  1  0  0  0  0
 47 46  1  0  0  0  0
 48 47  2  0  0  0  0
 49 47  1  0  0  0  0
 50 48  1  0  0  0  0
 51 50  2  0  0  0  0
 51 49  1  0  0  0  0
 52 53  1  0  0  0  0
 54 53  1  0  0  0  0
 54 55  1  0  0  0  0
 55 56  1  0  0  0  0
 57 56  1  0  0  0  0
M  END
>  <REMARK>
 VINA RESULT:    -5.013      3.170      7.528
 INTER + INTRA:         -15.757
 INTER:                  -9.475
 INTRA:                  -6.282
 UNBOUND:                -5.909
 SMILES CC(=O)N[C@@H]1[C@@H](O)C[C@](O)(C(=O)O)O[C@H]1C(O)[C@H](O)CNC(=O)OCc1cn(CCNC(=O)NCc2ccco2)nn1
 SMILES IDX 24 1 22 2 21 3 23 5 20 6 18 7 16 8 15 9 9 10 8 11 14 12 6 13
 SMILES IDX 5 14 10 15 11 17 12 18 13 19 7 21 4 23 2 24 1 26 3 27 17 28
 SMILES IDX 19 30 25 32 26 33 27 34 42 35 28 36 41 37 29 38 30 39 31 40
 SMILES IDX 32 41 33 43 34 44 35 46 36 47 37 48 40 49 38 50 39 51
 H PARENT 21 4 10 16 13 20 7 22 4 25 17 29 19 31 31 42 34 45
 Flexibility Score: inf
  4 active torsions:
  status: ('A' for Active; 'I' for Inactive)
    1  A    between atoms: CA   and  CB  
    2  A    between atoms: CB   and  CG  
    3  A    between atoms: CG   and  CD  
    4  A    between atoms: CD   and  CE  

>  <TORSDO>
F 19

>  <BEGIN_>
RES LYS A 131

$$$$
ligand_31_pose_7_2HRL.pdbqt
 OpenBabel07062320523D

  6  5  0  0  0  0  0  0  0  0999 V2000
   33.1930   34.6630    9.2900 C   0  0  0  0  0  0  0  0  0  0  0  0
   32.0600   35.3600   10.0340 C   0  0  0  0  0  0  0  0  0  0  0  0
   30.7080   34.7400    9.7910 C   0  0  0  0  0  0  0  0  0  0  0  0
   30.4870   34.4990    8.3060 C   0  0  0  0  0  0  0  0  0  0  0  0
   29.0710   34.8720    7.9110 C   0  0  0  0  0  0  0  0  0  0  0  0
   28.9720   36.3180    7.5710 N   0  0  0  0  0  0  0  0  0  0  0  0
  1  2  1  0  0  0  0
  3  2  1  0  0  0  0
  4  3  1  0  0  0  0
  5  4  1  0  0  0  0
  6  5  1  0  0  0  0
M  END
>  <EGIN_R>
ES LYS A 135

>  <REMARK>
  4 active torsions:
  status: ('A' for Active; 'I' for Inactive)
    5  A    between atoms: CA   and  CB  
    6  A    between atoms: CB   and  CG  
    7  A    between atoms: CG   and  CD  
    8  A    between atoms: CD   and  CE  

$$$$
