ligand_42_pose_5_2HRL.pdbqt
 OpenBabel07062320523D

 52 54  0  0  1  0  0  0  0  0999 V2000
   26.7090   28.1270   20.6200 C   0  0  0  0  0  0  0  0  0  0  0  0
   28.1850   27.9320   20.5200 C   0  0  2  0  0  0  0  0  0  0  0  0
   28.8900   29.2480   20.1540 C   0  0  1  0  0  0  0  0  0  0  0  0
   30.2400   29.2140   20.7760 C   0  0  2  0  0  0  0  0  0  0  0  0
   31.4410   28.7230   22.6500 C   0  0  2  0  0  0  0  0  0  0  0  0
   32.5600   29.0560   21.6880 C   0  0  0  0  0  0  0  0  0  0  0  0
   30.1990   28.6960   22.0660 O   0  0  0  0  0  0  0  0  0  0  0  0
   32.3400   30.3850   20.9900 C   0  0  1  0  0  0  0  0  0  0  0  0
   30.8680   30.6020   20.8950 C   0  0  1  0  0  0  0  0  0  0  0  0
   31.5310   29.6510   23.6900 O   0  0  0  0  0  0  0  0  0  0  0  0
   32.4960   29.8790   23.7670 H   0  0  0  0  0  0  0  0  0  0  0  0
   31.7180   27.3650   23.1710 C   0  0  0  0  0  0  0  0  0  0  0  0
   32.9060   26.9790   23.2780 O   0  0  0  0  0  0  0  0  0  0  0  0
   30.7140   26.4900   23.5520 O   0  0  0  0  0  0  0  0  0  0  0  0
   30.8350   25.7710   24.2580 H   0  0  0  0  0  0  0  0  0  0  0  0
   32.9600   31.3540   21.8090 O   0  0  0  0  0  0  0  0  0  0  0  0
   32.3130   31.7710   22.4060 H   0  0  0  0  0  0  0  0  0  0  0  0
   30.4380   31.5050   19.8910 N   0  0  0  0  0  0  0  0  0  0  0  0
   30.4960   32.9240   19.9410 C   0  0  0  0  0  0  0  0  0  0  0  0
   30.0370   31.1000   19.0170 H   0  0  0  0  0  0  0  0  0  0  0  0
   30.0150   33.7870   18.8220 C   0  0  0  0  0  0  0  0  0  0  0  0
   30.9730   33.4400   20.9770 O   0  0  0  0  0  0  0  0  0  0  0  0
   28.9380   29.3270   18.7890 O   0  0  0  0  0  0  0  0  0  0  0  0
   29.7150   28.9890   18.3340 H   0  0  0  0  0  0  0  0  0  0  0  0
   28.5160   27.0000   19.5730 O   0  0  0  0  0  0  0  0  0  0  0  0
   28.8770   26.1480   19.9000 H   0  0  0  0  0  0  0  0  0  0  0  0
   26.2390   29.1420   19.7430 N   0  0  0  0  0  0  0  0  0  0  0  0
   25.5420   28.8790   18.5530 C   0  0  0  0  0  0  0  0  0  0  0  0
   26.4080   30.1690   19.9690 H   0  0  0  0  0  0  0  0  0  0  0  0
   25.2640   27.7490   18.1190 O   0  0  0  0  0  0  0  0  0  0  0  0
   25.1110   29.9650   17.7690 O   0  0  0  0  0  0  0  0  0  0  0  0
   25.3300   29.9420   16.3910 C   0  0  0  0  0  0  0  0  0  0  0  0
   26.7650   30.2150   16.1210 C   0  0  0  0  0  0  0  0  0  0  0  0
   27.3310   31.4560   15.8480 C   0  0  0  0  0  0  0  0  0  0  0  0
   27.7910   29.3480   16.0840 N   0  0  0  0  0  0  0  0  0  0  0  0
   28.6540   31.3140   15.6570 N   0  0  0  0  0  0  0  0  0  0  0  0
   28.8910   30.0230   15.8090 N   0  0  0  0  0  0  0  0  0  0  0  0
   29.5740   32.3570   15.3570 C   0  0  0  0  0  0  0  0  0  0  0  0
   30.9110   32.2260   15.6740 C   0  0  0  0  0  0  0  0  0  0  0  0
   29.1900   33.5330   14.7460 C   0  0  0  0  0  0  0  0  0  0  0  0
   31.8290   33.2360   15.3890 C   0  0  0  0  0  0  0  0  0  0  0  0
   30.0900   34.5570   14.4520 C   0  0  0  0  0  0  0  0  0  0  0  0
   31.4190   34.4020   14.7790 C   0  0  0  0  0  0  0  0  0  0  0  0
   29.9560   35.8080   13.8550 O   0  0  0  0  0  0  0  0  0  0  0  0
   32.0720   35.5770   14.3670 O   0  0  0  0  0  0  0  0  0  0  0  0
   31.0850   36.5970   14.1830 C   0  0  0  0  0  0  0  0  0  0  0  0
   29.8670   25.5550   16.9770 C   0  0  0  0  0  0  0  0  0  0  0  0
   28.3450   25.7220   17.0260 C   0  0  0  0  0  0  0  0  0  0  0  0
   27.6010   24.4030   16.8870 C   0  0  0  0  0  0  0  0  0  0  0  0
   26.6080   24.1920   17.9970 C   0  0  0  0  0  0  0  0  0  0  0  0
   25.3170   23.6180   17.4230 C   0  0  0  0  0  0  0  0  0  0  0  0
   24.6440   22.7550   18.4220 N   0  0  0  0  0  0  0  0  0  0  0  0
  2  1  1  6  0  0  0
  3 23  1  6  0  0  0
  3  2  1  0  0  0  0
  4  3  1  1  0  0  0
  4  9  1  0  0  0  0
  4  7  1  0  0  0  0
  5 12  1  1  0  0  0
  5 10  1  0  0  0  0
  6  5  1  0  0  0  0
  7  5  1  0  0  0  0
  8  6  1  0  0  0  0
  8 16  1  1  0  0  0
  9 18  1  6  0  0  0
  9  8  1  0  0  0  0
 10 11  1  0  0  0  0
 12 13  2  0  0  0  0
 12 14  1  0  0  0  0
 14 15  1  0  0  0  0
 16 17  1  0  0  0  0
 18 19  1  0  0  0  0
 19 22  2  0  0  0  0
 20 18  1  0  0  0  0
 21 19  1  0  0  0  0
 24 23  1  0  0  0  0
 25 26  1  0  0  0  0
 25  2  1  0  0  0  0
 27 29  1  0  0  0  0
 27  1  1  0  0  0  0
 28 27  1  0  0  0  0
 30 28  2  0  0  0  0
 31 28  1  0  0  0  0
 32 31  1  0  0  0  0
 33 32  1  0  0  0  0
 34 33  2  0  0  0  0
 35 33  1  0  0  0  0
 36 37  1  0  0  0  0
 36 34  1  0  0  0  0
 37 35  2  0  0  0  0
 38 36  1  0  0  0  0
 38 39  2  0  0  0  0
 40 38  1  0  0  0  0
 41 39  1  0  0  0  0
 42 40  2  0  0  0  0
 42 43  1  0  0  0  0
 43 41  2  0  0  0  0
 44 46  1  0  0  0  0
 44 42  1  0  0  0  0
 45 43  1  0  0  0  0
 46 45  1  0  0  0  0
 47 48  1  0  0  0  0
 49 48  1  0  0  0  0
 49 50  1  0  0  0  0
 51 50  1  0  0  0  0
 51 52  1  0  0  0  0
M  END
>  <REMARK>
 VINA RESULT:    -5.772      2.035      2.712
 INTER + INTRA:         -14.538
 INTER:                  -8.422
 INTRA:                  -6.115
 UNBOUND:                -4.548
 SMILES CC(=O)N[C@@H]1[C@@H](O)C[C@](O)(C(=O)O)O[C@H]1C(O)[C@H](O)CNC(=O)OCc1cn(-c2ccc3c(c2)OCO3)nn1
 SMILES IDX 20 1 18 2 16 3 15 4 9 5 8 6 14 7 6 8 5 9 10 10 11 12 12 13
 SMILES IDX 13 14 7 16 4 18 2 19 1 21 3 22 17 23 19 25 21 27 22 28 23 30
 SMILES IDX 24 31 25 32 26 33 27 34 39 35 28 36 38 37 29 38 30 39 34 40
 SMILES IDX 31 41 33 42 32 43 35 44 37 45 36 46
 H PARENT 10 11 13 15 7 17 4 20 17 24 19 26 21 29
 Flexibility Score: inf
  4 active torsions:
  status: ('A' for Active; 'I' for Inactive)
    1  A    between atoms: CA   and  CB  
    2  A    between atoms: CB   and  CG  
    3  A    between atoms: CG   and  CD  
    4  A    between atoms: CD   and  CE  

>  <TORSDO>
F 15

>  <BEGIN_>
RES LYS A 131

$$$$
ligand_42_pose_5_2HRL.pdbqt
 OpenBabel07062320523D

  6  5  0  0  0  0  0  0  0  0999 V2000
   33.1930   34.6630    9.2900 C   0  0  0  0  0  0  0  0  0  0  0  0
   32.0600   35.3600   10.0340 C   0  0  0  0  0  0  0  0  0  0  0  0
   30.7230   34.6850    9.8650 C   0  0  0  0  0  0  0  0  0  0  0  0
   30.2470   34.7910    8.4240 C   0  0  0  0  0  0  0  0  0  0  0  0
   28.7610   34.5030    8.3320 C   0  0  0  0  0  0  0  0  0  0  0  0
   28.2710   33.8120    9.5570 N   0  0  0  0  0  0  0  0  0  0  0  0
  1  2  1  0  0  0  0
  3  2  1  0  0  0  0
  4  3  1  0  0  0  0
  5  4  1  0  0  0  0
  5  6  1  0  0  0  0
M  END
>  <EGIN_R>
ES LYS A 135

>  <REMARK>
  4 active torsions:
  status: ('A' for Active; 'I' for Inactive)
    5  A    between atoms: CA   and  CB  
    6  A    between atoms: CB   and  CG  
    7  A    between atoms: CG   and  CD  
    8  A    between atoms: CD   and  CE  

$$$$
