ligand_85_pose_2_2HRL.pdbqt
 OpenBabel07062320523D

 55 56  0  0  1  0  0  0  0  0999 V2000
   24.2010   35.5540    9.7000 N   0  0  0  0  0  0  0  0  0  0  0  0
   23.2750   35.3920   10.7420 C   0  0  0  0  0  0  0  0  0  0  0  0
   22.4670   36.3040   11.0120 O   0  0  0  0  0  0  0  0  0  0  0  0
   24.8710   34.7830    9.4800 H   0  0  0  0  0  0  0  0  0  0  0  0
   24.2740   36.7530    8.9080 C   0  0  0  0  0  0  0  0  0  0  0  0
   25.2550   37.7160    9.5270 C   0  0  2  0  0  0  0  0  0  0  0  0
   26.0710   38.4550    8.4970 C   0  0  2  0  0  0  0  0  0  0  0  0
   26.9210   37.5200    7.7240 C   0  0  2  0  0  0  0  0  0  0  0  0
   28.5210   35.8770    7.7440 C   0  0  2  0  0  0  0  0  0  0  0  0
   28.0480   35.7370    6.3190 C   0  0  0  0  0  0  0  0  0  0  0  0
   27.9550   36.9250    8.4270 O   0  0  0  0  0  0  0  0  0  0  0  0
   27.9770   37.0380    5.5890 C   0  0  1  0  0  0  0  0  0  0  0  0
   27.5580   38.1850    6.5030 C   0  0  1  0  0  0  0  0  0  0  0  0
   29.9040   36.1270    7.7080 O   0  0  0  0  0  0  0  0  0  0  0  0
   30.0350   36.9670    8.2440 H   0  0  0  0  0  0  0  0  0  0  0  0
   28.2880   34.6480    8.5110 C   0  0  0  0  0  0  0  0  0  0  0  0
   29.2610   33.9220    8.8310 O   0  0  0  0  0  0  0  0  0  0  0  0
   27.0380   34.2140    8.9220 O   0  0  0  0  0  0  0  0  0  0  0  0
   26.9190   33.1960    9.0410 H   0  0  0  0  0  0  0  0  0  0  0  0
   29.2410   37.2960    5.0230 O   0  0  0  0  0  0  0  0  0  0  0  0
   29.5620   38.1310    5.4580 H   0  0  0  0  0  0  0  0  0  0  0  0
   26.6730   39.0970    5.8610 N   0  0  0  0  0  0  0  0  0  0  0  0
   27.1760   40.0720    4.9640 C   0  0  0  0  0  0  0  0  0  0  0  0
   25.6500   39.0700    6.0320 H   0  0  0  0  0  0  0  0  0  0  0  0
   26.2030   41.0110    4.3110 C   0  0  0  0  0  0  0  0  0  0  0  0
   28.3800   40.2010    4.6800 O   0  0  0  0  0  0  0  0  0  0  0  0
   26.7210   39.5100    9.0860 O   0  0  0  0  0  0  0  0  0  0  0  0
   27.4140   39.8380    8.4290 H   0  0  0  0  0  0  0  0  0  0  0  0
   26.1970   36.9860   10.3160 O   0  0  0  0  0  0  0  0  0  0  0  0
   26.1780   36.0340   10.0910 H   0  0  0  0  0  0  0  0  0  0  0  0
   23.1920   34.2430   11.5210 O   0  0  0  0  0  0  0  0  0  0  0  0
   23.7730   34.2340   12.8110 C   0  0  0  0  0  0  0  0  0  0  0  0
   25.2330   34.3760   12.7360 C   0  0  0  0  0  0  0  0  0  0  0  0
   26.1480   34.6380   13.7350 C   0  0  0  0  0  0  0  0  0  0  0  0
   25.9610   34.2670   11.6120 N   0  0  0  0  0  0  0  0  0  0  0  0
   27.3970   34.6810   13.1980 N   0  0  0  0  0  0  0  0  0  0  0  0
   27.2360   34.4520   11.9180 N   0  0  0  0  0  0  0  0  0  0  0  0
   28.6270   34.9210   13.8670 C   0  0  0  0  0  0  0  0  0  0  0  0
   29.4100   33.8660   14.3130 C   0  0  0  0  0  0  0  0  0  0  0  0
   29.0410   36.2170   14.0700 C   0  0  0  0  0  0  0  0  0  0  0  0
   30.6010   34.0760   14.9600 C   0  0  0  0  0  0  0  0  0  0  0  0
   30.2380   36.4660   14.7200 C   0  0  0  0  0  0  0  0  0  0  0  0
   31.6030   32.7440   15.5310 Cl  0  0  0  0  0  0  0  0  0  0  0  0
   31.0000   35.3830   15.1560 C   0  0  0  0  0  0  0  0  0  0  0  0
   28.2160   37.3050   13.6000 C   0  0  0  0  0  0  0  0  0  0  0  0
   28.2410   37.7250   12.4080 O   0  0  0  0  0  0  0  0  0  0  0  0
   27.3300   37.9520   14.4910 N   0  0  0  0  0  0  0  0  0  0  0  0
   27.2670   37.5070   15.8620 C   0  0  0  0  0  0  0  0  0  0  0  0
   26.4760   39.0530   14.0710 C   0  0  0  0  0  0  0  0  0  0  0  0
   29.8670   25.5550   16.9770 C   0  0  0  0  0  0  0  0  0  0  0  0
   28.3450   25.7220   17.0260 C   0  0  0  0  0  0  0  0  0  0  0  0
   27.6000   24.4090   16.8420 C   0  0  0  0  0  0  0  0  0  0  0  0
   26.1600   24.5100   17.2630 C   0  0  0  0  0  0  0  0  0  0  0  0
   25.9860   25.7030   18.1980 C   0  0  0  0  0  0  0  0  0  0  0  0
   25.7370   25.2420   19.5850 N   0  0  0  0  0  0  0  0  0  0  0  0
  1  2  1  0  0  0  0
  2  3  2  0  0  0  0
  2 31  1  0  0  0  0
  4  1  1  0  0  0  0
  5  1  1  0  0  0  0
  6  5  1  6  0  0  0
  6 29  1  0  0  0  0
  7 27  1  1  0  0  0
  7  6  1  0  0  0  0
  8 11  1  0  0  0  0
  8  7  1  1  0  0  0
  9 14  1  6  0  0  0
  9 11  1  0  0  0  0
  9 16  1  0  0  0  0
 10  9  1  0  0  0  0
 12 20  1  1  0  0  0
 12 10  1  0  0  0  0
 12 13  1  0  0  0  0
 13 22  1  6  0  0  0
 13  8  1  0  0  0  0
 14 15  1  0  0  0  0
 16 17  2  0  0  0  0
 16 18  1  0  0  0  0
 18 19  1  0  0  0  0
 20 21  1  0  0  0  0
 22 24  1  0  0  0  0
 23 22  1  0  0  0  0
 25 23  1  0  0  0  0
 26 23  2  0  0  0  0
 28 27  1  0  0  0  0
 30 29  1  0  0  0  0
 31 32  1  0  0  0  0
 33 32  1  0  0  0  0
 33 34  2  0  0  0  0
 35 37  2  0  0  0  0
 35 33  1  0  0  0  0
 36 34  1  0  0  0  0
 36 38  1  0  0  0  0
 37 36  1  0  0  0  0
 38 40  2  0  0  0  0
 38 39  1  0  0  0  0
 39 41  2  0  0  0  0
 40 42  1  0  0  0  0
 41 44  1  0  0  0  0
 41 43  1  0  0  0  0
 42 44  2  0  0  0  0
 45 40  1  0  0  0  0
 45 47  1  0  0  0  0
 46 45  2  0  0  0  0
 47 48  1  0  0  0  0
 49 47  1  0  0  0  0
 50 51  1  0  0  0  0
 52 51  1  0  0  0  0
 52 53  1  0  0  0  0
 53 54  1  0  0  0  0
 54 55  1  0  0  0  0
M  END
>  <REMARK>
 VINA RESULT:    -5.122      2.098      2.888
 INTER + INTRA:         -15.351
 INTER:                  -9.926
 INTRA:                  -5.426
 UNBOUND:                -6.187
 SMILES CC(=O)N[C@@H]1[C@@H](O)C[C@](O)(C(=O)O)O[C@H]1C(O)[C@H](O)CNC(=O)OCc1cn(-c2cc(Cl)ccc2C(=O)N(C)C)nn1
 SMILES IDX 21 1 22 2 23 3 20 5 18 6 16 7 15 8 9 9 8 10 14 11 6 12 5 13
 SMILES IDX 10 14 11 16 12 17 13 18 7 20 4 22 2 23 1 25 3 26 17 27 19 29
 SMILES IDX 24 31 25 32 26 33 27 34 42 35 28 36 41 37 29 38 30 39 35 40
 SMILES IDX 31 41 34 42 32 43 33 44 36 45 37 46 38 47 39 48 40 49
 H PARENT 21 4 10 15 13 19 7 21 4 24 17 28 19 30
 Flexibility Score: inf
  4 active torsions:
  status: ('A' for Active; 'I' for Inactive)
    1  A    between atoms: CA   and  CB  
    2  A    between atoms: CB   and  CG  
    3  A    between atoms: CG   and  CD  
    4  A    between atoms: CD   and  CE  

>  <TORSDO>
F 16

>  <BEGIN_>
RES LYS A 131

$$$$
ligand_85_pose_2_2HRL.pdbqt
 OpenBabel07062320523D

  6  5  0  0  0  0  0  0  0  0999 V2000
   33.1930   34.6630    9.2900 C   0  0  0  0  0  0  0  0  0  0  0  0
   32.0600   35.3600   10.0340 C   0  0  0  0  0  0  0  0  0  0  0  0
   32.3910   35.6850   11.4680 C   0  0  0  0  0  0  0  0  0  0  0  0
   32.1520   37.1600   11.7520 C   0  0  0  0  0  0  0  0  0  0  0  0
   31.7840   37.8960   10.4780 C   0  0  0  0  0  0  0  0  0  0  0  0
   30.8600   39.0290   10.7600 N   0  0  0  0  0  0  0  0  0  0  0  0
  1  2  1  0  0  0  0
  2  3  1  0  0  0  0
  3  4  1  0  0  0  0
  5  6  1  0  0  0  0
  5  4  1  0  0  0  0
M  END
>  <EGIN_R>
ES LYS A 135

>  <REMARK>
  4 active torsions:
  status: ('A' for Active; 'I' for Inactive)
    5  A    between atoms: CA   and  CB  
    6  A    between atoms: CB   and  CG  
    7  A    between atoms: CG   and  CD  
    8  A    between atoms: CD   and  CE  

$$$$
