ligand_42_pose_7_2HRL.pdbqt
 OpenBabel07062320523D

 52 54  0  0  1  0  0  0  0  0999 V2000
   30.2940   32.7040   20.1060 C   0  0  0  0  0  0  0  0  0  0  0  0
   29.1230   31.7850   19.9940 C   0  0  2  0  0  0  0  0  0  0  0  0
   29.5770   30.3160   19.9740 C   0  0  1  0  0  0  0  0  0  0  0  0
   28.3750   29.4870   19.6980 C   0  0  2  0  0  0  0  0  0  0  0  0
   26.1390   29.2280   20.0590 C   0  0  2  0  0  0  0  0  0  0  0  0
   26.3860   28.1130   19.0650 C   0  0  0  0  0  0  0  0  0  0  0  0
   27.2310   30.0320   20.2710 O   0  0  0  0  0  0  0  0  0  0  0  0
   27.5480   27.2290   19.4730 C   0  0  1  0  0  0  0  0  0  0  0  0
   28.4960   28.0700   20.2600 C   0  0  1  0  0  0  0  0  0  0  0  0
   25.6820   28.6150   21.2270 O   0  0  0  0  0  0  0  0  0  0  0  0
   24.6890   28.6740   21.1930 H   0  0  0  0  0  0  0  0  0  0  0  0
   25.0650   30.0750   19.4900 C   0  0  0  0  0  0  0  0  0  0  0  0
   25.3080   31.2760   19.2220 O   0  0  0  0  0  0  0  0  0  0  0  0
   23.7900   29.5980   19.2360 O   0  0  0  0  0  0  0  0  0  0  0  0
   23.3150   29.7130   18.3470 H   0  0  0  0  0  0  0  0  0  0  0  0
   26.9870   26.1990   20.2590 O   0  0  0  0  0  0  0  0  0  0  0  0
   27.5290   26.0300   21.0510 H   0  0  0  0  0  0  0  0  0  0  0  0
   29.8320   27.6010   20.3260 N   0  0  0  0  0  0  0  0  0  0  0  0
   30.5040   27.1090   21.4770 C   0  0  0  0  0  0  0  0  0  0  0  0
   30.3920   27.6120   19.4460 H   0  0  0  0  0  0  0  0  0  0  0  0
   31.9200   26.6360   21.4390 C   0  0  0  0  0  0  0  0  0  0  0  0
   29.8580   27.0830   22.5490 O   0  0  0  0  0  0  0  0  0  0  0  0
   30.5380   30.1930   19.0090 O   0  0  0  0  0  0  0  0  0  0  0  0
   30.7760   30.9690   18.4920 H   0  0  0  0  0  0  0  0  0  0  0  0
   28.3960   32.0170   18.8570 O   0  0  0  0  0  0  0  0  0  0  0  0
   28.8740   32.4260   18.1030 H   0  0  0  0  0  0  0  0  0  0  0  0
   31.0560   32.7530   18.9080 N   0  0  0  0  0  0  0  0  0  0  0  0
   31.0520   33.8480   18.0290 C   0  0  0  0  0  0  0  0  0  0  0  0
   31.6760   31.9330   18.6300 H   0  0  0  0  0  0  0  0  0  0  0  0
   30.3850   34.8850   18.1770 O   0  0  0  0  0  0  0  0  0  0  0  0
   31.8590   33.7920   16.8780 O   0  0  0  0  0  0  0  0  0  0  0  0
   31.2670   33.5380   15.6400 C   0  0  0  0  0  0  0  0  0  0  0  0
   30.2170   32.5000   15.8060 C   0  0  0  0  0  0  0  0  0  0  0  0
   28.8640   32.6430   15.5190 C   0  0  0  0  0  0  0  0  0  0  0  0
   30.3470   31.2400   16.2560 N   0  0  0  0  0  0  0  0  0  0  0  0
   28.2220   31.4940   15.7950 N   0  0  0  0  0  0  0  0  0  0  0  0
   29.1560   30.6710   16.2380 N   0  0  0  0  0  0  0  0  0  0  0  0
   26.8300   31.2520   15.6310 C   0  0  0  0  0  0  0  0  0  0  0  0
   26.0100   32.2200   15.0860 C   0  0  0  0  0  0  0  0  0  0  0  0
   26.2320   30.0640   15.9990 C   0  0  0  0  0  0  0  0  0  0  0  0
   24.6430   32.0040   14.9160 C   0  0  0  0  0  0  0  0  0  0  0  0
   24.8680   29.8260   15.8390 C   0  0  0  0  0  0  0  0  0  0  0  0
   24.0710   30.8080   15.2920 C   0  0  0  0  0  0  0  0  0  0  0  0
   24.0460   28.7390   16.1230 O   0  0  0  0  0  0  0  0  0  0  0  0
   22.7650   30.2890   15.2560 O   0  0  0  0  0  0  0  0  0  0  0  0
   22.7000   29.1770   16.1560 C   0  0  0  0  0  0  0  0  0  0  0  0
   29.8670   25.5550   16.9770 C   0  0  0  0  0  0  0  0  0  0  0  0
   28.3450   25.7220   17.0260 C   0  0  0  0  0  0  0  0  0  0  0  0
   27.6010   24.4020   16.8940 C   0  0  0  0  0  0  0  0  0  0  0  0
   26.1480   24.5320   17.2550 C   0  0  0  0  0  0  0  0  0  0  0  0
   25.6220   23.1860   17.7440 C   0  0  0  0  0  0  0  0  0  0  0  0
   25.4930   23.1850   19.2210 N   0  0  0  0  0  0  0  0  0  0  0  0
  2  1  1  6  0  0  0
  3 23  1  6  0  0  0
  3  2  1  0  0  0  0
  4  3  1  1  0  0  0
  4  9  1  0  0  0  0
  4  7  1  0  0  0  0
  5 12  1  6  0  0  0
  5  7  1  0  0  0  0
  5 10  1  0  0  0  0
  6  8  1  0  0  0  0
  6  5  1  0  0  0  0
  8 16  1  1  0  0  0
  8  9  1  0  0  0  0
  9 18  1  6  0  0  0
 11 10  1  0  0  0  0
 13 12  2  0  0  0  0
 14 12  1  0  0  0  0
 15 14  1  0  0  0  0
 16 17  1  0  0  0  0
 18 19  1  0  0  0  0
 19 22  2  0  0  0  0
 20 18  1  0  0  0  0
 21 19  1  0  0  0  0
 24 23  1  0  0  0  0
 25  2  1  0  0  0  0
 26 25  1  0  0  0  0
 27  1  1  0  0  0  0
 28 30  2  0  0  0  0
 28 27  1  0  0  0  0
 29 27  1  0  0  0  0
 31 28  1  0  0  0  0
 32 33  1  0  0  0  0
 32 31  1  0  0  0  0
 33 35  1  0  0  0  0
 34 36  1  0  0  0  0
 34 33  2  0  0  0  0
 36 37  1  0  0  0  0
 37 35  2  0  0  0  0
 38 36  1  0  0  0  0
 38 40  2  0  0  0  0
 39 38  1  0  0  0  0
 41 39  2  0  0  0  0
 41 43  1  0  0  0  0
 42 40  1  0  0  0  0
 42 44  1  0  0  0  0
 43 42  2  0  0  0  0
 44 46  1  0  0  0  0
 45 43  1  0  0  0  0
 45 46  1  0  0  0  0
 47 48  1  0  0  0  0
 49 48  1  0  0  0  0
 49 50  1  0  0  0  0
 50 51  1  0  0  0  0
 51 52  1  0  0  0  0
M  END
>  <REMARK>
 VINA RESULT:    -5.679      2.819      6.722
 INTER + INTRA:         -14.376
 INTER:                  -7.735
 INTRA:                  -6.641
 UNBOUND:                -4.548
 SMILES CC(=O)N[C@@H]1[C@@H](O)C[C@](O)(C(=O)O)O[C@H]1C(O)[C@H](O)CNC(=O)OCc1cn(-c2ccc3c(c2)OCO3)nn1
 SMILES IDX 20 1 18 2 16 3 15 4 9 5 8 6 14 7 6 8 5 9 10 10 11 12 12 13
 SMILES IDX 13 14 7 16 4 18 2 19 1 21 3 22 17 23 19 25 21 27 22 28 23 30
 SMILES IDX 24 31 25 32 26 33 27 34 39 35 28 36 38 37 29 38 30 39 34 40
 SMILES IDX 31 41 33 42 32 43 35 44 37 45 36 46
 H PARENT 10 11 13 15 7 17 4 20 17 24 19 26 21 29
 Flexibility Score: inf
  4 active torsions:
  status: ('A' for Active; 'I' for Inactive)
    1  A    between atoms: CA   and  CB  
    2  A    between atoms: CB   and  CG  
    3  A    between atoms: CG   and  CD  
    4  A    between atoms: CD   and  CE  

>  <TORSDO>
F 15

>  <BEGIN_>
RES LYS A 131

$$$$
ligand_42_pose_7_2HRL.pdbqt
 OpenBabel07062320523D

  6  5  0  0  0  0  0  0  0  0999 V2000
   33.1930   34.6630    9.2900 C   0  0  0  0  0  0  0  0  0  0  0  0
   32.0600   35.3600   10.0340 C   0  0  0  0  0  0  0  0  0  0  0  0
   30.7450   35.3230    9.3000 C   0  0  0  0  0  0  0  0  0  0  0  0
   29.6730   34.6590   10.1500 C   0  0  0  0  0  0  0  0  0  0  0  0
   28.6070   34.0340    9.2720 C   0  0  0  0  0  0  0  0  0  0  0  0
   28.5040   34.7430    7.9660 N   0  0  0  0  0  0  0  0  0  0  0  0
  1  2  1  0  0  0  0
  3  2  1  0  0  0  0
  3  4  1  0  0  0  0
  5  4  1  0  0  0  0
  6  5  1  0  0  0  0
M  END
>  <EGIN_R>
ES LYS A 135

>  <REMARK>
  4 active torsions:
  status: ('A' for Active; 'I' for Inactive)
    5  A    between atoms: CA   and  CB  
    6  A    between atoms: CB   and  CG  
    7  A    between atoms: CG   and  CD  
    8  A    between atoms: CD   and  CE  

$$$$
