ligand_10_pose_2_2HRL.pdbqt
 OpenBabel07062320523D

 53 53  0  0  1  0  0  0  0  0999 V2000
   26.0730   28.8200   18.7060 N   0  0  0  0  0  0  0  0  0  0  0  0
   25.5150   30.0620   18.2770 C   0  0  0  0  0  0  0  0  0  0  0  0
   25.4240   30.9850   19.0930 O   0  0  0  0  0  0  0  0  0  0  0  0
   26.1180   28.0810   17.9560 H   0  0  0  0  0  0  0  0  0  0  0  0
   26.5440   28.5540   20.0290 C   0  0  0  0  0  0  0  0  0  0  0  0
   27.9470   27.9840   19.9990 C   0  0  2  0  0  0  0  0  0  0  0  0
   28.9840   29.0680   20.2260 C   0  0  2  0  0  0  0  0  0  0  0  0
   29.5380   29.1050   21.6050 C   0  0  2  0  0  0  0  0  0  0  0  0
   31.3850   30.3720   20.9870 C   0  0  2  0  0  0  0  0  0  0  0  0
   32.1070   29.1500   20.6000 C   0  0  0  0  0  0  0  0  0  0  0  0
   30.3110   30.2490   21.8300 O   0  0  0  0  0  0  0  0  0  0  0  0
   31.6490   27.8520   21.1350 C   0  0  1  0  0  0  0  0  0  0  0  0
   30.3740   27.8980   21.9280 C   0  0  1  0  0  0  0  0  0  0  0  0
   30.8950   31.0580   19.8470 O   0  0  0  0  0  0  0  0  0  0  0  0
   29.9620   31.3070   20.0840 H   0  0  0  0  0  0  0  0  0  0  0  0
   32.3050   31.3530   21.6280 C   0  0  0  0  0  0  0  0  0  0  0  0
   33.1030   31.0730   22.5510 O   0  0  0  0  0  0  0  0  0  0  0  0
   32.2710   32.6590   21.1660 O   0  0  0  0  0  0  0  0  0  0  0  0
   32.4180   33.4640   21.7890 H   0  0  0  0  0  0  0  0  0  0  0  0
   31.5250   26.9170   20.1110 O   0  0  0  0  0  0  0  0  0  0  0  0
   32.2880   26.8710   19.5100 H   0  0  0  0  0  0  0  0  0  0  0  0
   30.6790   27.9130   23.3800 N   0  0  0  0  0  0  0  0  0  0  0  0
   30.3490   26.8120   24.2020 C   0  0  0  0  0  0  0  0  0  0  0  0
   31.1400   28.7310   23.8300 H   0  0  0  0  0  0  0  0  0  0  0  0
   30.6350   26.7830   25.6660 C   0  0  0  0  0  0  0  0  0  0  0  0
   29.7940   25.8240   23.6760 O   0  0  0  0  0  0  0  0  0  0  0  0
   28.2500   30.2630   19.9780 O   0  0  0  0  0  0  0  0  0  0  0  0
   27.7370   30.1830   19.1400 H   0  0  0  0  0  0  0  0  0  0  0  0
   28.1110   27.2980   18.8030 O   0  0  0  0  0  0  0  0  0  0  0  0
   28.8700   26.6640   18.8140 H   0  0  0  0  0  0  0  0  0  0  0  0
   25.0730   30.2680   16.9800 O   0  0  0  0  0  0  0  0  0  0  0  0
   25.9750   30.1890   15.9050 C   0  0  0  0  0  0  0  0  0  0  0  0
   27.3390   30.6440   16.2680 C   0  0  0  0  0  0  0  0  0  0  0  0
   27.8220   31.8870   15.9360 C   0  0  0  0  0  0  0  0  0  0  0  0
   28.3100   30.0200   16.9310 N   0  0  0  0  0  0  0  0  0  0  0  0
   29.0890   31.9810   16.4150 N   0  0  0  0  0  0  0  0  0  0  0  0
   29.3410   30.8450   17.0010 N   0  0  0  0  0  0  0  0  0  0  0  0
   29.9080   33.1770   16.2410 C   0  0  1  0  0  0  0  0  0  0  0  0
   30.9580   33.2260   17.3180 C   0  0  0  0  0  0  0  0  0  0  0  0
   30.6760   34.2530   18.3330 C   0  0  0  0  0  0  0  0  0  0  0  0
   30.9610   35.4500   18.0810 O   0  0  0  0  0  0  0  0  0  0  0  0
   30.1040   33.8760   19.5390 O   0  0  0  0  0  0  0  0  0  0  0  0
   29.1510   34.2020   19.7610 H   0  0  0  0  0  0  0  0  0  0  0  0
   30.6220   33.0690   14.9390 C   0  0  0  0  0  0  0  0  0  0  0  0
   30.4150   33.8310   13.9610 O   0  0  0  0  0  0  0  0  0  0  0  0
   31.5680   32.0690   14.7950 O   0  0  0  0  0  0  0  0  0  0  0  0
   32.1190   31.9550   13.9520 H   0  0  0  0  0  0  0  0  0  0  0  0
   29.8670   25.5550   16.9770 C   0  0  0  0  0  0  0  0  0  0  0  0
   28.3450   25.7220   17.0260 C   0  0  0  0  0  0  0  0  0  0  0  0
   27.5990   24.4250   16.7500 C   0  0  0  0  0  0  0  0  0  0  0  0
   26.7960   23.9710   17.9370 C   0  0  0  0  0  0  0  0  0  0  0  0
   25.3250   23.8710   17.5490 C   0  0  0  0  0  0  0  0  0  0  0  0
   24.6800   25.2040   17.6130 N   0  0  0  0  0  0  0  0  0  0  0  0
  1  5  1  0  0  0  0
  2  1  1  0  0  0  0
  2  3  2  0  0  0  0
  4  1  1  0  0  0  0
  6  5  1  6  0  0  0
  6  7  1  0  0  0  0
  7 27  1  1  0  0  0
  8  7  1  6  0  0  0
  8 11  1  0  0  0  0
  8 13  1  0  0  0  0
  9 14  1  6  0  0  0
  9 16  1  0  0  0  0
  9 11  1  0  0  0  0
 10  9  1  0  0  0  0
 10 12  1  0  0  0  0
 12 20  1  6  0  0  0
 12 13  1  0  0  0  0
 13 22  1  1  0  0  0
 14 15  1  0  0  0  0
 16 17  2  0  0  0  0
 18 16  1  0  0  0  0
 18 19  1  0  0  0  0
 21 20  1  0  0  0  0
 22 24  1  0  0  0  0
 22 23  1  0  0  0  0
 23 25  1  0  0  0  0
 26 23  2  0  0  0  0
 28 27  1  0  0  0  0
 29 30  1  0  0  0  0
 29  6  1  0  0  0  0
 31  2  1  0  0  0  0
 32 33  1  0  0  0  0
 32 31  1  0  0  0  0
 33 35  1  0  0  0  0
 34 33  2  0  0  0  0
 34 36  1  0  0  0  0
 35 37  2  0  0  0  0
 36 37  1  0  0  0  0
 38 36  1  0  0  0  0
 38 39  1  1  0  0  0
 39 40  1  0  0  0  0
 40 42  1  0  0  0  0
 41 40  2  0  0  0  0
 42 43  1  0  0  0  0
 44 38  1  0  0  0  0
 45 44  2  0  0  0  0
 46 44  1  0  0  0  0
 47 46  1  0  0  0  0
 48 49  1  0  0  0  0
 50 49  1  0  0  0  0
 50 51  1  0  0  0  0
 52 53  1  0  0  0  0
 52 51  1  0  0  0  0
M  END
>  <REMARK>
 VINA RESULT:    -4.940      3.692      6.451
 INTER + INTRA:         -15.450
 INTER:                  -8.256
 INTRA:                  -7.194
 UNBOUND:                -5.744
 SMILES CC(=O)N[C@@H]1[C@@H](O)C[C@](O)(C(=O)O)O[C@H]1C(O)[C@H](O)CNC(=O)OCc1cn([C@@H](CC(=O)O)C(=O)O)nn1
 SMILES IDX 21 1 22 2 23 3 20 5 18 6 16 7 15 8 9 9 8 10 14 11 6 12 5 13
 SMILES IDX 10 14 11 16 12 17 13 18 7 20 4 22 2 23 1 25 3 26 17 27 19 29
 SMILES IDX 24 31 25 32 26 33 27 34 38 35 28 36 37 37 29 38 30 39 31 40
 SMILES IDX 32 41 33 42 34 44 35 45 36 46
 H PARENT 21 4 10 15 13 19 7 21 4 24 17 28 19 30 33 43 36 47
 Flexibility Score: inf
  4 active torsions:
  status: ('A' for Active; 'I' for Inactive)
    1  A    between atoms: CA   and  CB  
    2  A    between atoms: CB   and  CG  
    3  A    between atoms: CG   and  CD  
    4  A    between atoms: CD   and  CE  

>  <TORSDO>
F 20

>  <BEGIN_>
RES LYS A 131

$$$$
ligand_10_pose_2_2HRL.pdbqt
 OpenBabel07062320523D

  6  5  0  0  0  0  0  0  0  0999 V2000
   33.1930   34.6630    9.2900 C   0  0  0  0  0  0  0  0  0  0  0  0
   32.0600   35.3600   10.0340 C   0  0  0  0  0  0  0  0  0  0  0  0
   30.8270   35.5720    9.1930 C   0  0  0  0  0  0  0  0  0  0  0  0
   30.2290   34.2380    8.7730 C   0  0  0  0  0  0  0  0  0  0  0  0
   28.7360   34.3730    8.5430 C   0  0  0  0  0  0  0  0  0  0  0  0
   27.9630   33.6860    9.6150 N   0  0  0  0  0  0  0  0  0  0  0  0
  1  2  1  0  0  0  0
  3  2  1  0  0  0  0
  4  3  1  0  0  0  0
  5  4  1  0  0  0  0
  5  6  1  0  0  0  0
M  END
>  <EGIN_R>
ES LYS A 135

>  <REMARK>
  4 active torsions:
  status: ('A' for Active; 'I' for Inactive)
    5  A    between atoms: CA   and  CB  
    6  A    between atoms: CB   and  CG  
    7  A    between atoms: CG   and  CD  
    8  A    between atoms: CD   and  CE  

$$$$
