ligand_5_pose_5_2HRL.pdbqt
 OpenBabel07062320523D

 51 52  0  0  1  0  0  0  0  0999 V2000
   26.5770   36.7160   16.5930 N   0  0  0  0  0  0  0  0  0  0  0  0
   25.2220   36.7590   16.2000 C   0  0  0  0  0  0  0  0  0  0  0  0
   24.2940   36.5150   16.9860 O   0  0  0  0  0  0  0  0  0  0  0  0
   27.2720   36.9210   15.8050 H   0  0  0  0  0  0  0  0  0  0  0  0
   27.1220   36.4470   17.8610 C   0  0  0  0  0  0  0  0  0  0  0  0
   27.4640   35.0770   18.2380 C   0  0  2  0  0  0  0  0  0  0  0  0
   28.7260   34.5020   17.8280 C   0  0  1  0  0  0  0  0  0  0  0  0
   28.6530   33.3610   16.7910 C   0  0  2  0  0  0  0  0  0  0  0  0
   29.0140   31.0490   17.0880 C   0  0  2  0  0  0  0  0  0  0  0  0
   30.4350   31.1710   16.5160 C   0  0  0  0  0  0  0  0  0  0  0  0
   28.6960   32.2410   17.6020 O   0  0  0  0  0  0  0  0  0  0  0  0
   30.3360   32.1090   15.3750 C   0  0  1  0  0  0  0  0  0  0  0  0
   29.6430   33.4390   15.7240 C   0  0  1  0  0  0  0  0  0  0  0  0
   29.1970   30.1900   18.2060 O   0  0  0  0  0  0  0  0  0  0  0  0
   30.0290   29.6660   18.1160 H   0  0  0  0  0  0  0  0  0  0  0  0
   28.0740   30.4100   16.1890 C   0  0  0  0  0  0  0  0  0  0  0  0
   28.3390   29.2900   15.6850 O   0  0  0  0  0  0  0  0  0  0  0  0
   26.8390   30.9310   15.8010 O   0  0  0  0  0  0  0  0  0  0  0  0
   26.4900   31.8280   16.1490 H   0  0  0  0  0  0  0  0  0  0  0  0
   31.5760   32.4500   14.8140 O   0  0  0  0  0  0  0  0  0  0  0  0
   31.4530   33.3930   14.4800 H   0  0  0  0  0  0  0  0  0  0  0  0
   29.2050   33.8900   14.4390 N   0  0  0  0  0  0  0  0  0  0  0  0
   29.2990   35.1760   13.9080 C   0  0  0  0  0  0  0  0  0  0  0  0
   28.7570   33.1410   13.8310 H   0  0  0  0  0  0  0  0  0  0  0  0
   28.7880   35.5000   12.5400 C   0  0  0  0  0  0  0  0  0  0  0  0
   29.8230   36.0430   14.6160 O   0  0  0  0  0  0  0  0  0  0  0  0
   29.5920   35.5000   17.3920 O   0  0  0  0  0  0  0  0  0  0  0  0
   30.3620   35.6230   18.0020 H   0  0  0  0  0  0  0  0  0  0  0  0
   26.3520   34.2220   17.9880 O   0  0  0  0  0  0  0  0  0  0  0  0
   25.5860   34.7570   17.6500 H   0  0  0  0  0  0  0  0  0  0  0  0
   24.8580   37.0850   14.8770 O   0  0  0  0  0  0  0  0  0  0  0  0
   25.4780   36.4230   13.8020 C   0  0  0  0  0  0  0  0  0  0  0  0
   25.3120   34.9690   13.9520 C   0  0  0  0  0  0  0  0  0  0  0  0
   24.3230   34.2310   13.2920 C   0  0  0  0  0  0  0  0  0  0  0  0
   25.9840   34.0750   14.6730 N   0  0  0  0  0  0  0  0  0  0  0  0
   24.4500   32.9390   13.6470 N   0  0  0  0  0  0  0  0  0  0  0  0
   25.4770   32.8860   14.4920 N   0  0  0  0  0  0  0  0  0  0  0  0
   23.6550   31.8450   13.2130 C   0  0  0  0  0  0  0  0  0  0  0  0
   22.3370   31.9760   12.8400 C   0  0  0  0  0  0  0  0  0  0  0  0
   24.1990   30.5600   13.1440 C   0  0  0  0  0  0  0  0  0  0  0  0
   21.5760   30.8930   12.4160 C   0  0  0  0  0  0  0  0  0  0  0  0
   23.4400   29.4850   12.7220 C   0  0  0  0  0  0  0  0  0  0  0  0
   22.1240   29.6340   12.3530 C   0  0  0  0  0  0  0  0  0  0  0  0
   21.3740   28.5770   11.9360 O   0  0  0  0  0  0  0  0  0  0  0  0
   19.9660   28.6340   12.0200 C   0  0  0  0  0  0  0  0  0  0  0  0
   29.8670   25.5550   16.9770 C   0  0  0  0  0  0  0  0  0  0  0  0
   28.3450   25.7220   17.0260 C   0  0  0  0  0  0  0  0  0  0  0  0
   27.6020   24.3990   16.9270 C   0  0  0  0  0  0  0  0  0  0  0  0
   26.6360   24.2050   18.0620 C   0  0  0  0  0  0  0  0  0  0  0  0
   26.3770   25.5440   18.7440 C   0  0  0  0  0  0  0  0  0  0  0  0
   25.5260   25.3600   19.9430 N   0  0  0  0  0  0  0  0  0  0  0  0
  1  5  1  0  0  0  0
  2  1  1  0  0  0  0
  2  3  2  0  0  0  0
  4  1  1  0  0  0  0
  6  5  1  6  0  0  0
  7 27  1  6  0  0  0
  7  6  1  0  0  0  0
  8 11  1  0  0  0  0
  8  7  1  1  0  0  0
  9 16  1  6  0  0  0
  9 11  1  0  0  0  0
  9 14  1  0  0  0  0
 10  9  1  0  0  0  0
 12 20  1  1  0  0  0
 12 13  1  0  0  0  0
 12 10  1  0  0  0  0
 13 22  1  6  0  0  0
 13  8  1  0  0  0  0
 15 14  1  0  0  0  0
 17 16  2  0  0  0  0
 18 19  1  0  0  0  0
 18 16  1  0  0  0  0
 21 20  1  0  0  0  0
 23 22  1  0  0  0  0
 23 26  2  0  0  0  0
 24 22  1  0  0  0  0
 25 23  1  0  0  0  0
 27 28  1  0  0  0  0
 29  6  1  0  0  0  0
 30 29  1  0  0  0  0
 31  2  1  0  0  0  0
 32 33  1  0  0  0  0
 32 31  1  0  0  0  0
 33 35  1  0  0  0  0
 34 36  1  0  0  0  0
 34 33  2  0  0  0  0
 36 37  1  0  0  0  0
 37 35  2  0  0  0  0
 38 36  1  0  0  0  0
 39 38  2  0  0  0  0
 40 38  1  0  0  0  0
 41 39  1  0  0  0  0
 42 40  2  0  0  0  0
 43 41  2  0  0  0  0
 43 42  1  0  0  0  0
 44 45  1  0  0  0  0
 44 43  1  0  0  0  0
 46 47  1  0  0  0  0
 48 47  1  0  0  0  0
 48 49  1  0  0  0  0
 49 50  1  0  0  0  0
 50 51  1  0  0  0  0
M  END
>  <REMARK>
 VINA RESULT:    -5.134      5.629      9.021
 INTER + INTRA:         -14.411
 INTER:                  -8.116
 INTRA:                  -6.295
 UNBOUND:                -5.226
 SMILES COc1ccc(-n2cc(COC(=O)NC[C@@H](O)C(O)[C@@H]3O[C@@](O)(C(=O)O)C[C@H](O)[C@H]3NC(C)=O)nn2)cc1
 SMILES IDX 14 1 12 2 13 3 15 5 16 6 18 7 20 8 22 9 27 10 21 11 28 12
 SMILES IDX 30 13 23 14 24 16 25 17 26 18 29 20 31 22 32 23 33 25 34 26
 SMILES IDX 19 27 17 29 11 31 10 32 9 33 8 34 35 35 7 36 36 37 6 38 5 39
 SMILES IDX 37 40 4 41 38 42 3 43 2 44 1 45
 H PARENT 14 4 23 15 26 19 29 21 31 24 19 28 17 30
 Flexibility Score: inf
  4 active torsions:
  status: ('A' for Active; 'I' for Inactive)
    1  A    between atoms: CA   and  CB  
    2  A    between atoms: CB   and  CG  
    3  A    between atoms: CG   and  CD  
    4  A    between atoms: CD   and  CE  

>  <TORSDO>
F 16

>  <BEGIN_>
RES LYS A 131

$$$$
ligand_5_pose_5_2HRL.pdbqt
 OpenBabel07062320523D

  6  5  0  0  0  0  0  0  0  0999 V2000
   33.1930   34.6630    9.2900 C   0  0  0  0  0  0  0  0  0  0  0  0
   32.0600   35.3600   10.0340 C   0  0  0  0  0  0  0  0  0  0  0  0
   30.7100   34.7310    9.8030 C   0  0  0  0  0  0  0  0  0  0  0  0
   30.1410   35.1610    8.4600 C   0  0  0  0  0  0  0  0  0  0  0  0
   28.7810   34.5280    8.2310 C   0  0  0  0  0  0  0  0  0  0  0  0
   28.3310   33.7740    9.4340 N   0  0  0  0  0  0  0  0  0  0  0  0
  1  2  1  0  0  0  0
  3  2  1  0  0  0  0
  4  3  1  0  0  0  0
  5  4  1  0  0  0  0
  5  6  1  0  0  0  0
M  END
>  <EGIN_R>
ES LYS A 135

>  <REMARK>
  4 active torsions:
  status: ('A' for Active; 'I' for Inactive)
    5  A    between atoms: CA   and  CB  
    6  A    between atoms: CB   and  CG  
    7  A    between atoms: CG   and  CD  
    8  A    between atoms: CD   and  CE  

$$$$
