ligand_92_pose_11_2HRL.pdbqt
 OpenBabel07062320523D

 59 61  0  0  1  0  0  0  0  0999 V2000
   25.9880   28.6860   19.0440 N   0  0  0  0  0  0  0  0  0  0  0  0
   24.9850   28.4370   18.0810 C   0  0  0  0  0  0  0  0  0  0  0  0
   23.9320   27.8110   18.4450 O   0  0  0  0  0  0  0  0  0  0  0  0
   26.8420   29.1940   18.7580 H   0  0  0  0  0  0  0  0  0  0  0  0
   25.8510   28.2560   20.4100 C   0  0  0  0  0  0  0  0  0  0  0  0
   27.1140   27.6380   20.9560 C   0  0  2  0  0  0  0  0  0  0  0  0
   28.3480   28.2350   20.3440 C   0  0  1  0  0  0  0  0  0  0  0  0
   29.0460   29.1790   21.3390 C   0  0  2  0  0  0  0  0  0  0  0  0
   28.4890   31.3250   20.5300 C   0  0  2  0  0  0  0  0  0  0  0  0
   29.9670   31.6480   20.4220 C   0  0  0  0  0  0  0  0  0  0  0  0
   28.2950   30.3130   21.4030 O   0  0  0  0  0  0  0  0  0  0  0  0
   30.6240   30.3930   19.9010 C   0  0  1  0  0  0  0  0  0  0  0  0
   30.4650   29.3190   20.9490 C   0  0  1  0  0  0  0  0  0  0  0  0
   28.0980   30.9160   19.2480 O   0  0  0  0  0  0  0  0  0  0  0  0
   27.5340   30.1200   19.2560 H   0  0  0  0  0  0  0  0  0  0  0  0
   27.7020   32.5410   20.8610 C   0  0  0  0  0  0  0  0  0  0  0  0
   28.2900   33.5840   21.1780 O   0  0  0  0  0  0  0  0  0  0  0  0
   26.3210   32.5220   20.8200 O   0  0  0  0  0  0  0  0  0  0  0  0
   25.8220   31.6480   20.5990 H   0  0  0  0  0  0  0  0  0  0  0  0
   30.0740   30.0440   18.6730 O   0  0  0  0  0  0  0  0  0  0  0  0
   30.8310   29.9610   18.0230 H   0  0  0  0  0  0  0  0  0  0  0  0
   31.3770   29.6110   22.0070 N   0  0  0  0  0  0  0  0  0  0  0  0
   32.2390   28.6090   22.5050 C   0  0  0  0  0  0  0  0  0  0  0  0
   31.4140   30.5570   22.4210 H   0  0  0  0  0  0  0  0  0  0  0  0
   33.2160   28.8240   23.6020 C   0  0  0  0  0  0  0  0  0  0  0  0
   32.1730   27.4830   21.9950 O   0  0  0  0  0  0  0  0  0  0  0  0
   29.2670   27.2470   19.9190 O   0  0  0  0  0  0  0  0  0  0  0  0
   28.8470   26.3790   20.0590 H   0  0  0  0  0  0  0  0  0  0  0  0
   27.0110   26.2600   20.6640 O   0  0  0  0  0  0  0  0  0  0  0  0
   27.9390   25.9310   20.5660 H   0  0  0  0  0  0  0  0  0  0  0  0
   25.0720   28.8290   16.7620 O   0  0  0  0  0  0  0  0  0  0  0  0
   25.2450   30.2040   16.3900 C   0  0  0  0  0  0  0  0  0  0  0  0
   26.7130   30.4050   16.2140 C   0  0  0  0  0  0  0  0  0  0  0  0
   27.3520   31.5680   15.7780 C   0  0  0  0  0  0  0  0  0  0  0  0
   27.7200   29.5320   16.4310 N   0  0  0  0  0  0  0  0  0  0  0  0
   28.6790   31.3620   15.7470 N   0  0  0  0  0  0  0  0  0  0  0  0
   28.8570   30.1190   16.1500 N   0  0  0  0  0  0  0  0  0  0  0  0
   29.6490   32.3230   15.3540 C   0  0  0  0  0  0  0  0  0  0  0  0
   30.9630   32.2590   15.7550 C   0  0  0  0  0  0  0  0  0  0  0  0
   29.2790   33.3710   14.5390 C   0  0  0  0  0  0  0  0  0  0  0  0
   31.8990   33.2140   15.3590 C   0  0  0  0  0  0  0  0  0  0  0  0
   30.2000   34.3160   14.1460 C   0  0  0  0  0  0  0  0  0  0  0  0
   31.5400   34.2630   14.5450 C   0  0  0  0  0  0  0  0  0  0  0  0
   32.6730   35.4710   14.0150 S   0  0  0  0  0  0  0  0  0  0  0  0
   32.3360   35.7830   12.5620 O   0  0  0  0  0  0  0  0  0  0  0  0
   34.0290   34.8530   14.0090 O   0  0  0  0  0  0  0  0  0  0  0  0
   32.6440   36.9110   14.9160 N   0  0  0  0  0  0  0  0  0  0  0  0
   33.5510   37.4430   15.0150 H   0  0  0  0  0  0  0  0  0  0  0  0
   31.5370   37.4880   15.5580 C   0  0  0  0  0  0  0  0  0  0  0  0
   30.3530   37.7390   15.3980 N   0  0  0  0  0  0  0  0  0  0  0  0
   31.7470   38.1770   17.3050 S   0  0  0  0  0  0  0  0  0  0  0  0
   29.5270   38.3100   16.2140 C   0  0  0  0  0  0  0  0  0  0  0  0
   29.9690   38.7090   17.4280 C   0  0  0  0  0  0  0  0  0  0  0  0
   29.8670   25.5550   16.9770 C   0  0  0  0  0  0  0  0  0  0  0  0
   28.3450   25.7220   17.0260 C   0  0  0  0  0  0  0  0  0  0  0  0
   27.5990   24.4750   16.5760 C   0  0  0  0  0  0  0  0  0  0  0  0
   27.1980   23.6060   17.7360 C   0  0  0  0  0  0  0  0  0  0  0  0
   25.7630   23.9280   18.1410 C   0  0  0  0  0  0  0  0  0  0  0  0
   24.9940   24.4240   16.9750 N   0  0  0  0  0  0  0  0  0  0  0  0
  1  5  1  0  0  0  0
  2  3  2  0  0  0  0
  2  1  1  0  0  0  0
  4  1  1  0  0  0  0
  6  5  1  6  0  0  0
  7 27  1  1  0  0  0
  7  6  1  0  0  0  0
  8  7  1  6  0  0  0
  8 11  1  0  0  0  0
  9 14  1  6  0  0  0
  9 16  1  0  0  0  0
  9 11  1  0  0  0  0
 10  9  1  0  0  0  0
 12 20  1  6  0  0  0
 12 10  1  0  0  0  0
 12 13  1  0  0  0  0
 13  8  1  0  0  0  0
 13 22  1  1  0  0  0
 14 15  1  0  0  0  0
 16 17  2  0  0  0  0
 18 16  1  0  0  0  0
 19 18  1  0  0  0  0
 21 20  1  0  0  0  0
 22 24  1  0  0  0  0
 22 23  1  0  0  0  0
 23 25  1  0  0  0  0
 26 23  2  0  0  0  0
 27 28  1  0  0  0  0
 29  6  1  0  0  0  0
 30 29  1  0  0  0  0
 31  2  1  0  0  0  0
 32 31  1  0  0  0  0
 33 32  1  0  0  0  0
 33 35  1  0  0  0  0
 34 33  2  0  0  0  0
 36 34  1  0  0  0  0
 36 37  1  0  0  0  0
 37 35  2  0  0  0  0
 38 36  1  0  0  0  0
 38 39  2  0  0  0  0
 40 38  1  0  0  0  0
 41 39  1  0  0  0  0
 42 40  2  0  0  0  0
 42 43  1  0  0  0  0
 43 41  2  0  0  0  0
 44 43  1  0  0  0  0
 44 47  1  0  0  0  0
 45 44  2  0  0  0  0
 46 44  2  0  0  0  0
 47 48  1  0  0  0  0
 47 49  1  0  0  0  0
 49 51  1  0  0  0  0
 50 49  2  0  0  0  0
 50 52  1  0  0  0  0
 51 53  1  0  0  0  0
 52 53  2  0  0  0  0
 54 55  1  0  0  0  0
 56 55  1  0  0  0  0
 56 57  1  0  0  0  0
 57 58  1  0  0  0  0
 59 58  1  0  0  0  0
M  END
>  <REMARK>
 VINA RESULT:    -4.966      2.558      4.641
 INTER + INTRA:         -15.873
 INTER:                  -9.142
 INTRA:                  -6.731
 UNBOUND:                -6.408
 SMILES CC(=O)N[C@@H]1[C@@H](O)C[C@](O)(C(=O)O)O[C@H]1C(O)[C@H](O)CNC(=O)OCc1cn(-c2ccc(S(=O)(=O)Nc3nccs3)cc2)nn1
 SMILES IDX 21 1 22 2 23 3 20 5 18 6 16 7 15 8 9 9 8 10 14 11 6 12 5 13
 SMILES IDX 10 14 11 16 12 17 13 18 7 20 4 22 2 23 1 25 3 26 17 27 19 29
 SMILES IDX 24 31 25 32 26 33 27 34 45 35 28 36 44 37 29 38 30 39 43 40
 SMILES IDX 31 41 42 42 32 43 33 44 34 45 35 46 36 47 37 49 38 50 41 51
 SMILES IDX 39 52 40 53
 H PARENT 21 4 10 15 13 19 7 21 4 24 17 28 19 30 36 48
 Flexibility Score: inf
  4 active torsions:
  status: ('A' for Active; 'I' for Inactive)
    1  A    between atoms: CA   and  CB  
    2  A    between atoms: CB   and  CG  
    3  A    between atoms: CG   and  CD  
    4  A    between atoms: CD   and  CE  

>  <TORSDO>
F 18

>  <BEGIN_>
RES LYS A 131

$$$$
ligand_92_pose_11_2HRL.pdbqt
 OpenBabel07062320523D

  6  5  0  0  0  0  0  0  0  0999 V2000
   33.1930   34.6630    9.2900 C   0  0  0  0  0  0  0  0  0  0  0  0
   32.0600   35.3600   10.0340 C   0  0  0  0  0  0  0  0  0  0  0  0
   30.7830   35.4510    9.2390 C   0  0  0  0  0  0  0  0  0  0  0  0
   30.1900   34.0680    9.0160 C   0  0  0  0  0  0  0  0  0  0  0  0
   28.7240   34.0490    9.4060 C   0  0  0  0  0  0  0  0  0  0  0  0
   27.8710   34.5840    8.3090 N   0  0  0  0  0  0  0  0  0  0  0  0
  1  2  1  0  0  0  0
  3  2  1  0  0  0  0
  4  3  1  0  0  0  0
  4  5  1  0  0  0  0
  6  5  1  0  0  0  0
M  END
>  <EGIN_R>
ES LYS A 135

>  <REMARK>
  4 active torsions:
  status: ('A' for Active; 'I' for Inactive)
    5  A    between atoms: CA   and  CB  
    6  A    between atoms: CB   and  CG  
    7  A    between atoms: CG   and  CD  
    8  A    between atoms: CD   and  CE  

$$$$
