ligand_90_pose_12_2HRL.pdbqt
 OpenBabel07062320523D

 61 62  0  0  1  0  0  0  0  0999 V2000
   25.1300   33.9040   16.4780 C   0  0  0  0  0  0  0  0  0  0  0  0
   24.3730   34.0280   15.2900 O   0  0  0  0  0  0  0  0  0  0  0  0
   24.8910   34.6310   14.1580 C   0  0  0  0  0  0  0  0  0  0  0  0
   26.0630   34.1120   13.5070 N   0  0  0  0  0  0  0  0  0  0  0  0
   26.4930   33.2720   13.9410 H   0  0  0  0  0  0  0  0  0  0  0  0
   24.3200   35.6400   13.7090 O   0  0  0  0  0  0  0  0  0  0  0  0
   26.6280   34.6900   12.3360 C   0  0  0  0  0  0  0  0  0  0  0  0
   28.0990   34.9140   12.4010 C   0  0  2  0  0  0  0  0  0  0  0  0
   28.5740   34.6610   13.8230 C   0  0  1  0  0  0  0  0  0  0  0  0
   29.9720   34.1350   13.8830 C   0  0  2  0  0  0  0  0  0  0  0  0
   30.3940   33.2090   15.9790 C   0  0  2  0  0  0  0  0  0  0  0  0
   31.8060   33.7610   16.1070 C   0  0  0  0  0  0  0  0  0  0  0  0
   30.0360   33.0170   14.6730 O   0  0  0  0  0  0  0  0  0  0  0  0
   32.2170   34.4190   14.7970 C   0  0  1  0  0  0  0  0  0  0  0  0
   30.9740   35.1630   14.2940 C   0  0  1  0  0  0  0  0  0  0  0  0
   29.5610   34.1510   16.5560 O   0  0  0  0  0  0  0  0  0  0  0  0
   29.6670   35.0310   16.1150 H   0  0  0  0  0  0  0  0  0  0  0  0
   30.2390   31.9370   16.7300 C   0  0  0  0  0  0  0  0  0  0  0  0
   30.7220   30.8500   16.3040 O   0  0  0  0  0  0  0  0  0  0  0  0
   29.5580   31.8970   17.9350 O   0  0  0  0  0  0  0  0  0  0  0  0
   29.9140   32.2110   18.8190 H   0  0  0  0  0  0  0  0  0  0  0  0
   33.2480   35.2990   15.0750 O   0  0  0  0  0  0  0  0  0  0  0  0
   33.8010   35.0230   15.8400 H   0  0  0  0  0  0  0  0  0  0  0  0
   31.3440   36.0300   13.1840 N   0  0  0  0  0  0  0  0  0  0  0  0
   31.1350   37.4190   13.2900 C   0  0  0  0  0  0  0  0  0  0  0  0
   31.7480   35.6230   12.3370 H   0  0  0  0  0  0  0  0  0  0  0  0
   31.5040   38.3540   12.1640 C   0  0  0  0  0  0  0  0  0  0  0  0
   30.6370   37.9680   14.3010 O   0  0  0  0  0  0  0  0  0  0  0  0
   28.4770   35.8070   14.5960 O   0  0  0  0  0  0  0  0  0  0  0  0
   28.3850   36.6230   14.0720 H   0  0  0  0  0  0  0  0  0  0  0  0
   28.5110   36.1750   12.0050 O   0  0  0  0  0  0  0  0  0  0  0  0
   29.3090   36.4930   12.5080 H   0  0  0  0  0  0  0  0  0  0  0  0
   25.8190   32.5940   16.3790 C   0  0  0  0  0  0  0  0  0  0  0  0
   25.2790   31.4030   16.8100 C   0  0  0  0  0  0  0  0  0  0  0  0
   27.0270   32.2620   15.9000 N   0  0  0  0  0  0  0  0  0  0  0  0
   26.1620   30.3810   16.5860 N   0  0  0  0  0  0  0  0  0  0  0  0
   27.2120   30.9350   16.0330 N   0  0  0  0  0  0  0  0  0  0  0  0
   25.8600   29.0140   16.9500 C   0  0  0  0  0  0  0  0  0  0  0  0
   26.4760   28.7950   18.3190 C   0  0  0  0  0  0  0  0  0  0  0  0
   25.7910   28.3070   19.2430 O   0  0  0  0  0  0  0  0  0  0  0  0
   27.8060   29.1230   18.5980 N   0  0  0  0  0  0  0  0  0  0  0  0
   28.3310   29.5210   17.7300 H   0  0  0  0  0  0  0  0  0  0  0  0
   28.5410   29.0210   19.8040 C   0  0  0  0  0  0  0  0  0  0  0  0
   28.8800   27.7140   20.3600 C   0  0  1  0  0  0  0  0  0  0  0  0
   28.4020   26.6330   19.5700 O   0  0  0  0  0  0  0  0  0  0  0  0
   27.8770   26.9920   18.8130 H   0  0  0  0  0  0  0  0  0  0  0  0
   30.1730   27.4550   21.0150 C   0  0  0  0  0  0  0  0  0  0  0  0
   30.3980   28.2660   22.1970 N   0  0  0  0  0  0  0  0  0  0  0  0
   29.8930   28.0200   23.4320 C   0  0  0  0  0  0  0  0  0  0  0  0
   31.1250   29.3970   22.2520 C   0  0  0  0  0  0  0  0  0  0  0  0
   30.3360   29.0430   24.2500 C   0  0  0  0  0  0  0  0  0  0  0  0
   31.0850   29.8800   23.5300 N   0  0  0  0  0  0  0  0  0  0  0  0
   31.8440   30.0490   21.2210 N   0  0  0  0  0  0  0  0  0  0  0  0
   33.0490   29.7040   21.0370 O   0  0  0  0  0  0  0  0  0  0  0  0
   31.3720   31.0170   20.4010 O   0  0  0  0  0  0  0  0  0  0  0  0
   29.8670   25.5550   16.9770 C   0  0  0  0  0  0  0  0  0  0  0  0
   28.3450   25.7220   17.0260 C   0  0  0  0  0  0  0  0  0  0  0  0
   27.6020   24.3980   16.9320 C   0  0  0  0  0  0  0  0  0  0  0  0
   26.1580   24.5300   17.3290 C   0  0  0  0  0  0  0  0  0  0  0  0
   25.9190   23.7830   18.6380 C   0  0  0  0  0  0  0  0  0  0  0  0
   25.4650   24.7190   19.6930 N   0  0  0  0  0  0  0  0  0  0  0  0
  2  1  1  0  0  0  0
  3  2  1  0  0  0  0
  4  5  1  0  0  0  0
  4  3  1  0  0  0  0
  6  3  2  0  0  0  0
  7  4  1  0  0  0  0
  8  7  1  1  0  0  0
  8  9  1  0  0  0  0
  9 29  1  1  0  0  0
 10  9  1  1  0  0  0
 10 15  1  0  0  0  0
 10 13  1  0  0  0  0
 11 12  1  0  0  0  0
 11 16  1  1  0  0  0
 11 18  1  0  0  0  0
 13 11  1  0  0  0  0
 14 22  1  1  0  0  0
 14 12  1  0  0  0  0
 15 24  1  6  0  0  0
 15 14  1  0  0  0  0
 17 16  1  0  0  0  0
 18 20  1  0  0  0  0
 19 18  2  0  0  0  0
 20 21  1  0  0  0  0
 22 23  1  0  0  0  0
 24 25  1  0  0  0  0
 25 28  2  0  0  0  0
 26 24  1  0  0  0  0
 27 25  1  0  0  0  0
 30 29  1  0  0  0  0
 31  8  1  0  0  0  0
 31 32  1  0  0  0  0
 33  1  1  0  0  0  0
 33 34  2  0  0  0  0
 35 37  2  0  0  0  0
 35 33  1  0  0  0  0
 36 34  1  0  0  0  0
 36 38  1  0  0  0  0
 37 36  1  0  0  0  0
 38 39  1  0  0  0  0
 39 41  1  0  0  0  0
 39 40  2  0  0  0  0
 41 43  1  0  0  0  0
 42 41  1  0  0  0  0
 44 43  1  6  0  0  0
 44 47  1  0  0  0  0
 45 44  1  0  0  0  0
 46 45  1  0  0  0  0
 47 48  1  0  0  0  0
 48 50  1  0  0  0  0
 48 49  1  0  0  0  0
 49 51  2  0  0  0  0
 50 52  2  0  0  0  0
 52 51  1  0  0  0  0
 53 50  1  0  0  0  0
 54 53  2  0  0  0  0
 55 53  2  0  0  0  0
 56 57  1  0  0  0  0
 58 57  1  0  0  0  0
 58 59  1  0  0  0  0
 59 60  1  0  0  0  0
 60 61  1  0  0  0  0
M  END
>  <REMARK>
 VINA RESULT:    -5.172      5.337     11.444
 INTER + INTRA:         -16.675
 INTER:                  -9.066
 INTRA:                  -7.609
 UNBOUND:                -5.759
 SMILES CC(=O)N[C@@H]1[C@@H](O)C[C@](O)(C(=O)O)O[C@H]1C(O)[C@H](O)CNC(=O)OCc1cn(CC(=O)NCC(O)Cn2ccnc2[N+](=O)[O-])nn1
 SMILES IDX 25 1 24 2 22 3 21 4 23 6 20 7 18 8 16 9 15 10 9 11 8 12
 SMILES IDX 14 13 6 14 5 15 10 16 11 18 12 19 13 20 7 22 4 24 2 25 1 27
 SMILES IDX 3 28 17 29 19 31 26 33 27 34 46 35 28 36 45 37 29 38 30 39
 SMILES IDX 31 40 32 41 33 43 34 44 35 45 36 47 37 48 38 49 41 50 39 51
 SMILES IDX 40 52 42 53 43 54 44 55
 H PARENT 21 5 10 17 13 21 7 23 4 26 17 30 19 32 32 42 35 46
 Flexibility Score: inf
  4 active torsions:
  status: ('A' for Active; 'I' for Inactive)
    1  A    between atoms: CA   and  CB  
    2  A    between atoms: CB   and  CG  
    3  A    between atoms: CG   and  CD  
    4  A    between atoms: CD   and  CE  

>  <TORSDO>
F 22

>  <BEGIN_>
RES LYS A 131

$$$$
ligand_90_pose_12_2HRL.pdbqt
 OpenBabel07062320523D

  6  5  0  0  0  0  0  0  0  0999 V2000
   33.1930   34.6630    9.2900 C   0  0  0  0  0  0  0  0  0  0  0  0
   32.0600   35.3600   10.0340 C   0  0  0  0  0  0  0  0  0  0  0  0
   30.7090   34.7350    9.7970 C   0  0  0  0  0  0  0  0  0  0  0  0
   30.4770   34.5070    8.3120 C   0  0  0  0  0  0  0  0  0  0  0  0
   29.0580   34.8840    7.9310 C   0  0  0  0  0  0  0  0  0  0  0  0
   28.7260   36.2600    8.3950 N   0  0  0  0  0  0  0  0  0  0  0  0
  1  2  1  0  0  0  0
  3  2  1  0  0  0  0
  4  3  1  0  0  0  0
  5  4  1  0  0  0  0
  5  6  1  0  0  0  0
M  END
>  <EGIN_R>
ES LYS A 135

>  <REMARK>
  4 active torsions:
  status: ('A' for Active; 'I' for Inactive)
    5  A    between atoms: CA   and  CB  
    6  A    between atoms: CB   and  CG  
    7  A    between atoms: CG   and  CD  
    8  A    between atoms: CD   and  CE  

$$$$
