ligand_71_pose_3_2HRL.pdbqt
 OpenBabel07062320523D

 54 55  0  0  1  0  0  0  0  0999 V2000
   27.5610   25.9720   22.8730 N   0  0  0  0  0  0  0  0  0  0  0  0
   26.5280   26.9380   22.6180 C   0  0  0  0  0  0  0  0  0  0  0  0
   26.4000   27.9550   23.3430 O   0  0  0  0  0  0  0  0  0  0  0  0
   27.6520   25.1420   22.2630 H   0  0  0  0  0  0  0  0  0  0  0  0
   28.4390   26.2100   23.9850 C   0  0  0  0  0  0  0  0  0  0  0  0
   29.8560   26.5250   23.5730 C   0  0  2  0  0  0  0  0  0  0  0  0
   30.1100   27.9740   23.9110 C   0  0  1  0  0  0  0  0  0  0  0  0
   30.6390   28.7410   22.6960 C   0  0  2  0  0  0  0  0  0  0  0  0
   30.0560   29.5410   20.6680 C   0  0  2  0  0  0  0  0  0  0  0  0
   31.4710   29.4340   20.2300 C   0  0  0  0  0  0  0  0  0  0  0  0
   29.7580   28.6380   21.6470 O   0  0  0  0  0  0  0  0  0  0  0  0
   32.2640   28.3070   20.8470 C   0  0  1  0  0  0  0  0  0  0  0  0
   31.9770   28.1320   22.3120 C   0  0  1  0  0  0  0  0  0  0  0  0
   29.2090   29.1710   19.5690 O   0  0  0  0  0  0  0  0  0  0  0  0
   28.5470   29.9020   19.4250 H   0  0  0  0  0  0  0  0  0  0  0  0
   29.6650   30.9460   20.9790 C   0  0  0  0  0  0  0  0  0  0  0  0
   30.5120   31.8350   21.0740 O   0  0  0  0  0  0  0  0  0  0  0  0
   28.3290   31.3070   21.1750 O   0  0  0  0  0  0  0  0  0  0  0  0
   27.9640   32.1910   20.8690 H   0  0  0  0  0  0  0  0  0  0  0  0
   31.9510   27.1520   20.1260 O   0  0  0  0  0  0  0  0  0  0  0  0
   32.5820   26.4060   20.3330 H   0  0  0  0  0  0  0  0  0  0  0  0
   32.9800   28.6320   23.1860 N   0  0  0  0  0  0  0  0  0  0  0  0
   33.8760   27.8310   23.9390 C   0  0  0  0  0  0  0  0  0  0  0  0
   33.0890   29.6690   23.3050 H   0  0  0  0  0  0  0  0  0  0  0  0
   34.9060   28.4260   24.8460 C   0  0  0  0  0  0  0  0  0  0  0  0
   33.7800   26.5960   23.8260 O   0  0  0  0  0  0  0  0  0  0  0  0
   28.9860   28.5910   24.4260 O   0  0  0  0  0  0  0  0  0  0  0  0
   29.1150   29.5850   24.3490 H   0  0  0  0  0  0  0  0  0  0  0  0
   29.9620   26.2900   22.2040 O   0  0  0  0  0  0  0  0  0  0  0  0
   30.5400   27.0080   21.8300 H   0  0  0  0  0  0  0  0  0  0  0  0
   25.6470   26.7810   21.5730 O   0  0  0  0  0  0  0  0  0  0  0  0
   24.8180   27.7700   21.0360 C   0  0  0  0  0  0  0  0  0  0  0  0
   25.5300   28.5140   19.9760 C   0  0  0  0  0  0  0  0  0  0  0  0
   25.7630   28.1440   18.6680 C   0  0  0  0  0  0  0  0  0  0  0  0
   26.0790   29.7300   20.1360 N   0  0  0  0  0  0  0  0  0  0  0  0
   26.4360   29.1380   18.0900 N   0  0  0  0  0  0  0  0  0  0  0  0
   26.6100   30.0780   19.0020 N   0  0  0  0  0  0  0  0  0  0  0  0
   26.8700   29.1440   16.6890 C   0  0  0  0  0  0  0  0  0  0  0  0
   27.7310   30.3370   16.4330 C   0  0  0  0  0  0  0  0  0  0  0  0
   27.3600   31.3450   15.8100 O   0  0  0  0  0  0  0  0  0  0  0  0
   29.0710   30.3140   16.9390 N   0  0  0  0  0  0  0  0  0  0  0  0
   29.4100   29.4770   17.4660 H   0  0  0  0  0  0  0  0  0  0  0  0
   29.9590   31.3980   16.7530 C   0  0  0  0  0  0  0  0  0  0  0  0
   30.6670   31.5920   15.6240 N   0  0  0  0  0  0  0  0  0  0  0  0
   30.1320   32.3050   17.7340 N   0  0  0  0  0  0  0  0  0  0  0  0
   31.5060   32.6360   15.4730 C   0  0  0  0  0  0  0  0  0  0  0  0
   30.9430   33.3560   17.6480 C   0  0  0  0  0  0  0  0  0  0  0  0
   31.6690   33.5540   16.4900 C   0  0  0  0  0  0  0  0  0  0  0  0
   29.8670   25.5550   16.9770 C   0  0  0  0  0  0  0  0  0  0  0  0
   28.3450   25.7220   17.0260 C   0  0  0  0  0  0  0  0  0  0  0  0
   27.6010   24.4000   16.9070 C   0  0  0  0  0  0  0  0  0  0  0  0
   26.4710   24.2960   17.8930 C   0  0  0  0  0  0  0  0  0  0  0  0
   25.7170   22.9900   17.6660 C   0  0  0  0  0  0  0  0  0  0  0  0
   24.7730   22.7350   18.7810 N   0  0  0  0  0  0  0  0  0  0  0  0
  1  5  1  0  0  0  0
  2  1  1  0  0  0  0
  2  3  2  0  0  0  0
  4  1  1  0  0  0  0
  6  7  1  0  0  0  0
  6  5  1  6  0  0  0
  7 27  1  6  0  0  0
  8  7  1  1  0  0  0
  9 14  1  6  0  0  0
  9 16  1  0  0  0  0
  9 11  1  0  0  0  0
 10  9  1  0  0  0  0
 10 12  1  0  0  0  0
 11  8  1  0  0  0  0
 12 20  1  6  0  0  0
 12 13  1  0  0  0  0
 13  8  1  0  0  0  0
 13 22  1  1  0  0  0
 15 14  1  0  0  0  0
 16 17  2  0  0  0  0
 16 18  1  0  0  0  0
 19 18  1  0  0  0  0
 20 21  1  0  0  0  0
 22 24  1  0  0  0  0
 22 23  1  0  0  0  0
 23 25  1  0  0  0  0
 26 23  2  0  0  0  0
 28 27  1  0  0  0  0
 29  6  1  0  0  0  0
 30 29  1  0  0  0  0
 31  2  1  0  0  0  0
 32 31  1  0  0  0  0
 33 35  1  0  0  0  0
 33 32  1  0  0  0  0
 34 33  2  0  0  0  0
 36 34  1  0  0  0  0
 36 37  1  0  0  0  0
 37 35  2  0  0  0  0
 38 36  1  0  0  0  0
 39 38  1  0  0  0  0
 39 41  1  0  0  0  0
 40 39  2  0  0  0  0
 41 42  1  0  0  0  0
 43 41  1  0  0  0  0
 43 45  1  0  0  0  0
 44 43  2  0  0  0  0
 46 44  1  0  0  0  0
 46 48  2  0  0  0  0
 47 45  2  0  0  0  0
 48 47  1  0  0  0  0
 49 50  1  0  0  0  0
 51 50  1  0  0  0  0
 51 52  1  0  0  0  0
 53 52  1  0  0  0  0
 53 54  1  0  0  0  0
M  END
>  <REMARK>
 VINA RESULT:    -4.168      4.178      7.628
 INTER + INTRA:         -15.266
 INTER:                  -8.354
 INTRA:                  -6.912
 UNBOUND:                -7.565
 SMILES CC(=O)N[C@@H]1[C@@H](O)C[C@](O)(C(=O)O)O[C@H]1C(O)[C@H](O)CNC(=O)OCc1cn(CC(=O)Nc2ncccn2)nn1
 SMILES IDX 21 1 22 2 23 3 20 5 18 6 16 7 15 8 9 9 8 10 14 11 6 12 5 13
 SMILES IDX 10 14 11 16 12 17 13 18 7 20 4 22 2 23 1 25 3 26 17 27 19 29
 SMILES IDX 24 31 25 32 26 33 27 34 40 35 28 36 39 37 29 38 30 39 31 40
 SMILES IDX 32 41 33 43 34 44 38 45 35 46 37 47 36 48
 H PARENT 21 4 10 15 13 19 7 21 4 24 17 28 19 30 32 42
 Flexibility Score: inf
  4 active torsions:
  status: ('A' for Active; 'I' for Inactive)
    1  A    between atoms: CA   and  CB  
    2  A    between atoms: CB   and  CG  
    3  A    between atoms: CG   and  CD  
    4  A    between atoms: CD   and  CE  

>  <TORSDO>
F 17

>  <BEGIN_>
RES LYS A 131

$$$$
ligand_71_pose_3_2HRL.pdbqt
 OpenBabel07062320523D

  6  5  0  0  0  0  0  0  0  0999 V2000
   33.1930   34.6630    9.2900 C   0  0  0  0  0  0  0  0  0  0  0  0
   32.0600   35.3600   10.0340 C   0  0  0  0  0  0  0  0  0  0  0  0
   30.7020   34.7700    9.7540 C   0  0  0  0  0  0  0  0  0  0  0  0
   30.5380   34.4820    8.2690 C   0  0  0  0  0  0  0  0  0  0  0  0
   29.2540   35.0970    7.7460 C   0  0  0  0  0  0  0  0  0  0  0  0
   28.0640   34.5110    8.4240 N   0  0  0  0  0  0  0  0  0  0  0  0
  1  2  1  0  0  0  0
  3  2  1  0  0  0  0
  4  3  1  0  0  0  0
  5  4  1  0  0  0  0
  5  6  1  0  0  0  0
M  END
>  <EGIN_R>
ES LYS A 135

>  <REMARK>
  4 active torsions:
  status: ('A' for Active; 'I' for Inactive)
    5  A    between atoms: CA   and  CB  
    6  A    between atoms: CB   and  CG  
    7  A    between atoms: CG   and  CD  
    8  A    between atoms: CD   and  CE  

$$$$
