ligand_90_pose_10_2HRL.pdbqt
 OpenBabel07062320523D

 61 62  0  0  1  0  0  0  0  0999 V2000
   24.8260   34.3250   16.1520 C   0  0  0  0  0  0  0  0  0  0  0  0
   24.1850   34.6620   14.9380 O   0  0  0  0  0  0  0  0  0  0  0  0
   24.8960   35.1130   13.8410 C   0  0  0  0  0  0  0  0  0  0  0  0
   25.9340   34.3150   13.2470 N   0  0  0  0  0  0  0  0  0  0  0  0
   26.1170   33.3950   13.6950 H   0  0  0  0  0  0  0  0  0  0  0  0
   24.6200   36.2310   13.3740 O   0  0  0  0  0  0  0  0  0  0  0  0
   26.6880   34.7300   12.1140 C   0  0  0  0  0  0  0  0  0  0  0  0
   28.1530   34.8510   12.3520 C   0  0  2  0  0  0  0  0  0  0  0  0
   28.4580   34.4240   13.7790 C   0  0  1  0  0  0  0  0  0  0  0  0
   29.8570   33.9270   13.9490 C   0  0  2  0  0  0  0  0  0  0  0  0
   30.0020   32.5590   15.8290 C   0  0  2  0  0  0  0  0  0  0  0  0
   31.3440   33.0960   16.3050 C   0  0  0  0  0  0  0  0  0  0  0  0
   29.8620   32.6600   14.4730 O   0  0  0  0  0  0  0  0  0  0  0  0
   31.9150   34.0420   15.2570 C   0  0  1  0  0  0  0  0  0  0  0  0
   30.7240   34.8550   14.7350 C   0  0  1  0  0  0  0  0  0  0  0  0
   29.0380   33.3280   16.4560 O   0  0  0  0  0  0  0  0  0  0  0  0
   28.4770   32.7710   17.0530 H   0  0  0  0  0  0  0  0  0  0  0  0
   29.8050   31.1470   16.2460 C   0  0  0  0  0  0  0  0  0  0  0  0
   29.1620   30.3260   15.5330 O   0  0  0  0  0  0  0  0  0  0  0  0
   30.3250   30.6750   17.4390 O   0  0  0  0  0  0  0  0  0  0  0  0
   29.8360   30.6370   18.3160 H   0  0  0  0  0  0  0  0  0  0  0  0
   32.8380   34.8570   15.8870 O   0  0  0  0  0  0  0  0  0  0  0  0
   32.9010   34.7000   16.8560 H   0  0  0  0  0  0  0  0  0  0  0  0
   31.2120   35.9590   13.9190 N   0  0  0  0  0  0  0  0  0  0  0  0
   30.8570   37.2800   14.2560 C   0  0  0  0  0  0  0  0  0  0  0  0
   31.8030   35.7650   13.1070 H   0  0  0  0  0  0  0  0  0  0  0  0
   31.3410   38.4530   13.4390 C   0  0  0  0  0  0  0  0  0  0  0  0
   30.1300   37.5720   15.2350 O   0  0  0  0  0  0  0  0  0  0  0  0
   28.2220   35.4560   14.6730 O   0  0  0  0  0  0  0  0  0  0  0  0
   27.5600   35.2370   15.3540 H   0  0  0  0  0  0  0  0  0  0  0  0
   28.6720   36.1180   12.1380 O   0  0  0  0  0  0  0  0  0  0  0  0
   29.2830   36.4080   12.8680 H   0  0  0  0  0  0  0  0  0  0  0  0
   25.1150   32.8730   16.0630 C   0  0  0  0  0  0  0  0  0  0  0  0
   24.2430   31.8850   16.4630 C   0  0  0  0  0  0  0  0  0  0  0  0
   26.1940   32.2100   15.6210 N   0  0  0  0  0  0  0  0  0  0  0  0
   24.8050   30.6540   16.2580 N   0  0  0  0  0  0  0  0  0  0  0  0
   25.9880   30.8850   15.7460 N   0  0  0  0  0  0  0  0  0  0  0  0
   24.1130   29.4290   16.5970 C   0  0  0  0  0  0  0  0  0  0  0  0
   24.4850   29.1190   18.0350 C   0  0  0  0  0  0  0  0  0  0  0  0
   23.6250   28.6630   18.8190 O   0  0  0  0  0  0  0  0  0  0  0  0
   25.7740   29.3240   18.5310 N   0  0  0  0  0  0  0  0  0  0  0  0
   26.4610   29.7020   17.7740 H   0  0  0  0  0  0  0  0  0  0  0  0
   26.2980   29.1240   19.8320 C   0  0  0  0  0  0  0  0  0  0  0  0
   27.7340   28.9500   20.0370 C   0  0  1  0  0  0  0  0  0  0  0  0
   28.4710   28.9460   18.8220 O   0  0  0  0  0  0  0  0  0  0  0  0
   27.9170   29.3380   18.1050 H   0  0  0  0  0  0  0  0  0  0  0  0
   28.4410   29.5690   21.1700 C   0  0  0  0  0  0  0  0  0  0  0  0
   27.8480   30.8150   21.6170 N   0  0  0  0  0  0  0  0  0  0  0  0
   27.2000   31.0050   22.7940 C   0  0  0  0  0  0  0  0  0  0  0  0
   27.8280   31.9710   20.9290 C   0  0  0  0  0  0  0  0  0  0  0  0
   26.7800   32.3220   22.8040 C   0  0  0  0  0  0  0  0  0  0  0  0
   27.1620   32.9090   21.6690 N   0  0  0  0  0  0  0  0  0  0  0  0
   28.3760   32.2640   19.6560 N   0  0  0  0  0  0  0  0  0  0  0  0
   27.6700   31.9970   18.6380 O   0  0  0  0  0  0  0  0  0  0  0  0
   29.5930   32.8040   19.4110 O   0  0  0  0  0  0  0  0  0  0  0  0
   29.8670   25.5550   16.9770 C   0  0  0  0  0  0  0  0  0  0  0  0
   28.3450   25.7220   17.0260 C   0  0  0  0  0  0  0  0  0  0  0  0
   27.6010   24.4030   16.8850 C   0  0  0  0  0  0  0  0  0  0  0  0
   26.1880   24.4920   17.3920 C   0  0  0  0  0  0  0  0  0  0  0  0
   26.0150   25.7800   18.1900 C   0  0  0  0  0  0  0  0  0  0  0  0
   25.7680   25.4760   19.6200 N   0  0  0  0  0  0  0  0  0  0  0  0
  2  1  1  0  0  0  0
  3  2  1  0  0  0  0
  4  5  1  0  0  0  0
  4  3  1  0  0  0  0
  6  3  2  0  0  0  0
  7  4  1  0  0  0  0
  8  7  1  1  0  0  0
  8  9  1  0  0  0  0
  9 29  1  1  0  0  0
 10  9  1  1  0  0  0
 10 13  1  0  0  0  0
 10 15  1  0  0  0  0
 11 18  1  1  0  0  0
 11 12  1  0  0  0  0
 11 16  1  0  0  0  0
 13 11  1  0  0  0  0
 14 22  1  1  0  0  0
 14 12  1  0  0  0  0
 15 24  1  6  0  0  0
 15 14  1  0  0  0  0
 16 17  1  0  0  0  0
 18 20  1  0  0  0  0
 19 18  2  0  0  0  0
 20 21  1  0  0  0  0
 22 23  1  0  0  0  0
 24 25  1  0  0  0  0
 25 28  2  0  0  0  0
 26 24  1  0  0  0  0
 27 25  1  0  0  0  0
 29 30  1  0  0  0  0
 31  8  1  0  0  0  0
 31 32  1  0  0  0  0
 33  1  1  0  0  0  0
 33 34  2  0  0  0  0
 35 37  2  0  0  0  0
 35 33  1  0  0  0  0
 36 34  1  0  0  0  0
 36 38  1  0  0  0  0
 37 36  1  0  0  0  0
 38 39  1  0  0  0  0
 39 41  1  0  0  0  0
 39 40  2  0  0  0  0
 41 43  1  0  0  0  0
 42 41  1  0  0  0  0
 44 43  1  6  0  0  0
 44 47  1  0  0  0  0
 45 44  1  0  0  0  0
 46 45  1  0  0  0  0
 47 48  1  0  0  0  0
 48 49  1  0  0  0  0
 49 51  2  0  0  0  0
 50 48  1  0  0  0  0
 50 52  2  0  0  0  0
 52 51  1  0  0  0  0
 53 50  1  0  0  0  0
 54 53  2  0  0  0  0
 55 53  2  0  0  0  0
 56 57  1  0  0  0  0
 58 57  1  0  0  0  0
 58 59  1  0  0  0  0
 59 60  1  0  0  0  0
 60 61  1  0  0  0  0
M  END
>  <REMARK>
 VINA RESULT:    -5.198      5.378     10.871
 INTER + INTRA:         -16.732
 INTER:                  -7.678
 INTRA:                  -9.053
 UNBOUND:                -5.759
 SMILES CC(=O)N[C@@H]1[C@@H](O)C[C@](O)(C(=O)O)O[C@H]1C(O)[C@H](O)CNC(=O)OCc1cn(CC(=O)NCC(O)Cn2ccnc2[N+](=O)[O-])nn1
 SMILES IDX 25 1 24 2 22 3 21 4 23 6 20 7 18 8 16 9 15 10 9 11 8 12
 SMILES IDX 14 13 6 14 5 15 10 16 11 18 12 19 13 20 7 22 4 24 2 25 1 27
 SMILES IDX 3 28 17 29 19 31 26 33 27 34 46 35 28 36 45 37 29 38 30 39
 SMILES IDX 31 40 32 41 33 43 34 44 35 45 36 47 37 48 38 49 41 50 39 51
 SMILES IDX 40 52 42 53 43 54 44 55
 H PARENT 21 5 10 17 13 21 7 23 4 26 17 30 19 32 32 42 35 46
 Flexibility Score: inf
  4 active torsions:
  status: ('A' for Active; 'I' for Inactive)
    1  A    between atoms: CA   and  CB  
    2  A    between atoms: CB   and  CG  
    3  A    between atoms: CG   and  CD  
    4  A    between atoms: CD   and  CE  

>  <TORSDO>
F 22

>  <BEGIN_>
RES LYS A 131

$$$$
ligand_90_pose_10_2HRL.pdbqt
 OpenBabel07062320523D

  6  5  0  0  0  0  0  0  0  0999 V2000
   33.1930   34.6630    9.2900 C   0  0  0  0  0  0  0  0  0  0  0  0
   32.0600   35.3600   10.0340 C   0  0  0  0  0  0  0  0  0  0  0  0
   30.7940   35.4820    9.2260 C   0  0  0  0  0  0  0  0  0  0  0  0
   30.0880   34.1390    9.1280 C   0  0  0  0  0  0  0  0  0  0  0  0
   28.6690   34.3180    8.6230 C   0  0  0  0  0  0  0  0  0  0  0  0
   28.2450   35.7430    8.7100 N   0  0  0  0  0  0  0  0  0  0  0  0
  1  2  1  0  0  0  0
  3  2  1  0  0  0  0
  4  3  1  0  0  0  0
  5  6  1  0  0  0  0
  5  4  1  0  0  0  0
M  END
>  <EGIN_R>
ES LYS A 135

>  <REMARK>
  4 active torsions:
  status: ('A' for Active; 'I' for Inactive)
    5  A    between atoms: CA   and  CB  
    6  A    between atoms: CB   and  CG  
    7  A    between atoms: CG   and  CD  
    8  A    between atoms: CD   and  CE  

$$$$
