ligand_61_pose_6_2HRL.pdbqt
 OpenBabel07062320523D

 49 50  0  0  1  0  0  0  0  0999 V2000
   27.3960   36.8010    5.5960 N   0  0  0  0  0  0  0  0  0  0  0  0
   27.9910   35.8310    6.4360 C   0  0  0  0  0  0  0  0  0  0  0  0
   29.2390   35.7390    6.4720 O   0  0  0  0  0  0  0  0  0  0  0  0
   26.3290   36.8350    5.6090 H   0  0  0  0  0  0  0  0  0  0  0  0
   28.1300   37.7170    4.7510 C   0  0  0  0  0  0  0  0  0  0  0  0
   27.6820   39.1120    5.0420 C   0  0  2  0  0  0  0  0  0  0  0  0
   28.6880   39.9330    5.8220 C   0  0  2  0  0  0  0  0  0  0  0  0
   28.9700   39.2530    7.1200 C   0  0  2  0  0  0  0  0  0  0  0  0
   28.6360   39.3590    9.4050 C   0  0  2  0  0  0  0  0  0  0  0  0
   29.5500   38.1570    9.4010 C   0  0  0  0  0  0  0  0  0  0  0  0
   28.1460   39.6610    8.1500 O   0  0  0  0  0  0  0  0  0  0  0  0
   30.7300   38.3170    8.5020 C   0  0  1  0  0  0  0  0  0  0  0  0
   30.4410   39.4320    7.5200 C   0  0  1  0  0  0  0  0  0  0  0  0
   29.2190   40.4550   10.0430 O   0  0  0  0  0  0  0  0  0  0  0  0
   28.5360   41.1430   10.2120 H   0  0  0  0  0  0  0  0  0  0  0  0
   27.4450   38.9720   10.2430 C   0  0  0  0  0  0  0  0  0  0  0  0
   27.5290   38.2540   11.2480 O   0  0  0  0  0  0  0  0  0  0  0  0
   26.1850   39.4400    9.8760 O   0  0  0  0  0  0  0  0  0  0  0  0
   26.0450   40.2830    9.3320 H   0  0  0  0  0  0  0  0  0  0  0  0
   31.9250   38.4900    9.1650 O   0  0  0  0  0  0  0  0  0  0  0  0
   32.2090   39.4560    9.1780 H   0  0  0  0  0  0  0  0  0  0  0  0
   31.2790   39.3760    6.3500 N   0  0  0  0  0  0  0  0  0  0  0  0
   32.5030   40.1180    6.2870 C   0  0  0  0  0  0  0  0  0  0  0  0
   31.0320   38.8020    5.5150 H   0  0  0  0  0  0  0  0  0  0  0  0
   33.4070   40.1130    5.1350 C   0  0  0  0  0  0  0  0  0  0  0  0
   32.8260   40.8260    7.2980 O   0  0  0  0  0  0  0  0  0  0  0  0
   28.0900   41.1740    6.0500 O   0  0  0  0  0  0  0  0  0  0  0  0
   28.6790   41.8910    5.7090 H   0  0  0  0  0  0  0  0  0  0  0  0
   26.5360   39.0250    5.8490 O   0  0  0  0  0  0  0  0  0  0  0  0
   26.0420   38.1870    5.7180 H   0  0  0  0  0  0  0  0  0  0  0  0
   27.1720   34.9890    7.2150 O   0  0  0  0  0  0  0  0  0  0  0  0
   27.0340   35.3740    8.5760 C   0  0  0  0  0  0  0  0  0  0  0  0
   25.7860   36.1390    8.7090 C   0  0  0  0  0  0  0  0  0  0  0  0
   24.7800   35.9710    9.6470 C   0  0  0  0  0  0  0  0  0  0  0  0
   25.3990   37.1640    7.9190 N   0  0  0  0  0  0  0  0  0  0  0  0
   23.8490   36.8950    9.3730 N   0  0  0  0  0  0  0  0  0  0  0  0
   24.2160   37.6180    8.3320 N   0  0  0  0  0  0  0  0  0  0  0  0
   22.6260   37.0760   10.1050 C   0  0  0  0  0  0  0  0  0  0  0  0
   21.4220   36.7270    9.2300 C   0  0  0  0  0  0  0  0  0  0  0  0
   21.2600   35.5170    8.7070 C   0  0  0  0  0  0  0  0  0  0  0  0
   20.4910   37.7140    8.9940 C   0  0  0  0  0  0  0  0  0  0  0  0
   20.1660   35.2490    7.9310 C   0  0  0  0  0  0  0  0  0  0  0  0
   19.2900   36.8280    7.9360 S   0  0  0  0  0  0  0  0  0  0  0  0
   29.8670   25.5550   16.9770 C   0  0  0  0  0  0  0  0  0  0  0  0
   28.3450   25.7220   17.0260 C   0  0  0  0  0  0  0  0  0  0  0  0
   27.6020   24.3980   16.9340 C   0  0  0  0  0  0  0  0  0  0  0  0
   26.1620   24.5270   17.3460 C   0  0  0  0  0  0  0  0  0  0  0  0
   26.0720   25.3350   18.6360 C   0  0  0  0  0  0  0  0  0  0  0  0
   24.8210   26.1300   18.6640 N   0  0  0  0  0  0  0  0  0  0  0  0
  1  4  1  0  0  0  0
  1  2  1  0  0  0  0
  2  3  2  0  0  0  0
  2 31  1  0  0  0  0
  5  1  1  0  0  0  0
  6  5  1  1  0  0  0
  6  7  1  0  0  0  0
  6 29  1  0  0  0  0
  7 27  1  1  0  0  0
  8  7  1  6  0  0  0
  8 13  1  0  0  0  0
  8 11  1  0  0  0  0
  9 14  1  1  0  0  0
  9 16  1  0  0  0  0
 10  9  1  0  0  0  0
 11  9  1  0  0  0  0
 12 20  1  1  0  0  0
 12 10  1  0  0  0  0
 13 22  1  6  0  0  0
 13 12  1  0  0  0  0
 14 15  1  0  0  0  0
 16 17  2  0  0  0  0
 18 16  1  0  0  0  0
 19 18  1  0  0  0  0
 20 21  1  0  0  0  0
 23 22  1  0  0  0  0
 23 26  2  0  0  0  0
 24 22  1  0  0  0  0
 25 23  1  0  0  0  0
 28 27  1  0  0  0  0
 30 29  1  0  0  0  0
 31 32  1  0  0  0  0
 32 33  1  0  0  0  0
 33 34  2  0  0  0  0
 35 37  2  0  0  0  0
 35 33  1  0  0  0  0
 36 34  1  0  0  0  0
 36 38  1  0  0  0  0
 37 36  1  0  0  0  0
 39 38  1  0  0  0  0
 40 39  1  0  0  0  0
 41 39  2  0  0  0  0
 42 43  1  0  0  0  0
 42 40  2  0  0  0  0
 43 41  1  0  0  0  0
 44 45  1  0  0  0  0
 46 45  1  0  0  0  0
 46 47  1  0  0  0  0
 47 48  1  0  0  0  0
 48 49  1  0  0  0  0
M  END
>  <REMARK>
 VINA RESULT:    -4.315      3.668      7.017
 INTER + INTRA:         -13.857
 INTER:                  -8.364
 INTRA:                  -5.493
 UNBOUND:                -6.136
 SMILES CC(=O)N[C@@H]1[C@@H](O)C[C@](O)(C(=O)O)O[C@H]1C(O)[C@H](O)CNC(=O)OCc1cn(Cc2ccsc2)nn1
 SMILES IDX 21 1 22 2 23 3 20 5 18 6 16 7 15 8 9 9 8 10 14 11 6 12 5 13
 SMILES IDX 10 14 11 16 12 17 13 18 7 20 4 22 2 23 1 25 3 26 17 27 19 29
 SMILES IDX 24 31 25 32 26 33 27 34 36 35 28 36 35 37 29 38 30 39 31 40
 SMILES IDX 34 41 32 42 33 43
 H PARENT 21 4 10 15 13 19 7 21 4 24 17 28 19 30
 Flexibility Score: inf
  4 active torsions:
  status: ('A' for Active; 'I' for Inactive)
    1  A    between atoms: CA   and  CB  
    2  A    between atoms: CB   and  CG  
    3  A    between atoms: CG   and  CD  
    4  A    between atoms: CD   and  CE  

>  <TORSDO>
F 16

>  <BEGIN_>
RES LYS A 131

$$$$
ligand_61_pose_6_2HRL.pdbqt
 OpenBabel07062320523D

  6  5  0  0  0  0  0  0  0  0999 V2000
   33.1930   34.6630    9.2900 C   0  0  0  0  0  0  0  0  0  0  0  0
   32.0600   35.3600   10.0340 C   0  0  0  0  0  0  0  0  0  0  0  0
   30.7020   34.7710    9.7520 C   0  0  0  0  0  0  0  0  0  0  0  0
   29.8180   34.8450   10.9870 C   0  0  0  0  0  0  0  0  0  0  0  0
   30.6180   35.3110   12.1880 C   0  0  0  0  0  0  0  0  0  0  0  0
   30.3240   34.4760   13.3850 N   0  0  0  0  0  0  0  0  0  0  0  0
  1  2  1  0  0  0  0
  3  2  1  0  0  0  0
  3  4  1  0  0  0  0
  4  5  1  0  0  0  0
  5  6  1  0  0  0  0
M  END
>  <EGIN_R>
ES LYS A 135

>  <REMARK>
  4 active torsions:
  status: ('A' for Active; 'I' for Inactive)
    5  A    between atoms: CA   and  CB  
    6  A    between atoms: CB   and  CG  
    7  A    between atoms: CG   and  CD  
    8  A    between atoms: CD   and  CE  

$$$$
