ligand_54_pose_16_2HRL.pdbqt
 OpenBabel07062320523D

 52 52  0  0  1  0  0  0  0  0999 V2000
   26.5070   30.7860   18.9290 O   0  0  0  0  0  0  0  0  0  0  0  0
   27.6690   31.5110   18.6270 C   0  0  0  0  0  0  0  0  0  0  0  0
   28.9050   30.8700   18.3930 N   0  0  0  0  0  0  0  0  0  0  0  0
   28.8810   29.8030   18.4500 H   0  0  0  0  0  0  0  0  0  0  0  0
   27.5780   32.7390   18.5730 O   0  0  0  0  0  0  0  0  0  0  0  0
   30.1600   31.4810   18.0920 C   0  0  0  0  0  0  0  0  0  0  0  0
   30.6400   31.1030   16.7190 C   0  0  2  0  0  0  0  0  0  0  0  0
   31.0470   32.4090   16.0420 C   0  0  2  0  0  0  0  0  0  0  0  0
   29.9610   33.4370   16.1110 C   0  0  2  0  0  0  0  0  0  0  0  0
   28.1540   34.1710   14.8570 C   0  0  2  0  0  0  0  0  0  0  0  0
   28.1740   35.4320   15.6580 C   0  0  0  0  0  0  0  0  0  0  0  0
   28.8260   33.1040   15.4340 O   0  0  0  0  0  0  0  0  0  0  0  0
   29.5190   35.8130   16.2040 C   0  0  1  0  0  0  0  0  0  0  0  0
   30.5190   34.7950   15.6990 C   0  0  1  0  0  0  0  0  0  0  0  0
   28.5880   34.4120   13.5510 O   0  0  0  0  0  0  0  0  0  0  0  0
   29.5750   34.5850   13.6050 H   0  0  0  0  0  0  0  0  0  0  0  0
   26.7260   33.7500   14.7670 C   0  0  0  0  0  0  0  0  0  0  0  0
   26.0770   33.8920   13.7090 O   0  0  0  0  0  0  0  0  0  0  0  0
   26.1150   33.1880   15.9040 O   0  0  0  0  0  0  0  0  0  0  0  0
   26.6290   33.3000   16.7760 H   0  0  0  0  0  0  0  0  0  0  0  0
   29.8880   37.1180   15.9030 O   0  0  0  0  0  0  0  0  0  0  0  0
   30.4610   37.4260   16.6500 H   0  0  0  0  0  0  0  0  0  0  0  0
   31.8150   34.9440   16.3280 N   0  0  0  0  0  0  0  0  0  0  0  0
   32.8300   35.6840   15.6640 C   0  0  0  0  0  0  0  0  0  0  0  0
   32.0590   34.5400   17.2480 H   0  0  0  0  0  0  0  0  0  0  0  0
   34.1790   35.8870   16.2290 C   0  0  0  0  0  0  0  0  0  0  0  0
   32.5670   36.1920   14.5390 O   0  0  0  0  0  0  0  0  0  0  0  0
   31.4270   32.1280   14.7390 O   0  0  0  0  0  0  0  0  0  0  0  0
   31.3000   32.9020   14.1250 H   0  0  0  0  0  0  0  0  0  0  0  0
   29.6210   30.5690   15.9740 O   0  0  0  0  0  0  0  0  0  0  0  0
   28.7470   31.0100   16.1320 H   0  0  0  0  0  0  0  0  0  0  0  0
   26.2110   29.5800   18.2300 C   0  0  0  0  0  0  0  0  0  0  0  0
   25.6950   29.9080   16.8890 C   0  0  0  0  0  0  0  0  0  0  0  0
   24.3250   29.9630   16.6130 C   0  0  0  0  0  0  0  0  0  0  0  0
   26.2900   30.2000   15.7410 N   0  0  0  0  0  0  0  0  0  0  0  0
   24.1620   30.2850   15.3130 N   0  0  0  0  0  0  0  0  0  0  0  0
   25.3540   30.4220   14.8090 N   0  0  0  0  0  0  0  0  0  0  0  0
   22.8820   30.4260   14.6780 C   0  0  0  0  0  0  0  0  0  0  0  0
   22.6680   29.4410   13.5530 C   0  0  0  0  0  0  0  0  0  0  0  0
   21.8870   28.2340   13.9720 C   0  0  0  0  0  0  0  0  0  0  0  0
   20.6280   28.3050   13.3850 O   0  0  0  0  0  0  0  0  0  0  0  0
   20.7040   28.9700   12.1560 C   0  0  0  0  0  0  0  0  0  0  0  0
   19.3520   29.4570   11.7040 C   0  0  0  0  0  0  0  0  0  0  0  0
   21.7410   28.1390   15.3310 O   0  0  0  0  0  0  0  0  0  0  0  0
   21.0770   26.9730   15.7130 C   0  0  0  0  0  0  0  0  0  0  0  0
   22.0570   25.8070   15.6410 C   0  0  0  0  0  0  0  0  0  0  0  0
   29.8670   25.5550   16.9770 C   0  0  0  0  0  0  0  0  0  0  0  0
   28.3450   25.7220   17.0260 C   0  0  0  0  0  0  0  0  0  0  0  0
   27.6010   24.4020   16.8910 C   0  0  0  0  0  0  0  0  0  0  0  0
   26.1570   24.5230   17.2900 C   0  0  0  0  0  0  0  0  0  0  0  0
   25.9810   24.0240   18.7210 C   0  0  0  0  0  0  0  0  0  0  0  0
   25.1240   22.8150   18.7470 N   0  0  0  0  0  0  0  0  0  0  0  0
  2  1  1  0  0  0  0
  3  4  1  0  0  0  0
  3  2  1  0  0  0  0
  5  2  2  0  0  0  0
  6  3  1  0  0  0  0
  7  6  1  1  0  0  0
  8 28  1  6  0  0  0
  8  7  1  0  0  0  0
  9  8  1  6  0  0  0
 10 15  1  6  0  0  0
 10 12  1  0  0  0  0
 10 11  1  0  0  0  0
 11 13  1  0  0  0  0
 12  9  1  0  0  0  0
 13 21  1  6  0  0  0
 14  9  1  0  0  0  0
 14 13  1  0  0  0  0
 14 23  1  1  0  0  0
 15 16  1  0  0  0  0
 17 10  1  0  0  0  0
 17 19  1  0  0  0  0
 18 17  2  0  0  0  0
 19 20  1  0  0  0  0
 21 22  1  0  0  0  0
 23 25  1  0  0  0  0
 24 26  1  0  0  0  0
 24 23  1  0  0  0  0
 27 24  2  0  0  0  0
 29 28  1  0  0  0  0
 30 31  1  0  0  0  0
 30  7  1  0  0  0  0
 32  1  1  0  0  0  0
 33 32  1  0  0  0  0
 34 33  2  0  0  0  0
 35 33  1  0  0  0  0
 36 34  1  0  0  0  0
 37 36  1  0  0  0  0
 37 35  2  0  0  0  0
 38 36  1  0  0  0  0
 39 40  1  0  0  0  0
 39 38  1  0  0  0  0
 40 44  1  0  0  0  0
 41 40  1  0  0  0  0
 42 41  1  0  0  0  0
 43 42  1  0  0  0  0
 44 45  1  0  0  0  0
 46 45  1  0  0  0  0
 47 48  1  0  0  0  0
 49 48  1  0  0  0  0
 49 50  1  0  0  0  0
 50 51  1  0  0  0  0
 51 52  1  0  0  0  0
M  END
>  <REMARK>
 VINA RESULT:    -4.057      3.559      8.091
 INTER + INTRA:         -14.384
 INTER:                  -7.817
 INTRA:                  -6.566
 UNBOUND:                -5.938
 SMILES CCOC(CCn1cc(COC(=O)NC[C@@H](O)C(O)[C@@H]2O[C@@](O)(C(=O)O)C[C@H](O)[C@H]2NC(C)=O)nn1)OCC
 SMILES IDX 11 1 12 2 14 3 13 5 15 6 16 7 18 8 20 9 22 10 27 11 21 12
 SMILES IDX 28 13 30 14 23 15 24 17 25 18 26 19 29 21 31 23 32 24 33 26
 SMILES IDX 34 27 19 28 17 30 10 32 9 33 8 34 35 35 7 36 36 37 6 38 5 39
 SMILES IDX 4 40 3 41 2 42 1 43 37 44 38 45 39 46
 H PARENT 14 4 23 16 26 20 29 22 31 25 19 29 17 31
 Flexibility Score: inf
  4 active torsions:
  status: ('A' for Active; 'I' for Inactive)
    1  A    between atoms: CA   and  CB  
    2  A    between atoms: CB   and  CG  
    3  A    between atoms: CG   and  CD  
    4  A    between atoms: CD   and  CE  

>  <TORSDO>
F 21

>  <BEGIN_>
RES LYS A 131

$$$$
ligand_54_pose_16_2HRL.pdbqt
 OpenBabel07062320523D

  6  5  0  0  0  0  0  0  0  0999 V2000
   33.1930   34.6630    9.2900 C   0  0  0  0  0  0  0  0  0  0  0  0
   32.0600   35.3600   10.0340 C   0  0  0  0  0  0  0  0  0  0  0  0
   30.7090   34.7350    9.7970 C   0  0  0  0  0  0  0  0  0  0  0  0
   30.5140   34.4230    8.3210 C   0  0  0  0  0  0  0  0  0  0  0  0
   29.1600   34.9170    7.8470 C   0  0  0  0  0  0  0  0  0  0  0  0
   28.0610   34.3360    8.6670 N   0  0  0  0  0  0  0  0  0  0  0  0
  1  2  1  0  0  0  0
  3  2  1  0  0  0  0
  4  3  1  0  0  0  0
  5  4  1  0  0  0  0
  5  6  1  0  0  0  0
M  END
>  <EGIN_R>
ES LYS A 135

>  <REMARK>
  4 active torsions:
  status: ('A' for Active; 'I' for Inactive)
    5  A    between atoms: CA   and  CB  
    6  A    between atoms: CB   and  CG  
    7  A    between atoms: CG   and  CD  
    8  A    between atoms: CD   and  CE  

$$$$
