ligand_8_pose_13_2HRL.pdbqt
 OpenBabel07062320523D

 50 51  0  0  1  0  0  0  0  0999 V2000
   32.3810   36.1250   19.5330 C   0  0  0  0  0  0  0  0  0  0  0  0
   31.8740   36.4940   18.1630 C   0  0  2  0  0  0  0  0  0  0  0  0
   32.1280   35.3370   17.2480 C   0  0  1  0  0  0  0  0  0  0  0  0
   31.0430   35.0500   16.2370 C   0  0  2  0  0  0  0  0  0  0  0  0
   29.7320   33.2640   17.0040 C   0  0  2  0  0  0  0  0  0  0  0  0
   29.3520   32.8900   15.5700 C   0  0  0  0  0  0  0  0  0  0  0  0
   29.9610   34.5990   16.9810 O   0  0  0  0  0  0  0  0  0  0  0  0
   30.6200   33.0130   14.7760 C   0  0  1  0  0  0  0  0  0  0  0  0
   31.4370   34.2410   15.0790 C   0  0  1  0  0  0  0  0  0  0  0  0
   30.7780   32.4530   17.3630 O   0  0  0  0  0  0  0  0  0  0  0  0
   30.4470   31.5200   17.3710 H   0  0  0  0  0  0  0  0  0  0  0  0
   28.5800   32.9730   17.9010 C   0  0  0  0  0  0  0  0  0  0  0  0
   28.1580   31.7930   17.9880 O   0  0  0  0  0  0  0  0  0  0  0  0
   27.9630   33.9750   18.6420 O   0  0  0  0  0  0  0  0  0  0  0  0
   26.9560   34.0340   18.7670 H   0  0  0  0  0  0  0  0  0  0  0  0
   31.3730   31.8710   15.0550 O   0  0  0  0  0  0  0  0  0  0  0  0
   32.2140   31.8670   14.5660 H   0  0  0  0  0  0  0  0  0  0  0  0
   31.4210   35.1090   13.8820 N   0  0  0  0  0  0  0  0  0  0  0  0
   32.6160   35.4850   13.2300 C   0  0  0  0  0  0  0  0  0  0  0  0
   30.5000   35.4640   13.4930 H   0  0  0  0  0  0  0  0  0  0  0  0
   32.6080   36.3740   12.0190 C   0  0  0  0  0  0  0  0  0  0  0  0
   33.7030   35.0540   13.6910 O   0  0  0  0  0  0  0  0  0  0  0  0
   33.4010   35.3870   16.7410 O   0  0  0  0  0  0  0  0  0  0  0  0
   33.8140   34.4770   16.6380 H   0  0  0  0  0  0  0  0  0  0  0  0
   32.5060   37.6250   17.7120 O   0  0  0  0  0  0  0  0  0  0  0  0
   32.4110   37.7560   16.7290 H   0  0  0  0  0  0  0  0  0  0  0  0
   33.5580   35.3270   19.5890 N   0  0  0  0  0  0  0  0  0  0  0  0
   34.7000   35.6450   20.3560 C   0  0  0  0  0  0  0  0  0  0  0  0
   33.6180   34.4160   19.0230 H   0  0  0  0  0  0  0  0  0  0  0  0
   34.7940   36.6770   21.0600 O   0  0  0  0  0  0  0  0  0  0  0  0
   35.7890   34.7610   20.3320 O   0  0  0  0  0  0  0  0  0  0  0  0
   37.0200   35.2620   19.8630 C   0  0  0  0  0  0  0  0  0  0  0  0
   36.8950   35.4860   18.4020 C   0  0  0  0  0  0  0  0  0  0  0  0
   37.7630   34.9500   17.4410 C   0  0  0  0  0  0  0  0  0  0  0  0
   36.0150   36.1920   17.6820 N   0  0  0  0  0  0  0  0  0  0  0  0
   37.3840   35.3430   16.2120 N   0  0  0  0  0  0  0  0  0  0  0  0
   36.3150   36.1000   16.3900 N   0  0  0  0  0  0  0  0  0  0  0  0
   38.0210   35.0000   14.9820 C   0  0  0  0  0  0  0  0  0  0  0  0
   37.6420   33.8940   14.2530 C   0  0  0  0  0  0  0  0  0  0  0  0
   39.0460   35.7680   14.4730 C   0  0  0  0  0  0  0  0  0  0  0  0
   38.2760   33.5730   13.0520 C   0  0  0  0  0  0  0  0  0  0  0  0
   39.6780   35.4530   13.2810 C   0  0  0  0  0  0  0  0  0  0  0  0
   39.5820   37.3110   15.4810 Br  0  0  0  0  0  0  0  0  0  0  0  0
   39.3010   34.3470   12.5490 C   0  0  0  0  0  0  0  0  0  0  0  0
   29.8670   25.5550   16.9770 C   0  0  0  0  0  0  0  0  0  0  0  0
   28.3450   25.7220   17.0260 C   0  0  0  0  0  0  0  0  0  0  0  0
   27.6010   24.4000   16.9080 C   0  0  0  0  0  0  0  0  0  0  0  0
   26.4810   24.2900   17.9040 C   0  0  0  0  0  0  0  0  0  0  0  0
   26.2010   25.6610   18.5100 C   0  0  0  0  0  0  0  0  0  0  0  0
   25.1010   25.5770   19.4990 N   0  0  0  0  0  0  0  0  0  0  0  0
  1 27  1  0  0  0  0
  2  1  1  1  0  0  0
  3 23  1  6  0  0  0
  3  2  1  0  0  0  0
  4  7  1  0  0  0  0
  4  3  1  1  0  0  0
  5 10  1  1  0  0  0
  5 12  1  0  0  0  0
  6  5  1  0  0  0  0
  7  5  1  0  0  0  0
  8 16  1  1  0  0  0
  8  9  1  0  0  0  0
  8  6  1  0  0  0  0
  9 18  1  6  0  0  0
  9  4  1  0  0  0  0
 10 11  1  0  0  0  0
 12 13  2  0  0  0  0
 12 14  1  0  0  0  0
 14 15  1  0  0  0  0
 17 16  1  0  0  0  0
 19 22  2  0  0  0  0
 19 18  1  0  0  0  0
 20 18  1  0  0  0  0
 21 19  1  0  0  0  0
 24 23  1  0  0  0  0
 25  2  1  0  0  0  0
 26 25  1  0  0  0  0
 27 28  1  0  0  0  0
 28 30  2  0  0  0  0
 29 27  1  0  0  0  0
 31 28  1  0  0  0  0
 32 31  1  0  0  0  0
 33 32  1  0  0  0  0
 34 33  2  0  0  0  0
 35 33  1  0  0  0  0
 36 37  1  0  0  0  0
 36 34  1  0  0  0  0
 37 35  2  0  0  0  0
 38 36  1  0  0  0  0
 39 38  2  0  0  0  0
 40 38  1  0  0  0  0
 40 43  1  0  0  0  0
 41 39  1  0  0  0  0
 42 40  2  0  0  0  0
 44 41  2  0  0  0  0
 44 42  1  0  0  0  0
 45 46  1  0  0  0  0
 47 46  1  0  0  0  0
 47 48  1  0  0  0  0
 48 49  1  0  0  0  0
 49 50  1  0  0  0  0
M  END
>  <REMARK>
 VINA RESULT:    -5.485      4.606      8.321
 INTER + INTRA:         -13.888
 INTER:                  -8.480
 INTRA:                  -5.408
 UNBOUND:                -4.396
 SMILES CC(=O)N[C@@H]1[C@@H](O)C[C@](O)(C(=O)O)O[C@H]1C(O)[C@H](O)CNC(=O)OCc1cn(-c2ccccc2Br)nn1
 SMILES IDX 20 1 18 2 16 3 15 4 9 5 8 6 14 7 6 8 5 9 10 10 11 12 12 13
 SMILES IDX 13 14 7 16 4 18 2 19 1 21 3 22 17 23 19 25 21 27 22 28 23 30
 SMILES IDX 24 31 25 32 26 33 27 34 37 35 28 36 36 37 29 38 30 39 34 40
 SMILES IDX 31 41 33 42 35 43 32 44
 H PARENT 10 11 13 15 7 17 4 20 17 24 19 26 21 29
 Flexibility Score: inf
  4 active torsions:
  status: ('A' for Active; 'I' for Inactive)
    1  A    between atoms: CA   and  CB  
    2  A    between atoms: CB   and  CG  
    3  A    between atoms: CG   and  CD  
    4  A    between atoms: CD   and  CE  

>  <TORSDO>
F 15

>  <BEGIN_>
RES LYS A 131

$$$$
ligand_8_pose_13_2HRL.pdbqt
 OpenBabel07062320523D

  6  5  0  0  0  0  0  0  0  0999 V2000
   33.1930   34.6630    9.2900 C   0  0  0  0  0  0  0  0  0  0  0  0
   32.0600   35.3600   10.0340 C   0  0  0  0  0  0  0  0  0  0  0  0
   30.8740   35.6810    9.1620 C   0  0  0  0  0  0  0  0  0  0  0  0
   30.3190   34.4160    8.5240 C   0  0  0  0  0  0  0  0  0  0  0  0
   29.0170   34.0120    9.1880 C   0  0  0  0  0  0  0  0  0  0  0  0
   27.8440   34.5090    8.4160 N   0  0  0  0  0  0  0  0  0  0  0  0
  1  2  1  0  0  0  0
  3  2  1  0  0  0  0
  4  3  1  0  0  0  0
  4  5  1  0  0  0  0
  6  5  1  0  0  0  0
M  END
>  <EGIN_R>
ES LYS A 135

>  <REMARK>
  4 active torsions:
  status: ('A' for Active; 'I' for Inactive)
    5  A    between atoms: CA   and  CB  
    6  A    between atoms: CB   and  CG  
    7  A    between atoms: CG   and  CD  
    8  A    between atoms: CD   and  CE  

$$$$
