ligand_9_pose_9_2HRL.pdbqt
 OpenBabel07062320523D

 54 55  0  0  1  0  0  0  0  0999 V2000
   26.0200   37.2560    9.4830 N   0  0  0  0  0  0  0  0  0  0  0  0
   26.5310   38.5020    9.9350 C   0  0  0  0  0  0  0  0  0  0  0  0
   26.3440   39.5190    9.2220 O   0  0  0  0  0  0  0  0  0  0  0  0
   26.1860   36.4270   10.0890 H   0  0  0  0  0  0  0  0  0  0  0  0
   25.2990   37.1420    8.2320 C   0  0  0  0  0  0  0  0  0  0  0  0
   23.8240   37.0150    8.4190 C   0  0  2  0  0  0  0  0  0  0  0  0
   23.3860   35.6500    8.8410 C   0  0  1  0  0  0  0  0  0  0  0  0
   23.3070   35.5610   10.3870 C   0  0  2  0  0  0  0  0  0  0  0  0
   24.3800   34.7040   12.1850 C   0  0  2  0  0  0  0  0  0  0  0  0
   23.2330   33.7970   12.5690 C   0  0  0  0  0  0  0  0  0  0  0  0
   24.3950   34.8600   10.8350 O   0  0  0  0  0  0  0  0  0  0  0  0
   21.9080   34.3100   12.0930 C   0  0  1  0  0  0  0  0  0  0  0  0
   21.9750   35.0380   10.7820 C   0  0  1  0  0  0  0  0  0  0  0  0
   25.5520   33.9690   12.5200 O   0  0  0  0  0  0  0  0  0  0  0  0
   26.3390   34.3000   12.0520 H   0  0  0  0  0  0  0  0  0  0  0  0
   24.3760   35.9300   12.9950 C   0  0  0  0  0  0  0  0  0  0  0  0
   23.6720   36.0700   14.0510 O   0  0  0  0  0  0  0  0  0  0  0  0
   25.1920   37.0020   12.5820 O   0  0  0  0  0  0  0  0  0  0  0  0
   26.1980   36.9260   12.7760 H   0  0  0  0  0  0  0  0  0  0  0  0
   21.0090   33.2460   12.0430 O   0  0  0  0  0  0  0  0  0  0  0  0
   21.4600   32.3680   11.9700 H   0  0  0  0  0  0  0  0  0  0  0  0
   20.9940   36.1070   10.7130 N   0  0  0  0  0  0  0  0  0  0  0  0
   19.6910   35.8970   10.1890 C   0  0  0  0  0  0  0  0  0  0  0  0
   21.2790   37.0660   11.0700 H   0  0  0  0  0  0  0  0  0  0  0  0
   18.7420   37.0400   10.1500 C   0  0  0  0  0  0  0  0  0  0  0  0
   19.3290   34.7500    9.7570 O   0  0  0  0  0  0  0  0  0  0  0  0
   22.1760   35.2430    8.3380 O   0  0  0  0  0  0  0  0  0  0  0  0
   22.1740   34.3750    7.8950 H   0  0  0  0  0  0  0  0  0  0  0  0
   23.1370   37.4960    7.3080 O   0  0  0  0  0  0  0  0  0  0  0  0
   23.6660   37.2430    6.5040 H   0  0  0  0  0  0  0  0  0  0  0  0
   27.2260   38.6640   11.1210 O   0  0  0  0  0  0  0  0  0  0  0  0
   28.5760   38.2620   11.2600 C   0  0  0  0  0  0  0  0  0  0  0  0
   28.6590   36.9330   11.8950 C   0  0  0  0  0  0  0  0  0  0  0  0
   29.5800   36.4700   12.8200 C   0  0  0  0  0  0  0  0  0  0  0  0
   27.8310   35.8860   11.6890 N   0  0  0  0  0  0  0  0  0  0  0  0
   29.2880   35.1920   13.1370 N   0  0  0  0  0  0  0  0  0  0  0  0
   28.2070   34.8720   12.4200 N   0  0  0  0  0  0  0  0  0  0  0  0
   29.9510   34.3230   14.0300 C   0  0  0  0  0  0  0  0  0  0  0  0
   29.2820   33.2990   14.6730 C   0  0  0  0  0  0  0  0  0  0  0  0
   31.2960   34.4630   14.2960 C   0  0  0  0  0  0  0  0  0  0  0  0
   29.8930   32.4270   15.5540 C   0  0  0  0  0  0  0  0  0  0  0  0
   31.9400   33.6000   15.1780 C   0  0  0  0  0  0  0  0  0  0  0  0
   31.2370   32.5970   15.7950 C   0  0  0  0  0  0  0  0  0  0  0  0
   29.1610   31.3550   16.2170 C   0  0  0  0  0  0  0  0  0  0  0  0
   28.9910   30.2640   15.6190 O   0  0  0  0  0  0  0  0  0  0  0  0
   28.6410   31.4850   17.4940 O   0  0  0  0  0  0  0  0  0  0  0  0
   29.0270   30.6470   18.5650 C   0  0  0  0  0  0  0  0  0  0  0  0
   30.3860   31.0700   19.0410 C   0  0  0  0  0  0  0  0  0  0  0  0
   29.8670   25.5550   16.9770 C   0  0  0  0  0  0  0  0  0  0  0  0
   28.3450   25.7220   17.0260 C   0  0  0  0  0  0  0  0  0  0  0  0
   27.6020   24.3990   16.9200 C   0  0  0  0  0  0  0  0  0  0  0  0
   26.1500   24.5340   17.2880 C   0  0  0  0  0  0  0  0  0  0  0  0
   26.0050   25.5400   18.4250 C   0  0  0  0  0  0  0  0  0  0  0  0
   24.9980   26.5710   18.0810 N   0  0  0  0  0  0  0  0  0  0  0  0
  1  2  1  0  0  0  0
  1  4  1  0  0  0  0
  2 31  1  0  0  0  0
  3  2  2  0  0  0  0
  5  1  1  0  0  0  0
  6  5  1  6  0  0  0
  6  7  1  0  0  0  0
  7 27  1  6  0  0  0
  8  7  1  6  0  0  0
  8 13  1  0  0  0  0
  8 11  1  0  0  0  0
  9 14  1  1  0  0  0
  9 10  1  0  0  0  0
  9 16  1  0  0  0  0
 11  9  1  0  0  0  0
 12 20  1  6  0  0  0
 12 10  1  0  0  0  0
 13 22  1  1  0  0  0
 13 12  1  0  0  0  0
 15 14  1  0  0  0  0
 16 17  2  0  0  0  0
 18 19  1  0  0  0  0
 18 16  1  0  0  0  0
 21 20  1  0  0  0  0
 22 24  1  0  0  0  0
 23 22  1  0  0  0  0
 25 23  1  0  0  0  0
 26 23  2  0  0  0  0
 28 27  1  0  0  0  0
 29  6  1  0  0  0  0
 30 29  1  0  0  0  0
 31 32  1  0  0  0  0
 32 33  1  0  0  0  0
 33 34  2  0  0  0  0
 34 36  1  0  0  0  0
 35 33  1  0  0  0  0
 35 37  2  0  0  0  0
 36 38  1  0  0  0  0
 37 36  1  0  0  0  0
 38 40  2  0  0  0  0
 38 39  1  0  0  0  0
 39 41  2  0  0  0  0
 40 42  1  0  0  0  0
 41 43  1  0  0  0  0
 41 44  1  0  0  0  0
 42 43  2  0  0  0  0
 44 46  1  0  0  0  0
 45 44  2  0  0  0  0
 46 47  1  0  0  0  0
 47 48  1  0  0  0  0
 49 50  1  0  0  0  0
 51 50  1  0  0  0  0
 51 52  1  0  0  0  0
 52 53  1  0  0  0  0
 54 53  1  0  0  0  0
M  END
>  <REMARK>
 VINA RESULT:    -4.997      4.935     10.334
 INTER + INTRA:         -15.197
 INTER:                  -8.690
 INTRA:                  -6.507
 UNBOUND:                -5.671
 SMILES CCOC(=O)c1cccc(-n2cc(COC(=O)NC[C@@H](O)C(O)[C@@H]3O[C@@](O)(C(=O)O)C[C@H](O)[C@H]3NC(C)=O)nn2)c1
 SMILES IDX 18 1 16 2 17 3 19 5 20 6 22 7 24 8 26 9 31 10 25 11 32 12
 SMILES IDX 34 13 27 14 28 16 29 17 30 18 33 20 35 22 36 23 37 25 38 26
 SMILES IDX 23 27 21 29 15 31 14 32 13 33 12 34 39 35 11 36 40 37 10 38
 SMILES IDX 41 39 9 40 6 41 8 42 7 43 4 44 5 45 3 46 2 47 1 48
 H PARENT 18 4 27 15 30 19 33 21 35 24 23 28 21 30
 Flexibility Score: inf
  4 active torsions:
  status: ('A' for Active; 'I' for Inactive)
    1  A    between atoms: CA   and  CB  
    2  A    between atoms: CB   and  CG  
    3  A    between atoms: CG   and  CD  
    4  A    between atoms: CD   and  CE  

>  <TORSDO>
F 18

>  <BEGIN_>
RES LYS A 131

$$$$
ligand_9_pose_9_2HRL.pdbqt
 OpenBabel07062320523D

  6  5  0  0  0  0  0  0  0  0999 V2000
   33.1930   34.6630    9.2900 C   0  0  0  0  0  0  0  0  0  0  0  0
   32.0600   35.3600   10.0340 C   0  0  0  0  0  0  0  0  0  0  0  0
   30.7130   34.7190    9.8190 C   0  0  0  0  0  0  0  0  0  0  0  0
   30.4110   34.5900    8.3340 C   0  0  0  0  0  0  0  0  0  0  0  0
   28.9850   35.0150    8.0420 C   0  0  0  0  0  0  0  0  0  0  0  0
   28.8580   35.5520    6.6580 N   0  0  0  0  0  0  0  0  0  0  0  0
  1  2  1  0  0  0  0
  3  2  1  0  0  0  0
  4  3  1  0  0  0  0
  5  4  1  0  0  0  0
  6  5  1  0  0  0  0
M  END
>  <EGIN_R>
ES LYS A 135

>  <REMARK>
  4 active torsions:
  status: ('A' for Active; 'I' for Inactive)
    5  A    between atoms: CA   and  CB  
    6  A    between atoms: CB   and  CG  
    7  A    between atoms: CG   and  CD  
    8  A    between atoms: CD   and  CE  

$$$$
