ligand_32_pose_2_2HRL.pdbqt
 OpenBabel07062320523D

 49 49  0  0  1  0  0  0  0  0999 V2000
   27.9100   28.4520   18.4400 N   0  0  0  0  0  0  0  0  0  0  0  0
   27.4140   29.1150   17.2890 C   0  0  0  0  0  0  0  0  0  0  0  0
   26.1690   29.2030   17.0670 O   0  0  0  0  0  0  0  0  0  0  0  0
   28.9360   28.4020   18.5880 H   0  0  0  0  0  0  0  0  0  0  0  0
   27.0270   27.8450   19.4070 C   0  0  0  0  0  0  0  0  0  0  0  0
   26.7870   28.6930   20.6260 C   0  0  2  0  0  0  0  0  0  0  0  0
   27.9500   28.5760   21.6120 C   0  0  1  0  0  0  0  0  0  0  0  0
   28.8090   29.8260   21.5450 C   0  0  2  0  0  0  0  0  0  0  0  0
   29.6480   31.1700   19.8290 C   0  0  2  0  0  0  0  0  0  0  0  0
   30.6840   31.7200   20.7700 C   0  0  0  0  0  0  0  0  0  0  0  0
   28.5640   30.6000   20.4580 O   0  0  0  0  0  0  0  0  0  0  0  0
   30.9250   30.9040   21.9890 C   0  0  1  0  0  0  0  0  0  0  0  0
   30.2710   29.5320   21.7590 C   0  0  1  0  0  0  0  0  0  0  0  0
   30.2760   30.3010   18.9450 O   0  0  0  0  0  0  0  0  0  0  0  0
   30.5680   29.5210   19.4930 H   0  0  0  0  0  0  0  0  0  0  0  0
   29.1370   32.3180   19.0460 C   0  0  0  0  0  0  0  0  0  0  0  0
   27.9230   32.5220   18.8280 O   0  0  0  0  0  0  0  0  0  0  0  0
   30.0360   33.2280   18.5170 O   0  0  0  0  0  0  0  0  0  0  0  0
   30.4390   33.9890   19.0490 H   0  0  0  0  0  0  0  0  0  0  0  0
   32.2750   30.7550   22.2930 O   0  0  0  0  0  0  0  0  0  0  0  0
   32.6470   31.5540   22.7580 H   0  0  0  0  0  0  0  0  0  0  0  0
   30.4850   28.6740   22.9070 N   0  0  0  0  0  0  0  0  0  0  0  0
   31.5340   27.7130   22.9040 C   0  0  0  0  0  0  0  0  0  0  0  0
   29.8850   28.7260   23.7650 H   0  0  0  0  0  0  0  0  0  0  0  0
   31.7930   26.8020   24.0700 C   0  0  0  0  0  0  0  0  0  0  0  0
   32.2940   27.6020   21.8890 O   0  0  0  0  0  0  0  0  0  0  0  0
   27.4170   28.4590   22.8930 O   0  0  0  0  0  0  0  0  0  0  0  0
   28.0660   28.0700   23.5400 H   0  0  0  0  0  0  0  0  0  0  0  0
   25.6040   28.2400   21.2150 O   0  0  0  0  0  0  0  0  0  0  0  0
   25.6520   27.2550   21.3060 H   0  0  0  0  0  0  0  0  0  0  0  0
   28.3040   29.6730   16.4010 O   0  0  0  0  0  0  0  0  0  0  0  0
   28.0470   30.8680   15.6840 C   0  0  0  0  0  0  0  0  0  0  0  0
   29.3040   31.6810   15.5670 C   0  0  0  0  0  0  0  0  0  0  0  0
   29.4540   32.8840   14.9290 C   0  0  0  0  0  0  0  0  0  0  0  0
   30.5030   31.3350   16.0780 N   0  0  0  0  0  0  0  0  0  0  0  0
   30.7510   33.2490   15.0660 N   0  0  0  0  0  0  0  0  0  0  0  0
   31.3560   32.2960   15.7630 N   0  0  0  0  0  0  0  0  0  0  0  0
   31.3110   34.4710   14.5310 C   0  0  0  0  0  0  0  0  0  0  0  0
   32.7330   34.6070   15.0710 C   0  0  0  0  0  0  0  0  0  0  0  0
   33.6360   34.6690   13.8820 C   0  0  0  0  0  0  0  0  0  0  0  0
   34.8600   34.4970   13.9520 O   0  0  0  0  0  0  0  0  0  0  0  0
   33.0300   34.9370   12.6540 O   0  0  0  0  0  0  0  0  0  0  0  0
   33.5630   35.4020   11.9210 H   0  0  0  0  0  0  0  0  0  0  0  0
   29.8670   25.5550   16.9770 C   0  0  0  0  0  0  0  0  0  0  0  0
   28.3450   25.7220   17.0260 C   0  0  0  0  0  0  0  0  0  0  0  0
   27.5990   24.4340   16.7130 C   0  0  0  0  0  0  0  0  0  0  0  0
   26.9910   23.8180   17.9420 C   0  0  0  0  0  0  0  0  0  0  0  0
   25.6590   24.4960   18.2460 C   0  0  0  0  0  0  0  0  0  0  0  0
   24.7300   24.3510   17.1000 N   0  0  0  0  0  0  0  0  0  0  0  0
  1  4  1  0  0  0  0
  1  5  1  0  0  0  0
  2  1  1  0  0  0  0
  3  2  2  0  0  0  0
  6  5  1  6  0  0  0
  6 29  1  0  0  0  0
  6  7  1  0  0  0  0
  7 27  1  1  0  0  0
  8  7  1  6  0  0  0
  8 13  1  0  0  0  0
  9 14  1  6  0  0  0
  9 11  1  0  0  0  0
  9 10  1  0  0  0  0
 10 12  1  0  0  0  0
 11  8  1  0  0  0  0
 12 20  1  6  0  0  0
 13 12  1  0  0  0  0
 13 22  1  1  0  0  0
 14 15  1  0  0  0  0
 16  9  1  0  0  0  0
 17 16  2  0  0  0  0
 18 16  1  0  0  0  0
 18 19  1  0  0  0  0
 20 21  1  0  0  0  0
 22 24  1  0  0  0  0
 23 22  1  0  0  0  0
 23 25  1  0  0  0  0
 26 23  2  0  0  0  0
 27 28  1  0  0  0  0
 29 30  1  0  0  0  0
 31  2  1  0  0  0  0
 32 31  1  0  0  0  0
 33 32  1  0  0  0  0
 33 35  1  0  0  0  0
 34 36  1  0  0  0  0
 34 33  2  0  0  0  0
 36 37  1  0  0  0  0
 37 35  2  0  0  0  0
 38 36  1  0  0  0  0
 38 39  1  0  0  0  0
 40 41  2  0  0  0  0
 40 39  1  0  0  0  0
 42 40  1  0  0  0  0
 43 42  1  0  0  0  0
 44 45  1  0  0  0  0
 46 45  1  0  0  0  0
 46 47  1  0  0  0  0
 47 48  1  0  0  0  0
 49 48  1  0  0  0  0
M  END
>  <REMARK>
 VINA RESULT:    -4.522      2.313      4.810
 INTER + INTRA:         -14.131
 INTER:                  -7.618
 INTRA:                  -6.514
 UNBOUND:                -5.644
 SMILES CC(=O)N[C@@H]1[C@@H](O)C[C@](O)(C(=O)O)O[C@H]1C(O)[C@H](O)CNC(=O)OCc1cn(CCC(=O)O)nn1
 SMILES IDX 21 1 22 2 23 3 20 5 18 6 16 7 15 8 9 9 8 10 14 11 6 12 5 13
 SMILES IDX 10 14 11 16 12 17 13 18 7 20 4 22 2 23 1 25 3 26 17 27 19 29
 SMILES IDX 24 31 25 32 26 33 27 34 35 35 28 36 34 37 29 38 30 39 31 40
 SMILES IDX 32 41 33 42
 H PARENT 21 4 10 15 13 19 7 21 4 24 17 28 19 30 33 43
 Flexibility Score: inf
  4 active torsions:
  status: ('A' for Active; 'I' for Inactive)
    1  A    between atoms: CA   and  CB  
    2  A    between atoms: CB   and  CG  
    3  A    between atoms: CG   and  CD  
    4  A    between atoms: CD   and  CE  

>  <TORSDO>
F 18

>  <BEGIN_>
RES LYS A 131

$$$$
ligand_32_pose_2_2HRL.pdbqt
 OpenBabel07062320523D

  6  5  0  0  0  0  0  0  0  0999 V2000
   33.1930   34.6630    9.2900 C   0  0  0  0  0  0  0  0  0  0  0  0
   32.0600   35.3600   10.0340 C   0  0  0  0  0  0  0  0  0  0  0  0
   30.8720   35.6770    9.1630 C   0  0  0  0  0  0  0  0  0  0  0  0
   30.3560   34.4190    8.4810 C   0  0  0  0  0  0  0  0  0  0  0  0
   28.8410   34.4360    8.4100 C   0  0  0  0  0  0  0  0  0  0  0  0
   28.2410   33.7660    9.5970 N   0  0  0  0  0  0  0  0  0  0  0  0
  1  2  1  0  0  0  0
  3  2  1  0  0  0  0
  4  3  1  0  0  0  0
  5  4  1  0  0  0  0
  5  6  1  0  0  0  0
M  END
>  <EGIN_R>
ES LYS A 135

>  <REMARK>
  4 active torsions:
  status: ('A' for Active; 'I' for Inactive)
    5  A    between atoms: CA   and  CB  
    6  A    between atoms: CB   and  CG  
    7  A    between atoms: CG   and  CD  
    8  A    between atoms: CD   and  CE  

$$$$
