ligand_70_pose_4_2HRL.pdbqt
 OpenBabel07062320523D

 53 55  0  0  1  0  0  0  0  0999 V2000
   23.9190   37.7580   10.2510 C   0  0  0  0  0  0  0  0  0  0  0  0
   24.6620   36.8100    9.3530 C   0  0  2  0  0  0  0  0  0  0  0  0
   25.1860   37.4470    8.0960 C   0  0  1  0  0  0  0  0  0  0  0  0
   26.3540   36.7350    7.4780 C   0  0  2  0  0  0  0  0  0  0  0  0
   28.2730   35.6570    8.2120 C   0  0  2  0  0  0  0  0  0  0  0  0
   28.7340   35.5540    6.7800 C   0  0  0  0  0  0  0  0  0  0  0  0
   26.9130   35.7950    8.3330 O   0  0  0  0  0  0  0  0  0  0  0  0
   28.2640   36.7300    5.9910 C   0  0  1  0  0  0  0  0  0  0  0  0
   27.3430   37.6420    6.8310 C   0  0  1  0  0  0  0  0  0  0  0  0
   29.0030   36.6720    8.8240 O   0  0  0  0  0  0  0  0  0  0  0  0
   28.7270   36.8470    9.7430 H   0  0  0  0  0  0  0  0  0  0  0  0
   28.6550   34.3810    8.8880 C   0  0  0  0  0  0  0  0  0  0  0  0
   29.8080   33.9260    8.6780 O   0  0  0  0  0  0  0  0  0  0  0  0
   27.7940   33.6930    9.7250 O   0  0  0  0  0  0  0  0  0  0  0  0
   27.1950   32.9560    9.3420 H   0  0  0  0  0  0  0  0  0  0  0  0
   29.3540   37.4840    5.5200 O   0  0  0  0  0  0  0  0  0  0  0  0
   30.1180   37.3870    6.1370 H   0  0  0  0  0  0  0  0  0  0  0  0
   26.6160   38.5160    5.9050 N   0  0  0  0  0  0  0  0  0  0  0  0
   26.8100   39.9200    5.8500 C   0  0  0  0  0  0  0  0  0  0  0  0
   25.9210   38.1090    5.2540 H   0  0  0  0  0  0  0  0  0  0  0  0
   26.0590   40.7920    4.9060 C   0  0  0  0  0  0  0  0  0  0  0  0
   27.6400   40.4780    6.6110 O   0  0  0  0  0  0  0  0  0  0  0  0
   24.1040   37.5210    7.1950 O   0  0  0  0  0  0  0  0  0  0  0  0
   24.4960   37.6850    6.3020 H   0  0  0  0  0  0  0  0  0  0  0  0
   23.8700   35.6820    9.0530 O   0  0  0  0  0  0  0  0  0  0  0  0
   24.1870   34.9810    9.7050 H   0  0  0  0  0  0  0  0  0  0  0  0
   24.7790   38.1670   11.3360 N   0  0  0  0  0  0  0  0  0  0  0  0
   25.4530   39.4050   11.3660 C   0  0  0  0  0  0  0  0  0  0  0  0
   24.9430   37.5410   12.1730 H   0  0  0  0  0  0  0  0  0  0  0  0
   25.3440   40.2340   10.4390 O   0  0  0  0  0  0  0  0  0  0  0  0
   26.2820   39.7840   12.4300 O   0  0  0  0  0  0  0  0  0  0  0  0
   27.7070   39.6570   12.3070 C   0  0  0  0  0  0  0  0  0  0  0  0
   28.1080   38.2400   12.4300 C   0  0  0  0  0  0  0  0  0  0  0  0
   28.6990   37.6200   13.4860 C   0  0  0  0  0  0  0  0  0  0  0  0
   27.9390   37.3220   11.4720 N   0  0  0  0  0  0  0  0  0  0  0  0
   28.8690   36.3180   13.1170 N   0  0  0  0  0  0  0  0  0  0  0  0
   28.4040   36.1600   11.8990 N   0  0  0  0  0  0  0  0  0  0  0  0
   29.4490   35.2970   13.9060 C   0  0  0  0  0  0  0  0  0  0  0  0
   30.7740   35.4130   14.2870 C   0  0  0  0  0  0  0  0  0  0  0  0
   28.6850   34.2140   14.2760 C   0  0  0  0  0  0  0  0  0  0  0  0
   31.3240   34.4430   15.0350 N   0  0  0  0  0  0  0  0  0  0  0  0
   29.2730   33.2200   15.0520 C   0  0  0  0  0  0  0  0  0  0  0  0
   30.5960   33.3580   15.4190 C   0  0  0  0  0  0  0  0  0  0  0  0
   28.5410   32.1380   15.4330 C   0  0  0  0  0  0  0  0  0  0  0  0
   31.1820   32.3740   16.1890 C   0  0  0  0  0  0  0  0  0  0  0  0
   29.1260   31.1390   16.2110 C   0  0  0  0  0  0  0  0  0  0  0  0
   30.4430   31.2640   16.5830 C   0  0  0  0  0  0  0  0  0  0  0  0
   29.8670   25.5550   16.9770 C   0  0  0  0  0  0  0  0  0  0  0  0
   28.3450   25.7220   17.0260 C   0  0  0  0  0  0  0  0  0  0  0  0
   27.6010   24.4040   16.8760 C   0  0  0  0  0  0  0  0  0  0  0  0
   26.5920   24.1950   17.9710 C   0  0  0  0  0  0  0  0  0  0  0  0
   25.2470   23.8170   17.3600 C   0  0  0  0  0  0  0  0  0  0  0  0
   24.9760   22.3740   17.5540 N   0  0  0  0  0  0  0  0  0  0  0  0
  1 27  1  0  0  0  0
  2  1  1  6  0  0  0
  3 23  1  6  0  0  0
  3  2  1  0  0  0  0
  4  3  1  1  0  0  0
  4  7  1  0  0  0  0
  5  7  1  0  0  0  0
  5 10  1  1  0  0  0
  5 12  1  0  0  0  0
  6  5  1  0  0  0  0
  8 16  1  1  0  0  0
  8  6  1  0  0  0  0
  8  9  1  0  0  0  0
  9 18  1  6  0  0  0
  9  4  1  0  0  0  0
 10 11  1  0  0  0  0
 12 14  1  0  0  0  0
 13 12  2  0  0  0  0
 15 14  1  0  0  0  0
 16 17  1  0  0  0  0
 19 18  1  0  0  0  0
 19 22  2  0  0  0  0
 20 18  1  0  0  0  0
 21 19  1  0  0  0  0
 24 23  1  0  0  0  0
 25  2  1  0  0  0  0
 25 26  1  0  0  0  0
 27 28  1  0  0  0  0
 27 29  1  0  0  0  0
 28 31  1  0  0  0  0
 30 28  2  0  0  0  0
 32 31  1  0  0  0  0
 32 33  1  0  0  0  0
 33 34  2  0  0  0  0
 35 37  2  0  0  0  0
 35 33  1  0  0  0  0
 36 34  1  0  0  0  0
 36 38  1  0  0  0  0
 37 36  1  0  0  0  0
 38 40  2  0  0  0  0
 38 39  1  0  0  0  0
 39 41  2  0  0  0  0
 40 42  1  0  0  0  0
 41 43  1  0  0  0  0
 42 43  2  0  0  0  0
 42 44  1  0  0  0  0
 43 45  1  0  0  0  0
 44 46  2  0  0  0  0
 45 47  2  0  0  0  0
 46 47  1  0  0  0  0
 48 49  1  0  0  0  0
 50 49  1  0  0  0  0
 50 51  1  0  0  0  0
 52 53  1  0  0  0  0
 52 51  1  0  0  0  0
M  END
>  <REMARK>
 VINA RESULT:    -6.092      7.554     12.544
 INTER + INTRA:         -15.077
 INTER:                 -10.332
 INTRA:                  -4.745
 UNBOUND:                -4.533
 SMILES CC(=O)N[C@@H]1[C@@H](O)C[C@](O)(C(=O)O)O[C@H]1C(O)[C@H](O)CNC(=O)OCc1cn(-c2cnc3ccccc3c2)nn1
 SMILES IDX 20 1 18 2 16 3 15 4 9 5 8 6 14 7 6 8 5 9 10 10 11 12 12 13
 SMILES IDX 13 14 7 16 4 18 2 19 1 21 3 22 17 23 19 25 21 27 22 28 23 30
 SMILES IDX 24 31 25 32 26 33 27 34 40 35 28 36 39 37 29 38 30 39 38 40
 SMILES IDX 31 41 37 42 32 43 36 44 33 45 35 46 34 47
 H PARENT 10 11 13 15 7 17 4 20 17 24 19 26 21 29
 Flexibility Score: inf
  4 active torsions:
  status: ('A' for Active; 'I' for Inactive)
    1  A    between atoms: CA   and  CB  
    2  A    between atoms: CB   and  CG  
    3  A    between atoms: CG   and  CD  
    4  A    between atoms: CD   and  CE  

>  <TORSDO>
F 15

>  <BEGIN_>
RES LYS A 131

$$$$
ligand_70_pose_4_2HRL.pdbqt
 OpenBabel07062320523D

  6  5  0  0  0  0  0  0  0  0999 V2000
   33.1930   34.6630    9.2900 C   0  0  0  0  0  0  0  0  0  0  0  0
   32.0600   35.3600   10.0340 C   0  0  0  0  0  0  0  0  0  0  0  0
   32.5130   36.0980   11.2670 C   0  0  0  0  0  0  0  0  0  0  0  0
   31.7720   37.4190   11.4050 C   0  0  0  0  0  0  0  0  0  0  0  0
   31.8930   38.2330   10.1310 C   0  0  0  0  0  0  0  0  0  0  0  0
   30.8590   39.3030   10.0780 N   0  0  0  0  0  0  0  0  0  0  0  0
  1  2  1  0  0  0  0
  2  3  1  0  0  0  0
  3  4  1  0  0  0  0
  5  4  1  0  0  0  0
  6  5  1  0  0  0  0
M  END
>  <EGIN_R>
ES LYS A 135

>  <REMARK>
  4 active torsions:
  status: ('A' for Active; 'I' for Inactive)
    5  A    between atoms: CA   and  CB  
    6  A    between atoms: CB   and  CG  
    7  A    between atoms: CG   and  CD  
    8  A    between atoms: CD   and  CE  

$$$$
