ligand_16_pose_2_2HRL.pdbqt
 OpenBabel07062320523D

 54 55  0  0  1  0  0  0  0  0999 V2000
   26.1540   36.0140   11.1590 N   0  0  0  0  0  0  0  0  0  0  0  0
   25.9310   35.4630   12.4320 C   0  0  0  0  0  0  0  0  0  0  0  0
   24.9630   34.7080   12.6190 O   0  0  0  0  0  0  0  0  0  0  0  0
   27.0030   36.6540   11.0840 H   0  0  0  0  0  0  0  0  0  0  0  0
   25.3220   35.7550   10.0140 C   0  0  0  0  0  0  0  0  0  0  0  0
   25.6400   36.7460    8.9260 C   0  0  2  0  0  0  0  0  0  0  0  0
   26.5940   37.8210    9.3390 C   0  0  1  0  0  0  0  0  0  0  0  0
   27.1590   38.5380    8.1000 C   0  0  2  0  0  0  0  0  0  0  0  0
   27.5910   38.0930    5.8720 C   0  0  2  0  0  0  0  0  0  0  0  0
   29.1020   38.0990    6.0480 C   0  0  0  0  0  0  0  0  0  0  0  0
   27.0550   37.6440    7.0560 O   0  0  0  0  0  0  0  0  0  0  0  0
   29.4870   38.9660    7.2020 C   0  0  1  0  0  0  0  0  0  0  0  0
   28.5860   38.8290    8.3980 C   0  0  1  0  0  0  0  0  0  0  0  0
   27.3640   37.0760    4.9010 O   0  0  0  0  0  0  0  0  0  0  0  0
   26.3690   37.0160    4.7520 H   0  0  0  0  0  0  0  0  0  0  0  0
   27.0890   39.3770    5.3740 C   0  0  0  0  0  0  0  0  0  0  0  0
   27.8330   40.0710    4.6010 O   0  0  0  0  0  0  0  0  0  0  0  0
   25.8620   39.9450    5.6520 O   0  0  0  0  0  0  0  0  0  0  0  0
   25.6940   40.2340    6.6060 H   0  0  0  0  0  0  0  0  0  0  0  0
   30.7760   38.5480    7.6110 O   0  0  0  0  0  0  0  0  0  0  0  0
   31.0290   39.1480    8.3540 H   0  0  0  0  0  0  0  0  0  0  0  0
   28.7700   39.9700    9.2710 N   0  0  0  0  0  0  0  0  0  0  0  0
   29.5600   39.8980   10.4450 C   0  0  0  0  0  0  0  0  0  0  0  0
   28.3230   40.8870    9.0560 H   0  0  0  0  0  0  0  0  0  0  0  0
   29.7390   41.0990   11.3390 C   0  0  0  0  0  0  0  0  0  0  0  0
   30.1100   38.8180   10.7310 O   0  0  0  0  0  0  0  0  0  0  0  0
   26.0990   38.7140   10.2590 O   0  0  0  0  0  0  0  0  0  0  0  0
   26.7420   39.4580   10.3870 H   0  0  0  0  0  0  0  0  0  0  0  0
   24.4850   37.3220    8.3800 O   0  0  0  0  0  0  0  0  0  0  0  0
   24.7520   37.9650    7.6630 H   0  0  0  0  0  0  0  0  0  0  0  0
   26.7470   35.7170   13.5270 O   0  0  0  0  0  0  0  0  0  0  0  0
   27.8570   36.5800   13.4970 C   0  0  0  0  0  0  0  0  0  0  0  0
   29.1050   35.7920   13.4480 C   0  0  0  0  0  0  0  0  0  0  0  0
   29.9540   35.5530   14.5300 C   0  0  0  0  0  0  0  0  0  0  0  0
   29.6930   35.1580   12.4150 N   0  0  0  0  0  0  0  0  0  0  0  0
   30.9860   34.8080   14.1150 N   0  0  0  0  0  0  0  0  0  0  0  0
   30.8060   34.5830   12.8360 N   0  0  0  0  0  0  0  0  0  0  0  0
   32.1130   34.3420   14.9360 C   0  0  0  0  0  0  0  0  0  0  0  0
   31.5110   33.4060   15.9390 C   0  0  0  0  0  0  0  0  0  0  0  0
   31.4670   33.7700   17.2560 C   0  0  0  0  0  0  0  0  0  0  0  0
   31.0050   32.1840   15.5720 C   0  0  0  0  0  0  0  0  0  0  0  0
   30.9160   32.9170   18.2170 C   0  0  0  0  0  0  0  0  0  0  0  0
   30.4570   31.3350   16.5270 C   0  0  0  0  0  0  0  0  0  0  0  0
   30.4070   31.6920   17.8600 C   0  0  0  0  0  0  0  0  0  0  0  0
   29.8280   30.7950   18.8510 C   0  0  0  0  0  0  0  0  0  0  0  0
   28.7140   30.2480   18.7070 O   0  0  0  0  0  0  0  0  0  0  0  0
   30.5360   30.5240   20.0170 O   0  0  0  0  0  0  0  0  0  0  0  0
   30.0650   30.3680   20.8910 H   0  0  0  0  0  0  0  0  0  0  0  0
   29.8670   25.5550   16.9770 C   0  0  0  0  0  0  0  0  0  0  0  0
   28.3450   25.7220   17.0260 C   0  0  0  0  0  0  0  0  0  0  0  0
   27.6020   24.3990   16.9220 C   0  0  0  0  0  0  0  0  0  0  0  0
   26.6320   24.2030   18.0540 C   0  0  0  0  0  0  0  0  0  0  0  0
   25.8300   25.4840   18.2640 C   0  0  0  0  0  0  0  0  0  0  0  0
   24.5950   25.4640   17.4450 N   0  0  0  0  0  0  0  0  0  0  0  0
  1  2  1  0  0  0  0
  2  3  2  0  0  0  0
  2 31  1  0  0  0  0
  4  1  1  0  0  0  0
  5  1  1  0  0  0  0
  6  7  1  0  0  0  0
  6  5  1  1  0  0  0
  7 27  1  1  0  0  0
  8 13  1  0  0  0  0
  8  7  1  1  0  0  0
  9 14  1  6  0  0  0
  9 10  1  0  0  0  0
  9 11  1  0  0  0  0
 10 12  1  0  0  0  0
 11  8  1  0  0  0  0
 12 20  1  1  0  0  0
 12 13  1  0  0  0  0
 13 22  1  6  0  0  0
 15 14  1  0  0  0  0
 16 18  1  0  0  0  0
 16  9  1  0  0  0  0
 17 16  2  0  0  0  0
 18 19  1  0  0  0  0
 20 21  1  0  0  0  0
 22 23  1  0  0  0  0
 23 26  2  0  0  0  0
 23 25  1  0  0  0  0
 24 22  1  0  0  0  0
 27 28  1  0  0  0  0
 29  6  1  0  0  0  0
 30 29  1  0  0  0  0
 32 31  1  0  0  0  0
 33 32  1  0  0  0  0
 33 34  2  0  0  0  0
 35 37  2  0  0  0  0
 35 33  1  0  0  0  0
 36 34  1  0  0  0  0
 36 38  1  0  0  0  0
 37 36  1  0  0  0  0
 38 39  1  0  0  0  0
 39 40  1  0  0  0  0
 40 42  2  0  0  0  0
 41 39  2  0  0  0  0
 41 43  1  0  0  0  0
 43 44  2  0  0  0  0
 44 42  1  0  0  0  0
 44 45  1  0  0  0  0
 45 47  1  0  0  0  0
 46 45  2  0  0  0  0
 47 48  1  0  0  0  0
 49 50  1  0  0  0  0
 51 50  1  0  0  0  0
 51 52  1  0  0  0  0
 52 53  1  0  0  0  0
 54 53  1  0  0  0  0
M  END
>  <REMARK>
 VINA RESULT:    -6.092      4.551     12.160
 INTER + INTRA:         -15.426
 INTER:                 -10.199
 INTRA:                  -5.227
 UNBOUND:                -3.993
 SMILES CC(=O)N[C@@H]1[C@@H](O)C[C@](O)(C(=O)O)O[C@H]1C(O)[C@H](O)CNC(=O)OCc1cn(Cc2ccc(C(=O)O)cc2)nn1
 SMILES IDX 21 1 22 2 23 3 20 5 18 6 16 7 15 8 9 9 8 10 14 11 6 12 5 13
 SMILES IDX 10 14 11 16 12 17 13 18 7 20 4 22 2 23 1 25 3 26 17 27 19 29
 SMILES IDX 24 31 25 32 26 33 27 34 40 35 28 36 39 37 29 38 30 39 31 40
 SMILES IDX 38 41 32 42 37 43 33 44 34 45 35 46 36 47
 H PARENT 21 4 10 15 13 19 7 21 4 24 17 28 19 30 36 48
 Flexibility Score: inf
  4 active torsions:
  status: ('A' for Active; 'I' for Inactive)
    1  A    between atoms: CA   and  CB  
    2  A    between atoms: CB   and  CG  
    3  A    between atoms: CG   and  CD  
    4  A    between atoms: CD   and  CE  

>  <TORSDO>
F 18

>  <BEGIN_>
RES LYS A 131

$$$$
ligand_16_pose_2_2HRL.pdbqt
 OpenBabel07062320523D

  6  5  0  0  0  0  0  0  0  0999 V2000
   33.1930   34.6630    9.2900 C   0  0  0  0  0  0  0  0  0  0  0  0
   32.0600   35.3600   10.0340 C   0  0  0  0  0  0  0  0  0  0  0  0
   30.8860   35.7060    9.1550 C   0  0  0  0  0  0  0  0  0  0  0  0
   30.3280   34.4580    8.4890 C   0  0  0  0  0  0  0  0  0  0  0  0
   28.8120   34.5040    8.4570 C   0  0  0  0  0  0  0  0  0  0  0  0
   28.2280   33.6760    9.5480 N   0  0  0  0  0  0  0  0  0  0  0  0
  1  2  1  0  0  0  0
  3  2  1  0  0  0  0
  4  3  1  0  0  0  0
  5  4  1  0  0  0  0
  5  6  1  0  0  0  0
M  END
>  <EGIN_R>
ES LYS A 135

>  <REMARK>
  4 active torsions:
  status: ('A' for Active; 'I' for Inactive)
    5  A    between atoms: CA   and  CB  
    6  A    between atoms: CB   and  CG  
    7  A    between atoms: CG   and  CD  
    8  A    between atoms: CD   and  CE  

$$$$
