ligand_81_pose_19_2HRL.pdbqt
 OpenBabel07062320523D

 63 65  0  0  1  0  0  0  0  0999 V2000
   33.0950   31.0860   22.3820 O   0  0  0  0  0  0  0  0  0  0  0  0
   33.0460   29.7760   22.8030 C   0  0  0  0  0  0  0  0  0  0  0  0
   32.4430   28.7420   21.9950 N   0  0  0  0  0  0  0  0  0  0  0  0
   32.0560   29.0750   21.0890 H   0  0  0  0  0  0  0  0  0  0  0  0
   33.5440   29.4930   23.9210 O   0  0  0  0  0  0  0  0  0  0  0  0
   32.4200   27.3840   22.4850 C   0  0  0  0  0  0  0  0  0  0  0  0
   30.9620   26.9890   22.6840 C   0  0  2  0  0  0  0  0  0  0  0  0
   30.2000   27.5630   21.5130 C   0  0  2  0  0  0  0  0  0  0  0  0
   28.8060   27.0390   21.3490 C   0  0  2  0  0  0  0  0  0  0  0  0
   28.1290   28.6750   19.8150 C   0  0  2  0  0  0  0  0  0  0  0  0
   27.4990   29.4030   20.9900 C   0  0  0  0  0  0  0  0  0  0  0  0
   28.3820   27.3600   20.0810 O   0  0  0  0  0  0  0  0  0  0  0  0
   26.8020   28.3790   21.8620 C   0  0  1  0  0  0  0  0  0  0  0  0
   27.8370   27.3810   22.4200 C   0  0  1  0  0  0  0  0  0  0  0  0
   29.2820   29.4020   19.4930 O   0  0  0  0  0  0  0  0  0  0  0  0
   29.1910   29.8860   18.6430 H   0  0  0  0  0  0  0  0  0  0  0  0
   27.2370   28.7260   18.6370 C   0  0  0  0  0  0  0  0  0  0  0  0
   26.1810   29.3840   18.6980 O   0  0  0  0  0  0  0  0  0  0  0  0
   27.5660   28.0560   17.4890 O   0  0  0  0  0  0  0  0  0  0  0  0
   28.2800   27.3410   17.4200 H   0  0  0  0  0  0  0  0  0  0  0  0
   26.0970   28.9860   22.8750 O   0  0  0  0  0  0  0  0  0  0  0  0
   26.6120   29.0090   23.7100 H   0  0  0  0  0  0  0  0  0  0  0  0
   27.0350   26.2250   22.8440 N   0  0  0  0  0  0  0  0  0  0  0  0
   27.1480   25.7460   24.1700 C   0  0  0  0  0  0  0  0  0  0  0  0
   26.3830   25.7490   22.1840 H   0  0  0  0  0  0  0  0  0  0  0  0
   26.3640   24.5750   24.6700 C   0  0  0  0  0  0  0  0  0  0  0  0
   27.9470   26.3480   24.9410 O   0  0  0  0  0  0  0  0  0  0  0  0
   30.9100   27.0340   20.3850 O   0  0  0  0  0  0  0  0  0  0  0  0
   31.4460   27.7390   19.9720 H   0  0  0  0  0  0  0  0  0  0  0  0
   30.5850   27.5030   23.9140 O   0  0  0  0  0  0  0  0  0  0  0  0
   29.9290   26.9320   24.3680 H   0  0  0  0  0  0  0  0  0  0  0  0
   32.1280   32.0750   22.6600 C   0  0  0  0  0  0  0  0  0  0  0  0
   31.2200   32.2350   21.4800 C   0  0  0  0  0  0  0  0  0  0  0  0
   31.5120   32.0380   20.1540 C   0  0  0  0  0  0  0  0  0  0  0  0
   29.9240   32.6150   21.5080 N   0  0  0  0  0  0  0  0  0  0  0  0
   30.4050   32.2960   19.3930 N   0  0  0  0  0  0  0  0  0  0  0  0
   29.4700   32.6410   20.2690 N   0  0  0  0  0  0  0  0  0  0  0  0
   30.3110   32.2230   17.9820 C   0  0  0  0  0  0  0  0  0  0  0  0
   29.6930   31.1990   17.3770 N   0  0  0  0  0  0  0  0  0  0  0  0
   30.8890   33.2110   17.1750 C   0  0  0  0  0  0  0  0  0  0  0  0
   29.6240   31.1120   16.0240 C   0  0  0  0  0  0  0  0  0  0  0  0
   30.8240   33.1240   15.8140 C   0  0  0  0  0  0  0  0  0  0  0  0
   30.1740   32.0470   15.2420 N   0  0  0  0  0  0  0  0  0  0  0  0
   31.6000   34.3260   17.8340 C   0  0  0  0  0  0  0  0  0  0  0  0
   30.8210   35.6080   17.9290 C   0  0  0  0  0  0  0  0  0  0  0  0
   29.9240   35.6080   18.9610 O   0  0  0  0  0  0  0  0  0  0  0  0
   30.1620   36.5660   19.9180 C   0  0  0  0  0  0  0  0  0  0  0  0
   30.9900   36.0220   21.0640 C   0  0  0  0  0  0  0  0  0  0  0  0
   28.9610   30.0140   15.4290 N   0  0  0  0  0  0  0  0  0  0  0  0
   29.2970   29.0490   15.5970 H   0  0  0  0  0  0  0  0  0  0  0  0
   28.1330   30.1390   14.8170 H   0  0  0  0  0  0  0  0  0  0  0  0
   31.4990   34.0510   14.9270 C   0  0  0  0  0  0  0  0  0  0  0  0
   32.8180   34.1810   14.6920 C   0  0  0  0  0  0  0  0  0  0  0  0
   30.6460   34.9150   14.2030 C   0  0  0  0  0  0  0  0  0  0  0  0
   33.3030   35.1290   13.7700 C   0  0  0  0  0  0  0  0  0  0  0  0
   31.1040   35.8390   13.3060 C   0  0  0  0  0  0  0  0  0  0  0  0
   32.4630   35.9620   13.0730 C   0  0  0  0  0  0  0  0  0  0  0  0
   29.8670   25.5550   16.9770 C   0  0  0  0  0  0  0  0  0  0  0  0
   28.3450   25.7220   17.0260 C   0  0  0  0  0  0  0  0  0  0  0  0
   27.6010   24.4020   16.8920 C   0  0  0  0  0  0  0  0  0  0  0  0
   26.1540   24.5260   17.2810 C   0  0  0  0  0  0  0  0  0  0  0  0
   26.0050   24.2720   18.7780 C   0  0  0  0  0  0  0  0  0  0  0  0
   25.5820   25.5100   19.4740 N   0  0  0  0  0  0  0  0  0  0  0  0
  1 32  1  0  0  0  0
  1  2  1  0  0  0  0
  2  5  2  0  0  0  0
  3  6  1  0  0  0  0
  3  2  1  0  0  0  0
  4  3  1  0  0  0  0
  7  6  1  6  0  0  0
  7 30  1  0  0  0  0
  8 28  1  6  0  0  0
  8  7  1  0  0  0  0
  9  8  1  1  0  0  0
  9 14  1  0  0  0  0
 10 17  1  6  0  0  0
 10 12  1  0  0  0  0
 10 11  1  0  0  0  0
 11 13  1  0  0  0  0
 12  9  1  0  0  0  0
 13 14  1  0  0  0  0
 13 21  1  1  0  0  0
 14 23  1  6  0  0  0
 15 10  1  0  0  0  0
 16 15  1  0  0  0  0
 17 18  2  0  0  0  0
 19 17  1  0  0  0  0
 20 19  1  0  0  0  0
 21 22  1  0  0  0  0
 23 24  1  0  0  0  0
 24 26  1  0  0  0  0
 24 27  2  0  0  0  0
 25 23  1  0  0  0  0
 29 28  1  0  0  0  0
 30 31  1  0  0  0  0
 33 35  1  0  0  0  0
 33 32  1  0  0  0  0
 34 33  2  0  0  0  0
 36 34  1  0  0  0  0
 36 37  1  0  0  0  0
 37 35  2  0  0  0  0
 38 36  1  0  0  0  0
 39 38  1  0  0  0  0
 40 44  1  0  0  0  0
 40 38  2  0  0  0  0
 41 39  2  0  0  0  0
 42 40  1  0  0  0  0
 43 42  2  0  0  0  0
 43 41  1  0  0  0  0
 44 45  1  0  0  0  0
 45 46  1  0  0  0  0
 46 47  1  0  0  0  0
 47 48  1  0  0  0  0
 49 50  1  0  0  0  0
 49 41  1  0  0  0  0
 51 49  1  0  0  0  0
 52 42  1  0  0  0  0
 53 52  1  0  0  0  0
 54 52  2  0  0  0  0
 55 53  2  0  0  0  0
 56 54  1  0  0  0  0
 57 56  2  0  0  0  0
 57 55  1  0  0  0  0
 58 59  1  0  0  0  0
 60 59  1  0  0  0  0
 60 61  1  0  0  0  0
 61 62  1  0  0  0  0
 62 63  1  0  0  0  0
M  END
>  <REMARK>
 VINA RESULT:    -4.592      7.074     11.974
 INTER + INTRA:         -16.596
 INTER:                  -9.780
 INTRA:                  -6.816
 UNBOUND:                -7.171
 SMILES CCOCCc1c(-c2ccccc2)nc(N)nc1-n1cc(COC(=O)NC[C@@H](O)C(O)[C@@H]2O[C@@](O)(C(=O)O)C[C@H](O)[C@H]2NC(C)=O)nn1
 SMILES IDX 23 1 24 2 26 3 25 5 27 6 28 7 30 8 32 9 34 10 39 11 33 12
 SMILES IDX 40 13 42 14 35 15 36 17 37 18 38 19 41 21 43 23 44 24 45 26
 SMILES IDX 46 27 31 28 29 30 22 32 21 33 20 34 47 35 19 36 48 37 18 38
 SMILES IDX 17 39 6 40 15 41 7 42 14 43 5 44 4 45 3 46 2 47 1 48 16 49
 SMILES IDX 8 52 9 53 13 54 10 55 12 56 11 57
 H PARENT 26 4 35 16 38 20 41 22 43 25 31 29 29 31 16 50 16 51
 Flexibility Score: inf
  4 active torsions:
  status: ('A' for Active; 'I' for Inactive)
    1  A    between atoms: CA   and  CB  
    2  A    between atoms: CB   and  CG  
    3  A    between atoms: CG   and  CD  
    4  A    between atoms: CD   and  CE  

>  <TORSDO>
F 21

>  <BEGIN_>
RES LYS A 131

$$$$
ligand_81_pose_19_2HRL.pdbqt
 OpenBabel07062320523D

  6  5  0  0  0  0  0  0  0  0999 V2000
   33.1930   34.6630    9.2900 C   0  0  0  0  0  0  0  0  0  0  0  0
   32.0600   35.3600   10.0340 C   0  0  0  0  0  0  0  0  0  0  0  0
   30.7040   34.7610    9.7640 C   0  0  0  0  0  0  0  0  0  0  0  0
   30.5120   34.5170    8.2750 C   0  0  0  0  0  0  0  0  0  0  0  0
   29.3320   35.3150    7.7530 C   0  0  0  0  0  0  0  0  0  0  0  0
   29.4060   36.7350    8.1950 N   0  0  0  0  0  0  0  0  0  0  0  0
  1  2  1  0  0  0  0
  3  2  1  0  0  0  0
  4  3  1  0  0  0  0
  5  6  1  0  0  0  0
  5  4  1  0  0  0  0
M  END
>  <EGIN_R>
ES LYS A 135

>  <REMARK>
  4 active torsions:
  status: ('A' for Active; 'I' for Inactive)
    5  A    between atoms: CA   and  CB  
    6  A    between atoms: CB   and  CG  
    7  A    between atoms: CG   and  CD  
    8  A    between atoms: CD   and  CE  

$$$$
