ligand_0_pose_18_2HRL.pdbqt
 OpenBabel07062320523D

 54 55  0  0  1  0  0  0  0  0999 V2000
   28.1020   33.2680   18.3860 N   0  0  0  0  0  0  0  0  0  0  0  0
   27.4570   32.5970   17.3140 C   0  0  0  0  0  0  0  0  0  0  0  0
   27.2950   31.3660   17.3830 O   0  0  0  0  0  0  0  0  0  0  0  0
   28.2090   34.3160   18.2640 H   0  0  0  0  0  0  0  0  0  0  0  0
   28.5980   32.6280   19.5800 C   0  0  0  0  0  0  0  0  0  0  0  0
   30.0960   32.3840   19.5280 C   0  0  2  0  0  0  0  0  0  0  0  0
   30.4200   30.9660   19.1610 C   0  0  1  0  0  0  0  0  0  0  0  0
   30.2920   29.9920   20.2690 C   0  0  2  0  0  0  0  0  0  0  0  0
   31.6330   28.4280   21.3770 C   0  0  2  0  0  0  0  0  0  0  0  0
   30.4420   28.3780   22.2880 C   0  0  0  0  0  0  0  0  0  0  0  0
   31.5630   29.3720   20.4040 O   0  0  0  0  0  0  0  0  0  0  0  0
   29.1310   28.3350   21.5800 C   0  0  1  0  0  0  0  0  0  0  0  0
   29.3060   28.9000   20.1740 C   0  0  1  0  0  0  0  0  0  0  0  0
   31.8730   27.1320   20.8610 O   0  0  0  0  0  0  0  0  0  0  0  0
   32.8100   27.1210   20.5070 H   0  0  0  0  0  0  0  0  0  0  0  0
   32.8150   28.7390   22.2330 C   0  0  0  0  0  0  0  0  0  0  0  0
   32.9370   29.9240   22.6720 O   0  0  0  0  0  0  0  0  0  0  0  0
   33.7780   27.8160   22.5750 O   0  0  0  0  0  0  0  0  0  0  0  0
   34.5970   27.6790   22.0030 H   0  0  0  0  0  0  0  0  0  0  0  0
   28.6790   27.0250   21.5460 O   0  0  0  0  0  0  0  0  0  0  0  0
   29.1910   26.4130   22.1320 H   0  0  0  0  0  0  0  0  0  0  0  0
   28.0770   29.1310   19.5170 N   0  0  0  0  0  0  0  0  0  0  0  0
   27.3700   28.1020   18.8610 C   0  0  0  0  0  0  0  0  0  0  0  0
   27.6410   30.0740   19.5150 H   0  0  0  0  0  0  0  0  0  0  0  0
   26.0830   28.2860   18.1590 C   0  0  0  0  0  0  0  0  0  0  0  0
   27.8660   26.9540   18.8750 O   0  0  0  0  0  0  0  0  0  0  0  0
   29.9980   30.5660   17.9150 O   0  0  0  0  0  0  0  0  0  0  0  0
   29.7390   29.5950   17.9380 H   0  0  0  0  0  0  0  0  0  0  0  0
   30.7480   32.8840   20.6200 O   0  0  0  0  0  0  0  0  0  0  0  0
   30.1760   32.8380   21.4350 H   0  0  0  0  0  0  0  0  0  0  0  0
   26.9980   33.2680   16.1870 O   0  0  0  0  0  0  0  0  0  0  0  0
   27.7870   33.4110   15.0190 C   0  0  0  0  0  0  0  0  0  0  0  0
   29.2400   33.3530   15.3650 C   0  0  0  0  0  0  0  0  0  0  0  0
   30.0020   34.4180   15.8070 C   0  0  0  0  0  0  0  0  0  0  0  0
   30.0610   32.2940   15.3190 N   0  0  0  0  0  0  0  0  0  0  0  0
   31.2710   33.9540   16.0120 N   0  0  0  0  0  0  0  0  0  0  0  0
   31.2720   32.6880   15.7130 N   0  0  0  0  0  0  0  0  0  0  0  0
   32.3710   34.7520   16.4650 C   0  0  0  0  0  0  0  0  0  0  0  0
   33.3740   35.1600   15.6170 C   0  0  0  0  0  0  0  0  0  0  0  0
   32.4050   35.1130   17.8070 C   0  0  0  0  0  0  0  0  0  0  0  0
   34.4140   35.9380   16.1350 C   0  0  0  0  0  0  0  0  0  0  0  0
   33.4360   35.8770   18.2970 C   0  0  0  0  0  0  0  0  0  0  0  0
   34.4350   36.2830   17.4520 C   0  0  0  0  0  0  0  0  0  0  0  0
   33.3980   34.8190   14.2030 C   0  0  0  0  0  0  0  0  0  0  0  0
   34.5030   34.4080   13.7190 O   0  0  0  0  0  0  0  0  0  0  0  0
   32.2580   34.9250   13.3630 N   0  0  0  0  0  0  0  0  0  0  0  0
   31.4560   34.2780   13.4300 H   0  0  0  0  0  0  0  0  0  0  0  0
   32.2730   35.7100   12.6450 H   0  0  0  0  0  0  0  0  0  0  0  0
   29.8670   25.5550   16.9770 C   0  0  0  0  0  0  0  0  0  0  0  0
   28.3450   25.7220   17.0260 C   0  0  0  0  0  0  0  0  0  0  0  0
   27.5990   24.4780   16.5670 C   0  0  0  0  0  0  0  0  0  0  0  0
   26.9630   23.7440   17.7150 C   0  0  0  0  0  0  0  0  0  0  0  0
   25.6330   24.4020   18.0660 C   0  0  0  0  0  0  0  0  0  0  0  0
   25.4780   24.5060   19.5360 N   0  0  0  0  0  0  0  0  0  0  0  0
  1  5  1  0  0  0  0
  2  3  2  0  0  0  0
  2  1  1  0  0  0  0
  4  1  1  0  0  0  0
  6  5  1  1  0  0  0
  6 29  1  0  0  0  0
  7 27  1  6  0  0  0
  7  6  1  0  0  0  0
  8  7  1  6  0  0  0
  8 11  1  0  0  0  0
  9 14  1  6  0  0  0
  9 16  1  0  0  0  0
  9 10  1  0  0  0  0
 11  9  1  0  0  0  0
 12 20  1  6  0  0  0
 12 10  1  0  0  0  0
 13 22  1  1  0  0  0
 13  8  1  0  0  0  0
 13 12  1  0  0  0  0
 15 14  1  0  0  0  0
 16 18  1  0  0  0  0
 16 17  2  0  0  0  0
 19 18  1  0  0  0  0
 20 21  1  0  0  0  0
 23 26  2  0  0  0  0
 23 22  1  0  0  0  0
 24 22  1  0  0  0  0
 25 23  1  0  0  0  0
 27 28  1  0  0  0  0
 29 30  1  0  0  0  0
 31  2  1  0  0  0  0
 32 33  1  0  0  0  0
 32 31  1  0  0  0  0
 33 34  2  0  0  0  0
 34 36  1  0  0  0  0
 35 33  1  0  0  0  0
 35 37  2  0  0  0  0
 36 38  1  0  0  0  0
 37 36  1  0  0  0  0
 38 40  2  0  0  0  0
 39 41  2  0  0  0  0
 39 38  1  0  0  0  0
 40 42  1  0  0  0  0
 41 43  1  0  0  0  0
 43 42  2  0  0  0  0
 44 39  1  0  0  0  0
 45 44  2  0  0  0  0
 46 47  1  0  0  0  0
 46 44  1  0  0  0  0
 48 46  1  0  0  0  0
 49 50  1  0  0  0  0
 51 50  1  0  0  0  0
 51 52  1  0  0  0  0
 52 53  1  0  0  0  0
 53 54  1  0  0  0  0
M  END
>  <REMARK>
 VINA RESULT:    -5.111      2.513      3.969
 INTER + INTRA:         -14.558
 INTER:                  -9.144
 INTRA:                  -5.414
 UNBOUND:                -5.414
 SMILES CC(=O)N[C@@H]1[C@@H](O)C[C@](O)(C(=O)O)O[C@H]1C(O)[C@H](O)CNC(=O)OCc1cn(-c2ccccc2C(N)=O)nn1
 SMILES IDX 21 1 22 2 23 3 20 5 18 6 16 7 15 8 9 9 8 10 14 11 6 12 5 13
 SMILES IDX 10 14 11 16 12 17 13 18 7 20 4 22 2 23 1 25 3 26 17 27 19 29
 SMILES IDX 24 31 25 32 26 33 27 34 39 35 28 36 38 37 29 38 34 39 30 40
 SMILES IDX 33 41 31 42 32 43 35 44 37 45 36 46
 H PARENT 21 4 10 15 13 19 7 21 4 24 17 28 19 30 36 47 36 48
 Flexibility Score: inf
  4 active torsions:
  status: ('A' for Active; 'I' for Inactive)
    1  A    between atoms: CA   and  CB  
    2  A    between atoms: CB   and  CG  
    3  A    between atoms: CG   and  CD  
    4  A    between atoms: CD   and  CE  

>  <TORSDO>
F 16

>  <BEGIN_>
RES LYS A 131

$$$$
ligand_0_pose_18_2HRL.pdbqt
 OpenBabel07062320523D

  6  5  0  0  0  0  0  0  0  0999 V2000
   33.1930   34.6630    9.2900 C   0  0  0  0  0  0  0  0  0  0  0  0
   32.0600   35.3600   10.0340 C   0  0  0  0  0  0  0  0  0  0  0  0
   30.7080   34.7430    9.7870 C   0  0  0  0  0  0  0  0  0  0  0  0
   30.4850   34.5160    8.3000 C   0  0  0  0  0  0  0  0  0  0  0  0
   29.0680   34.8920    7.9100 C   0  0  0  0  0  0  0  0  0  0  0  0
   28.6480   36.1590    8.5720 N   0  0  0  0  0  0  0  0  0  0  0  0
  1  2  1  0  0  0  0
  3  2  1  0  0  0  0
  4  3  1  0  0  0  0
  5  4  1  0  0  0  0
  5  6  1  0  0  0  0
M  END
>  <EGIN_R>
ES LYS A 135

>  <REMARK>
  4 active torsions:
  status: ('A' for Active; 'I' for Inactive)
    5  A    between atoms: CA   and  CB  
    6  A    between atoms: CB   and  CG  
    7  A    between atoms: CG   and  CD  
    8  A    between atoms: CD   and  CE  

$$$$
