ligand_89_pose_16_2HRL.pdbqt
 OpenBabel07062320523D

 60 63  0  0  1  0  0  0  0  0999 V2000
   24.8780   34.5300   15.0580 N   0  0  0  0  0  0  0  0  0  0  0  0
   24.0440   35.6420   15.1770 C   0  0  0  0  0  0  0  0  0  0  0  0
   24.2360   36.5660   15.9680 O   0  0  0  0  0  0  0  0  0  0  0  0
   24.5940   33.8070   14.2860 H   0  0  0  0  0  0  0  0  0  0  0  0
   26.0310   34.2520   15.8240 C   0  0  0  0  0  0  0  0  0  0  0  0
   27.3060   34.7550   15.3110 C   0  0  2  0  0  0  0  0  0  0  0  0
   28.4660   33.8880   15.0410 C   0  0  1  0  0  0  0  0  0  0  0  0
   29.6380   34.4770   15.8810 C   0  0  2  0  0  0  0  0  0  0  0  0
   31.3320   34.8930   14.3080 C   0  0  2  0  0  0  0  0  0  0  0  0
   32.2520   33.9810   15.0480 C   0  0  0  0  0  0  0  0  0  0  0  0
   30.3230   35.3320   15.1020 O   0  0  0  0  0  0  0  0  0  0  0  0
   31.5570   32.8750   15.8020 C   0  0  1  0  0  0  0  0  0  0  0  0
   30.3750   33.4000   16.5850 C   0  0  1  0  0  0  0  0  0  0  0  0
   30.7620   34.2110   13.2030 O   0  0  0  0  0  0  0  0  0  0  0  0
   31.3330   34.4590   12.4280 H   0  0  0  0  0  0  0  0  0  0  0  0
   32.1800   36.0190   13.7910 C   0  0  0  0  0  0  0  0  0  0  0  0
   32.7660   35.8970   12.7070 O   0  0  0  0  0  0  0  0  0  0  0  0
   32.3010   37.1780   14.5200 O   0  0  0  0  0  0  0  0  0  0  0  0
   31.4960   37.5680   15.0180 H   0  0  0  0  0  0  0  0  0  0  0  0
   31.1620   31.8260   14.9700 O   0  0  0  0  0  0  0  0  0  0  0  0
   30.2100   31.6200   15.1350 H   0  0  0  0  0  0  0  0  0  0  0  0
   30.8940   33.8510   17.8830 N   0  0  0  0  0  0  0  0  0  0  0  0
   30.9600   33.0070   19.0100 C   0  0  0  0  0  0  0  0  0  0  0  0
   31.2380   34.8450   18.0100 H   0  0  0  0  0  0  0  0  0  0  0  0
   31.4850   33.4680   20.3210 C   0  0  0  0  0  0  0  0  0  0  0  0
   30.5620   31.8060   18.9250 O   0  0  0  0  0  0  0  0  0  0  0  0
   28.3050   32.5480   15.4020 O   0  0  0  0  0  0  0  0  0  0  0  0
   27.3540   32.2550   15.2380 H   0  0  0  0  0  0  0  0  0  0  0  0
   27.7100   35.7930   16.2360 O   0  0  0  0  0  0  0  0  0  0  0  0
   28.3310   36.4080   15.8090 H   0  0  0  0  0  0  0  0  0  0  0  0
   22.8920   35.7700   14.3670 O   0  0  0  0  0  0  0  0  0  0  0  0
   22.9530   36.3270   13.0860 C   0  0  0  0  0  0  0  0  0  0  0  0
   24.2690   36.0210   12.4690 C   0  0  0  0  0  0  0  0  0  0  0  0
   25.3800   36.8570   12.4110 C   0  0  0  0  0  0  0  0  0  0  0  0
   24.6660   34.8940   11.8520 N   0  0  0  0  0  0  0  0  0  0  0  0
   26.4040   36.2250   11.7700 N   0  0  0  0  0  0  0  0  0  0  0  0
   25.9150   35.0530   11.4600 N   0  0  0  0  0  0  0  0  0  0  0  0
   27.6820   36.8170   11.5530 C   0  0  0  0  0  0  0  0  0  0  0  0
   28.6640   36.9570   12.4930 N   0  0  0  0  0  0  0  0  0  0  0  0
   28.1980   37.3570   10.4040 C   0  0  0  0  0  0  0  0  0  0  0  0
   29.7190   37.5550   11.9250 C   0  0  0  0  0  0  0  0  0  0  0  0
   29.4670   37.8190   10.6290 N   0  0  0  0  0  0  0  0  0  0  0  0
   27.6930   37.5020    9.1510 C   0  0  0  0  0  0  0  0  0  0  0  0
   30.2010   38.3960    9.6610 C   0  0  0  0  0  0  0  0  0  0  0  0
   28.3840   38.0670    8.1640 N   0  0  0  0  0  0  0  0  0  0  0  0
   26.5340   37.1030    8.8700 O   0  0  0  0  0  0  0  0  0  0  0  0
   31.4770   38.8500    9.9250 C   0  0  0  0  0  0  0  0  0  0  0  0
   29.6330   38.5140    8.4100 C   0  0  0  0  0  0  0  0  0  0  0  0
   32.2560   39.4480    8.9490 C   0  0  0  0  0  0  0  0  0  0  0  0
   30.4320   39.1180    7.4500 C   0  0  0  0  0  0  0  0  0  0  0  0
   31.7110   39.5760    7.7010 C   0  0  0  0  0  0  0  0  0  0  0  0
   27.9070   38.2490    6.8110 C   0  0  0  0  0  0  0  0  0  0  0  0
   26.6970   39.1550    6.8830 C   0  0  0  0  0  0  0  0  0  0  0  0
   27.4920   36.9900    6.1200 C   0  0  0  0  0  0  0  0  0  0  0  0
   29.8670   25.5550   16.9770 C   0  0  0  0  0  0  0  0  0  0  0  0
   28.3450   25.7220   17.0260 C   0  0  0  0  0  0  0  0  0  0  0  0
   27.6010   24.4000   16.9080 C   0  0  0  0  0  0  0  0  0  0  0  0
   26.5880   24.2210   18.0040 C   0  0  0  0  0  0  0  0  0  0  0  0
   26.4080   25.5380   18.7520 C   0  0  0  0  0  0  0  0  0  0  0  0
   24.9730   25.8990   18.8280 N   0  0  0  0  0  0  0  0  0  0  0  0
  1  2  1  0  0  0  0
  1  5  1  0  0  0  0
  2  3  2  0  0  0  0
  4  1  1  0  0  0  0
  6  5  1  1  0  0  0
  6 29  1  0  0  0  0
  7  6  1  0  0  0  0
  7 27  1  1  0  0  0
  8  7  1  6  0  0  0
  8 13  1  0  0  0  0
  9 14  1  6  0  0  0
  9 10  1  0  0  0  0
  9 11  1  0  0  0  0
 10 12  1  0  0  0  0
 11  8  1  0  0  0  0
 12 20  1  6  0  0  0
 12 13  1  0  0  0  0
 13 22  1  1  0  0  0
 15 14  1  0  0  0  0
 16  9  1  0  0  0  0
 16 18  1  0  0  0  0
 17 16  2  0  0  0  0
 18 19  1  0  0  0  0
 20 21  1  0  0  0  0
 22 24  1  0  0  0  0
 22 23  1  0  0  0  0
 23 25  1  0  0  0  0
 26 23  2  0  0  0  0
 28 27  1  0  0  0  0
 30 29  1  0  0  0  0
 31  2  1  0  0  0  0
 32 31  1  0  0  0  0
 33 32  1  0  0  0  0
 34 33  2  0  0  0  0
 35 33  1  0  0  0  0
 36 34  1  0  0  0  0
 37 36  1  0  0  0  0
 37 35  2  0  0  0  0
 38 36  1  0  0  0  0
 38 39  1  0  0  0  0
 40 42  1  0  0  0  0
 40 38  2  0  0  0  0
 41 39  2  0  0  0  0
 42 41  1  0  0  0  0
 43 40  1  0  0  0  0
 44 47  1  0  0  0  0
 44 42  1  0  0  0  0
 45 48  1  0  0  0  0
 45 43  1  0  0  0  0
 46 43  2  0  0  0  0
 48 44  2  0  0  0  0
 49 47  2  0  0  0  0
 50 51  2  0  0  0  0
 50 48  1  0  0  0  0
 51 49  1  0  0  0  0
 52 53  1  0  0  0  0
 52 45  1  0  0  0  0
 54 52  1  0  0  0  0
 55 56  1  0  0  0  0
 57 56  1  0  0  0  0
 57 58  1  0  0  0  0
 58 59  1  0  0  0  0
 59 60  1  0  0  0  0
M  END
>  <REMARK>
 VINA RESULT:    -4.358      3.768      6.898
 INTER + INTRA:         -14.906
 INTER:                  -9.864
 INTRA:                  -5.042
 UNBOUND:                -7.109
 SMILES CC(=O)N[C@@H]1[C@@H](O)C[C@](O)(C(=O)O)O[C@H]1C(O)[C@H](O)CNC(=O)OCc1cn(-c2ncn3c2c(=O)n(C(C)C)c2ccccc23)nn1
 SMILES IDX 21 1 22 2 23 3 20 5 18 6 16 7 15 8 9 9 8 10 14 11 6 12 5 13
 SMILES IDX 10 14 11 16 12 17 13 18 7 20 4 22 2 23 1 25 3 26 17 27 19 29
 SMILES IDX 24 31 25 32 26 33 27 34 47 35 28 36 46 37 29 38 30 39 33 40
 SMILES IDX 31 41 32 42 34 43 45 44 36 45 35 46 44 47 40 48 43 49 41 50
 SMILES IDX 42 51 37 52 38 53 39 54
 H PARENT 21 4 10 15 13 19 7 21 4 24 17 28 19 30
 Flexibility Score: inf
  4 active torsions:
  status: ('A' for Active; 'I' for Inactive)
    1  A    between atoms: CA   and  CB  
    2  A    between atoms: CB   and  CG  
    3  A    between atoms: CG   and  CD  
    4  A    between atoms: CD   and  CE  

>  <TORSDO>
F 16

>  <BEGIN_>
RES LYS A 131

$$$$
ligand_89_pose_16_2HRL.pdbqt
 OpenBabel07062320523D

  6  5  0  0  0  0  0  0  0  0999 V2000
   33.1930   34.6630    9.2900 C   0  0  0  0  0  0  0  0  0  0  0  0
   32.0600   35.3600   10.0340 C   0  0  0  0  0  0  0  0  0  0  0  0
   30.7190   34.7010    9.8430 C   0  0  0  0  0  0  0  0  0  0  0  0
   30.3040   34.7400    8.3800 C   0  0  0  0  0  0  0  0  0  0  0  0
   28.8260   34.4320    8.2370 C   0  0  0  0  0  0  0  0  0  0  0  0
   28.2990   33.7530    9.4530 N   0  0  0  0  0  0  0  0  0  0  0  0
  1  2  1  0  0  0  0
  3  2  1  0  0  0  0
  4  3  1  0  0  0  0
  5  4  1  0  0  0  0
  5  6  1  0  0  0  0
M  END
>  <EGIN_R>
ES LYS A 135

>  <REMARK>
  4 active torsions:
  status: ('A' for Active; 'I' for Inactive)
    5  A    between atoms: CA   and  CB  
    6  A    between atoms: CB   and  CG  
    7  A    between atoms: CG   and  CD  
    8  A    between atoms: CD   and  CE  

$$$$
