ligand_7_pose_13_2HRL.pdbqt
 OpenBabel07062320523D

 52 53  0  0  1  0  0  0  0  0999 V2000
   30.1270   35.5860   19.9380 C   0  0  0  0  0  0  0  0  0  0  0  0
   29.4890   34.2860   19.6070 C   0  0  2  0  0  0  0  0  0  0  0  0
   30.4170   33.1190   19.5080 C   0  0  1  0  0  0  0  0  0  0  0  0
   30.8040   32.7040   18.1380 C   0  0  2  0  0  0  0  0  0  0  0  0
   31.3360   33.7730   16.1270 C   0  0  2  0  0  0  0  0  0  0  0  0
   31.1710   32.4850   15.3730 C   0  0  0  0  0  0  0  0  0  0  0  0
   31.5400   33.6360   17.4670 O   0  0  0  0  0  0  0  0  0  0  0  0
   30.4020   31.4460   16.1150 C   0  0  1  0  0  0  0  0  0  0  0  0
   29.7000   32.1220   17.3070 C   0  0  1  0  0  0  0  0  0  0  0  0
   30.2140   34.5600   15.8760 O   0  0  0  0  0  0  0  0  0  0  0  0
   29.6680   34.5820   16.7140 H   0  0  0  0  0  0  0  0  0  0  0  0
   32.5250   34.4570   15.5530 C   0  0  0  0  0  0  0  0  0  0  0  0
   33.2480   35.1790   16.2680 O   0  0  0  0  0  0  0  0  0  0  0  0
   32.8560   34.3050   14.2000 O   0  0  0  0  0  0  0  0  0  0  0  0
   33.8150   34.0150   13.9620 H   0  0  0  0  0  0  0  0  0  0  0  0
   29.5150   30.7250   15.3410 O   0  0  0  0  0  0  0  0  0  0  0  0
   29.3430   31.2600   14.5100 H   0  0  0  0  0  0  0  0  0  0  0  0
   29.0120   31.0550   17.9860 N   0  0  0  0  0  0  0  0  0  0  0  0
   27.5980   31.1280   18.0980 C   0  0  0  0  0  0  0  0  0  0  0  0
   29.5140   30.2300   18.3980 H   0  0  0  0  0  0  0  0  0  0  0  0
   26.7960   30.0800   18.7820 C   0  0  0  0  0  0  0  0  0  0  0  0
   26.9710   32.1030   17.6140 O   0  0  0  0  0  0  0  0  0  0  0  0
   31.5610   33.4180   20.2440 O   0  0  0  0  0  0  0  0  0  0  0  0
   32.2800   33.6490   19.6040 H   0  0  0  0  0  0  0  0  0  0  0  0
   28.6480   34.3990   18.4970 O   0  0  0  0  0  0  0  0  0  0  0  0
   28.1120   33.5790   18.3540 H   0  0  0  0  0  0  0  0  0  0  0  0
   30.8890   36.1420   18.8370 N   0  0  0  0  0  0  0  0  0  0  0  0
   30.4800   37.2970   18.1130 C   0  0  0  0  0  0  0  0  0  0  0  0
   31.8050   35.7130   18.5080 H   0  0  0  0  0  0  0  0  0  0  0  0
   29.4230   37.8830   18.4110 O   0  0  0  0  0  0  0  0  0  0  0  0
   31.2500   37.7970   17.0600 O   0  0  0  0  0  0  0  0  0  0  0  0
   30.6210   38.6260   16.0700 C   0  0  0  0  0  0  0  0  0  0  0  0
   30.3910   37.8050   14.8550 C   0  0  0  0  0  0  0  0  0  0  0  0
   29.1930   37.7070   14.1660 C   0  0  0  0  0  0  0  0  0  0  0  0
   31.2470   37.0300   14.2040 N   0  0  0  0  0  0  0  0  0  0  0  0
   29.3480   36.8850   13.1260 N   0  0  0  0  0  0  0  0  0  0  0  0
   30.6310   36.4920   13.1900 N   0  0  0  0  0  0  0  0  0  0  0  0
   28.4140   36.4730   12.1360 C   0  0  0  0  0  0  0  0  0  0  0  0
   28.1320   37.2920   11.0650 C   0  0  0  0  0  0  0  0  0  0  0  0
   27.7590   35.2540   12.2090 C   0  0  0  0  0  0  0  0  0  0  0  0
   28.8180   38.5980   10.9620 C   0  0  0  0  0  0  0  0  0  0  0  0
   27.2100   36.8830   10.0920 C   0  0  0  0  0  0  0  0  0  0  0  0
   26.8520   34.8600   11.2450 C   0  0  0  0  0  0  0  0  0  0  0  0
   28.0800   34.3730   13.3880 C   0  0  0  0  0  0  0  0  0  0  0  0
   26.5610   35.6690   10.1680 C   0  0  0  0  0  0  0  0  0  0  0  0
   25.5830   35.2570    9.1160 C   0  0  0  0  0  0  0  0  0  0  0  0
   29.8670   25.5550   16.9770 C   0  0  0  0  0  0  0  0  0  0  0  0
   28.3450   25.7220   17.0260 C   0  0  0  0  0  0  0  0  0  0  0  0
   27.6000   24.4070   16.8540 C   0  0  0  0  0  0  0  0  0  0  0  0
   26.4960   24.2460   17.8620 C   0  0  0  0  0  0  0  0  0  0  0  0
   26.3850   25.5130   18.7030 C   0  0  0  0  0  0  0  0  0  0  0  0
   25.0730   26.1670   18.4860 N   0  0  0  0  0  0  0  0  0  0  0  0
  2  1  1  6  0  0  0
  3  2  1  0  0  0  0
  3 23  1  1  0  0  0
  4  3  1  1  0  0  0
  5 12  1  6  0  0  0
  5  7  1  0  0  0  0
  6  8  1  0  0  0  0
  6  5  1  0  0  0  0
  7  4  1  0  0  0  0
  8 16  1  6  0  0  0
  8  9  1  0  0  0  0
  9 18  1  1  0  0  0
  9  4  1  0  0  0  0
 10  5  1  0  0  0  0
 10 11  1  0  0  0  0
 12 13  2  0  0  0  0
 14 12  1  0  0  0  0
 15 14  1  0  0  0  0
 17 16  1  0  0  0  0
 18 19  1  0  0  0  0
 18 20  1  0  0  0  0
 19 21  1  0  0  0  0
 22 19  2  0  0  0  0
 24 23  1  0  0  0  0
 25  2  1  0  0  0  0
 26 25  1  0  0  0  0
 27  1  1  0  0  0  0
 28 30  2  0  0  0  0
 28 27  1  0  0  0  0
 29 27  1  0  0  0  0
 31 28  1  0  0  0  0
 32 31  1  0  0  0  0
 33 32  1  0  0  0  0
 34 33  2  0  0  0  0
 35 33  1  0  0  0  0
 36 37  1  0  0  0  0
 36 34  1  0  0  0  0
 37 35  2  0  0  0  0
 38 40  1  0  0  0  0
 38 36  1  0  0  0  0
 39 38  2  0  0  0  0
 40 44  1  0  0  0  0
 41 39  1  0  0  0  0
 42 45  2  0  0  0  0
 42 39  1  0  0  0  0
 43 40  2  0  0  0  0
 45 43  1  0  0  0  0
 46 45  1  0  0  0  0
 47 48  1  0  0  0  0
 49 48  1  0  0  0  0
 49 50  1  0  0  0  0
 50 51  1  0  0  0  0
 52 51  1  0  0  0  0
M  END
>  <REMARK>
 VINA RESULT:    -4.651      3.941      6.159
 INTER + INTRA:         -13.966
 INTER:                  -7.901
 INTRA:                  -6.065
 UNBOUND:                -5.917
 SMILES CC(=O)N[C@@H]1[C@@H](O)C[C@](O)(C(=O)O)O[C@H]1C(O)[C@H](O)CNC(=O)OCc1cn(-c2c(C)cc(C)cc2C)nn1
 SMILES IDX 20 1 18 2 16 3 15 4 9 5 8 6 14 7 6 8 5 9 10 10 11 12 12 13
 SMILES IDX 13 14 7 16 4 18 2 19 1 21 3 22 17 23 19 25 21 27 22 28 23 30
 SMILES IDX 24 31 25 32 26 33 27 34 39 35 28 36 38 37 29 38 30 39 36 40
 SMILES IDX 31 41 32 42 35 43 37 44 33 45 34 46
 H PARENT 10 11 13 15 7 17 4 20 17 24 19 26 21 29
 Flexibility Score: inf
  4 active torsions:
  status: ('A' for Active; 'I' for Inactive)
    1  A    between atoms: CA   and  CB  
    2  A    between atoms: CB   and  CG  
    3  A    between atoms: CG   and  CD  
    4  A    between atoms: CD   and  CE  

>  <TORSDO>
F 15

>  <BEGIN_>
RES LYS A 131

$$$$
ligand_7_pose_13_2HRL.pdbqt
 OpenBabel07062320523D

  6  5  0  0  0  0  0  0  0  0999 V2000
   33.1930   34.6630    9.2900 C   0  0  0  0  0  0  0  0  0  0  0  0
   32.0600   35.3600   10.0340 C   0  0  0  0  0  0  0  0  0  0  0  0
   30.6890   34.8940    9.6170 C   0  0  0  0  0  0  0  0  0  0  0  0
   30.2240   35.6370    8.3740 C   0  0  0  0  0  0  0  0  0  0  0  0
   29.1280   34.8610    7.6690 C   0  0  0  0  0  0  0  0  0  0  0  0
   28.4010   35.7240    6.6970 N   0  0  0  0  0  0  0  0  0  0  0  0
  1  2  1  0  0  0  0
  3  2  1  0  0  0  0
  4  3  1  0  0  0  0
  5  4  1  0  0  0  0
  6  5  1  0  0  0  0
M  END
>  <EGIN_R>
ES LYS A 135

>  <REMARK>
  4 active torsions:
  status: ('A' for Active; 'I' for Inactive)
    5  A    between atoms: CA   and  CB  
    6  A    between atoms: CB   and  CG  
    7  A    between atoms: CG   and  CD  
    8  A    between atoms: CD   and  CE  

$$$$
