ligand_38_pose_8_2HRL.pdbqt
 OpenBabel07062320523D

 51 52  0  0  1  0  0  0  0  0999 V2000
   21.3910   35.8460    8.6280 N   0  0  0  0  0  0  0  0  0  0  0  0
   22.5170   36.6580    8.3560 C   0  0  0  0  0  0  0  0  0  0  0  0
   22.6590   37.2120    7.2180 O   0  0  0  0  0  0  0  0  0  0  0  0
   21.3150   35.4120    9.5730 H   0  0  0  0  0  0  0  0  0  0  0  0
   20.4280   35.6800    7.5730 C   0  0  0  0  0  0  0  0  0  0  0  0
   19.0870   36.3330    7.9360 C   0  0  2  0  0  0  0  0  0  0  0  0
   18.1440   35.2080    8.1770 C   0  0  2  0  0  0  0  0  0  0  0  0
   17.9400   34.8090    9.6100 C   0  0  2  0  0  0  0  0  0  0  0  0
   18.2230   35.8210   11.6960 C   0  0  2  0  0  0  0  0  0  0  0  0
   18.5120   34.4390   12.2510 C   0  0  0  0  0  0  0  0  0  0  0  0
   18.5080   35.8500   10.3530 O   0  0  0  0  0  0  0  0  0  0  0  0
   19.2940   33.6050   11.2490 C   0  0  1  0  0  0  0  0  0  0  0  0
   18.4130   33.4610    9.9940 C   0  0  1  0  0  0  0  0  0  0  0  0
   19.1770   36.6690   12.2990 O   0  0  0  0  0  0  0  0  0  0  0  0
   18.8120   37.1370   13.0750 H   0  0  0  0  0  0  0  0  0  0  0  0
   16.8960   36.3140   12.0700 C   0  0  0  0  0  0  0  0  0  0  0  0
   16.6540   37.5430   12.0650 O   0  0  0  0  0  0  0  0  0  0  0  0
   15.8550   35.4740   12.4420 O   0  0  0  0  0  0  0  0  0  0  0  0
   14.9110   35.7560   12.2670 H   0  0  0  0  0  0  0  0  0  0  0  0
   20.5130   34.1640   10.9660 O   0  0  0  0  0  0  0  0  0  0  0  0
   20.7140   34.8680   11.6610 H   0  0  0  0  0  0  0  0  0  0  0  0
   17.3060   32.6050   10.4390 N   0  0  0  0  0  0  0  0  0  0  0  0
   16.7170   31.6440    9.5750 C   0  0  0  0  0  0  0  0  0  0  0  0
   16.9040   32.6630   11.4000 H   0  0  0  0  0  0  0  0  0  0  0  0
   15.5790   30.7780   10.0530 C   0  0  0  0  0  0  0  0  0  0  0  0
   17.1100   31.4840    8.4080 O   0  0  0  0  0  0  0  0  0  0  0  0
   18.7370   34.0710    7.5670 O   0  0  0  0  0  0  0  0  0  0  0  0
   19.2470   34.4420    6.7930 H   0  0  0  0  0  0  0  0  0  0  0  0
   18.7560   37.1400    6.8500 O   0  0  0  0  0  0  0  0  0  0  0  0
   17.9000   37.5810    7.0410 H   0  0  0  0  0  0  0  0  0  0  0  0
   23.5190   36.9010    9.2840 O   0  0  0  0  0  0  0  0  0  0  0  0
   24.3430   35.8870    9.8320 C   0  0  0  0  0  0  0  0  0  0  0  0
   23.7700   35.3450   11.0920 C   0  0  0  0  0  0  0  0  0  0  0  0
   24.2460   34.2400   11.8080 C   0  0  0  0  0  0  0  0  0  0  0  0
   22.7100   35.7800   11.7970 N   0  0  0  0  0  0  0  0  0  0  0  0
   23.4690   34.0660   12.8820 N   0  0  0  0  0  0  0  0  0  0  0  0
   22.5480   35.0100   12.8540 N   0  0  0  0  0  0  0  0  0  0  0  0
   23.5690   33.0560   13.9130 C   0  0  0  0  0  0  0  0  0  0  0  0
   23.1730   31.7300   13.3700 C   0  0  0  0  0  0  0  0  0  0  0  0
   24.0990   30.7240   13.2020 C   0  0  0  0  0  0  0  0  0  0  0  0
   21.8710   31.4900   13.0290 C   0  0  0  0  0  0  0  0  0  0  0  0
   23.7290   29.4770   12.6910 C   0  0  0  0  0  0  0  0  0  0  0  0
   21.4900   30.2490   12.5190 C   0  0  0  0  0  0  0  0  0  0  0  0
   22.4250   29.2410   12.3510 C   0  0  0  0  0  0  0  0  0  0  0  0
   19.6730   29.9530   12.0550 Br  0  0  0  0  0  0  0  0  0  0  0  0
   29.8670   25.5550   16.9770 C   0  0  0  0  0  0  0  0  0  0  0  0
   28.3450   25.7220   17.0260 C   0  0  0  0  0  0  0  0  0  0  0  0
   27.6030   24.3950   16.9760 C   0  0  0  0  0  0  0  0  0  0  0  0
   26.6290   24.2470   18.1120 C   0  0  0  0  0  0  0  0  0  0  0  0
   25.2560   23.8760   17.5600 C   0  0  0  0  0  0  0  0  0  0  0  0
   25.1060   22.4030   17.4920 N   0  0  0  0  0  0  0  0  0  0  0  0
  1  4  1  0  0  0  0
  2  1  1  0  0  0  0
  2 31  1  0  0  0  0
  3  2  2  0  0  0  0
  5  1  1  0  0  0  0
  6  5  1  6  0  0  0
  6  7  1  0  0  0  0
  7 27  1  6  0  0  0
  8  7  1  6  0  0  0
  8 13  1  0  0  0  0
  8 11  1  0  0  0  0
  9 16  1  1  0  0  0
  9 10  1  0  0  0  0
  9 14  1  0  0  0  0
 11  9  1  0  0  0  0
 12 20  1  6  0  0  0
 12 10  1  0  0  0  0
 13 22  1  1  0  0  0
 13 12  1  0  0  0  0
 14 15  1  0  0  0  0
 16 18  1  0  0  0  0
 17 16  2  0  0  0  0
 19 18  1  0  0  0  0
 20 21  1  0  0  0  0
 22 24  1  0  0  0  0
 23 25  1  0  0  0  0
 23 22  1  0  0  0  0
 26 23  2  0  0  0  0
 28 27  1  0  0  0  0
 29 30  1  0  0  0  0
 29  6  1  0  0  0  0
 31 32  1  0  0  0  0
 32 33  1  0  0  0  0
 33 35  1  0  0  0  0
 33 34  2  0  0  0  0
 34 36  1  0  0  0  0
 35 37  2  0  0  0  0
 36 38  1  0  0  0  0
 37 36  1  0  0  0  0
 39 38  1  0  0  0  0
 40 39  1  0  0  0  0
 41 39  2  0  0  0  0
 42 40  2  0  0  0  0
 43 41  1  0  0  0  0
 44 43  2  0  0  0  0
 44 42  1  0  0  0  0
 45 43  1  0  0  0  0
 46 47  1  0  0  0  0
 48 47  1  0  0  0  0
 48 49  1  0  0  0  0
 50 49  1  0  0  0  0
 51 50  1  0  0  0  0
M  END
>  <REMARK>
 VINA RESULT:    -4.698      6.302     10.758
 INTER + INTRA:         -14.701
 INTER:                  -7.657
 INTRA:                  -7.044
 UNBOUND:                -6.295
 SMILES CC(=O)N[C@@H]1[C@@H](O)C[C@](O)(C(=O)O)O[C@H]1C(O)[C@H](O)CNC(=O)OCc1cn(Cc2cccc(Br)c2)nn1
 SMILES IDX 21 1 22 2 23 3 20 5 18 6 16 7 15 8 9 9 8 10 14 11 6 12 5 13
 SMILES IDX 10 14 11 16 12 17 13 18 7 20 4 22 2 23 1 25 3 26 17 27 19 29
 SMILES IDX 24 31 25 32 26 33 27 34 38 35 28 36 37 37 29 38 30 39 31 40
 SMILES IDX 36 41 32 42 34 43 33 44 35 45
 H PARENT 21 4 10 15 13 19 7 21 4 24 17 28 19 30
 Flexibility Score: inf
  4 active torsions:
  status: ('A' for Active; 'I' for Inactive)
    1  A    between atoms: CA   and  CB  
    2  A    between atoms: CB   and  CG  
    3  A    between atoms: CG   and  CD  
    4  A    between atoms: CD   and  CE  

>  <TORSDO>
F 16

>  <BEGIN_>
RES LYS A 131

$$$$
ligand_38_pose_8_2HRL.pdbqt
 OpenBabel07062320523D

  6  5  0  0  0  0  0  0  0  0999 V2000
   33.1930   34.6630    9.2900 C   0  0  0  0  0  0  0  0  0  0  0  0
   32.0600   35.3600   10.0340 C   0  0  0  0  0  0  0  0  0  0  0  0
   30.7080   34.7420    9.7880 C   0  0  0  0  0  0  0  0  0  0  0  0
   30.4880   34.5060    8.3020 C   0  0  0  0  0  0  0  0  0  0  0  0
   29.0720   34.8800    7.9070 C   0  0  0  0  0  0  0  0  0  0  0  0
   28.0770   34.2650    8.8300 N   0  0  0  0  0  0  0  0  0  0  0  0
  1  2  1  0  0  0  0
  3  2  1  0  0  0  0
  4  3  1  0  0  0  0
  5  4  1  0  0  0  0
  5  6  1  0  0  0  0
M  END
>  <EGIN_R>
ES LYS A 135

>  <REMARK>
  4 active torsions:
  status: ('A' for Active; 'I' for Inactive)
    5  A    between atoms: CA   and  CB  
    6  A    between atoms: CB   and  CG  
    7  A    between atoms: CG   and  CD  
    8  A    between atoms: CD   and  CE  

$$$$
