ligand_85_pose_15_2HRL.pdbqt
 OpenBabel07062320523D

 55 56  0  0  1  0  0  0  0  0999 V2000
   27.0820   38.8650    5.4700 N   0  0  0  0  0  0  0  0  0  0  0  0
   28.0230   37.8250    5.4100 C   0  0  0  0  0  0  0  0  0  0  0  0
   29.2240   38.0760    5.1900 O   0  0  0  0  0  0  0  0  0  0  0  0
   26.0780   38.6450    5.6590 H   0  0  0  0  0  0  0  0  0  0  0  0
   27.4420   40.2460    5.2810 C   0  0  0  0  0  0  0  0  0  0  0  0
   27.5740   40.9280    6.6190 C   0  0  2  0  0  0  0  0  0  0  0  0
   29.0090   41.2160    6.9830 C   0  0  2  0  0  0  0  0  0  0  0  0
   29.5060   40.2450    7.9860 C   0  0  2  0  0  0  0  0  0  0  0  0
   29.5830   39.5840   10.1800 C   0  0  2  0  0  0  0  0  0  0  0  0
   30.1210   38.3330    9.5310 C   0  0  0  0  0  0  0  0  0  0  0  0
   29.3680   40.6240    9.3100 O   0  0  0  0  0  0  0  0  0  0  0  0
   31.2050   38.6000    8.5410 C   0  0  1  0  0  0  0  0  0  0  0  0
   30.9830   39.9070    7.7860 C   0  0  1  0  0  0  0  0  0  0  0  0
   30.5480   40.0290   11.1010 O   0  0  0  0  0  0  0  0  0  0  0  0
   30.1960   39.7610   12.0040 H   0  0  0  0  0  0  0  0  0  0  0  0
   28.3350   39.3210   10.9030 C   0  0  0  0  0  0  0  0  0  0  0  0
   28.3530   38.6090   11.9370 O   0  0  0  0  0  0  0  0  0  0  0  0
   27.0970   39.8130   10.5190 O   0  0  0  0  0  0  0  0  0  0  0  0
   26.8080   40.7110   10.9390 H   0  0  0  0  0  0  0  0  0  0  0  0
   32.4350   38.6310    9.2290 O   0  0  0  0  0  0  0  0  0  0  0  0
   33.1350   38.5460    8.5270 H   0  0  0  0  0  0  0  0  0  0  0  0
   31.3340   39.8080    6.4110 N   0  0  0  0  0  0  0  0  0  0  0  0
   32.6710   40.0300    5.9940 C   0  0  0  0  0  0  0  0  0  0  0  0
   30.6290   39.5730    5.6870 H   0  0  0  0  0  0  0  0  0  0  0  0
   32.9920   39.9140    4.5310 C   0  0  0  0  0  0  0  0  0  0  0  0
   33.6020   40.3170    6.7670 O   0  0  0  0  0  0  0  0  0  0  0  0
   29.1490   42.5410    7.3100 O   0  0  0  0  0  0  0  0  0  0  0  0
   29.7700   42.9520    6.6280 H   0  0  0  0  0  0  0  0  0  0  0  0
   27.0820   40.0580    7.6410 O   0  0  0  0  0  0  0  0  0  0  0  0
   27.7520   39.9260    8.3410 H   0  0  0  0  0  0  0  0  0  0  0  0
   27.6930   36.4850    5.5850 O   0  0  0  0  0  0  0  0  0  0  0  0
   28.3600   35.7290    6.5770 C   0  0  0  0  0  0  0  0  0  0  0  0
   27.5090   35.5400    7.7600 C   0  0  0  0  0  0  0  0  0  0  0  0
   27.2270   36.4100    8.7930 C   0  0  0  0  0  0  0  0  0  0  0  0
   26.8260   34.4190    8.0470 N   0  0  0  0  0  0  0  0  0  0  0  0
   26.3870   35.8020    9.6730 N   0  0  0  0  0  0  0  0  0  0  0  0
   26.1730   34.6060    9.1840 N   0  0  0  0  0  0  0  0  0  0  0  0
   25.8450   36.3350   10.8740 C   0  0  0  0  0  0  0  0  0  0  0  0
   26.3340   35.9360   12.1100 C   0  0  0  0  0  0  0  0  0  0  0  0
   24.8250   37.2550   10.8030 C   0  0  0  0  0  0  0  0  0  0  0  0
   25.8250   36.4370   13.2820 C   0  0  0  0  0  0  0  0  0  0  0  0
   24.2880   37.7820   11.9650 C   0  0  0  0  0  0  0  0  0  0  0  0
   26.4370   35.9390   14.8560 Cl  0  0  0  0  0  0  0  0  0  0  0  0
   24.8020   37.3600   13.1900 C   0  0  0  0  0  0  0  0  0  0  0  0
   24.3280   37.6610    9.5090 C   0  0  0  0  0  0  0  0  0  0  0  0
   24.7730   38.6640    8.8820 O   0  0  0  0  0  0  0  0  0  0  0  0
   23.2940   36.9220    8.8900 N   0  0  0  0  0  0  0  0  0  0  0  0
   22.7550   35.7690    9.5680 C   0  0  0  0  0  0  0  0  0  0  0  0
   22.7550   37.2860    7.5880 C   0  0  0  0  0  0  0  0  0  0  0  0
   29.8670   25.5550   16.9770 C   0  0  0  0  0  0  0  0  0  0  0  0
   28.3450   25.7220   17.0260 C   0  0  0  0  0  0  0  0  0  0  0  0
   27.5990   24.4760   16.5730 C   0  0  0  0  0  0  0  0  0  0  0  0
   27.2080   23.5980   17.7290 C   0  0  0  0  0  0  0  0  0  0  0  0
   25.7170   23.2870   17.6500 C   0  0  0  0  0  0  0  0  0  0  0  0
   24.9970   24.3740   16.9450 N   0  0  0  0  0  0  0  0  0  0  0  0
  1  4  1  0  0  0  0
  2  1  1  0  0  0  0
  2 31  1  0  0  0  0
  3  2  2  0  0  0  0
  5  1  1  0  0  0  0
  6  5  1  6  0  0  0
  6  7  1  0  0  0  0
  6 29  1  0  0  0  0
  7 27  1  1  0  0  0
  8  7  1  6  0  0  0
  8 11  1  0  0  0  0
  9 16  1  1  0  0  0
  9 14  1  0  0  0  0
 10  9  1  0  0  0  0
 11  9  1  0  0  0  0
 12 20  1  1  0  0  0
 12 10  1  0  0  0  0
 13 22  1  6  0  0  0
 13  8  1  0  0  0  0
 13 12  1  0  0  0  0
 14 15  1  0  0  0  0
 16 17  2  0  0  0  0
 18 16  1  0  0  0  0
 18 19  1  0  0  0  0
 21 20  1  0  0  0  0
 23 22  1  0  0  0  0
 23 26  2  0  0  0  0
 24 22  1  0  0  0  0
 25 23  1  0  0  0  0
 28 27  1  0  0  0  0
 29 30  1  0  0  0  0
 31 32  1  0  0  0  0
 32 33  1  0  0  0  0
 33 35  1  0  0  0  0
 33 34  2  0  0  0  0
 34 36  1  0  0  0  0
 35 37  2  0  0  0  0
 36 38  1  0  0  0  0
 37 36  1  0  0  0  0
 38 39  1  0  0  0  0
 39 41  2  0  0  0  0
 40 38  2  0  0  0  0
 40 42  1  0  0  0  0
 41 43  1  0  0  0  0
 42 44  2  0  0  0  0
 44 41  1  0  0  0  0
 45 40  1  0  0  0  0
 46 45  2  0  0  0  0
 47 45  1  0  0  0  0
 47 48  1  0  0  0  0
 49 47  1  0  0  0  0
 50 51  1  0  0  0  0
 52 51  1  0  0  0  0
 52 53  1  0  0  0  0
 54 53  1  0  0  0  0
 55 54  1  0  0  0  0
M  END
>  <REMARK>
 VINA RESULT:    -4.657      2.784      6.535
 INTER + INTRA:         -14.519
 INTER:                  -7.921
 INTRA:                  -6.598
 UNBOUND:                -6.187
 SMILES CC(=O)N[C@@H]1[C@@H](O)C[C@](O)(C(=O)O)O[C@H]1C(O)[C@H](O)CNC(=O)OCc1cn(-c2cc(Cl)ccc2C(=O)N(C)C)nn1
 SMILES IDX 21 1 22 2 23 3 20 5 18 6 16 7 15 8 9 9 8 10 14 11 6 12 5 13
 SMILES IDX 10 14 11 16 12 17 13 18 7 20 4 22 2 23 1 25 3 26 17 27 19 29
 SMILES IDX 24 31 25 32 26 33 27 34 42 35 28 36 41 37 29 38 30 39 35 40
 SMILES IDX 31 41 34 42 32 43 33 44 36 45 37 46 38 47 39 48 40 49
 H PARENT 21 4 10 15 13 19 7 21 4 24 17 28 19 30
 Flexibility Score: inf
  4 active torsions:
  status: ('A' for Active; 'I' for Inactive)
    1  A    between atoms: CA   and  CB  
    2  A    between atoms: CB   and  CG  
    3  A    between atoms: CG   and  CD  
    4  A    between atoms: CD   and  CE  

>  <TORSDO>
F 16

>  <BEGIN_>
RES LYS A 131

$$$$
ligand_85_pose_15_2HRL.pdbqt
 OpenBabel07062320523D

  6  5  0  0  0  0  0  0  0  0999 V2000
   33.1930   34.6630    9.2900 C   0  0  0  0  0  0  0  0  0  0  0  0
   32.0600   35.3600   10.0340 C   0  0  0  0  0  0  0  0  0  0  0  0
   30.6950   34.8160    9.6990 C   0  0  0  0  0  0  0  0  0  0  0  0
   29.7780   34.8840   10.9110 C   0  0  0  0  0  0  0  0  0  0  0  0
   30.5860   34.8300   12.1930 C   0  0  0  0  0  0  0  0  0  0  0  0
   29.7360   34.4240   13.3460 N   0  0  0  0  0  0  0  0  0  0  0  0
  1  2  1  0  0  0  0
  3  2  1  0  0  0  0
  3  4  1  0  0  0  0
  4  5  1  0  0  0  0
  5  6  1  0  0  0  0
M  END
>  <EGIN_R>
ES LYS A 135

>  <REMARK>
  4 active torsions:
  status: ('A' for Active; 'I' for Inactive)
    5  A    between atoms: CA   and  CB  
    6  A    between atoms: CB   and  CG  
    7  A    between atoms: CG   and  CD  
    8  A    between atoms: CD   and  CE  

$$$$
