ligand_62_pose_3_2HRL.pdbqt
 OpenBabel07062320523D

 52 52  0  0  1  0  0  0  0  0999 V2000
   26.8900   28.7260   17.0360 N   0  0  0  0  0  0  0  0  0  0  0  0
   26.0680   29.6120   16.3100 C   0  0  0  0  0  0  0  0  0  0  0  0
   24.8220   29.6190   16.4370 O   0  0  0  0  0  0  0  0  0  0  0  0
   27.9250   28.8000   16.8640 H   0  0  0  0  0  0  0  0  0  0  0  0
   26.4510   27.7470   17.9700 C   0  0  0  0  0  0  0  0  0  0  0  0
   27.1290   27.7000   19.2890 C   0  0  2  0  0  0  0  0  0  0  0  0
   27.4300   29.0720   19.8520 C   0  0  2  0  0  0  0  0  0  0  0  0
   28.8840   29.3960   19.9780 C   0  0  2  0  0  0  0  0  0  0  0  0
   30.7110   28.8280   21.2790 C   0  0  2  0  0  0  0  0  0  0  0  0
   31.3590   29.6210   20.1750 C   0  0  0  0  0  0  0  0  0  0  0  0
   29.3480   28.6730   21.0980 O   0  0  0  0  0  0  0  0  0  0  0  0
   30.7370   30.9520   19.9450 C   0  0  1  0  0  0  0  0  0  0  0  0
   29.2280   30.8270   20.2090 C   0  0  1  0  0  0  0  0  0  0  0  0
   31.0350   29.4070   22.4940 O   0  0  0  0  0  0  0  0  0  0  0  0
   30.5950   30.2800   22.6440 H   0  0  0  0  0  0  0  0  0  0  0  0
   31.3160   27.4690   21.2580 C   0  0  0  0  0  0  0  0  0  0  0  0
   31.2810   26.7080   22.2640 O   0  0  0  0  0  0  0  0  0  0  0  0
   31.9570   26.9600   20.1230 O   0  0  0  0  0  0  0  0  0  0  0  0
   31.5680   26.1920   19.5930 H   0  0  0  0  0  0  0  0  0  0  0  0
   31.2870   31.9610   20.7330 O   0  0  0  0  0  0  0  0  0  0  0  0
   31.2270   31.6470   21.6770 H   0  0  0  0  0  0  0  0  0  0  0  0
   28.6050   31.7960   19.3750 N   0  0  0  0  0  0  0  0  0  0  0  0
   28.2770   33.1270   19.8340 C   0  0  0  0  0  0  0  0  0  0  0  0
   28.3560   31.6140   18.3800 H   0  0  0  0  0  0  0  0  0  0  0  0
   27.6280   34.1030   18.9290 C   0  0  0  0  0  0  0  0  0  0  0  0
   28.5410   33.4560   20.9970 O   0  0  0  0  0  0  0  0  0  0  0  0
   26.9570   28.9930   21.1990 O   0  0  0  0  0  0  0  0  0  0  0  0
   26.0090   29.1980   21.2480 H   0  0  0  0  0  0  0  0  0  0  0  0
   28.3570   27.0540   19.1740 O   0  0  0  0  0  0  0  0  0  0  0  0
   28.8910   27.4710   18.4570 H   0  0  0  0  0  0  0  0  0  0  0  0
   26.6150   30.5260   15.4140 O   0  0  0  0  0  0  0  0  0  0  0  0
   26.9570   31.8300   15.8060 C   0  0  0  0  0  0  0  0  0  0  0  0
   28.4170   31.9710   15.9500 C   0  0  0  0  0  0  0  0  0  0  0  0
   29.2080   33.0240   15.5320 C   0  0  0  0  0  0  0  0  0  0  0  0
   29.2270   31.0590   16.5290 N   0  0  0  0  0  0  0  0  0  0  0  0
   30.4560   32.7190   15.8700 N   0  0  0  0  0  0  0  0  0  0  0  0
   30.4640   31.5580   16.4580 N   0  0  0  0  0  0  0  0  0  0  0  0
   31.6370   33.5430   15.6270 C   0  0  1  0  0  0  0  0  0  0  0  0
   31.2960   34.5710   14.5870 C   0  0  0  0  0  0  0  0  0  0  0  0
   32.3560   34.7780   13.7330 O   0  0  0  0  0  0  0  0  0  0  0  0
   32.1050   35.6630   12.7070 C   0  0  0  0  0  0  0  0  0  0  0  0
   31.9980   34.2520   16.8980 C   0  0  0  0  0  0  0  0  0  0  0  0
   32.7880   35.2080   16.8880 O   0  0  0  0  0  0  0  0  0  0  0  0
   31.4060   33.7900   18.1020 N   0  0  0  0  0  0  0  0  0  0  0  0
   31.3180   34.4560   18.9040 H   0  0  0  0  0  0  0  0  0  0  0  0
   31.0680   32.8230   18.1890 H   0  0  0  0  0  0  0  0  0  0  0  0
   29.8670   25.5550   16.9770 C   0  0  0  0  0  0  0  0  0  0  0  0
   28.3450   25.7220   17.0260 C   0  0  0  0  0  0  0  0  0  0  0  0
   27.5990   24.4210   16.7740 C   0  0  0  0  0  0  0  0  0  0  0  0
   26.7170   24.0400   17.9300 C   0  0  0  0  0  0  0  0  0  0  0  0
   25.2580   24.0700   17.4880 C   0  0  0  0  0  0  0  0  0  0  0  0
   24.3910   24.5500   18.5910 N   0  0  0  0  0  0  0  0  0  0  0  0
  1  5  1  0  0  0  0
  2  3  2  0  0  0  0
  2  1  1  0  0  0  0
  4  1  1  0  0  0  0
  6  5  1  6  0  0  0
  6  7  1  0  0  0  0
  7 27  1  1  0  0  0
  8  7  1  1  0  0  0
  8 13  1  0  0  0  0
  8 11  1  0  0  0  0
  9 16  1  6  0  0  0
  9 14  1  0  0  0  0
 10  9  1  0  0  0  0
 11  9  1  0  0  0  0
 12 10  1  0  0  0  0
 12 13  1  0  0  0  0
 12 20  1  1  0  0  0
 13 22  1  6  0  0  0
 14 15  1  0  0  0  0
 16 17  2  0  0  0  0
 18 16  1  0  0  0  0
 19 18  1  0  0  0  0
 20 21  1  0  0  0  0
 22 23  1  0  0  0  0
 23 26  2  0  0  0  0
 24 22  1  0  0  0  0
 25 23  1  0  0  0  0
 27 28  1  0  0  0  0
 29  6  1  0  0  0  0
 30 29  1  0  0  0  0
 31 32  1  0  0  0  0
 31  2  1  0  0  0  0
 32 33  1  0  0  0  0
 33 35  1  0  0  0  0
 34 36  1  0  0  0  0
 34 33  2  0  0  0  0
 36 37  1  0  0  0  0
 37 35  2  0  0  0  0
 38 39  1  6  0  0  0
 38 36  1  0  0  0  0
 38 42  1  0  0  0  0
 40 39  1  0  0  0  0
 41 40  1  0  0  0  0
 42 44  1  0  0  0  0
 43 42  2  0  0  0  0
 44 46  1  0  0  0  0
 44 45  1  0  0  0  0
 47 48  1  0  0  0  0
 49 48  1  0  0  0  0
 49 50  1  0  0  0  0
 51 50  1  0  0  0  0
 51 52  1  0  0  0  0
M  END
>  <REMARK>
 VINA RESULT:    -4.200      1.663      2.198
 INTER + INTRA:         -14.759
 INTER:                  -8.288
 INTRA:                  -6.470
 UNBOUND:                -6.753
 SMILES COCC(C(N)=O)n1cc(COC(=O)NC[C@@H](O)C(O)[C@@H]2O[C@@](O)(C(=O)O)C[C@H](O)[C@H]2NC(C)=O)nn1
 SMILES IDX 15 1 13 2 14 3 16 5 17 6 19 7 21 8 23 9 28 10 22 11 29 12
 SMILES IDX 31 13 24 14 25 16 26 17 27 18 30 20 32 22 33 23 34 25 35 26
 SMILES IDX 20 27 18 29 12 31 11 32 10 33 9 34 36 35 8 36 37 37 4 38
 SMILES IDX 3 39 2 40 1 41 5 42 7 43 6 44
 H PARENT 15 4 24 15 27 19 30 21 32 24 20 28 18 30 6 45 6 46
 Flexibility Score: inf
  4 active torsions:
  status: ('A' for Active; 'I' for Inactive)
    1  A    between atoms: CA   and  CB  
    2  A    between atoms: CB   and  CG  
    3  A    between atoms: CG   and  CD  
    4  A    between atoms: CD   and  CE  

>  <TORSDO>
F 18

>  <BEGIN_>
RES LYS A 131

$$$$
ligand_62_pose_3_2HRL.pdbqt
 OpenBabel07062320523D

  6  5  0  0  0  0  0  0  0  0999 V2000
   33.1930   34.6630    9.2900 C   0  0  0  0  0  0  0  0  0  0  0  0
   32.0600   35.3600   10.0340 C   0  0  0  0  0  0  0  0  0  0  0  0
   30.8850   35.7050    9.1560 C   0  0  0  0  0  0  0  0  0  0  0  0
   30.3890   34.4740    8.4150 C   0  0  0  0  0  0  0  0  0  0  0  0
   28.8740   34.4760    8.3320 C   0  0  0  0  0  0  0  0  0  0  0  0
   28.4020   35.2710    7.1650 N   0  0  0  0  0  0  0  0  0  0  0  0
  1  2  1  0  0  0  0
  3  2  1  0  0  0  0
  4  3  1  0  0  0  0
  5  4  1  0  0  0  0
  6  5  1  0  0  0  0
M  END
>  <EGIN_R>
ES LYS A 135

>  <REMARK>
  4 active torsions:
  status: ('A' for Active; 'I' for Inactive)
    5  A    between atoms: CA   and  CB  
    6  A    between atoms: CB   and  CG  
    7  A    between atoms: CG   and  CD  
    8  A    between atoms: CD   and  CE  

$$$$
