ligand_72_pose_5_2HRL.pdbqt
 OpenBabel07062320523D

 49 49  0  0  1  0  0  0  0  0999 V2000
   24.7770   38.9430    7.2680 N   0  0  0  0  0  0  0  0  0  0  0  0
   25.8450   39.8560    6.9890 C   0  0  0  0  0  0  0  0  0  0  0  0
   26.0810   40.8540    7.7510 O   0  0  0  0  0  0  0  0  0  0  0  0
   24.6370   38.1420    6.6240 H   0  0  0  0  0  0  0  0  0  0  0  0
   23.9470   39.1520    8.4350 C   0  0  0  0  0  0  0  0  0  0  0  0
   22.7530   38.2810    8.4630 C   0  0  2  0  0  0  0  0  0  0  0  0
   22.7960   37.0040    7.7120 C   0  0  1  0  0  0  0  0  0  0  0  0
   22.2240   35.8650    8.5190 C   0  0  2  0  0  0  0  0  0  0  0  0
   19.8950   36.0680    8.1630 C   0  0  2  0  0  0  0  0  0  0  0  0
   19.7230   36.4820    9.6370 C   0  0  0  0  0  0  0  0  0  0  0  0
   21.0600   35.4100    7.9370 O   0  0  0  0  0  0  0  0  0  0  0  0
   20.6900   35.6400   10.3990 C   0  0  1  0  0  0  0  0  0  0  0  0
   22.1080   36.1320    9.9890 C   0  0  1  0  0  0  0  0  0  0  0  0
   19.6490   37.1680    7.3670 O   0  0  0  0  0  0  0  0  0  0  0  0
   19.3180   36.8770    6.4840 H   0  0  0  0  0  0  0  0  0  0  0  0
   18.7960   35.0650    7.8730 C   0  0  0  0  0  0  0  0  0  0  0  0
   17.8220   34.9370    8.6500 O   0  0  0  0  0  0  0  0  0  0  0  0
   18.9040   34.3010    6.7310 O   0  0  0  0  0  0  0  0  0  0  0  0
   18.1650   33.6700    6.4430 H   0  0  0  0  0  0  0  0  0  0  0  0
   20.5430   35.7220   11.7700 O   0  0  0  0  0  0  0  0  0  0  0  0
   21.3870   35.3840   12.1710 H   0  0  0  0  0  0  0  0  0  0  0  0
   22.9740   35.2620   10.8020 N   0  0  0  0  0  0  0  0  0  0  0  0
   24.3270   35.5260   11.0370 C   0  0  0  0  0  0  0  0  0  0  0  0
   22.5300   34.4140   11.2110 H   0  0  0  0  0  0  0  0  0  0  0  0
   25.2200   34.6600   11.8490 C   0  0  0  0  0  0  0  0  0  0  0  0
   24.8340   36.5650   10.5300 O   0  0  0  0  0  0  0  0  0  0  0  0
   22.5120   37.0150    6.3860 O   0  0  0  0  0  0  0  0  0  0  0  0
   21.6310   36.6290    6.1430 H   0  0  0  0  0  0  0  0  0  0  0  0
   21.6290   39.0150    8.0190 O   0  0  0  0  0  0  0  0  0  0  0  0
   21.0970   38.4240    7.4410 H   0  0  0  0  0  0  0  0  0  0  0  0
   26.6160   39.6340    5.8780 O   0  0  0  0  0  0  0  0  0  0  0  0
   27.9440   39.2050    5.9340 C   0  0  0  0  0  0  0  0  0  0  0  0
   28.0370   37.7810    6.3470 C   0  0  0  0  0  0  0  0  0  0  0  0
   28.4280   37.3570    7.5930 C   0  0  0  0  0  0  0  0  0  0  0  0
   27.7760   36.6840    5.6380 N   0  0  0  0  0  0  0  0  0  0  0  0
   28.3950   36.0200    7.6130 N   0  0  0  0  0  0  0  0  0  0  0  0
   27.9910   35.6350    6.4010 N   0  0  0  0  0  0  0  0  0  0  0  0
   28.7370   35.1900    8.7400 C   0  0  0  0  0  0  0  0  0  0  0  0
   28.8460   36.0180   10.0030 C   0  0  0  0  0  0  0  0  0  0  0  0
   30.0610   34.4970    8.4490 C   0  0  0  0  0  0  0  0  0  0  0  0
   27.7040   34.1050    8.9030 C   0  0  0  0  0  0  0  0  0  0  0  0
   26.4400   34.5910    8.5540 O   0  0  0  0  0  0  0  0  0  0  0  0
   26.5080   35.0370    7.6720 H   0  0  0  0  0  0  0  0  0  0  0  0
   29.8670   25.5550   16.9770 C   0  0  0  0  0  0  0  0  0  0  0  0
   28.3450   25.7220   17.0260 C   0  0  0  0  0  0  0  0  0  0  0  0
   27.6010   24.4030   16.8880 C   0  0  0  0  0  0  0  0  0  0  0  0
   26.7190   24.1230   18.0730 C   0  0  0  0  0  0  0  0  0  0  0  0
   25.3870   23.5540   17.5940 C   0  0  0  0  0  0  0  0  0  0  0  0
   24.6040   24.5930   16.8840 N   0  0  0  0  0  0  0  0  0  0  0  0
  1  5  1  0  0  0  0
  2  1  1  0  0  0  0
  2  3  2  0  0  0  0
  4  1  1  0  0  0  0
  6  5  1  6  0  0  0
  7 27  1  6  0  0  0
  7  6  1  0  0  0  0
  8  7  1  6  0  0  0
  8 13  1  0  0  0  0
  9 14  1  6  0  0  0
  9 10  1  0  0  0  0
 10 12  1  0  0  0  0
 11  9  1  0  0  0  0
 11  8  1  0  0  0  0
 12 20  1  1  0  0  0
 13 12  1  0  0  0  0
 13 22  1  1  0  0  0
 15 14  1  0  0  0  0
 16  9  1  0  0  0  0
 16 17  2  0  0  0  0
 18 16  1  0  0  0  0
 19 18  1  0  0  0  0
 20 21  1  0  0  0  0
 22 23  1  0  0  0  0
 22 24  1  0  0  0  0
 23 25  1  0  0  0  0
 26 23  2  0  0  0  0
 28 27  1  0  0  0  0
 29  6  1  0  0  0  0
 30 29  1  0  0  0  0
 31 32  1  0  0  0  0
 31  2  1  0  0  0  0
 32 33  1  0  0  0  0
 33 34  2  0  0  0  0
 34 36  1  0  0  0  0
 35 33  1  0  0  0  0
 35 37  2  0  0  0  0
 36 38  1  0  0  0  0
 37 36  1  0  0  0  0
 38 41  1  0  0  0  0
 38 39  1  0  0  0  0
 40 38  1  0  0  0  0
 42 41  1  0  0  0  0
 43 42  1  0  0  0  0
 44 45  1  0  0  0  0
 46 45  1  0  0  0  0
 46 47  1  0  0  0  0
 48 47  1  0  0  0  0
 49 48  1  0  0  0  0
M  END
>  <REMARK>
 VINA RESULT:    -4.616      3.803      6.259
 INTER + INTRA:         -14.539
 INTER:                  -9.849
 INTRA:                  -4.690
 UNBOUND:                -6.145
 SMILES CC(=O)N[C@@H]1[C@@H](O)C[C@](O)(C(=O)O)O[C@H]1C(O)[C@H](O)CNC(=O)OCc1cn(C(C)(C)CO)nn1
 SMILES IDX 21 1 22 2 23 3 20 5 18 6 16 7 15 8 9 9 8 10 14 11 6 12 5 13
 SMILES IDX 10 14 11 16 12 17 13 18 7 20 4 22 2 23 1 25 3 26 17 27 19 29
 SMILES IDX 24 31 25 32 26 33 27 34 35 35 28 36 34 37 29 38 30 39 31 40
 SMILES IDX 32 41 33 42
 H PARENT 21 4 10 15 13 19 7 21 4 24 17 28 19 30 33 43
 Flexibility Score: inf
  4 active torsions:
  status: ('A' for Active; 'I' for Inactive)
    1  A    between atoms: CA   and  CB  
    2  A    between atoms: CB   and  CG  
    3  A    between atoms: CG   and  CD  
    4  A    between atoms: CD   and  CE  

>  <TORSDO>
F 17

>  <BEGIN_>
RES LYS A 131

$$$$
ligand_72_pose_5_2HRL.pdbqt
 OpenBabel07062320523D

  6  5  0  0  0  0  0  0  0  0999 V2000
   33.1930   34.6630    9.2900 C   0  0  0  0  0  0  0  0  0  0  0  0
   32.0600   35.3600   10.0340 C   0  0  0  0  0  0  0  0  0  0  0  0
   32.5000   36.0320   11.3090 C   0  0  0  0  0  0  0  0  0  0  0  0
   32.0520   37.4850   11.3320 C   0  0  0  0  0  0  0  0  0  0  0  0
   31.2690   37.7810   12.5970 C   0  0  0  0  0  0  0  0  0  0  0  0
   31.8850   37.1140   13.7770 N   0  0  0  0  0  0  0  0  0  0  0  0
  1  2  1  0  0  0  0
  2  3  1  0  0  0  0
  3  4  1  0  0  0  0
  4  5  1  0  0  0  0
  5  6  1  0  0  0  0
M  END
>  <EGIN_R>
ES LYS A 135

>  <REMARK>
  4 active torsions:
  status: ('A' for Active; 'I' for Inactive)
    5  A    between atoms: CA   and  CB  
    6  A    between atoms: CB   and  CG  
    7  A    between atoms: CG   and  CD  
    8  A    between atoms: CD   and  CE  

$$$$
