ligand_25_pose_8_2HRL.pdbqt
 OpenBabel07062320523D

 56 59  0  0  1  0  0  0  0  0999 V2000
   25.7910   32.0520   20.2800 C   0  0  0  0  0  0  0  0  0  0  0  0
   27.1790   32.3740   20.6900 C   0  0  2  0  0  0  0  0  0  0  0  0
   28.2020   31.4370   20.1320 C   0  0  1  0  0  0  0  0  0  0  0  0
   28.3150   30.1020   20.8140 C   0  0  2  0  0  0  0  0  0  0  0  0
   30.5180   29.3100   20.7890 C   0  0  2  0  0  0  0  0  0  0  0  0
   30.1420   27.8520   20.9530 C   0  0  0  0  0  0  0  0  0  0  0  0
   29.5820   30.0830   21.3990 O   0  0  0  0  0  0  0  0  0  0  0  0
   28.7280   27.6660   20.5400 C   0  0  1  0  0  0  0  0  0  0  0  0
   28.1060   28.9210   19.9060 C   0  0  1  0  0  0  0  0  0  0  0  0
   30.7430   29.5250   19.4560 O   0  0  0  0  0  0  0  0  0  0  0  0
   29.9190   29.4660   18.9240 H   0  0  0  0  0  0  0  0  0  0  0  0
   31.8010   29.4890   21.5360 C   0  0  0  0  0  0  0  0  0  0  0  0
   31.7840   30.0330   22.6640 O   0  0  0  0  0  0  0  0  0  0  0  0
   33.0250   29.0760   21.0300 O   0  0  0  0  0  0  0  0  0  0  0  0
   33.0880   28.2350   20.4390 H   0  0  0  0  0  0  0  0  0  0  0  0
   28.5320   26.6230   19.6490 O   0  0  0  0  0  0  0  0  0  0  0  0
   28.9590   26.7670   18.7750 H   0  0  0  0  0  0  0  0  0  0  0  0
   26.6970   28.6090   19.8260 N   0  0  0  0  0  0  0  0  0  0  0  0
   25.9040   28.7340   18.6560 C   0  0  0  0  0  0  0  0  0  0  0  0
   26.2290   28.2630   20.6890 H   0  0  0  0  0  0  0  0  0  0  0  0
   24.4450   28.3890   18.6530 C   0  0  0  0  0  0  0  0  0  0  0  0
   26.4690   29.1480   17.6120 O   0  0  0  0  0  0  0  0  0  0  0  0
   28.1540   31.2820   18.7520 O   0  0  0  0  0  0  0  0  0  0  0  0
   27.2770   31.0760   18.3900 H   0  0  0  0  0  0  0  0  0  0  0  0
   27.2830   32.3050   22.0770 O   0  0  0  0  0  0  0  0  0  0  0  0
   28.1980   32.1620   22.3890 H   0  0  0  0  0  0  0  0  0  0  0  0
   25.5300   32.0740   18.8890 N   0  0  0  0  0  0  0  0  0  0  0  0
   25.2380   33.2390   18.1580 C   0  0  0  0  0  0  0  0  0  0  0  0
   25.5520   31.1550   18.3380 H   0  0  0  0  0  0  0  0  0  0  0  0
   25.1960   34.3490   18.6780 O   0  0  0  0  0  0  0  0  0  0  0  0
   24.9770   33.1840   16.7770 O   0  0  0  0  0  0  0  0  0  0  0  0
   25.8160   33.7460   15.8140 C   0  0  0  0  0  0  0  0  0  0  0  0
   27.1920   33.1910   15.8230 C   0  0  0  0  0  0  0  0  0  0  0  0
   28.3960   33.8460   15.8950 C   0  0  0  0  0  0  0  0  0  0  0  0
   27.4560   31.8850   15.7580 N   0  0  0  0  0  0  0  0  0  0  0  0
   29.3460   32.9170   15.8700 N   0  0  0  0  0  0  0  0  0  0  0  0
   28.7610   31.7400   15.7880 N   0  0  0  0  0  0  0  0  0  0  0  0
   30.7850   33.1240   15.9250 C   0  0  0  0  0  0  0  0  0  0  0  0
   31.2310   33.5180   17.2730 C   0  0  0  0  0  0  0  0  0  0  0  0
   31.2370   34.1780   15.0300 C   0  0  0  0  0  0  0  0  0  0  0  0
   31.0640   32.8680   18.5080 C   0  0  0  0  0  0  0  0  0  0  0  0
   31.8890   34.7090   17.1620 C   0  0  0  0  0  0  0  0  0  0  0  0
   31.8970   35.1280   15.7620 C   0  0  0  0  0  0  0  0  0  0  0  0
   31.1210   34.3740   13.6380 C   0  0  0  0  0  0  0  0  0  0  0  0
   31.5860   33.4640   19.6290 C   0  0  0  0  0  0  0  0  0  0  0  0
   32.4050   35.2830   18.3240 C   0  0  0  0  0  0  0  0  0  0  0  0
   32.4590   36.2780   15.1960 C   0  0  0  0  0  0  0  0  0  0  0  0
   31.6630   35.4930   13.0620 C   0  0  0  0  0  0  0  0  0  0  0  0
   32.2570   34.6680   19.5470 C   0  0  0  0  0  0  0  0  0  0  0  0
   32.3230   36.4330   13.8350 C   0  0  0  0  0  0  0  0  0  0  0  0
   29.8670   25.5550   16.9770 C   0  0  0  0  0  0  0  0  0  0  0  0
   28.3450   25.7220   17.0260 C   0  0  0  0  0  0  0  0  0  0  0  0
   27.6020   24.3990   16.9230 C   0  0  0  0  0  0  0  0  0  0  0  0
   26.1590   24.5270   17.3250 C   0  0  0  0  0  0  0  0  0  0  0  0
   25.9640   23.9410   18.7190 C   0  0  0  0  0  0  0  0  0  0  0  0
   25.5180   24.9900   19.6660 N   0  0  0  0  0  0  0  0  0  0  0  0
  2  1  1  1  0  0  0
  2 25  1  0  0  0  0
  3 23  1  6  0  0  0
  3  2  1  0  0  0  0
  4  3  1  6  0  0  0
  4  7  1  0  0  0  0
  5 10  1  6  0  0  0
  5  6  1  0  0  0  0
  5  7  1  0  0  0  0
  5 12  1  0  0  0  0
  8 16  1  6  0  0  0
  8  6  1  0  0  0  0
  9 18  1  1  0  0  0
  9  8  1  0  0  0  0
  9  4  1  0  0  0  0
 11 10  1  0  0  0  0
 12 13  2  0  0  0  0
 14 12  1  0  0  0  0
 15 14  1  0  0  0  0
 17 16  1  0  0  0  0
 18 20  1  0  0  0  0
 19 18  1  0  0  0  0
 21 19  1  0  0  0  0
 22 19  2  0  0  0  0
 24 23  1  0  0  0  0
 25 26  1  0  0  0  0
 27  1  1  0  0  0  0
 28 30  2  0  0  0  0
 28 27  1  0  0  0  0
 29 27  1  0  0  0  0
 31 28  1  0  0  0  0
 32 33  1  0  0  0  0
 32 31  1  0  0  0  0
 33 34  2  0  0  0  0
 35 37  2  0  0  0  0
 35 33  1  0  0  0  0
 36 34  1  0  0  0  0
 36 38  1  0  0  0  0
 37 36  1  0  0  0  0
 38 39  1  0  0  0  0
 39 41  1  0  0  0  0
 40 43  2  0  0  0  0
 40 38  1  0  0  0  0
 41 45  2  0  0  0  0
 42 39  2  0  0  0  0
 42 46  1  0  0  0  0
 43 42  1  0  0  0  0
 44 40  1  0  0  0  0
 46 49  2  0  0  0  0
 47 43  1  0  0  0  0
 48 44  2  0  0  0  0
 48 50  1  0  0  0  0
 49 45  1  0  0  0  0
 50 47  2  0  0  0  0
 51 52  1  0  0  0  0
 53 52  1  0  0  0  0
 53 54  1  0  0  0  0
 54 55  1  0  0  0  0
 55 56  1  0  0  0  0
M  END
>  <REMARK>
 VINA RESULT:    -6.596      3.408      6.546
 INTER + INTRA:         -15.994
 INTER:                  -8.671
 INTRA:                  -7.323
 UNBOUND:                -4.578
 SMILES CC(=O)N[C@@H]1[C@@H](O)C[C@](O)(C(=O)O)O[C@H]1C(O)[C@H](O)CNC(=O)OCc1cn(C2c3ccccc3-c3ccccc32)nn1
 SMILES IDX 20 1 18 2 16 3 15 4 9 5 8 6 14 7 6 8 5 9 10 10 11 12 12 13
 SMILES IDX 13 14 7 16 4 18 2 19 1 21 3 22 17 23 19 25 21 27 22 28 23 30
 SMILES IDX 24 31 25 32 26 33 27 34 43 35 28 36 42 37 29 38 30 39 41 40
 SMILES IDX 31 41 35 42 36 43 40 44 32 45 34 46 37 47 39 48 33 49 38 50
 H PARENT 10 11 13 15 7 17 4 20 17 24 19 26 21 29
 Flexibility Score: inf
  4 active torsions:
  status: ('A' for Active; 'I' for Inactive)
    1  A    between atoms: CA   and  CB  
    2  A    between atoms: CB   and  CG  
    3  A    between atoms: CG   and  CD  
    4  A    between atoms: CD   and  CE  

>  <TORSDO>
F 15

>  <BEGIN_>
RES LYS A 131

$$$$
ligand_25_pose_8_2HRL.pdbqt
 OpenBabel07062320523D

  6  5  0  0  0  0  0  0  0  0999 V2000
   33.1930   34.6630    9.2900 C   0  0  0  0  0  0  0  0  0  0  0  0
   32.0600   35.3600   10.0340 C   0  0  0  0  0  0  0  0  0  0  0  0
   30.6900   34.8690    9.6420 C   0  0  0  0  0  0  0  0  0  0  0  0
   30.6380   34.5560    8.1550 C   0  0  0  0  0  0  0  0  0  0  0  0
   29.3280   35.0330    7.5560 C   0  0  0  0  0  0  0  0  0  0  0  0
   28.1690   34.5950    8.3820 N   0  0  0  0  0  0  0  0  0  0  0  0
  1  2  1  0  0  0  0
  3  2  1  0  0  0  0
  4  3  1  0  0  0  0
  5  4  1  0  0  0  0
  5  6  1  0  0  0  0
M  END
>  <EGIN_R>
ES LYS A 135

>  <REMARK>
  4 active torsions:
  status: ('A' for Active; 'I' for Inactive)
    5  A    between atoms: CA   and  CB  
    6  A    between atoms: CB   and  CG  
    7  A    between atoms: CG   and  CD  
    8  A    between atoms: CD   and  CE  

$$$$
