ligand_33_pose_11_2HRL.pdbqt
 OpenBabel07062320523D

 52 52  0  0  1  0  0  0  0  0999 V2000
   26.8960   30.6760   18.3750 C   0  0  0  0  0  0  0  0  0  0  0  0
   27.2410   30.4980   17.0060 O   0  0  0  0  0  0  0  0  0  0  0  0
   28.5300   30.8720   16.6070 C   0  0  0  0  0  0  0  0  0  0  0  0
   29.4360   31.3260   17.6070 N   0  0  0  0  0  0  0  0  0  0  0  0
   29.0910   31.3530   18.6030 H   0  0  0  0  0  0  0  0  0  0  0  0
   28.8200   30.7910   15.3890 O   0  0  0  0  0  0  0  0  0  0  0  0
   30.7550   31.7180   17.2250 C   0  0  0  0  0  0  0  0  0  0  0  0
   30.8980   33.1750   16.8560 C   0  0  2  0  0  0  0  0  0  0  0  0
   31.4050   33.2540   15.4290 C   0  0  2  0  0  0  0  0  0  0  0  0
   30.4520   33.8760   14.4630 C   0  0  2  0  0  0  0  0  0  0  0  0
   31.6760   35.8680   14.3200 C   0  0  2  0  0  0  0  0  0  0  0  0
   30.6550   36.4640   15.3030 C   0  0  0  0  0  0  0  0  0  0  0  0
   31.1440   34.7820   13.6860 O   0  0  0  0  0  0  0  0  0  0  0  0
   29.3090   36.0190   14.7890 C   0  0  1  0  0  0  0  0  0  0  0  0
   29.2270   34.5000   15.0280 C   0  0  1  0  0  0  0  0  0  0  0  0
   32.8860   35.6420   14.9710 O   0  0  0  0  0  0  0  0  0  0  0  0
   33.2900   34.7570   14.7000 H   0  0  0  0  0  0  0  0  0  0  0  0
   31.9090   36.9160   13.2930 C   0  0  0  0  0  0  0  0  0  0  0  0
   32.4040   36.6000   12.1700 O   0  0  0  0  0  0  0  0  0  0  0  0
   31.5760   38.2250   13.5870 O   0  0  0  0  0  0  0  0  0  0  0  0
   30.9620   38.6960   12.9080 H   0  0  0  0  0  0  0  0  0  0  0  0
   28.2590   36.6670   15.4400 O   0  0  0  0  0  0  0  0  0  0  0  0
   28.4920   37.6320   15.4650 H   0  0  0  0  0  0  0  0  0  0  0  0
   28.0120   33.9870   14.4110 N   0  0  0  0  0  0  0  0  0  0  0  0
   26.8310   33.7340   15.1360 C   0  0  0  0  0  0  0  0  0  0  0  0
   28.0210   33.8000   13.3680 H   0  0  0  0  0  0  0  0  0  0  0  0
   25.5890   33.2000   14.4680 C   0  0  0  0  0  0  0  0  0  0  0  0
   26.8270   33.9650   16.3840 O   0  0  0  0  0  0  0  0  0  0  0  0
   31.5010   31.8890   15.0310 O   0  0  0  0  0  0  0  0  0  0  0  0
   30.8400   31.7800   14.3080 H   0  0  0  0  0  0  0  0  0  0  0  0
   31.7390   33.7700   17.7710 O   0  0  0  0  0  0  0  0  0  0  0  0
   32.6210   33.9750   17.3720 H   0  0  0  0  0  0  0  0  0  0  0  0
   26.9800   29.3350   18.9980 C   0  0  0  0  0  0  0  0  0  0  0  0
   26.5820   29.0650   20.2910 C   0  0  0  0  0  0  0  0  0  0  0  0
   27.4240   28.1960   18.4680 N   0  0  0  0  0  0  0  0  0  0  0  0
   26.8160   27.7480   20.4740 N   0  0  0  0  0  0  0  0  0  0  0  0
   27.3220   27.2340   19.3740 N   0  0  0  0  0  0  0  0  0  0  0  0
   26.5200   27.0830   21.7450 C   0  0  0  0  0  0  0  0  0  0  0  0
   27.3620   27.7350   22.8100 C   0  0  0  0  0  0  0  0  0  0  0  0
   28.5750   26.9120   23.1880 C   0  0  0  0  0  0  0  0  0  0  0  0
   29.8420   27.6910   23.1250 C   0  0  0  0  0  0  0  0  0  0  0  0
   29.8010   28.8500   22.1670 C   0  0  0  0  0  0  0  0  0  0  0  0
   30.4550   28.5820   20.8780 C   0  0  0  0  0  0  0  0  0  0  0  0
   31.3270   29.3430   20.4270 O   0  0  0  0  0  0  0  0  0  0  0  0
   30.1080   27.4510   20.1190 O   0  0  0  0  0  0  0  0  0  0  0  0
   30.4520   27.3500   19.1590 H   0  0  0  0  0  0  0  0  0  0  0  0
   29.8670   25.5550   16.9770 C   0  0  0  0  0  0  0  0  0  0  0  0
   28.3450   25.7220   17.0260 C   0  0  0  0  0  0  0  0  0  0  0  0
   27.5990   24.4760   16.5750 C   0  0  0  0  0  0  0  0  0  0  0  0
   27.0110   23.7180   17.7330 C   0  0  0  0  0  0  0  0  0  0  0  0
   25.6640   24.3270   18.1080 C   0  0  0  0  0  0  0  0  0  0  0  0
   24.7560   24.3400   16.9370 N   0  0  0  0  0  0  0  0  0  0  0  0
  1 33  1  0  0  0  0
  2  1  1  0  0  0  0
  3  2  1  0  0  0  0
  3  4  1  0  0  0  0
  4  5  1  0  0  0  0
  6  3  2  0  0  0  0
  7  4  1  0  0  0  0
  8  7  1  1  0  0  0
  8 31  1  0  0  0  0
  9 29  1  6  0  0  0
  9  8  1  0  0  0  0
 10 15  1  0  0  0  0
 10  9  1  1  0  0  0
 11 18  1  6  0  0  0
 11 16  1  0  0  0  0
 11 12  1  0  0  0  0
 13 11  1  0  0  0  0
 13 10  1  0  0  0  0
 14 15  1  0  0  0  0
 14 12  1  0  0  0  0
 14 22  1  1  0  0  0
 15 24  1  6  0  0  0
 17 16  1  0  0  0  0
 18 20  1  0  0  0  0
 19 18  2  0  0  0  0
 21 20  1  0  0  0  0
 22 23  1  0  0  0  0
 24 25  1  0  0  0  0
 25 28  2  0  0  0  0
 26 24  1  0  0  0  0
 27 25  1  0  0  0  0
 30 29  1  0  0  0  0
 32 31  1  0  0  0  0
 33 34  2  0  0  0  0
 34 36  1  0  0  0  0
 35 33  1  0  0  0  0
 35 37  2  0  0  0  0
 36 38  1  0  0  0  0
 37 36  1  0  0  0  0
 38 39  1  0  0  0  0
 39 40  1  0  0  0  0
 41 40  1  0  0  0  0
 42 41  1  0  0  0  0
 43 42  1  0  0  0  0
 44 43  2  0  0  0  0
 45 43  1  0  0  0  0
 46 45  1  0  0  0  0
 47 48  1  0  0  0  0
 49 48  1  0  0  0  0
 49 50  1  0  0  0  0
 50 51  1  0  0  0  0
 52 51  1  0  0  0  0
M  END
>  <REMARK>
 VINA RESULT:    -4.350      6.742     12.164
 INTER + INTRA:         -14.845
 INTER:                  -8.286
 INTRA:                  -6.559
 UNBOUND:                -5.918
 SMILES CC(=O)N[C@@H]1[C@@H](O)C[C@](O)(C(=O)O)O[C@H]1C(O)[C@H](O)CNC(=O)OCc1cn(CCCCCC(=O)O)nn1
 SMILES IDX 25 1 24 2 22 3 21 4 23 6 20 7 18 8 16 9 15 10 9 11 8 12
 SMILES IDX 14 13 6 14 5 15 10 16 11 18 12 19 13 20 7 22 4 24 2 25 1 27
 SMILES IDX 3 28 17 29 19 31 26 33 27 34 38 35 28 36 37 37 29 38 30 39
 SMILES IDX 31 40 32 41 33 42 34 43 35 44 36 45
 H PARENT 21 5 10 17 13 21 7 23 4 26 17 30 19 32 36 46
 Flexibility Score: inf
  4 active torsions:
  status: ('A' for Active; 'I' for Inactive)
    1  A    between atoms: CA   and  CB  
    2  A    between atoms: CB   and  CG  
    3  A    between atoms: CG   and  CD  
    4  A    between atoms: CD   and  CE  

>  <TORSDO>
F 21

>  <BEGIN_>
RES LYS A 131

$$$$
ligand_33_pose_11_2HRL.pdbqt
 OpenBabel07062320523D

  6  5  0  0  0  0  0  0  0  0999 V2000
   33.1930   34.6630    9.2900 C   0  0  0  0  0  0  0  0  0  0  0  0
   32.0600   35.3600   10.0340 C   0  0  0  0  0  0  0  0  0  0  0  0
   30.7100   34.7330    9.8000 C   0  0  0  0  0  0  0  0  0  0  0  0
   30.4380   34.5830    8.3110 C   0  0  0  0  0  0  0  0  0  0  0  0
   29.0030   34.9560    7.9920 C   0  0  0  0  0  0  0  0  0  0  0  0
   28.8880   35.5180    6.6180 N   0  0  0  0  0  0  0  0  0  0  0  0
  1  2  1  0  0  0  0
  3  2  1  0  0  0  0
  4  3  1  0  0  0  0
  5  4  1  0  0  0  0
  6  5  1  0  0  0  0
M  END
>  <EGIN_R>
ES LYS A 135

>  <REMARK>
  4 active torsions:
  status: ('A' for Active; 'I' for Inactive)
    5  A    between atoms: CA   and  CB  
    6  A    between atoms: CB   and  CG  
    7  A    between atoms: CG   and  CD  
    8  A    between atoms: CD   and  CE  

$$$$
