ligand_5_pose_16_2HRL.pdbqt
 OpenBabel07062320523D

 51 52  0  0  1  0  0  0  0  0999 V2000
   27.9550   38.1330    9.2620 N   0  0  0  0  0  0  0  0  0  0  0  0
   29.3610   38.2470    9.3020 C   0  0  0  0  0  0  0  0  0  0  0  0
   30.0370   38.4830    8.2890 O   0  0  0  0  0  0  0  0  0  0  0  0
   27.5040   37.9000   10.2050 H   0  0  0  0  0  0  0  0  0  0  0  0
   27.0850   38.2840    8.1660 C   0  0  0  0  0  0  0  0  0  0  0  0
   25.7750   37.6380    8.1740 C   0  0  2  0  0  0  0  0  0  0  0  0
   25.3790   36.8080    9.2900 C   0  0  1  0  0  0  0  0  0  0  0  0
   23.9010   36.3610    9.3200 C   0  0  2  0  0  0  0  0  0  0  0  0
   21.9870   37.4850    8.5230 C   0  0  2  0  0  0  0  0  0  0  0  0
   21.6370   37.9510    9.9460 C   0  0  0  0  0  0  0  0  0  0  0  0
   23.3090   37.2950    8.4880 O   0  0  0  0  0  0  0  0  0  0  0  0
   21.9210   36.8020   10.8320 C   0  0  1  0  0  0  0  0  0  0  0  0
   23.3330   36.2140   10.6540 C   0  0  1  0  0  0  0  0  0  0  0  0
   21.7490   38.6490    7.7430 O   0  0  0  0  0  0  0  0  0  0  0  0
   22.3510   39.3850    8.0120 H   0  0  0  0  0  0  0  0  0  0  0  0
   21.1230   36.4340    8.0230 C   0  0  0  0  0  0  0  0  0  0  0  0
   19.9630   36.7030    7.6210 O   0  0  0  0  0  0  0  0  0  0  0  0
   21.4570   35.0820    7.9340 O   0  0  0  0  0  0  0  0  0  0  0  0
   21.4730   34.4670    8.7520 H   0  0  0  0  0  0  0  0  0  0  0  0
   21.7900   37.0960   12.1990 O   0  0  0  0  0  0  0  0  0  0  0  0
   21.3480   38.0020   12.2220 H   0  0  0  0  0  0  0  0  0  0  0  0
   23.1690   34.8880   11.1660 N   0  0  0  0  0  0  0  0  0  0  0  0
   23.5960   34.3900   12.3970 C   0  0  0  0  0  0  0  0  0  0  0  0
   22.6580   34.2180   10.5170 H   0  0  0  0  0  0  0  0  0  0  0  0
   23.3540   32.9680   12.7940 C   0  0  0  0  0  0  0  0  0  0  0  0
   24.1860   35.1720   13.1500 O   0  0  0  0  0  0  0  0  0  0  0  0
   26.2220   35.7060    9.3950 O   0  0  0  0  0  0  0  0  0  0  0  0
   27.0720   35.9240    9.8540 H   0  0  0  0  0  0  0  0  0  0  0  0
   25.5360   37.0280    6.9100 O   0  0  0  0  0  0  0  0  0  0  0  0
   24.5950   36.7160    6.8590 H   0  0  0  0  0  0  0  0  0  0  0  0
   30.0690   38.0960   10.5120 O   0  0  0  0  0  0  0  0  0  0  0  0
   29.3860   38.2120   11.7360 C   0  0  0  0  0  0  0  0  0  0  0  0
   28.9780   36.8780   12.2050 C   0  0  0  0  0  0  0  0  0  0  0  0
   29.6570   36.1690   13.2030 C   0  0  0  0  0  0  0  0  0  0  0  0
   27.9710   36.0870   11.8460 N   0  0  0  0  0  0  0  0  0  0  0  0
   29.0260   34.9950   13.3920 N   0  0  0  0  0  0  0  0  0  0  0  0
   28.0010   34.9840   12.5430 N   0  0  0  0  0  0  0  0  0  0  0  0
   29.3750   33.9680   14.3090 C   0  0  0  0  0  0  0  0  0  0  0  0
   28.4470   33.2940   15.0690 C   0  0  0  0  0  0  0  0  0  0  0  0
   30.7100   33.5920   14.4750 C   0  0  0  0  0  0  0  0  0  0  0  0
   28.8080   32.2900   15.9600 C   0  0  0  0  0  0  0  0  0  0  0  0
   31.0660   32.5940   15.3610 C   0  0  0  0  0  0  0  0  0  0  0  0
   30.1260   31.9300   16.1130 C   0  0  0  0  0  0  0  0  0  0  0  0
   30.4740   30.9460   16.9870 O   0  0  0  0  0  0  0  0  0  0  0  0
   30.2050   31.0980   18.3640 C   0  0  0  0  0  0  0  0  0  0  0  0
   29.8670   25.5550   16.9770 C   0  0  0  0  0  0  0  0  0  0  0  0
   28.3450   25.7220   17.0260 C   0  0  0  0  0  0  0  0  0  0  0  0
   27.6010   24.4010   16.9030 C   0  0  0  0  0  0  0  0  0  0  0  0
   26.1490   24.5320   17.2690 C   0  0  0  0  0  0  0  0  0  0  0  0
   26.0250   24.8480   18.7560 C   0  0  0  0  0  0  0  0  0  0  0  0
   24.6020   25.0170   19.1330 N   0  0  0  0  0  0  0  0  0  0  0  0
  1  2  1  0  0  0  0
  1  4  1  0  0  0  0
  2 31  1  0  0  0  0
  3  2  2  0  0  0  0
  5  1  1  0  0  0  0
  6  5  1  1  0  0  0
  6  7  1  0  0  0  0
  7 27  1  6  0  0  0
  8  7  1  1  0  0  0
  8 13  1  0  0  0  0
  9 14  1  6  0  0  0
  9 10  1  0  0  0  0
 10 12  1  0  0  0  0
 11  9  1  0  0  0  0
 11  8  1  0  0  0  0
 12 20  1  1  0  0  0
 13 12  1  0  0  0  0
 13 22  1  6  0  0  0
 14 15  1  0  0  0  0
 16  9  1  0  0  0  0
 17 16  2  0  0  0  0
 18 16  1  0  0  0  0
 18 19  1  0  0  0  0
 20 21  1  0  0  0  0
 22 23  1  0  0  0  0
 23 25  1  0  0  0  0
 23 26  2  0  0  0  0
 24 22  1  0  0  0  0
 27 28  1  0  0  0  0
 29  6  1  0  0  0  0
 30 29  1  0  0  0  0
 31 32  1  0  0  0  0
 32 33  1  0  0  0  0
 33 34  2  0  0  0  0
 34 36  1  0  0  0  0
 35 33  1  0  0  0  0
 35 37  2  0  0  0  0
 36 38  1  0  0  0  0
 37 36  1  0  0  0  0
 38 40  2  0  0  0  0
 38 39  1  0  0  0  0
 39 41  2  0  0  0  0
 40 42  1  0  0  0  0
 41 43  1  0  0  0  0
 42 43  2  0  0  0  0
 43 44  1  0  0  0  0
 44 45  1  0  0  0  0
 46 47  1  0  0  0  0
 48 47  1  0  0  0  0
 48 49  1  0  0  0  0
 49 50  1  0  0  0  0
 50 51  1  0  0  0  0
M  END
>  <REMARK>
 VINA RESULT:    -4.837      6.864     13.931
 INTER + INTRA:         -13.881
 INTER:                  -8.660
 INTRA:                  -5.220
 UNBOUND:                -5.226
 SMILES COc1ccc(-n2cc(COC(=O)NC[C@@H](O)C(O)[C@@H]3O[C@@](O)(C(=O)O)C[C@H](O)[C@H]3NC(C)=O)nn2)cc1
 SMILES IDX 14 1 12 2 13 3 15 5 16 6 18 7 20 8 22 9 27 10 21 11 28 12
 SMILES IDX 30 13 23 14 24 16 25 17 26 18 29 20 31 22 32 23 33 25 34 26
 SMILES IDX 19 27 17 29 11 31 10 32 9 33 8 34 35 35 7 36 36 37 6 38 5 39
 SMILES IDX 37 40 4 41 38 42 3 43 2 44 1 45
 H PARENT 14 4 23 15 26 19 29 21 31 24 19 28 17 30
 Flexibility Score: inf
  4 active torsions:
  status: ('A' for Active; 'I' for Inactive)
    1  A    between atoms: CA   and  CB  
    2  A    between atoms: CB   and  CG  
    3  A    between atoms: CG   and  CD  
    4  A    between atoms: CD   and  CE  

>  <TORSDO>
F 16

>  <BEGIN_>
RES LYS A 131

$$$$
ligand_5_pose_16_2HRL.pdbqt
 OpenBabel07062320523D

  6  5  0  0  0  0  0  0  0  0999 V2000
   33.1930   34.6630    9.2900 C   0  0  0  0  0  0  0  0  0  0  0  0
   32.0600   35.3600   10.0340 C   0  0  0  0  0  0  0  0  0  0  0  0
   30.7090   34.7360    9.7960 C   0  0  0  0  0  0  0  0  0  0  0  0
   30.4760   34.5120    8.3100 C   0  0  0  0  0  0  0  0  0  0  0  0
   29.0300   34.7930    7.9490 C   0  0  0  0  0  0  0  0  0  0  0  0
   28.9340   35.5450    6.6670 N   0  0  0  0  0  0  0  0  0  0  0  0
  1  2  1  0  0  0  0
  3  2  1  0  0  0  0
  4  3  1  0  0  0  0
  5  4  1  0  0  0  0
  6  5  1  0  0  0  0
M  END
>  <EGIN_R>
ES LYS A 135

>  <REMARK>
  4 active torsions:
  status: ('A' for Active; 'I' for Inactive)
    5  A    between atoms: CA   and  CB  
    6  A    between atoms: CB   and  CG  
    7  A    between atoms: CG   and  CD  
    8  A    between atoms: CD   and  CE  

$$$$
