ligand_41_pose_4_2HRL.pdbqt
 OpenBabel07062320523D

 52 53  0  0  1  0  0  0  0  0999 V2000
   27.7770   28.5360   17.8280 N   0  0  0  0  0  0  0  0  0  0  0  0
   26.9090   29.2720   16.9480 C   0  0  0  0  0  0  0  0  0  0  0  0
   25.6700   29.0960   17.0360 O   0  0  0  0  0  0  0  0  0  0  0  0
   28.7960   28.7150   17.7300 H   0  0  0  0  0  0  0  0  0  0  0  0
   27.2210   27.6110   18.7710 C   0  0  0  0  0  0  0  0  0  0  0  0
   27.3830   27.9540   20.2160 C   0  0  2  0  0  0  0  0  0  0  0  0
   28.8010   28.2010   20.6370 C   0  0  2  0  0  0  0  0  0  0  0  0
   29.1740   29.6550   20.7570 C   0  0  2  0  0  0  0  0  0  0  0  0
   28.4600   31.8050   20.3100 C   0  0  2  0  0  0  0  0  0  0  0  0
   29.7130   32.1720   19.5390 C   0  0  0  0  0  0  0  0  0  0  0  0
   28.2360   30.4780   20.2370 O   0  0  0  0  0  0  0  0  0  0  0  0
   30.4800   30.9660   19.1080 C   0  0  1  0  0  0  0  0  0  0  0  0
   30.5300   29.8920   20.1290 C   0  0  1  0  0  0  0  0  0  0  0  0
   27.4180   32.5000   19.6070 O   0  0  0  0  0  0  0  0  0  0  0  0
   26.6240   31.8850   19.5340 H   0  0  0  0  0  0  0  0  0  0  0  0
   28.5020   32.4300   21.6370 C   0  0  0  0  0  0  0  0  0  0  0  0
   29.4450   33.1520   22.0310 O   0  0  0  0  0  0  0  0  0  0  0  0
   27.4630   32.2500   22.5530 O   0  0  0  0  0  0  0  0  0  0  0  0
   27.0220   33.0490   22.9930 H   0  0  0  0  0  0  0  0  0  0  0  0
   29.8710   30.4540   17.9500 O   0  0  0  0  0  0  0  0  0  0  0  0
   29.2850   29.6820   18.1390 H   0  0  0  0  0  0  0  0  0  0  0  0
   31.5820   30.1030   21.0730 N   0  0  0  0  0  0  0  0  0  0  0  0
   32.4090   29.0520   21.5590 C   0  0  0  0  0  0  0  0  0  0  0  0
   31.7660   31.0600   21.4250 H   0  0  0  0  0  0  0  0  0  0  0  0
   33.4910   29.3250   22.5400 C   0  0  0  0  0  0  0  0  0  0  0  0
   32.2520   27.8650   21.1750 O   0  0  0  0  0  0  0  0  0  0  0  0
   29.7270   27.4050   20.0130 O   0  0  0  0  0  0  0  0  0  0  0  0
   29.4080   27.2650   19.0720 H   0  0  0  0  0  0  0  0  0  0  0  0
   26.9840   26.7530   20.9350 O   0  0  0  0  0  0  0  0  0  0  0  0
   27.0090   26.0540   20.2290 H   0  0  0  0  0  0  0  0  0  0  0  0
   27.3750   30.1610   16.0100 O   0  0  0  0  0  0  0  0  0  0  0  0
   26.7420   31.4190   15.7880 C   0  0  0  0  0  0  0  0  0  0  0  0
   27.6440   32.5480   16.1270 C   0  0  0  0  0  0  0  0  0  0  0  0
   28.9240   32.7710   15.6950 C   0  0  0  0  0  0  0  0  0  0  0  0
   27.3530   33.5910   16.9520 N   0  0  0  0  0  0  0  0  0  0  0  0
   29.3690   33.9370   16.2680 N   0  0  0  0  0  0  0  0  0  0  0  0
   28.3840   34.3930   17.0170 N   0  0  0  0  0  0  0  0  0  0  0  0
   30.6440   34.5430   16.1510 C   0  0  0  0  0  0  0  0  0  0  0  0
   31.1070   35.1720   15.0470 C   0  0  0  0  0  0  0  0  0  0  0  0
   31.4350   34.4560   17.3180 C   0  0  0  0  0  0  0  0  0  0  0  0
   32.3860   35.7380   15.0780 C   0  0  0  0  0  0  0  0  0  0  0  0
   32.6880   35.0150   17.3350 C   0  0  0  0  0  0  0  0  0  0  0  0
   33.1420   35.6490   16.2080 C   0  0  0  0  0  0  0  0  0  0  0  0
   30.3660   35.2980   13.8110 C   0  0  1  0  0  0  0  0  0  0  0  0
   30.4370   34.2930   12.9930 O   0  0  0  0  0  0  0  0  0  0  0  0
   29.5420   36.4210   13.3660 C   0  0  0  0  0  0  0  0  0  0  0  0
   29.8670   25.5550   16.9770 C   0  0  0  0  0  0  0  0  0  0  0  0
   28.3450   25.7220   17.0260 C   0  0  0  0  0  0  0  0  0  0  0  0
   27.6010   24.4060   16.8610 C   0  0  0  0  0  0  0  0  0  0  0  0
   26.1540   24.5200   17.2540 C   0  0  0  0  0  0  0  0  0  0  0  0
   25.5990   23.1340   17.5640 C   0  0  0  0  0  0  0  0  0  0  0  0
   24.1750   23.0430   17.1650 N   0  0  0  0  0  0  0  0  0  0  0  0
  1  5  1  0  0  0  0
  2  3  2  0  0  0  0
  2  1  1  0  0  0  0
  4  1  1  0  0  0  0
  6  5  1  6  0  0  0
  6  7  1  0  0  0  0
  6 29  1  0  0  0  0
  7 27  1  6  0  0  0
  8  7  1  6  0  0  0
  9 14  1  6  0  0  0
  9 16  1  0  0  0  0
 10  9  1  0  0  0  0
 11  9  1  0  0  0  0
 11  8  1  0  0  0  0
 12 20  1  6  0  0  0
 12 10  1  0  0  0  0
 12 13  1  0  0  0  0
 13  8  1  0  0  0  0
 13 22  1  1  0  0  0
 15 14  1  0  0  0  0
 16 17  2  0  0  0  0
 16 18  1  0  0  0  0
 18 19  1  0  0  0  0
 20 21  1  0  0  0  0
 22 24  1  0  0  0  0
 22 23  1  0  0  0  0
 23 25  1  0  0  0  0
 26 23  2  0  0  0  0
 28 27  1  0  0  0  0
 30 29  1  0  0  0  0
 31  2  1  0  0  0  0
 32 31  1  0  0  0  0
 32 33  1  0  0  0  0
 33 35  1  0  0  0  0
 34 33  2  0  0  0  0
 34 36  1  0  0  0  0
 35 37  2  0  0  0  0
 36 37  1  0  0  0  0
 38 36  1  0  0  0  0
 38 40  2  0  0  0  0
 39 41  2  0  0  0  0
 39 38  1  0  0  0  0
 40 42  1  0  0  0  0
 41 43  1  0  0  0  0
 43 42  2  0  0  0  0
 44 46  1  1  0  0  0
 44 39  1  0  0  0  0
 45 44  1  0  0  0  0
 47 48  1  0  0  0  0
 49 48  1  0  0  0  0
 49 50  1  0  0  0  0
 50 51  1  0  0  0  0
 52 51  1  0  0  0  0
M  END
>  <REMARK>
 VINA RESULT:    -4.608      3.039      7.351
 INTER + INTRA:         -15.049
 INTER:                  -7.955
 INTRA:                  -7.094
 UNBOUND:                -6.804
 SMILES CC(=O)N[C@@H]1[C@@H](O)C[C@](O)(C(=O)O)O[C@H]1C(O)[C@H](O)CNC(=O)OCc1cn(-c2ccccc2C(C)=O)nn1
 SMILES IDX 21 1 22 2 23 3 20 5 18 6 16 7 15 8 9 9 8 10 14 11 6 12 5 13
 SMILES IDX 10 14 11 16 12 17 13 18 7 20 4 22 2 23 1 25 3 26 17 27 19 29
 SMILES IDX 24 31 25 32 26 33 27 34 39 35 28 36 38 37 29 38 34 39 30 40
 SMILES IDX 33 41 31 42 32 43 35 44 37 45 36 46
 H PARENT 21 4 10 15 13 19 7 21 4 24 17 28 19 30
 Flexibility Score: inf
  4 active torsions:
  status: ('A' for Active; 'I' for Inactive)
    1  A    between atoms: CA   and  CB  
    2  A    between atoms: CB   and  CG  
    3  A    between atoms: CG   and  CD  
    4  A    between atoms: CD   and  CE  

>  <TORSDO>
F 16

>  <BEGIN_>
RES LYS A 131

$$$$
ligand_41_pose_4_2HRL.pdbqt
 OpenBabel07062320523D

  6  5  0  0  0  0  0  0  0  0999 V2000
   33.1930   34.6630    9.2900 C   0  0  0  0  0  0  0  0  0  0  0  0
   32.0600   35.3600   10.0340 C   0  0  0  0  0  0  0  0  0  0  0  0
   30.6980   34.7930    9.7250 C   0  0  0  0  0  0  0  0  0  0  0  0
   30.4850   34.6970    8.2220 C   0  0  0  0  0  0  0  0  0  0  0  0
   29.0430   35.0050    7.8680 C   0  0  0  0  0  0  0  0  0  0  0  0
   28.9320   35.5290    6.4790 N   0  0  0  0  0  0  0  0  0  0  0  0
  1  2  1  0  0  0  0
  3  2  1  0  0  0  0
  4  3  1  0  0  0  0
  5  4  1  0  0  0  0
  6  5  1  0  0  0  0
M  END
>  <EGIN_R>
ES LYS A 135

>  <REMARK>
  4 active torsions:
  status: ('A' for Active; 'I' for Inactive)
    5  A    between atoms: CA   and  CB  
    6  A    between atoms: CB   and  CG  
    7  A    between atoms: CG   and  CD  
    8  A    between atoms: CD   and  CE  

$$$$
