ligand_88_pose_7_2HRL.pdbqt
 OpenBabel07062320523D

 54 55  0  0  1  0  0  0  0  0999 V2000
   27.3280   28.5860   18.3540 N   0  0  0  0  0  0  0  0  0  0  0  0
   26.4750   28.9850   17.2860 C   0  0  0  0  0  0  0  0  0  0  0  0
   25.2530   28.7210   17.3550 O   0  0  0  0  0  0  0  0  0  0  0  0
   28.3340   28.8150   18.2720 H   0  0  0  0  0  0  0  0  0  0  0  0
   26.8310   27.8880   19.5080 C   0  0  0  0  0  0  0  0  0  0  0  0
   27.9330   27.6170   20.4930 C   0  0  2  0  0  0  0  0  0  0  0  0
   28.4730   28.8890   21.1090 C   0  0  1  0  0  0  0  0  0  0  0  0
   29.9890   28.9740   20.8540 C   0  0  2  0  0  0  0  0  0  0  0  0
   31.6380   28.9490   22.5330 C   0  0  2  0  0  0  0  0  0  0  0  0
   32.4530   29.8420   21.5850 C   0  0  0  0  0  0  0  0  0  0  0  0
   30.5980   28.3750   21.8830 O   0  0  0  0  0  0  0  0  0  0  0  0
   31.4870   30.9660   21.2450 C   0  0  1  0  0  0  0  0  0  0  0  0
   30.3630   30.3420   20.4690 C   0  0  1  0  0  0  0  0  0  0  0  0
   31.2880   29.7580   23.5960 O   0  0  0  0  0  0  0  0  0  0  0  0
   31.4910   30.7150   23.4540 H   0  0  0  0  0  0  0  0  0  0  0  0
   32.5140   27.8640   23.0410 C   0  0  0  0  0  0  0  0  0  0  0  0
   32.7960   27.8380   24.2640 O   0  0  0  0  0  0  0  0  0  0  0  0
   33.0320   26.8750   22.2090 O   0  0  0  0  0  0  0  0  0  0  0  0
   32.5110   25.9860   22.2050 H   0  0  0  0  0  0  0  0  0  0  0  0
   31.0420   31.6040   22.4010 O   0  0  0  0  0  0  0  0  0  0  0  0
   30.1210   31.8960   22.2420 H   0  0  0  0  0  0  0  0  0  0  0  0
   30.7080   30.4670   19.0530 N   0  0  0  0  0  0  0  0  0  0  0  0
   29.8570   31.0740   18.0970 C   0  0  0  0  0  0  0  0  0  0  0  0
   31.6290   30.1000   18.6840 H   0  0  0  0  0  0  0  0  0  0  0  0
   30.2500   31.1800   16.6590 C   0  0  0  0  0  0  0  0  0  0  0  0
   28.7440   31.5350   18.4610 O   0  0  0  0  0  0  0  0  0  0  0  0
   27.8120   30.0270   20.7190 O   0  0  0  0  0  0  0  0  0  0  0  0
   26.9830   29.8360   20.2320 H   0  0  0  0  0  0  0  0  0  0  0  0
   28.8960   26.8140   19.9240 O   0  0  0  0  0  0  0  0  0  0  0  0
   28.6830   26.5020   19.0240 H   0  0  0  0  0  0  0  0  0  0  0  0
   26.9780   29.6500   16.1950 O   0  0  0  0  0  0  0  0  0  0  0  0
   26.1970   30.5630   15.4460 C   0  0  0  0  0  0  0  0  0  0  0  0
   26.4610   31.9380   15.9470 C   0  0  0  0  0  0  0  0  0  0  0  0
   27.3720   32.8520   15.4320 C   0  0  0  0  0  0  0  0  0  0  0  0
   25.8950   32.5900   16.9790 N   0  0  0  0  0  0  0  0  0  0  0  0
   27.3220   33.9820   16.1520 N   0  0  0  0  0  0  0  0  0  0  0  0
   26.3960   33.7980   17.1080 N   0  0  0  0  0  0  0  0  0  0  0  0
   28.0890   35.1820   15.9670 C   0  0  0  0  0  0  0  0  0  0  0  0
   29.5340   34.9980   16.2580 C   0  0  0  0  0  0  0  0  0  0  0  0
   29.9140   34.7890   17.5690 C   0  0  0  0  0  0  0  0  0  0  0  0
   30.5090   35.0280   15.2890 C   0  0  0  0  0  0  0  0  0  0  0  0
   31.2250   34.6090   17.9510 C   0  0  0  0  0  0  0  0  0  0  0  0
   31.8480   34.8480   15.6500 C   0  0  0  0  0  0  0  0  0  0  0  0
   31.7180   34.3200   19.7640 Br  0  0  0  0  0  0  0  0  0  0  0  0
   32.1990   34.6420   16.9620 C   0  0  0  0  0  0  0  0  0  0  0  0
   33.1430   34.9040   14.2350 Br  0  0  0  0  0  0  0  0  0  0  0  0
   30.1620   35.2350   13.9670 O   0  0  0  0  0  0  0  0  0  0  0  0
   29.3830   34.7230   13.5750 H   0  0  0  0  0  0  0  0  0  0  0  0
   29.8670   25.5550   16.9770 C   0  0  0  0  0  0  0  0  0  0  0  0
   28.3450   25.7220   17.0260 C   0  0  0  0  0  0  0  0  0  0  0  0
   27.6010   24.4010   16.9070 C   0  0  0  0  0  0  0  0  0  0  0  0
   26.5260   24.2600   17.9480 C   0  0  0  0  0  0  0  0  0  0  0  0
   25.1840   24.0200   17.2630 C   0  0  0  0  0  0  0  0  0  0  0  0
   24.7450   22.6180   17.4580 N   0  0  0  0  0  0  0  0  0  0  0  0
  1  5  1  0  0  0  0
  2  3  2  0  0  0  0
  2  1  1  0  0  0  0
  4  1  1  0  0  0  0
  6  5  1  6  0  0  0
  6  7  1  0  0  0  0
  7 27  1  6  0  0  0
  8  7  1  1  0  0  0
  8 11  1  0  0  0  0
  9 16  1  1  0  0  0
  9 14  1  0  0  0  0
 10  9  1  0  0  0  0
 11  9  1  0  0  0  0
 12 10  1  0  0  0  0
 12 20  1  1  0  0  0
 13 22  1  6  0  0  0
 13  8  1  0  0  0  0
 13 12  1  0  0  0  0
 15 14  1  0  0  0  0
 16 17  2  0  0  0  0
 18 16  1  0  0  0  0
 19 18  1  0  0  0  0
 21 20  1  0  0  0  0
 23 26  2  0  0  0  0
 23 22  1  0  0  0  0
 24 22  1  0  0  0  0
 25 23  1  0  0  0  0
 28 27  1  0  0  0  0
 29  6  1  0  0  0  0
 30 29  1  0  0  0  0
 31  2  1  0  0  0  0
 32 33  1  0  0  0  0
 32 31  1  0  0  0  0
 33 35  1  0  0  0  0
 34 33  2  0  0  0  0
 34 36  1  0  0  0  0
 35 37  2  0  0  0  0
 36 37  1  0  0  0  0
 38 36  1  0  0  0  0
 38 39  1  0  0  0  0
 39 40  2  0  0  0  0
 40 42  1  0  0  0  0
 41 43  2  0  0  0  0
 41 39  1  0  0  0  0
 42 44  1  0  0  0  0
 43 45  1  0  0  0  0
 45 42  2  0  0  0  0
 46 43  1  0  0  0  0
 47 41  1  0  0  0  0
 48 47  1  0  0  0  0
 49 50  1  0  0  0  0
 51 50  1  0  0  0  0
 51 52  1  0  0  0  0
 53 54  1  0  0  0  0
 53 52  1  0  0  0  0
M  END
>  <REMARK>
 VINA RESULT:    -5.165      1.929      2.879
 INTER + INTRA:         -15.186
 INTER:                  -8.304
 INTRA:                  -6.881
 UNBOUND:                -5.794
 SMILES CC(=O)N[C@@H]1[C@@H](O)C[C@](O)(C(=O)O)O[C@H]1C(O)[C@H](O)CNC(=O)OCc1cn(Cc2cc(Br)cc(Br)c2O)nn1
 SMILES IDX 21 1 22 2 23 3 20 5 18 6 16 7 15 8 9 9 8 10 14 11 6 12 5 13
 SMILES IDX 10 14 11 16 12 17 13 18 7 20 4 22 2 23 1 25 3 26 17 27 19 29
 SMILES IDX 24 31 25 32 26 33 27 34 40 35 28 36 39 37 29 38 30 39 31 40
 SMILES IDX 37 41 32 42 35 43 33 44 34 45 36 46 38 47
 H PARENT 21 4 10 15 13 19 7 21 4 24 17 28 19 30 38 48
 Flexibility Score: inf
  4 active torsions:
  status: ('A' for Active; 'I' for Inactive)
    1  A    between atoms: CA   and  CB  
    2  A    between atoms: CB   and  CG  
    3  A    between atoms: CG   and  CD  
    4  A    between atoms: CD   and  CE  

>  <TORSDO>
F 17

>  <BEGIN_>
RES LYS A 131

$$$$
ligand_88_pose_7_2HRL.pdbqt
 OpenBabel07062320523D

  6  5  0  0  0  0  0  0  0  0999 V2000
   33.1930   34.6630    9.2900 C   0  0  0  0  0  0  0  0  0  0  0  0
   32.0600   35.3600   10.0340 C   0  0  0  0  0  0  0  0  0  0  0  0
   30.7540   34.6090    9.9840 C   0  0  0  0  0  0  0  0  0  0  0  0
   30.2790   34.4560    8.5470 C   0  0  0  0  0  0  0  0  0  0  0  0
   29.4120   35.6340    8.1450 C   0  0  0  0  0  0  0  0  0  0  0  0
   28.9570   35.5070    6.7320 N   0  0  0  0  0  0  0  0  0  0  0  0
  1  2  1  0  0  0  0
  3  2  1  0  0  0  0
  4  3  1  0  0  0  0
  5  4  1  0  0  0  0
  6  5  1  0  0  0  0
M  END
>  <EGIN_R>
ES LYS A 135

>  <REMARK>
  4 active torsions:
  status: ('A' for Active; 'I' for Inactive)
    5  A    between atoms: CA   and  CB  
    6  A    between atoms: CB   and  CG  
    7  A    between atoms: CG   and  CD  
    8  A    between atoms: CD   and  CE  

$$$$
