ligand_73_pose_11_2HRL.pdbqt
 OpenBabel07062320523D

 54 55  0  0  1  0  0  0  0  0999 V2000
   28.4270   27.6260   19.4480 N   0  0  0  0  0  0  0  0  0  0  0  0
   27.1060   27.3130   19.0270 C   0  0  0  0  0  0  0  0  0  0  0  0
   26.2370   26.8470   19.8370 O   0  0  0  0  0  0  0  0  0  0  0  0
   29.0980   28.0090   18.7630 H   0  0  0  0  0  0  0  0  0  0  0  0
   28.7940   27.4140   20.8170 C   0  0  0  0  0  0  0  0  0  0  0  0
   30.2250   27.6180   21.1620 C   0  0  2  0  0  0  0  0  0  0  0  0
   30.9900   28.5380   20.2470 C   0  0  1  0  0  0  0  0  0  0  0  0
   30.9840   29.9760   20.6630 C   0  0  2  0  0  0  0  0  0  0  0  0
   30.3740   32.1090   20.0710 C   0  0  2  0  0  0  0  0  0  0  0  0
   30.6230   32.2970   21.5500 C   0  0  0  0  0  0  0  0  0  0  0  0
   30.5570   30.8070   19.6410 O   0  0  0  0  0  0  0  0  0  0  0  0
   32.0060   31.8450   21.8800 C   0  0  1  0  0  0  0  0  0  0  0  0
   32.2090   30.4110   21.3800 C   0  0  1  0  0  0  0  0  0  0  0  0
   31.2660   32.9360   19.4030 O   0  0  0  0  0  0  0  0  0  0  0  0
   32.0210   33.1120   20.0280 H   0  0  0  0  0  0  0  0  0  0  0  0
   28.9960   32.5830   19.7910 C   0  0  0  0  0  0  0  0  0  0  0  0
   28.7590   33.7960   19.5510 O   0  0  0  0  0  0  0  0  0  0  0  0
   27.9380   31.6950   19.7880 O   0  0  0  0  0  0  0  0  0  0  0  0
   26.9800   31.9700   19.6830 H   0  0  0  0  0  0  0  0  0  0  0  0
   32.8930   32.7350   21.2460 O   0  0  0  0  0  0  0  0  0  0  0  0
   32.8980   33.5650   21.8120 H   0  0  0  0  0  0  0  0  0  0  0  0
   32.3300   29.5560   22.5720 N   0  0  0  0  0  0  0  0  0  0  0  0
   33.5740   29.1520   23.0980 C   0  0  0  0  0  0  0  0  0  0  0  0
   31.4520   29.2370   23.0450 H   0  0  0  0  0  0  0  0  0  0  0  0
   33.6530   28.2880   24.3010 C   0  0  0  0  0  0  0  0  0  0  0  0
   34.6210   29.5210   22.5500 O   0  0  0  0  0  0  0  0  0  0  0  0
   32.3180   28.1330   20.1170 O   0  0  0  0  0  0  0  0  0  0  0  0
   32.7670   27.9840   20.9660 H   0  0  0  0  0  0  0  0  0  0  0  0
   30.8220   26.3480   21.1630 O   0  0  0  0  0  0  0  0  0  0  0  0
   31.7930   26.4790   21.3580 H   0  0  0  0  0  0  0  0  0  0  0  0
   26.7780   27.5250   17.7090 O   0  0  0  0  0  0  0  0  0  0  0  0
   25.8660   28.5250   17.3730 C   0  0  0  0  0  0  0  0  0  0  0  0
   26.5040   29.8400   17.0970 C   0  0  0  0  0  0  0  0  0  0  0  0
   27.7150   30.0900   16.4680 C   0  0  0  0  0  0  0  0  0  0  0  0
   26.0280   31.0600   17.4060 N   0  0  0  0  0  0  0  0  0  0  0  0
   27.9390   31.4120   16.4110 N   0  0  0  0  0  0  0  0  0  0  0  0
   26.8970   31.9830   16.9890 N   0  0  0  0  0  0  0  0  0  0  0  0
   29.0490   32.1080   15.8560 C   0  0  0  0  0  0  0  0  0  0  0  0
   30.3350   31.7460   16.1990 C   0  0  0  0  0  0  0  0  0  0  0  0
   28.9070   33.1560   14.9700 C   0  0  0  0  0  0  0  0  0  0  0  0
   31.4310   32.4110   15.6710 C   0  0  0  0  0  0  0  0  0  0  0  0
   29.9710   33.8500   14.4170 C   0  0  0  0  0  0  0  0  0  0  0  0
   31.2510   33.4500   14.7900 C   0  0  0  0  0  0  0  0  0  0  0  0
   29.8080   34.9180   13.5120 N   0  0  0  0  0  0  0  0  0  0  0  0
   29.1200   34.7600   12.5030 O   0  0  0  0  0  0  0  0  0  0  0  0
   30.4060   36.1140   13.7560 O   0  0  0  0  0  0  0  0  0  0  0  0
   32.3190   34.1500   14.2330 O   0  0  0  0  0  0  0  0  0  0  0  0
   32.7300   33.7890   13.3610 H   0  0  0  0  0  0  0  0  0  0  0  0
   29.8670   25.5550   16.9770 C   0  0  0  0  0  0  0  0  0  0  0  0
   28.3450   25.7220   17.0260 C   0  0  0  0  0  0  0  0  0  0  0  0
   27.5990   24.4790   16.5660 C   0  0  0  0  0  0  0  0  0  0  0  0
   26.7800   23.8690   17.6690 C   0  0  0  0  0  0  0  0  0  0  0  0
   25.3030   24.1720   17.4340 C   0  0  0  0  0  0  0  0  0  0  0  0
   24.5270   22.9150   17.3250 N   0  0  0  0  0  0  0  0  0  0  0  0
  1  5  1  0  0  0  0
  2  1  1  0  0  0  0
  2  3  2  0  0  0  0
  4  1  1  0  0  0  0
  6  5  1  6  0  0  0
  6 29  1  0  0  0  0
  7 27  1  1  0  0  0
  7  6  1  0  0  0  0
  8  7  1  6  0  0  0
  8 13  1  0  0  0  0
  9 14  1  6  0  0  0
  9 10  1  0  0  0  0
 10 12  1  0  0  0  0
 11  9  1  0  0  0  0
 11  8  1  0  0  0  0
 12 20  1  6  0  0  0
 13 12  1  0  0  0  0
 13 22  1  1  0  0  0
 14 15  1  0  0  0  0
 16  9  1  0  0  0  0
 17 16  2  0  0  0  0
 18 16  1  0  0  0  0
 19 18  1  0  0  0  0
 20 21  1  0  0  0  0
 22 24  1  0  0  0  0
 22 23  1  0  0  0  0
 23 25  1  0  0  0  0
 26 23  2  0  0  0  0
 27 28  1  0  0  0  0
 29 30  1  0  0  0  0
 31  2  1  0  0  0  0
 32 31  1  0  0  0  0
 33 32  1  0  0  0  0
 33 35  1  0  0  0  0
 34 33  2  0  0  0  0
 36 34  1  0  0  0  0
 36 37  1  0  0  0  0
 37 35  2  0  0  0  0
 38 39  1  0  0  0  0
 38 36  1  0  0  0  0
 40 38  2  0  0  0  0
 41 39  2  0  0  0  0
 42 43  2  0  0  0  0
 42 40  1  0  0  0  0
 43 41  1  0  0  0  0
 44 46  2  0  0  0  0
 44 42  1  0  0  0  0
 45 44  2  0  0  0  0
 47 43  1  0  0  0  0
 48 47  1  0  0  0  0
 49 50  1  0  0  0  0
 51 50  1  0  0  0  0
 51 52  1  0  0  0  0
 53 52  1  0  0  0  0
 54 53  1  0  0  0  0
M  END
>  <REMARK>
 VINA RESULT:    -4.039      2.760      6.039
 INTER + INTRA:         -14.655
 INTER:                  -9.091
 INTRA:                  -5.564
 UNBOUND:                -7.311
 SMILES CC(=O)N[C@@H]1[C@@H](O)C[C@](O)(C(=O)O)O[C@H]1C(O)[C@H](O)CNC(=O)OCc1cn(-c2ccc(O)c([N+](=O)[O-])c2)nn1
 SMILES IDX 21 1 22 2 23 3 20 5 18 6 16 7 15 8 9 9 8 10 14 11 6 12 5 13
 SMILES IDX 10 14 11 16 12 17 13 18 7 20 4 22 2 23 1 25 3 26 17 27 19 29
 SMILES IDX 24 31 25 32 26 33 27 34 40 35 28 36 39 37 29 38 30 39 38 40
 SMILES IDX 31 41 34 42 32 43 35 44 36 45 37 46 33 47
 H PARENT 21 4 10 15 13 19 7 21 4 24 17 28 19 30 33 48
 Flexibility Score: inf
  4 active torsions:
  status: ('A' for Active; 'I' for Inactive)
    1  A    between atoms: CA   and  CB  
    2  A    between atoms: CB   and  CG  
    3  A    between atoms: CG   and  CD  
    4  A    between atoms: CD   and  CE  

>  <TORSDO>
F 17

>  <BEGIN_>
RES LYS A 131

$$$$
ligand_73_pose_11_2HRL.pdbqt
 OpenBabel07062320523D

  6  5  0  0  0  0  0  0  0  0999 V2000
   33.1930   34.6630    9.2900 C   0  0  0  0  0  0  0  0  0  0  0  0
   32.0600   35.3600   10.0340 C   0  0  0  0  0  0  0  0  0  0  0  0
   30.7090   35.1620    9.3960 C   0  0  0  0  0  0  0  0  0  0  0  0
   30.0990   36.5000    9.0060 C   0  0  0  0  0  0  0  0  0  0  0  0
   28.8620   36.2920    8.1530 C   0  0  0  0  0  0  0  0  0  0  0  0
   28.6100   34.8440    7.9170 N   0  0  0  0  0  0  0  0  0  0  0  0
  1  2  1  0  0  0  0
  3  2  1  0  0  0  0
  4  3  1  0  0  0  0
  5  4  1  0  0  0  0
  6  5  1  0  0  0  0
M  END
>  <EGIN_R>
ES LYS A 135

>  <REMARK>
  4 active torsions:
  status: ('A' for Active; 'I' for Inactive)
    5  A    between atoms: CA   and  CB  
    6  A    between atoms: CB   and  CG  
    7  A    between atoms: CG   and  CD  
    8  A    between atoms: CD   and  CE  

$$$$
