ligand_16_pose_3_2HRL.pdbqt
 OpenBabel07062320523D

 54 55  0  0  1  0  0  0  0  0999 V2000
   26.1710   33.9200   14.5850 N   0  0  0  0  0  0  0  0  0  0  0  0
   25.2050   32.9810   14.1870 C   0  0  0  0  0  0  0  0  0  0  0  0
   24.3160   33.3090   13.3840 O   0  0  0  0  0  0  0  0  0  0  0  0
   26.8950   33.5600   15.2790 H   0  0  0  0  0  0  0  0  0  0  0  0
   26.2150   35.2780   14.1120 C   0  0  0  0  0  0  0  0  0  0  0  0
   27.6360   35.7730   14.1320 C   0  0  2  0  0  0  0  0  0  0  0  0
   28.5330   35.0950   13.1450 C   0  0  1  0  0  0  0  0  0  0  0  0
   29.5360   36.1030   12.5550 C   0  0  2  0  0  0  0  0  0  0  0  0
   31.2790   37.4470   13.2630 C   0  0  2  0  0  0  0  0  0  0  0  0
   30.5050   38.7420   13.0750 C   0  0  0  0  0  0  0  0  0  0  0  0
   30.3610   36.4800   13.5940 O   0  0  0  0  0  0  0  0  0  0  0  0
   29.4620   38.5760   12.0180 C   0  0  1  0  0  0  0  0  0  0  0  0
   28.7360   37.2600   12.0780 C   0  0  1  0  0  0  0  0  0  0  0  0
   32.0670   37.6860   14.4260 O   0  0  0  0  0  0  0  0  0  0  0  0
   32.4960   36.8120   14.6860 H   0  0  0  0  0  0  0  0  0  0  0  0
   32.1520   37.1560   12.1230 C   0  0  0  0  0  0  0  0  0  0  0  0
   32.1950   37.9850   11.1510 O   0  0  0  0  0  0  0  0  0  0  0  0
   32.9630   36.0490   11.9670 O   0  0  0  0  0  0  0  0  0  0  0  0
   33.3550   35.8910   11.0490 H   0  0  0  0  0  0  0  0  0  0  0  0
   28.4970   39.5870   12.2370 O   0  0  0  0  0  0  0  0  0  0  0  0
   28.7390   40.3250   11.6260 H   0  0  0  0  0  0  0  0  0  0  0  0
   28.0740   37.0200   10.8120 N   0  0  0  0  0  0  0  0  0  0  0  0
   26.6950   37.2840   10.6220 C   0  0  0  0  0  0  0  0  0  0  0  0
   28.6010   36.6420    9.9950 H   0  0  0  0  0  0  0  0  0  0  0  0
   26.0270   37.0260    9.2950 C   0  0  0  0  0  0  0  0  0  0  0  0
   26.0360   37.7370   11.5770 O   0  0  0  0  0  0  0  0  0  0  0  0
   29.1630   33.9680   13.6140 O   0  0  0  0  0  0  0  0  0  0  0  0
   28.6690   33.1580   13.3250 H   0  0  0  0  0  0  0  0  0  0  0  0
   28.2030   35.7060   15.4120 O   0  0  0  0  0  0  0  0  0  0  0  0
   29.0340   35.1520   15.3700 H   0  0  0  0  0  0  0  0  0  0  0  0
   25.1790   31.6710   14.6470 O   0  0  0  0  0  0  0  0  0  0  0  0
   24.8930   31.3100   15.9770 C   0  0  0  0  0  0  0  0  0  0  0  0
   26.0730   30.6600   16.5850 C   0  0  0  0  0  0  0  0  0  0  0  0
   27.0690   31.3110   17.3140 C   0  0  0  0  0  0  0  0  0  0  0  0
   26.4530   29.3670   16.5790 N   0  0  0  0  0  0  0  0  0  0  0  0
   27.9780   30.4100   17.7050 N   0  0  0  0  0  0  0  0  0  0  0  0
   27.5840   29.2450   17.2490 N   0  0  0  0  0  0  0  0  0  0  0  0
   29.1950   30.6790   18.4860 C   0  0  0  0  0  0  0  0  0  0  0  0
   30.0180   31.5950   17.6340 C   0  0  0  0  0  0  0  0  0  0  0  0
   30.3740   32.8230   18.1180 C   0  0  0  0  0  0  0  0  0  0  0  0
   30.4230   31.2360   16.3730 C   0  0  0  0  0  0  0  0  0  0  0  0
   31.1390   33.7030   17.3460 C   0  0  0  0  0  0  0  0  0  0  0  0
   31.1830   32.1110   15.6030 C   0  0  0  0  0  0  0  0  0  0  0  0
   31.5490   33.3530   16.0820 C   0  0  0  0  0  0  0  0  0  0  0  0
   32.3480   34.2600   15.2680 C   0  0  0  0  0  0  0  0  0  0  0  0
   33.0800   35.1480   15.7560 O   0  0  0  0  0  0  0  0  0  0  0  0
   32.3060   34.1450   13.8830 O   0  0  0  0  0  0  0  0  0  0  0  0
   32.8620   34.7370   13.2910 H   0  0  0  0  0  0  0  0  0  0  0  0
   29.8670   25.5550   16.9770 C   0  0  0  0  0  0  0  0  0  0  0  0
   28.3450   25.7220   17.0260 C   0  0  0  0  0  0  0  0  0  0  0  0
   27.6780   24.7770   18.0140 C   0  0  0  0  0  0  0  0  0  0  0  0
   26.9810   23.6370   17.3260 C   0  0  0  0  0  0  0  0  0  0  0  0
   25.6570   23.3530   18.0260 C   0  0  0  0  0  0  0  0  0  0  0  0
   24.5280   23.4810   17.0740 N   0  0  0  0  0  0  0  0  0  0  0  0
  1  4  1  0  0  0  0
  2  1  1  0  0  0  0
  2 31  1  0  0  0  0
  3  2  2  0  0  0  0
  5  1  1  0  0  0  0
  6  5  1  1  0  0  0
  6 29  1  0  0  0  0
  7 27  1  1  0  0  0
  7  6  1  0  0  0  0
  8  7  1  1  0  0  0
  8 11  1  0  0  0  0
  9 16  1  6  0  0  0
  9 11  1  0  0  0  0
  9 14  1  0  0  0  0
 10  9  1  0  0  0  0
 12 13  1  0  0  0  0
 12 20  1  1  0  0  0
 12 10  1  0  0  0  0
 13 22  1  6  0  0  0
 13  8  1  0  0  0  0
 14 15  1  0  0  0  0
 17 16  2  0  0  0  0
 18 16  1  0  0  0  0
 19 18  1  0  0  0  0
 21 20  1  0  0  0  0
 23 22  1  0  0  0  0
 23 26  2  0  0  0  0
 24 22  1  0  0  0  0
 25 23  1  0  0  0  0
 28 27  1  0  0  0  0
 30 29  1  0  0  0  0
 31 32  1  0  0  0  0
 32 33  1  0  0  0  0
 33 34  2  0  0  0  0
 34 36  1  0  0  0  0
 35 33  1  0  0  0  0
 35 37  2  0  0  0  0
 36 38  1  0  0  0  0
 37 36  1  0  0  0  0
 39 40  1  0  0  0  0
 39 38  1  0  0  0  0
 41 39  2  0  0  0  0
 42 40  2  0  0  0  0
 43 44  2  0  0  0  0
 43 41  1  0  0  0  0
 44 42  1  0  0  0  0
 45 46  2  0  0  0  0
 45 44  1  0  0  0  0
 47 45  1  0  0  0  0
 48 47  1  0  0  0  0
 49 50  1  0  0  0  0
 50 51  1  0  0  0  0
 52 51  1  0  0  0  0
 52 53  1  0  0  0  0
 54 53  1  0  0  0  0
M  END
>  <REMARK>
 VINA RESULT:    -6.078      4.557      8.796
 INTER + INTRA:         -15.401
 INTER:                  -9.424
 INTRA:                  -5.977
 UNBOUND:                -3.993
 SMILES CC(=O)N[C@@H]1[C@@H](O)C[C@](O)(C(=O)O)O[C@H]1C(O)[C@H](O)CNC(=O)OCc1cn(Cc2ccc(C(=O)O)cc2)nn1
 SMILES IDX 21 1 22 2 23 3 20 5 18 6 16 7 15 8 9 9 8 10 14 11 6 12 5 13
 SMILES IDX 10 14 11 16 12 17 13 18 7 20 4 22 2 23 1 25 3 26 17 27 19 29
 SMILES IDX 24 31 25 32 26 33 27 34 40 35 28 36 39 37 29 38 30 39 31 40
 SMILES IDX 38 41 32 42 37 43 33 44 34 45 35 46 36 47
 H PARENT 21 4 10 15 13 19 7 21 4 24 17 28 19 30 36 48
 Flexibility Score: inf
  4 active torsions:
  status: ('A' for Active; 'I' for Inactive)
    1  A    between atoms: CA   and  CB  
    2  A    between atoms: CB   and  CG  
    3  A    between atoms: CG   and  CD  
    4  A    between atoms: CD   and  CE  

>  <TORSDO>
F 18

>  <BEGIN_>
RES LYS A 131

$$$$
ligand_16_pose_3_2HRL.pdbqt
 OpenBabel07062320523D

  6  5  0  0  0  0  0  0  0  0999 V2000
   33.1930   34.6630    9.2900 C   0  0  0  0  0  0  0  0  0  0  0  0
   32.0600   35.3600   10.0340 C   0  0  0  0  0  0  0  0  0  0  0  0
   30.7880   35.4650    9.2330 C   0  0  0  0  0  0  0  0  0  0  0  0
   30.0850   34.1180    9.1620 C   0  0  0  0  0  0  0  0  0  0  0  0
   28.6550   34.2880    8.6860 C   0  0  0  0  0  0  0  0  0  0  0  0
   27.6950   33.6660    9.6400 N   0  0  0  0  0  0  0  0  0  0  0  0
  1  2  1  0  0  0  0
  3  2  1  0  0  0  0
  4  3  1  0  0  0  0
  5  4  1  0  0  0  0
  5  6  1  0  0  0  0
M  END
>  <EGIN_R>
ES LYS A 135

>  <REMARK>
  4 active torsions:
  status: ('A' for Active; 'I' for Inactive)
    5  A    between atoms: CA   and  CB  
    6  A    between atoms: CB   and  CG  
    7  A    between atoms: CG   and  CD  
    8  A    between atoms: CD   and  CE  

$$$$
