ligand_4_pose_2_2HRL.pdbqt
 OpenBabel07062320523D

 52 53  0  0  1  0  0  0  0  0999 V2000
   29.5220   26.9960   20.3070 N   0  0  0  0  0  0  0  0  0  0  0  0
   28.3220   27.7320   20.3440 C   0  0  0  0  0  0  0  0  0  0  0  0
   28.0270   28.4410   21.3280 O   0  0  0  0  0  0  0  0  0  0  0  0
   29.7240   26.4230   19.4430 H   0  0  0  0  0  0  0  0  0  0  0  0
   30.4560   27.0050   21.3780 C   0  0  0  0  0  0  0  0  0  0  0  0
   31.8470   27.5120   21.0020 C   0  0  2  0  0  0  0  0  0  0  0  0
   31.7320   29.0250   21.2000 C   0  0  2  0  0  0  0  0  0  0  0  0
   33.0480   29.6810   21.4730 C   0  0  2  0  0  0  0  0  0  0  0  0
   34.2260   29.8550   23.4630 C   0  0  2  0  0  0  0  0  0  0  0  0
   34.7540   31.1940   23.0880 C   0  0  0  0  0  0  0  0  0  0  0  0
   33.7070   29.0640   22.4820 O   0  0  0  0  0  0  0  0  0  0  0  0
   33.9870   31.9210   22.0040 C   0  0  1  0  0  0  0  0  0  0  0  0
   32.7280   31.1370   21.7790 C   0  0  1  0  0  0  0  0  0  0  0  0
   33.3290   29.9870   24.5540 O   0  0  0  0  0  0  0  0  0  0  0  0
   32.5190   29.4540   24.4570 H   0  0  0  0  0  0  0  0  0  0  0  0
   35.3980   29.0810   24.0140 C   0  0  0  0  0  0  0  0  0  0  0  0
   35.9430   28.2310   23.2780 O   0  0  0  0  0  0  0  0  0  0  0  0
   35.8990   29.2770   25.2940 O   0  0  0  0  0  0  0  0  0  0  0  0
   36.7810   29.7380   25.5010 H   0  0  0  0  0  0  0  0  0  0  0  0
   33.6440   33.2150   22.5030 O   0  0  0  0  0  0  0  0  0  0  0  0
   32.6650   33.3120   22.5830 H   0  0  0  0  0  0  0  0  0  0  0  0
   31.7690   31.6400   20.8760 N   0  0  0  0  0  0  0  0  0  0  0  0
   30.7010   32.5070   21.2150 C   0  0  0  0  0  0  0  0  0  0  0  0
   31.8290   31.3550   19.8390 H   0  0  0  0  0  0  0  0  0  0  0  0
   29.7130   33.0180   20.2590 C   0  0  0  0  0  0  0  0  0  0  0  0
   30.6320   32.8360   22.4750 O   0  0  0  0  0  0  0  0  0  0  0  0
   30.8100   29.1800   22.2390 O   0  0  0  0  0  0  0  0  0  0  0  0
   31.3310   29.3650   23.0650 H   0  0  0  0  0  0  0  0  0  0  0  0
   32.2150   27.2360   19.7260 O   0  0  0  0  0  0  0  0  0  0  0  0
   31.5430   27.4220   19.0740 H   0  0  0  0  0  0  0  0  0  0  0  0
   27.4240   27.6890   19.2760 O   0  0  0  0  0  0  0  0  0  0  0  0
   26.6740   28.8630   19.0000 C   0  0  0  0  0  0  0  0  0  0  0  0
   27.2760   29.4370   17.7700 C   0  0  0  0  0  0  0  0  0  0  0  0
   27.9360   30.6720   17.7320 C   0  0  0  0  0  0  0  0  0  0  0  0
   27.4070   28.8840   16.5550 N   0  0  0  0  0  0  0  0  0  0  0  0
   28.4310   30.7730   16.4840 N   0  0  0  0  0  0  0  0  0  0  0  0
   28.1070   29.7250   15.8420 N   0  0  0  0  0  0  0  0  0  0  0  0
   29.2850   31.8190   16.0610 C   0  0  0  0  0  0  0  0  0  0  0  0
   28.7870   32.8940   15.4310 C   0  0  0  0  0  0  0  0  0  0  0  0
   30.6720   31.6340   16.1550 C   0  0  0  0  0  0  0  0  0  0  0  0
   29.6660   33.8220   14.8740 C   0  0  0  0  0  0  0  0  0  0  0  0
   31.5350   32.5190   15.6230 C   0  0  0  0  0  0  0  0  0  0  0  0
   31.0520   33.6410   14.9650 C   0  0  0  0  0  0  0  0  0  0  0  0
   27.3660   33.1800   15.4370 C   0  0  0  0  0  0  0  0  0  0  0  0
   26.9510   34.1130   14.3100 C   0  0  0  0  0  0  0  0  0  0  0  0
   27.1510   34.1610   16.6740 C   0  0  0  0  0  0  0  0  0  0  0  0
   29.8670   25.5550   16.9770 C   0  0  0  0  0  0  0  0  0  0  0  0
   28.3450   25.7220   17.0260 C   0  0  0  0  0  0  0  0  0  0  0  0
   27.6010   24.4030   16.8870 C   0  0  0  0  0  0  0  0  0  0  0  0
   26.6090   24.1920   17.9970 C   0  0  0  0  0  0  0  0  0  0  0  0
   25.6060   23.1190   17.5870 C   0  0  0  0  0  0  0  0  0  0  0  0
   24.2190   23.6050   17.7770 N   0  0  0  0  0  0  0  0  0  0  0  0
  1  2  1  0  0  0  0
  1  5  1  0  0  0  0
  2  3  2  0  0  0  0
  4  1  1  0  0  0  0
  6  7  1  0  0  0  0
  6  5  1  6  0  0  0
  7 27  1  1  0  0  0
  8  7  1  1  0  0  0
  8 13  1  0  0  0  0
  8 11  1  0  0  0  0
  9 16  1  1  0  0  0
  9 14  1  0  0  0  0
 10  9  1  0  0  0  0
 11  9  1  0  0  0  0
 12 20  1  1  0  0  0
 12 10  1  0  0  0  0
 13 22  1  6  0  0  0
 13 12  1  0  0  0  0
 15 14  1  0  0  0  0
 16 18  1  0  0  0  0
 17 16  2  0  0  0  0
 18 19  1  0  0  0  0
 20 21  1  0  0  0  0
 22 23  1  0  0  0  0
 23 26  2  0  0  0  0
 24 22  1  0  0  0  0
 25 23  1  0  0  0  0
 27 28  1  0  0  0  0
 29  6  1  0  0  0  0
 30 29  1  0  0  0  0
 31  2  1  0  0  0  0
 32 31  1  0  0  0  0
 33 32  1  0  0  0  0
 34 33  2  0  0  0  0
 35 33  1  0  0  0  0
 36 34  1  0  0  0  0
 37 36  1  0  0  0  0
 37 35  2  0  0  0  0
 38 40  1  0  0  0  0
 38 36  1  0  0  0  0
 39 44  1  0  0  0  0
 39 38  2  0  0  0  0
 41 43  2  0  0  0  0
 41 39  1  0  0  0  0
 42 40  2  0  0  0  0
 43 42  1  0  0  0  0
 44 46  1  0  0  0  0
 45 44  1  0  0  0  0
 47 48  1  0  0  0  0
 49 48  1  0  0  0  0
 49 50  1  0  0  0  0
 51 52  1  0  0  0  0
 51 50  1  0  0  0  0
M  END
>  <REMARK>
 VINA RESULT:    -4.485      8.007     12.546
 INTER + INTRA:         -15.262
 INTER:                  -9.188
 INTRA:                  -6.073
 UNBOUND:                -7.237
 SMILES CC(=O)N[C@@H]1[C@@H](O)C[C@](O)(C(=O)O)O[C@H]1C(O)[C@H](O)CNC(=O)OCc1cn(-c2ccccc2C(C)C)nn1
 SMILES IDX 21 1 22 2 23 3 20 5 18 6 16 7 15 8 9 9 8 10 14 11 6 12 5 13
 SMILES IDX 10 14 11 16 12 17 13 18 7 20 4 22 2 23 1 25 3 26 17 27 19 29
 SMILES IDX 24 31 25 32 26 33 27 34 39 35 28 36 38 37 29 38 34 39 30 40
 SMILES IDX 33 41 31 42 32 43 35 44 36 45 37 46
 H PARENT 21 4 10 15 13 19 7 21 4 24 17 28 19 30
 Flexibility Score: inf
  4 active torsions:
  status: ('A' for Active; 'I' for Inactive)
    1  A    between atoms: CA   and  CB  
    2  A    between atoms: CB   and  CG  
    3  A    between atoms: CG   and  CD  
    4  A    between atoms: CD   and  CE  

>  <TORSDO>
F 16

>  <BEGIN_>
RES LYS A 131

$$$$
ligand_4_pose_2_2HRL.pdbqt
 OpenBabel07062320523D

  6  5  0  0  0  0  0  0  0  0999 V2000
   33.1930   34.6630    9.2900 C   0  0  0  0  0  0  0  0  0  0  0  0
   32.0600   35.3600   10.0340 C   0  0  0  0  0  0  0  0  0  0  0  0
   30.8080   35.5210    9.2110 C   0  0  0  0  0  0  0  0  0  0  0  0
   30.1450   34.1740    8.9720 C   0  0  0  0  0  0  0  0  0  0  0  0
   28.6780   34.3540    8.6320 C   0  0  0  0  0  0  0  0  0  0  0  0
   27.8080   33.6680    9.6270 N   0  0  0  0  0  0  0  0  0  0  0  0
  1  2  1  0  0  0  0
  3  2  1  0  0  0  0
  4  3  1  0  0  0  0
  5  4  1  0  0  0  0
  5  6  1  0  0  0  0
M  END
>  <EGIN_R>
ES LYS A 135

>  <REMARK>
  4 active torsions:
  status: ('A' for Active; 'I' for Inactive)
    5  A    between atoms: CA   and  CB  
    6  A    between atoms: CB   and  CG  
    7  A    between atoms: CG   and  CD  
    8  A    between atoms: CD   and  CE  

$$$$
