ligand_14_pose_9_2HRL.pdbqt
 OpenBabel07062320523D

 50 51  0  0  1  0  0  0  0  0999 V2000
   26.5750   30.4960   17.6650 N   0  0  0  0  0  0  0  0  0  0  0  0
   26.5450   30.7840   16.2880 C   0  0  0  0  0  0  0  0  0  0  0  0
   25.7440   30.2060   15.5420 O   0  0  0  0  0  0  0  0  0  0  0  0
   27.3170   31.0490   18.2140 H   0  0  0  0  0  0  0  0  0  0  0  0
   25.7420   29.5720   18.3680 C   0  0  0  0  0  0  0  0  0  0  0  0
   26.5210   28.3620   18.7950 C   0  0  2  0  0  0  0  0  0  0  0  0
   27.2470   28.6050   20.1140 C   0  0  1  0  0  0  0  0  0  0  0  0
   28.7520   28.5840   19.7920 C   0  0  2  0  0  0  0  0  0  0  0  0
   30.0730   27.4940   21.3940 C   0  0  2  0  0  0  0  0  0  0  0  0
   29.9330   28.7670   22.2070 C   0  0  0  0  0  0  0  0  0  0  0  0
   29.3220   27.4530   20.2610 O   0  0  0  0  0  0  0  0  0  0  0  0
   30.1870   29.9600   21.3520 C   0  0  1  0  0  0  0  0  0  0  0  0
   29.4040   29.8860   20.0810 C   0  0  1  0  0  0  0  0  0  0  0  0
   29.5620   26.4780   22.2390 O   0  0  0  0  0  0  0  0  0  0  0  0
   29.6620   25.6000   21.7610 H   0  0  0  0  0  0  0  0  0  0  0  0
   31.4970   27.1640   21.1510 C   0  0  0  0  0  0  0  0  0  0  0  0
   32.2600   26.9690   22.1210 O   0  0  0  0  0  0  0  0  0  0  0  0
   31.9960   27.0670   19.8660 O   0  0  0  0  0  0  0  0  0  0  0  0
   32.0250   27.8970   19.2910 H   0  0  0  0  0  0  0  0  0  0  0  0
   29.8520   31.0930   22.0840 O   0  0  0  0  0  0  0  0  0  0  0  0
   29.8010   30.8740   23.0530 H   0  0  0  0  0  0  0  0  0  0  0  0
   30.1810   30.3600   18.9370 N   0  0  0  0  0  0  0  0  0  0  0  0
   29.8900   31.5550   18.2680 C   0  0  0  0  0  0  0  0  0  0  0  0
   30.9720   29.7620   18.6340 H   0  0  0  0  0  0  0  0  0  0  0  0
   30.7330   31.9590   17.1140 C   0  0  0  0  0  0  0  0  0  0  0  0
   28.9160   32.2850   18.6440 O   0  0  0  0  0  0  0  0  0  0  0  0
   26.8750   29.8660   20.5710 O   0  0  0  0  0  0  0  0  0  0  0  0
   26.1860   30.2990   20.0390 H   0  0  0  0  0  0  0  0  0  0  0  0
   27.3730   27.8550   17.8390 O   0  0  0  0  0  0  0  0  0  0  0  0
   28.3220   27.8220   18.1010 H   0  0  0  0  0  0  0  0  0  0  0  0
   27.4000   31.7180   15.6990 O   0  0  0  0  0  0  0  0  0  0  0  0
   27.1640   33.1040   15.8470 C   0  0  0  0  0  0  0  0  0  0  0  0
   27.7120   33.8950   14.7160 C   0  0  0  0  0  0  0  0  0  0  0  0
   26.9930   34.4920   13.6790 C   0  0  0  0  0  0  0  0  0  0  0  0
   28.9930   34.2020   14.4480 N   0  0  0  0  0  0  0  0  0  0  0  0
   27.8300   35.1240   12.8380 N   0  0  0  0  0  0  0  0  0  0  0  0
   29.0520   34.9180   13.3520 N   0  0  0  0  0  0  0  0  0  0  0  0
   27.5270   35.8680   11.6330 C   0  0  0  0  0  0  0  0  0  0  0  0
   26.4840   36.9150   11.8420 C   0  0  0  0  0  0  0  0  0  0  0  0
   25.3620   36.8300   10.9410 N   0  0  0  0  0  0  0  0  0  0  0  0
   25.7740   37.3730    9.6580 C   0  0  0  0  0  0  0  0  0  0  0  0
   24.9710   35.4580   10.6800 C   0  0  0  0  0  0  0  0  0  0  0  0
   25.2570   36.4670    8.5880 C   0  0  0  0  0  0  0  0  0  0  0  0
   24.2780   35.5890    9.3390 C   0  0  0  0  0  0  0  0  0  0  0  0
   29.8670   25.5550   16.9770 C   0  0  0  0  0  0  0  0  0  0  0  0
   28.3450   25.7220   17.0260 C   0  0  0  0  0  0  0  0  0  0  0  0
   27.6000   24.4080   16.8470 C   0  0  0  0  0  0  0  0  0  0  0  0
   26.1590   24.5120   17.2640 C   0  0  0  0  0  0  0  0  0  0  0  0
   26.0750   24.6140   18.7830 C   0  0  0  0  0  0  0  0  0  0  0  0
   25.5890   23.3390   19.3630 N   0  0  0  0  0  0  0  0  0  0  0  0
  1  4  1  0  0  0  0
  1  5  1  0  0  0  0
  2  1  1  0  0  0  0
  3  2  2  0  0  0  0
  6  5  1  6  0  0  0
  6  7  1  0  0  0  0
  7 27  1  6  0  0  0
  8 13  1  0  0  0  0
  8  7  1  1  0  0  0
  8 11  1  0  0  0  0
  9 16  1  6  0  0  0
  9 10  1  0  0  0  0
  9 14  1  0  0  0  0
 11  9  1  0  0  0  0
 12 20  1  1  0  0  0
 12 10  1  0  0  0  0
 13 22  1  6  0  0  0
 13 12  1  0  0  0  0
 15 14  1  0  0  0  0
 16 17  2  0  0  0  0
 18 16  1  0  0  0  0
 19 18  1  0  0  0  0
 20 21  1  0  0  0  0
 23 26  2  0  0  0  0
 23 22  1  0  0  0  0
 24 22  1  0  0  0  0
 25 23  1  0  0  0  0
 28 27  1  0  0  0  0
 29 30  1  0  0  0  0
 29  6  1  0  0  0  0
 31 32  1  0  0  0  0
 31  2  1  0  0  0  0
 33 32  1  0  0  0  0
 34 33  2  0  0  0  0
 35 33  1  0  0  0  0
 36 37  1  0  0  0  0
 36 34  1  0  0  0  0
 37 35  2  0  0  0  0
 38 39  1  0  0  0  0
 38 36  1  0  0  0  0
 40 39  1  0  0  0  0
 41 40  1  0  0  0  0
 42 40  1  0  0  0  0
 43 44  1  0  0  0  0
 43 41  1  0  0  0  0
 44 42  1  0  0  0  0
 45 46  1  0  0  0  0
 47 46  1  0  0  0  0
 47 48  1  0  0  0  0
 48 49  1  0  0  0  0
 49 50  1  0  0  0  0
M  END
>  <REMARK>
 VINA RESULT:    -4.385      6.719     11.791
 INTER + INTRA:         -14.095
 INTER:                  -8.468
 INTRA:                  -5.627
 UNBOUND:                -5.994
 SMILES CC(=O)N[C@@H]1[C@@H](O)C[C@](O)(C(=O)O)O[C@H]1C(O)[C@H](O)CNC(=O)OCc1cn(CCN2CCCC2)nn1
 SMILES IDX 21 1 22 2 23 3 20 5 18 6 16 7 15 8 9 9 8 10 14 11 6 12 5 13
 SMILES IDX 10 14 11 16 12 17 13 18 7 20 4 22 2 23 1 25 3 26 17 27 19 29
 SMILES IDX 24 31 25 32 26 33 27 34 37 35 28 36 36 37 29 38 30 39 31 40
 SMILES IDX 32 41 35 42 33 43 34 44
 H PARENT 21 4 10 15 13 19 7 21 4 24 17 28 19 30
 Flexibility Score: inf
  4 active torsions:
  status: ('A' for Active; 'I' for Inactive)
    1  A    between atoms: CA   and  CB  
    2  A    between atoms: CB   and  CG  
    3  A    between atoms: CG   and  CD  
    4  A    between atoms: CD   and  CE  

>  <TORSDO>
F 17

>  <BEGIN_>
RES LYS A 131

$$$$
ligand_14_pose_9_2HRL.pdbqt
 OpenBabel07062320523D

  6  5  0  0  0  0  0  0  0  0999 V2000
   33.1930   34.6630    9.2900 C   0  0  0  0  0  0  0  0  0  0  0  0
   32.0600   35.3600   10.0340 C   0  0  0  0  0  0  0  0  0  0  0  0
   30.7030   34.7630    9.7610 C   0  0  0  0  0  0  0  0  0  0  0  0
   30.5160   34.5140    8.2730 C   0  0  0  0  0  0  0  0  0  0  0  0
   29.1390   34.9650    7.8260 C   0  0  0  0  0  0  0  0  0  0  0  0
   28.0710   34.2740    8.6000 N   0  0  0  0  0  0  0  0  0  0  0  0
  1  2  1  0  0  0  0
  3  2  1  0  0  0  0
  4  3  1  0  0  0  0
  5  4  1  0  0  0  0
  5  6  1  0  0  0  0
M  END
>  <EGIN_R>
ES LYS A 135

>  <REMARK>
  4 active torsions:
  status: ('A' for Active; 'I' for Inactive)
    5  A    between atoms: CA   and  CB  
    6  A    between atoms: CB   and  CG  
    7  A    between atoms: CG   and  CD  
    8  A    between atoms: CD   and  CE  

$$$$
