ligand_39_pose_10_2HRL.pdbqt
 OpenBabel07062320523D

 51 52  0  0  1  0  0  0  0  0999 V2000
   30.2010   35.0320   15.0100 N   0  0  0  0  0  0  0  0  0  0  0  0
   29.7600   35.2050   13.6930 C   0  0  0  0  0  0  0  0  0  0  0  0
   30.2870   34.5200   12.7730 O   0  0  0  0  0  0  0  0  0  0  0  0
   29.7330   35.6230   15.7520 H   0  0  0  0  0  0  0  0  0  0  0  0
   31.2390   34.1130   15.4230 C   0  0  0  0  0  0  0  0  0  0  0  0
   30.6350   32.7470   15.6660 C   0  0  2  0  0  0  0  0  0  0  0  0
   30.6210   32.4060   17.1410 C   0  0  2  0  0  0  0  0  0  0  0  0
   29.2670   31.9010   17.5970 C   0  0  2  0  0  0  0  0  0  0  0  0
   27.8690   30.0550   17.3130 C   0  0  2  0  0  0  0  0  0  0  0  0
   26.7230   30.9040   16.9130 C   0  0  0  0  0  0  0  0  0  0  0  0
   29.0630   30.6900   17.0080 O   0  0  0  0  0  0  0  0  0  0  0  0
   26.9890   32.3330   16.6380 C   0  0  1  0  0  0  0  0  0  0  0  0
   28.1880   32.9130   17.3310 C   0  0  1  0  0  0  0  0  0  0  0  0
   27.8650   28.8840   16.5120 O   0  0  0  0  0  0  0  0  0  0  0  0
   27.7710   29.1110   15.5500 H   0  0  0  0  0  0  0  0  0  0  0  0
   27.7720   29.6320   18.7120 C   0  0  0  0  0  0  0  0  0  0  0  0
   27.0050   30.1820   19.5490 O   0  0  0  0  0  0  0  0  0  0  0  0
   28.5550   28.5770   19.1580 O   0  0  0  0  0  0  0  0  0  0  0  0
   28.2480   27.6120   19.1310 H   0  0  0  0  0  0  0  0  0  0  0  0
   27.0570   32.5600   15.2500 O   0  0  0  0  0  0  0  0  0  0  0  0
   27.9800   32.9430   15.1060 H   0  0  0  0  0  0  0  0  0  0  0  0
   27.8110   33.6430   18.5210 N   0  0  0  0  0  0  0  0  0  0  0  0
   28.1470   35.0060   18.7220 C   0  0  0  0  0  0  0  0  0  0  0  0
   27.2710   33.1620   19.2660 H   0  0  0  0  0  0  0  0  0  0  0  0
   27.7670   35.7730   19.9420 C   0  0  0  0  0  0  0  0  0  0  0  0
   28.8110   35.5750   17.7910 O   0  0  0  0  0  0  0  0  0  0  0  0
   31.0490   33.5020   17.8830 O   0  0  0  0  0  0  0  0  0  0  0  0
   32.0360   33.4050   18.0550 H   0  0  0  0  0  0  0  0  0  0  0  0
   31.4660   31.8430   14.9640 O   0  0  0  0  0  0  0  0  0  0  0  0
   32.2790   32.2660   14.6440 H   0  0  0  0  0  0  0  0  0  0  0  0
   28.7640   36.0900   13.3080 O   0  0  0  0  0  0  0  0  0  0  0  0
   27.7880   35.6960   12.3580 C   0  0  0  0  0  0  0  0  0  0  0  0
   26.5620   35.1980   13.0160 C   0  0  0  0  0  0  0  0  0  0  0  0
   25.4450   34.6250   12.3910 C   0  0  0  0  0  0  0  0  0  0  0  0
   26.2420   35.1830   14.3150 N   0  0  0  0  0  0  0  0  0  0  0  0
   24.5230   34.2940   13.2790 N   0  0  0  0  0  0  0  0  0  0  0  0
   25.0480   34.6540   14.4750 N   0  0  0  0  0  0  0  0  0  0  0  0
   23.2100   33.7000   13.2010 C   0  0  0  0  0  0  0  0  0  0  0  0
   23.1770   32.2560   13.0120 C   0  0  0  0  0  0  0  0  0  0  0  0
   24.3310   31.4840   13.1660 C   0  0  0  0  0  0  0  0  0  0  0  0
   22.0250   31.5870   12.7120 C   0  0  0  0  0  0  0  0  0  0  0  0
   24.2750   30.1260   13.0180 C   0  0  0  0  0  0  0  0  0  0  0  0
   21.9730   30.2130   12.5620 C   0  0  0  0  0  0  0  0  0  0  0  0
   20.3700   32.5350   12.4230 Br  0  0  0  0  0  0  0  0  0  0  0  0
   23.1110   29.4620   12.7160 C   0  0  0  0  0  0  0  0  0  0  0  0
   29.8670   25.5550   16.9770 C   0  0  0  0  0  0  0  0  0  0  0  0
   28.3450   25.7220   17.0260 C   0  0  0  0  0  0  0  0  0  0  0  0
   27.6010   24.4040   16.8790 C   0  0  0  0  0  0  0  0  0  0  0  0
   26.5080   24.2530   17.9000 C   0  0  0  0  0  0  0  0  0  0  0  0
   25.6510   23.0400   17.5540 C   0  0  0  0  0  0  0  0  0  0  0  0
   24.2480   23.4480   17.3070 N   0  0  0  0  0  0  0  0  0  0  0  0
  1  5  1  0  0  0  0
  1  4  1  0  0  0  0
  2  1  1  0  0  0  0
  3  2  2  0  0  0  0
  6  5  1  1  0  0  0
  6  7  1  0  0  0  0
  7 27  1  1  0  0  0
  8  7  1  6  0  0  0
  9 14  1  6  0  0  0
  9 16  1  0  0  0  0
 10  9  1  0  0  0  0
 11  9  1  0  0  0  0
 11  8  1  0  0  0  0
 12 20  1  6  0  0  0
 12 10  1  0  0  0  0
 12 13  1  0  0  0  0
 13  8  1  0  0  0  0
 13 22  1  1  0  0  0
 15 14  1  0  0  0  0
 16 18  1  0  0  0  0
 16 17  2  0  0  0  0
 19 18  1  0  0  0  0
 21 20  1  0  0  0  0
 22 23  1  0  0  0  0
 22 24  1  0  0  0  0
 23 25  1  0  0  0  0
 26 23  2  0  0  0  0
 27 28  1  0  0  0  0
 29  6  1  0  0  0  0
 30 29  1  0  0  0  0
 31  2  1  0  0  0  0
 32 33  1  0  0  0  0
 32 31  1  0  0  0  0
 33 35  1  0  0  0  0
 34 33  2  0  0  0  0
 34 36  1  0  0  0  0
 35 37  2  0  0  0  0
 36 37  1  0  0  0  0
 38 36  1  0  0  0  0
 39 40  2  0  0  0  0
 39 38  1  0  0  0  0
 41 39  1  0  0  0  0
 42 40  1  0  0  0  0
 43 41  2  0  0  0  0
 43 45  1  0  0  0  0
 44 41  1  0  0  0  0
 45 42  2  0  0  0  0
 46 47  1  0  0  0  0
 48 47  1  0  0  0  0
 48 49  1  0  0  0  0
 50 49  1  0  0  0  0
 51 50  1  0  0  0  0
M  END
>  <REMARK>
 VINA RESULT:    -4.005      3.521      6.301
 INTER + INTRA:         -14.591
 INTER:                  -8.610
 INTRA:                  -5.981
 UNBOUND:                -7.426
 SMILES CC(=O)N[C@@H]1[C@@H](O)C[C@](O)(C(=O)O)O[C@H]1C(O)[C@H](O)CNC(=O)OCc1cn(Cc2ccccc2Br)nn1
 SMILES IDX 21 1 22 2 23 3 20 5 18 6 16 7 15 8 9 9 8 10 14 11 6 12 5 13
 SMILES IDX 10 14 11 16 12 17 13 18 7 20 4 22 2 23 1 25 3 26 17 27 19 29
 SMILES IDX 24 31 25 32 26 33 27 34 38 35 28 36 37 37 29 38 30 39 31 40
 SMILES IDX 35 41 32 42 34 43 36 44 33 45
 H PARENT 21 4 10 15 13 19 7 21 4 24 17 28 19 30
 Flexibility Score: inf
  4 active torsions:
  status: ('A' for Active; 'I' for Inactive)
    1  A    between atoms: CA   and  CB  
    2  A    between atoms: CB   and  CG  
    3  A    between atoms: CG   and  CD  
    4  A    between atoms: CD   and  CE  

>  <TORSDO>
F 16

>  <BEGIN_>
RES LYS A 131

$$$$
ligand_39_pose_10_2HRL.pdbqt
 OpenBabel07062320523D

  6  5  0  0  0  0  0  0  0  0999 V2000
   33.1930   34.6630    9.2900 C   0  0  0  0  0  0  0  0  0  0  0  0
   32.0600   35.3600   10.0340 C   0  0  0  0  0  0  0  0  0  0  0  0
   30.7070   35.1530    9.4030 C   0  0  0  0  0  0  0  0  0  0  0  0
   30.0860   36.4860    9.0170 C   0  0  0  0  0  0  0  0  0  0  0  0
   28.8350   36.2700    8.1870 C   0  0  0  0  0  0  0  0  0  0  0  0
   28.6210   34.8230    7.9050 N   0  0  0  0  0  0  0  0  0  0  0  0
  1  2  1  0  0  0  0
  3  2  1  0  0  0  0
  4  3  1  0  0  0  0
  5  4  1  0  0  0  0
  6  5  1  0  0  0  0
M  END
>  <EGIN_R>
ES LYS A 135

>  <REMARK>
  4 active torsions:
  status: ('A' for Active; 'I' for Inactive)
    5  A    between atoms: CA   and  CB  
    6  A    between atoms: CB   and  CG  
    7  A    between atoms: CG   and  CD  
    8  A    between atoms: CD   and  CE  

$$$$
