ligand_15_pose_12_2HRL.pdbqt
 OpenBabel07062320523D

 50 51  0  0  1  0  0  0  0  0999 V2000
   21.7080   36.0860    9.7780 C   0  0  0  0  0  0  0  0  0  0  0  0
   22.0550   35.8600    8.3370 C   0  0  2  0  0  0  0  0  0  0  0  0
   22.4760   37.0710    7.5820 C   0  0  2  0  0  0  0  0  0  0  0  0
   23.9310   37.4490    7.7740 C   0  0  2  0  0  0  0  0  0  0  0  0
   25.7670   36.5640    8.9350 C   0  0  2  0  0  0  0  0  0  0  0  0
   26.1850   37.9950    9.1350 C   0  0  0  0  0  0  0  0  0  0  0  0
   24.4620   36.4670    8.6010 O   0  0  0  0  0  0  0  0  0  0  0  0
   24.9750   38.7730    9.5950 C   0  0  1  0  0  0  0  0  0  0  0  0
   23.9860   38.8040    8.4220 C   0  0  1  0  0  0  0  0  0  0  0  0
   25.9280   35.8670   10.1650 O   0  0  0  0  0  0  0  0  0  0  0  0
   25.2260   35.1650   10.1490 H   0  0  0  0  0  0  0  0  0  0  0  0
   26.6020   35.8890    7.9030 C   0  0  0  0  0  0  0  0  0  0  0  0
   27.0250   36.4590    6.8830 O   0  0  0  0  0  0  0  0  0  0  0  0
   26.9280   34.5550    8.0800 O   0  0  0  0  0  0  0  0  0  0  0  0
   27.8900   34.2280    8.1840 H   0  0  0  0  0  0  0  0  0  0  0  0
   24.3590   38.0310   10.6020 O   0  0  0  0  0  0  0  0  0  0  0  0
   23.4750   37.6980   10.3550 H   0  0  0  0  0  0  0  0  0  0  0  0
   24.5310   39.7540    7.4930 N   0  0  0  0  0  0  0  0  0  0  0  0
   23.7860   40.7950    6.8900 C   0  0  0  0  0  0  0  0  0  0  0  0
   25.5480   39.7000    7.2240 H   0  0  0  0  0  0  0  0  0  0  0  0
   24.3990   41.7570    5.9260 C   0  0  0  0  0  0  0  0  0  0  0  0
   22.5770   40.9150    7.1720 O   0  0  0  0  0  0  0  0  0  0  0  0
   21.6460   38.1460    7.9850 O   0  0  0  0  0  0  0  0  0  0  0  0
   22.1720   38.7010    8.5990 H   0  0  0  0  0  0  0  0  0  0  0  0
   20.9140   35.3140    7.7110 O   0  0  0  0  0  0  0  0  0  0  0  0
   20.1020   35.4800    8.2520 H   0  0  0  0  0  0  0  0  0  0  0  0
   22.6290   35.5510   10.7270 N   0  0  0  0  0  0  0  0  0  0  0  0
   22.1980   34.5370   11.6580 C   0  0  0  0  0  0  0  0  0  0  0  0
   23.6260   35.8250   10.8370 H   0  0  0  0  0  0  0  0  0  0  0  0
   21.0040   34.1580   11.5940 O   0  0  0  0  0  0  0  0  0  0  0  0
   23.0710   33.9980   12.5900 O   0  0  0  0  0  0  0  0  0  0  0  0
   23.3430   34.8010   13.7310 C   0  0  0  0  0  0  0  0  0  0  0  0
   24.6670   35.4470   13.4990 C   0  0  0  0  0  0  0  0  0  0  0  0
   25.9080   34.9010   13.7660 C   0  0  0  0  0  0  0  0  0  0  0  0
   24.9190   36.6680   12.9900 N   0  0  0  0  0  0  0  0  0  0  0  0
   26.8560   35.7870   13.4190 N   0  0  0  0  0  0  0  0  0  0  0  0
   26.2180   36.8370   12.9570 N   0  0  0  0  0  0  0  0  0  0  0  0
   28.2750   35.6820   13.5050 C   0  0  0  0  0  0  0  0  0  0  0  0
   28.9310   34.4680   13.4290 C   0  0  0  0  0  0  0  0  0  0  0  0
   29.0590   36.8050   13.6700 C   0  0  0  0  0  0  0  0  0  0  0  0
   30.3080   34.3810   13.5130 C   0  0  0  0  0  0  0  0  0  0  0  0
   30.4440   36.7230   13.7550 C   0  0  0  0  0  0  0  0  0  0  0  0
   31.0900   35.5120   13.6780 C   0  0  0  0  0  0  0  0  0  0  0  0
   32.9840   35.3350   13.7880 Br  0  0  0  0  0  0  0  0  0  0  0  0
   29.8670   25.5550   16.9770 C   0  0  0  0  0  0  0  0  0  0  0  0
   28.3450   25.7220   17.0260 C   0  0  0  0  0  0  0  0  0  0  0  0
   27.5990   24.4350   16.7100 C   0  0  0  0  0  0  0  0  0  0  0  0
   26.9960   23.8130   17.9390 C   0  0  0  0  0  0  0  0  0  0  0  0
   25.6160   23.2560   17.6030 C   0  0  0  0  0  0  0  0  0  0  0  0
   24.8050   24.2730   16.8940 N   0  0  0  0  0  0  0  0  0  0  0  0
  1 27  1  0  0  0  0
  2  1  1  1  0  0  0
  3 23  1  1  0  0  0
  3  2  1  0  0  0  0
  4  3  1  1  0  0  0
  4  9  1  0  0  0  0
  4  7  1  0  0  0  0
  5 12  1  6  0  0  0
  5  6  1  0  0  0  0
  5 10  1  0  0  0  0
  6  8  1  0  0  0  0
  7  5  1  0  0  0  0
  8 16  1  1  0  0  0
  9 18  1  6  0  0  0
  9  8  1  0  0  0  0
 11 10  1  0  0  0  0
 12 14  1  0  0  0  0
 13 12  2  0  0  0  0
 14 15  1  0  0  0  0
 17 16  1  0  0  0  0
 19 22  2  0  0  0  0
 19 18  1  0  0  0  0
 20 18  1  0  0  0  0
 21 19  1  0  0  0  0
 23 24  1  0  0  0  0
 25 26  1  0  0  0  0
 25  2  1  0  0  0  0
 27 29  1  0  0  0  0
 27 28  1  0  0  0  0
 28 31  1  0  0  0  0
 30 28  2  0  0  0  0
 31 32  1  0  0  0  0
 33 32  1  0  0  0  0
 33 34  2  0  0  0  0
 35 33  1  0  0  0  0
 36 38  1  0  0  0  0
 36 34  1  0  0  0  0
 37 35  2  0  0  0  0
 37 36  1  0  0  0  0
 38 40  1  0  0  0  0
 39 38  2  0  0  0  0
 39 41  1  0  0  0  0
 40 42  2  0  0  0  0
 41 43  2  0  0  0  0
 43 42  1  0  0  0  0
 43 44  1  0  0  0  0
 45 46  1  0  0  0  0
 47 46  1  0  0  0  0
 47 48  1  0  0  0  0
 49 48  1  0  0  0  0
 50 49  1  0  0  0  0
M  END
>  <REMARK>
 VINA RESULT:    -5.190      8.779     13.196
 INTER + INTRA:         -14.144
 INTER:                  -8.091
 INTRA:                  -6.053
 UNBOUND:                -5.161
 SMILES CC(=O)N[C@@H]1[C@@H](O)C[C@](O)(C(=O)O)O[C@H]1C(O)[C@H](O)CNC(=O)OCc1cn(-c2ccc(Br)cc2)nn1
 SMILES IDX 20 1 18 2 16 3 15 4 9 5 8 6 14 7 6 8 5 9 10 10 11 12 12 13
 SMILES IDX 13 14 7 16 4 18 2 19 1 21 3 22 17 23 19 25 21 27 22 28 23 30
 SMILES IDX 24 31 25 32 26 33 27 34 37 35 28 36 36 37 29 38 30 39 35 40
 SMILES IDX 31 41 34 42 32 43 33 44
 H PARENT 10 11 13 15 7 17 4 20 17 24 19 26 21 29
 Flexibility Score: inf
  4 active torsions:
  status: ('A' for Active; 'I' for Inactive)
    1  A    between atoms: CA   and  CB  
    2  A    between atoms: CB   and  CG  
    3  A    between atoms: CG   and  CD  
    4  A    between atoms: CD   and  CE  

>  <TORSDO>
F 15

>  <BEGIN_>
RES LYS A 131

$$$$
ligand_15_pose_12_2HRL.pdbqt
 OpenBabel07062320523D

  6  5  0  0  0  0  0  0  0  0999 V2000
   33.1930   34.6630    9.2900 C   0  0  0  0  0  0  0  0  0  0  0  0
   32.0600   35.3600   10.0340 C   0  0  0  0  0  0  0  0  0  0  0  0
   30.7390   35.3030    9.3110 C   0  0  0  0  0  0  0  0  0  0  0  0
   29.6670   36.0450   10.0930 C   0  0  0  0  0  0  0  0  0  0  0  0
   29.7290   37.5320    9.8020 C   0  0  0  0  0  0  0  0  0  0  0  0
   29.9150   37.7870    8.3460 N   0  0  0  0  0  0  0  0  0  0  0  0
  1  2  1  0  0  0  0
  3  2  1  0  0  0  0
  3  4  1  0  0  0  0
  5  4  1  0  0  0  0
  6  5  1  0  0  0  0
M  END
>  <EGIN_R>
ES LYS A 135

>  <REMARK>
  4 active torsions:
  status: ('A' for Active; 'I' for Inactive)
    5  A    between atoms: CA   and  CB  
    6  A    between atoms: CB   and  CG  
    7  A    between atoms: CG   and  CD  
    8  A    between atoms: CD   and  CE  

$$$$
