ligand_77_pose_16_2HRL.pdbqt
 OpenBabel07062320523D

 61 63  0  0  1  0  0  0  0  0999 V2000
   25.4320   40.5840    7.4430 N   0  0  0  0  0  0  0  0  0  0  0  0
   26.6260   40.9650    8.0980 C   0  0  0  0  0  0  0  0  0  0  0  0
   26.5780   41.6560    9.1220 O   0  0  0  0  0  0  0  0  0  0  0  0
   25.5700   39.9850    6.5700 H   0  0  0  0  0  0  0  0  0  0  0  0
   24.0970   40.9400    7.8660 C   0  0  0  0  0  0  0  0  0  0  0  0
   23.3580   39.7070    8.2560 C   0  0  2  0  0  0  0  0  0  0  0  0
   24.1360   38.4380    7.9770 C   0  0  1  0  0  0  0  0  0  0  0  0
   24.2220   37.4960    9.1290 C   0  0  2  0  0  0  0  0  0  0  0  0
   25.5890   35.7690    9.8490 C   0  0  2  0  0  0  0  0  0  0  0  0
   24.5520   35.3990   10.8630 C   0  0  0  0  0  0  0  0  0  0  0  0
   25.5000   37.0830    9.4240 O   0  0  0  0  0  0  0  0  0  0  0  0
   23.1690   35.8230   10.5220 C   0  0  1  0  0  0  0  0  0  0  0  0
   23.1950   36.3910    9.0930 C   0  0  1  0  0  0  0  0  0  0  0  0
   25.5860   34.8710    8.7570 O   0  0  0  0  0  0  0  0  0  0  0  0
   24.7530   34.3700    8.7730 H   0  0  0  0  0  0  0  0  0  0  0  0
   26.9250   35.6100   10.4940 C   0  0  0  0  0  0  0  0  0  0  0  0
   27.3660   34.4360   10.6930 O   0  0  0  0  0  0  0  0  0  0  0  0
   27.7170   36.6570   10.8900 O   0  0  0  0  0  0  0  0  0  0  0  0
   27.8670   37.4540   10.2730 H   0  0  0  0  0  0  0  0  0  0  0  0
   22.2300   34.8100   10.6290 O   0  0  0  0  0  0  0  0  0  0  0  0
   22.6830   33.9750   10.9710 H   0  0  0  0  0  0  0  0  0  0  0  0
   21.8990   37.0010    8.8220 N   0  0  0  0  0  0  0  0  0  0  0  0
   20.8740   36.2450    8.2000 C   0  0  0  0  0  0  0  0  0  0  0  0
   21.6870   37.9900    9.0700 H   0  0  0  0  0  0  0  0  0  0  0  0
   19.5260   36.8470    7.9040 C   0  0  0  0  0  0  0  0  0  0  0  0
   21.0240   35.0520    7.8630 O   0  0  0  0  0  0  0  0  0  0  0  0
   23.5200   37.8550    6.8620 O   0  0  0  0  0  0  0  0  0  0  0  0
   22.7900   38.4460    6.5790 H   0  0  0  0  0  0  0  0  0  0  0  0
   22.0820   39.6940    7.7110 O   0  0  0  0  0  0  0  0  0  0  0  0
   21.6810   38.8020    7.8680 H   0  0  0  0  0  0  0  0  0  0  0  0
   27.8880   40.5950    7.6430 O   0  0  0  0  0  0  0  0  0  0  0  0
   29.0750   41.1810    8.1560 C   0  0  0  0  0  0  0  0  0  0  0  0
   30.0190   40.1530    8.6770 C   0  0  0  0  0  0  0  0  0  0  0  0
   30.0350   39.7110    9.9720 C   0  0  0  0  0  0  0  0  0  0  0  0
   30.9850   39.4950    8.0210 N   0  0  0  0  0  0  0  0  0  0  0  0
   31.0170   38.7860   10.0790 N   0  0  0  0  0  0  0  0  0  0  0  0
   31.5550   38.6900    8.8950 N   0  0  0  0  0  0  0  0  0  0  0  0
   31.3220   38.1090   11.2880 C   0  0  0  0  0  0  0  0  0  0  0  0
   30.6840   38.4590   12.4580 C   0  0  0  0  0  0  0  0  0  0  0  0
   32.2500   37.0930   11.3510 C   0  0  0  0  0  0  0  0  0  0  0  0
   30.9510   37.8250   13.6600 C   0  0  0  0  0  0  0  0  0  0  0  0
   32.5280   36.4460   12.5590 C   0  0  0  0  0  0  0  0  0  0  0  0
   31.8780   36.8130   13.7130 C   0  0  0  0  0  0  0  0  0  0  0  0
   32.2110   36.0210   15.2130 S   0  0  0  0  0  0  0  0  0  0  0  0
   31.8200   36.9020   16.3510 O   0  0  0  0  0  0  0  0  0  0  0  0
   33.6620   35.6760   15.3740 O   0  0  0  0  0  0  0  0  0  0  0  0
   31.3060   34.5110   15.2330 C   0  0  0  0  0  0  0  0  0  0  0  0
   31.8260   33.4390   15.9070 C   0  0  0  0  0  0  0  0  0  0  0  0
   30.0810   34.3890   14.5840 C   0  0  0  0  0  0  0  0  0  0  0  0
   31.1460   32.2280   15.9490 C   0  0  0  0  0  0  0  0  0  0  0  0
   29.3770   33.1960   14.6050 C   0  0  0  0  0  0  0  0  0  0  0  0
   29.9330   32.1430   15.2920 C   0  0  0  0  0  0  0  0  0  0  0  0
   29.2310   30.9170   15.3260 N   0  0  0  0  0  0  0  0  0  0  0  0
   29.7060   30.0500   15.6290 H   0  0  0  0  0  0  0  0  0  0  0  0
   28.2360   30.8930   15.0440 H   0  0  0  0  0  0  0  0  0  0  0  0
   29.8670   25.5550   16.9770 C   0  0  0  0  0  0  0  0  0  0  0  0
   28.3450   25.7220   17.0260 C   0  0  0  0  0  0  0  0  0  0  0  0
   27.5990   24.4760   16.5740 C   0  0  0  0  0  0  0  0  0  0  0  0
   27.0050   23.7210   17.7310 C   0  0  0  0  0  0  0  0  0  0  0  0
   25.4870   23.6880   17.5910 C   0  0  0  0  0  0  0  0  0  0  0  0
   24.8440   24.3400   18.7570 N   0  0  0  0  0  0  0  0  0  0  0  0
  1  5  1  0  0  0  0
  1  2  1  0  0  0  0
  2  3  2  0  0  0  0
  4  1  1  0  0  0  0
  6  5  1  6  0  0  0
  7 27  1  6  0  0  0
  7  6  1  0  0  0  0
  8  7  1  6  0  0  0
  8 11  1  0  0  0  0
  9 14  1  6  0  0  0
  9 16  1  0  0  0  0
  9 10  1  0  0  0  0
 11  9  1  0  0  0  0
 12 20  1  6  0  0  0
 12 10  1  0  0  0  0
 13 22  1  1  0  0  0
 13  8  1  0  0  0  0
 13 12  1  0  0  0  0
 14 15  1  0  0  0  0
 16 17  2  0  0  0  0
 16 18  1  0  0  0  0
 19 18  1  0  0  0  0
 20 21  1  0  0  0  0
 22 24  1  0  0  0  0
 23 22  1  0  0  0  0
 25 23  1  0  0  0  0
 26 23  2  0  0  0  0
 28 27  1  0  0  0  0
 29 30  1  0  0  0  0
 29  6  1  0  0  0  0
 31  2  1  0  0  0  0
 31 32  1  0  0  0  0
 32 33  1  0  0  0  0
 33 34  2  0  0  0  0
 34 36  1  0  0  0  0
 35 33  1  0  0  0  0
 35 37  2  0  0  0  0
 36 38  1  0  0  0  0
 37 36  1  0  0  0  0
 38 40  2  0  0  0  0
 38 39  1  0  0  0  0
 39 41  2  0  0  0  0
 40 42  1  0  0  0  0
 41 43  1  0  0  0  0
 42 43  2  0  0  0  0
 43 44  1  0  0  0  0
 44 47  1  0  0  0  0
 44 46  2  0  0  0  0
 44 45  2  0  0  0  0
 47 48  2  0  0  0  0
 48 50  1  0  0  0  0
 49 51  2  0  0  0  0
 49 47  1  0  0  0  0
 51 52  1  0  0  0  0
 52 53  1  0  0  0  0
 52 50  2  0  0  0  0
 53 54  1  0  0  0  0
 55 53  1  0  0  0  0
 56 57  1  0  0  0  0
 58 57  1  0  0  0  0
 58 59  1  0  0  0  0
 60 59  1  0  0  0  0
 60 61  1  0  0  0  0
M  END
>  <REMARK>
 VINA RESULT:    -5.064      5.808     12.885
 INTER + INTRA:         -16.033
 INTER:                 -10.719
 INTRA:                  -5.314
 UNBOUND:                -6.527
 SMILES CC(=O)N[C@@H]1[C@@H](O)C[C@](O)(C(=O)O)O[C@H]1C(O)[C@H](O)CNC(=O)OCc1cn(-c2ccc(S(=O)(=O)c3ccc(N)cc3)cc2)nn1
 SMILES IDX 21 1 22 2 23 3 20 5 18 6 16 7 15 8 9 9 8 10 14 11 6 12 5 13
 SMILES IDX 10 14 11 16 12 17 13 18 7 20 4 22 2 23 1 25 3 26 17 27 19 29
 SMILES IDX 24 31 25 32 26 33 27 34 46 35 28 36 45 37 29 38 30 39 44 40
 SMILES IDX 31 41 43 42 32 43 33 44 34 45 35 46 36 47 37 48 42 49 38 50
 SMILES IDX 41 51 39 52 40 53
 H PARENT 21 4 10 15 13 19 7 21 4 24 17 28 19 30 40 54 40 55
 Flexibility Score: inf
  4 active torsions:
  status: ('A' for Active; 'I' for Inactive)
    1  A    between atoms: CA   and  CB  
    2  A    between atoms: CB   and  CG  
    3  A    between atoms: CG   and  CD  
    4  A    between atoms: CD   and  CE  

>  <TORSDO>
F 18

>  <BEGIN_>
RES LYS A 131

$$$$
ligand_77_pose_16_2HRL.pdbqt
 OpenBabel07062320523D

  6  5  0  0  0  0  0  0  0  0999 V2000
   33.1930   34.6630    9.2900 C   0  0  0  0  0  0  0  0  0  0  0  0
   32.0600   35.3600   10.0340 C   0  0  0  0  0  0  0  0  0  0  0  0
   30.6920   34.8480    9.6650 C   0  0  0  0  0  0  0  0  0  0  0  0
   30.6150   34.5490    8.1750 C   0  0  0  0  0  0  0  0  0  0  0  0
   29.2790   34.9930    7.6110 C   0  0  0  0  0  0  0  0  0  0  0  0
   29.1080   36.4680    7.7340 N   0  0  0  0  0  0  0  0  0  0  0  0
  1  2  1  0  0  0  0
  3  2  1  0  0  0  0
  4  3  1  0  0  0  0
  5  6  1  0  0  0  0
  5  4  1  0  0  0  0
M  END
>  <EGIN_R>
ES LYS A 135

>  <REMARK>
  4 active torsions:
  status: ('A' for Active; 'I' for Inactive)
    5  A    between atoms: CA   and  CB  
    6  A    between atoms: CB   and  CG  
    7  A    between atoms: CG   and  CD  
    8  A    between atoms: CD   and  CE  

$$$$
