ligand_23_pose_12_2HRL.pdbqt
 OpenBabel07062320523D

 55 56  0  0  1  0  0  0  0  0999 V2000
   30.4100   32.6430   17.4240 N   0  0  0  0  0  0  0  0  0  0  0  0
   31.0050   33.0870   16.2150 C   0  0  0  0  0  0  0  0  0  0  0  0
   31.4910   32.2440   15.4420 O   0  0  0  0  0  0  0  0  0  0  0  0
   30.0160   33.4130   18.0320 H   0  0  0  0  0  0  0  0  0  0  0  0
   30.3430   31.2550   17.8000 C   0  0  0  0  0  0  0  0  0  0  0  0
   29.0560   30.9530   18.5380 C   0  0  2  0  0  0  0  0  0  0  0  0
   27.8770   31.2140   17.6110 C   0  0  1  0  0  0  0  0  0  0  0  0
   26.6730   30.4340   18.1330 C   0  0  2  0  0  0  0  0  0  0  0  0
   26.8220   28.1340   18.3830 C   0  0  2  0  0  0  0  0  0  0  0  0
   25.3620   27.9180   18.0600 C   0  0  0  0  0  0  0  0  0  0  0  0
   27.0760   29.3880   18.9030 O   0  0  0  0  0  0  0  0  0  0  0  0
   24.6980   29.1350   17.5120 C   0  0  1  0  0  0  0  0  0  0  0  0
   25.7790   30.0780   16.9840 C   0  0  1  0  0  0  0  0  0  0  0  0
   27.6380   27.9070   17.2790 O   0  0  0  0  0  0  0  0  0  0  0  0
   28.2600   27.1430   17.4930 H   0  0  0  0  0  0  0  0  0  0  0  0
   27.1870   27.1380   19.4260 C   0  0  0  0  0  0  0  0  0  0  0  0
   26.3170   26.6050   20.1640 O   0  0  0  0  0  0  0  0  0  0  0  0
   28.5090   26.7450   19.6360 O   0  0  0  0  0  0  0  0  0  0  0  0
   29.1910   26.8140   18.8890 H   0  0  0  0  0  0  0  0  0  0  0  0
   23.7570   28.8740   16.5320 O   0  0  0  0  0  0  0  0  0  0  0  0
   23.8490   27.9640   16.1300 H   0  0  0  0  0  0  0  0  0  0  0  0
   25.1510   31.3030   16.5200 N   0  0  0  0  0  0  0  0  0  0  0  0
   24.8120   31.5170   15.1510 C   0  0  0  0  0  0  0  0  0  0  0  0
   24.9390   32.0630   17.2240 H   0  0  0  0  0  0  0  0  0  0  0  0
   24.1720   32.8090   14.7920 C   0  0  0  0  0  0  0  0  0  0  0  0
   25.0680   30.6140   14.3370 O   0  0  0  0  0  0  0  0  0  0  0  0
   27.5800   32.5630   17.6760 O   0  0  0  0  0  0  0  0  0  0  0  0
   28.2340   33.0490   18.2330 H   0  0  0  0  0  0  0  0  0  0  0  0
   28.9830   31.8070   19.6520 O   0  0  0  0  0  0  0  0  0  0  0  0
   29.8790   32.2280   19.8400 H   0  0  0  0  0  0  0  0  0  0  0  0
   31.0530   34.4440   15.8800 O   0  0  0  0  0  0  0  0  0  0  0  0
   29.9230   35.2780   16.0340 C   0  0  0  0  0  0  0  0  0  0  0  0
   28.9300   34.9910   14.9700 C   0  0  0  0  0  0  0  0  0  0  0  0
   29.1490   35.1550   13.6160 C   0  0  0  0  0  0  0  0  0  0  0  0
   27.6770   34.5380   15.0940 N   0  0  0  0  0  0  0  0  0  0  0  0
   28.0070   34.7870   13.0160 N   0  0  0  0  0  0  0  0  0  0  0  0
   27.1030   34.4090   13.9070 N   0  0  0  0  0  0  0  0  0  0  0  0
   27.7740   34.7940   11.6090 C   0  0  0  0  0  0  0  0  0  0  0  0
   28.7720   35.0330   10.6900 C   0  0  0  0  0  0  0  0  0  0  0  0
   26.5060   34.5540   11.1080 C   0  0  0  0  0  0  0  0  0  0  0  0
   28.5370   35.0390    9.3160 C   0  0  0  0  0  0  0  0  0  0  0  0
   26.2500   34.5540    9.7640 C   0  0  0  0  0  0  0  0  0  0  0  0
   27.2660   34.7960    8.8720 C   0  0  0  0  0  0  0  0  0  0  0  0
   29.7980   35.3410    8.1650 S   0  0  0  0  0  0  0  0  0  0  0  0
   30.3170   36.7390    8.3890 O   0  0  0  0  0  0  0  0  0  0  0  0
   29.2160   35.3210    6.7710 O   0  0  0  0  0  0  0  0  0  0  0  0
   31.0920   34.2260    8.3290 N   0  0  0  0  0  0  0  0  0  0  0  0
   31.8750   34.5060    7.7120 H   0  0  0  0  0  0  0  0  0  0  0  0
   30.7980   33.2440    8.1490 H   0  0  0  0  0  0  0  0  0  0  0  0
   29.8670   25.5550   16.9770 C   0  0  0  0  0  0  0  0  0  0  0  0
   28.3450   25.7220   17.0260 C   0  0  0  0  0  0  0  0  0  0  0  0
   27.6060   24.3940   17.0790 C   0  0  0  0  0  0  0  0  0  0  0  0
   26.1190   24.5660   16.9390 C   0  0  0  0  0  0  0  0  0  0  0  0
   25.4040   23.4460   17.6870 C   0  0  0  0  0  0  0  0  0  0  0  0
   25.8950   23.3580   19.0820 N   0  0  0  0  0  0  0  0  0  0  0  0
  1  5  1  0  0  0  0
  1  4  1  0  0  0  0
  2  1  1  0  0  0  0
  3  2  2  0  0  0  0
  6  5  1  6  0  0  0
  6 29  1  0  0  0  0
  7 27  1  1  0  0  0
  7  6  1  0  0  0  0
  8  7  1  6  0  0  0
  8 11  1  0  0  0  0
  9 14  1  6  0  0  0
  9 11  1  0  0  0  0
  9 16  1  0  0  0  0
 10  9  1  0  0  0  0
 12 20  1  6  0  0  0
 12 10  1  0  0  0  0
 13 22  1  1  0  0  0
 13 12  1  0  0  0  0
 13  8  1  0  0  0  0
 14 15  1  0  0  0  0
 16 18  1  0  0  0  0
 16 17  2  0  0  0  0
 19 18  1  0  0  0  0
 21 20  1  0  0  0  0
 22 24  1  0  0  0  0
 23 22  1  0  0  0  0
 25 23  1  0  0  0  0
 26 23  2  0  0  0  0
 27 28  1  0  0  0  0
 29 30  1  0  0  0  0
 31 32  1  0  0  0  0
 31  2  1  0  0  0  0
 33 35  1  0  0  0  0
 33 32  1  0  0  0  0
 34 33  2  0  0  0  0
 36 34  1  0  0  0  0
 36 37  1  0  0  0  0
 37 35  2  0  0  0  0
 38 36  1  0  0  0  0
 39 38  2  0  0  0  0
 40 38  1  0  0  0  0
 41 39  1  0  0  0  0
 42 40  2  0  0  0  0
 43 41  2  0  0  0  0
 43 42  1  0  0  0  0
 44 47  1  0  0  0  0
 44 45  2  0  0  0  0
 44 41  1  0  0  0  0
 46 44  2  0  0  0  0
 48 47  1  0  0  0  0
 49 47  1  0  0  0  0
 50 51  1  0  0  0  0
 51 52  1  0  0  0  0
 53 52  1  0  0  0  0
 53 54  1  0  0  0  0
 54 55  1  0  0  0  0
M  END
>  <REMARK>
 VINA RESULT:    -4.303      3.520      9.609
 INTER + INTRA:         -14.449
 INTER:                 -10.216
 INTRA:                  -4.233
 UNBOUND:                -6.624
 SMILES CC(=O)N[C@@H]1[C@@H](O)C[C@](O)(C(=O)O)O[C@H]1C(O)[C@H](O)CNC(=O)OCc1cn(-c2cccc(S(N)(=O)=O)c2)nn1
 SMILES IDX 21 1 22 2 23 3 20 5 18 6 16 7 15 8 9 9 8 10 14 11 6 12 5 13
 SMILES IDX 10 14 11 16 12 17 13 18 7 20 4 22 2 23 1 25 3 26 17 27 19 29
 SMILES IDX 24 31 25 32 26 33 27 34 40 35 28 36 39 37 29 38 38 39 30 40
 SMILES IDX 33 41 31 42 32 43 34 44 36 45 37 46 35 47
 H PARENT 21 4 10 15 13 19 7 21 4 24 17 28 19 30 35 48 35 49
 Flexibility Score: inf
  4 active torsions:
  status: ('A' for Active; 'I' for Inactive)
    1  A    between atoms: CA   and  CB  
    2  A    between atoms: CB   and  CG  
    3  A    between atoms: CG   and  CD  
    4  A    between atoms: CD   and  CE  

>  <TORSDO>
F 17

>  <BEGIN_>
RES LYS A 131

$$$$
ligand_23_pose_12_2HRL.pdbqt
 OpenBabel07062320523D

  6  5  0  0  0  0  0  0  0  0999 V2000
   33.1930   34.6630    9.2900 C   0  0  0  0  0  0  0  0  0  0  0  0
   32.0600   35.3600   10.0340 C   0  0  0  0  0  0  0  0  0  0  0  0
   32.5020   36.0420   11.3030 C   0  0  0  0  0  0  0  0  0  0  0  0
   31.8520   37.4110   11.4310 C   0  0  0  0  0  0  0  0  0  0  0  0
   31.5190   37.7090   12.8800 C   0  0  0  0  0  0  0  0  0  0  0  0
   32.2700   36.8090   13.7990 N   0  0  0  0  0  0  0  0  0  0  0  0
  1  2  1  0  0  0  0
  2  3  1  0  0  0  0
  3  4  1  0  0  0  0
  4  5  1  0  0  0  0
  5  6  1  0  0  0  0
M  END
>  <EGIN_R>
ES LYS A 135

>  <REMARK>
  4 active torsions:
  status: ('A' for Active; 'I' for Inactive)
    5  A    between atoms: CA   and  CB  
    6  A    between atoms: CB   and  CG  
    7  A    between atoms: CG   and  CD  
    8  A    between atoms: CD   and  CE  

$$$$
