ligand_55_pose_11_2HRL.pdbqt
 OpenBabel07062320523D

 51 51  0  0  1  0  0  0  0  0999 V2000
   27.1000   35.7980    7.2800 N   0  0  0  0  0  0  0  0  0  0  0  0
   26.9600   34.9190    8.3730 C   0  0  0  0  0  0  0  0  0  0  0  0
   27.8620   34.1590    8.7610 O   0  0  0  0  0  0  0  0  0  0  0  0
   26.2590   36.4080    7.0470 H   0  0  0  0  0  0  0  0  0  0  0  0
   28.2520   35.9410    6.4710 C   0  0  0  0  0  0  0  0  0  0  0  0
   28.3770   37.2160    5.6750 C   0  0  2  0  0  0  0  0  0  0  0  0
   28.7190   38.3050    6.6440 C   0  0  2  0  0  0  0  0  0  0  0  0
   27.7380   39.4250    6.7860 C   0  0  2  0  0  0  0  0  0  0  0  0
   25.4470   39.7570    7.1570 C   0  0  2  0  0  0  0  0  0  0  0  0
   25.4620   40.9900    6.3200 C   0  0  0  0  0  0  0  0  0  0  0  0
   26.5300   38.9690    7.1240 O   0  0  0  0  0  0  0  0  0  0  0  0
   26.4870   40.9580    5.2180 C   0  0  1  0  0  0  0  0  0  0  0  0
   27.8040   40.4520    5.6970 C   0  0  1  0  0  0  0  0  0  0  0  0
   24.3260   38.9980    6.7980 O   0  0  0  0  0  0  0  0  0  0  0  0
   23.9450   39.3740    5.9760 H   0  0  0  0  0  0  0  0  0  0  0  0
   25.2230   40.1700    8.5730 C   0  0  0  0  0  0  0  0  0  0  0  0
   25.8780   39.7340    9.5380 O   0  0  0  0  0  0  0  0  0  0  0  0
   24.2210   41.1100    8.8780 O   0  0  0  0  0  0  0  0  0  0  0  0
   23.8920   41.7710    8.1870 H   0  0  0  0  0  0  0  0  0  0  0  0
   25.9600   40.2510    4.1450 O   0  0  0  0  0  0  0  0  0  0  0  0
   26.6730   40.2020    3.4580 H   0  0  0  0  0  0  0  0  0  0  0  0
   28.6090   41.5990    6.0740 N   0  0  0  0  0  0  0  0  0  0  0  0
   29.7800   42.0010    5.3760 C   0  0  0  0  0  0  0  0  0  0  0  0
   28.3540   42.2070    6.9090 H   0  0  0  0  0  0  0  0  0  0  0  0
   30.5800   43.1960    5.8060 C   0  0  0  0  0  0  0  0  0  0  0  0
   30.1150   41.3080    4.3810 O   0  0  0  0  0  0  0  0  0  0  0  0
   29.9770   38.8010    6.1900 O   0  0  0  0  0  0  0  0  0  0  0  0
   29.9100   39.1260    5.2680 H   0  0  0  0  0  0  0  0  0  0  0  0
   27.2410   37.4000    4.9350 O   0  0  0  0  0  0  0  0  0  0  0  0
   26.5310   37.8170    5.4380 H   0  0  0  0  0  0  0  0  0  0  0  0
   25.7570   34.8790    9.0710 O   0  0  0  0  0  0  0  0  0  0  0  0
   25.3970   35.8060   10.0630 C   0  0  0  0  0  0  0  0  0  0  0  0
   24.2180   36.5900    9.6460 C   0  0  0  0  0  0  0  0  0  0  0  0
   23.4410   37.4490   10.3980 C   0  0  0  0  0  0  0  0  0  0  0  0
   23.6900   36.5970    8.4260 N   0  0  0  0  0  0  0  0  0  0  0  0
   22.4720   37.9470    9.6180 N   0  0  0  0  0  0  0  0  0  0  0  0
   22.6520   37.4080    8.4180 N   0  0  0  0  0  0  0  0  0  0  0  0
   21.4160   38.8770    9.9230 C   0  0  0  0  0  0  0  0  0  0  0  0
   20.6540   39.3060    8.6820 C   0  0  0  0  0  0  0  0  0  0  0  0
   21.5680   40.0610    7.8520 N   0  0  0  0  0  0  0  0  0  0  0  0
   21.6830   39.6440    6.9180 H   0  0  0  0  0  0  0  0  0  0  0  0
   21.1130   41.7130    7.7170 S   0  0  0  0  0  0  0  0  0  0  0  0
   19.6380   41.7480    7.4080 O   0  0  0  0  0  0  0  0  0  0  0  0
   21.4300   42.4270    8.9910 O   0  0  0  0  0  0  0  0  0  0  0  0
   21.9720   42.4980    6.3720 C   0  0  0  0  0  0  0  0  0  0  0  0
   29.8670   25.5550   16.9770 C   0  0  0  0  0  0  0  0  0  0  0  0
   28.3450   25.7220   17.0260 C   0  0  0  0  0  0  0  0  0  0  0  0
   27.6010   24.4030   16.8870 C   0  0  0  0  0  0  0  0  0  0  0  0
   26.1630   24.5160   17.3110 C   0  0  0  0  0  0  0  0  0  0  0  0
   25.8320   23.3940   18.2910 C   0  0  0  0  0  0  0  0  0  0  0  0
   25.1040   22.3020   17.6020 N   0  0  0  0  0  0  0  0  0  0  0  0
  1  2  1  0  0  0  0
  2  3  2  0  0  0  0
  2 31  1  0  0  0  0
  4  1  1  0  0  0  0
  5  1  1  0  0  0  0
  6  5  1  1  0  0  0
  6  7  1  0  0  0  0
  7 27  1  6  0  0  0
  8  7  1  6  0  0  0
  8 11  1  0  0  0  0
  9 14  1  6  0  0  0
  9 16  1  0  0  0  0
 10  9  1  0  0  0  0
 11  9  1  0  0  0  0
 12 20  1  6  0  0  0
 12 13  1  0  0  0  0
 12 10  1  0  0  0  0
 13 22  1  1  0  0  0
 13  8  1  0  0  0  0
 15 14  1  0  0  0  0
 16 18  1  0  0  0  0
 16 17  2  0  0  0  0
 19 18  1  0  0  0  0
 21 20  1  0  0  0  0
 22 24  1  0  0  0  0
 23 25  1  0  0  0  0
 23 22  1  0  0  0  0
 26 23  2  0  0  0  0
 28 27  1  0  0  0  0
 29 30  1  0  0  0  0
 29  6  1  0  0  0  0
 31 32  1  0  0  0  0
 33 32  1  0  0  0  0
 33 34  2  0  0  0  0
 35 33  1  0  0  0  0
 36 38  1  0  0  0  0
 36 34  1  0  0  0  0
 37 35  2  0  0  0  0
 37 36  1  0  0  0  0
 39 38  1  0  0  0  0
 40 39  1  0  0  0  0
 41 40  1  0  0  0  0
 42 40  1  0  0  0  0
 42 44  2  0  0  0  0
 43 42  2  0  0  0  0
 45 42  1  0  0  0  0
 46 47  1  0  0  0  0
 48 47  1  0  0  0  0
 48 49  1  0  0  0  0
 49 50  1  0  0  0  0
 51 50  1  0  0  0  0
M  END
>  <REMARK>
 VINA RESULT:    -4.349      8.774     14.261
 INTER + INTRA:         -14.567
 INTER:                  -7.982
 INTRA:                  -6.585
 UNBOUND:                -6.277
 SMILES CC(=O)N[C@@H]1[C@@H](O)C[C@](O)(C(=O)O)O[C@H]1C(O)[C@H](O)CNC(=O)OCc1cn(CCNS(C)(=O)=O)nn1
 SMILES IDX 21 1 22 2 23 3 20 5 18 6 16 7 15 8 9 9 8 10 14 11 6 12 5 13
 SMILES IDX 10 14 11 16 12 17 13 18 7 20 4 22 2 23 1 25 3 26 17 27 19 29
 SMILES IDX 24 31 25 32 26 33 27 34 37 35 28 36 36 37 29 38 30 39 31 40
 SMILES IDX 32 42 34 43 35 44 33 45
 H PARENT 21 4 10 15 13 19 7 21 4 24 17 28 19 30 31 41
 Flexibility Score: inf
  4 active torsions:
  status: ('A' for Active; 'I' for Inactive)
    1  A    between atoms: CA   and  CB  
    2  A    between atoms: CB   and  CG  
    3  A    between atoms: CG   and  CD  
    4  A    between atoms: CD   and  CE  

>  <TORSDO>
F 18

>  <BEGIN_>
RES LYS A 131

$$$$
ligand_55_pose_11_2HRL.pdbqt
 OpenBabel07062320523D

  6  5  0  0  0  0  0  0  0  0999 V2000
   33.1930   34.6630    9.2900 C   0  0  0  0  0  0  0  0  0  0  0  0
   32.0600   35.3600   10.0340 C   0  0  0  0  0  0  0  0  0  0  0  0
   30.8430   35.6100    9.1810 C   0  0  0  0  0  0  0  0  0  0  0  0
   30.2890   37.0040    9.4320 C   0  0  0  0  0  0  0  0  0  0  0  0
   29.5330   37.0470   10.7470 C   0  0  0  0  0  0  0  0  0  0  0  0
   28.2520   37.7940   10.6050 N   0  0  0  0  0  0  0  0  0  0  0  0
  1  2  1  0  0  0  0
  3  4  1  0  0  0  0
  3  2  1  0  0  0  0
  4  5  1  0  0  0  0
  6  5  1  0  0  0  0
M  END
>  <EGIN_R>
ES LYS A 135

>  <REMARK>
  4 active torsions:
  status: ('A' for Active; 'I' for Inactive)
    5  A    between atoms: CA   and  CB  
    6  A    between atoms: CB   and  CG  
    7  A    between atoms: CG   and  CD  
    8  A    between atoms: CD   and  CE  

$$$$
