ligand_49_pose_8_2HRL.pdbqt
 OpenBabel07062320523D

 48 49  0  0  1  0  0  0  0  0999 V2000
   28.0480   32.2260   19.8330 C   0  0  0  0  0  0  0  0  0  0  0  0
   28.1010   30.8500   20.4360 C   0  0  2  0  0  0  0  0  0  0  0  0
   29.3140   30.1670   19.8340 C   0  0  1  0  0  0  0  0  0  0  0  0
   29.9830   29.2350   20.7940 C   0  0  2  0  0  0  0  0  0  0  0  0
   31.9750   28.9670   21.9480 C   0  0  2  0  0  0  0  0  0  0  0  0
   31.2400   27.7160   22.4050 C   0  0  0  0  0  0  0  0  0  0  0  0
   31.3410   29.4500   20.8010 O   0  0  0  0  0  0  0  0  0  0  0  0
   30.8080   26.9770   21.1550 C   0  0  1  0  0  0  0  0  0  0  0  0
   29.6680   27.7860   20.5490 C   0  0  1  0  0  0  0  0  0  0  0  0
   33.2800   28.5790   21.6670 O   0  0  0  0  0  0  0  0  0  0  0  0
   33.6180   28.0850   22.4760 H   0  0  0  0  0  0  0  0  0  0  0  0
   31.9990   30.0040   22.9870 C   0  0  0  0  0  0  0  0  0  0  0  0
   31.8940   29.7160   24.2050 O   0  0  0  0  0  0  0  0  0  0  0  0
   32.1390   31.3400   22.6500 O   0  0  0  0  0  0  0  0  0  0  0  0
   32.1230   32.0890   23.3540 H   0  0  0  0  0  0  0  0  0  0  0  0
   31.9060   26.9870   20.2780 O   0  0  0  0  0  0  0  0  0  0  0  0
   31.7500   27.7220   19.6290 H   0  0  0  0  0  0  0  0  0  0  0  0
   28.4270   27.3810   21.1780 N   0  0  0  0  0  0  0  0  0  0  0  0
   27.3010   27.0300   20.4010 C   0  0  0  0  0  0  0  0  0  0  0  0
   28.3560   27.3440   22.2110 H   0  0  0  0  0  0  0  0  0  0  0  0
   26.0010   26.6060   20.9790 C   0  0  0  0  0  0  0  0  0  0  0  0
   27.4040   27.0790   19.1550 O   0  0  0  0  0  0  0  0  0  0  0  0
   28.8490   29.4110   18.7570 O   0  0  0  0  0  0  0  0  0  0  0  0
   28.9740   28.4480   18.8690 H   0  0  0  0  0  0  0  0  0  0  0  0
   26.9700   30.1190   20.1600 O   0  0  0  0  0  0  0  0  0  0  0  0
   26.1870   30.7310   20.1120 H   0  0  0  0  0  0  0  0  0  0  0  0
   28.3360   32.3070   18.4360 N   0  0  0  0  0  0  0  0  0  0  0  0
   27.4200   32.1410   17.3920 C   0  0  0  0  0  0  0  0  0  0  0  0
   29.3530   32.5160   18.1780 H   0  0  0  0  0  0  0  0  0  0  0  0
   26.2200   31.8880   17.6410 O   0  0  0  0  0  0  0  0  0  0  0  0
   27.8390   32.2570   16.0530 O   0  0  0  0  0  0  0  0  0  0  0  0
   28.9450   31.4710   15.6490 C   0  0  0  0  0  0  0  0  0  0  0  0
   30.0790   32.3770   15.3650 C   0  0  0  0  0  0  0  0  0  0  0  0
   30.0420   33.3780   14.4020 C   0  0  0  0  0  0  0  0  0  0  0  0
   31.2880   32.4410   15.9100 N   0  0  0  0  0  0  0  0  0  0  0  0
   31.2240   33.9940   14.4140 N   0  0  0  0  0  0  0  0  0  0  0  0
   31.9720   33.4160   15.3330 N   0  0  0  0  0  0  0  0  0  0  0  0
   31.5640   35.1070   13.5350 C   0  0  0  0  0  0  0  0  0  0  0  0
   30.3810   36.0330   13.4950 C   0  0  0  0  0  0  0  0  0  0  0  0
   32.7130   35.8780   14.1450 C   0  0  0  0  0  0  0  0  0  0  0  0
   30.8730   37.3780   13.9230 C   0  0  0  0  0  0  0  0  0  0  0  0
   32.0500   37.0710   14.8090 C   0  0  0  0  0  0  0  0  0  0  0  0
   29.8670   25.5550   16.9770 C   0  0  0  0  0  0  0  0  0  0  0  0
   28.3450   25.7220   17.0260 C   0  0  0  0  0  0  0  0  0  0  0  0
   27.6020   24.3990   16.9210 C   0  0  0  0  0  0  0  0  0  0  0  0
   26.1230   24.5610   17.1420 C   0  0  0  0  0  0  0  0  0  0  0  0
   25.5650   23.2980   17.7910 C   0  0  0  0  0  0  0  0  0  0  0  0
   25.7290   23.3540   19.2620 N   0  0  0  0  0  0  0  0  0  0  0  0
  2  1  1  6  0  0  0
  3 23  1  6  0  0  0
  3  2  1  0  0  0  0
  4  3  1  6  0  0  0
  4  7  1  0  0  0  0
  5 10  1  6  0  0  0
  5  6  1  0  0  0  0
  5 12  1  0  0  0  0
  7  5  1  0  0  0  0
  8 16  1  6  0  0  0
  8  6  1  0  0  0  0
  9  4  1  0  0  0  0
  9  8  1  0  0  0  0
  9 18  1  1  0  0  0
 10 11  1  0  0  0  0
 12 13  2  0  0  0  0
 14 12  1  0  0  0  0
 14 15  1  0  0  0  0
 17 16  1  0  0  0  0
 18 20  1  0  0  0  0
 19 21  1  0  0  0  0
 19 18  1  0  0  0  0
 22 19  2  0  0  0  0
 23 24  1  0  0  0  0
 25  2  1  0  0  0  0
 26 25  1  0  0  0  0
 27  1  1  0  0  0  0
 28 30  2  0  0  0  0
 28 27  1  0  0  0  0
 29 27  1  0  0  0  0
 31 28  1  0  0  0  0
 32 31  1  0  0  0  0
 33 32  1  0  0  0  0
 33 35  1  0  0  0  0
 34 36  1  0  0  0  0
 34 33  2  0  0  0  0
 36 37  1  0  0  0  0
 37 35  2  0  0  0  0
 38 40  1  0  0  0  0
 38 36  1  0  0  0  0
 39 38  1  0  0  0  0
 39 41  1  0  0  0  0
 40 42  1  0  0  0  0
 41 42  1  0  0  0  0
 43 44  1  0  0  0  0
 45 44  1  0  0  0  0
 45 46  1  0  0  0  0
 46 47  1  0  0  0  0
 47 48  1  0  0  0  0
M  END
>  <REMARK>
 VINA RESULT:    -5.059      3.495      7.708
 INTER + INTRA:         -13.782
 INTER:                  -8.211
 INTRA:                  -5.572
 UNBOUND:                -5.026
 SMILES CC(=O)N[C@@H]1[C@@H](O)C[C@](O)(C(=O)O)O[C@H]1C(O)[C@H](O)CNC(=O)OCc1cn(C2CCCC2)nn1
 SMILES IDX 20 1 18 2 16 3 15 4 9 5 8 6 14 7 6 8 5 9 10 10 11 12 12 13
 SMILES IDX 13 14 7 16 4 18 2 19 1 21 3 22 17 23 19 25 21 27 22 28 23 30
 SMILES IDX 24 31 25 32 26 33 27 34 35 35 28 36 34 37 29 38 30 39 33 40
 SMILES IDX 31 41 32 42
 H PARENT 10 11 13 15 7 17 4 20 17 24 19 26 21 29
 Flexibility Score: inf
  4 active torsions:
  status: ('A' for Active; 'I' for Inactive)
    1  A    between atoms: CA   and  CB  
    2  A    between atoms: CB   and  CG  
    3  A    between atoms: CG   and  CD  
    4  A    between atoms: CD   and  CE  

>  <TORSDO>
F 15

>  <BEGIN_>
RES LYS A 131

$$$$
ligand_49_pose_8_2HRL.pdbqt
 OpenBabel07062320523D

  6  5  0  0  0  0  0  0  0  0999 V2000
   33.1930   34.6630    9.2900 C   0  0  0  0  0  0  0  0  0  0  0  0
   32.0600   35.3600   10.0340 C   0  0  0  0  0  0  0  0  0  0  0  0
   30.7070   34.7440    9.7860 C   0  0  0  0  0  0  0  0  0  0  0  0
   30.4860   34.5160    8.2980 C   0  0  0  0  0  0  0  0  0  0  0  0
   29.0670   34.8830    7.9090 C   0  0  0  0  0  0  0  0  0  0  0  0
   28.0810   34.2860    8.8510 N   0  0  0  0  0  0  0  0  0  0  0  0
  1  2  1  0  0  0  0
  3  2  1  0  0  0  0
  4  3  1  0  0  0  0
  5  4  1  0  0  0  0
  5  6  1  0  0  0  0
M  END
>  <EGIN_R>
ES LYS A 135

>  <REMARK>
  4 active torsions:
  status: ('A' for Active; 'I' for Inactive)
    5  A    between atoms: CA   and  CB  
    6  A    between atoms: CB   and  CG  
    7  A    between atoms: CG   and  CD  
    8  A    between atoms: CD   and  CE  

$$$$
