ligand_93_pose_19_2HRL.pdbqt
 OpenBabel07062320523D

 50 51  0  0  1  0  0  0  0  0999 V2000
   18.2090   35.2680    8.6080 C   0  0  0  0  0  0  0  0  0  0  0  0
   19.5780   34.8750    8.1040 C   0  0  2  0  0  0  0  0  0  0  0  0
   20.5550   35.9770    8.3120 C   0  0  1  0  0  0  0  0  0  0  0  0
   21.5790   35.7530    9.3940 C   0  0  2  0  0  0  0  0  0  0  0  0
   21.1500   37.0890   11.2880 C   0  0  2  0  0  0  0  0  0  0  0  0
   22.5560   37.6520   11.2430 C   0  0  0  0  0  0  0  0  0  0  0  0
   20.9640   35.9540   10.5840 O   0  0  0  0  0  0  0  0  0  0  0  0
   22.9400   37.7590    9.7910 C   0  0  1  0  0  0  0  0  0  0  0  0
   22.9040   36.3740    9.1950 C   0  0  1  0  0  0  0  0  0  0  0  0
   20.3300   38.0830   10.7540 O   0  0  0  0  0  0  0  0  0  0  0  0
   20.0070   38.6320   11.5310 H   0  0  0  0  0  0  0  0  0  0  0  0
   20.7880   36.9460   12.7330 C   0  0  0  0  0  0  0  0  0  0  0  0
   21.3740   37.5630   13.6490 O   0  0  0  0  0  0  0  0  0  0  0  0
   19.7600   36.0900   13.0660 O   0  0  0  0  0  0  0  0  0  0  0  0
   19.0310   35.8130   12.4060 H   0  0  0  0  0  0  0  0  0  0  0  0
   22.0240   38.6290    9.1970 O   0  0  0  0  0  0  0  0  0  0  0  0
   22.0420   39.5290    9.6060 H   0  0  0  0  0  0  0  0  0  0  0  0
   23.9380   35.5930    9.8980 N   0  0  0  0  0  0  0  0  0  0  0  0
   25.2790   35.5470    9.4430 C   0  0  0  0  0  0  0  0  0  0  0  0
   23.6910   35.0550   10.7510 H   0  0  0  0  0  0  0  0  0  0  0  0
   26.2580   34.7390   10.2050 C   0  0  0  0  0  0  0  0  0  0  0  0
   25.6420   36.1800    8.4070 O   0  0  0  0  0  0  0  0  0  0  0  0
   21.0850   36.4620    7.1240 O   0  0  0  0  0  0  0  0  0  0  0  0
   21.1080   37.4590    7.1110 H   0  0  0  0  0  0  0  0  0  0  0  0
   19.4030   34.5950    6.7230 O   0  0  0  0  0  0  0  0  0  0  0  0
   19.5970   35.4190    6.1990 H   0  0  0  0  0  0  0  0  0  0  0  0
   17.8430   34.6370    9.8560 N   0  0  0  0  0  0  0  0  0  0  0  0
   17.5660   35.4620   10.9910 C   0  0  0  0  0  0  0  0  0  0  0  0
   17.7850   33.6050    9.8930 H   0  0  0  0  0  0  0  0  0  0  0  0
   17.6510   36.6950   10.8600 O   0  0  0  0  0  0  0  0  0  0  0  0
   17.2170   34.8330   12.1740 O   0  0  0  0  0  0  0  0  0  0  0  0
   17.1780   33.4300   12.2090 C   0  0  0  0  0  0  0  0  0  0  0  0
   18.4100   32.9510   12.8820 C   0  0  0  0  0  0  0  0  0  0  0  0
   19.3520   32.1050   12.2840 C   0  0  0  0  0  0  0  0  0  0  0  0
   18.8690   33.1950   14.1140 N   0  0  0  0  0  0  0  0  0  0  0  0
   20.2970   31.9150   13.2110 N   0  0  0  0  0  0  0  0  0  0  0  0
   20.0150   32.5680   14.3210 N   0  0  0  0  0  0  0  0  0  0  0  0
   21.4540   31.1160   13.0330 C   0  0  0  0  0  0  0  0  0  0  0  0
   21.3010   29.7480   12.8140 C   0  0  0  0  0  0  0  0  0  0  0  0
   22.6880   31.7030   13.0790 C   0  0  0  0  0  0  0  0  0  0  0  0
   22.4210   28.9640   12.6400 C   0  0  0  0  0  0  0  0  0  0  0  0
   23.8000   30.8990   12.9030 C   0  0  0  0  0  0  0  0  0  0  0  0
   22.9690   33.7640   13.4080 I   0  0  0  0  0  0  0  0  0  0  0  0
   23.6720   29.5390   12.6840 C   0  0  0  0  0  0  0  0  0  0  0  0
   29.8670   25.5550   16.9770 C   0  0  0  0  0  0  0  0  0  0  0  0
   28.3450   25.7220   17.0260 C   0  0  0  0  0  0  0  0  0  0  0  0
   27.6010   24.4030   16.8860 C   0  0  0  0  0  0  0  0  0  0  0  0
   26.1510   24.5280   17.2630 C   0  0  0  0  0  0  0  0  0  0  0  0
   26.0200   25.4110   18.4990 C   0  0  0  0  0  0  0  0  0  0  0  0
   24.9960   26.4610   18.2810 N   0  0  0  0  0  0  0  0  0  0  0  0
  1 27  1  0  0  0  0
  2  3  1  0  0  0  0
  2  1  1  6  0  0  0
  3 23  1  6  0  0  0
  4  3  1  6  0  0  0
  4  7  1  0  0  0  0
  5 10  1  6  0  0  0
  5 12  1  0  0  0  0
  6  5  1  0  0  0  0
  7  5  1  0  0  0  0
  8 16  1  6  0  0  0
  8  6  1  0  0  0  0
  9  4  1  0  0  0  0
  9  8  1  0  0  0  0
  9 18  1  1  0  0  0
 10 11  1  0  0  0  0
 12 14  1  0  0  0  0
 12 13  2  0  0  0  0
 15 14  1  0  0  0  0
 16 17  1  0  0  0  0
 18 20  1  0  0  0  0
 19 18  1  0  0  0  0
 19 21  1  0  0  0  0
 22 19  2  0  0  0  0
 24 23  1  0  0  0  0
 25  2  1  0  0  0  0
 26 25  1  0  0  0  0
 27 29  1  0  0  0  0
 27 28  1  0  0  0  0
 28 31  1  0  0  0  0
 30 28  2  0  0  0  0
 31 32  1  0  0  0  0
 32 33  1  0  0  0  0
 33 35  1  0  0  0  0
 34 33  2  0  0  0  0
 34 36  1  0  0  0  0
 35 37  2  0  0  0  0
 36 37  1  0  0  0  0
 38 40  1  0  0  0  0
 38 36  1  0  0  0  0
 39 38  2  0  0  0  0
 40 43  1  0  0  0  0
 41 44  2  0  0  0  0
 41 39  1  0  0  0  0
 42 40  2  0  0  0  0
 44 42  1  0  0  0  0
 45 46  1  0  0  0  0
 47 46  1  0  0  0  0
 47 48  1  0  0  0  0
 48 49  1  0  0  0  0
 50 49  1  0  0  0  0
M  END
>  <REMARK>
 VINA RESULT:    -4.162      6.251      9.735
 INTER + INTRA:         -13.489
 INTER:                  -7.487
 INTRA:                  -6.001
 UNBOUND:                -6.285
 SMILES CC(=O)N[C@@H]1[C@@H](O)C[C@](O)(C(=O)O)O[C@H]1C(O)[C@H](O)CNC(=O)OCc1cn(-c2ccccc2I)nn1
 SMILES IDX 20 1 18 2 16 3 15 4 9 5 8 6 14 7 6 8 5 9 10 10 11 12 12 13
 SMILES IDX 13 14 7 16 4 18 2 19 1 21 3 22 17 23 19 25 21 27 22 28 23 30
 SMILES IDX 24 31 25 32 26 33 27 34 37 35 28 36 36 37 29 38 30 39 34 40
 SMILES IDX 31 41 33 42 35 43 32 44
 H PARENT 10 11 13 15 7 17 4 20 17 24 19 26 21 29
 Flexibility Score: inf
  4 active torsions:
  status: ('A' for Active; 'I' for Inactive)
    1  A    between atoms: CA   and  CB  
    2  A    between atoms: CB   and  CG  
    3  A    between atoms: CG   and  CD  
    4  A    between atoms: CD   and  CE  

>  <TORSDO>
F 15

>  <BEGIN_>
RES LYS A 131

$$$$
ligand_93_pose_19_2HRL.pdbqt
 OpenBabel07062320523D

  6  5  0  0  0  0  0  0  0  0999 V2000
   33.1930   34.6630    9.2900 C   0  0  0  0  0  0  0  0  0  0  0  0
   32.0600   35.3600   10.0340 C   0  0  0  0  0  0  0  0  0  0  0  0
   30.7000   34.7800    9.7410 C   0  0  0  0  0  0  0  0  0  0  0  0
   30.4850   34.6480    8.2420 C   0  0  0  0  0  0  0  0  0  0  0  0
   29.0480   34.9710    7.8800 C   0  0  0  0  0  0  0  0  0  0  0  0
   28.9550   35.5390    6.5060 N   0  0  0  0  0  0  0  0  0  0  0  0
  1  2  1  0  0  0  0
  3  2  1  0  0  0  0
  4  3  1  0  0  0  0
  5  4  1  0  0  0  0
  6  5  1  0  0  0  0
M  END
>  <EGIN_R>
ES LYS A 135

>  <REMARK>
  4 active torsions:
  status: ('A' for Active; 'I' for Inactive)
    5  A    between atoms: CA   and  CB  
    6  A    between atoms: CB   and  CG  
    7  A    between atoms: CG   and  CD  
    8  A    between atoms: CD   and  CE  

$$$$
