ligand_85_pose_12_2HRL.pdbqt
 OpenBabel07062320523D

 55 56  0  0  1  0  0  0  0  0999 V2000
   29.4250   37.6420   14.4410 N   0  0  0  0  0  0  0  0  0  0  0  0
   30.3270   37.3900   13.3970 C   0  0  0  0  0  0  0  0  0  0  0  0
   30.9100   36.2900   13.3210 O   0  0  0  0  0  0  0  0  0  0  0  0
   28.9380   38.5660   14.4930 H   0  0  0  0  0  0  0  0  0  0  0  0
   29.1320   36.6720   15.4630 C   0  0  0  0  0  0  0  0  0  0  0  0
   27.8190   35.9950   15.1640 C   0  0  2  0  0  0  0  0  0  0  0  0
   27.9960   34.6230   14.5650 C   0  0  2  0  0  0  0  0  0  0  0  0
   29.0050   33.8420   15.3170 C   0  0  2  0  0  0  0  0  0  0  0  0
   31.1560   33.0590   15.4480 C   0  0  2  0  0  0  0  0  0  0  0  0
   30.7140   32.7890   16.8640 C   0  0  0  0  0  0  0  0  0  0  0  0
   30.1630   33.5290   14.6260 O   0  0  0  0  0  0  0  0  0  0  0  0
   29.4000   32.0860   16.9490 C   0  0  1  0  0  0  0  0  0  0  0  0
   28.4450   32.5190   15.8410 C   0  0  1  0  0  0  0  0  0  0  0  0
   31.5820   31.8360   14.8980 O   0  0  0  0  0  0  0  0  0  0  0  0
   32.5680   31.7900   15.0890 H   0  0  0  0  0  0  0  0  0  0  0  0
   32.2770   34.0050   15.4050 C   0  0  0  0  0  0  0  0  0  0  0  0
   32.5500   34.6910   16.4200 O   0  0  0  0  0  0  0  0  0  0  0  0
   33.0810   34.2050   14.2940 O   0  0  0  0  0  0  0  0  0  0  0  0
   33.7200   33.4350   14.0430 H   0  0  0  0  0  0  0  0  0  0  0  0
   29.6360   30.6980   16.8820 O   0  0  0  0  0  0  0  0  0  0  0  0
   29.2870   30.3280   17.7370 H   0  0  0  0  0  0  0  0  0  0  0  0
   27.1030   32.6430   16.2960 N   0  0  0  0  0  0  0  0  0  0  0  0
   26.1590   31.6180   16.0310 C   0  0  0  0  0  0  0  0  0  0  0  0
   26.7850   33.4750   16.8280 H   0  0  0  0  0  0  0  0  0  0  0  0
   24.7540   31.7940   16.5330 C   0  0  0  0  0  0  0  0  0  0  0  0
   26.4210   30.5760   15.4050 O   0  0  0  0  0  0  0  0  0  0  0  0
   28.2050   34.7290   13.2130 O   0  0  0  0  0  0  0  0  0  0  0  0
   29.0120   34.1640   12.9910 H   0  0  0  0  0  0  0  0  0  0  0  0
   27.1090   36.7570   14.1850 O   0  0  0  0  0  0  0  0  0  0  0  0
   27.2730   37.7150   14.3020 H   0  0  0  0  0  0  0  0  0  0  0  0
   30.6260   38.3170   12.4030 O   0  0  0  0  0  0  0  0  0  0  0  0
   30.0390   38.1800   11.1240 C   0  0  0  0  0  0  0  0  0  0  0  0
   28.5740   38.1120   11.2180 C   0  0  0  0  0  0  0  0  0  0  0  0
   27.6940   37.2140   10.6520 C   0  0  0  0  0  0  0  0  0  0  0  0
   27.8060   38.9670   11.9140 N   0  0  0  0  0  0  0  0  0  0  0  0
   26.4240   37.5420   11.0140 N   0  0  0  0  0  0  0  0  0  0  0  0
   26.5410   38.6030   11.7740 N   0  0  0  0  0  0  0  0  0  0  0  0
   25.2160   36.8860   10.6560 C   0  0  0  0  0  0  0  0  0  0  0  0
   24.7290   35.8330   11.4160 C   0  0  0  0  0  0  0  0  0  0  0  0
   24.5270   37.3050    9.5410 C   0  0  0  0  0  0  0  0  0  0  0  0
   23.5640   35.1860   11.0870 C   0  0  0  0  0  0  0  0  0  0  0  0
   23.3480   36.6760    9.1810 C   0  0  0  0  0  0  0  0  0  0  0  0
   22.9350   33.8470   12.0440 Cl  0  0  0  0  0  0  0  0  0  0  0  0
   22.8860   35.6200    9.9660 C   0  0  0  0  0  0  0  0  0  0  0  0
   25.0460   38.4040    8.7600 C   0  0  0  0  0  0  0  0  0  0  0  0
   24.7890   39.6140    9.0150 O   0  0  0  0  0  0  0  0  0  0  0  0
   25.8850   38.1440    7.6520 N   0  0  0  0  0  0  0  0  0  0  0  0
   26.2070   36.7770    7.3240 C   0  0  0  0  0  0  0  0  0  0  0  0
   26.4360   39.2110    6.8310 C   0  0  0  0  0  0  0  0  0  0  0  0
   29.8670   25.5550   16.9770 C   0  0  0  0  0  0  0  0  0  0  0  0
   28.3450   25.7220   17.0260 C   0  0  0  0  0  0  0  0  0  0  0  0
   27.6010   24.4010   16.9030 C   0  0  0  0  0  0  0  0  0  0  0  0
   26.1700   24.5130   17.3500 C   0  0  0  0  0  0  0  0  0  0  0  0
   26.0020   25.7600   18.2120 C   0  0  0  0  0  0  0  0  0  0  0  0
   24.6620   25.7780   18.8430 N   0  0  0  0  0  0  0  0  0  0  0  0
  1  4  1  0  0  0  0
  1  5  1  0  0  0  0
  2  1  1  0  0  0  0
  3  2  2  0  0  0  0
  6  5  1  6  0  0  0
  7 27  1  6  0  0  0
  7  6  1  0  0  0  0
  8  7  1  6  0  0  0
  8 13  1  0  0  0  0
  9 14  1  6  0  0  0
  9 10  1  0  0  0  0
 10 12  1  0  0  0  0
 11  8  1  0  0  0  0
 11  9  1  0  0  0  0
 12 20  1  6  0  0  0
 13 22  1  1  0  0  0
 13 12  1  0  0  0  0
 14 15  1  0  0  0  0
 16  9  1  0  0  0  0
 16 17  2  0  0  0  0
 18 16  1  0  0  0  0
 19 18  1  0  0  0  0
 20 21  1  0  0  0  0
 22 24  1  0  0  0  0
 23 22  1  0  0  0  0
 23 25  1  0  0  0  0
 26 23  2  0  0  0  0
 28 27  1  0  0  0  0
 29 30  1  0  0  0  0
 29  6  1  0  0  0  0
 31  2  1  0  0  0  0
 32 33  1  0  0  0  0
 32 31  1  0  0  0  0
 33 35  1  0  0  0  0
 34 36  1  0  0  0  0
 34 33  2  0  0  0  0
 36 37  1  0  0  0  0
 37 35  2  0  0  0  0
 38 36  1  0  0  0  0
 38 39  2  0  0  0  0
 40 38  1  0  0  0  0
 41 39  1  0  0  0  0
 41 43  1  0  0  0  0
 42 40  2  0  0  0  0
 42 44  1  0  0  0  0
 44 41  2  0  0  0  0
 45 46  2  0  0  0  0
 45 40  1  0  0  0  0
 47 45  1  0  0  0  0
 48 47  1  0  0  0  0
 49 47  1  0  0  0  0
 50 51  1  0  0  0  0
 52 51  1  0  0  0  0
 52 53  1  0  0  0  0
 53 54  1  0  0  0  0
 54 55  1  0  0  0  0
M  END
>  <REMARK>
 VINA RESULT:    -4.768      3.035      8.557
 INTER + INTRA:         -14.717
 INTER:                  -8.651
 INTRA:                  -6.066
 UNBOUND:                -6.187
 SMILES CC(=O)N[C@@H]1[C@@H](O)C[C@](O)(C(=O)O)O[C@H]1C(O)[C@H](O)CNC(=O)OCc1cn(-c2cc(Cl)ccc2C(=O)N(C)C)nn1
 SMILES IDX 21 1 22 2 23 3 20 5 18 6 16 7 15 8 9 9 8 10 14 11 6 12 5 13
 SMILES IDX 10 14 11 16 12 17 13 18 7 20 4 22 2 23 1 25 3 26 17 27 19 29
 SMILES IDX 24 31 25 32 26 33 27 34 42 35 28 36 41 37 29 38 30 39 35 40
 SMILES IDX 31 41 34 42 32 43 33 44 36 45 37 46 38 47 39 48 40 49
 H PARENT 21 4 10 15 13 19 7 21 4 24 17 28 19 30
 Flexibility Score: inf
  4 active torsions:
  status: ('A' for Active; 'I' for Inactive)
    1  A    between atoms: CA   and  CB  
    2  A    between atoms: CB   and  CG  
    3  A    between atoms: CG   and  CD  
    4  A    between atoms: CD   and  CE  

>  <TORSDO>
F 16

>  <BEGIN_>
RES LYS A 131

$$$$
ligand_85_pose_12_2HRL.pdbqt
 OpenBabel07062320523D

  6  5  0  0  0  0  0  0  0  0999 V2000
   33.1930   34.6630    9.2900 C   0  0  0  0  0  0  0  0  0  0  0  0
   32.0600   35.3600   10.0340 C   0  0  0  0  0  0  0  0  0  0  0  0
   30.7420   34.6360    9.9400 C   0  0  0  0  0  0  0  0  0  0  0  0
   30.3370   34.4450    8.4860 C   0  0  0  0  0  0  0  0  0  0  0  0
   28.8260   34.4510    8.3490 C   0  0  0  0  0  0  0  0  0  0  0  0
   28.1800   33.7790    9.5100 N   0  0  0  0  0  0  0  0  0  0  0  0
  1  2  1  0  0  0  0
  3  2  1  0  0  0  0
  4  3  1  0  0  0  0
  5  4  1  0  0  0  0
  5  6  1  0  0  0  0
M  END
>  <EGIN_R>
ES LYS A 135

>  <REMARK>
  4 active torsions:
  status: ('A' for Active; 'I' for Inactive)
    5  A    between atoms: CA   and  CB  
    6  A    between atoms: CB   and  CG  
    7  A    between atoms: CG   and  CD  
    8  A    between atoms: CD   and  CE  

$$$$
