ligand_82_pose_16_2HRL.pdbqt
 OpenBabel07062320523D

 53 55  0  0  1  0  0  0  0  0999 V2000
   26.0810   31.2090   15.4240 N   0  0  0  0  0  0  0  0  0  0  0  0
   24.7890   31.8100   15.2330 C   0  0  0  0  0  0  0  0  0  0  0  0
   23.7830   31.2420   15.7290 O   0  0  0  0  0  0  0  0  0  0  0  0
   26.9170   31.6760   15.0150 H   0  0  0  0  0  0  0  0  0  0  0  0
   26.1950   29.9760   16.1730 C   0  0  0  0  0  0  0  0  0  0  0  0
   27.3630   30.1040   17.1090 C   0  0  2  0  0  0  0  0  0  0  0  0
   28.5300   30.8290   16.4760 C   0  0  1  0  0  0  0  0  0  0  0  0
   28.4810   32.2610   16.9560 C   0  0  2  0  0  0  0  0  0  0  0  0
   29.5580   33.5080   15.3270 C   0  0  2  0  0  0  0  0  0  0  0  0
   30.6350   33.9990   16.2690 C   0  0  0  0  0  0  0  0  0  0  0  0
   28.3810   33.1850   15.9580 O   0  0  0  0  0  0  0  0  0  0  0  0
   30.0860   33.9430   17.6730 C   0  0  1  0  0  0  0  0  0  0  0  0
   29.6220   32.5200   17.9130 C   0  0  1  0  0  0  0  0  0  0  0  0
   30.0620   32.4590   14.5520 O   0  0  0  0  0  0  0  0  0  0  0  0
   29.2850   31.8640   14.3680 H   0  0  0  0  0  0  0  0  0  0  0  0
   29.2670   34.6300   14.3870 C   0  0  0  0  0  0  0  0  0  0  0  0
   29.3170   34.4140   13.1290 O   0  0  0  0  0  0  0  0  0  0  0  0
   28.9450   35.9000   14.8140 O   0  0  0  0  0  0  0  0  0  0  0  0
   28.1790   36.0700   15.4600 H   0  0  0  0  0  0  0  0  0  0  0  0
   31.0350   34.2590   18.6240 O   0  0  0  0  0  0  0  0  0  0  0  0
   31.8420   34.5760   18.1450 H   0  0  0  0  0  0  0  0  0  0  0  0
   29.2630   32.3020   19.2900 N   0  0  0  0  0  0  0  0  0  0  0  0
   29.8640   31.2780   20.0660 C   0  0  0  0  0  0  0  0  0  0  0  0
   28.5390   32.9230   19.7120 H   0  0  0  0  0  0  0  0  0  0  0  0
   29.4320   31.1230   21.4820 C   0  0  0  0  0  0  0  0  0  0  0  0
   30.7360   30.5270   19.5640 O   0  0  0  0  0  0  0  0  0  0  0  0
   29.7400   30.2820   16.8970 O   0  0  0  0  0  0  0  0  0  0  0  0
   30.4950   30.8840   16.7900 H   0  0  0  0  0  0  0  0  0  0  0  0
   27.7760   28.7900   17.4170 O   0  0  0  0  0  0  0  0  0  0  0  0
   28.4670   28.8060   18.1370 H   0  0  0  0  0  0  0  0  0  0  0  0
   24.6050   32.9740   14.5360 O   0  0  0  0  0  0  0  0  0  0  0  0
   25.4130   34.1270   14.6910 C   0  0  0  0  0  0  0  0  0  0  0  0
   25.6940   34.7330   13.3740 C   0  0  0  0  0  0  0  0  0  0  0  0
   25.5170   34.1910   12.1220 C   0  0  0  0  0  0  0  0  0  0  0  0
   26.1890   35.9630   13.1740 N   0  0  0  0  0  0  0  0  0  0  0  0
   25.9080   35.1040   11.1830 N   0  0  0  0  0  0  0  0  0  0  0  0
   26.3110   36.1690   11.8610 N   0  0  0  0  0  0  0  0  0  0  0  0
   25.8690   34.8930    9.7570 C   0  0  0  0  0  0  0  0  0  0  0  0
   27.2430   35.0150    9.1550 C   0  0  0  0  0  0  0  0  0  0  0  0
   28.2240   34.1850    9.4990 C   0  0  0  0  0  0  0  0  0  0  0  0
   27.5520   36.0600    8.1600 C   0  0  2  0  0  0  0  0  0  0  0  0
   29.4780   34.1950    8.6980 C   0  0  0  0  0  0  0  0  0  0  0  0
   28.1600   35.3310    6.9530 C   0  0  0  0  0  0  0  0  0  0  0  0
   28.9420   36.6050    8.4220 C   0  0  0  0  0  0  0  0  0  0  0  0
   29.4660   35.3370    7.7300 C   0  0  1  0  0  0  0  0  0  0  0  0
   29.2890   37.8140    7.6000 C   0  0  0  0  0  0  0  0  0  0  0  0
   29.3300   36.7420    9.8540 C   0  0  0  0  0  0  0  0  0  0  0  0
   29.8670   25.5550   16.9770 C   0  0  0  0  0  0  0  0  0  0  0  0
   28.3450   25.7220   17.0260 C   0  0  0  0  0  0  0  0  0  0  0  0
   27.6010   24.4010   16.9060 C   0  0  0  0  0  0  0  0  0  0  0  0
   26.1480   24.5330   17.2690 C   0  0  0  0  0  0  0  0  0  0  0  0
   26.0210   24.8380   18.7580 C   0  0  0  0  0  0  0  0  0  0  0  0
   24.7730   25.5900   19.0290 N   0  0  0  0  0  0  0  0  0  0  0  0
  1  5  1  0  0  0  0
  2  1  1  0  0  0  0
  2  3  2  0  0  0  0
  4  1  1  0  0  0  0
  6  5  1  6  0  0  0
  6 29  1  0  0  0  0
  7 27  1  1  0  0  0
  7  6  1  0  0  0  0
  8  7  1  6  0  0  0
  8 13  1  0  0  0  0
  9 16  1  6  0  0  0
  9 11  1  0  0  0  0
  9 10  1  0  0  0  0
 10 12  1  0  0  0  0
 11  8  1  0  0  0  0
 12 13  1  0  0  0  0
 12 20  1  1  0  0  0
 13 22  1  1  0  0  0
 14  9  1  0  0  0  0
 15 14  1  0  0  0  0
 16 18  1  0  0  0  0
 17 16  2  0  0  0  0
 18 19  1  0  0  0  0
 21 20  1  0  0  0  0
 22 24  1  0  0  0  0
 22 23  1  0  0  0  0
 23 25  1  0  0  0  0
 26 23  2  0  0  0  0
 28 27  1  0  0  0  0
 29 30  1  0  0  0  0
 31 32  1  0  0  0  0
 31  2  1  0  0  0  0
 33 32  1  0  0  0  0
 34 33  2  0  0  0  0
 35 33  1  0  0  0  0
 36 37  1  0  0  0  0
 36 34  1  0  0  0  0
 37 35  2  0  0  0  0
 38 36  1  0  0  0  0
 39 40  2  0  0  0  0
 39 38  1  0  0  0  0
 41 43  1  6  0  0  0
 41 44  1  0  0  0  0
 41 39  1  0  0  0  0
 42 40  1  0  0  0  0
 44 47  1  0  0  0  0
 45 43  1  6  0  0  0
 45 44  1  0  0  0  0
 45 42  1  0  0  0  0
 46 44  1  0  0  0  0
 48 49  1  0  0  0  0
 50 49  1  0  0  0  0
 50 51  1  0  0  0  0
 51 52  1  0  0  0  0
 52 53  1  0  0  0  0
M  END
>  <REMARK>
 VINA RESULT:    -5.277      3.011      6.317
 INTER + INTRA:         -14.778
 INTER:                 -10.282
 INTRA:                  -4.497
 UNBOUND:                -5.337
 SMILES CC(=O)N[C@@H]1[C@@H](O)C[C@](O)(C(=O)O)O[C@H]1C(O)[C@H](O)CNC(=O)OCc1cn(CC2=CC[C@H]3C[C@@H]2C3(C)C)nn1
 SMILES IDX 21 1 22 2 23 3 20 5 18 6 16 7 15 8 9 9 8 10 14 11 6 12 5 13
 SMILES IDX 10 14 11 16 12 17 13 18 7 20 4 22 2 23 1 25 3 26 17 27 19 29
 SMILES IDX 24 31 25 32 26 33 27 34 40 35 28 36 39 37 29 38 30 39 31 40
 SMILES IDX 35 41 32 42 34 43 36 44 33 45 37 46 38 47
 H PARENT 21 4 10 15 13 19 7 21 4 24 17 28 19 30
 Flexibility Score: inf
  4 active torsions:
  status: ('A' for Active; 'I' for Inactive)
    1  A    between atoms: CA   and  CB  
    2  A    between atoms: CB   and  CG  
    3  A    between atoms: CG   and  CD  
    4  A    between atoms: CD   and  CE  

>  <TORSDO>
F 16

>  <BEGIN_>
RES LYS A 131

$$$$
ligand_82_pose_16_2HRL.pdbqt
 OpenBabel07062320523D

  6  5  0  0  0  0  0  0  0  0999 V2000
   33.1930   34.6630    9.2900 C   0  0  0  0  0  0  0  0  0  0  0  0
   32.0600   35.3600   10.0340 C   0  0  0  0  0  0  0  0  0  0  0  0
   32.1760   35.2650   11.5330 C   0  0  0  0  0  0  0  0  0  0  0  0
   32.2280   36.6520   12.1560 C   0  0  0  0  0  0  0  0  0  0  0  0
   32.2660   36.5550   13.6700 C   0  0  0  0  0  0  0  0  0  0  0  0
   33.0340   35.3580   14.1110 N   0  0  0  0  0  0  0  0  0  0  0  0
  1  2  1  0  0  0  0
  2  3  1  0  0  0  0
  3  4  1  0  0  0  0
  4  5  1  0  0  0  0
  5  6  1  0  0  0  0
M  END
>  <EGIN_R>
ES LYS A 135

>  <REMARK>
  4 active torsions:
  status: ('A' for Active; 'I' for Inactive)
    5  A    between atoms: CA   and  CB  
    6  A    between atoms: CB   and  CG  
    7  A    between atoms: CG   and  CD  
    8  A    between atoms: CD   and  CE  

$$$$
