ligand_77_pose_4_2HRL.pdbqt
 OpenBabel07062320523D

 61 63  0  0  1  0  0  0  0  0999 V2000
   29.5740   30.5090   21.2650 N   0  0  0  0  0  0  0  0  0  0  0  0
   30.1600   30.9290   20.0470 C   0  0  0  0  0  0  0  0  0  0  0  0
   31.0060   30.2210   19.4910 O   0  0  0  0  0  0  0  0  0  0  0  0
   28.8520   31.1820   21.6710 H   0  0  0  0  0  0  0  0  0  0  0  0
   29.8810   29.2810   21.9590 C   0  0  0  0  0  0  0  0  0  0  0  0
   28.7140   28.3590   21.8710 C   0  0  2  0  0  0  0  0  0  0  0  0
   28.8540   27.3320   20.7670 C   0  0  1  0  0  0  0  0  0  0  0  0
   27.9240   27.5250   19.6170 C   0  0  2  0  0  0  0  0  0  0  0  0
   27.0760   29.2750   18.3590 C   0  0  2  0  0  0  0  0  0  0  0  0
   26.0630   28.3390   17.7780 C   0  0  0  0  0  0  0  0  0  0  0  0
   28.1990   28.6350   18.8530 O   0  0  0  0  0  0  0  0  0  0  0  0
   25.7510   27.1580   18.6250 C   0  0  1  0  0  0  0  0  0  0  0  0
   26.4690   27.3470   19.9720 C   0  0  1  0  0  0  0  0  0  0  0  0
   26.4970   30.1270   19.3270 O   0  0  0  0  0  0  0  0  0  0  0  0
   26.6950   29.7690   20.2090 H   0  0  0  0  0  0  0  0  0  0  0  0
   27.5360   30.1750   17.2610 C   0  0  0  0  0  0  0  0  0  0  0  0
   26.9090   31.2610   17.0640 O   0  0  0  0  0  0  0  0  0  0  0  0
   28.6030   29.9050   16.4420 O   0  0  0  0  0  0  0  0  0  0  0  0
   29.3430   29.2750   16.7470 H   0  0  0  0  0  0  0  0  0  0  0  0
   24.3940   26.9500   18.8190 O   0  0  0  0  0  0  0  0  0  0  0  0
   24.1320   26.0700   18.3980 H   0  0  0  0  0  0  0  0  0  0  0  0
   26.3470   26.1080   20.7310 N   0  0  0  0  0  0  0  0  0  0  0  0
   25.6990   26.1080   21.9900 C   0  0  0  0  0  0  0  0  0  0  0  0
   26.7240   25.2020   20.3810 H   0  0  0  0  0  0  0  0  0  0  0  0
   25.5600   24.8460   22.8000 C   0  0  0  0  0  0  0  0  0  0  0  0
   25.2120   27.1390   22.5010 O   0  0  0  0  0  0  0  0  0  0  0  0
   30.1970   27.3810   20.3740 O   0  0  0  0  0  0  0  0  0  0  0  0
   30.6890   26.7170   20.9020 H   0  0  0  0  0  0  0  0  0  0  0  0
   27.5210   29.0650   21.8100 O   0  0  0  0  0  0  0  0  0  0  0  0
   27.6050   29.7640   21.1130 H   0  0  0  0  0  0  0  0  0  0  0  0
   29.8280   32.1270   19.4240 O   0  0  0  0  0  0  0  0  0  0  0  0
   30.7360   32.8110   18.5740 C   0  0  0  0  0  0  0  0  0  0  0  0
   30.3020   32.7660   17.1490 C   0  0  0  0  0  0  0  0  0  0  0  0
   29.3490   33.5860   16.6100 C   0  0  0  0  0  0  0  0  0  0  0  0
   30.7340   31.9610   16.1690 N   0  0  0  0  0  0  0  0  0  0  0  0
   29.2180   33.2610   15.3030 N   0  0  0  0  0  0  0  0  0  0  0  0
   30.0610   32.2900   15.0850 N   0  0  0  0  0  0  0  0  0  0  0  0
   28.3130   33.9100   14.4250 C   0  0  0  0  0  0  0  0  0  0  0  0
   28.7770   34.8050   13.4860 C   0  0  0  0  0  0  0  0  0  0  0  0
   26.9540   33.6840   14.4670 C   0  0  0  0  0  0  0  0  0  0  0  0
   27.9290   35.4600   12.6100 C   0  0  0  0  0  0  0  0  0  0  0  0
   26.0880   34.3400   13.5870 C   0  0  0  0  0  0  0  0  0  0  0  0
   26.5760   35.2290   12.6590 C   0  0  0  0  0  0  0  0  0  0  0  0
   25.5170   36.0470   11.5650 S   0  0  0  0  0  0  0  0  0  0  0  0
   25.3520   37.4680   11.9840 O   0  0  0  0  0  0  0  0  0  0  0  0
   24.1540   35.4220   11.5050 O   0  0  0  0  0  0  0  0  0  0  0  0
   26.2200   35.9310    9.9550 C   0  0  0  0  0  0  0  0  0  0  0  0
   26.7070   34.7230    9.5320 C   0  0  0  0  0  0  0  0  0  0  0  0
   26.2870   37.0350    9.1100 C   0  0  0  0  0  0  0  0  0  0  0  0
   27.2700   34.5860    8.2690 C   0  0  0  0  0  0  0  0  0  0  0  0
   26.8430   36.9330    7.8440 C   0  0  0  0  0  0  0  0  0  0  0  0
   27.3210   35.7030    7.4580 C   0  0  0  0  0  0  0  0  0  0  0  0
   27.8910   35.5770    6.1710 N   0  0  0  0  0  0  0  0  0  0  0  0
   28.7370   35.0020    6.0280 H   0  0  0  0  0  0  0  0  0  0  0  0
   27.4540   36.0670    5.3720 H   0  0  0  0  0  0  0  0  0  0  0  0
   29.8670   25.5550   16.9770 C   0  0  0  0  0  0  0  0  0  0  0  0
   28.3450   25.7220   17.0260 C   0  0  0  0  0  0  0  0  0  0  0  0
   27.5990   24.4290   16.7350 C   0  0  0  0  0  0  0  0  0  0  0  0
   27.0310   23.8100   17.9820 C   0  0  0  0  0  0  0  0  0  0  0  0
   25.6250   23.2910   17.6980 C   0  0  0  0  0  0  0  0  0  0  0  0
   24.8890   24.2370   16.8250 N   0  0  0  0  0  0  0  0  0  0  0  0
  1  4  1  0  0  0  0
  1  5  1  0  0  0  0
  2  1  1  0  0  0  0
  3  2  2  0  0  0  0
  6  5  1  6  0  0  0
  7 27  1  6  0  0  0
  7  6  1  0  0  0  0
  8 13  1  0  0  0  0
  8  7  1  1  0  0  0
  9 16  1  6  0  0  0
  9 11  1  0  0  0  0
  9 14  1  0  0  0  0
 10  9  1  0  0  0  0
 10 12  1  0  0  0  0
 11  8  1  0  0  0  0
 12 20  1  1  0  0  0
 12 13  1  0  0  0  0
 13 22  1  1  0  0  0
 14 15  1  0  0  0  0
 17 16  2  0  0  0  0
 18 19  1  0  0  0  0
 18 16  1  0  0  0  0
 21 20  1  0  0  0  0
 22 23  1  0  0  0  0
 23 26  2  0  0  0  0
 23 25  1  0  0  0  0
 24 22  1  0  0  0  0
 27 28  1  0  0  0  0
 29  6  1  0  0  0  0
 30 29  1  0  0  0  0
 31  2  1  0  0  0  0
 32 31  1  0  0  0  0
 33 32  1  0  0  0  0
 34 33  2  0  0  0  0
 35 33  1  0  0  0  0
 36 34  1  0  0  0  0
 37 36  1  0  0  0  0
 37 35  2  0  0  0  0
 38 40  1  0  0  0  0
 38 36  1  0  0  0  0
 39 38  2  0  0  0  0
 41 43  2  0  0  0  0
 41 39  1  0  0  0  0
 42 40  2  0  0  0  0
 43 42  1  0  0  0  0
 44 45  2  0  0  0  0
 44 43  1  0  0  0  0
 46 44  2  0  0  0  0
 47 44  1  0  0  0  0
 48 47  1  0  0  0  0
 49 47  2  0  0  0  0
 50 48  2  0  0  0  0
 51 49  1  0  0  0  0
 52 51  2  0  0  0  0
 52 50  1  0  0  0  0
 53 52  1  0  0  0  0
 54 53  1  0  0  0  0
 55 53  1  0  0  0  0
 56 57  1  0  0  0  0
 58 57  1  0  0  0  0
 58 59  1  0  0  0  0
 60 59  1  0  0  0  0
 61 60  1  0  0  0  0
M  END
>  <REMARK>
 VINA RESULT:    -5.306      3.706      7.466
 INTER + INTRA:         -16.487
 INTER:                 -10.558
 INTRA:                  -5.929
 UNBOUND:                -6.527
 SMILES CC(=O)N[C@@H]1[C@@H](O)C[C@](O)(C(=O)O)O[C@H]1C(O)[C@H](O)CNC(=O)OCc1cn(-c2ccc(S(=O)(=O)c3ccc(N)cc3)cc2)nn1
 SMILES IDX 21 1 22 2 23 3 20 5 18 6 16 7 15 8 9 9 8 10 14 11 6 12 5 13
 SMILES IDX 10 14 11 16 12 17 13 18 7 20 4 22 2 23 1 25 3 26 17 27 19 29
 SMILES IDX 24 31 25 32 26 33 27 34 46 35 28 36 45 37 29 38 30 39 44 40
 SMILES IDX 31 41 43 42 32 43 33 44 34 45 35 46 36 47 37 48 42 49 38 50
 SMILES IDX 41 51 39 52 40 53
 H PARENT 21 4 10 15 13 19 7 21 4 24 17 28 19 30 40 54 40 55
 Flexibility Score: inf
  4 active torsions:
  status: ('A' for Active; 'I' for Inactive)
    1  A    between atoms: CA   and  CB  
    2  A    between atoms: CB   and  CG  
    3  A    between atoms: CG   and  CD  
    4  A    between atoms: CD   and  CE  

>  <TORSDO>
F 18

>  <BEGIN_>
RES LYS A 131

$$$$
ligand_77_pose_4_2HRL.pdbqt
 OpenBabel07062320523D

  6  5  0  0  0  0  0  0  0  0999 V2000
   33.1930   34.6630    9.2900 C   0  0  0  0  0  0  0  0  0  0  0  0
   32.0600   35.3600   10.0340 C   0  0  0  0  0  0  0  0  0  0  0  0
   30.7740   35.4230    9.2510 C   0  0  0  0  0  0  0  0  0  0  0  0
   30.4140   36.8640    8.9250 C   0  0  0  0  0  0  0  0  0  0  0  0
   29.8540   37.5630   10.1490 C   0  0  0  0  0  0  0  0  0  0  0  0
   30.7130   38.7110   10.5510 N   0  0  0  0  0  0  0  0  0  0  0  0
  1  2  1  0  0  0  0
  3  2  1  0  0  0  0
  4  3  1  0  0  0  0
  4  5  1  0  0  0  0
  5  6  1  0  0  0  0
M  END
>  <EGIN_R>
ES LYS A 135

>  <REMARK>
  4 active torsions:
  status: ('A' for Active; 'I' for Inactive)
    5  A    between atoms: CA   and  CB  
    6  A    between atoms: CB   and  CG  
    7  A    between atoms: CG   and  CD  
    8  A    between atoms: CD   and  CE  

$$$$
