ligand_9_pose_16_2HRL.pdbqt
 OpenBabel07062320523D

 54 55  0  0  1  0  0  0  0  0999 V2000
   27.5130   32.4790   16.3460 N   0  0  0  0  0  0  0  0  0  0  0  0
   26.3990   32.4760   15.4640 C   0  0  0  0  0  0  0  0  0  0  0  0
   25.9240   31.3700   15.1040 O   0  0  0  0  0  0  0  0  0  0  0  0
   27.8900   33.4050   16.6310 H   0  0  0  0  0  0  0  0  0  0  0  0
   28.1010   31.2450   16.8270 C   0  0  0  0  0  0  0  0  0  0  0  0
   29.5140   31.0620   16.3810 C   0  0  2  0  0  0  0  0  0  0  0  0
   30.5050   31.8350   17.1900 C   0  0  1  0  0  0  0  0  0  0  0  0
   30.8340   33.1830   16.4980 C   0  0  2  0  0  0  0  0  0  0  0  0
   32.3030   34.1500   15.0740 C   0  0  2  0  0  0  0  0  0  0  0  0
   32.8280   35.1190   16.1080 C   0  0  0  0  0  0  0  0  0  0  0  0
   31.9250   32.9980   15.6910 O   0  0  0  0  0  0  0  0  0  0  0  0
   31.8270   35.4140   17.1840 C   0  0  1  0  0  0  0  0  0  0  0  0
   30.9440   34.2490   17.5250 C   0  0  1  0  0  0  0  0  0  0  0  0
   33.4340   33.8260   14.2720 O   0  0  0  0  0  0  0  0  0  0  0  0
   33.2710   33.9900   13.3260 H   0  0  0  0  0  0  0  0  0  0  0  0
   31.3090   34.7930   14.2040 C   0  0  0  0  0  0  0  0  0  0  0  0
   30.8680   35.9750   14.4010 O   0  0  0  0  0  0  0  0  0  0  0  0
   30.8230   34.0670   13.1000 O   0  0  0  0  0  0  0  0  0  0  0  0
   30.8930   34.5150   12.1770 H   0  0  0  0  0  0  0  0  0  0  0  0
   32.5050   35.8900   18.3050 O   0  0  0  0  0  0  0  0  0  0  0  0
   32.4410   36.8740   18.4000 H   0  0  0  0  0  0  0  0  0  0  0  0
   29.6160   34.6830   17.9180 N   0  0  0  0  0  0  0  0  0  0  0  0
   29.2880   34.9690   19.2700 C   0  0  0  0  0  0  0  0  0  0  0  0
   28.8800   34.7840   17.1570 H   0  0  0  0  0  0  0  0  0  0  0  0
   27.9060   35.4070   19.5960 C   0  0  0  0  0  0  0  0  0  0  0  0
   30.1590   34.8560   20.1990 O   0  0  0  0  0  0  0  0  0  0  0  0
   30.1210   32.1110   18.4780 O   0  0  0  0  0  0  0  0  0  0  0  0
   30.8360   32.1130   19.1400 H   0  0  0  0  0  0  0  0  0  0  0  0
   29.6360   31.2730   15.0110 O   0  0  0  0  0  0  0  0  0  0  0  0
   29.2710   32.1790   14.8190 H   0  0  0  0  0  0  0  0  0  0  0  0
   25.8020   33.6250   14.9760 O   0  0  0  0  0  0  0  0  0  0  0  0
   26.5600   34.7240   14.5090 C   0  0  0  0  0  0  0  0  0  0  0  0
   26.7060   34.6680   13.0420 C   0  0  0  0  0  0  0  0  0  0  0  0
   27.8490   34.8330   12.2780 C   0  0  0  0  0  0  0  0  0  0  0  0
   25.7260   34.4400   12.1400 N   0  0  0  0  0  0  0  0  0  0  0  0
   27.5340   34.7030   10.9720 N   0  0  0  0  0  0  0  0  0  0  0  0
   26.2200   34.4630   10.9320 N   0  0  0  0  0  0  0  0  0  0  0  0
   28.3740   34.7940    9.8410 C   0  0  0  0  0  0  0  0  0  0  0  0
   28.0050   35.5190    8.7230 C   0  0  0  0  0  0  0  0  0  0  0  0
   29.5970   34.1620    9.8080 C   0  0  0  0  0  0  0  0  0  0  0  0
   28.7960   35.6330    7.5970 C   0  0  0  0  0  0  0  0  0  0  0  0
   30.4180   34.2590    8.6880 C   0  0  0  0  0  0  0  0  0  0  0  0
   30.0120   34.9890    7.5990 C   0  0  0  0  0  0  0  0  0  0  0  0
   28.3820   36.4060    6.4320 C   0  0  0  0  0  0  0  0  0  0  0  0
   27.4410   35.9840    5.7170 O   0  0  0  0  0  0  0  0  0  0  0  0
   28.9860   37.6010    6.0760 O   0  0  0  0  0  0  0  0  0  0  0  0
   28.9440   38.7520    6.8960 C   0  0  0  0  0  0  0  0  0  0  0  0
   30.3480   39.2320    7.1220 C   0  0  0  0  0  0  0  0  0  0  0  0
   29.8670   25.5550   16.9770 C   0  0  0  0  0  0  0  0  0  0  0  0
   28.3450   25.7220   17.0260 C   0  0  0  0  0  0  0  0  0  0  0  0
   27.6010   24.4020   16.8900 C   0  0  0  0  0  0  0  0  0  0  0  0
   26.6870   24.1450   18.0560 C   0  0  0  0  0  0  0  0  0  0  0  0
   25.8350   25.3830   18.3180 C   0  0  0  0  0  0  0  0  0  0  0  0
   25.9250   25.7840   19.7420 N   0  0  0  0  0  0  0  0  0  0  0  0
  1  4  1  0  0  0  0
  1  5  1  0  0  0  0
  2  1  1  0  0  0  0
  3  2  2  0  0  0  0
  6  5  1  1  0  0  0
  6  7  1  0  0  0  0
  7 27  1  1  0  0  0
  8  7  1  1  0  0  0
  8 13  1  0  0  0  0
  9 16  1  6  0  0  0
  9 11  1  0  0  0  0
  9 10  1  0  0  0  0
 10 12  1  0  0  0  0
 11  8  1  0  0  0  0
 12 13  1  0  0  0  0
 12 20  1  1  0  0  0
 13 22  1  6  0  0  0
 14  9  1  0  0  0  0
 15 14  1  0  0  0  0
 16 17  2  0  0  0  0
 18 16  1  0  0  0  0
 19 18  1  0  0  0  0
 20 21  1  0  0  0  0
 22 23  1  0  0  0  0
 23 25  1  0  0  0  0
 23 26  2  0  0  0  0
 24 22  1  0  0  0  0
 27 28  1  0  0  0  0
 29  6  1  0  0  0  0
 30 29  1  0  0  0  0
 31  2  1  0  0  0  0
 32 31  1  0  0  0  0
 33 32  1  0  0  0  0
 34 33  2  0  0  0  0
 35 33  1  0  0  0  0
 36 34  1  0  0  0  0
 37 36  1  0  0  0  0
 37 35  2  0  0  0  0
 38 36  1  0  0  0  0
 39 38  2  0  0  0  0
 40 38  1  0  0  0  0
 41 43  2  0  0  0  0
 41 39  1  0  0  0  0
 42 40  2  0  0  0  0
 43 42  1  0  0  0  0
 44 41  1  0  0  0  0
 45 44  2  0  0  0  0
 46 44  1  0  0  0  0
 46 47  1  0  0  0  0
 47 48  1  0  0  0  0
 49 50  1  0  0  0  0
 51 50  1  0  0  0  0
 51 52  1  0  0  0  0
 52 53  1  0  0  0  0
 53 54  1  0  0  0  0
M  END
>  <REMARK>
 VINA RESULT:    -4.810      3.300      6.366
 INTER + INTRA:         -14.840
 INTER:                 -11.137
 INTRA:                  -3.703
 UNBOUND:                -5.671
 SMILES CCOC(=O)c1cccc(-n2cc(COC(=O)NC[C@@H](O)C(O)[C@@H]3O[C@@](O)(C(=O)O)C[C@H](O)[C@H]3NC(C)=O)nn2)c1
 SMILES IDX 18 1 16 2 17 3 19 5 20 6 22 7 24 8 26 9 31 10 25 11 32 12
 SMILES IDX 34 13 27 14 28 16 29 17 30 18 33 20 35 22 36 23 37 25 38 26
 SMILES IDX 23 27 21 29 15 31 14 32 13 33 12 34 39 35 11 36 40 37 10 38
 SMILES IDX 41 39 9 40 6 41 8 42 7 43 4 44 5 45 3 46 2 47 1 48
 H PARENT 18 4 27 15 30 19 33 21 35 24 23 28 21 30
 Flexibility Score: inf
  4 active torsions:
  status: ('A' for Active; 'I' for Inactive)
    1  A    between atoms: CA   and  CB  
    2  A    between atoms: CB   and  CG  
    3  A    between atoms: CG   and  CD  
    4  A    between atoms: CD   and  CE  

>  <TORSDO>
F 18

>  <BEGIN_>
RES LYS A 131

$$$$
ligand_9_pose_16_2HRL.pdbqt
 OpenBabel07062320523D

  6  5  0  0  0  0  0  0  0  0999 V2000
   33.1930   34.6630    9.2900 C   0  0  0  0  0  0  0  0  0  0  0  0
   32.0600   35.3600   10.0340 C   0  0  0  0  0  0  0  0  0  0  0  0
   32.5350   36.2980   11.1140 C   0  0  0  0  0  0  0  0  0  0  0  0
   31.8170   37.6350   11.0180 C   0  0  0  0  0  0  0  0  0  0  0  0
   30.3570   37.4840   11.4010 C   0  0  0  0  0  0  0  0  0  0  0  0
   29.4840   38.3100   10.5220 N   0  0  0  0  0  0  0  0  0  0  0  0
  1  2  1  0  0  0  0
  2  3  1  0  0  0  0
  4  3  1  0  0  0  0
  4  5  1  0  0  0  0
  6  5  1  0  0  0  0
M  END
>  <EGIN_R>
ES LYS A 135

>  <REMARK>
  4 active torsions:
  status: ('A' for Active; 'I' for Inactive)
    5  A    between atoms: CA   and  CB  
    6  A    between atoms: CB   and  CG  
    7  A    between atoms: CG   and  CD  
    8  A    between atoms: CD   and  CE  

$$$$
