ligand_25_pose_15_2HRL.pdbqt
 OpenBabel07062320523D

 56 59  0  0  1  0  0  0  0  0999 V2000
   30.5410   31.9470   16.0380 C   0  0  0  0  0  0  0  0  0  0  0  0
   29.3060   31.1960   16.3760 C   0  0  2  0  0  0  0  0  0  0  0  0
   29.1300   30.9610   17.8420 C   0  0  1  0  0  0  0  0  0  0  0  0
   30.3460   31.1860   18.6970 C   0  0  2  0  0  0  0  0  0  0  0  0
   30.3800   29.7400   20.5380 C   0  0  2  0  0  0  0  0  0  0  0  0
   31.2800   30.6160   21.3840 C   0  0  0  0  0  0  0  0  0  0  0  0
   30.6730   29.9370   19.2260 O   0  0  0  0  0  0  0  0  0  0  0  0
   31.2230   32.0090   20.8730 C   0  0  1  0  0  0  0  0  0  0  0  0
   30.1620   32.2150   19.7790 C   0  0  1  0  0  0  0  0  0  0  0  0
   29.0920   29.9720   20.9390 O   0  0  0  0  0  0  0  0  0  0  0  0
   28.6690   29.1710   21.3200 H   0  0  0  0  0  0  0  0  0  0  0  0
   30.7490   28.3300   20.8710 C   0  0  0  0  0  0  0  0  0  0  0  0
   31.7160   28.1120   21.6360 O   0  0  0  0  0  0  0  0  0  0  0  0
   30.0600   27.2370   20.3640 O   0  0  0  0  0  0  0  0  0  0  0  0
   30.5550   26.3570   20.1610 H   0  0  0  0  0  0  0  0  0  0  0  0
   30.9850   32.9600   21.8520 O   0  0  0  0  0  0  0  0  0  0  0  0
   31.1150   33.8840   21.5430 H   0  0  0  0  0  0  0  0  0  0  0  0
   30.4520   33.5320   19.2580 N   0  0  0  0  0  0  0  0  0  0  0  0
   29.6680   34.6900   19.4970 C   0  0  0  0  0  0  0  0  0  0  0  0
   31.3010   33.6400   18.6650 H   0  0  0  0  0  0  0  0  0  0  0  0
   30.0360   36.0230   18.9190 C   0  0  0  0  0  0  0  0  0  0  0  0
   28.6440   34.5610   20.2160 O   0  0  0  0  0  0  0  0  0  0  0  0
   28.0160   31.5800   18.3980 O   0  0  0  0  0  0  0  0  0  0  0  0
   27.9350   32.5290   18.2110 H   0  0  0  0  0  0  0  0  0  0  0  0
   29.3430   29.9430   15.7680 O   0  0  0  0  0  0  0  0  0  0  0  0
   28.4940   29.4630   15.8250 H   0  0  0  0  0  0  0  0  0  0  0  0
   30.3720   33.3170   15.7280 N   0  0  0  0  0  0  0  0  0  0  0  0
   31.4020   34.1580   15.2720 C   0  0  0  0  0  0  0  0  0  0  0  0
   29.4040   33.7640   15.8410 H   0  0  0  0  0  0  0  0  0  0  0  0
   32.5480   33.7580   15.0940 O   0  0  0  0  0  0  0  0  0  0  0  0
   31.1640   35.5160   14.9950 O   0  0  0  0  0  0  0  0  0  0  0  0
   29.8920   36.0890   15.0030 C   0  0  0  0  0  0  0  0  0  0  0  0
   29.1900   36.0060   13.6980 C   0  0  0  0  0  0  0  0  0  0  0  0
   28.7630   34.8990   13.0060 C   0  0  0  0  0  0  0  0  0  0  0  0
   28.8580   37.0760   12.9750 N   0  0  0  0  0  0  0  0  0  0  0  0
   28.1890   35.3360   11.8910 N   0  0  0  0  0  0  0  0  0  0  0  0
   28.2550   36.6520   11.8880 N   0  0  0  0  0  0  0  0  0  0  0  0
   27.5840   34.5360   10.8370 C   0  0  0  0  0  0  0  0  0  0  0  0
   28.2720   34.7200    9.5470 C   0  0  0  0  0  0  0  0  0  0  0  0
   26.1900   34.8760   10.6000 C   0  0  0  0  0  0  0  0  0  0  0  0
   29.6220   34.5330    9.2050 C   0  0  0  0  0  0  0  0  0  0  0  0
   27.3430   35.1360    8.6360 C   0  0  0  0  0  0  0  0  0  0  0  0
   26.0390   35.2360    9.2880 C   0  0  0  0  0  0  0  0  0  0  0  0
   25.0510   34.8980   11.4300 C   0  0  0  0  0  0  0  0  0  0  0  0
   30.0030   34.7810    7.9100 C   0  0  0  0  0  0  0  0  0  0  0  0
   27.7690   35.3780    7.3300 C   0  0  0  0  0  0  0  0  0  0  0  0
   24.8120   35.6210    8.7360 C   0  0  0  0  0  0  0  0  0  0  0  0
   23.8390   35.2720   10.9110 C   0  0  0  0  0  0  0  0  0  0  0  0
   29.0860   35.2030    6.9680 C   0  0  0  0  0  0  0  0  0  0  0  0
   23.7240   35.6300    9.5780 C   0  0  0  0  0  0  0  0  0  0  0  0
   29.8670   25.5550   16.9770 C   0  0  0  0  0  0  0  0  0  0  0  0
   28.3450   25.7220   17.0260 C   0  0  0  0  0  0  0  0  0  0  0  0
   27.6010   24.4020   16.8920 C   0  0  0  0  0  0  0  0  0  0  0  0
   26.1890   24.4940   17.3980 C   0  0  0  0  0  0  0  0  0  0  0  0
   26.1460   25.3990   18.6250 C   0  0  0  0  0  0  0  0  0  0  0  0
   25.4640   24.7160   19.7500 N   0  0  0  0  0  0  0  0  0  0  0  0
  2  1  1  1  0  0  0
  2  3  1  0  0  0  0
  3 23  1  1  0  0  0
  4  3  1  1  0  0  0
  4  7  1  0  0  0  0
  4  9  1  0  0  0  0
  5 12  1  1  0  0  0
  5 10  1  0  0  0  0
  5  6  1  0  0  0  0
  7  5  1  0  0  0  0
  8  6  1  0  0  0  0
  8 16  1  1  0  0  0
  9 18  1  6  0  0  0
  9  8  1  0  0  0  0
 10 11  1  0  0  0  0
 12 13  2  0  0  0  0
 14 12  1  0  0  0  0
 15 14  1  0  0  0  0
 17 16  1  0  0  0  0
 18 19  1  0  0  0  0
 19 22  2  0  0  0  0
 20 18  1  0  0  0  0
 21 19  1  0  0  0  0
 24 23  1  0  0  0  0
 25 26  1  0  0  0  0
 25  2  1  0  0  0  0
 27 29  1  0  0  0  0
 27  1  1  0  0  0  0
 28 27  1  0  0  0  0
 30 28  2  0  0  0  0
 31 32  1  0  0  0  0
 31 28  1  0  0  0  0
 33 32  1  0  0  0  0
 34 33  2  0  0  0  0
 35 33  1  0  0  0  0
 36 34  1  0  0  0  0
 37 36  1  0  0  0  0
 37 35  2  0  0  0  0
 38 36  1  0  0  0  0
 39 38  1  0  0  0  0
 40 38  1  0  0  0  0
 40 44  2  0  0  0  0
 41 39  1  0  0  0  0
 42 43  1  0  0  0  0
 42 39  2  0  0  0  0
 43 40  1  0  0  0  0
 45 41  2  0  0  0  0
 46 42  1  0  0  0  0
 47 43  2  0  0  0  0
 47 50  1  0  0  0  0
 48 44  1  0  0  0  0
 49 46  2  0  0  0  0
 49 45  1  0  0  0  0
 50 48  2  0  0  0  0
 51 52  1  0  0  0  0
 53 52  1  0  0  0  0
 53 54  1  0  0  0  0
 54 55  1  0  0  0  0
 55 56  1  0  0  0  0
M  END
>  <REMARK>
 VINA RESULT:    -6.327      2.775      4.215
 INTER + INTRA:         -15.529
 INTER:                 -11.676
 INTRA:                  -3.853
 UNBOUND:                -4.578
 SMILES CC(=O)N[C@@H]1[C@@H](O)C[C@](O)(C(=O)O)O[C@H]1C(O)[C@H](O)CNC(=O)OCc1cn(C2c3ccccc3-c3ccccc32)nn1
 SMILES IDX 20 1 18 2 16 3 15 4 9 5 8 6 14 7 6 8 5 9 10 10 11 12 12 13
 SMILES IDX 13 14 7 16 4 18 2 19 1 21 3 22 17 23 19 25 21 27 22 28 23 30
 SMILES IDX 24 31 25 32 26 33 27 34 43 35 28 36 42 37 29 38 30 39 41 40
 SMILES IDX 31 41 35 42 36 43 40 44 32 45 34 46 37 47 39 48 33 49 38 50
 H PARENT 10 11 13 15 7 17 4 20 17 24 19 26 21 29
 Flexibility Score: inf
  4 active torsions:
  status: ('A' for Active; 'I' for Inactive)
    1  A    between atoms: CA   and  CB  
    2  A    between atoms: CB   and  CG  
    3  A    between atoms: CG   and  CD  
    4  A    between atoms: CD   and  CE  

>  <TORSDO>
F 15

>  <BEGIN_>
RES LYS A 131

$$$$
ligand_25_pose_15_2HRL.pdbqt
 OpenBabel07062320523D

  6  5  0  0  0  0  0  0  0  0999 V2000
   33.1930   34.6630    9.2900 C   0  0  0  0  0  0  0  0  0  0  0  0
   32.0600   35.3600   10.0340 C   0  0  0  0  0  0  0  0  0  0  0  0
   32.3410   35.5700   11.4990 C   0  0  0  0  0  0  0  0  0  0  0  0
   32.2490   37.0460   11.8570 C   0  0  0  0  0  0  0  0  0  0  0  0
   31.6740   37.8390   10.7000 C   0  0  0  0  0  0  0  0  0  0  0  0
   31.2700   39.2050   11.1350 N   0  0  0  0  0  0  0  0  0  0  0  0
  1  2  1  0  0  0  0
  2  3  1  0  0  0  0
  3  4  1  0  0  0  0
  5  6  1  0  0  0  0
  5  4  1  0  0  0  0
M  END
>  <EGIN_R>
ES LYS A 135

>  <REMARK>
  4 active torsions:
  status: ('A' for Active; 'I' for Inactive)
    5  A    between atoms: CA   and  CB  
    6  A    between atoms: CB   and  CG  
    7  A    between atoms: CG   and  CD  
    8  A    between atoms: CD   and  CE  

$$$$
