ligand_71_pose_15_2HRL.pdbqt
 OpenBabel07062320523D

 54 55  0  0  1  0  0  0  0  0999 V2000
   26.4960   35.2370   11.8760 N   0  0  0  0  0  0  0  0  0  0  0  0
   25.3300   35.9910   12.2460 C   0  0  0  0  0  0  0  0  0  0  0  0
   25.4340   37.1150   12.7980 O   0  0  0  0  0  0  0  0  0  0  0  0
   26.3900   34.3150   11.4220 H   0  0  0  0  0  0  0  0  0  0  0  0
   27.7810   35.8130   12.1600 C   0  0  0  0  0  0  0  0  0  0  0  0
   28.6930   34.8930   12.9350 C   0  0  2  0  0  0  0  0  0  0  0  0
   28.1120   34.7500   14.3210 C   0  0  1  0  0  0  0  0  0  0  0  0
   29.1700   34.2660   15.3160 C   0  0  2  0  0  0  0  0  0  0  0  0
   31.0530   33.0350   15.4980 C   0  0  2  0  0  0  0  0  0  0  0  0
   30.7230   32.7590   16.9190 C   0  0  0  0  0  0  0  0  0  0  0  0
   29.9340   33.2730   14.7530 O   0  0  0  0  0  0  0  0  0  0  0  0
   29.2510   32.6800   17.2460 C   0  0  1  0  0  0  0  0  0  0  0  0
   28.4440   33.7330   16.5400 C   0  0  1  0  0  0  0  0  0  0  0  0
   31.6230   31.8490   14.9220 O   0  0  0  0  0  0  0  0  0  0  0  0
   32.5850   31.8090   15.1780 H   0  0  0  0  0  0  0  0  0  0  0  0
   32.1230   34.0650   15.3550 C   0  0  0  0  0  0  0  0  0  0  0  0
   32.5860   34.6400   16.3410 O   0  0  0  0  0  0  0  0  0  0  0  0
   32.6370   34.4170   14.1050 O   0  0  0  0  0  0  0  0  0  0  0  0
   33.2410   33.8060   13.5840 H   0  0  0  0  0  0  0  0  0  0  0  0
   28.8290   31.3950   16.8960 O   0  0  0  0  0  0  0  0  0  0  0  0
   28.3680   31.3880   16.0100 H   0  0  0  0  0  0  0  0  0  0  0  0
   28.0420   34.8290   17.3510 N   0  0  0  0  0  0  0  0  0  0  0  0
   26.8090   34.9170   18.0460 C   0  0  0  0  0  0  0  0  0  0  0  0
   28.6850   35.6500   17.4630 H   0  0  0  0  0  0  0  0  0  0  0  0
   26.4480   36.1050   18.8790 C   0  0  0  0  0  0  0  0  0  0  0  0
   26.0180   33.9630   17.9400 O   0  0  0  0  0  0  0  0  0  0  0  0
   27.5260   35.9210   14.7610 O   0  0  0  0  0  0  0  0  0  0  0  0
   28.1890   36.3980   15.3470 H   0  0  0  0  0  0  0  0  0  0  0  0
   29.9570   35.4780   12.9650 O   0  0  0  0  0  0  0  0  0  0  0  0
   29.8800   36.3620   12.5150 H   0  0  0  0  0  0  0  0  0  0  0  0
   24.0630   35.5090   12.0090 O   0  0  0  0  0  0  0  0  0  0  0  0
   23.1620   35.0440   12.9710 C   0  0  0  0  0  0  0  0  0  0  0  0
   23.6990   33.8360   13.6320 C   0  0  0  0  0  0  0  0  0  0  0  0
   23.6820   32.5290   13.1900 C   0  0  0  0  0  0  0  0  0  0  0  0
   24.3250   33.8320   14.8200 N   0  0  0  0  0  0  0  0  0  0  0  0
   24.2900   31.7910   14.1170 N   0  0  0  0  0  0  0  0  0  0  0  0
   24.6660   32.6060   15.0860 N   0  0  0  0  0  0  0  0  0  0  0  0
   24.4920   30.3410   14.0230 C   0  0  0  0  0  0  0  0  0  0  0  0
   24.7740   29.7830   15.3790 C   0  0  0  0  0  0  0  0  0  0  0  0
   23.9290   29.2190   16.0930 O   0  0  0  0  0  0  0  0  0  0  0  0
   26.1080   29.9070   15.8870 N   0  0  0  0  0  0  0  0  0  0  0  0
   26.8400   30.3780   15.3080 H   0  0  0  0  0  0  0  0  0  0  0  0
   26.4740   29.4040   17.1570 C   0  0  0  0  0  0  0  0  0  0  0  0
   26.8930   28.1410   17.3630 N   0  0  0  0  0  0  0  0  0  0  0  0
   26.4150   30.2030   18.2410 N   0  0  0  0  0  0  0  0  0  0  0  0
   27.2370   27.6890   18.5850 C   0  0  0  0  0  0  0  0  0  0  0  0
   26.7410   29.8180   19.4720 C   0  0  0  0  0  0  0  0  0  0  0  0
   27.1700   28.5230   19.6830 C   0  0  0  0  0  0  0  0  0  0  0  0
   29.8670   25.5550   16.9770 C   0  0  0  0  0  0  0  0  0  0  0  0
   28.3450   25.7220   17.0260 C   0  0  0  0  0  0  0  0  0  0  0  0
   27.5990   24.4230   16.7630 C   0  0  0  0  0  0  0  0  0  0  0  0
   26.7740   23.9940   17.9440 C   0  0  0  0  0  0  0  0  0  0  0  0
   25.3200   23.8250   17.5150 C   0  0  0  0  0  0  0  0  0  0  0  0
   24.6860   25.1470   17.2980 N   0  0  0  0  0  0  0  0  0  0  0  0
  1  5  1  0  0  0  0
  1  2  1  0  0  0  0
  2  3  2  0  0  0  0
  4  1  1  0  0  0  0
  6  5  1  6  0  0  0
  6 29  1  0  0  0  0
  6  7  1  0  0  0  0
  7 27  1  1  0  0  0
  8  7  1  6  0  0  0
  8 13  1  0  0  0  0
  9 14  1  6  0  0  0
  9 10  1  0  0  0  0
 10 12  1  0  0  0  0
 11  8  1  0  0  0  0
 11  9  1  0  0  0  0
 12 20  1  6  0  0  0
 13 12  1  0  0  0  0
 13 22  1  1  0  0  0
 14 15  1  0  0  0  0
 16  9  1  0  0  0  0
 16 17  2  0  0  0  0
 18 16  1  0  0  0  0
 19 18  1  0  0  0  0
 21 20  1  0  0  0  0
 22 24  1  0  0  0  0
 22 23  1  0  0  0  0
 23 25  1  0  0  0  0
 26 23  2  0  0  0  0
 27 28  1  0  0  0  0
 30 29  1  0  0  0  0
 31  2  1  0  0  0  0
 31 32  1  0  0  0  0
 32 33  1  0  0  0  0
 33 35  1  0  0  0  0
 34 33  2  0  0  0  0
 34 36  1  0  0  0  0
 35 37  2  0  0  0  0
 36 37  1  0  0  0  0
 38 36  1  0  0  0  0
 38 39  1  0  0  0  0
 39 41  1  0  0  0  0
 39 40  2  0  0  0  0
 41 43  1  0  0  0  0
 42 41  1  0  0  0  0
 43 44  2  0  0  0  0
 43 45  1  0  0  0  0
 44 46  1  0  0  0  0
 45 47  2  0  0  0  0
 46 48  2  0  0  0  0
 47 48  1  0  0  0  0
 49 50  1  0  0  0  0
 51 50  1  0  0  0  0
 51 52  1  0  0  0  0
 53 52  1  0  0  0  0
 54 53  1  0  0  0  0
M  END
>  <REMARK>
 VINA RESULT:    -3.824      2.173      6.033
 INTER + INTRA:         -14.630
 INTER:                  -7.472
 INTRA:                  -7.158
 UNBOUND:                -7.565
 SMILES CC(=O)N[C@@H]1[C@@H](O)C[C@](O)(C(=O)O)O[C@H]1C(O)[C@H](O)CNC(=O)OCc1cn(CC(=O)Nc2ncccn2)nn1
 SMILES IDX 21 1 22 2 23 3 20 5 18 6 16 7 15 8 9 9 8 10 14 11 6 12 5 13
 SMILES IDX 10 14 11 16 12 17 13 18 7 20 4 22 2 23 1 25 3 26 17 27 19 29
 SMILES IDX 24 31 25 32 26 33 27 34 40 35 28 36 39 37 29 38 30 39 31 40
 SMILES IDX 32 41 33 43 34 44 38 45 35 46 37 47 36 48
 H PARENT 21 4 10 15 13 19 7 21 4 24 17 28 19 30 32 42
 Flexibility Score: inf
  4 active torsions:
  status: ('A' for Active; 'I' for Inactive)
    1  A    between atoms: CA   and  CB  
    2  A    between atoms: CB   and  CG  
    3  A    between atoms: CG   and  CD  
    4  A    between atoms: CD   and  CE  

>  <TORSDO>
F 17

>  <BEGIN_>
RES LYS A 131

$$$$
ligand_71_pose_15_2HRL.pdbqt
 OpenBabel07062320523D

  6  5  0  0  0  0  0  0  0  0999 V2000
   33.1930   34.6630    9.2900 C   0  0  0  0  0  0  0  0  0  0  0  0
   32.0600   35.3600   10.0340 C   0  0  0  0  0  0  0  0  0  0  0  0
   30.7060   34.7510    9.7760 C   0  0  0  0  0  0  0  0  0  0  0  0
   30.5010   34.5090    8.2890 C   0  0  0  0  0  0  0  0  0  0  0  0
   29.0870   34.8750    7.8790 C   0  0  0  0  0  0  0  0  0  0  0  0
   28.9650   36.3380    7.6250 N   0  0  0  0  0  0  0  0  0  0  0  0
  1  2  1  0  0  0  0
  3  2  1  0  0  0  0
  4  3  1  0  0  0  0
  5  4  1  0  0  0  0
  6  5  1  0  0  0  0
M  END
>  <EGIN_R>
ES LYS A 135

>  <REMARK>
  4 active torsions:
  status: ('A' for Active; 'I' for Inactive)
    5  A    between atoms: CA   and  CB  
    6  A    between atoms: CB   and  CG  
    7  A    between atoms: CG   and  CD  
    8  A    between atoms: CD   and  CE  

$$$$
