ligand_5_pose_8_2HRL.pdbqt
 OpenBabel07062320523D

 51 52  0  0  1  0  0  0  0  0999 V2000
   31.8660   34.1380   17.3140 N   0  0  0  0  0  0  0  0  0  0  0  0
   32.5940   34.6880   16.2360 C   0  0  0  0  0  0  0  0  0  0  0  0
   33.3400   35.6690   16.3710 O   0  0  0  0  0  0  0  0  0  0  0  0
   31.2410   33.3110   17.0480 H   0  0  0  0  0  0  0  0  0  0  0  0
   31.8580   34.5270   18.6660 C   0  0  0  0  0  0  0  0  0  0  0  0
   30.6280   34.4350   19.4490 C   0  0  2  0  0  0  0  0  0  0  0  0
   30.1630   33.1510   19.9260 C   0  0  1  0  0  0  0  0  0  0  0  0
   30.0380   32.0330   18.8680 C   0  0  2  0  0  0  0  0  0  0  0  0
   28.6610   31.9350   16.9560 C   0  0  2  0  0  0  0  0  0  0  0  0
   27.6570   31.0350   17.6940 C   0  0  0  0  0  0  0  0  0  0  0  0
   29.2930   32.6590   17.8840 O   0  0  0  0  0  0  0  0  0  0  0  0
   28.4680   30.0860   18.4880 C   0  0  1  0  0  0  0  0  0  0  0  0
   29.5280   30.7660   19.3750 C   0  0  1  0  0  0  0  0  0  0  0  0
   27.8180   32.8500   16.2690 O   0  0  0  0  0  0  0  0  0  0  0  0
   27.2300   33.3320   16.9000 H   0  0  0  0  0  0  0  0  0  0  0  0
   29.4540   31.2360   15.9650 C   0  0  0  0  0  0  0  0  0  0  0  0
   29.0130   30.1930   15.4180 O   0  0  0  0  0  0  0  0  0  0  0  0
   30.7240   31.6150   15.5270 O   0  0  0  0  0  0  0  0  0  0  0  0
   30.9020   31.9290   14.5700 H   0  0  0  0  0  0  0  0  0  0  0  0
   27.7080   29.2710   19.3430 O   0  0  0  0  0  0  0  0  0  0  0  0
   26.7760   29.3010   18.9600 H   0  0  0  0  0  0  0  0  0  0  0  0
   30.4640   29.7040   19.5830 N   0  0  0  0  0  0  0  0  0  0  0  0
   30.6320   28.9260   20.7280 C   0  0  0  0  0  0  0  0  0  0  0  0
   31.1000   29.5000   18.7550 H   0  0  0  0  0  0  0  0  0  0  0  0
   31.6650   27.8470   20.8000 C   0  0  0  0  0  0  0  0  0  0  0  0
   29.8900   29.1640   21.6870 O   0  0  0  0  0  0  0  0  0  0  0  0
   30.9410   32.7230   20.9960 O   0  0  0  0  0  0  0  0  0  0  0  0
   30.5660   31.9190   21.4360 H   0  0  0  0  0  0  0  0  0  0  0  0
   29.6050   35.2040   18.8230 O   0  0  0  0  0  0  0  0  0  0  0  0
   28.7140   34.8920   19.1300 H   0  0  0  0  0  0  0  0  0  0  0  0
   32.5020   34.1380   14.9410 O   0  0  0  0  0  0  0  0  0  0  0  0
   32.1730   34.9680   13.8550 C   0  0  0  0  0  0  0  0  0  0  0  0
   30.7350   34.8610   13.5640 C   0  0  0  0  0  0  0  0  0  0  0  0
   30.1300   35.4200   12.4330 C   0  0  0  0  0  0  0  0  0  0  0  0
   29.7440   34.2700   14.2270 N   0  0  0  0  0  0  0  0  0  0  0  0
   28.8150   35.1390   12.4720 N   0  0  0  0  0  0  0  0  0  0  0  0
   28.6190   34.4340   13.5840 N   0  0  0  0  0  0  0  0  0  0  0  0
   27.8260   35.5120   11.5230 C   0  0  0  0  0  0  0  0  0  0  0  0
   27.7370   36.7780   10.9900 C   0  0  0  0  0  0  0  0  0  0  0  0
   26.8820   34.5810   11.0830 C   0  0  0  0  0  0  0  0  0  0  0  0
   26.7640   37.1230   10.0600 C   0  0  0  0  0  0  0  0  0  0  0  0
   25.9150   34.9270   10.1600 C   0  0  0  0  0  0  0  0  0  0  0  0
   25.8410   36.1970    9.6360 C   0  0  0  0  0  0  0  0  0  0  0  0
   24.8890   36.5400    8.7250 O   0  0  0  0  0  0  0  0  0  0  0  0
   25.1660   37.5250    7.7520 C   0  0  0  0  0  0  0  0  0  0  0  0
   29.8670   25.5550   16.9770 C   0  0  0  0  0  0  0  0  0  0  0  0
   28.3450   25.7220   17.0260 C   0  0  0  0  0  0  0  0  0  0  0  0
   27.6010   24.4060   16.8580 C   0  0  0  0  0  0  0  0  0  0  0  0
   26.5260   24.2280   17.8940 C   0  0  0  0  0  0  0  0  0  0  0  0
   25.1570   24.2770   17.2220 C   0  0  0  0  0  0  0  0  0  0  0  0
   24.3330   23.1170   17.6360 N   0  0  0  0  0  0  0  0  0  0  0  0
  1  5  1  0  0  0  0
  2  3  2  0  0  0  0
  2  1  1  0  0  0  0
  4  1  1  0  0  0  0
  6  5  1  6  0  0  0
  6  7  1  0  0  0  0
  7 27  1  1  0  0  0
  8 13  1  0  0  0  0
  8  7  1  1  0  0  0
  9 16  1  6  0  0  0
  9 10  1  0  0  0  0
  9 11  1  0  0  0  0
 10 12  1  0  0  0  0
 11  8  1  0  0  0  0
 12 20  1  1  0  0  0
 12 13  1  0  0  0  0
 13 22  1  6  0  0  0
 14 15  1  0  0  0  0
 14  9  1  0  0  0  0
 17 16  2  0  0  0  0
 18 16  1  0  0  0  0
 19 18  1  0  0  0  0
 21 20  1  0  0  0  0
 22 23  1  0  0  0  0
 23 25  1  0  0  0  0
 23 26  2  0  0  0  0
 24 22  1  0  0  0  0
 27 28  1  0  0  0  0
 29 30  1  0  0  0  0
 29  6  1  0  0  0  0
 31  2  1  0  0  0  0
 32 31  1  0  0  0  0
 33 32  1  0  0  0  0
 33 35  1  0  0  0  0
 34 36  1  0  0  0  0
 34 33  2  0  0  0  0
 36 37  1  0  0  0  0
 37 35  2  0  0  0  0
 38 36  1  0  0  0  0
 39 38  2  0  0  0  0
 40 38  1  0  0  0  0
 41 39  1  0  0  0  0
 42 40  2  0  0  0  0
 43 41  2  0  0  0  0
 43 42  1  0  0  0  0
 44 43  1  0  0  0  0
 45 44  1  0  0  0  0
 46 47  1  0  0  0  0
 48 47  1  0  0  0  0
 48 49  1  0  0  0  0
 50 51  1  0  0  0  0
 50 49  1  0  0  0  0
M  END
>  <REMARK>
 VINA RESULT:    -5.030      3.400      7.637
 INTER + INTRA:         -14.226
 INTER:                  -8.478
 INTRA:                  -5.748
 UNBOUND:                -5.226
 SMILES COc1ccc(-n2cc(COC(=O)NC[C@@H](O)C(O)[C@@H]3O[C@@](O)(C(=O)O)C[C@H](O)[C@H]3NC(C)=O)nn2)cc1
 SMILES IDX 14 1 12 2 13 3 15 5 16 6 18 7 20 8 22 9 27 10 21 11 28 12
 SMILES IDX 30 13 23 14 24 16 25 17 26 18 29 20 31 22 32 23 33 25 34 26
 SMILES IDX 19 27 17 29 11 31 10 32 9 33 8 34 35 35 7 36 36 37 6 38 5 39
 SMILES IDX 37 40 4 41 38 42 3 43 2 44 1 45
 H PARENT 14 4 23 15 26 19 29 21 31 24 19 28 17 30
 Flexibility Score: inf
  4 active torsions:
  status: ('A' for Active; 'I' for Inactive)
    1  A    between atoms: CA   and  CB  
    2  A    between atoms: CB   and  CG  
    3  A    between atoms: CG   and  CD  
    4  A    between atoms: CD   and  CE  

>  <TORSDO>
F 16

>  <BEGIN_>
RES LYS A 131

$$$$
ligand_5_pose_8_2HRL.pdbqt
 OpenBabel07062320523D

  6  5  0  0  0  0  0  0  0  0999 V2000
   33.1930   34.6630    9.2900 C   0  0  0  0  0  0  0  0  0  0  0  0
   32.0600   35.3600   10.0340 C   0  0  0  0  0  0  0  0  0  0  0  0
   30.8690   35.6690    9.1650 C   0  0  0  0  0  0  0  0  0  0  0  0
   30.2640   34.3890    8.6080 C   0  0  0  0  0  0  0  0  0  0  0  0
   28.9000   34.6630    8.0030 C   0  0  0  0  0  0  0  0  0  0  0  0
   28.8700   35.9900    7.3280 N   0  0  0  0  0  0  0  0  0  0  0  0
  1  2  1  0  0  0  0
  3  2  1  0  0  0  0
  4  3  1  0  0  0  0
  5  4  1  0  0  0  0
  6  5  1  0  0  0  0
M  END
>  <EGIN_R>
ES LYS A 135

>  <REMARK>
  4 active torsions:
  status: ('A' for Active; 'I' for Inactive)
    5  A    between atoms: CA   and  CB  
    6  A    between atoms: CB   and  CG  
    7  A    between atoms: CG   and  CD  
    8  A    between atoms: CD   and  CE  

$$$$
