ligand_22_pose_10_2HRL.pdbqt
 OpenBabel07062320523D

 50 50  0  0  1  0  0  0  0  0999 V2000
   29.0240   33.0800   18.7390 N   0  0  0  0  0  0  0  0  0  0  0  0
   28.0310   32.5570   17.8770 C   0  0  0  0  0  0  0  0  0  0  0  0
   27.3250   31.5520   18.2310 O   0  0  0  0  0  0  0  0  0  0  0  0
   29.5890   33.8980   18.4440 H   0  0  0  0  0  0  0  0  0  0  0  0
   29.2080   32.4470   20.0200 C   0  0  0  0  0  0  0  0  0  0  0  0
   30.5620   31.8810   20.2620 C   0  0  2  0  0  0  0  0  0  0  0  0
   30.7200   30.4630   19.7740 C   0  0  1  0  0  0  0  0  0  0  0  0
   30.8700   29.5590   21.0040 C   0  0  2  0  0  0  0  0  0  0  0  0
   32.5800   28.7090   22.3320 C   0  0  2  0  0  0  0  0  0  0  0  0
   31.9810   27.3210   22.2670 C   0  0  0  0  0  0  0  0  0  0  0  0
   32.2340   29.5080   21.2690 O   0  0  0  0  0  0  0  0  0  0  0  0
   31.3330   27.1030   20.9300 C   0  0  1  0  0  0  0  0  0  0  0  0
   30.3010   28.1900   20.6980 C   0  0  1  0  0  0  0  0  0  0  0  0
   33.9710   28.5340   22.2580 O   0  0  0  0  0  0  0  0  0  0  0  0
   34.4200   29.3950   22.3460 H   0  0  0  0  0  0  0  0  0  0  0  0
   32.2710   29.3500   23.6280 C   0  0  0  0  0  0  0  0  0  0  0  0
   31.7290   28.6910   24.5380 O   0  0  0  0  0  0  0  0  0  0  0  0
   32.5650   30.6820   23.8790 O   0  0  0  0  0  0  0  0  0  0  0  0
   32.0880   31.4390   23.4110 H   0  0  0  0  0  0  0  0  0  0  0  0
   32.2340   27.0030   19.8980 O   0  0  0  0  0  0  0  0  0  0  0  0
   33.0490   27.5390   20.0090 H   0  0  0  0  0  0  0  0  0  0  0  0
   29.1730   27.8870   21.5770 N   0  0  0  0  0  0  0  0  0  0  0  0
   27.8570   27.7310   21.0630 C   0  0  0  0  0  0  0  0  0  0  0  0
   29.3240   27.7810   22.6020 H   0  0  0  0  0  0  0  0  0  0  0  0
   26.6940   27.4220   21.9460 C   0  0  0  0  0  0  0  0  0  0  0  0
   27.7260   27.8710   19.8060 O   0  0  0  0  0  0  0  0  0  0  0  0
   29.7300   30.0190   18.9440 O   0  0  0  0  0  0  0  0  0  0  0  0
   29.9420   29.1370   18.5840 H   0  0  0  0  0  0  0  0  0  0  0  0
   30.7460   31.9000   21.6680 O   0  0  0  0  0  0  0  0  0  0  0  0
   30.4690   32.8000   22.0070 H   0  0  0  0  0  0  0  0  0  0  0  0
   27.7540   33.0690   16.6260 O   0  0  0  0  0  0  0  0  0  0  0  0
   28.2800   32.4610   15.4330 C   0  0  0  0  0  0  0  0  0  0  0  0
   29.7010   32.8770   15.3070 C   0  0  0  0  0  0  0  0  0  0  0  0
   30.1410   34.0940   14.8100 C   0  0  0  0  0  0  0  0  0  0  0  0
   30.8250   32.2090   15.6250 N   0  0  0  0  0  0  0  0  0  0  0  0
   31.4930   34.1300   14.8400 N   0  0  0  0  0  0  0  0  0  0  0  0
   31.8730   32.9700   15.3410 N   0  0  0  0  0  0  0  0  0  0  0  0
   32.3200   35.2370   14.4040 C   0  0  0  0  0  0  0  0  0  0  0  0
   31.9940   35.6010   12.9700 C   0  0  0  0  0  0  0  0  0  0  0  0
   32.0750   36.4310   15.3030 C   0  0  0  0  0  0  0  0  0  0  0  0
   33.7660   34.8700   14.4400 C   0  0  0  0  0  0  0  0  0  0  0  0
   34.4720   35.3900   15.3410 O   0  0  0  0  0  0  0  0  0  0  0  0
   34.3290   33.9950   13.5310 O   0  0  0  0  0  0  0  0  0  0  0  0
   33.7480   33.2290   13.2000 H   0  0  0  0  0  0  0  0  0  0  0  0
   29.8670   25.5550   16.9770 C   0  0  0  0  0  0  0  0  0  0  0  0
   28.3450   25.7220   17.0260 C   0  0  0  0  0  0  0  0  0  0  0  0
   27.6030   24.3950   16.9830 C   0  0  0  0  0  0  0  0  0  0  0  0
   26.1170   24.5720   17.1230 C   0  0  0  0  0  0  0  0  0  0  0  0
   25.6450   23.9130   18.4150 C   0  0  0  0  0  0  0  0  0  0  0  0
   25.7610   24.8570   19.5520 N   0  0  0  0  0  0  0  0  0  0  0  0
  1  5  1  0  0  0  0
  2  3  2  0  0  0  0
  2  1  1  0  0  0  0
  4  1  1  0  0  0  0
  6  5  1  1  0  0  0
  6 29  1  0  0  0  0
  7 27  1  1  0  0  0
  7  6  1  0  0  0  0
  8  7  1  6  0  0  0
  8 11  1  0  0  0  0
  9 14  1  6  0  0  0
  9 16  1  0  0  0  0
 10  9  1  0  0  0  0
 11  9  1  0  0  0  0
 12 20  1  6  0  0  0
 12 10  1  0  0  0  0
 13 12  1  0  0  0  0
 13  8  1  0  0  0  0
 13 22  1  1  0  0  0
 14 15  1  0  0  0  0
 16 18  1  0  0  0  0
 16 17  2  0  0  0  0
 19 18  1  0  0  0  0
 20 21  1  0  0  0  0
 22 24  1  0  0  0  0
 23 22  1  0  0  0  0
 23 25  1  0  0  0  0
 26 23  2  0  0  0  0
 28 27  1  0  0  0  0
 29 30  1  0  0  0  0
 31  2  1  0  0  0  0
 32 31  1  0  0  0  0
 33 32  1  0  0  0  0
 33 35  1  0  0  0  0
 34 36  1  0  0  0  0
 34 33  2  0  0  0  0
 36 37  1  0  0  0  0
 37 35  2  0  0  0  0
 38 41  1  0  0  0  0
 38 36  1  0  0  0  0
 38 40  1  0  0  0  0
 39 38  1  0  0  0  0
 41 42  2  0  0  0  0
 43 41  1  0  0  0  0
 44 43  1  0  0  0  0
 45 46  1  0  0  0  0
 47 46  1  0  0  0  0
 47 48  1  0  0  0  0
 48 49  1  0  0  0  0
 49 50  1  0  0  0  0
M  END
>  <REMARK>
 VINA RESULT:    -4.878      4.742      8.896
 INTER + INTRA:         -14.449
 INTER:                  -8.594
 INTRA:                  -5.855
 UNBOUND:                -5.578
 SMILES CC(=O)N[C@@H]1[C@@H](O)C[C@](O)(C(=O)O)O[C@H]1C(O)[C@H](O)CNC(=O)OCc1cn(C(C)(C)C(=O)O)nn1
 SMILES IDX 21 1 22 2 23 3 20 5 18 6 16 7 15 8 9 9 8 10 14 11 6 12 5 13
 SMILES IDX 10 14 11 16 12 17 13 18 7 20 4 22 2 23 1 25 3 26 17 27 19 29
 SMILES IDX 24 31 25 32 26 33 27 34 36 35 28 36 35 37 29 38 30 39 31 40
 SMILES IDX 32 41 33 42 34 43
 H PARENT 21 4 10 15 13 19 7 21 4 24 17 28 19 30 34 44
 Flexibility Score: inf
  4 active torsions:
  status: ('A' for Active; 'I' for Inactive)
    1  A    between atoms: CA   and  CB  
    2  A    between atoms: CB   and  CG  
    3  A    between atoms: CG   and  CD  
    4  A    between atoms: CD   and  CE  

>  <TORSDO>
F 17

>  <BEGIN_>
RES LYS A 131

$$$$
ligand_22_pose_10_2HRL.pdbqt
 OpenBabel07062320523D

  6  5  0  0  0  0  0  0  0  0999 V2000
   33.1930   34.6630    9.2900 C   0  0  0  0  0  0  0  0  0  0  0  0
   32.0600   35.3600   10.0340 C   0  0  0  0  0  0  0  0  0  0  0  0
   30.7040   34.7580    9.7680 C   0  0  0  0  0  0  0  0  0  0  0  0
   30.4790   34.5830    8.2740 C   0  0  0  0  0  0  0  0  0  0  0  0
   29.0270   34.8440    7.9200 C   0  0  0  0  0  0  0  0  0  0  0  0
   28.9120   35.5630    6.6210 N   0  0  0  0  0  0  0  0  0  0  0  0
  1  2  1  0  0  0  0
  3  2  1  0  0  0  0
  4  3  1  0  0  0  0
  5  4  1  0  0  0  0
  6  5  1  0  0  0  0
M  END
>  <EGIN_R>
ES LYS A 135

>  <REMARK>
  4 active torsions:
  status: ('A' for Active; 'I' for Inactive)
    5  A    between atoms: CA   and  CB  
    6  A    between atoms: CB   and  CG  
    7  A    between atoms: CG   and  CD  
    8  A    between atoms: CD   and  CE  

$$$$
