ligand_69_pose_11_2HRL.pdbqt
 OpenBabel07062320523D

 54 51  0  0  1  0  0  0  0  0999 V2000
   26.5780   40.0680    8.0350 N   0  0  0  0  0  0  0  0  0  0  0  0
   26.7430   40.0880    6.6170 C   0  0  0  0  0  0  0  0  0  0  0  0
   25.9170   40.6350    5.8420 O   0  0  0  0  0  0  0  0  0  0  0  0
   27.2790   39.6060    8.6530 H   0  0  0  0  0  0  0  0  0  0  0  0
   25.3770   40.7280    8.5490 C   0  0  0  0  0  0  0  0  0  0  0  0
   24.4200   39.6230    8.9590 C   0  0  2  0  0  0  0  0  0  0  0  0
   23.3320   39.3870    7.9360 C   0  0  2  0  0  0  0  0  0  0  0  0
   22.1170   38.7510    8.5330 C   0  0  2  0  0  0  0  0  0  0  0  0
   20.5330   37.1150    8.4220 C   0  0  2  0  0  0  0  0  0  0  0  0
   20.1890   37.7240    9.7650 C   0  0  0  0  0  0  0  0  0  0  0  0
   21.7490   37.5750    7.9340 O   0  0  0  0  0  0  0  0  0  0  0  0
   20.0540   39.2310    9.6820 C   0  0  1  0  0  0  0  0  0  0  0  0
   20.9200   39.6770    8.5390 C   0  0  1  0  0  0  0  0  0  0  0  0
   19.5010   37.2920    7.5070 O   0  0  0  0  0  0  0  0  0  0  0  0
   19.5780   36.6710    6.7350 H   0  0  0  0  0  0  0  0  0  0  0  0
   20.6890   35.6570    8.6470 C   0  0  0  0  0  0  0  0  0  0  0  0
   20.8760   35.1640    9.7920 O   0  0  0  0  0  0  0  0  0  0  0  0
   20.6300   34.8010    7.5700 O   0  0  0  0  0  0  0  0  0  0  0  0
   21.3260   34.0920    7.3600 H   0  0  0  0  0  0  0  0  0  0  0  0
   18.7200   39.5210    9.5190 O   0  0  0  0  0  0  0  0  0  0  0  0
   18.4400   39.1480    8.6260 H   0  0  0  0  0  0  0  0  0  0  0  0
   21.2620   41.0510    8.5350 N   0  0  0  0  0  0  0  0  0  0  0  0
   20.7880   42.0190    7.6100 C   0  0  0  0  0  0  0  0  0  0  0  0
   21.9190   41.3950    9.2680 H   0  0  0  0  0  0  0  0  0  0  0  0
   21.2100   43.4500    7.6900 C   0  0  0  0  0  0  0  0  0  0  0  0
   20.0010   41.6320    6.7240 O   0  0  0  0  0  0  0  0  0  0  0  0
   23.8130   38.7630    6.8110 O   0  0  0  0  0  0  0  0  0  0  0  0
   24.4140   38.0360    7.0880 H   0  0  0  0  0  0  0  0  0  0  0  0
   23.7470   40.0090   10.1410 O   0  0  0  0  0  0  0  0  0  0  0  0
   24.1200   39.5310   10.9350 H   0  0  0  0  0  0  0  0  0  0  0  0
   27.8450   39.4900    6.0570 O   0  0  0  0  0  0  0  0  0  0  0  0
   27.7960   38.3340    5.2380 C   0  0  0  0  0  0  0  0  0  0  0  0
   27.6760   37.1440    6.1110 C   0  0  0  0  0  0  0  0  0  0  0  0
   26.7500   36.8710    7.0930 C   0  0  0  0  0  0  0  0  0  0  0  0
   28.5090   36.0850    6.0690 N   0  0  0  0  0  0  0  0  0  0  0  0
   27.0360   35.6660    7.6210 N   0  0  0  0  0  0  0  0  0  0  0  0
   28.1140   35.2230    6.9690 N   0  0  0  0  0  0  0  0  0  0  0  0
   26.3020   34.9940    8.6940 C   0  0  2  0  0  0  0  0  0  0  0  0
   25.4700   36.0210    9.3850 C   0  0  0  0  0  0  0  0  0  0  0  0
   24.4150   35.4730   10.2800 *   0  0  0  0  0  0  0  0  0  0  0  0
   23.3900   36.4100   10.5420 O   0  0  0  0  0  0  0  0  0  0  0  0
   23.6760   36.9840   11.2840 H   0  0  0  0  0  0  0  0  0  0  0  0
   27.2980   34.3140    9.5690 C   0  0  0  0  0  0  0  0  0  0  0  0
   27.4110   34.8900   10.9480 C   0  0  1  0  0  0  0  0  0  0  0  0
   26.2220   34.6460   11.7930 C   0  0  0  0  0  0  0  0  0  0  0  0
   24.9610   34.8920   11.5130 *   0  0  0  0  0  0  0  0  0  0  0  0
   28.5810   34.4990   11.5970 O   0  0  0  0  0  0  0  0  0  0  0  0
   29.3320   34.3910   10.9610 H   0  0  0  0  0  0  0  0  0  0  0  0
   29.8670   25.5550   16.9770 C   0  0  0  0  0  0  0  0  0  0  0  0
   28.3450   25.7220   17.0260 C   0  0  0  0  0  0  0  0  0  0  0  0
   27.6020   24.3980   16.9290 C   0  0  0  0  0  0  0  0  0  0  0  0
   26.1540   24.5320   17.3120 C   0  0  0  0  0  0  0  0  0  0  0  0
   25.6380   23.1930   17.8280 C   0  0  0  0  0  0  0  0  0  0  0  0
   24.2380   23.3230   18.2960 N   0  0  0  0  0  0  0  0  0  0  0  0
  1  5  1  0  0  0  0
  1  4  1  0  0  0  0
  2  1  1  0  0  0  0
  3  2  2  0  0  0  0
  6  5  1  6  0  0  0
  6 29  1  0  0  0  0
  7 27  1  6  0  0  0
  7  6  1  0  0  0  0
  8  7  1  6  0  0  0
  8 13  1  0  0  0  0
  9 14  1  6  0  0  0
  9 16  1  0  0  0  0
  9 10  1  0  0  0  0
 11  9  1  0  0  0  0
 11  8  1  0  0  0  0
 12 20  1  6  0  0  0
 12 10  1  0  0  0  0
 13 22  1  1  0  0  0
 13 12  1  0  0  0  0
 15 14  1  0  0  0  0
 16 17  2  0  0  0  0
 18 16  1  0  0  0  0
 19 18  1  0  0  0  0
 21 20  1  0  0  0  0
 22 24  1  0  0  0  0
 23 25  1  0  0  0  0
 23 22  1  0  0  0  0
 26 23  2  0  0  0  0
 27 28  1  0  0  0  0
 29 30  1  0  0  0  0
 31  2  1  0  0  0  0
 32 31  1  0  0  0  0
 32 33  1  0  0  0  0
 33 34  2  0  0  0  0
 34 36  1  0  0  0  0
 35 33  1  0  0  0  0
 35 37  2  0  0  0  0
 36 38  1  0  0  0  0
 37 36  1  0  0  0  0
 38 39  1  1  0  0  0
 38 43  1  0  0  0  0
 41 42  1  0  0  0  0
 43 44  1  0  0  0  0
 44 47  1  0  0  0  0
 44 45  1  1  0  0  0
 48 47  1  0  0  0  0
 49 50  1  0  0  0  0
 51 50  1  0  0  0  0
 51 52  1  0  0  0  0
 52 53  1  0  0  0  0
 53 54  1  0  0  0  0
M  END
>  <REMARK>
 VINA RESULT:    -7.745      4.705      9.857
 INTER + INTRA:         -13.088
 INTER:                  -8.921
 INTRA:                  -4.167
 UNBOUND:                 3.032
 SMILES CC(=O)N[C@@H]1[C@@H](O)C[C@](O)(C(=O)O)O[C@H]1C(O)[C@H](O)CNC(=O)OCc1cn(C2CC(O)C=C[C@@H](O)C2)nn1
 SMILES IDX 21 1 22 2 23 3 20 5 18 6 16 7 15 8 9 9 8 10 14 11 6 12 5 13
 SMILES IDX 10 14 11 16 12 17 13 18 7 20 4 22 2 23 1 25 3 26 17 27 19 29
 SMILES IDX 24 31 25 32 26 33 27 34 39 35 28 36 38 37 29 38 30 39 31 40
 SMILES IDX 32 42 37 44 35 45 34 46 33 47 36 49
 H PARENT 21 4 10 15 13 19 7 21 4 24 17 28 19 30 32 43 36 50
 Flexibility Score: 90.00
  4 active torsions:
  status: ('A' for Active; 'I' for Inactive)
    1  A    between atoms: CA   and  CB  
    2  A    between atoms: CB   and  CG  
    3  A    between atoms: CG   and  CD  
    4  A    between atoms: CD   and  CE  

>  <TORSDO>
F 17

>  <BEGIN_>
RES LYS A 131

$$$$
ligand_69_pose_11_2HRL.pdbqt
 OpenBabel07062320523D

  6  5  0  0  0  0  0  0  0  0999 V2000
   33.1930   34.6630    9.2900 C   0  0  0  0  0  0  0  0  0  0  0  0
   32.0600   35.3600   10.0340 C   0  0  0  0  0  0  0  0  0  0  0  0
   30.8330   35.5840    9.1890 C   0  0  0  0  0  0  0  0  0  0  0  0
   30.1790   36.9130    9.5340 C   0  0  0  0  0  0  0  0  0  0  0  0
   30.7530   38.0270    8.6790 C   0  0  0  0  0  0  0  0  0  0  0  0
   31.2560   39.1460    9.5230 N   0  0  0  0  0  0  0  0  0  0  0  0
  1  2  1  0  0  0  0
  3  4  1  0  0  0  0
  3  2  1  0  0  0  0
  5  6  1  0  0  0  0
  5  4  1  0  0  0  0
M  END
>  <EGIN_R>
ES LYS A 135

>  <REMARK>
  4 active torsions:
  status: ('A' for Active; 'I' for Inactive)
    5  A    between atoms: CA   and  CB  
    6  A    between atoms: CB   and  CG  
    7  A    between atoms: CG   and  CD  
    8  A    between atoms: CD   and  CE  

$$$$
