ligand_75_pose_5_2HRL.pdbqt
 OpenBabel07062320523D

 55 56  0  0  1  0  0  0  0  0999 V2000
   24.4120   40.4970    6.2190 N   0  0  0  0  0  0  0  0  0  0  0  0
   24.3190   40.2540    7.6080 C   0  0  0  0  0  0  0  0  0  0  0  0
   24.5780   41.1240    8.4650 O   0  0  0  0  0  0  0  0  0  0  0  0
   24.1710   39.6600    5.5840 H   0  0  0  0  0  0  0  0  0  0  0  0
   24.7880   41.7340    5.5980 C   0  0  0  0  0  0  0  0  0  0  0  0
   26.0960   41.6040    4.8840 C   0  0  2  0  0  0  0  0  0  0  0  0
   27.3060   41.7070    5.7920 C   0  0  2  0  0  0  0  0  0  0  0  0
   27.9820   40.3920    5.9330 C   0  0  2  0  0  0  0  0  0  0  0  0
   28.0350   38.2540    6.8010 C   0  0  2  0  0  0  0  0  0  0  0  0
   29.2550   38.1540    5.9290 C   0  0  0  0  0  0  0  0  0  0  0  0
   27.3200   39.4200    6.6130 O   0  0  0  0  0  0  0  0  0  0  0  0
   30.1640   39.3270    5.9680 C   0  0  1  0  0  0  0  0  0  0  0  0
   29.4070   40.5360    6.4620 C   0  0  1  0  0  0  0  0  0  0  0  0
   28.4000   38.0470    8.1310 O   0  0  0  0  0  0  0  0  0  0  0  0
   27.7970   38.4950    8.7620 H   0  0  0  0  0  0  0  0  0  0  0  0
   27.1350   37.1290    6.4210 C   0  0  0  0  0  0  0  0  0  0  0  0
   27.5910   36.1830    5.6920 O   0  0  0  0  0  0  0  0  0  0  0  0
   25.8100   37.0680    6.8310 O   0  0  0  0  0  0  0  0  0  0  0  0
   25.4730   37.5290    7.6510 H   0  0  0  0  0  0  0  0  0  0  0  0
   31.3250   39.1090    6.7040 O   0  0  0  0  0  0  0  0  0  0  0  0
   31.1310   38.5290    7.4590 H   0  0  0  0  0  0  0  0  0  0  0  0
   30.0190   41.7710    6.0790 N   0  0  0  0  0  0  0  0  0  0  0  0
   30.7820   42.5580    6.9790 C   0  0  0  0  0  0  0  0  0  0  0  0
   29.9240   42.1510    5.0900 H   0  0  0  0  0  0  0  0  0  0  0  0
   31.3950   43.8260    6.5380 C   0  0  0  0  0  0  0  0  0  0  0  0
   30.9500   42.1910    8.1690 O   0  0  0  0  0  0  0  0  0  0  0  0
   27.0110   42.3460    6.9920 O   0  0  0  0  0  0  0  0  0  0  0  0
   27.1900   41.7140    7.7220 H   0  0  0  0  0  0  0  0  0  0  0  0
   26.2270   42.5470    3.8630 O   0  0  0  0  0  0  0  0  0  0  0  0
   25.4210   42.4930    3.2800 H   0  0  0  0  0  0  0  0  0  0  0  0
   23.9220   38.9910    8.0970 O   0  0  0  0  0  0  0  0  0  0  0  0
   23.8710   38.7870    9.4740 C   0  0  0  0  0  0  0  0  0  0  0  0
   24.8350   37.7640    9.9420 C   0  0  0  0  0  0  0  0  0  0  0  0
   25.9620   37.8920   10.7190 C   0  0  0  0  0  0  0  0  0  0  0  0
   24.7510   36.4530    9.6570 N   0  0  0  0  0  0  0  0  0  0  0  0
   26.5350   36.6740   10.8910 N   0  0  0  0  0  0  0  0  0  0  0  0
   25.7740   35.8200   10.2320 N   0  0  0  0  0  0  0  0  0  0  0  0
   27.7230   36.4220   11.6440 C   0  0  0  0  0  0  0  0  0  0  0  0
   28.7600   37.3180   11.6570 C   0  0  0  0  0  0  0  0  0  0  0  0
   27.8480   35.2610   12.3720 C   0  0  0  0  0  0  0  0  0  0  0  0
   29.9470   37.0740   12.4020 C   0  0  0  0  0  0  0  0  0  0  0  0
   28.9580   34.9690   13.1060 C   0  0  0  0  0  0  0  0  0  0  0  0
   30.0100   35.9020   13.1070 C   0  0  0  0  0  0  0  0  0  0  0  0
   30.9690   38.0620   12.4100 C   0  0  0  0  0  0  0  0  0  0  0  0
   31.5200   38.8870   11.6080 C   0  0  0  0  0  0  0  0  0  0  0  0
   31.3700   39.2390   10.2520 C   0  0  0  0  0  0  0  0  0  0  0  0
   32.4260   39.0980    9.4520 O   0  0  0  0  0  0  0  0  0  0  0  0
   30.3060   39.7290    9.5390 O   0  0  0  0  0  0  0  0  0  0  0  0
   29.5400   40.2350    9.9560 H   0  0  0  0  0  0  0  0  0  0  0  0
   29.8670   25.5550   16.9770 C   0  0  0  0  0  0  0  0  0  0  0  0
   28.3450   25.7220   17.0260 C   0  0  0  0  0  0  0  0  0  0  0  0
   27.6010   24.4060   16.8580 C   0  0  0  0  0  0  0  0  0  0  0  0
   26.1430   24.5320   17.2040 C   0  0  0  0  0  0  0  0  0  0  0  0
   25.5900   23.1630   17.5860 C   0  0  0  0  0  0  0  0  0  0  0  0
   24.1380   23.0910   17.3000 N   0  0  0  0  0  0  0  0  0  0  0  0
  1  2  1  0  0  0  0
  2 31  1  0  0  0  0
  2  3  2  0  0  0  0
  4  1  1  0  0  0  0
  5  1  1  0  0  0  0
  6  5  1  1  0  0  0
  6  7  1  0  0  0  0
  7 27  1  1  0  0  0
  8  7  1  1  0  0  0
  8 13  1  0  0  0  0
  8 11  1  0  0  0  0
  9 16  1  6  0  0  0
  9 14  1  0  0  0  0
 10 12  1  0  0  0  0
 10  9  1  0  0  0  0
 11  9  1  0  0  0  0
 12 13  1  0  0  0  0
 12 20  1  1  0  0  0
 13 22  1  6  0  0  0
 14 15  1  0  0  0  0
 16 18  1  0  0  0  0
 17 16  2  0  0  0  0
 18 19  1  0  0  0  0
 20 21  1  0  0  0  0
 22 23  1  0  0  0  0
 23 26  2  0  0  0  0
 24 22  1  0  0  0  0
 25 23  1  0  0  0  0
 27 28  1  0  0  0  0
 29  6  1  0  0  0  0
 30 29  1  0  0  0  0
 31 32  1  0  0  0  0
 32 33  1  0  0  0  0
 33 34  2  0  0  0  0
 34 36  1  0  0  0  0
 35 33  1  0  0  0  0
 35 37  2  0  0  0  0
 36 38  1  0  0  0  0
 37 36  1  0  0  0  0
 38 39  2  0  0  0  0
 38 40  1  0  0  0  0
 39 41  1  0  0  0  0
 40 42  2  0  0  0  0
 41 44  1  0  0  0  0
 41 43  2  0  0  0  0
 42 43  1  0  0  0  0
 45 44  2  0  0  0  0
 46 45  1  0  0  0  0
 47 46  2  0  0  0  0
 48 49  1  0  0  0  0
 48 46  1  0  0  0  0
 50 51  1  0  0  0  0
 52 51  1  0  0  0  0
 52 53  1  0  0  0  0
 53 54  1  0  0  0  0
 55 54  1  0  0  0  0
M  END
>  <REMARK>
 VINA RESULT:    -5.073      3.517      6.363
 INTER + INTRA:         -15.839
 INTER:                  -7.755
 INTRA:                  -8.083
 UNBOUND:                -6.317
 SMILES CC(=O)N[C@@H]1[C@@H](O)C[C@](O)(C(=O)O)O[C@H]1C(O)[C@H](O)CNC(=O)OCc1cn(-c2cccc(C=CC(=O)O)c2)nn1
 SMILES IDX 21 1 22 2 23 3 20 5 18 6 16 7 15 8 9 9 8 10 14 11 6 12 5 13
 SMILES IDX 10 14 11 16 12 17 13 18 7 20 4 22 2 23 1 25 3 26 17 27 19 29
 SMILES IDX 24 31 25 32 26 33 27 34 41 35 28 36 40 37 29 38 39 39 30 40
 SMILES IDX 33 41 31 42 32 43 34 44 35 45 36 46 37 47 38 48
 H PARENT 21 4 10 15 13 19 7 21 4 24 17 28 19 30 38 49
 Flexibility Score: inf
  4 active torsions:
  status: ('A' for Active; 'I' for Inactive)
    1  A    between atoms: CA   and  CB  
    2  A    between atoms: CB   and  CG  
    3  A    between atoms: CG   and  CD  
    4  A    between atoms: CD   and  CE  

>  <TORSDO>
F 18

>  <BEGIN_>
RES LYS A 131

$$$$
ligand_75_pose_5_2HRL.pdbqt
 OpenBabel07062320523D

  6  5  0  0  0  0  0  0  0  0999 V2000
   33.1930   34.6630    9.2900 C   0  0  0  0  0  0  0  0  0  0  0  0
   32.0600   35.3600   10.0340 C   0  0  0  0  0  0  0  0  0  0  0  0
   30.8920   35.7210    9.1520 C   0  0  0  0  0  0  0  0  0  0  0  0
   30.3580   34.4880    8.4390 C   0  0  0  0  0  0  0  0  0  0  0  0
   28.8410   34.4930    8.4310 C   0  0  0  0  0  0  0  0  0  0  0  0
   28.2960   33.5720    9.4660 N   0  0  0  0  0  0  0  0  0  0  0  0
  1  2  1  0  0  0  0
  3  2  1  0  0  0  0
  4  3  1  0  0  0  0
  5  4  1  0  0  0  0
  5  6  1  0  0  0  0
M  END
>  <EGIN_R>
ES LYS A 135

>  <REMARK>
  4 active torsions:
  status: ('A' for Active; 'I' for Inactive)
    5  A    between atoms: CA   and  CB  
    6  A    between atoms: CB   and  CG  
    7  A    between atoms: CG   and  CD  
    8  A    between atoms: CD   and  CE  

$$$$
