ligand_24_pose_10_2HRL.pdbqt
 OpenBabel07062320523D

 52 53  0  0  1  0  0  0  0  0999 V2000
   26.1010   37.6120   15.6320 N   0  0  0  0  0  0  0  0  0  0  0  0
   26.6210   38.3830   14.5700 C   0  0  0  0  0  0  0  0  0  0  0  0
   27.8380   38.4080   14.2690 O   0  0  0  0  0  0  0  0  0  0  0  0
   25.0690   37.6710   15.7980 H   0  0  0  0  0  0  0  0  0  0  0  0
   26.8870   36.7700   16.4780 C   0  0  0  0  0  0  0  0  0  0  0  0
   26.9280   35.3360   16.0750 C   0  0  2  0  0  0  0  0  0  0  0  0
   27.9770   35.0540   15.0230 C   0  0  1  0  0  0  0  0  0  0  0  0
   28.6420   33.7310   15.1580 C   0  0  2  0  0  0  0  0  0  0  0  0
   28.9550   31.9220   16.5680 C   0  0  2  0  0  0  0  0  0  0  0  0
   30.4160   31.8310   16.2300 C   0  0  0  0  0  0  0  0  0  0  0  0
   28.3820   33.1420   16.3940 O   0  0  0  0  0  0  0  0  0  0  0  0
   30.7830   32.6330   14.9990 C   0  0  1  0  0  0  0  0  0  0  0  0
   30.1550   33.9770   15.1500 C   0  0  1  0  0  0  0  0  0  0  0  0
   28.8850   31.6500   17.9600 O   0  0  0  0  0  0  0  0  0  0  0  0
   29.1920   30.7160   18.0580 H   0  0  0  0  0  0  0  0  0  0  0  0
   28.2630   30.7980   15.8950 C   0  0  0  0  0  0  0  0  0  0  0  0
   27.0170   30.8050   15.6690 O   0  0  0  0  0  0  0  0  0  0  0  0
   28.9500   29.6610   15.4710 O   0  0  0  0  0  0  0  0  0  0  0  0
   29.5280   29.6850   14.6530 H   0  0  0  0  0  0  0  0  0  0  0  0
   32.1560   32.6740   14.8600 O   0  0  0  0  0  0  0  0  0  0  0  0
   32.3970   33.3260   14.1840 H   0  0  0  0  0  0  0  0  0  0  0  0
   30.5720   34.9450   14.1870 N   0  0  0  0  0  0  0  0  0  0  0  0
   31.4690   35.9940   14.4270 C   0  0  0  0  0  0  0  0  0  0  0  0
   30.1750   34.8640   13.2110 H   0  0  0  0  0  0  0  0  0  0  0  0
   31.8220   36.9350   13.3380 C   0  0  0  0  0  0  0  0  0  0  0  0
   31.9700   36.1400   15.5460 O   0  0  0  0  0  0  0  0  0  0  0  0
   27.4190   35.2020   13.7720 O   0  0  0  0  0  0  0  0  0  0  0  0
   27.5390   34.4410   13.1610 H   0  0  0  0  0  0  0  0  0  0  0  0
   25.7100   34.8240   15.7390 O   0  0  0  0  0  0  0  0  0  0  0  0
   25.0200   35.5360   15.9050 H   0  0  0  0  0  0  0  0  0  0  0  0
   25.7480   39.1710   13.7960 O   0  0  0  0  0  0  0  0  0  0  0  0
   24.4550   38.6750   13.5350 C   0  0  0  0  0  0  0  0  0  0  0  0
   24.4760   37.4610   12.7000 C   0  0  0  0  0  0  0  0  0  0  0  0
   24.1410   37.3620   11.3460 C   0  0  0  0  0  0  0  0  0  0  0  0
   24.8160   36.2130   13.0640 N   0  0  0  0  0  0  0  0  0  0  0  0
   24.2890   36.0880   10.9570 N   0  0  0  0  0  0  0  0  0  0  0  0
   24.6980   35.4130   12.0150 N   0  0  0  0  0  0  0  0  0  0  0  0
   24.0560   35.5310    9.6510 C   0  0  0  0  0  0  0  0  0  0  0  0
   25.2390   35.6830    8.7770 C   0  0  0  0  0  0  0  0  0  0  0  0
   25.4020   36.8160    8.0140 C   0  0  0  0  0  0  0  0  0  0  0  0
   26.1790   34.6870    8.7260 C   0  0  0  0  0  0  0  0  0  0  0  0
   26.5200   36.9510    7.1940 C   0  0  0  0  0  0  0  0  0  0  0  0
   27.3030   34.8090    7.9100 C   0  0  0  0  0  0  0  0  0  0  0  0
   27.4660   35.9390    7.1510 C   0  0  0  0  0  0  0  0  0  0  0  0
   28.5790   36.0920    6.3230 O   0  0  0  0  0  0  0  0  0  0  0  0
   28.7510   37.3000    5.6020 C   0  0  0  0  0  0  0  0  0  0  0  0
   29.8670   25.5550   16.9770 C   0  0  0  0  0  0  0  0  0  0  0  0
   28.3450   25.7220   17.0260 C   0  0  0  0  0  0  0  0  0  0  0  0
   27.6010   24.4040   16.8770 C   0  0  0  0  0  0  0  0  0  0  0  0
   26.1530   24.5240   17.2630 C   0  0  0  0  0  0  0  0  0  0  0  0
   25.5880   23.1380   17.5580 C   0  0  0  0  0  0  0  0  0  0  0  0
   24.8590   23.1380   18.8480 N   0  0  0  0  0  0  0  0  0  0  0  0
  1  4  1  0  0  0  0
  1  5  1  0  0  0  0
  2  1  1  0  0  0  0
  3  2  2  0  0  0  0
  6  5  1  6  0  0  0
  7 27  1  6  0  0  0
  7  6  1  0  0  0  0
  8  7  1  1  0  0  0
  8 11  1  0  0  0  0
  9 16  1  6  0  0  0
  9 14  1  0  0  0  0
 10  9  1  0  0  0  0
 11  9  1  0  0  0  0
 12 20  1  1  0  0  0
 12 13  1  0  0  0  0
 12 10  1  0  0  0  0
 13 22  1  6  0  0  0
 13  8  1  0  0  0  0
 14 15  1  0  0  0  0
 17 16  2  0  0  0  0
 18 16  1  0  0  0  0
 19 18  1  0  0  0  0
 21 20  1  0  0  0  0
 22 23  1  0  0  0  0
 23 26  2  0  0  0  0
 24 22  1  0  0  0  0
 25 23  1  0  0  0  0
 28 27  1  0  0  0  0
 29 30  1  0  0  0  0
 29  6  1  0  0  0  0
 31  2  1  0  0  0  0
 32 31  1  0  0  0  0
 33 35  1  0  0  0  0
 33 32  1  0  0  0  0
 34 33  2  0  0  0  0
 36 34  1  0  0  0  0
 36 37  1  0  0  0  0
 37 35  2  0  0  0  0
 38 36  1  0  0  0  0
 39 38  1  0  0  0  0
 40 39  2  0  0  0  0
 41 39  1  0  0  0  0
 42 40  1  0  0  0  0
 43 41  2  0  0  0  0
 44 42  2  0  0  0  0
 44 43  1  0  0  0  0
 45 44  1  0  0  0  0
 46 45  1  0  0  0  0
 47 48  1  0  0  0  0
 49 48  1  0  0  0  0
 49 50  1  0  0  0  0
 50 51  1  0  0  0  0
 51 52  1  0  0  0  0
M  END
>  <REMARK>
 VINA RESULT:    -5.078      4.363      8.286
 INTER + INTRA:         -14.658
 INTER:                  -9.691
 INTRA:                  -4.967
 UNBOUND:                -5.276
 SMILES COc1ccc(Cn2cc(COC(=O)NC[C@@H](O)C(O)[C@@H]3O[C@@](O)(C(=O)O)C[C@H](O)[C@H]3NC(C)=O)nn2)cc1
 SMILES IDX 15 1 13 2 14 3 16 5 17 6 19 7 21 8 23 9 28 10 22 11 29 12
 SMILES IDX 31 13 24 14 25 16 26 17 27 18 30 20 32 22 33 23 34 25 35 26
 SMILES IDX 20 27 18 29 12 31 11 32 10 33 9 34 36 35 8 36 37 37 7 38
 SMILES IDX 6 39 5 40 38 41 4 42 39 43 3 44 2 45 1 46
 H PARENT 15 4 24 15 27 19 30 21 32 24 20 28 18 30
 Flexibility Score: inf
  4 active torsions:
  status: ('A' for Active; 'I' for Inactive)
    1  A    between atoms: CA   and  CB  
    2  A    between atoms: CB   and  CG  
    3  A    between atoms: CG   and  CD  
    4  A    between atoms: CD   and  CE  

>  <TORSDO>
F 17

>  <BEGIN_>
RES LYS A 131

$$$$
ligand_24_pose_10_2HRL.pdbqt
 OpenBabel07062320523D

  6  5  0  0  0  0  0  0  0  0999 V2000
   33.1930   34.6630    9.2900 C   0  0  0  0  0  0  0  0  0  0  0  0
   32.0600   35.3600   10.0340 C   0  0  0  0  0  0  0  0  0  0  0  0
   30.7910   35.4750    9.2290 C   0  0  0  0  0  0  0  0  0  0  0  0
   29.9660   36.6640    9.6950 C   0  0  0  0  0  0  0  0  0  0  0  0
   29.0590   36.2660   10.8430 C   0  0  0  0  0  0  0  0  0  0  0  0
   27.8540   37.1390   10.9030 N   0  0  0  0  0  0  0  0  0  0  0  0
  1  2  1  0  0  0  0
  3  4  1  0  0  0  0
  3  2  1  0  0  0  0
  4  5  1  0  0  0  0
  5  6  1  0  0  0  0
M  END
>  <EGIN_R>
ES LYS A 135

>  <REMARK>
  4 active torsions:
  status: ('A' for Active; 'I' for Inactive)
    5  A    between atoms: CA   and  CB  
    6  A    between atoms: CB   and  CG  
    7  A    between atoms: CG   and  CD  
    8  A    between atoms: CD   and  CE  

$$$$
