ligand_8_pose_6_2HRL.pdbqt
 OpenBabel07062320523D

 50 51  0  0  1  0  0  0  0  0999 V2000
   26.6410   35.2290   16.0450 C   0  0  0  0  0  0  0  0  0  0  0  0
   27.9820   34.5580   15.8980 C   0  0  2  0  0  0  0  0  0  0  0  0
   29.0420   35.6060   16.0360 C   0  0  1  0  0  0  0  0  0  0  0  0
   30.4370   35.0950   16.3070 C   0  0  2  0  0  0  0  0  0  0  0  0
   31.5870   34.8920   14.2740 C   0  0  2  0  0  0  0  0  0  0  0  0
   32.4860   33.8010   14.8570 C   0  0  0  0  0  0  0  0  0  0  0  0
   31.2330   35.6700   15.3240 O   0  0  0  0  0  0  0  0  0  0  0  0
   31.5720   32.9160   15.6540 C   0  0  1  0  0  0  0  0  0  0  0  0
   30.5690   33.6480   16.5060 C   0  0  1  0  0  0  0  0  0  0  0  0
   30.5790   34.2570   13.5930 O   0  0  0  0  0  0  0  0  0  0  0  0
   30.0180   34.9520   13.1680 H   0  0  0  0  0  0  0  0  0  0  0  0
   32.3750   35.6990   13.3010 C   0  0  0  0  0  0  0  0  0  0  0  0
   32.1900   36.9400   13.2480 O   0  0  0  0  0  0  0  0  0  0  0  0
   33.3090   35.1110   12.4550 O   0  0  0  0  0  0  0  0  0  0  0  0
   33.1470   34.2290   11.9760 H   0  0  0  0  0  0  0  0  0  0  0  0
   30.9020   32.1090   14.7330 O   0  0  0  0  0  0  0  0  0  0  0  0
   30.5610   32.6260   13.9830 H   0  0  0  0  0  0  0  0  0  0  0  0
   30.9070   33.4050   17.9240 N   0  0  0  0  0  0  0  0  0  0  0  0
   30.3220   32.3430   18.6480 C   0  0  0  0  0  0  0  0  0  0  0  0
   31.6020   34.0330   18.4220 H   0  0  0  0  0  0  0  0  0  0  0  0
   30.6530   32.0960   20.0930 C   0  0  0  0  0  0  0  0  0  0  0  0
   29.5050   31.5980   18.0510 O   0  0  0  0  0  0  0  0  0  0  0  0
   28.9430   36.5330   15.0310 O   0  0  0  0  0  0  0  0  0  0  0  0
   28.5990   36.1410   14.1730 H   0  0  0  0  0  0  0  0  0  0  0  0
   28.0660   33.9300   14.6820 O   0  0  0  0  0  0  0  0  0  0  0  0
   27.4680   34.3350   13.9950 H   0  0  0  0  0  0  0  0  0  0  0  0
   26.1880   36.0090   14.9430 N   0  0  0  0  0  0  0  0  0  0  0  0
   25.4050   35.5060   13.8810 C   0  0  0  0  0  0  0  0  0  0  0  0
   26.4400   37.0510   14.8820 H   0  0  0  0  0  0  0  0  0  0  0  0
   25.0390   34.3110   13.7980 O   0  0  0  0  0  0  0  0  0  0  0  0
   25.0150   36.3890   12.8630 O   0  0  0  0  0  0  0  0  0  0  0  0
   25.5610   36.1820   11.5810 C   0  0  0  0  0  0  0  0  0  0  0  0
   27.0170   36.4580   11.6540 C   0  0  0  0  0  0  0  0  0  0  0  0
   27.6630   37.4920   10.9640 C   0  0  0  0  0  0  0  0  0  0  0  0
   28.0050   35.8540   12.3250 N   0  0  0  0  0  0  0  0  0  0  0  0
   28.9790   37.4720   11.2370 N   0  0  0  0  0  0  0  0  0  0  0  0
   29.1590   36.4610   12.0700 N   0  0  0  0  0  0  0  0  0  0  0  0
   29.9620   38.3690   10.7210 C   0  0  0  0  0  0  0  0  0  0  0  0
   30.5160   38.1970    9.4720 C   0  0  0  0  0  0  0  0  0  0  0  0
   30.3970   39.4490   11.4590 C   0  0  0  0  0  0  0  0  0  0  0  0
   31.4770   39.0840    8.9830 C   0  0  0  0  0  0  0  0  0  0  0  0
   31.3500   40.3330   10.9770 C   0  0  0  0  0  0  0  0  0  0  0  0
   29.6310   39.6980   13.2020 Br  0  0  0  0  0  0  0  0  0  0  0  0
   31.9060   40.1630    9.7270 C   0  0  0  0  0  0  0  0  0  0  0  0
   29.8670   25.5550   16.9770 C   0  0  0  0  0  0  0  0  0  0  0  0
   28.3450   25.7220   17.0260 C   0  0  0  0  0  0  0  0  0  0  0  0
   27.6020   24.3980   16.9390 C   0  0  0  0  0  0  0  0  0  0  0  0
   26.5030   24.2960   17.9600 C   0  0  0  0  0  0  0  0  0  0  0  0
   25.3650   23.4490   17.4010 C   0  0  0  0  0  0  0  0  0  0  0  0
   24.2550   24.3130   16.9340 N   0  0  0  0  0  0  0  0  0  0  0  0
  2  3  1  0  0  0  0
  2  1  1  6  0  0  0
  3 23  1  6  0  0  0
  4  3  1  6  0  0  0
  4  9  1  0  0  0  0
  5 12  1  6  0  0  0
  5  6  1  0  0  0  0
  5  7  1  0  0  0  0
  6  8  1  0  0  0  0
  7  4  1  0  0  0  0
  8 16  1  6  0  0  0
  8  9  1  0  0  0  0
  9 18  1  1  0  0  0
 10  5  1  0  0  0  0
 11 10  1  0  0  0  0
 13 12  2  0  0  0  0
 14 12  1  0  0  0  0
 15 14  1  0  0  0  0
 17 16  1  0  0  0  0
 18 20  1  0  0  0  0
 18 19  1  0  0  0  0
 19 21  1  0  0  0  0
 22 19  2  0  0  0  0
 24 23  1  0  0  0  0
 25  2  1  0  0  0  0
 26 25  1  0  0  0  0
 27  1  1  0  0  0  0
 28 27  1  0  0  0  0
 29 27  1  0  0  0  0
 30 28  2  0  0  0  0
 31 28  1  0  0  0  0
 32 33  1  0  0  0  0
 32 31  1  0  0  0  0
 33 35  1  0  0  0  0
 34 36  1  0  0  0  0
 34 33  2  0  0  0  0
 36 37  1  0  0  0  0
 37 35  2  0  0  0  0
 38 36  1  0  0  0  0
 38 40  2  0  0  0  0
 39 38  1  0  0  0  0
 40 43  1  0  0  0  0
 41 39  2  0  0  0  0
 41 44  1  0  0  0  0
 42 40  1  0  0  0  0
 44 42  2  0  0  0  0
 45 46  1  0  0  0  0
 47 46  1  0  0  0  0
 47 48  1  0  0  0  0
 49 48  1  0  0  0  0
 50 49  1  0  0  0  0
M  END
>  <REMARK>
 VINA RESULT:    -5.701      3.882      6.787
 INTER + INTRA:         -14.262
 INTER:                  -7.604
 INTRA:                  -6.658
 UNBOUND:                -4.396
 SMILES CC(=O)N[C@@H]1[C@@H](O)C[C@](O)(C(=O)O)O[C@H]1C(O)[C@H](O)CNC(=O)OCc1cn(-c2ccccc2Br)nn1
 SMILES IDX 20 1 18 2 16 3 15 4 9 5 8 6 14 7 6 8 5 9 10 10 11 12 12 13
 SMILES IDX 13 14 7 16 4 18 2 19 1 21 3 22 17 23 19 25 21 27 22 28 23 30
 SMILES IDX 24 31 25 32 26 33 27 34 37 35 28 36 36 37 29 38 30 39 34 40
 SMILES IDX 31 41 33 42 35 43 32 44
 H PARENT 10 11 13 15 7 17 4 20 17 24 19 26 21 29
 Flexibility Score: inf
  4 active torsions:
  status: ('A' for Active; 'I' for Inactive)
    1  A    between atoms: CA   and  CB  
    2  A    between atoms: CB   and  CG  
    3  A    between atoms: CG   and  CD  
    4  A    between atoms: CD   and  CE  

>  <TORSDO>
F 15

>  <BEGIN_>
RES LYS A 131

$$$$
ligand_8_pose_6_2HRL.pdbqt
 OpenBabel07062320523D

  6  5  0  0  0  0  0  0  0  0999 V2000
   33.1930   34.6630    9.2900 C   0  0  0  0  0  0  0  0  0  0  0  0
   32.0600   35.3600   10.0340 C   0  0  0  0  0  0  0  0  0  0  0  0
   30.7640   34.5920   10.0140 C   0  0  0  0  0  0  0  0  0  0  0  0
   30.2940   34.3690    8.5850 C   0  0  0  0  0  0  0  0  0  0  0  0
   28.7890   34.5350    8.4870 C   0  0  0  0  0  0  0  0  0  0  0  0
   28.0930   33.7510    9.5440 N   0  0  0  0  0  0  0  0  0  0  0  0
  1  2  1  0  0  0  0
  3  2  1  0  0  0  0
  4  3  1  0  0  0  0
  5  4  1  0  0  0  0
  5  6  1  0  0  0  0
M  END
>  <EGIN_R>
ES LYS A 135

>  <REMARK>
  4 active torsions:
  status: ('A' for Active; 'I' for Inactive)
    5  A    between atoms: CA   and  CB  
    6  A    between atoms: CB   and  CG  
    7  A    between atoms: CG   and  CD  
    8  A    between atoms: CD   and  CE  

$$$$
