ligand_71_pose_16_2HRL.pdbqt
 OpenBabel07062320523D

 54 55  0  0  1  0  0  0  0  0999 V2000
   26.6270   36.9770   11.6300 N   0  0  0  0  0  0  0  0  0  0  0  0
   26.2930   36.9920   10.2320 C   0  0  0  0  0  0  0  0  0  0  0  0
   26.1530   35.9230    9.5890 O   0  0  0  0  0  0  0  0  0  0  0  0
   26.7370   37.8680   12.1420 H   0  0  0  0  0  0  0  0  0  0  0  0
   26.7950   35.6980   12.2630 C   0  0  0  0  0  0  0  0  0  0  0  0
   28.2400   35.3130   12.4620 C   0  0  2  0  0  0  0  0  0  0  0  0
   28.3370   34.6120   13.7960 C   0  0  1  0  0  0  0  0  0  0  0  0
   29.7440   34.7390   14.3860 C   0  0  2  0  0  0  0  0  0  0  0  0
   31.9150   35.0280   13.8400 C   0  0  2  0  0  0  0  0  0  0  0  0
   32.3110   34.3150   15.0810 C   0  0  0  0  0  0  0  0  0  0  0  0
   30.6880   34.6280   13.3940 O   0  0  0  0  0  0  0  0  0  0  0  0
   31.3660   33.2310   15.5440 C   0  0  1  0  0  0  0  0  0  0  0  0
   29.9230   33.6230   15.4010 C   0  0  1  0  0  0  0  0  0  0  0  0
   32.8180   34.6520   12.7890 O   0  0  0  0  0  0  0  0  0  0  0  0
   33.2960   33.8240   13.0690 H   0  0  0  0  0  0  0  0  0  0  0  0
   32.0800   36.5050   13.9590 C   0  0  0  0  0  0  0  0  0  0  0  0
   32.5170   37.0140   14.9930 O   0  0  0  0  0  0  0  0  0  0  0  0
   31.7480   37.3660   12.9090 O   0  0  0  0  0  0  0  0  0  0  0  0
   31.3680   37.0290   12.0420 H   0  0  0  0  0  0  0  0  0  0  0  0
   31.6610   32.0910   14.7920 O   0  0  0  0  0  0  0  0  0  0  0  0
   31.3440   31.2590   15.2440 H   0  0  0  0  0  0  0  0  0  0  0  0
   29.2760   33.9920   16.6120 N   0  0  0  0  0  0  0  0  0  0  0  0
   28.5300   33.1120   17.4360 C   0  0  0  0  0  0  0  0  0  0  0  0
   29.3370   34.9850   16.9460 H   0  0  0  0  0  0  0  0  0  0  0  0
   27.8700   33.5710   18.6980 C   0  0  0  0  0  0  0  0  0  0  0  0
   28.4340   31.9260   17.0760 O   0  0  0  0  0  0  0  0  0  0  0  0
   27.3880   35.0680   14.6910 O   0  0  0  0  0  0  0  0  0  0  0  0
   27.2860   36.0590   14.5570 H   0  0  0  0  0  0  0  0  0  0  0  0
   28.9970   36.4820   12.4400 O   0  0  0  0  0  0  0  0  0  0  0  0
   28.9510   36.8400   11.5120 H   0  0  0  0  0  0  0  0  0  0  0  0
   26.1160   38.1760    9.5530 O   0  0  0  0  0  0  0  0  0  0  0  0
   27.0080   38.7480    8.6430 C   0  0  0  0  0  0  0  0  0  0  0  0
   28.3530   38.8620    9.2470 C   0  0  0  0  0  0  0  0  0  0  0  0
   29.1290   39.9880    9.4200 C   0  0  0  0  0  0  0  0  0  0  0  0
   29.0510   37.8310    9.7510 N   0  0  0  0  0  0  0  0  0  0  0  0
   30.2560   39.6030   10.0160 N   0  0  0  0  0  0  0  0  0  0  0  0
   30.1780   38.2970   10.2020 N   0  0  0  0  0  0  0  0  0  0  0  0
   31.3500   40.5060   10.3890 C   0  0  0  0  0  0  0  0  0  0  0  0
   32.2500   40.7200    9.2170 C   0  0  0  0  0  0  0  0  0  0  0  0
   32.6620   41.8310    8.8450 O   0  0  0  0  0  0  0  0  0  0  0  0
   32.6640   39.5660    8.4760 N   0  0  0  0  0  0  0  0  0  0  0  0
   32.3320   38.6180    8.7660 H   0  0  0  0  0  0  0  0  0  0  0  0
   33.5210   39.6650    7.3550 C   0  0  0  0  0  0  0  0  0  0  0  0
   34.8640   39.7020    7.4480 N   0  0  0  0  0  0  0  0  0  0  0  0
   33.0020   39.7280    6.1130 N   0  0  0  0  0  0  0  0  0  0  0  0
   35.6560   39.7950    6.3610 C   0  0  0  0  0  0  0  0  0  0  0  0
   33.7280   39.8200    5.0020 C   0  0  0  0  0  0  0  0  0  0  0  0
   35.1050   39.8580    5.0980 C   0  0  0  0  0  0  0  0  0  0  0  0
   29.8670   25.5550   16.9770 C   0  0  0  0  0  0  0  0  0  0  0  0
   28.3450   25.7220   17.0260 C   0  0  0  0  0  0  0  0  0  0  0  0
   27.6010   24.4010   16.9010 C   0  0  0  0  0  0  0  0  0  0  0  0
   26.1800   24.5040   17.3810 C   0  0  0  0  0  0  0  0  0  0  0  0
   25.9940   25.8110   18.1440 C   0  0  0  0  0  0  0  0  0  0  0  0
   24.7520   26.4930   17.7080 N   0  0  0  0  0  0  0  0  0  0  0  0
  1  4  1  0  0  0  0
  1  5  1  0  0  0  0
  2  1  1  0  0  0  0
  3  2  2  0  0  0  0
  6  5  1  1  0  0  0
  6  7  1  0  0  0  0
  7 27  1  1  0  0  0
  8  7  1  6  0  0  0
  8 13  1  0  0  0  0
  9 14  1  6  0  0  0
  9 16  1  0  0  0  0
  9 10  1  0  0  0  0
 10 12  1  0  0  0  0
 11  9  1  0  0  0  0
 11  8  1  0  0  0  0
 12 20  1  6  0  0  0
 13 12  1  0  0  0  0
 13 22  1  1  0  0  0
 14 15  1  0  0  0  0
 16 17  2  0  0  0  0
 18 16  1  0  0  0  0
 19 18  1  0  0  0  0
 20 21  1  0  0  0  0
 22 24  1  0  0  0  0
 22 23  1  0  0  0  0
 23 25  1  0  0  0  0
 26 23  2  0  0  0  0
 28 27  1  0  0  0  0
 29  6  1  0  0  0  0
 30 29  1  0  0  0  0
 31  2  1  0  0  0  0
 32 33  1  0  0  0  0
 32 31  1  0  0  0  0
 33 34  2  0  0  0  0
 33 35  1  0  0  0  0
 34 36  1  0  0  0  0
 35 37  2  0  0  0  0
 36 37  1  0  0  0  0
 36 38  1  0  0  0  0
 39 38  1  0  0  0  0
 40 39  2  0  0  0  0
 41 42  1  0  0  0  0
 41 39  1  0  0  0  0
 43 44  2  0  0  0  0
 43 41  1  0  0  0  0
 45 43  1  0  0  0  0
 46 44  1  0  0  0  0
 47 48  1  0  0  0  0
 47 45  2  0  0  0  0
 48 46  2  0  0  0  0
 49 50  1  0  0  0  0
 51 50  1  0  0  0  0
 51 52  1  0  0  0  0
 52 53  1  0  0  0  0
 54 53  1  0  0  0  0
M  END
>  <REMARK>
 VINA RESULT:    -3.808      3.713      7.909
 INTER + INTRA:         -14.602
 INTER:                  -8.427
 INTRA:                  -6.175
 UNBOUND:                -7.565
 SMILES CC(=O)N[C@@H]1[C@@H](O)C[C@](O)(C(=O)O)O[C@H]1C(O)[C@H](O)CNC(=O)OCc1cn(CC(=O)Nc2ncccn2)nn1
 SMILES IDX 21 1 22 2 23 3 20 5 18 6 16 7 15 8 9 9 8 10 14 11 6 12 5 13
 SMILES IDX 10 14 11 16 12 17 13 18 7 20 4 22 2 23 1 25 3 26 17 27 19 29
 SMILES IDX 24 31 25 32 26 33 27 34 40 35 28 36 39 37 29 38 30 39 31 40
 SMILES IDX 32 41 33 43 34 44 38 45 35 46 37 47 36 48
 H PARENT 21 4 10 15 13 19 7 21 4 24 17 28 19 30 32 42
 Flexibility Score: inf
  4 active torsions:
  status: ('A' for Active; 'I' for Inactive)
    1  A    between atoms: CA   and  CB  
    2  A    between atoms: CB   and  CG  
    3  A    between atoms: CG   and  CD  
    4  A    between atoms: CD   and  CE  

>  <TORSDO>
F 17

>  <BEGIN_>
RES LYS A 131

$$$$
ligand_71_pose_16_2HRL.pdbqt
 OpenBabel07062320523D

  6  5  0  0  0  0  0  0  0  0999 V2000
   33.1930   34.6630    9.2900 C   0  0  0  0  0  0  0  0  0  0  0  0
   32.0600   35.3600   10.0340 C   0  0  0  0  0  0  0  0  0  0  0  0
   30.7110   34.7290    9.8050 C   0  0  0  0  0  0  0  0  0  0  0  0
   30.4640   34.5130    8.3200 C   0  0  0  0  0  0  0  0  0  0  0  0
   29.0120   34.7830    7.9760 C   0  0  0  0  0  0  0  0  0  0  0  0
   28.8950   35.5500    6.7050 N   0  0  0  0  0  0  0  0  0  0  0  0
  1  2  1  0  0  0  0
  3  2  1  0  0  0  0
  4  3  1  0  0  0  0
  5  4  1  0  0  0  0
  6  5  1  0  0  0  0
M  END
>  <EGIN_R>
ES LYS A 135

>  <REMARK>
  4 active torsions:
  status: ('A' for Active; 'I' for Inactive)
    5  A    between atoms: CA   and  CB  
    6  A    between atoms: CB   and  CG  
    7  A    between atoms: CG   and  CD  
    8  A    between atoms: CD   and  CE  

$$$$
