ligand_40_pose_5_2HRL.pdbqt
 OpenBabel07062320523D

 50 51  0  0  1  0  0  0  0  0999 V2000
   23.8420   37.0100    9.0280 C   0  0  0  0  0  0  0  0  0  0  0  0
   22.4870   37.0260    8.4500 C   0  0  2  0  0  0  0  0  0  0  0  0
   21.6380   35.7980    8.5290 C   0  0  2  0  0  0  0  0  0  0  0  0
   20.4370   35.8640    9.4190 C   0  0  2  0  0  0  0  0  0  0  0  0
   18.8390   34.7280    8.1360 C   0  0  2  0  0  0  0  0  0  0  0  0
   17.8840   35.9080    8.1180 C   0  0  0  0  0  0  0  0  0  0  0  0
   19.6730   34.7050    9.2080 O   0  0  0  0  0  0  0  0  0  0  0  0
   18.6780   37.1880    8.3260 C   0  0  1  0  0  0  0  0  0  0  0  0
   19.6180   37.0860    9.4830 C   0  0  1  0  0  0  0  0  0  0  0  0
   19.4560   34.6960    6.9090 O   0  0  0  0  0  0  0  0  0  0  0  0
   20.4020   34.9940    6.9150 H   0  0  0  0  0  0  0  0  0  0  0  0
   17.9630   33.5190    8.2440 C   0  0  0  0  0  0  0  0  0  0  0  0
   17.4610   33.1510    9.3480 O   0  0  0  0  0  0  0  0  0  0  0  0
   17.6810   32.7680    7.1210 O   0  0  0  0  0  0  0  0  0  0  0  0
   17.1600   31.8940    7.2240 H   0  0  0  0  0  0  0  0  0  0  0  0
   19.4440   37.3090    7.1660 O   0  0  0  0  0  0  0  0  0  0  0  0
   19.8100   38.2250    7.0620 H   0  0  0  0  0  0  0  0  0  0  0  0
   18.9570   37.0790   10.7740 N   0  0  0  0  0  0  0  0  0  0  0  0
   19.5010   37.6700   11.9260 C   0  0  0  0  0  0  0  0  0  0  0  0
   18.0340   36.6000   10.7990 H   0  0  0  0  0  0  0  0  0  0  0  0
   18.8540   37.6790   13.2520 C   0  0  0  0  0  0  0  0  0  0  0  0
   20.6110   38.2180   11.7880 O   0  0  0  0  0  0  0  0  0  0  0  0
   22.4690   34.8570    9.2980 O   0  0  0  0  0  0  0  0  0  0  0  0
   21.9730   34.6730   10.1390 H   0  0  0  0  0  0  0  0  0  0  0  0
   22.4470   37.6570    7.2160 O   0  0  0  0  0  0  0  0  0  0  0  0
   22.9700   37.1490    6.5230 H   0  0  0  0  0  0  0  0  0  0  0  0
   23.8890   37.0130   10.4920 N   0  0  0  0  0  0  0  0  0  0  0  0
   24.9160   36.3570   11.2060 C   0  0  0  0  0  0  0  0  0  0  0  0
   23.1560   37.4950   11.0750 H   0  0  0  0  0  0  0  0  0  0  0  0
   25.8060   35.7590   10.5910 O   0  0  0  0  0  0  0  0  0  0  0  0
   24.9810   36.3470   12.6000 O   0  0  0  0  0  0  0  0  0  0  0  0
   24.7240   35.1490   13.2950 C   0  0  0  0  0  0  0  0  0  0  0  0
   23.4620   34.5140   12.9020 C   0  0  0  0  0  0  0  0  0  0  0  0
   23.2460   33.1520   12.9440 C   0  0  0  0  0  0  0  0  0  0  0  0
   22.3060   35.0350   12.4440 N   0  0  0  0  0  0  0  0  0  0  0  0
   21.9940   32.8750   12.5220 N   0  0  0  0  0  0  0  0  0  0  0  0
   21.4550   34.0390   12.2280 N   0  0  0  0  0  0  0  0  0  0  0  0
   21.3430   31.6110   12.4000 C   0  0  0  0  0  0  0  0  0  0  0  0
   19.9790   31.5300   12.2080 C   0  0  0  0  0  0  0  0  0  0  0  0
   22.0360   30.4200   12.4690 C   0  0  0  0  0  0  0  0  0  0  0  0
   19.3350   30.3140   12.0880 C   0  0  0  0  0  0  0  0  0  0  0  0
   21.3990   29.2030   12.3510 C   0  0  0  0  0  0  0  0  0  0  0  0
   20.0370   29.1280   12.1580 C   0  0  0  0  0  0  0  0  0  0  0  0
   19.3880   27.7960   12.0360 C   0  0  0  0  0  0  0  0  0  0  0  0
   29.8670   25.5550   16.9770 C   0  0  0  0  0  0  0  0  0  0  0  0
   28.3450   25.7220   17.0260 C   0  0  0  0  0  0  0  0  0  0  0  0
   27.6160   24.4170   17.3100 C   0  0  0  0  0  0  0  0  0  0  0  0
   26.1300   24.5480   17.1270 C   0  0  0  0  0  0  0  0  0  0  0  0
   25.4440   24.5040   18.4890 C   0  0  0  0  0  0  0  0  0  0  0  0
   25.7640   23.2390   19.1910 N   0  0  0  0  0  0  0  0  0  0  0  0
  1 27  1  0  0  0  0
  2  3  1  0  0  0  0
  2  1  1  6  0  0  0
  3 23  1  1  0  0  0
  4  3  1  6  0  0  0
  4  9  1  0  0  0  0
  5 10  1  6  0  0  0
  5 12  1  0  0  0  0
  5  7  1  0  0  0  0
  6  5  1  0  0  0  0
  6  8  1  0  0  0  0
  7  4  1  0  0  0  0
  8 16  1  6  0  0  0
  8  9  1  0  0  0  0
  9 18  1  1  0  0  0
 10 11  1  0  0  0  0
 12 13  2  0  0  0  0
 14 15  1  0  0  0  0
 14 12  1  0  0  0  0
 17 16  1  0  0  0  0
 18 20  1  0  0  0  0
 18 19  1  0  0  0  0
 19 21  1  0  0  0  0
 22 19  2  0  0  0  0
 23 24  1  0  0  0  0
 25  2  1  0  0  0  0
 26 25  1  0  0  0  0
 27 29  1  0  0  0  0
 27 28  1  0  0  0  0
 28 31  1  0  0  0  0
 30 28  2  0  0  0  0
 31 32  1  0  0  0  0
 33 34  2  0  0  0  0
 33 32  1  0  0  0  0
 35 33  1  0  0  0  0
 36 34  1  0  0  0  0
 37 35  2  0  0  0  0
 37 36  1  0  0  0  0
 38 40  1  0  0  0  0
 38 36  1  0  0  0  0
 39 38  2  0  0  0  0
 41 43  2  0  0  0  0
 41 39  1  0  0  0  0
 42 40  2  0  0  0  0
 43 42  1  0  0  0  0
 44 43  1  0  0  0  0
 45 46  1  0  0  0  0
 46 47  1  0  0  0  0
 48 47  1  0  0  0  0
 48 49  1  0  0  0  0
 49 50  1  0  0  0  0
M  END
>  <REMARK>
 VINA RESULT:    -5.341      5.531      9.189
 INTER + INTRA:         -14.257
 INTER:                  -8.492
 INTRA:                  -5.765
 UNBOUND:                -5.012
 SMILES CC(=O)N[C@@H]1[C@@H](O)C[C@](O)(C(=O)O)O[C@H]1C(O)[C@H](O)CNC(=O)OCc1cn(-c2ccc(C)cc2)nn1
 SMILES IDX 20 1 18 2 16 3 15 4 9 5 8 6 14 7 6 8 5 9 10 10 11 12 12 13
 SMILES IDX 13 14 7 16 4 18 2 19 1 21 3 22 17 23 19 25 21 27 22 28 23 30
 SMILES IDX 24 31 25 32 26 33 27 34 37 35 28 36 36 37 29 38 30 39 35 40
 SMILES IDX 31 41 34 42 32 43 33 44
 H PARENT 10 11 13 15 7 17 4 20 17 24 19 26 21 29
 Flexibility Score: inf
  4 active torsions:
  status: ('A' for Active; 'I' for Inactive)
    1  A    between atoms: CA   and  CB  
    2  A    between atoms: CB   and  CG  
    3  A    between atoms: CG   and  CD  
    4  A    between atoms: CD   and  CE  

>  <TORSDO>
F 15

>  <BEGIN_>
RES LYS A 131

$$$$
ligand_40_pose_5_2HRL.pdbqt
 OpenBabel07062320523D

  6  5  0  0  0  0  0  0  0  0999 V2000
   33.1930   34.6630    9.2900 C   0  0  0  0  0  0  0  0  0  0  0  0
   32.0600   35.3600   10.0340 C   0  0  0  0  0  0  0  0  0  0  0  0
   30.6920   34.8460    9.6670 C   0  0  0  0  0  0  0  0  0  0  0  0
   30.6130   34.5460    8.1780 C   0  0  0  0  0  0  0  0  0  0  0  0
   29.2490   34.9200    7.6310 C   0  0  0  0  0  0  0  0  0  0  0  0
   28.1620   34.4440    8.5300 N   0  0  0  0  0  0  0  0  0  0  0  0
  1  2  1  0  0  0  0
  3  2  1  0  0  0  0
  4  3  1  0  0  0  0
  5  4  1  0  0  0  0
  5  6  1  0  0  0  0
M  END
>  <EGIN_R>
ES LYS A 135

>  <REMARK>
  4 active torsions:
  status: ('A' for Active; 'I' for Inactive)
    5  A    between atoms: CA   and  CB  
    6  A    between atoms: CB   and  CG  
    7  A    between atoms: CG   and  CD  
    8  A    between atoms: CD   and  CE  

$$$$
