ligand_20_pose_5_2HRL.pdbqt
 OpenBabel07062320523D

 53 55  0  0  1  0  0  0  0  0999 V2000
   16.4730   33.5090    8.2090 C   0  0  0  0  0  0  0  0  0  0  0  0
   17.9290   33.5140    8.0400 C   0  0  2  0  0  0  0  0  0  0  0  0
   18.5540   34.7660    8.6940 C   0  0  1  0  0  0  0  0  0  0  0  0
   19.1770   35.6830    7.7350 C   0  0  2  0  0  0  0  0  0  0  0  0
   21.3620   36.0520    8.4830 C   0  0  2  0  0  0  0  0  0  0  0  0
   20.7720   37.0890    9.3960 C   0  0  0  0  0  0  0  0  0  0  0  0
   20.5190   35.5870    7.5160 O   0  0  0  0  0  0  0  0  0  0  0  0
   19.7200   37.9260    8.7570 C   0  0  1  0  0  0  0  0  0  0  0  0
   18.7330   37.1350    7.9600 C   0  0  1  0  0  0  0  0  0  0  0  0
   21.8390   34.9860    9.2460 O   0  0  0  0  0  0  0  0  0  0  0  0
   21.4050   34.1310    9.0050 H   0  0  0  0  0  0  0  0  0  0  0  0
   22.5190   36.6810    7.8060 C   0  0  0  0  0  0  0  0  0  0  0  0
   23.5180   37.0170    8.4640 O   0  0  0  0  0  0  0  0  0  0  0  0
   22.4850   36.8940    6.4440 O   0  0  0  0  0  0  0  0  0  0  0  0
   21.6270   37.1470    5.9350 H   0  0  0  0  0  0  0  0  0  0  0  0
   19.0830   38.6670    9.7710 O   0  0  0  0  0  0  0  0  0  0  0  0
   19.4340   38.3050   10.6190 H   0  0  0  0  0  0  0  0  0  0  0  0
   18.3520   37.7780    6.7300 N   0  0  0  0  0  0  0  0  0  0  0  0
   17.2740   38.7010    6.6560 C   0  0  0  0  0  0  0  0  0  0  0  0
   18.8860   37.5670    5.8340 H   0  0  0  0  0  0  0  0  0  0  0  0
   16.9220   39.3340    5.3700 C   0  0  0  0  0  0  0  0  0  0  0  0
   16.6320   38.9620    7.7050 O   0  0  0  0  0  0  0  0  0  0  0  0
   17.3650   35.4350    9.1600 O   0  0  0  0  0  0  0  0  0  0  0  0
   17.5100   35.7870   10.0680 H   0  0  0  0  0  0  0  0  0  0  0  0
   18.1410   33.7340    6.6250 O   0  0  0  0  0  0  0  0  0  0  0  0
   17.4710   33.2000    6.1150 H   0  0  0  0  0  0  0  0  0  0  0  0
   15.9290   32.4970    9.0710 N   0  0  0  0  0  0  0  0  0  0  0  0
   15.4420   32.7960   10.3710 C   0  0  0  0  0  0  0  0  0  0  0  0
   15.8310   31.5240    8.7410 H   0  0  0  0  0  0  0  0  0  0  0  0
   15.4960   33.9900   10.7650 O   0  0  0  0  0  0  0  0  0  0  0  0
   14.9160   31.8550   11.2250 O   0  0  0  0  0  0  0  0  0  0  0  0
   15.5350   31.4140   12.4180 C   0  0  0  0  0  0  0  0  0  0  0  0
   16.8780   30.8500   12.0520 C   0  0  0  0  0  0  0  0  0  0  0  0
   18.1050   31.1320   12.6110 C   0  0  0  0  0  0  0  0  0  0  0  0
   17.1390   29.9330   11.0780 N   0  0  0  0  0  0  0  0  0  0  0  0
   19.0290   30.3780   11.9490 N   0  0  0  0  0  0  0  0  0  0  0  0
   18.4140   29.6610   11.0260 N   0  0  0  0  0  0  0  0  0  0  0  0
   20.4200   30.3830   12.2280 C   0  0  0  0  0  0  0  0  0  0  0  0
   21.1180   29.1900   12.2220 C   0  0  0  0  0  0  0  0  0  0  0  0
   21.1330   31.5290   12.5100 C   0  0  0  0  0  0  0  0  0  0  0  0
   22.4700   29.1330   12.4860 C   0  0  0  0  0  0  0  0  0  0  0  0
   22.4720   31.4960   12.7740 C   0  0  0  0  0  0  0  0  0  0  0  0
   23.1730   30.2920   12.7670 C   0  0  0  0  0  0  0  0  0  0  0  0
   23.4080   32.4570   13.0780 C   0  0  0  0  0  0  0  0  0  0  0  0
   24.4590   30.5490   13.0560 N   0  0  0  0  0  0  0  0  0  0  0  0
   24.6130   31.8400   13.2440 N   0  0  0  0  0  0  0  0  0  0  0  0
   25.2060   29.8330   13.1180 H   0  0  0  0  0  0  0  0  0  0  0  0
   29.8670   25.5550   16.9770 C   0  0  0  0  0  0  0  0  0  0  0  0
   28.3450   25.7220   17.0260 C   0  0  0  0  0  0  0  0  0  0  0  0
   27.6010   24.4030   16.8810 C   0  0  0  0  0  0  0  0  0  0  0  0
   26.1460   24.5310   17.2400 C   0  0  0  0  0  0  0  0  0  0  0  0
   25.9470   24.1450   18.7020 C   0  0  0  0  0  0  0  0  0  0  0  0
   24.5070   24.1740   19.0540 N   0  0  0  0  0  0  0  0  0  0  0  0
  1 27  1  0  0  0  0
  2  1  1  6  0  0  0
  2  3  1  0  0  0  0
  3 23  1  6  0  0  0
  4  9  1  0  0  0  0
  4  3  1  1  0  0  0
  5 12  1  6  0  0  0
  5 10  1  0  0  0  0
  5  6  1  0  0  0  0
  7  4  1  0  0  0  0
  7  5  1  0  0  0  0
  8  6  1  0  0  0  0
  8 16  1  1  0  0  0
  9 18  1  6  0  0  0
  9  8  1  0  0  0  0
 11 10  1  0  0  0  0
 12 13  2  0  0  0  0
 14 12  1  0  0  0  0
 15 14  1  0  0  0  0
 16 17  1  0  0  0  0
 19 18  1  0  0  0  0
 19 22  2  0  0  0  0
 20 18  1  0  0  0  0
 21 19  1  0  0  0  0
 23 24  1  0  0  0  0
 25  2  1  0  0  0  0
 26 25  1  0  0  0  0
 27 28  1  0  0  0  0
 28 30  2  0  0  0  0
 28 31  1  0  0  0  0
 29 27  1  0  0  0  0
 31 32  1  0  0  0  0
 33 32  1  0  0  0  0
 33 34  2  0  0  0  0
 35 33  1  0  0  0  0
 36 38  1  0  0  0  0
 36 34  1  0  0  0  0
 37 35  2  0  0  0  0
 37 36  1  0  0  0  0
 38 40  1  0  0  0  0
 39 38  2  0  0  0  0
 39 41  1  0  0  0  0
 40 42  2  0  0  0  0
 41 43  2  0  0  0  0
 42 44  1  0  0  0  0
 43 42  1  0  0  0  0
 43 45  1  0  0  0  0
 44 46  2  0  0  0  0
 45 47  1  0  0  0  0
 45 46  1  0  0  0  0
 48 49  1  0  0  0  0
 50 49  1  0  0  0  0
 50 51  1  0  0  0  0
 51 52  1  0  0  0  0
 52 53  1  0  0  0  0
M  END
>  <REMARK>
 VINA RESULT:    -4.829      6.083     10.569
 INTER + INTRA:         -14.847
 INTER:                  -9.229
 INTRA:                  -5.618
 UNBOUND:                -6.490
 SMILES CC(=O)N[C@@H]1[C@@H](O)C[C@](O)(C(=O)O)O[C@H]1C(O)[C@H](O)CNC(=O)OCc1cn(-c2ccc3[nH]ncc3c2)nn1
 SMILES IDX 20 1 18 2 16 3 15 4 9 5 8 6 14 7 6 8 5 9 10 10 11 12 12 13
 SMILES IDX 13 14 7 16 4 18 2 19 1 21 3 22 17 23 19 25 21 27 22 28 23 30
 SMILES IDX 24 31 25 32 26 33 27 34 39 35 28 36 38 37 29 38 30 39 37 40
 SMILES IDX 31 41 36 42 32 43 35 44 33 45 34 46
 H PARENT 10 11 13 15 7 17 4 20 17 24 19 26 21 29 33 47
 Flexibility Score: inf
  4 active torsions:
  status: ('A' for Active; 'I' for Inactive)
    1  A    between atoms: CA   and  CB  
    2  A    between atoms: CB   and  CG  
    3  A    between atoms: CG   and  CD  
    4  A    between atoms: CD   and  CE  

>  <TORSDO>
F 15

>  <BEGIN_>
RES LYS A 131

$$$$
ligand_20_pose_5_2HRL.pdbqt
 OpenBabel07062320523D

  6  5  0  0  0  0  0  0  0  0999 V2000
   33.1930   34.6630    9.2900 C   0  0  0  0  0  0  0  0  0  0  0  0
   32.0600   35.3600   10.0340 C   0  0  0  0  0  0  0  0  0  0  0  0
   30.7560   34.6070    9.9880 C   0  0  0  0  0  0  0  0  0  0  0  0
   30.3590   34.3080    8.5500 C   0  0  0  0  0  0  0  0  0  0  0  0
   28.8760   34.5500    8.3460 C   0  0  0  0  0  0  0  0  0  0  0  0
   28.0680   33.8280    9.3680 N   0  0  0  0  0  0  0  0  0  0  0  0
  1  2  1  0  0  0  0
  3  2  1  0  0  0  0
  4  3  1  0  0  0  0
  5  4  1  0  0  0  0
  5  6  1  0  0  0  0
M  END
>  <EGIN_R>
ES LYS A 135

>  <REMARK>
  4 active torsions:
  status: ('A' for Active; 'I' for Inactive)
    5  A    between atoms: CA   and  CB  
    6  A    between atoms: CB   and  CG  
    7  A    between atoms: CG   and  CD  
    8  A    between atoms: CD   and  CE  

$$$$
