ligand_36_pose_18_2HRL.pdbqt
 OpenBabel07062320523D

 52 53  0  0  1  0  0  0  0  0999 V2000
   25.9800   34.5620   14.1040 N   0  0  0  0  0  0  0  0  0  0  0  0
   25.2800   33.3370   14.3070 C   0  0  0  0  0  0  0  0  0  0  0  0
   24.9040   32.6600   13.2870 O   0  0  0  0  0  0  0  0  0  0  0  0
   26.2760   35.0900   14.9450 H   0  0  0  0  0  0  0  0  0  0  0  0
   26.2430   35.0070   12.7840 C   0  0  0  0  0  0  0  0  0  0  0  0
   27.6510   35.4710   12.5010 C   0  0  2  0  0  0  0  0  0  0  0  0
   28.3540   36.0270   13.7230 C   0  0  2  0  0  0  0  0  0  0  0  0
   29.1970   37.2170   13.4160 C   0  0  2  0  0  0  0  0  0  0  0  0
   31.0030   37.8820   12.1050 C   0  0  2  0  0  0  0  0  0  0  0  0
   30.6880   39.2310   12.7100 C   0  0  0  0  0  0  0  0  0  0  0  0
   30.0370   36.9470   12.3280 O   0  0  0  0  0  0  0  0  0  0  0  0
   30.4280   39.1700   14.1740 C   0  0  1  0  0  0  0  0  0  0  0  0
   30.0710   37.7150   14.5240 C   0  0  1  0  0  0  0  0  0  0  0  0
   32.2680   37.4700   12.5750 O   0  0  0  0  0  0  0  0  0  0  0  0
   32.3270   37.7330   13.5400 H   0  0  0  0  0  0  0  0  0  0  0  0
   31.1250   38.0880   10.6460 C   0  0  0  0  0  0  0  0  0  0  0  0
   30.0920   38.1270    9.9410 O   0  0  0  0  0  0  0  0  0  0  0  0
   32.3620   38.2350   10.0640 O   0  0  0  0  0  0  0  0  0  0  0  0
   32.6820   37.7410    9.2500 H   0  0  0  0  0  0  0  0  0  0  0  0
   31.4700   39.6260   14.9570 O   0  0  0  0  0  0  0  0  0  0  0  0
   32.3040   39.5660   14.3960 H   0  0  0  0  0  0  0  0  0  0  0  0
   29.5260   37.6340   15.8430 N   0  0  0  0  0  0  0  0  0  0  0  0
   30.3760   37.4840   16.9920 C   0  0  0  0  0  0  0  0  0  0  0  0
   28.4860   37.6910   16.0330 H   0  0  0  0  0  0  0  0  0  0  0  0
   29.7960   37.4010   18.3660 C   0  0  0  0  0  0  0  0  0  0  0  0
   31.6230   37.4180   16.8660 O   0  0  0  0  0  0  0  0  0  0  0  0
   28.9660   35.0340   14.4170 O   0  0  0  0  0  0  0  0  0  0  0  0
   28.4690   34.6390   15.1340 H   0  0  0  0  0  0  0  0  0  0  0  0
   27.4870   36.5120   11.5510 O   0  0  0  0  0  0  0  0  0  0  0  0
   27.1050   36.1870   10.7160 H   0  0  0  0  0  0  0  0  0  0  0  0
   24.9670   32.8080   15.5460 O   0  0  0  0  0  0  0  0  0  0  0  0
   24.9090   31.4060   15.6920 C   0  0  0  0  0  0  0  0  0  0  0  0
   26.1510   30.8570   16.2860 C   0  0  0  0  0  0  0  0  0  0  0  0
   27.1940   31.5500   16.8810 C   0  0  0  0  0  0  0  0  0  0  0  0
   26.4790   29.5610   16.3510 N   0  0  0  0  0  0  0  0  0  0  0  0
   28.1070   30.6620   17.2830 N   0  0  0  0  0  0  0  0  0  0  0  0
   27.6490   29.4750   16.9490 N   0  0  0  0  0  0  0  0  0  0  0  0
   29.3570   30.9310   17.9600 C   0  0  0  0  0  0  0  0  0  0  0  0
   30.2250   31.8760   17.2550 C   0  0  0  0  0  0  0  0  0  0  0  0
   30.6400   33.0240   17.8780 C   0  0  0  0  0  0  0  0  0  0  0  0
   30.6220   31.6110   15.9540 C   0  0  0  0  0  0  0  0  0  0  0  0
   31.4550   33.9280   17.2240 C   0  0  0  0  0  0  0  0  0  0  0  0
   31.4400   32.5030   15.2740 C   0  0  0  0  0  0  0  0  0  0  0  0
   31.8500   33.6650   15.9290 C   0  0  0  0  0  0  0  0  0  0  0  0
   32.6930   34.5970   15.2400 C   0  0  0  0  0  0  0  0  0  0  0  0
   33.3710   35.3570   14.6620 N   0  0  0  0  0  0  0  0  0  0  0  0
   29.8670   25.5550   16.9770 C   0  0  0  0  0  0  0  0  0  0  0  0
   28.3450   25.7220   17.0260 C   0  0  0  0  0  0  0  0  0  0  0  0
   27.6020   24.3990   16.9190 C   0  0  0  0  0  0  0  0  0  0  0  0
   26.1610   24.5240   17.3300 C   0  0  0  0  0  0  0  0  0  0  0  0
   25.8970   23.6300   18.5370 C   0  0  0  0  0  0  0  0  0  0  0  0
   24.7860   22.6910   18.2540 N   0  0  0  0  0  0  0  0  0  0  0  0
  1  2  1  0  0  0  0
  1  4  1  0  0  0  0
  2 31  1  0  0  0  0
  3  2  2  0  0  0  0
  5  1  1  0  0  0  0
  6  5  1  1  0  0  0
  6  7  1  0  0  0  0
  7 27  1  6  0  0  0
  8  7  1  1  0  0  0
  8 13  1  0  0  0  0
  9 16  1  6  0  0  0
  9 11  1  0  0  0  0
  9 14  1  0  0  0  0
  9 10  1  0  0  0  0
 10 12  1  0  0  0  0
 11  8  1  0  0  0  0
 12 13  1  0  0  0  0
 12 20  1  1  0  0  0
 13 22  1  1  0  0  0
 14 15  1  0  0  0  0
 17 16  2  0  0  0  0
 18 16  1  0  0  0  0
 19 18  1  0  0  0  0
 21 20  1  0  0  0  0
 22 24  1  0  0  0  0
 22 23  1  0  0  0  0
 23 25  1  0  0  0  0
 26 23  2  0  0  0  0
 27 28  1  0  0  0  0
 29  6  1  0  0  0  0
 30 29  1  0  0  0  0
 31 32  1  0  0  0  0
 32 33  1  0  0  0  0
 33 35  1  0  0  0  0
 33 34  2  0  0  0  0
 34 36  1  0  0  0  0
 35 37  2  0  0  0  0
 36 38  1  0  0  0  0
 37 36  1  0  0  0  0
 39 40  1  0  0  0  0
 39 38  1  0  0  0  0
 41 39  2  0  0  0  0
 42 40  2  0  0  0  0
 43 44  2  0  0  0  0
 43 41  1  0  0  0  0
 44 42  1  0  0  0  0
 45 44  1  0  0  0  0
 46 45  3  0  0  0  0
 47 48  1  0  0  0  0
 49 48  1  0  0  0  0
 49 50  1  0  0  0  0
 50 51  1  0  0  0  0
 52 51  1  0  0  0  0
M  END
>  <REMARK>
 VINA RESULT:    -4.076      4.834      8.479
 INTER + INTRA:         -14.512
 INTER:                  -8.137
 INTRA:                  -6.374
 UNBOUND:                -6.980
 SMILES CC(=O)N[C@@H]1[C@@H](O)C[C@](O)(C(=O)O)O[C@H]1C(O)[C@H](O)CNC(=O)OCc1cn(Cc2ccc(C#N)cc2)nn1
 SMILES IDX 21 1 22 2 23 3 20 5 18 6 16 7 15 8 9 9 8 10 14 11 6 12 5 13
 SMILES IDX 10 14 11 16 12 17 13 18 7 20 4 22 2 23 1 25 3 26 17 27 19 29
 SMILES IDX 24 31 25 32 26 33 27 34 39 35 28 36 38 37 29 38 30 39 31 40
 SMILES IDX 37 41 32 42 36 43 33 44 34 45 35 46
 H PARENT 21 4 10 15 13 19 7 21 4 24 17 28 19 30
 Flexibility Score: inf
  4 active torsions:
  status: ('A' for Active; 'I' for Inactive)
    1  A    between atoms: CA   and  CB  
    2  A    between atoms: CB   and  CG  
    3  A    between atoms: CG   and  CD  
    4  A    between atoms: CD   and  CE  

>  <TORSDO>
F 17

>  <BEGIN_>
RES LYS A 131

$$$$
ligand_36_pose_18_2HRL.pdbqt
 OpenBabel07062320523D

  6  5  0  0  0  0  0  0  0  0999 V2000
   33.1930   34.6630    9.2900 C   0  0  0  0  0  0  0  0  0  0  0  0
   32.0600   35.3600   10.0340 C   0  0  0  0  0  0  0  0  0  0  0  0
   30.7320   34.6600    9.9020 C   0  0  0  0  0  0  0  0  0  0  0  0
   30.3280   34.5460    8.4400 C   0  0  0  0  0  0  0  0  0  0  0  0
   28.8180   34.5520    8.3030 C   0  0  0  0  0  0  0  0  0  0  0  0
   28.1760   33.7910    9.4100 N   0  0  0  0  0  0  0  0  0  0  0  0
  1  2  1  0  0  0  0
  3  2  1  0  0  0  0
  4  3  1  0  0  0  0
  5  4  1  0  0  0  0
  5  6  1  0  0  0  0
M  END
>  <EGIN_R>
ES LYS A 135

>  <REMARK>
  4 active torsions:
  status: ('A' for Active; 'I' for Inactive)
    5  A    between atoms: CA   and  CB  
    6  A    between atoms: CB   and  CG  
    7  A    between atoms: CG   and  CD  
    8  A    between atoms: CD   and  CE  

$$$$
