ligand_38_pose_4_2HRL.pdbqt
 OpenBabel07062320523D

 51 52  0  0  1  0  0  0  0  0999 V2000
   26.9460   28.2210   18.9860 N   0  0  0  0  0  0  0  0  0  0  0  0
   25.6200   28.4190   18.5340 C   0  0  0  0  0  0  0  0  0  0  0  0
   24.7010   27.5880   18.8320 O   0  0  0  0  0  0  0  0  0  0  0  0
   27.6660   28.9250   18.7190 H   0  0  0  0  0  0  0  0  0  0  0  0
   27.2020   27.0530   19.7860 C   0  0  0  0  0  0  0  0  0  0  0  0
   27.4000   27.4230   21.2630 C   0  0  2  0  0  0  0  0  0  0  0  0
   28.8710   27.4150   21.4850 C   0  0  2  0  0  0  0  0  0  0  0  0
   29.5610   28.7460   21.4100 C   0  0  2  0  0  0  0  0  0  0  0  0
   29.9260   30.3630   19.7630 C   0  0  2  0  0  0  0  0  0  0  0  0
   31.2220   30.6990   20.4770 C   0  0  0  0  0  0  0  0  0  0  0  0
   29.5620   29.0690   20.0480 O   0  0  0  0  0  0  0  0  0  0  0  0
   31.8730   29.4450   21.0370 C   0  0  1  0  0  0  0  0  0  0  0  0
   30.8880   28.8400   22.0560 C   0  0  1  0  0  0  0  0  0  0  0  0
   30.2480   30.3670   18.3890 O   0  0  0  0  0  0  0  0  0  0  0  0
   29.5380   29.9760   17.8450 H   0  0  0  0  0  0  0  0  0  0  0  0
   28.8860   31.3720   19.9760 C   0  0  0  0  0  0  0  0  0  0  0  0
   27.8550   31.3760   19.2630 O   0  0  0  0  0  0  0  0  0  0  0  0
   28.9760   32.3560   20.9490 O   0  0  0  0  0  0  0  0  0  0  0  0
   28.9750   33.3190   20.6750 H   0  0  0  0  0  0  0  0  0  0  0  0
   32.2030   28.5590   20.0450 O   0  0  0  0  0  0  0  0  0  0  0  0
   32.2600   27.6340   20.4450 H   0  0  0  0  0  0  0  0  0  0  0  0
   30.8870   29.8090   23.1590 N   0  0  0  0  0  0  0  0  0  0  0  0
   30.7020   29.3990   24.5070 C   0  0  0  0  0  0  0  0  0  0  0  0
   31.0160   30.8330   23.0070 H   0  0  0  0  0  0  0  0  0  0  0  0
   30.7010   30.4120   25.6230 C   0  0  0  0  0  0  0  0  0  0  0  0
   30.5380   28.2070   24.8120 O   0  0  0  0  0  0  0  0  0  0  0  0
   29.4190   26.6640   20.4120 O   0  0  0  0  0  0  0  0  0  0  0  0
   30.3780   26.5370   20.6610 H   0  0  0  0  0  0  0  0  0  0  0  0
   26.7020   26.4610   21.9880 O   0  0  0  0  0  0  0  0  0  0  0  0
   26.6000   25.6630   21.4250 H   0  0  0  0  0  0  0  0  0  0  0  0
   25.2370   29.5020   17.7570 O   0  0  0  0  0  0  0  0  0  0  0  0
   25.5090   29.6070   16.3710 C   0  0  0  0  0  0  0  0  0  0  0  0
   26.8590   30.1800   16.1250 C   0  0  0  0  0  0  0  0  0  0  0  0
   27.1460   31.5120   15.8050 C   0  0  0  0  0  0  0  0  0  0  0  0
   28.0570   29.5690   16.1570 N   0  0  0  0  0  0  0  0  0  0  0  0
   28.4690   31.6370   15.6620 N   0  0  0  0  0  0  0  0  0  0  0  0
   28.9980   30.4480   15.8800 N   0  0  0  0  0  0  0  0  0  0  0  0
   29.2330   32.8200   15.3320 C   0  0  0  0  0  0  0  0  0  0  0  0
   29.7580   33.4520   16.5700 C   0  0  0  0  0  0  0  0  0  0  0  0
   31.0750   33.2950   16.9460 C   0  0  0  0  0  0  0  0  0  0  0  0
   28.9340   34.2050   17.3590 C   0  0  0  0  0  0  0  0  0  0  0  0
   31.5710   33.8880   18.1100 C   0  0  0  0  0  0  0  0  0  0  0  0
   29.4180   34.8020   18.5220 C   0  0  0  0  0  0  0  0  0  0  0  0
   30.7420   34.6410   18.8960 C   0  0  0  0  0  0  0  0  0  0  0  0
   28.2430   35.8410   19.5920 Br  0  0  0  0  0  0  0  0  0  0  0  0
   29.8670   25.5550   16.9770 C   0  0  0  0  0  0  0  0  0  0  0  0
   28.3450   25.7220   17.0260 C   0  0  0  0  0  0  0  0  0  0  0  0
   27.5990   24.4350   16.7090 C   0  0  0  0  0  0  0  0  0  0  0  0
   26.9660   23.8310   17.9310 C   0  0  0  0  0  0  0  0  0  0  0  0
   25.5990   23.2600   17.5680 C   0  0  0  0  0  0  0  0  0  0  0  0
   24.7280   24.3180   17.0040 N   0  0  0  0  0  0  0  0  0  0  0  0
  1  5  1  0  0  0  0
  2  3  2  0  0  0  0
  2  1  1  0  0  0  0
  4  1  1  0  0  0  0
  6  5  1  6  0  0  0
  6  7  1  0  0  0  0
  6 29  1  0  0  0  0
  7 27  1  6  0  0  0
  8  7  1  6  0  0  0
  8 13  1  0  0  0  0
  9 14  1  6  0  0  0
  9 16  1  0  0  0  0
  9 11  1  0  0  0  0
  9 10  1  0  0  0  0
 10 12  1  0  0  0  0
 11  8  1  0  0  0  0
 12 20  1  6  0  0  0
 12 13  1  0  0  0  0
 13 22  1  1  0  0  0
 15 14  1  0  0  0  0
 16 18  1  0  0  0  0
 17 16  2  0  0  0  0
 19 18  1  0  0  0  0
 20 21  1  0  0  0  0
 22 23  1  0  0  0  0
 23 26  2  0  0  0  0
 23 25  1  0  0  0  0
 24 22  1  0  0  0  0
 27 28  1  0  0  0  0
 30 29  1  0  0  0  0
 31  2  1  0  0  0  0
 32 31  1  0  0  0  0
 33 35  1  0  0  0  0
 33 32  1  0  0  0  0
 34 33  2  0  0  0  0
 36 34  1  0  0  0  0
 36 37  1  0  0  0  0
 37 35  2  0  0  0  0
 38 36  1  0  0  0  0
 38 39  1  0  0  0  0
 39 40  2  0  0  0  0
 39 41  1  0  0  0  0
 40 42  1  0  0  0  0
 41 43  2  0  0  0  0
 42 44  2  0  0  0  0
 43 44  1  0  0  0  0
 43 45  1  0  0  0  0
 46 47  1  0  0  0  0
 48 47  1  0  0  0  0
 48 49  1  0  0  0  0
 50 49  1  0  0  0  0
 51 50  1  0  0  0  0
M  END
>  <REMARK>
 VINA RESULT:    -4.874      4.369      7.783
 INTER + INTRA:         -15.015
 INTER:                  -7.744
 INTRA:                  -7.271
 UNBOUND:                -6.295
 SMILES CC(=O)N[C@@H]1[C@@H](O)C[C@](O)(C(=O)O)O[C@H]1C(O)[C@H](O)CNC(=O)OCc1cn(Cc2cccc(Br)c2)nn1
 SMILES IDX 21 1 22 2 23 3 20 5 18 6 16 7 15 8 9 9 8 10 14 11 6 12 5 13
 SMILES IDX 10 14 11 16 12 17 13 18 7 20 4 22 2 23 1 25 3 26 17 27 19 29
 SMILES IDX 24 31 25 32 26 33 27 34 38 35 28 36 37 37 29 38 30 39 31 40
 SMILES IDX 36 41 32 42 34 43 33 44 35 45
 H PARENT 21 4 10 15 13 19 7 21 4 24 17 28 19 30
 Flexibility Score: inf
  4 active torsions:
  status: ('A' for Active; 'I' for Inactive)
    1  A    between atoms: CA   and  CB  
    2  A    between atoms: CB   and  CG  
    3  A    between atoms: CG   and  CD  
    4  A    between atoms: CD   and  CE  

>  <TORSDO>
F 16

>  <BEGIN_>
RES LYS A 131

$$$$
ligand_38_pose_4_2HRL.pdbqt
 OpenBabel07062320523D

  6  5  0  0  0  0  0  0  0  0999 V2000
   33.1930   34.6630    9.2900 C   0  0  0  0  0  0  0  0  0  0  0  0
   32.0600   35.3600   10.0340 C   0  0  0  0  0  0  0  0  0  0  0  0
   30.8220   35.5590    9.1980 C   0  0  0  0  0  0  0  0  0  0  0  0
   30.0860   34.2420    9.0070 C   0  0  0  0  0  0  0  0  0  0  0  0
   28.7260   34.4780    8.3790 C   0  0  0  0  0  0  0  0  0  0  0  0
   28.8390   35.3210    7.1570 N   0  0  0  0  0  0  0  0  0  0  0  0
  1  2  1  0  0  0  0
  3  2  1  0  0  0  0
  4  3  1  0  0  0  0
  5  4  1  0  0  0  0
  6  5  1  0  0  0  0
M  END
>  <EGIN_R>
ES LYS A 135

>  <REMARK>
  4 active torsions:
  status: ('A' for Active; 'I' for Inactive)
    5  A    between atoms: CA   and  CB  
    6  A    between atoms: CB   and  CG  
    7  A    between atoms: CG   and  CD  
    8  A    between atoms: CD   and  CE  

$$$$
