ligand_75_pose_2_2HRL.pdbqt
 OpenBabel07062320523D

 55 56  0  0  1  0  0  0  0  0999 V2000
   18.5910   34.1760    8.3890 N   0  0  0  0  0  0  0  0  0  0  0  0
   17.5160   34.3210    9.2950 C   0  0  0  0  0  0  0  0  0  0  0  0
   16.9520   35.4150    9.5040 O   0  0  0  0  0  0  0  0  0  0  0  0
   18.9980   33.1800    8.3070 H   0  0  0  0  0  0  0  0  0  0  0  0
   19.1740   35.2150    7.5900 C   0  0  0  0  0  0  0  0  0  0  0  0
   20.6160   35.4150    7.9300 C   0  0  2  0  0  0  0  0  0  0  0  0
   20.8540   35.8710    9.3570 C   0  0  2  0  0  0  0  0  0  0  0  0
   21.9280   36.8940    9.4170 C   0  0  2  0  0  0  0  0  0  0  0  0
   24.1580   37.4670    9.2330 C   0  0  2  0  0  0  0  0  0  0  0  0
   23.6050   38.8480    9.4450 C   0  0  0  0  0  0  0  0  0  0  0  0
   23.1810   36.5050    9.0610 O   0  0  0  0  0  0  0  0  0  0  0  0
   22.5740   38.9670   10.5060 C   0  0  1  0  0  0  0  0  0  0  0  0
   21.9560   37.6140   10.7640 C   0  0  1  0  0  0  0  0  0  0  0  0
   25.0460   37.1620   10.2640 O   0  0  0  0  0  0  0  0  0  0  0  0
   25.3590   37.9610   10.7400 H   0  0  0  0  0  0  0  0  0  0  0  0
   24.9540   37.5040    7.9750 C   0  0  0  0  0  0  0  0  0  0  0  0
   25.8450   36.6100    7.7730 O   0  0  0  0  0  0  0  0  0  0  0  0
   24.7640   38.4790    7.0060 O   0  0  0  0  0  0  0  0  0  0  0  0
   25.2610   38.4870    6.1370 H   0  0  0  0  0  0  0  0  0  0  0  0
   23.0440   39.5520   11.6780 O   0  0  0  0  0  0  0  0  0  0  0  0
   22.8560   40.5050   11.6670 H   0  0  0  0  0  0  0  0  0  0  0  0
   20.6670   37.6980   11.3750 N   0  0  0  0  0  0  0  0  0  0  0  0
   20.4810   37.6510   12.7810 C   0  0  0  0  0  0  0  0  0  0  0  0
   19.7840   37.8000   10.7910 H   0  0  0  0  0  0  0  0  0  0  0  0
   19.1300   37.7410   13.3660 C   0  0  0  0  0  0  0  0  0  0  0  0
   21.4650   37.5310   13.5540 O   0  0  0  0  0  0  0  0  0  0  0  0
   21.0120   34.8010   10.2320 O   0  0  0  0  0  0  0  0  0  0  0  0
   20.7910   35.1160   11.1360 H   0  0  0  0  0  0  0  0  0  0  0  0
   21.2330   36.3220    7.0660 O   0  0  0  0  0  0  0  0  0  0  0  0
   20.5750   37.0350    6.8370 H   0  0  0  0  0  0  0  0  0  0  0  0
   17.0220   33.2140   10.0170 O   0  0  0  0  0  0  0  0  0  0  0  0
   17.3650   33.0770   11.3590 C   0  0  0  0  0  0  0  0  0  0  0  0
   18.3650   32.0080   11.5930 C   0  0  0  0  0  0  0  0  0  0  0  0
   19.6840   32.0900   11.9700 C   0  0  0  0  0  0  0  0  0  0  0  0
   18.1170   30.6930   11.4630 N   0  0  0  0  0  0  0  0  0  0  0  0
   20.2090   30.8420   12.0620 N   0  0  0  0  0  0  0  0  0  0  0  0
   19.2300   30.0140   11.7470 N   0  0  0  0  0  0  0  0  0  0  0  0
   21.5560   30.5390   12.4290 C   0  0  0  0  0  0  0  0  0  0  0  0
   22.4200   31.5220   12.8340 C   0  0  0  0  0  0  0  0  0  0  0  0
   22.0120   29.2420   12.3780 C   0  0  0  0  0  0  0  0  0  0  0  0
   23.7640   31.2300   13.2000 C   0  0  0  0  0  0  0  0  0  0  0  0
   23.2870   28.8960   12.7150 C   0  0  0  0  0  0  0  0  0  0  0  0
   24.1580   29.9200   13.1290 C   0  0  0  0  0  0  0  0  0  0  0  0
   24.5990   32.2870   13.6520 C   0  0  0  0  0  0  0  0  0  0  0  0
   25.0170   33.4240   13.2540 C   0  0  0  0  0  0  0  0  0  0  0  0
   24.8390   34.2280   12.1110 C   0  0  0  0  0  0  0  0  0  0  0  0
   25.9240   34.5870   11.4270 O   0  0  0  0  0  0  0  0  0  0  0  0
   23.7190   34.7550   11.5190 O   0  0  0  0  0  0  0  0  0  0  0  0
   22.8110   34.3180   11.5540 H   0  0  0  0  0  0  0  0  0  0  0  0
   29.8670   25.5550   16.9770 C   0  0  0  0  0  0  0  0  0  0  0  0
   28.3450   25.7220   17.0260 C   0  0  0  0  0  0  0  0  0  0  0  0
   27.6010   24.4020   16.8940 C   0  0  0  0  0  0  0  0  0  0  0  0
   26.2330   24.4580   17.5150 C   0  0  0  0  0  0  0  0  0  0  0  0
   26.1340   25.6820   18.4200 C   0  0  0  0  0  0  0  0  0  0  0  0
   24.9530   26.5010   18.0590 N   0  0  0  0  0  0  0  0  0  0  0  0
  1  2  1  0  0  0  0
  2  3  2  0  0  0  0
  2 31  1  0  0  0  0
  4  1  1  0  0  0  0
  5  1  1  0  0  0  0
  6  5  1  6  0  0  0
  6  7  1  0  0  0  0
  7 27  1  1  0  0  0
  8  7  1  1  0  0  0
  8 13  1  0  0  0  0
  9 16  1  6  0  0  0
  9 10  1  0  0  0  0
  9 14  1  0  0  0  0
 10 12  1  0  0  0  0
 11  9  1  0  0  0  0
 11  8  1  0  0  0  0
 12 13  1  0  0  0  0
 12 20  1  1  0  0  0
 13 22  1  6  0  0  0
 14 15  1  0  0  0  0
 17 16  2  0  0  0  0
 18 16  1  0  0  0  0
 19 18  1  0  0  0  0
 21 20  1  0  0  0  0
 22 23  1  0  0  0  0
 23 25  1  0  0  0  0
 23 26  2  0  0  0  0
 24 22  1  0  0  0  0
 27 28  1  0  0  0  0
 29  6  1  0  0  0  0
 30 29  1  0  0  0  0
 31 32  1  0  0  0  0
 32 33  1  0  0  0  0
 33 34  2  0  0  0  0
 34 36  1  0  0  0  0
 35 33  1  0  0  0  0
 35 37  2  0  0  0  0
 36 38  1  0  0  0  0
 37 36  1  0  0  0  0
 38 39  1  0  0  0  0
 39 41  2  0  0  0  0
 40 38  2  0  0  0  0
 40 42  1  0  0  0  0
 41 44  1  0  0  0  0
 42 43  2  0  0  0  0
 43 41  1  0  0  0  0
 45 44  2  0  0  0  0
 46 45  1  0  0  0  0
 47 46  2  0  0  0  0
 48 49  1  0  0  0  0
 48 46  1  0  0  0  0
 50 51  1  0  0  0  0
 52 51  1  0  0  0  0
 52 53  1  0  0  0  0
 53 54  1  0  0  0  0
 55 54  1  0  0  0  0
M  END
>  <REMARK>
 VINA RESULT:    -5.182      4.145      6.870
 INTER + INTRA:         -16.043
 INTER:                  -9.036
 INTRA:                  -7.007
 UNBOUND:                -6.317
 SMILES CC(=O)N[C@@H]1[C@@H](O)C[C@](O)(C(=O)O)O[C@H]1C(O)[C@H](O)CNC(=O)OCc1cn(-c2cccc(C=CC(=O)O)c2)nn1
 SMILES IDX 21 1 22 2 23 3 20 5 18 6 16 7 15 8 9 9 8 10 14 11 6 12 5 13
 SMILES IDX 10 14 11 16 12 17 13 18 7 20 4 22 2 23 1 25 3 26 17 27 19 29
 SMILES IDX 24 31 25 32 26 33 27 34 41 35 28 36 40 37 29 38 39 39 30 40
 SMILES IDX 33 41 31 42 32 43 34 44 35 45 36 46 37 47 38 48
 H PARENT 21 4 10 15 13 19 7 21 4 24 17 28 19 30 38 49
 Flexibility Score: inf
  4 active torsions:
  status: ('A' for Active; 'I' for Inactive)
    1  A    between atoms: CA   and  CB  
    2  A    between atoms: CB   and  CG  
    3  A    between atoms: CG   and  CD  
    4  A    between atoms: CD   and  CE  

>  <TORSDO>
F 18

>  <BEGIN_>
RES LYS A 131

$$$$
ligand_75_pose_2_2HRL.pdbqt
 OpenBabel07062320523D

  6  5  0  0  0  0  0  0  0  0999 V2000
   33.1930   34.6630    9.2900 C   0  0  0  0  0  0  0  0  0  0  0  0
   32.0600   35.3600   10.0340 C   0  0  0  0  0  0  0  0  0  0  0  0
   30.8770   35.6890    9.1600 C   0  0  0  0  0  0  0  0  0  0  0  0
   30.2910   34.4240    8.5530 C   0  0  0  0  0  0  0  0  0  0  0  0
   28.8820   34.6770    8.0510 C   0  0  0  0  0  0  0  0  0  0  0  0
   28.8960   35.4520    6.7800 N   0  0  0  0  0  0  0  0  0  0  0  0
  1  2  1  0  0  0  0
  3  2  1  0  0  0  0
  4  3  1  0  0  0  0
  5  4  1  0  0  0  0
  6  5  1  0  0  0  0
M  END
>  <EGIN_R>
ES LYS A 135

>  <REMARK>
  4 active torsions:
  status: ('A' for Active; 'I' for Inactive)
    5  A    between atoms: CA   and  CB  
    6  A    between atoms: CB   and  CG  
    7  A    between atoms: CG   and  CD  
    8  A    between atoms: CD   and  CE  

$$$$
