ligand_67_pose_19_2HRL.pdbqt
 OpenBabel07062320523D

 50 51  0  0  1  0  0  0  0  0999 V2000
   26.2210   34.5060   13.6810 N   0  0  0  0  0  0  0  0  0  0  0  0
   25.7730   34.9910   14.9330 C   0  0  0  0  0  0  0  0  0  0  0  0
   26.2890   36.0600   15.4060 O   0  0  0  0  0  0  0  0  0  0  0  0
   25.8100   33.6420   13.2890 H   0  0  0  0  0  0  0  0  0  0  0  0
   27.2350   35.2140   12.9720 C   0  0  0  0  0  0  0  0  0  0  0  0
   28.5950   34.5780   13.0630 C   0  0  2  0  0  0  0  0  0  0  0  0
   29.4970   35.2590   14.0480 C   0  0  1  0  0  0  0  0  0  0  0  0
   29.8990   34.3030   15.1480 C   0  0  2  0  0  0  0  0  0  0  0  0
   28.9900   32.6140   16.4640 C   0  0  2  0  0  0  0  0  0  0  0  0
   29.7450   33.1720   17.6350 C   0  0  0  0  0  0  0  0  0  0  0  0
   28.8360   33.4800   15.4140 O   0  0  0  0  0  0  0  0  0  0  0  0
   29.6070   34.6790   17.5920 C   0  0  1  0  0  0  0  0  0  0  0  0
   30.3290   35.1500   16.3370 C   0  0  1  0  0  0  0  0  0  0  0  0
   27.6890   32.3020   16.9230 O   0  0  0  0  0  0  0  0  0  0  0  0
   27.7080   31.6690   17.6670 H   0  0  0  0  0  0  0  0  0  0  0  0
   29.5800   31.3020   16.0490 C   0  0  0  0  0  0  0  0  0  0  0  0
   30.7730   30.9790   16.2410 O   0  0  0  0  0  0  0  0  0  0  0  0
   28.7340   30.4030   15.4150 O   0  0  0  0  0  0  0  0  0  0  0  0
   27.9140   30.6740   14.8810 H   0  0  0  0  0  0  0  0  0  0  0  0
   28.2460   34.9920   17.4620 O   0  0  0  0  0  0  0  0  0  0  0  0
   27.7040   34.6000   18.1860 H   0  0  0  0  0  0  0  0  0  0  0  0
   31.7610   35.0470   16.5740 N   0  0  0  0  0  0  0  0  0  0  0  0
   32.6030   36.1210   16.1900 C   0  0  0  0  0  0  0  0  0  0  0  0
   32.1770   34.1830   17.0260 H   0  0  0  0  0  0  0  0  0  0  0  0
   34.0750   36.1110   16.3880 C   0  0  0  0  0  0  0  0  0  0  0  0
   32.0640   37.1330   15.6550 O   0  0  0  0  0  0  0  0  0  0  0  0
   30.5960   35.8350   13.4120 O   0  0  0  0  0  0  0  0  0  0  0  0
   31.2170   36.2850   14.0240 H   0  0  0  0  0  0  0  0  0  0  0  0
   29.1830   34.5880   11.8070 O   0  0  0  0  0  0  0  0  0  0  0  0
   28.5820   34.8630   11.0900 H   0  0  0  0  0  0  0  0  0  0  0  0
   24.8110   34.3940   15.6960 O   0  0  0  0  0  0  0  0  0  0  0  0
   24.0070   33.2940   15.3150 C   0  0  0  0  0  0  0  0  0  0  0  0
   24.6340   31.9930   15.6490 C   0  0  0  0  0  0  0  0  0  0  0  0
   24.3180   31.1790   16.7120 C   0  0  0  0  0  0  0  0  0  0  0  0
   25.6210   31.3700   14.9870 N   0  0  0  0  0  0  0  0  0  0  0  0
   25.1180   30.0920   16.6650 N   0  0  0  0  0  0  0  0  0  0  0  0
   25.8980   30.2340   15.6090 N   0  0  0  0  0  0  0  0  0  0  0  0
   25.1550   28.9500   17.5700 C   0  0  0  0  0  0  0  0  0  0  0  0
   26.4160   28.1420   17.3530 C   0  0  0  0  0  0  0  0  0  0  0  0
   27.4400   28.4420   18.3940 C   0  0  0  0  0  0  0  0  0  0  0  0
   27.0240   28.1820   19.6930 O   0  0  0  0  0  0  0  0  0  0  0  0
   27.9020   29.7500   18.3780 O   0  0  0  0  0  0  0  0  0  0  0  0
   27.8260   28.9600   20.5240 C   0  0  0  0  0  0  0  0  0  0  0  0
   28.3410   30.0600   19.6430 C   0  0  0  0  0  0  0  0  0  0  0  0
   29.8670   25.5550   16.9770 C   0  0  0  0  0  0  0  0  0  0  0  0
   28.3450   25.7220   17.0260 C   0  0  0  0  0  0  0  0  0  0  0  0
   27.6010   24.4010   16.9020 C   0  0  0  0  0  0  0  0  0  0  0  0
   26.1450   24.5360   17.2520 C   0  0  0  0  0  0  0  0  0  0  0  0
   25.9610   24.3340   18.7530 C   0  0  0  0  0  0  0  0  0  0  0  0
   25.0380   25.3530   19.3040 N   0  0  0  0  0  0  0  0  0  0  0  0
  1  2  1  0  0  0  0
  2  3  2  0  0  0  0
  2 31  1  0  0  0  0
  4  1  1  0  0  0  0
  5  1  1  0  0  0  0
  6  5  1  6  0  0  0
  6  7  1  0  0  0  0
  7 27  1  6  0  0  0
  8  7  1  6  0  0  0
  8 11  1  0  0  0  0
  8 13  1  0  0  0  0
  9 16  1  6  0  0  0
  9 14  1  0  0  0  0
  9 10  1  0  0  0  0
 11  9  1  0  0  0  0
 12 20  1  6  0  0  0
 12 10  1  0  0  0  0
 13 22  1  1  0  0  0
 13 12  1  0  0  0  0
 14 15  1  0  0  0  0
 16 17  2  0  0  0  0
 18 16  1  0  0  0  0
 19 18  1  0  0  0  0
 20 21  1  0  0  0  0
 22 24  1  0  0  0  0
 23 25  1  0  0  0  0
 23 22  1  0  0  0  0
 26 23  2  0  0  0  0
 27 28  1  0  0  0  0
 29  6  1  0  0  0  0
 30 29  1  0  0  0  0
 32 33  1  0  0  0  0
 32 31  1  0  0  0  0
 33 34  2  0  0  0  0
 35 37  2  0  0  0  0
 35 33  1  0  0  0  0
 36 34  1  0  0  0  0
 36 38  1  0  0  0  0
 37 36  1  0  0  0  0
 39 38  1  0  0  0  0
 39 40  1  0  0  0  0
 40 41  1  0  0  0  0
 41 43  1  0  0  0  0
 42 40  1  0  0  0  0
 42 44  1  0  0  0  0
 44 43  1  0  0  0  0
 45 46  1  0  0  0  0
 47 46  1  0  0  0  0
 47 48  1  0  0  0  0
 48 49  1  0  0  0  0
 49 50  1  0  0  0  0
M  END
>  <REMARK>
 VINA RESULT:    -4.044      2.388      6.999
 INTER + INTRA:         -13.764
 INTER:                  -6.324
 INTRA:                  -7.440
 UNBOUND:                -6.292
 SMILES CC(=O)N[C@@H]1[C@@H](O)C[C@](O)(C(=O)O)O[C@H]1C(O)[C@H](O)CNC(=O)OCc1cn(CCC2OCCO2)nn1
 SMILES IDX 21 1 22 2 23 3 20 5 18 6 16 7 15 8 9 9 8 10 14 11 6 12 5 13
 SMILES IDX 10 14 11 16 12 17 13 18 7 20 4 22 2 23 1 25 3 26 17 27 19 29
 SMILES IDX 24 31 25 32 26 33 27 34 37 35 28 36 36 37 29 38 30 39 31 40
 SMILES IDX 32 41 35 42 33 43 34 44
 H PARENT 21 4 10 15 13 19 7 21 4 24 17 28 19 30
 Flexibility Score: inf
  4 active torsions:
  status: ('A' for Active; 'I' for Inactive)
    1  A    between atoms: CA   and  CB  
    2  A    between atoms: CB   and  CG  
    3  A    between atoms: CG   and  CD  
    4  A    between atoms: CD   and  CE  

>  <TORSDO>
F 17

>  <BEGIN_>
RES LYS A 131

$$$$
ligand_67_pose_19_2HRL.pdbqt
 OpenBabel07062320523D

  6  5  0  0  0  0  0  0  0  0999 V2000
   33.1930   34.6630    9.2900 C   0  0  0  0  0  0  0  0  0  0  0  0
   32.0600   35.3600   10.0340 C   0  0  0  0  0  0  0  0  0  0  0  0
   30.9040   35.7460    9.1470 C   0  0  0  0  0  0  0  0  0  0  0  0
   30.3510   34.5260    8.4260 C   0  0  0  0  0  0  0  0  0  0  0  0
   28.9050   34.7540    8.0270 C   0  0  0  0  0  0  0  0  0  0  0  0
   28.8150   35.4740    6.7270 N   0  0  0  0  0  0  0  0  0  0  0  0
  1  2  1  0  0  0  0
  3  2  1  0  0  0  0
  4  3  1  0  0  0  0
  5  4  1  0  0  0  0
  6  5  1  0  0  0  0
M  END
>  <EGIN_R>
ES LYS A 135

>  <REMARK>
  4 active torsions:
  status: ('A' for Active; 'I' for Inactive)
    5  A    between atoms: CA   and  CB  
    6  A    between atoms: CB   and  CG  
    7  A    between atoms: CG   and  CD  
    8  A    between atoms: CD   and  CE  

$$$$
