ligand_78_pose_18_2HRL.pdbqt
 OpenBabel07062320523D

 53 54  0  0  1  0  0  0  0  0999 V2000
   26.8510   40.8980    6.6520 N   0  0  0  0  0  0  0  0  0  0  0  0
   25.6720   41.3710    5.9690 C   0  0  0  0  0  0  0  0  0  0  0  0
   25.6310   41.3060    4.7320 O   0  0  0  0  0  0  0  0  0  0  0  0
   26.8030   40.9820    7.6850 H   0  0  0  0  0  0  0  0  0  0  0  0
   27.9700   40.3580    5.9010 C   0  0  0  0  0  0  0  0  0  0  0  0
   27.7480   38.9480    5.4720 C   0  0  2  0  0  0  0  0  0  0  0  0
   28.7430   37.9750    6.0080 C   0  0  2  0  0  0  0  0  0  0  0  0
   28.8000   37.8130    7.4840 C   0  0  2  0  0  0  0  0  0  0  0  0
   29.0420   35.4870    7.4220 C   0  0  2  0  0  0  0  0  0  0  0  0
   27.5540   35.3550    7.4070 C   0  0  0  0  0  0  0  0  0  0  0  0
   29.5540   36.6930    7.8270 O   0  0  0  0  0  0  0  0  0  0  0  0
   26.7770   36.4540    8.0190 C   0  0  1  0  0  0  0  0  0  0  0  0
   27.5480   37.7220    8.2600 C   0  0  1  0  0  0  0  0  0  0  0  0
   29.5890   35.2180    6.1670 O   0  0  0  0  0  0  0  0  0  0  0  0
   28.9360   35.1580    5.4510 H   0  0  0  0  0  0  0  0  0  0  0  0
   29.5990   34.4710    8.3530 C   0  0  0  0  0  0  0  0  0  0  0  0
   28.8290   33.8650    9.1280 O   0  0  0  0  0  0  0  0  0  0  0  0
   30.9500   34.1540    8.4090 O   0  0  0  0  0  0  0  0  0  0  0  0
   31.4680   33.8970    7.5570 H   0  0  0  0  0  0  0  0  0  0  0  0
   25.6400   36.6960    7.2510 O   0  0  0  0  0  0  0  0  0  0  0  0
   25.8170   37.2570    6.4740 H   0  0  0  0  0  0  0  0  0  0  0  0
   27.8780   37.8820    9.6800 N   0  0  0  0  0  0  0  0  0  0  0  0
   27.6380   39.0900   10.3700 C   0  0  0  0  0  0  0  0  0  0  0  0
   28.3020   37.0930   10.2040 H   0  0  0  0  0  0  0  0  0  0  0  0
   27.9690   39.2700   11.8150 C   0  0  0  0  0  0  0  0  0  0  0  0
   27.1250   40.0330    9.7170 O   0  0  0  0  0  0  0  0  0  0  0  0
   30.0110   38.6510    5.7320 O   0  0  0  0  0  0  0  0  0  0  0  0
   30.5450   38.0080    5.2320 H   0  0  0  0  0  0  0  0  0  0  0  0
   27.4650   38.7630    4.1340 O   0  0  0  0  0  0  0  0  0  0  0  0
   26.5470   38.4310    3.9820 H   0  0  0  0  0  0  0  0  0  0  0  0
   24.5980   41.8880    6.6670 O   0  0  0  0  0  0  0  0  0  0  0  0
   24.2630   41.4680    7.9770 C   0  0  0  0  0  0  0  0  0  0  0  0
   23.5300   40.1930    7.9710 C   0  0  0  0  0  0  0  0  0  0  0  0
   22.3300   39.8560    8.5290 C   0  0  0  0  0  0  0  0  0  0  0  0
   23.9700   39.0710    7.3640 N   0  0  0  0  0  0  0  0  0  0  0  0
   22.0780   38.5530    8.2490 N   0  0  0  0  0  0  0  0  0  0  0  0
   23.0980   38.1010    7.5370 N   0  0  0  0  0  0  0  0  0  0  0  0
   20.9040   37.8360    8.6690 C   0  0  0  0  0  0  0  0  0  0  0  0
   21.3560   36.2470    9.3520 S   0  0  0  0  0  0  0  0  0  0  0  0
   21.6520   35.3180    8.2030 O   0  0  0  0  0  0  0  0  0  0  0  0
   20.1960   35.7420   10.1270 O   0  0  0  0  0  0  0  0  0  0  0  0
   22.7750   36.4570   10.3610 C   0  0  0  0  0  0  0  0  0  0  0  0
   23.8560   35.6080   10.1500 C   0  0  0  0  0  0  0  0  0  0  0  0
   22.8020   37.4340   11.3270 C   0  0  0  0  0  0  0  0  0  0  0  0
   24.9670   35.7740   10.9410 C   0  0  0  0  0  0  0  0  0  0  0  0
   23.9400   37.5590   12.0940 C   0  0  0  0  0  0  0  0  0  0  0  0
   25.0390   36.7500   11.9310 C   0  0  0  0  0  0  0  0  0  0  0  0
   29.8670   25.5550   16.9770 C   0  0  0  0  0  0  0  0  0  0  0  0
   28.3450   25.7220   17.0260 C   0  0  0  0  0  0  0  0  0  0  0  0
   27.6010   24.4020   16.8940 C   0  0  0  0  0  0  0  0  0  0  0  0
   26.1600   24.5200   17.3060 C   0  0  0  0  0  0  0  0  0  0  0  0
   25.8640   23.5170   18.4170 C   0  0  0  0  0  0  0  0  0  0  0  0
   24.8380   22.5430   17.9770 N   0  0  0  0  0  0  0  0  0  0  0  0
  1  4  1  0  0  0  0
  2  1  1  0  0  0  0
  2 31  1  0  0  0  0
  3  2  2  0  0  0  0
  5  1  1  0  0  0  0
  6  5  1  6  0  0  0
  6  7  1  0  0  0  0
  7 27  1  1  0  0  0
  8  7  1  6  0  0  0
  8 11  1  0  0  0  0
  8 13  1  0  0  0  0
  9 14  1  6  0  0  0
  9 11  1  0  0  0  0
  9 16  1  0  0  0  0
 10  9  1  0  0  0  0
 10 12  1  0  0  0  0
 12 20  1  6  0  0  0
 12 13  1  0  0  0  0
 13 22  1  1  0  0  0
 15 14  1  0  0  0  0
 16 18  1  0  0  0  0
 16 17  2  0  0  0  0
 19 18  1  0  0  0  0
 21 20  1  0  0  0  0
 22 24  1  0  0  0  0
 22 23  1  0  0  0  0
 23 25  1  0  0  0  0
 26 23  2  0  0  0  0
 28 27  1  0  0  0  0
 29  6  1  0  0  0  0
 30 29  1  0  0  0  0
 31 32  1  0  0  0  0
 33 32  1  0  0  0  0
 33 34  2  0  0  0  0
 35 37  2  0  0  0  0
 35 33  1  0  0  0  0
 36 34  1  0  0  0  0
 36 38  1  0  0  0  0
 37 36  1  0  0  0  0
 38 39  1  0  0  0  0
 39 41  2  0  0  0  0
 39 42  1  0  0  0  0
 40 39  2  0  0  0  0
 42 44  1  0  0  0  0
 43 42  2  0  0  0  0
 43 45  1  0  0  0  0
 44 46  2  0  0  0  0
 45 47  2  0  0  0  0
 47 46  1  0  0  0  0
 48 49  1  0  0  0  0
 50 49  1  0  0  0  0
 50 51  1  0  0  0  0
 51 52  1  0  0  0  0
 53 52  1  0  0  0  0
M  END
>  <REMARK>
 VINA RESULT:    -5.128      7.470     13.499
 INTER + INTRA:         -14.486
 INTER:                  -9.398
 INTRA:                  -5.088
 UNBOUND:                -5.011
 SMILES CC(=O)N[C@@H]1[C@@H](O)C[C@](O)(C(=O)O)O[C@H]1C(O)[C@H](O)CNC(=O)OCc1cn(CS(=O)(=O)c2ccccc2)nn1
 SMILES IDX 21 1 22 2 23 3 20 5 18 6 16 7 15 8 9 9 8 10 14 11 6 12 5 13
 SMILES IDX 10 14 11 16 12 17 13 18 7 20 4 22 2 23 1 25 3 26 17 27 19 29
 SMILES IDX 24 31 25 32 26 33 27 34 40 35 28 36 39 37 29 38 30 39 31 40
 SMILES IDX 32 41 33 42 34 43 38 44 35 45 37 46 36 47
 H PARENT 21 4 10 15 13 19 7 21 4 24 17 28 19 30
 Flexibility Score: inf
  4 active torsions:
  status: ('A' for Active; 'I' for Inactive)
    1  A    between atoms: CA   and  CB  
    2  A    between atoms: CB   and  CG  
    3  A    between atoms: CG   and  CD  
    4  A    between atoms: CD   and  CE  

>  <TORSDO>
F 17

>  <BEGIN_>
RES LYS A 131

$$$$
ligand_78_pose_18_2HRL.pdbqt
 OpenBabel07062320523D

  6  5  0  0  0  0  0  0  0  0999 V2000
   33.1930   34.6630    9.2900 C   0  0  0  0  0  0  0  0  0  0  0  0
   32.0600   35.3600   10.0340 C   0  0  0  0  0  0  0  0  0  0  0  0
   32.4920   35.9980   11.3290 C   0  0  0  0  0  0  0  0  0  0  0  0
   31.8980   37.3910   11.4660 C   0  0  0  0  0  0  0  0  0  0  0  0
   31.4610   37.6460   12.8960 C   0  0  0  0  0  0  0  0  0  0  0  0
   32.1420   36.7150   13.8380 N   0  0  0  0  0  0  0  0  0  0  0  0
  1  2  1  0  0  0  0
  2  3  1  0  0  0  0
  3  4  1  0  0  0  0
  4  5  1  0  0  0  0
  5  6  1  0  0  0  0
M  END
>  <EGIN_R>
ES LYS A 135

>  <REMARK>
  4 active torsions:
  status: ('A' for Active; 'I' for Inactive)
    5  A    between atoms: CA   and  CB  
    6  A    between atoms: CB   and  CG  
    7  A    between atoms: CG   and  CD  
    8  A    between atoms: CD   and  CE  

$$$$
