ligand_76_pose_12_2HRL.pdbqt
 OpenBabel07062320523D

 55 56  0  0  1  0  0  0  0  0999 V2000
   25.0880   30.4450   21.6660 O   0  0  0  0  0  0  0  0  0  0  0  0
   25.6350   29.1760   21.6080 C   0  0  0  0  0  0  0  0  0  0  0  0
   25.8630   28.5450   20.3680 N   0  0  0  0  0  0  0  0  0  0  0  0
   25.6160   29.0430   19.4930 H   0  0  0  0  0  0  0  0  0  0  0  0
   25.9330   28.5740   22.6650 O   0  0  0  0  0  0  0  0  0  0  0  0
   26.4390   27.2120   20.2630 C   0  0  0  0  0  0  0  0  0  0  0  0
   27.8570   27.2760   19.7260 C   0  0  2  0  0  0  0  0  0  0  0  0
   28.8130   27.1320   20.8990 C   0  0  1  0  0  0  0  0  0  0  0  0
   29.2830   28.5110   21.3700 C   0  0  2  0  0  0  0  0  0  0  0  0
   31.5650   28.7820   20.9610 C   0  0  2  0  0  0  0  0  0  0  0  0
   31.7940   27.9790   22.1940 C   0  0  0  0  0  0  0  0  0  0  0  0
   30.2820   29.0320   20.6280 O   0  0  0  0  0  0  0  0  0  0  0  0
   30.8790   28.3160   23.3150 C   0  0  1  0  0  0  0  0  0  0  0  0
   29.4570   28.4980   22.8570 C   0  0  1  0  0  0  0  0  0  0  0  0
   32.1650   28.0740   19.8910 O   0  0  0  0  0  0  0  0  0  0  0  0
   32.2850   28.6860   19.1210 H   0  0  0  0  0  0  0  0  0  0  0  0
   32.3590   30.0560   21.0950 C   0  0  0  0  0  0  0  0  0  0  0  0
   33.5490   30.0780   21.4850 O   0  0  0  0  0  0  0  0  0  0  0  0
   31.7910   31.2950   20.7810 O   0  0  0  0  0  0  0  0  0  0  0  0
   31.1230   31.7360   21.4290 H   0  0  0  0  0  0  0  0  0  0  0  0
   30.9850   27.3040   24.2980 O   0  0  0  0  0  0  0  0  0  0  0  0
   30.2300   27.3760   24.9550 H   0  0  0  0  0  0  0  0  0  0  0  0
   28.8520   29.6910   23.4540 N   0  0  0  0  0  0  0  0  0  0  0  0
   28.3580   29.6910   24.7660 C   0  0  0  0  0  0  0  0  0  0  0  0
   28.8100   30.5540   22.8350 H   0  0  0  0  0  0  0  0  0  0  0  0
   27.7570   30.9160   25.3230 C   0  0  0  0  0  0  0  0  0  0  0  0
   28.4220   28.6630   25.4680 O   0  0  0  0  0  0  0  0  0  0  0  0
   28.0290   26.6400   21.9570 O   0  0  0  0  0  0  0  0  0  0  0  0
   28.2180   25.6700   22.1360 H   0  0  0  0  0  0  0  0  0  0  0  0
   28.0690   28.4890   19.0830 O   0  0  0  0  0  0  0  0  0  0  0  0
   28.9740   28.4580   18.6900 H   0  0  0  0  0  0  0  0  0  0  0  0
   25.9570   31.4860   22.1430 C   0  0  0  0  0  0  0  0  0  0  0  0
   26.9800   31.8010   21.1220 C   0  0  0  0  0  0  0  0  0  0  0  0
   26.8430   31.9320   19.7610 C   0  0  0  0  0  0  0  0  0  0  0  0
   28.2790   32.0210   21.3930 N   0  0  0  0  0  0  0  0  0  0  0  0
   28.0460   32.2250   19.2450 N   0  0  0  0  0  0  0  0  0  0  0  0
   28.8880   32.2750   20.2280 N   0  0  0  0  0  0  0  0  0  0  0  0
   28.3890   32.4550   17.8230 C   0  0  0  0  0  0  0  0  0  0  0  0
   29.6060   31.6460   17.4990 C   0  0  2  0  0  0  0  0  0  0  0  0
   29.7800   30.5810   18.3940 O   0  0  0  0  0  0  0  0  0  0  0  0
   30.6980   30.6690   18.7800 H   0  0  0  0  0  0  0  0  0  0  0  0
   30.7860   32.3540   17.0580 C   0  0  0  0  0  0  0  0  0  0  0  0
   31.2410   32.2140   15.6690 C   0  0  0  0  0  0  0  0  0  0  0  0
   31.3750   33.4570   14.9260 C   0  0  0  0  0  0  0  0  0  0  0  0
   32.5590   34.1890   15.0740 C   0  0  0  0  0  0  0  0  0  0  0  0
   30.4180   34.0200   14.1410 C   0  0  0  0  0  0  0  0  0  0  0  0
   32.7260   35.4050   14.4550 C   0  0  0  0  0  0  0  0  0  0  0  0
   30.5660   35.2420   13.5090 C   0  0  0  0  0  0  0  0  0  0  0  0
   31.7390   35.9500   13.6660 C   0  0  0  0  0  0  0  0  0  0  0  0
   29.8670   25.5550   16.9770 C   0  0  0  0  0  0  0  0  0  0  0  0
   28.3450   25.7220   17.0260 C   0  0  0  0  0  0  0  0  0  0  0  0
   27.5990   24.4280   16.7390 C   0  0  0  0  0  0  0  0  0  0  0  0
   26.9970   23.8340   17.9820 C   0  0  0  0  0  0  0  0  0  0  0  0
   25.5740   24.3530   18.1560 C   0  0  0  0  0  0  0  0  0  0  0  0
   24.8510   24.3310   16.8630 N   0  0  0  0  0  0  0  0  0  0  0  0
  1 32  1  0  0  0  0
  2  1  1  0  0  0  0
  2  5  2  0  0  0  0
  3  2  1  0  0  0  0
  4  3  1  0  0  0  0
  6  3  1  0  0  0  0
  7  6  1  1  0  0  0
  7  8  1  0  0  0  0
  8 28  1  1  0  0  0
  9  8  1  6  0  0  0
  9 14  1  0  0  0  0
 10 15  1  6  0  0  0
 10 17  1  0  0  0  0
 10 11  1  0  0  0  0
 11 13  1  0  0  0  0
 12 10  1  0  0  0  0
 12  9  1  0  0  0  0
 13 21  1  1  0  0  0
 14 13  1  0  0  0  0
 14 23  1  6  0  0  0
 16 15  1  0  0  0  0
 17 18  2  0  0  0  0
 19 17  1  0  0  0  0
 19 20  1  0  0  0  0
 21 22  1  0  0  0  0
 23 24  1  0  0  0  0
 24 26  1  0  0  0  0
 24 27  2  0  0  0  0
 25 23  1  0  0  0  0
 28 29  1  0  0  0  0
 30  7  1  0  0  0  0
 31 30  1  0  0  0  0
 33 35  1  0  0  0  0
 33 32  1  0  0  0  0
 34 33  2  0  0  0  0
 36 34  1  0  0  0  0
 36 37  1  0  0  0  0
 37 35  2  0  0  0  0
 38 36  1  0  0  0  0
 39 42  1  1  0  0  0
 39 38  1  0  0  0  0
 39 40  1  0  0  0  0
 40 41  1  0  0  0  0
 43 42  1  0  0  0  0
 44 45  1  0  0  0  0
 44 43  1  0  0  0  0
 46 44  2  0  0  0  0
 47 45  2  0  0  0  0
 48 49  2  0  0  0  0
 48 46  1  0  0  0  0
 49 47  1  0  0  0  0
 50 51  1  0  0  0  0
 52 51  1  0  0  0  0
 52 53  1  0  0  0  0
 53 54  1  0  0  0  0
 55 54  1  0  0  0  0
M  END
>  <REMARK>
 VINA RESULT:    -4.907      7.866     13.845
 INTER + INTRA:         -16.554
 INTER:                  -8.218
 INTRA:                  -8.337
 UNBOUND:                -6.771
 SMILES CC(=O)N[C@@H]1[C@@H](O)C[C@](O)(C(=O)O)O[C@H]1C(O)[C@H](O)CNC(=O)OCc1cn(CC(O)CCc2ccccc2)nn1
 SMILES IDX 24 1 22 2 21 3 23 5 20 6 18 7 16 8 15 9 9 10 8 11 14 12 6 13
 SMILES IDX 5 14 10 15 11 17 12 18 13 19 7 21 4 23 2 24 1 26 3 27 17 28
 SMILES IDX 19 30 25 32 26 33 27 34 41 35 28 36 40 37 29 38 30 39 31 40
 SMILES IDX 32 42 33 43 34 44 35 45 39 46 36 47 38 48 37 49
 H PARENT 21 4 10 16 13 20 7 22 4 25 17 29 19 31 31 41
 Flexibility Score: inf
  4 active torsions:
  status: ('A' for Active; 'I' for Inactive)
    1  A    between atoms: CA   and  CB  
    2  A    between atoms: CB   and  CG  
    3  A    between atoms: CG   and  CD  
    4  A    between atoms: CD   and  CE  

>  <TORSDO>
F 20

>  <BEGIN_>
RES LYS A 131

$$$$
ligand_76_pose_12_2HRL.pdbqt
 OpenBabel07062320523D

  6  5  0  0  0  0  0  0  0  0999 V2000
   33.1930   34.6630    9.2900 C   0  0  0  0  0  0  0  0  0  0  0  0
   32.0600   35.3600   10.0340 C   0  0  0  0  0  0  0  0  0  0  0  0
   30.7130   34.7220    9.8140 C   0  0  0  0  0  0  0  0  0  0  0  0
   30.4600   34.5010    8.3310 C   0  0  0  0  0  0  0  0  0  0  0  0
   29.0190   34.8210    7.9820 C   0  0  0  0  0  0  0  0  0  0  0  0
   28.9300   35.5540    6.6890 N   0  0  0  0  0  0  0  0  0  0  0  0
  1  2  1  0  0  0  0
  3  2  1  0  0  0  0
  4  3  1  0  0  0  0
  5  4  1  0  0  0  0
  6  5  1  0  0  0  0
M  END
>  <EGIN_R>
ES LYS A 135

>  <REMARK>
  4 active torsions:
  status: ('A' for Active; 'I' for Inactive)
    5  A    between atoms: CA   and  CB  
    6  A    between atoms: CB   and  CG  
    7  A    between atoms: CG   and  CD  
    8  A    between atoms: CD   and  CE  

$$$$
