ligand_92_pose_15_2HRL.pdbqt
 OpenBabel07062320523D

 59 61  0  0  1  0  0  0  0  0999 V2000
   31.4180   33.7610   17.5070 N   0  0  0  0  0  0  0  0  0  0  0  0
   32.1560   34.9230   17.1910 C   0  0  0  0  0  0  0  0  0  0  0  0
   32.1150   35.9110   18.0010 O   0  0  0  0  0  0  0  0  0  0  0  0
   31.4480   32.9570   16.8570 H   0  0  0  0  0  0  0  0  0  0  0  0
   30.6300   33.6660   18.7060 C   0  0  0  0  0  0  0  0  0  0  0  0
   29.1470   33.7150   18.4350 C   0  0  2  0  0  0  0  0  0  0  0  0
   28.7900   33.0850   17.1200 C   0  0  1  0  0  0  0  0  0  0  0  0
   27.4870   32.2750   17.2410 C   0  0  2  0  0  0  0  0  0  0  0  0
   28.2200   30.1890   18.0640 C   0  0  2  0  0  0  0  0  0  0  0  0
   27.5860   29.5120   16.8650 C   0  0  0  0  0  0  0  0  0  0  0  0
   27.6580   31.4000   18.2690 O   0  0  0  0  0  0  0  0  0  0  0  0
   27.8720   30.4120   15.6870 C   0  0  1  0  0  0  0  0  0  0  0  0
   27.1470   31.7160   15.9150 C   0  0  1  0  0  0  0  0  0  0  0  0
   29.5720   30.3530   17.7340 O   0  0  0  0  0  0  0  0  0  0  0  0
   29.7560   31.1990   17.2860 H   0  0  0  0  0  0  0  0  0  0  0  0
   28.1660   29.3090   19.2610 C   0  0  0  0  0  0  0  0  0  0  0  0
   28.0530   29.8140   20.3870 O   0  0  0  0  0  0  0  0  0  0  0  0
   28.2430   27.9360   19.1340 O   0  0  0  0  0  0  0  0  0  0  0  0
   27.5510   27.3340   19.6040 H   0  0  0  0  0  0  0  0  0  0  0  0
   29.2450   30.5700   15.5340 O   0  0  0  0  0  0  0  0  0  0  0  0
   29.4690   30.3150   14.5910 H   0  0  0  0  0  0  0  0  0  0  0  0
   25.7600   31.4860   15.6710 N   0  0  0  0  0  0  0  0  0  0  0  0
   25.0120   32.3900   14.8860 C   0  0  0  0  0  0  0  0  0  0  0  0
   25.2890   30.6560   16.0690 H   0  0  0  0  0  0  0  0  0  0  0  0
   23.5670   32.2300   14.5830 C   0  0  0  0  0  0  0  0  0  0  0  0
   25.5990   33.3770   14.4230 O   0  0  0  0  0  0  0  0  0  0  0  0
   28.6470   34.0420   16.0880 O   0  0  0  0  0  0  0  0  0  0  0  0
   28.5930   33.5560   15.2460 H   0  0  0  0  0  0  0  0  0  0  0  0
   28.8090   35.0860   18.4560 O   0  0  0  0  0  0  0  0  0  0  0  0
   29.2500   35.4890   17.6680 H   0  0  0  0  0  0  0  0  0  0  0  0
   32.9250   35.0600   16.0540 O   0  0  0  0  0  0  0  0  0  0  0  0
   32.6010   36.0110   15.0310 C   0  0  0  0  0  0  0  0  0  0  0  0
   31.4330   35.4460   14.2930 C   0  0  0  0  0  0  0  0  0  0  0  0
   30.5060   36.1550   13.5260 C   0  0  0  0  0  0  0  0  0  0  0  0
   31.0260   34.1630   14.2060 N   0  0  0  0  0  0  0  0  0  0  0  0
   29.6010   35.3010   13.0210 N   0  0  0  0  0  0  0  0  0  0  0  0
   29.9530   34.1080   13.4560 N   0  0  0  0  0  0  0  0  0  0  0  0
   28.5060   35.6640   12.1900 C   0  0  0  0  0  0  0  0  0  0  0  0
   27.4460   34.8210   11.9490 C   0  0  0  0  0  0  0  0  0  0  0  0
   28.4870   36.9050   11.5900 C   0  0  0  0  0  0  0  0  0  0  0  0
   26.3830   35.1960   11.1280 C   0  0  0  0  0  0  0  0  0  0  0  0
   27.4390   37.2780   10.7800 C   0  0  0  0  0  0  0  0  0  0  0  0
   26.3530   36.4320   10.5260 C   0  0  0  0  0  0  0  0  0  0  0  0
   25.0440   36.9490    9.5060 S   0  0  0  0  0  0  0  0  0  0  0  0
   25.6690   37.4810    8.2230 O   0  0  0  0  0  0  0  0  0  0  0  0
   24.3830   38.1100   10.1650 O   0  0  0  0  0  0  0  0  0  0  0  0
   23.9270   35.7280    9.1170 N   0  0  0  0  0  0  0  0  0  0  0  0
   24.2090   35.0270    8.3780 H   0  0  0  0  0  0  0  0  0  0  0  0
   22.6510   35.5370    9.6700 C   0  0  0  0  0  0  0  0  0  0  0  0
   21.4630   35.6550    9.4140 N   0  0  0  0  0  0  0  0  0  0  0  0
   22.5050   34.8550   11.4260 S   0  0  0  0  0  0  0  0  0  0  0  0
   20.4420   35.3800   10.1600 C   0  0  0  0  0  0  0  0  0  0  0  0
   20.6460   34.8920   11.4040 C   0  0  0  0  0  0  0  0  0  0  0  0
   29.8670   25.5550   16.9770 C   0  0  0  0  0  0  0  0  0  0  0  0
   28.3450   25.7220   17.0260 C   0  0  0  0  0  0  0  0  0  0  0  0
   27.6010   24.4030   16.8880 C   0  0  0  0  0  0  0  0  0  0  0  0
   26.5850   24.2080   17.9790 C   0  0  0  0  0  0  0  0  0  0  0  0
   25.2130   23.9650   17.3580 C   0  0  0  0  0  0  0  0  0  0  0  0
   24.8010   22.5540   17.5480 N   0  0  0  0  0  0  0  0  0  0  0  0
  1  5  1  0  0  0  0
  2  1  1  0  0  0  0
  2  3  2  0  0  0  0
  4  1  1  0  0  0  0
  6 29  1  0  0  0  0
  6  5  1  6  0  0  0
  7 27  1  6  0  0  0
  7  6  1  0  0  0  0
  8  7  1  6  0  0  0
  8 11  1  0  0  0  0
  9 14  1  6  0  0  0
  9 11  1  0  0  0  0
  9 16  1  0  0  0  0
 10  9  1  0  0  0  0
 12 20  1  1  0  0  0
 12 13  1  0  0  0  0
 12 10  1  0  0  0  0
 13 22  1  1  0  0  0
 13  8  1  0  0  0  0
 15 14  1  0  0  0  0
 16 17  2  0  0  0  0
 18 16  1  0  0  0  0
 18 19  1  0  0  0  0
 21 20  1  0  0  0  0
 22 24  1  0  0  0  0
 23 22  1  0  0  0  0
 25 23  1  0  0  0  0
 26 23  2  0  0  0  0
 28 27  1  0  0  0  0
 30 29  1  0  0  0  0
 31  2  1  0  0  0  0
 32 31  1  0  0  0  0
 33 32  1  0  0  0  0
 34 33  2  0  0  0  0
 35 33  1  0  0  0  0
 36 37  1  0  0  0  0
 36 34  1  0  0  0  0
 37 35  2  0  0  0  0
 38 36  1  0  0  0  0
 39 38  1  0  0  0  0
 40 38  2  0  0  0  0
 41 39  2  0  0  0  0
 42 40  1  0  0  0  0
 43 42  2  0  0  0  0
 43 41  1  0  0  0  0
 44 46  2  0  0  0  0
 44 43  1  0  0  0  0
 45 44  2  0  0  0  0
 47 44  1  0  0  0  0
 47 49  1  0  0  0  0
 48 47  1  0  0  0  0
 49 51  1  0  0  0  0
 50 49  2  0  0  0  0
 50 52  1  0  0  0  0
 52 53  2  0  0  0  0
 53 51  1  0  0  0  0
 54 55  1  0  0  0  0
 56 55  1  0  0  0  0
 56 57  1  0  0  0  0
 58 59  1  0  0  0  0
 58 57  1  0  0  0  0
M  END
>  <REMARK>
 VINA RESULT:    -4.899      4.412      7.918
 INTER + INTRA:         -15.745
 INTER:                  -9.320
 INTRA:                  -6.425
 UNBOUND:                -6.408
 SMILES CC(=O)N[C@@H]1[C@@H](O)C[C@](O)(C(=O)O)O[C@H]1C(O)[C@H](O)CNC(=O)OCc1cn(-c2ccc(S(=O)(=O)Nc3nccs3)cc2)nn1
 SMILES IDX 21 1 22 2 23 3 20 5 18 6 16 7 15 8 9 9 8 10 14 11 6 12 5 13
 SMILES IDX 10 14 11 16 12 17 13 18 7 20 4 22 2 23 1 25 3 26 17 27 19 29
 SMILES IDX 24 31 25 32 26 33 27 34 45 35 28 36 44 37 29 38 30 39 43 40
 SMILES IDX 31 41 42 42 32 43 33 44 34 45 35 46 36 47 37 49 38 50 41 51
 SMILES IDX 39 52 40 53
 H PARENT 21 4 10 15 13 19 7 21 4 24 17 28 19 30 36 48
 Flexibility Score: inf
  4 active torsions:
  status: ('A' for Active; 'I' for Inactive)
    1  A    between atoms: CA   and  CB  
    2  A    between atoms: CB   and  CG  
    3  A    between atoms: CG   and  CD  
    4  A    between atoms: CD   and  CE  

>  <TORSDO>
F 18

>  <BEGIN_>
RES LYS A 131

$$$$
ligand_92_pose_15_2HRL.pdbqt
 OpenBabel07062320523D

  6  5  0  0  0  0  0  0  0  0999 V2000
   33.1930   34.6630    9.2900 C   0  0  0  0  0  0  0  0  0  0  0  0
   32.0600   35.3600   10.0340 C   0  0  0  0  0  0  0  0  0  0  0  0
   30.8890   35.7140    9.1540 C   0  0  0  0  0  0  0  0  0  0  0  0
   30.4100   34.4940    8.3820 C   0  0  0  0  0  0  0  0  0  0  0  0
   28.9640   34.1840    8.7210 C   0  0  0  0  0  0  0  0  0  0  0  0
   28.0320   34.9270    7.8280 N   0  0  0  0  0  0  0  0  0  0  0  0
  1  2  1  0  0  0  0
  3  2  1  0  0  0  0
  4  5  1  0  0  0  0
  4  3  1  0  0  0  0
  6  5  1  0  0  0  0
M  END
>  <EGIN_R>
ES LYS A 135

>  <REMARK>
  4 active torsions:
  status: ('A' for Active; 'I' for Inactive)
    5  A    between atoms: CA   and  CB  
    6  A    between atoms: CB   and  CG  
    7  A    between atoms: CG   and  CD  
    8  A    between atoms: CD   and  CE  

$$$$
