ligand_36_pose_19_2HRL.pdbqt
 OpenBabel07062320523D

 52 53  0  0  1  0  0  0  0  0999 V2000
   27.1170   32.8750   20.3100 N   0  0  0  0  0  0  0  0  0  0  0  0
   26.9110   32.2070   21.5530 C   0  0  0  0  0  0  0  0  0  0  0  0
   25.7140   31.9850   21.9480 O   0  0  0  0  0  0  0  0  0  0  0  0
   28.0950   33.0400   20.0100 H   0  0  0  0  0  0  0  0  0  0  0  0
   25.9980   33.2800   19.5400 C   0  0  0  0  0  0  0  0  0  0  0  0
   25.9530   32.7910   18.1120 C   0  0  2  0  0  0  0  0  0  0  0  0
   26.9660   33.4740   17.2150 C   0  0  2  0  0  0  0  0  0  0  0  0
   28.1980   32.6600   17.0080 C   0  0  2  0  0  0  0  0  0  0  0  0
   30.2090   32.1020   18.0400 C   0  0  2  0  0  0  0  0  0  0  0  0
   30.3540   31.2140   16.8250 C   0  0  0  0  0  0  0  0  0  0  0  0
   28.9590   32.6280   18.1830 O   0  0  0  0  0  0  0  0  0  0  0  0
   29.9870   31.8950   15.5540 C   0  0  1  0  0  0  0  0  0  0  0  0
   29.1110   33.1080   15.9110 C   0  0  1  0  0  0  0  0  0  0  0  0
   31.2080   33.0980   17.9820 O   0  0  0  0  0  0  0  0  0  0  0  0
   31.9860   32.7100   17.4840 H   0  0  0  0  0  0  0  0  0  0  0  0
   30.4980   31.2610   19.2200 C   0  0  0  0  0  0  0  0  0  0  0  0
   30.6230   31.7980   20.3430 O   0  0  0  0  0  0  0  0  0  0  0  0
   30.6300   29.8980   19.0900 O   0  0  0  0  0  0  0  0  0  0  0  0
   29.8830   29.2330   19.1810 H   0  0  0  0  0  0  0  0  0  0  0  0
   31.0660   32.2740   14.7800 O   0  0  0  0  0  0  0  0  0  0  0  0
   30.7640   32.2360   13.8210 H   0  0  0  0  0  0  0  0  0  0  0  0
   28.4830   33.6360   14.7410 N   0  0  0  0  0  0  0  0  0  0  0  0
   29.0640   34.7290   14.0120 C   0  0  0  0  0  0  0  0  0  0  0  0
   27.5760   33.2440   14.3560 H   0  0  0  0  0  0  0  0  0  0  0  0
   28.3990   35.2720   12.7900 C   0  0  0  0  0  0  0  0  0  0  0  0
   30.1420   35.2520   14.3860 O   0  0  0  0  0  0  0  0  0  0  0  0
   27.1670   34.7570   17.6090 O   0  0  0  0  0  0  0  0  0  0  0  0
   27.4540   34.8910   18.5130 H   0  0  0  0  0  0  0  0  0  0  0  0
   24.6470   33.1290   17.6730 O   0  0  0  0  0  0  0  0  0  0  0  0
   24.1260   33.5590   18.3750 H   0  0  0  0  0  0  0  0  0  0  0  0
   27.9250   31.7690   22.3860 O   0  0  0  0  0  0  0  0  0  0  0  0
   27.8620   30.4590   22.9040 C   0  0  0  0  0  0  0  0  0  0  0  0
   28.1620   29.4380   21.8730 C   0  0  0  0  0  0  0  0  0  0  0  0
   27.3060   28.9060   20.9210 C   0  0  0  0  0  0  0  0  0  0  0  0
   29.3470   28.8450   21.6820 N   0  0  0  0  0  0  0  0  0  0  0  0
   27.9920   28.0210   20.1930 N   0  0  0  0  0  0  0  0  0  0  0  0
   29.2160   28.0060   20.6760 N   0  0  0  0  0  0  0  0  0  0  0  0
   27.5060   27.2290   19.0840 C   0  0  0  0  0  0  0  0  0  0  0  0
   26.7520   27.9950   18.0910 C   0  0  0  0  0  0  0  0  0  0  0  0
   25.3960   27.8290   17.9790 C   0  0  0  0  0  0  0  0  0  0  0  0
   27.4120   28.8870   17.2590 C   0  0  0  0  0  0  0  0  0  0  0  0
   24.6720   28.5420   17.0430 C   0  0  0  0  0  0  0  0  0  0  0  0
   26.7080   29.6150   16.3100 C   0  0  0  0  0  0  0  0  0  0  0  0
   25.3280   29.4280   16.2150 C   0  0  0  0  0  0  0  0  0  0  0  0
   24.5870   30.1710   15.2390 C   0  0  0  0  0  0  0  0  0  0  0  0
   23.9860   30.7670   14.4280 N   0  0  0  0  0  0  0  0  0  0  0  0
   29.8670   25.5550   16.9770 C   0  0  0  0  0  0  0  0  0  0  0  0
   28.3450   25.7220   17.0260 C   0  0  0  0  0  0  0  0  0  0  0  0
   27.5990   24.4750   16.5760 C   0  0  0  0  0  0  0  0  0  0  0  0
   27.1320   23.6440   17.7380 C   0  0  0  0  0  0  0  0  0  0  0  0
   25.7280   24.0800   18.1440 C   0  0  0  0  0  0  0  0  0  0  0  0
   24.9060   24.3670   16.9440 N   0  0  0  0  0  0  0  0  0  0  0  0
  1  2  1  0  0  0  0
  2  3  2  0  0  0  0
  2 31  1  0  0  0  0
  4  1  1  0  0  0  0
  5  1  1  0  0  0  0
  6  5  1  1  0  0  0
  7 27  1  1  0  0  0
  7  6  1  0  0  0  0
  8  7  1  1  0  0  0
  8 11  1  0  0  0  0
  9 14  1  6  0  0  0
  9 11  1  0  0  0  0
  9 16  1  0  0  0  0
 10  9  1  0  0  0  0
 12 20  1  1  0  0  0
 12 13  1  0  0  0  0
 12 10  1  0  0  0  0
 13 22  1  6  0  0  0
 13  8  1  0  0  0  0
 15 14  1  0  0  0  0
 16 17  2  0  0  0  0
 18 19  1  0  0  0  0
 18 16  1  0  0  0  0
 21 20  1  0  0  0  0
 23 26  2  0  0  0  0
 23 22  1  0  0  0  0
 24 22  1  0  0  0  0
 25 23  1  0  0  0  0
 27 28  1  0  0  0  0
 29  6  1  0  0  0  0
 29 30  1  0  0  0  0
 31 32  1  0  0  0  0
 33 32  1  0  0  0  0
 34 33  2  0  0  0  0
 35 33  1  0  0  0  0
 36 37  1  0  0  0  0
 36 34  1  0  0  0  0
 37 35  2  0  0  0  0
 38 36  1  0  0  0  0
 39 38  1  0  0  0  0
 40 39  1  0  0  0  0
 41 39  2  0  0  0  0
 42 40  2  0  0  0  0
 43 41  1  0  0  0  0
 44 43  2  0  0  0  0
 44 42  1  0  0  0  0
 45 44  1  0  0  0  0
 46 45  3  0  0  0  0
 47 48  1  0  0  0  0
 49 48  1  0  0  0  0
 49 50  1  0  0  0  0
 50 51  1  0  0  0  0
 52 51  1  0  0  0  0
M  END
>  <REMARK>
 VINA RESULT:    -4.025      2.907      6.806
 INTER + INTRA:         -14.417
 INTER:                  -7.436
 INTRA:                  -6.980
 UNBOUND:                -6.980
 SMILES CC(=O)N[C@@H]1[C@@H](O)C[C@](O)(C(=O)O)O[C@H]1C(O)[C@H](O)CNC(=O)OCc1cn(Cc2ccc(C#N)cc2)nn1
 SMILES IDX 21 1 22 2 23 3 20 5 18 6 16 7 15 8 9 9 8 10 14 11 6 12 5 13
 SMILES IDX 10 14 11 16 12 17 13 18 7 20 4 22 2 23 1 25 3 26 17 27 19 29
 SMILES IDX 24 31 25 32 26 33 27 34 39 35 28 36 38 37 29 38 30 39 31 40
 SMILES IDX 37 41 32 42 36 43 33 44 34 45 35 46
 H PARENT 21 4 10 15 13 19 7 21 4 24 17 28 19 30
 Flexibility Score: inf
  4 active torsions:
  status: ('A' for Active; 'I' for Inactive)
    1  A    between atoms: CA   and  CB  
    2  A    between atoms: CB   and  CG  
    3  A    between atoms: CG   and  CD  
    4  A    between atoms: CD   and  CE  

>  <TORSDO>
F 17

>  <BEGIN_>
RES LYS A 131

$$$$
ligand_36_pose_19_2HRL.pdbqt
 OpenBabel07062320523D

  6  5  0  0  0  0  0  0  0  0999 V2000
   33.1930   34.6630    9.2900 C   0  0  0  0  0  0  0  0  0  0  0  0
   32.0600   35.3600   10.0340 C   0  0  0  0  0  0  0  0  0  0  0  0
   30.7340   34.6550    9.9090 C   0  0  0  0  0  0  0  0  0  0  0  0
   30.3330   34.5210    8.4480 C   0  0  0  0  0  0  0  0  0  0  0  0
   28.8230   34.5460    8.3060 C   0  0  0  0  0  0  0  0  0  0  0  0
   28.1670   33.8070    9.4190 N   0  0  0  0  0  0  0  0  0  0  0  0
  1  2  1  0  0  0  0
  3  2  1  0  0  0  0
  4  3  1  0  0  0  0
  5  4  1  0  0  0  0
  5  6  1  0  0  0  0
M  END
>  <EGIN_R>
ES LYS A 135

>  <REMARK>
  4 active torsions:
  status: ('A' for Active; 'I' for Inactive)
    5  A    between atoms: CA   and  CB  
    6  A    between atoms: CB   and  CG  
    7  A    between atoms: CG   and  CD  
    8  A    between atoms: CD   and  CE  

$$$$
