ligand_83_pose_7_2HRL.pdbqt
 OpenBabel07062320523D

 56 57  0  0  1  0  0  0  0  0999 V2000
   27.6650   35.5280   12.4060 O   0  0  0  0  0  0  0  0  0  0  0  0
   27.8780   34.8260   11.2080 C   0  0  0  0  0  0  0  0  0  0  0  0
   29.1040   34.8230   10.5340 N   0  0  0  0  0  0  0  0  0  0  0  0
   29.8970   35.3880   10.9640 H   0  0  0  0  0  0  0  0  0  0  0  0
   26.9090   34.1930   10.7670 O   0  0  0  0  0  0  0  0  0  0  0  0
   29.3640   34.1130    9.3050 C   0  0  0  0  0  0  0  0  0  0  0  0
   29.8490   35.1040    8.2810 C   0  0  2  0  0  0  0  0  0  0  0  0
   28.6760   35.4950    7.4140 C   0  0  2  0  0  0  0  0  0  0  0  0
   28.4200   36.9950    7.4860 C   0  0  2  0  0  0  0  0  0  0  0  0
   29.6190   38.9570    7.8620 C   0  0  2  0  0  0  0  0  0  0  0  0
   28.3600   39.4330    8.5630 C   0  0  0  0  0  0  0  0  0  0  0  0
   29.6170   37.5850    7.7890 O   0  0  0  0  0  0  0  0  0  0  0  0
   27.8340   38.3300    9.4540 C   0  0  1  0  0  0  0  0  0  0  0  0
   27.3370   37.2300    8.5230 C   0  0  1  0  0  0  0  0  0  0  0  0
   30.7580   39.3230    8.6050 O   0  0  0  0  0  0  0  0  0  0  0  0
   31.0500   38.5170    9.0900 H   0  0  0  0  0  0  0  0  0  0  0  0
   29.7510   39.5140    6.5110 C   0  0  0  0  0  0  0  0  0  0  0  0
   29.0230   40.4490    6.1380 O   0  0  0  0  0  0  0  0  0  0  0  0
   30.6910   39.0040    5.6340 O   0  0  0  0  0  0  0  0  0  0  0  0
   30.8440   39.4280    4.7380 H   0  0  0  0  0  0  0  0  0  0  0  0
   28.8110   37.7580   10.2520 O   0  0  0  0  0  0  0  0  0  0  0  0
   28.5130   37.7160   11.1820 H   0  0  0  0  0  0  0  0  0  0  0  0
   26.1000   37.6470    7.9270 N   0  0  0  0  0  0  0  0  0  0  0  0
   24.8890   37.0070    8.2560 C   0  0  0  0  0  0  0  0  0  0  0  0
   26.0310   38.4340    7.2280 H   0  0  0  0  0  0  0  0  0  0  0  0
   23.6040   37.4460    7.6320 C   0  0  0  0  0  0  0  0  0  0  0  0
   24.8630   36.0560    9.0800 O   0  0  0  0  0  0  0  0  0  0  0  0
   27.5450   34.8760    7.9080 O   0  0  0  0  0  0  0  0  0  0  0  0
   27.6200   33.8940    7.9270 H   0  0  0  0  0  0  0  0  0  0  0  0
   30.9110   34.6100    7.5290 O   0  0  0  0  0  0  0  0  0  0  0  0
   31.6550   34.4470    8.1630 H   0  0  0  0  0  0  0  0  0  0  0  0
   28.7250   35.6100   13.3730 C   0  0  0  0  0  0  0  0  0  0  0  0
   28.8370   34.3810   14.1520 C   0  0  0  0  0  0  0  0  0  0  0  0
   27.8670   33.8470   14.9640 C   0  0  0  0  0  0  0  0  0  0  0  0
   29.9110   33.5770   14.1970 N   0  0  0  0  0  0  0  0  0  0  0  0
   28.3850   32.7250   15.4830 N   0  0  0  0  0  0  0  0  0  0  0  0
   29.6020   32.5830   15.0140 N   0  0  0  0  0  0  0  0  0  0  0  0
   27.6680   31.8390   16.4160 C   0  0  0  0  0  0  0  0  0  0  0  0
   28.6450   30.9100   17.0990 C   0  0  2  0  0  0  0  0  0  0  0  0
   28.8410   29.8440   16.1930 O   0  0  0  0  0  0  0  0  0  0  0  0
   28.6330   28.9770   16.5870 H   0  0  0  0  0  0  0  0  0  0  0  0
   28.0520   30.4240   18.3830 C   0  0  0  0  0  0  0  0  0  0  0  0
   29.1480   30.1270   19.3080 N   0  0  0  0  0  0  0  0  0  0  0  0
   30.2820   30.8490   19.4640 C   0  0  0  0  0  0  0  0  0  0  0  0
   29.1650   29.0990   20.1390 C   0  0  0  0  0  0  0  0  0  0  0  0
   31.0230   30.2410   20.4250 C   0  0  0  0  0  0  0  0  0  0  0  0
   30.3350   29.1760   20.8320 N   0  0  0  0  0  0  0  0  0  0  0  0
   28.1720   28.0750   20.3120 N   0  0  0  0  0  0  0  0  0  0  0  0
   27.5750   27.8820   21.3840 O   0  0  0  0  0  0  0  0  0  0  0  0
   27.8580   27.2620   19.2430 O   0  0  0  0  0  0  0  0  0  0  0  0
   29.8670   25.5550   16.9770 C   0  0  0  0  0  0  0  0  0  0  0  0
   28.3450   25.7220   17.0260 C   0  0  0  0  0  0  0  0  0  0  0  0
   27.6000   24.4110   16.8250 C   0  0  0  0  0  0  0  0  0  0  0  0
   26.7080   24.0820   17.9890 C   0  0  0  0  0  0  0  0  0  0  0  0
   25.6930   23.0240   17.5700 C   0  0  0  0  0  0  0  0  0  0  0  0
   24.4580   23.6630   17.0580 N   0  0  0  0  0  0  0  0  0  0  0  0
  1 32  1  0  0  0  0
  2  1  1  0  0  0  0
  3  4  1  0  0  0  0
  3  2  1  0  0  0  0
  5  2  2  0  0  0  0
  6  3  1  0  0  0  0
  7  6  1  1  0  0  0
  8 28  1  1  0  0  0
  8  7  1  0  0  0  0
  9  8  1  1  0  0  0
  9 12  1  0  0  0  0
  9 14  1  0  0  0  0
 10 17  1  6  0  0  0
 10 11  1  0  0  0  0
 10 15  1  0  0  0  0
 11 13  1  0  0  0  0
 12 10  1  0  0  0  0
 13 21  1  1  0  0  0
 14 23  1  6  0  0  0
 14 13  1  0  0  0  0
 15 16  1  0  0  0  0
 18 17  2  0  0  0  0
 19 17  1  0  0  0  0
 20 19  1  0  0  0  0
 21 22  1  0  0  0  0
 23 24  1  0  0  0  0
 24 27  2  0  0  0  0
 25 23  1  0  0  0  0
 26 24  1  0  0  0  0
 28 29  1  0  0  0  0
 30 31  1  0  0  0  0
 30  7  1  0  0  0  0
 32 33  1  0  0  0  0
 33 35  1  0  0  0  0
 33 34  2  0  0  0  0
 34 36  1  0  0  0  0
 35 37  2  0  0  0  0
 36 38  1  0  0  0  0
 37 36  1  0  0  0  0
 39 38  1  6  0  0  0
 39 42  1  0  0  0  0
 40 41  1  0  0  0  0
 40 39  1  0  0  0  0
 42 43  1  0  0  0  0
 43 44  1  0  0  0  0
 43 45  1  0  0  0  0
 44 46  2  0  0  0  0
 45 48  1  0  0  0  0
 45 47  2  0  0  0  0
 46 47  1  0  0  0  0
 48 49  2  0  0  0  0
 50 48  2  0  0  0  0
 51 52  1  0  0  0  0
 53 52  1  0  0  0  0
 53 54  1  0  0  0  0
 55 54  1  0  0  0  0
 56 55  1  0  0  0  0
M  END
>  <REMARK>
 VINA RESULT:    -3.685      4.702     11.832
 INTER + INTRA:         -15.794
 INTER:                 -10.642
 INTRA:                  -5.151
 UNBOUND:                -8.446
 SMILES CC(=O)N[C@@H]1[C@@H](O)C[C@](O)(C(=O)O)O[C@H]1C(O)[C@H](O)CNC(=O)OCc1cn(CC(O)Cn2ccnc2[N+](=O)[O-])nn1
 SMILES IDX 24 1 22 2 21 3 23 5 20 6 18 7 16 8 15 9 9 10 8 11 14 12 6 13
 SMILES IDX 5 14 10 15 11 17 12 18 13 19 7 21 4 23 2 24 1 26 3 27 17 28
 SMILES IDX 19 30 25 32 26 33 27 34 42 35 28 36 41 37 29 38 30 39 31 40
 SMILES IDX 32 42 33 43 34 44 37 45 35 46 36 47 38 48 39 49 40 50
 H PARENT 21 4 10 16 13 20 7 22 4 25 17 29 19 31 31 41
 Flexibility Score: inf
  4 active torsions:
  status: ('A' for Active; 'I' for Inactive)
    1  A    between atoms: CA   and  CB  
    2  A    between atoms: CB   and  CG  
    3  A    between atoms: CG   and  CD  
    4  A    between atoms: CD   and  CE  

>  <TORSDO>
F 20

>  <BEGIN_>
RES LYS A 131

$$$$
ligand_83_pose_7_2HRL.pdbqt
 OpenBabel07062320523D

  6  5  0  0  0  0  0  0  0  0999 V2000
   33.1930   34.6630    9.2900 C   0  0  0  0  0  0  0  0  0  0  0  0
   32.0600   35.3600   10.0340 C   0  0  0  0  0  0  0  0  0  0  0  0
   32.5350   36.3030   11.1090 C   0  0  0  0  0  0  0  0  0  0  0  0
   32.4680   35.6360   12.4750 C   0  0  0  0  0  0  0  0  0  0  0  0
   32.0960   36.6470   13.5430 C   0  0  0  0  0  0  0  0  0  0  0  0
   31.4810   37.8620   12.9410 N   0  0  0  0  0  0  0  0  0  0  0  0
  1  2  1  0  0  0  0
  2  3  1  0  0  0  0
  3  4  1  0  0  0  0
  4  5  1  0  0  0  0
  6  5  1  0  0  0  0
M  END
>  <EGIN_R>
ES LYS A 135

>  <REMARK>
  4 active torsions:
  status: ('A' for Active; 'I' for Inactive)
    5  A    between atoms: CA   and  CB  
    6  A    between atoms: CB   and  CG  
    7  A    between atoms: CG   and  CD  
    8  A    between atoms: CD   and  CE  

$$$$
