ligand_19_pose_16_2HRL.pdbqt
 OpenBabel07062320523D

 49 49  0  0  1  0  0  0  0  0999 V2000
   30.1660   35.4260   14.1660 N   0  0  0  0  0  0  0  0  0  0  0  0
   30.0590   34.8890   12.8640 C   0  0  0  0  0  0  0  0  0  0  0  0
   31.0710   34.7150   12.1690 O   0  0  0  0  0  0  0  0  0  0  0  0
   29.2540   35.5450   14.6880 H   0  0  0  0  0  0  0  0  0  0  0  0
   31.4070   35.8080   14.8060 C   0  0  0  0  0  0  0  0  0  0  0  0
   32.0590   34.6610   15.4800 C   0  0  2  0  0  0  0  0  0  0  0  0
   31.2340   33.3990   15.6010 C   0  0  2  0  0  0  0  0  0  0  0  0
   31.1100   32.8520   16.9920 C   0  0  2  0  0  0  0  0  0  0  0  0
   29.2790   31.5390   16.4150 C   0  0  2  0  0  0  0  0  0  0  0  0
   28.3830   32.6910   16.6600 C   0  0  0  0  0  0  0  0  0  0  0  0
   30.5160   31.5920   17.0010 O   0  0  0  0  0  0  0  0  0  0  0  0
   28.8910   33.7590   17.5580 C   0  0  1  0  0  0  0  0  0  0  0  0
   30.3210   33.6680   17.9650 C   0  0  1  0  0  0  0  0  0  0  0  0
   29.5060   31.3350   15.0320 O   0  0  0  0  0  0  0  0  0  0  0  0
   30.3670   31.7230   14.7480 H   0  0  0  0  0  0  0  0  0  0  0  0
   28.6420   30.2740   16.8790 C   0  0  0  0  0  0  0  0  0  0  0  0
   28.0710   29.4830   16.0540 O   0  0  0  0  0  0  0  0  0  0  0  0
   28.6190   29.8630   18.2030 O   0  0  0  0  0  0  0  0  0  0  0  0
   29.2960   30.2980   18.8400 H   0  0  0  0  0  0  0  0  0  0  0  0
   28.7010   34.9890   16.9200 O   0  0  0  0  0  0  0  0  0  0  0  0
   29.5720   35.3390   16.5570 H   0  0  0  0  0  0  0  0  0  0  0  0
   30.5300   33.0800   19.2680 N   0  0  0  0  0  0  0  0  0  0  0  0
   31.5920   33.4310   20.1060 C   0  0  0  0  0  0  0  0  0  0  0  0
   29.8460   32.3630   19.5740 H   0  0  0  0  0  0  0  0  0  0  0  0
   31.8300   32.8450   21.4500 C   0  0  0  0  0  0  0  0  0  0  0  0
   32.3860   34.2950   19.6870 O   0  0  0  0  0  0  0  0  0  0  0  0
   32.0750   32.4190   14.9460 O   0  0  0  0  0  0  0  0  0  0  0  0
   32.8700   32.3820   15.5610 H   0  0  0  0  0  0  0  0  0  0  0  0
   32.8400   34.9090   16.5680 O   0  0  0  0  0  0  0  0  0  0  0  0
   33.3410   35.7370   16.5080 H   0  0  0  0  0  0  0  0  0  0  0  0
   28.7940   34.5400   12.3390 O   0  0  0  0  0  0  0  0  0  0  0  0
   27.7300   35.4910   12.3640 C   0  0  0  0  0  0  0  0  0  0  0  0
   26.9070   35.2180   13.5590 C   0  0  0  0  0  0  0  0  0  0  0  0
   25.9000   34.2720   13.6530 C   0  0  0  0  0  0  0  0  0  0  0  0
   26.9650   35.8200   14.7550 N   0  0  0  0  0  0  0  0  0  0  0  0
   25.3930   34.3400   14.8930 N   0  0  0  0  0  0  0  0  0  0  0  0
   26.0510   35.2780   15.5350 N   0  0  0  0  0  0  0  0  0  0  0  0
   24.3200   33.5100   15.3910 C   0  0  0  0  0  0  0  0  0  0  0  0
   23.6610   32.8260   14.2160 C   0  0  0  0  0  0  0  0  0  0  0  0
   23.3160   31.5170   14.5640 O   0  0  0  0  0  0  0  0  0  0  0  0
   24.0860   30.4510   14.2010 C   0  0  0  0  0  0  0  0  0  0  0  0
   24.9820   30.0140   14.9460 O   0  0  0  0  0  0  0  0  0  0  0  0
   23.8690   29.7710   12.8770 C   0  0  0  0  0  0  0  0  0  0  0  0
   29.8670   25.5550   16.9770 C   0  0  0  0  0  0  0  0  0  0  0  0
   28.3450   25.7220   17.0260 C   0  0  0  0  0  0  0  0  0  0  0  0
   27.6000   24.4090   16.8430 C   0  0  0  0  0  0  0  0  0  0  0  0
   26.5370   24.2100   17.8870 C   0  0  0  0  0  0  0  0  0  0  0  0
   25.1850   24.0180   17.2070 C   0  0  0  0  0  0  0  0  0  0  0  0
   24.3920   25.2680   17.2690 N   0  0  0  0  0  0  0  0  0  0  0  0
  1  4  1  0  0  0  0
  1  5  1  0  0  0  0
  2  1  1  0  0  0  0
  3  2  2  0  0  0  0
  6  5  1  1  0  0  0
  6  7  1  0  0  0  0
  6 29  1  0  0  0  0
  7 27  1  6  0  0  0
  8  7  1  6  0  0  0
  8 11  1  0  0  0  0
  8 13  1  0  0  0  0
  9 14  1  6  0  0  0
  9 10  1  0  0  0  0
  9 16  1  0  0  0  0
  9 11  1  0  0  0  0
 10 12  1  0  0  0  0
 12 20  1  6  0  0  0
 12 13  1  0  0  0  0
 13 22  1  1  0  0  0
 15 14  1  0  0  0  0
 16 18  1  0  0  0  0
 17 16  2  0  0  0  0
 18 19  1  0  0  0  0
 21 20  1  0  0  0  0
 22 24  1  0  0  0  0
 22 23  1  0  0  0  0
 23 25  1  0  0  0  0
 26 23  2  0  0  0  0
 27 28  1  0  0  0  0
 30 29  1  0  0  0  0
 31 32  1  0  0  0  0
 31  2  1  0  0  0  0
 32 33  1  0  0  0  0
 33 34  2  0  0  0  0
 33 35  1  0  0  0  0
 34 36  1  0  0  0  0
 35 37  2  0  0  0  0
 36 38  1  0  0  0  0
 36 37  1  0  0  0  0
 39 40  1  0  0  0  0
 39 38  1  0  0  0  0
 41 40  1  0  0  0  0
 41 42  2  0  0  0  0
 43 41  1  0  0  0  0
 44 45  1  0  0  0  0
 46 45  1  0  0  0  0
 46 47  1  0  0  0  0
 48 49  1  0  0  0  0
 48 47  1  0  0  0  0
M  END
>  <REMARK>
 VINA RESULT:    -3.954      2.099      3.171
 INTER + INTRA:         -13.596
 INTER:                  -7.538
 INTRA:                  -6.059
 UNBOUND:                -6.059
 SMILES CC(=O)N[C@@H]1[C@@H](O)C[C@](O)(C(=O)O)O[C@H]1C(O)[C@H](O)CNC(=O)OCc1cn(CCOC(C)=O)nn1
 SMILES IDX 21 1 22 2 23 3 20 5 18 6 16 7 15 8 9 9 8 10 14 11 6 12 5 13
 SMILES IDX 10 14 11 16 12 17 13 18 7 20 4 22 2 23 1 25 3 26 17 27 19 29
 SMILES IDX 24 31 25 32 26 33 27 34 36 35 28 36 35 37 29 38 30 39 31 40
 SMILES IDX 32 41 34 42 33 43
 H PARENT 21 4 10 15 13 19 7 21 4 24 17 28 19 30
 Flexibility Score: inf
  4 active torsions:
  status: ('A' for Active; 'I' for Inactive)
    1  A    between atoms: CA   and  CB  
    2  A    between atoms: CB   and  CG  
    3  A    between atoms: CG   and  CD  
    4  A    between atoms: CD   and  CE  

>  <TORSDO>
F 18

>  <BEGIN_>
RES LYS A 131

$$$$
ligand_19_pose_16_2HRL.pdbqt
 OpenBabel07062320523D

  6  5  0  0  0  0  0  0  0  0999 V2000
   33.1930   34.6630    9.2900 C   0  0  0  0  0  0  0  0  0  0  0  0
   32.0600   35.3600   10.0340 C   0  0  0  0  0  0  0  0  0  0  0  0
   30.8640   35.6580    9.1680 C   0  0  0  0  0  0  0  0  0  0  0  0
   30.3430   34.3860    8.5160 C   0  0  0  0  0  0  0  0  0  0  0  0
   28.9510   34.0590    9.0230 C   0  0  0  0  0  0  0  0  0  0  0  0
   27.9090   34.7420    8.2080 N   0  0  0  0  0  0  0  0  0  0  0  0
  1  2  1  0  0  0  0
  3  2  1  0  0  0  0
  4  5  1  0  0  0  0
  4  3  1  0  0  0  0
  6  5  1  0  0  0  0
M  END
>  <EGIN_R>
ES LYS A 135

>  <REMARK>
  4 active torsions:
  status: ('A' for Active; 'I' for Inactive)
    5  A    between atoms: CA   and  CB  
    6  A    between atoms: CB   and  CG  
    7  A    between atoms: CG   and  CD  
    8  A    between atoms: CD   and  CE  

$$$$
