ligand_91_pose_7_2HRL.pdbqt
 OpenBabel07062320523D

 57 60  0  0  1  0  0  0  0  0999 V2000
   32.1850   41.2070    8.1050 C   0  0  0  0  0  0  0  0  0  0  0  0
   33.5620   41.6810    7.7220 C   0  0  2  0  0  0  0  0  0  0  0  0
   34.4800   40.5050    7.8480 C   0  0  2  0  0  0  0  0  0  0  0  0
   35.4610   40.3620    6.6940 C   0  0  2  0  0  0  0  0  0  0  0  0
   36.3670   38.7350    5.4040 C   0  0  2  0  0  0  0  0  0  0  0  0
   37.8040   39.1330    5.6180 C   0  0  0  0  0  0  0  0  0  0  0  0
   35.5760   39.0190    6.4690 O   0  0  0  0  0  0  0  0  0  0  0  0
   37.9770   40.1130    6.7410 C   0  0  1  0  0  0  0  0  0  0  0  0
   36.7820   40.9690    6.9950 C   0  0  1  0  0  0  0  0  0  0  0  0
   36.3230   37.3060    5.2830 O   0  0  0  0  0  0  0  0  0  0  0  0
   35.3910   36.9980    5.3930 H   0  0  0  0  0  0  0  0  0  0  0  0
   35.8870   39.2200    4.0870 C   0  0  0  0  0  0  0  0  0  0  0  0
   34.8670   38.7360    3.5290 O   0  0  0  0  0  0  0  0  0  0  0  0
   36.5350   40.2450    3.3790 O   0  0  0  0  0  0  0  0  0  0  0  0
   37.5410   40.2390    3.3140 H   0  0  0  0  0  0  0  0  0  0  0  0
   38.3470   39.4100    7.8920 O   0  0  0  0  0  0  0  0  0  0  0  0
   38.6720   38.5020    7.6700 H   0  0  0  0  0  0  0  0  0  0  0  0
   36.9940   42.2720    6.3550 N   0  0  0  0  0  0  0  0  0  0  0  0
   36.9750   43.4950    7.0810 C   0  0  0  0  0  0  0  0  0  0  0  0
   37.1710   42.3560    5.3290 H   0  0  0  0  0  0  0  0  0  0  0  0
   37.1960   44.8140    6.4110 C   0  0  0  0  0  0  0  0  0  0  0  0
   36.7670   43.4850    8.3220 O   0  0  0  0  0  0  0  0  0  0  0  0
   33.7270   39.3440    7.9150 O   0  0  0  0  0  0  0  0  0  0  0  0
   32.7760   39.6050    7.9910 H   0  0  0  0  0  0  0  0  0  0  0  0
   33.9330   42.7520    8.5000 O   0  0  0  0  0  0  0  0  0  0  0  0
   33.9470   43.5650    7.9110 H   0  0  0  0  0  0  0  0  0  0  0  0
   31.1670   41.3620    7.1250 N   0  0  0  0  0  0  0  0  0  0  0  0
   31.0390   40.5730    5.9630 C   0  0  0  0  0  0  0  0  0  0  0  0
   30.4060   42.1250    7.2220 H   0  0  0  0  0  0  0  0  0  0  0  0
   31.8450   39.6580    5.6990 O   0  0  0  0  0  0  0  0  0  0  0  0
   29.9990   40.7710    5.0410 O   0  0  0  0  0  0  0  0  0  0  0  0
   28.6400   40.7880    5.4780 C   0  0  0  0  0  0  0  0  0  0  0  0
   28.2150   39.3820    5.6750 C   0  0  0  0  0  0  0  0  0  0  0  0
   27.9230   38.7710    6.8770 C   0  0  0  0  0  0  0  0  0  0  0  0
   28.0240   38.4090    4.7510 N   0  0  0  0  0  0  0  0  0  0  0  0
   27.5730   37.4910    6.6660 N   0  0  0  0  0  0  0  0  0  0  0  0
   27.6410   37.2900    5.3690 N   0  0  0  0  0  0  0  0  0  0  0  0
   27.2000   36.5300    7.6310 C   0  0  0  0  0  0  0  0  0  0  0  0
   28.1460   35.6340    8.1370 C   0  0  0  0  0  0  0  0  0  0  0  0
   25.9050   36.4380    8.1120 C   0  0  0  0  0  0  0  0  0  0  0  0
   29.4520   35.6750    7.6980 C   0  0  0  0  0  0  0  0  0  0  0  0
   27.8180   34.7020    9.0700 C   0  0  0  0  0  0  0  0  0  0  0  0
   25.5930   35.4850    9.0580 C   0  0  0  0  0  0  0  0  0  0  0  0
   24.9760   37.3160    7.6130 C   0  0  0  0  0  0  0  0  0  0  0  0
   30.4220   34.8140    8.1650 C   0  0  0  0  0  0  0  0  0  0  0  0
   28.7860   33.8270    9.5510 C   0  0  0  0  0  0  0  0  0  0  0  0
   26.5470   34.6440    9.5130 N   0  0  0  0  0  0  0  0  0  0  0  0
   24.2950   35.4300    9.5050 C   0  0  0  0  0  0  0  0  0  0  0  0
   23.6660   37.2340    8.0870 C   0  0  0  0  0  0  0  0  0  0  0  0
   30.0950   33.8510    9.1260 C   0  0  0  0  0  0  0  0  0  0  0  0
   23.3110   36.2960    9.0320 C   0  0  0  0  0  0  0  0  0  0  0  0
   29.8670   25.5550   16.9770 C   0  0  0  0  0  0  0  0  0  0  0  0
   28.3450   25.7220   17.0260 C   0  0  0  0  0  0  0  0  0  0  0  0
   27.6010   24.4030   16.8870 C   0  0  0  0  0  0  0  0  0  0  0  0
   26.5020   24.2620   17.9030 C   0  0  0  0  0  0  0  0  0  0  0  0
   25.1500   24.4430   17.2200 C   0  0  0  0  0  0  0  0  0  0  0  0
   24.5480   25.7430   17.5970 N   0  0  0  0  0  0  0  0  0  0  0  0
  2  3  1  0  0  0  0
  2  1  1  1  0  0  0
  2 25  1  0  0  0  0
  3 23  1  6  0  0  0
  4  9  1  0  0  0  0
  4  3  1  1  0  0  0
  5 12  1  6  0  0  0
  5  6  1  0  0  0  0
  5  7  1  0  0  0  0
  6  8  1  0  0  0  0
  7  4  1  0  0  0  0
  8  9  1  0  0  0  0
  8 16  1  1  0  0  0
  9 18  1  6  0  0  0
 10 11  1  0  0  0  0
 10  5  1  0  0  0  0
 13 12  2  0  0  0  0
 14 12  1  0  0  0  0
 15 14  1  0  0  0  0
 17 16  1  0  0  0  0
 18 19  1  0  0  0  0
 19 22  2  0  0  0  0
 20 18  1  0  0  0  0
 21 19  1  0  0  0  0
 23 24  1  0  0  0  0
 26 25  1  0  0  0  0
 27 29  1  0  0  0  0
 27  1  1  0  0  0  0
 28 27  1  0  0  0  0
 30 28  2  0  0  0  0
 31 32  1  0  0  0  0
 31 28  1  0  0  0  0
 32 33  1  0  0  0  0
 33 34  2  0  0  0  0
 35 37  2  0  0  0  0
 35 33  1  0  0  0  0
 36 34  1  0  0  0  0
 36 38  1  0  0  0  0
 37 36  1  0  0  0  0
 38 40  2  0  0  0  0
 38 39  1  0  0  0  0
 39 42  1  0  0  0  0
 40 43  1  0  0  0  0
 41 39  2  0  0  0  0
 41 45  1  0  0  0  0
 42 47  1  0  0  0  0
 42 46  2  0  0  0  0
 43 48  1  0  0  0  0
 43 47  2  0  0  0  0
 44 49  2  0  0  0  0
 44 40  1  0  0  0  0
 45 50  2  0  0  0  0
 49 51  1  0  0  0  0
 50 46  1  0  0  0  0
 51 48  2  0  0  0  0
 52 53  1  0  0  0  0
 54 53  1  0  0  0  0
 54 55  1  0  0  0  0
 56 57  1  0  0  0  0
 56 55  1  0  0  0  0
M  END
>  <REMARK>
 VINA RESULT:    -5.449      4.094      8.200
 INTER + INTRA:         -15.514
 INTER:                 -11.799
 INTRA:                  -3.715
 UNBOUND:                -6.084
 SMILES CC(=O)N[C@@H]1[C@@H](O)C[C@](O)(C(=O)O)O[C@H]1C(O)[C@H](O)CNC(=O)OCc1cn(-c2c3ccccc3nc3ccccc23)nn1
 SMILES IDX 20 1 18 2 16 3 15 4 9 5 8 6 14 7 6 8 5 9 10 10 11 12 12 13
 SMILES IDX 13 14 7 16 4 18 2 19 1 21 3 22 17 23 19 25 21 27 22 28 23 30
 SMILES IDX 24 31 25 32 26 33 27 34 44 35 28 36 43 37 29 38 30 39 42 40
 SMILES IDX 31 41 35 42 37 43 41 44 32 45 34 46 36 47 38 48 40 49 33 50
 SMILES IDX 39 51
 H PARENT 10 11 13 15 7 17 4 20 17 24 19 26 21 29
 Flexibility Score: inf
  4 active torsions:
  status: ('A' for Active; 'I' for Inactive)
    1  A    between atoms: CA   and  CB  
    2  A    between atoms: CB   and  CG  
    3  A    between atoms: CG   and  CD  
    4  A    between atoms: CD   and  CE  

>  <TORSDO>
F 15

>  <BEGIN_>
RES LYS A 131

$$$$
ligand_91_pose_7_2HRL.pdbqt
 OpenBabel07062320523D

  6  5  0  0  0  0  0  0  0  0999 V2000
   33.1930   34.6630    9.2900 C   0  0  0  0  0  0  0  0  0  0  0  0
   32.0600   35.3600   10.0340 C   0  0  0  0  0  0  0  0  0  0  0  0
   32.5340   36.2650   11.1420 C   0  0  0  0  0  0  0  0  0  0  0  0
   31.5020   37.3440   11.4320 C   0  0  0  0  0  0  0  0  0  0  0  0
   30.8540   37.1120   12.7830 C   0  0  0  0  0  0  0  0  0  0  0  0
   29.7160   36.1580   12.6760 N   0  0  0  0  0  0  0  0  0  0  0  0
  1  2  1  0  0  0  0
  2  3  1  0  0  0  0
  3  4  1  0  0  0  0
  4  5  1  0  0  0  0
  6  5  1  0  0  0  0
M  END
>  <EGIN_R>
ES LYS A 135

>  <REMARK>
  4 active torsions:
  status: ('A' for Active; 'I' for Inactive)
    5  A    between atoms: CA   and  CB  
    6  A    between atoms: CB   and  CG  
    7  A    between atoms: CG   and  CD  
    8  A    between atoms: CD   and  CE  

$$$$
