ligand_47_pose_9_2HRL.pdbqt
 OpenBabel07062320523D

 62 64  0  0  1  0  0  0  0  0999 V2000
   29.1460   32.7010   15.0520 N   0  0  0  0  0  0  0  0  0  0  0  0
   30.5160   33.0580   15.1520 C   0  0  0  0  0  0  0  0  0  0  0  0
   31.2040   32.6330   16.1260 O   0  0  0  0  0  0  0  0  0  0  0  0
   28.6400   33.0980   14.2070 H   0  0  0  0  0  0  0  0  0  0  0  0
   28.4690   31.8620   16.0120 C   0  0  0  0  0  0  0  0  0  0  0  0
   27.4850   32.6450   16.8820 C   0  0  2  0  0  0  0  0  0  0  0  0
   26.2190   31.8440   16.9090 C   0  0  2  0  0  0  0  0  0  0  0  0
   25.6450   31.5880   15.5450 C   0  0  2  0  0  0  0  0  0  0  0  0
   24.2640   32.6060   13.9860 C   0  0  2  0  0  0  0  0  0  0  0  0
   24.3710   31.3150   13.2150 C   0  0  0  0  0  0  0  0  0  0  0  0
   25.1700   32.7480   15.0000 O   0  0  0  0  0  0  0  0  0  0  0  0
   24.3910   30.1060   14.0870 C   0  0  1  0  0  0  0  0  0  0  0  0
   24.5570   30.5390   15.5430 C   0  0  1  0  0  0  0  0  0  0  0  0
   22.9530   32.7070   14.4620 O   0  0  0  0  0  0  0  0  0  0  0  0
   22.7920   33.5970   14.8760 H   0  0  0  0  0  0  0  0  0  0  0  0
   24.4790   33.7080   13.0160 C   0  0  0  0  0  0  0  0  0  0  0  0
   23.6390   34.6360   12.9460 O   0  0  0  0  0  0  0  0  0  0  0  0
   25.5800   33.7430   12.1870 O   0  0  0  0  0  0  0  0  0  0  0  0
   25.4700   33.5310   11.1860 H   0  0  0  0  0  0  0  0  0  0  0  0
   23.3390   29.2420   13.9120 O   0  0  0  0  0  0  0  0  0  0  0  0
   22.5470   29.7160   13.5490 H   0  0  0  0  0  0  0  0  0  0  0  0
   24.9310   29.3920   16.3580 N   0  0  0  0  0  0  0  0  0  0  0  0
   23.9230   28.7360   17.1030 C   0  0  0  0  0  0  0  0  0  0  0  0
   25.9160   29.0870   16.3740 H   0  0  0  0  0  0  0  0  0  0  0  0
   24.2450   27.5660   17.9480 C   0  0  0  0  0  0  0  0  0  0  0  0
   22.7340   29.1380   17.0580 O   0  0  0  0  0  0  0  0  0  0  0  0
   25.3170   32.3910   17.7960 O   0  0  0  0  0  0  0  0  0  0  0  0
   24.3740   32.1150   17.6140 H   0  0  0  0  0  0  0  0  0  0  0  0
   27.2900   33.8740   16.2280 O   0  0  0  0  0  0  0  0  0  0  0  0
   27.6910   34.5520   16.8490 H   0  0  0  0  0  0  0  0  0  0  0  0
   31.1200   33.8620   14.2070 O   0  0  0  0  0  0  0  0  0  0  0  0
   30.8610   35.2710   14.1470 C   0  0  0  0  0  0  0  0  0  0  0  0
   29.6740   35.5490   13.3090 C   0  0  0  0  0  0  0  0  0  0  0  0
   29.6140   36.5060   12.2840 C   0  0  0  0  0  0  0  0  0  0  0  0
   28.4540   35.0010   13.3180 N   0  0  0  0  0  0  0  0  0  0  0  0
   28.4040   36.5040   11.7250 N   0  0  0  0  0  0  0  0  0  0  0  0
   27.7000   35.5580   12.3860 N   0  0  0  0  0  0  0  0  0  0  0  0
   27.8140   37.2460   10.6470 C   0  0  0  0  0  0  0  0  0  0  0  0
   26.3300   37.1650   10.5140 C   0  0  1  0  0  0  0  0  0  0  0  0
   25.6550   37.8920   11.5900 C   0  0  0  0  0  0  0  0  0  0  0  0
   25.4720   39.1200   11.6410 O   0  0  0  0  0  0  0  0  0  0  0  0
   25.1480   37.1760   12.6960 O   0  0  0  0  0  0  0  0  0  0  0  0
   24.3840   37.5880   13.2380 H   0  0  0  0  0  0  0  0  0  0  0  0
   25.8590   37.6040    9.1390 C   0  0  0  0  0  0  0  0  0  0  0  0
   24.5210   37.0520    8.8200 C   0  0  0  0  0  0  0  0  0  0  0  0
   24.0400   35.8980    9.4500 C   0  0  0  0  0  0  0  0  0  0  0  0
   23.6860   37.6440    7.8920 C   0  0  0  0  0  0  0  0  0  0  0  0
   22.7970   35.3850    9.1540 C   0  0  0  0  0  0  0  0  0  0  0  0
   22.4460   37.1460    7.5870 C   0  0  0  0  0  0  0  0  0  0  0  0
   21.9840   36.0150    8.2100 C   0  0  0  0  0  0  0  0  0  0  0  0
   26.7830   37.2530    8.0560 C   0  0  0  0  0  0  0  0  0  0  0  0
   27.6130   38.2660    7.5590 C   0  0  0  0  0  0  0  0  0  0  0  0
   26.8800   35.9940    7.5050 C   0  0  0  0  0  0  0  0  0  0  0  0
   28.4950   37.9760    6.5440 C   0  0  0  0  0  0  0  0  0  0  0  0
   27.7610   35.7010    6.4890 C   0  0  0  0  0  0  0  0  0  0  0  0
   28.5900   36.7000    5.9890 C   0  0  0  0  0  0  0  0  0  0  0  0
   29.8670   25.5550   16.9770 C   0  0  0  0  0  0  0  0  0  0  0  0
   28.3450   25.7220   17.0260 C   0  0  0  0  0  0  0  0  0  0  0  0
   27.6020   24.3970   16.9430 C   0  0  0  0  0  0  0  0  0  0  0  0
   26.1190   24.5670   17.1220 C   0  0  0  0  0  0  0  0  0  0  0  0
   25.5270   23.2900   17.7090 C   0  0  0  0  0  0  0  0  0  0  0  0
   25.6930   23.2710   19.1820 N   0  0  0  0  0  0  0  0  0  0  0  0
  1  2  1  0  0  0  0
  1  5  1  0  0  0  0
  2  3  2  0  0  0  0
  4  1  1  0  0  0  0
  6  5  1  6  0  0  0
  6  7  1  0  0  0  0
  7 27  1  1  0  0  0
  8  7  1  1  0  0  0
  9 16  1  6  0  0  0
  9 14  1  0  0  0  0
  9 11  1  0  0  0  0
 10  9  1  0  0  0  0
 10 12  1  0  0  0  0
 11  8  1  0  0  0  0
 12 20  1  1  0  0  0
 12 13  1  0  0  0  0
 13  8  1  0  0  0  0
 13 22  1  1  0  0  0
 14 15  1  0  0  0  0
 17 16  2  0  0  0  0
 18 16  1  0  0  0  0
 19 18  1  0  0  0  0
 21 20  1  0  0  0  0
 22 24  1  0  0  0  0
 22 23  1  0  0  0  0
 23 25  1  0  0  0  0
 26 23  2  0  0  0  0
 28 27  1  0  0  0  0
 29 30  1  0  0  0  0
 29  6  1  0  0  0  0
 31  2  1  0  0  0  0
 32 31  1  0  0  0  0
 33 35  1  0  0  0  0
 33 32  1  0  0  0  0
 34 33  2  0  0  0  0
 36 34  1  0  0  0  0
 36 37  1  0  0  0  0
 37 35  2  0  0  0  0
 38 36  1  0  0  0  0
 39 38  1  6  0  0  0
 39 40  1  0  0  0  0
 40 41  2  0  0  0  0
 40 42  1  0  0  0  0
 42 43  1  0  0  0  0
 44 39  1  0  0  0  0
 45 44  1  0  0  0  0
 45 46  2  0  0  0  0
 47 45  1  0  0  0  0
 48 46  1  0  0  0  0
 49 47  2  0  0  0  0
 49 50  1  0  0  0  0
 50 48  2  0  0  0  0
 51 44  1  0  0  0  0
 52 51  1  0  0  0  0
 53 51  2  0  0  0  0
 54 52  2  0  0  0  0
 55 53  1  0  0  0  0
 56 55  2  0  0  0  0
 56 54  1  0  0  0  0
 57 58  1  0  0  0  0
 59 58  1  0  0  0  0
 59 60  1  0  0  0  0
 60 61  1  0  0  0  0
 61 62  1  0  0  0  0
M  END
>  <REMARK>
 VINA RESULT:    -5.419      2.256      3.743
 INTER + INTRA:         -17.419
 INTER:                 -10.614
 INTRA:                  -6.806
 UNBOUND:                -6.299
 SMILES CC(=O)N[C@@H]1[C@@H](O)C[C@](O)(C(=O)O)O[C@H]1C(O)[C@H](O)CNC(=O)OCc1cn(C[C@@H](C(=O)O)C(c2ccccc2)c2ccccc2)nn1
 SMILES IDX 21 1 22 2 23 3 20 5 18 6 16 7 15 8 9 9 8 10 14 11 6 12 5 13
 SMILES IDX 10 14 11 16 12 17 13 18 7 20 4 22 2 23 1 25 3 26 17 27 19 29
 SMILES IDX 24 31 25 32 26 33 27 34 48 35 28 36 47 37 29 38 30 39 31 40
 SMILES IDX 32 41 33 42 34 44 35 45 36 46 40 47 37 48 39 49 38 50 41 51
 SMILES IDX 42 52 46 53 43 54 45 55 44 56
 H PARENT 21 4 10 15 13 19 7 21 4 24 17 28 19 30 33 43
 Flexibility Score: inf
  4 active torsions:
  status: ('A' for Active; 'I' for Inactive)
    1  A    between atoms: CA   and  CB  
    2  A    between atoms: CB   and  CG  
    3  A    between atoms: CG   and  CD  
    4  A    between atoms: CD   and  CE  

>  <TORSDO>
F 21

>  <BEGIN_>
RES LYS A 131

$$$$
ligand_47_pose_9_2HRL.pdbqt
 OpenBabel07062320523D

  6  5  0  0  0  0  0  0  0  0999 V2000
   33.1930   34.6630    9.2900 C   0  0  0  0  0  0  0  0  0  0  0  0
   32.0600   35.3600   10.0340 C   0  0  0  0  0  0  0  0  0  0  0  0
   30.8980   35.7320    9.1500 C   0  0  0  0  0  0  0  0  0  0  0  0
   30.2130   34.4850    8.6110 C   0  0  0  0  0  0  0  0  0  0  0  0
   29.5430   33.7170    9.7350 C   0  0  0  0  0  0  0  0  0  0  0  0
   28.0670   33.6690    9.5460 N   0  0  0  0  0  0  0  0  0  0  0  0
  1  2  1  0  0  0  0
  3  2  1  0  0  0  0
  4  3  1  0  0  0  0
  4  5  1  0  0  0  0
  6  5  1  0  0  0  0
M  END
>  <EGIN_R>
ES LYS A 135

>  <REMARK>
  4 active torsions:
  status: ('A' for Active; 'I' for Inactive)
    5  A    between atoms: CA   and  CB  
    6  A    between atoms: CB   and  CG  
    7  A    between atoms: CG   and  CD  
    8  A    between atoms: CD   and  CE  

$$$$
