ligand_12_pose_5_2HRL.pdbqt
 OpenBabel07062320523D

 52 53  0  0  1  0  0  0  0  0999 V2000
   28.3260   31.5490   17.1110 N   0  0  0  0  0  0  0  0  0  0  0  0
   27.9420   30.7210   16.0160 C   0  0  0  0  0  0  0  0  0  0  0  0
   28.7970   30.0230   15.3900 O   0  0  0  0  0  0  0  0  0  0  0  0
   27.6030   32.1030   17.5980 H   0  0  0  0  0  0  0  0  0  0  0  0
   29.7280   31.5570   17.4760 C   0  0  0  0  0  0  0  0  0  0  0  0
   30.3650   32.9020   17.2520 C   0  0  2  0  0  0  0  0  0  0  0  0
   31.3350   32.8280   16.0920 C   0  0  2  0  0  0  0  0  0  0  0  0
   31.3380   34.0680   15.2610 C   0  0  2  0  0  0  0  0  0  0  0  0
   30.9450   34.7760   13.0760 C   0  0  2  0  0  0  0  0  0  0  0  0
   31.8000   35.9780   13.4500 C   0  0  0  0  0  0  0  0  0  0  0  0
   31.1190   33.6990   13.9380 O   0  0  0  0  0  0  0  0  0  0  0  0
   33.0590   35.4350   14.0890 C   0  0  1  0  0  0  0  0  0  0  0  0
   32.6240   34.8480   15.4230 C   0  0  1  0  0  0  0  0  0  0  0  0
   31.4160   34.3550   11.8340 O   0  0  0  0  0  0  0  0  0  0  0  0
   32.4020   34.4190   11.7690 H   0  0  0  0  0  0  0  0  0  0  0  0
   29.5360   35.1660   12.9390 C   0  0  0  0  0  0  0  0  0  0  0  0
   28.8420   34.6600   12.0220 O   0  0  0  0  0  0  0  0  0  0  0  0
   28.9070   36.0790   13.7760 O   0  0  0  0  0  0  0  0  0  0  0  0
   28.5320   36.9250   13.3570 H   0  0  0  0  0  0  0  0  0  0  0  0
   33.6550   34.4580   13.2980 O   0  0  0  0  0  0  0  0  0  0  0  0
   33.8990   34.8730   12.4140 H   0  0  0  0  0  0  0  0  0  0  0  0
   32.3930   35.9620   16.3170 N   0  0  0  0  0  0  0  0  0  0  0  0
   33.4320   36.4160   17.1730 C   0  0  0  0  0  0  0  0  0  0  0  0
   31.4800   36.4750   16.3780 H   0  0  0  0  0  0  0  0  0  0  0  0
   33.2490   37.5580   18.1110 C   0  0  0  0  0  0  0  0  0  0  0  0
   34.5600   35.8590   17.1640 O   0  0  0  0  0  0  0  0  0  0  0  0
   31.1360   31.6620   15.3940 O   0  0  0  0  0  0  0  0  0  0  0  0
   31.3040   31.8580   14.4290 H   0  0  0  0  0  0  0  0  0  0  0  0
   30.9990   33.3010   18.4230 O   0  0  0  0  0  0  0  0  0  0  0  0
   30.6790   32.7480   19.1840 H   0  0  0  0  0  0  0  0  0  0  0  0
   26.6280   30.6340   15.5780 O   0  0  0  0  0  0  0  0  0  0  0  0
   25.6270   31.5780   15.9000 C   0  0  0  0  0  0  0  0  0  0  0  0
   25.8120   32.8710   15.2050 C   0  0  0  0  0  0  0  0  0  0  0  0
   25.3090   33.3290   14.0050 C   0  0  0  0  0  0  0  0  0  0  0  0
   26.5630   33.8820   15.6750 N   0  0  0  0  0  0  0  0  0  0  0  0
   25.7620   34.5870   13.7810 N   0  0  0  0  0  0  0  0  0  0  0  0
   26.5190   34.8810   14.8210 N   0  0  0  0  0  0  0  0  0  0  0  0
   25.4720   35.4480   12.6240 C   0  0  0  0  0  0  0  0  0  0  0  0
   25.1090   34.6540   11.5410 O   0  0  0  0  0  0  0  0  0  0  0  0
   24.7240   35.3940   10.4470 C   0  0  0  0  0  0  0  0  0  0  0  0
   25.7110   35.4230    9.3490 C   0  0  0  0  0  0  0  0  0  0  0  0
   25.6640   36.4360    8.4120 C   0  0  0  0  0  0  0  0  0  0  0  0
   26.6850   34.4630    9.2410 C   0  0  0  0  0  0  0  0  0  0  0  0
   26.5910   36.4870    7.3690 C   0  0  0  0  0  0  0  0  0  0  0  0
   27.6020   34.5180    8.2030 C   0  0  0  0  0  0  0  0  0  0  0  0
   27.5640   35.5110    7.2760 C   0  0  0  0  0  0  0  0  0  0  0  0
   29.8670   25.5550   16.9770 C   0  0  0  0  0  0  0  0  0  0  0  0
   28.3450   25.7220   17.0260 C   0  0  0  0  0  0  0  0  0  0  0  0
   27.6010   24.4010   16.9030 C   0  0  0  0  0  0  0  0  0  0  0  0
   26.6290   24.1910   18.0300 C   0  0  0  0  0  0  0  0  0  0  0  0
   25.4190   25.0990   17.8350 C   0  0  0  0  0  0  0  0  0  0  0  0
   24.4960   24.9890   18.9890 N   0  0  0  0  0  0  0  0  0  0  0  0
  1  5  1  0  0  0  0
  1  4  1  0  0  0  0
  2  1  1  0  0  0  0
  3  2  2  0  0  0  0
  6  5  1  1  0  0  0
  6 29  1  0  0  0  0
  7 27  1  6  0  0  0
  7  6  1  0  0  0  0
  8 13  1  0  0  0  0
  8  7  1  1  0  0  0
  9 14  1  6  0  0  0
  9 10  1  0  0  0  0
  9 11  1  0  0  0  0
 10 12  1  0  0  0  0
 11  8  1  0  0  0  0
 12 20  1  6  0  0  0
 12 13  1  0  0  0  0
 13 22  1  1  0  0  0
 15 14  1  0  0  0  0
 16  9  1  0  0  0  0
 16 18  1  0  0  0  0
 17 16  2  0  0  0  0
 19 18  1  0  0  0  0
 21 20  1  0  0  0  0
 22 24  1  0  0  0  0
 22 23  1  0  0  0  0
 23 25  1  0  0  0  0
 26 23  2  0  0  0  0
 28 27  1  0  0  0  0
 29 30  1  0  0  0  0
 31 32  1  0  0  0  0
 31  2  1  0  0  0  0
 33 35  1  0  0  0  0
 33 32  1  0  0  0  0
 34 33  2  0  0  0  0
 36 34  1  0  0  0  0
 36 37  1  0  0  0  0
 37 35  2  0  0  0  0
 38 36  1  0  0  0  0
 39 38  1  0  0  0  0
 40 39  1  0  0  0  0
 41 40  1  0  0  0  0
 42 41  2  0  0  0  0
 43 41  1  0  0  0  0
 44 42  1  0  0  0  0
 45 43  2  0  0  0  0
 46 44  2  0  0  0  0
 46 45  1  0  0  0  0
 47 48  1  0  0  0  0
 49 48  1  0  0  0  0
 49 50  1  0  0  0  0
 51 50  1  0  0  0  0
 51 52  1  0  0  0  0
M  END
>  <REMARK>
 VINA RESULT:    -6.283      4.257      8.369
 INTER + INTRA:         -15.750
 INTER:                 -10.983
 INTRA:                  -4.768
 UNBOUND:                -3.774
 SMILES CC(=O)N[C@@H]1[C@@H](O)C[C@](O)(C(=O)O)O[C@H]1C(O)[C@H](O)CNC(=O)OCc1cn(COCc2ccccc2)nn1
 SMILES IDX 21 1 22 2 23 3 20 5 18 6 16 7 15 8 9 9 8 10 14 11 6 12 5 13
 SMILES IDX 10 14 11 16 12 17 13 18 7 20 4 22 2 23 1 25 3 26 17 27 19 29
 SMILES IDX 24 31 25 32 26 33 27 34 39 35 28 36 38 37 29 38 30 39 31 40
 SMILES IDX 32 41 33 42 37 43 34 44 36 45 35 46
 H PARENT 21 4 10 15 13 19 7 21 4 24 17 28 19 30
 Flexibility Score: inf
  4 active torsions:
  status: ('A' for Active; 'I' for Inactive)
    1  A    between atoms: CA   and  CB  
    2  A    between atoms: CB   and  CG  
    3  A    between atoms: CG   and  CD  
    4  A    between atoms: CD   and  CE  

>  <TORSDO>
F 18

>  <BEGIN_>
RES LYS A 131

$$$$
ligand_12_pose_5_2HRL.pdbqt
 OpenBabel07062320523D

  6  5  0  0  0  0  0  0  0  0999 V2000
   33.1930   34.6630    9.2900 C   0  0  0  0  0  0  0  0  0  0  0  0
   32.0600   35.3600   10.0340 C   0  0  0  0  0  0  0  0  0  0  0  0
   30.8510   35.6280    9.1760 C   0  0  0  0  0  0  0  0  0  0  0  0
   30.1750   36.9260    9.5910 C   0  0  0  0  0  0  0  0  0  0  0  0
   30.1510   37.9080    8.4360 C   0  0  0  0  0  0  0  0  0  0  0  0
   29.0520   38.8990    8.5970 N   0  0  0  0  0  0  0  0  0  0  0  0
  1  2  1  0  0  0  0
  3  4  1  0  0  0  0
  3  2  1  0  0  0  0
  5  6  1  0  0  0  0
  5  4  1  0  0  0  0
M  END
>  <EGIN_R>
ES LYS A 135

>  <REMARK>
  4 active torsions:
  status: ('A' for Active; 'I' for Inactive)
    5  A    between atoms: CA   and  CB  
    6  A    between atoms: CB   and  CG  
    7  A    between atoms: CG   and  CD  
    8  A    between atoms: CD   and  CE  

$$$$
