ligand_29_pose_3_2HRL.pdbqt
 OpenBabel07062320523D

 54 55  0  0  1  0  0  0  0  0999 V2000
   30.5930   36.3060   13.0580 N   0  0  0  0  0  0  0  0  0  0  0  0
   29.9220   37.5350   13.0150 C   0  0  0  0  0  0  0  0  0  0  0  0
   30.5410   38.6110   12.8770 O   0  0  0  0  0  0  0  0  0  0  0  0
   29.9920   35.4360   13.1880 H   0  0  0  0  0  0  0  0  0  0  0  0
   32.0280   36.1130   12.9400 C   0  0  0  0  0  0  0  0  0  0  0  0
   32.4690   34.9240   13.7150 C   0  0  2  0  0  0  0  0  0  0  0  0
   31.4360   34.3860   14.6750 C   0  0  2  0  0  0  0  0  0  0  0  0
   31.9670   34.0020   16.0150 C   0  0  2  0  0  0  0  0  0  0  0  0
   30.3060   32.7090   17.0190 C   0  0  2  0  0  0  0  0  0  0  0  0
   30.6470   33.1230   18.4440 C   0  0  0  0  0  0  0  0  0  0  0  0
   31.4760   32.7140   16.3090 O   0  0  0  0  0  0  0  0  0  0  0  0
   31.8580   34.0110   18.4200 C   0  0  1  0  0  0  0  0  0  0  0  0
   31.8380   34.9310   17.1440 C   0  0  1  0  0  0  0  0  0  0  0  0
   29.2920   33.5010   16.4930 O   0  0  0  0  0  0  0  0  0  0  0  0
   28.4080   33.0500   16.5080 H   0  0  0  0  0  0  0  0  0  0  0  0
   29.7860   31.3100   17.0340 C   0  0  0  0  0  0  0  0  0  0  0  0
   29.4030   30.8190   18.1210 O   0  0  0  0  0  0  0  0  0  0  0  0
   29.7110   30.5290   15.8910 O   0  0  0  0  0  0  0  0  0  0  0  0
   30.2710   29.6750   15.7740 H   0  0  0  0  0  0  0  0  0  0  0  0
   31.9380   34.8260   19.5440 O   0  0  0  0  0  0  0  0  0  0  0  0
   31.2690   35.5430   19.5170 H   0  0  0  0  0  0  0  0  0  0  0  0
   33.0520   35.7390   17.3300 N   0  0  0  0  0  0  0  0  0  0  0  0
   33.2220   37.0430   16.8090 C   0  0  0  0  0  0  0  0  0  0  0  0
   33.8700   35.3510   17.8860 H   0  0  0  0  0  0  0  0  0  0  0  0
   34.4630   37.8340   17.0100 C   0  0  0  0  0  0  0  0  0  0  0  0
   32.2950   37.5690   16.1440 O   0  0  0  0  0  0  0  0  0  0  0  0
   30.9510   33.1410   14.1030 O   0  0  0  0  0  0  0  0  0  0  0  0
   30.1150   32.9180   14.5790 H   0  0  0  0  0  0  0  0  0  0  0  0
   33.7490   34.9560   14.2030 O   0  0  0  0  0  0  0  0  0  0  0  0
   34.3260   34.2430   13.8690 H   0  0  0  0  0  0  0  0  0  0  0  0
   28.5160   37.5970   13.1270 O   0  0  0  0  0  0  0  0  0  0  0  0
   27.8120   36.3660   13.3590 C   0  0  0  0  0  0  0  0  0  0  0  0
   27.6240   35.6170   12.1190 C   0  0  0  0  0  0  0  0  0  0  0  0
   26.7120   35.8850   11.1300 C   0  0  0  0  0  0  0  0  0  0  0  0
   28.3270   34.5380   11.7370 N   0  0  0  0  0  0  0  0  0  0  0  0
   26.8730   34.9740   10.1760 N   0  0  0  0  0  0  0  0  0  0  0  0
   27.8460   34.1740   10.5560 N   0  0  0  0  0  0  0  0  0  0  0  0
   26.1200   34.8550    8.9330 C   0  0  0  0  0  0  0  0  0  0  0  0
   26.7810   35.7150    7.9020 C   0  0  0  0  0  0  0  0  0  0  0  0
   26.3350   37.0240    7.7180 C   0  0  0  0  0  0  0  0  0  0  0  0
   27.8280   35.2710    7.1230 C   0  0  0  0  0  0  0  0  0  0  0  0
   26.9190   37.8490    6.7890 C   0  0  0  0  0  0  0  0  0  0  0  0
   28.4360   36.0770    6.1800 C   0  0  0  0  0  0  0  0  0  0  0  0
   27.9670   37.3610    6.0300 C   0  0  0  0  0  0  0  0  0  0  0  0
   26.4840   39.1570    6.5940 O   0  0  0  0  0  0  0  0  0  0  0  0
   26.2410   39.9610    7.7350 C   0  0  0  0  0  0  0  0  0  0  0  0
   28.5500   38.2010    5.0950 O   0  0  0  0  0  0  0  0  0  0  0  0
   29.6070   39.0800    5.4310 C   0  0  0  0  0  0  0  0  0  0  0  0
   29.8670   25.5550   16.9770 C   0  0  0  0  0  0  0  0  0  0  0  0
   28.3450   25.7220   17.0260 C   0  0  0  0  0  0  0  0  0  0  0  0
   27.6010   24.4020   16.8900 C   0  0  0  0  0  0  0  0  0  0  0  0
   26.1510   24.5280   17.2690 C   0  0  0  0  0  0  0  0  0  0  0  0
   26.0370   24.7770   18.7690 C   0  0  0  0  0  0  0  0  0  0  0  0
   25.5140   23.5730   19.4570 N   0  0  0  0  0  0  0  0  0  0  0  0
  1  4  1  0  0  0  0
  2  1  1  0  0  0  0
  2 31  1  0  0  0  0
  3  2  2  0  0  0  0
  5  1  1  0  0  0  0
  6  5  1  1  0  0  0
  6 29  1  0  0  0  0
  6  7  1  0  0  0  0
  7 27  1  6  0  0  0
  8  7  1  6  0  0  0
  8 11  1  0  0  0  0
  8 13  1  0  0  0  0
  9 14  1  6  0  0  0
  9 16  1  0  0  0  0
  9 10  1  0  0  0  0
 11  9  1  0  0  0  0
 12 10  1  0  0  0  0
 12 20  1  1  0  0  0
 13 22  1  1  0  0  0
 13 12  1  0  0  0  0
 14 15  1  0  0  0  0
 16 17  2  0  0  0  0
 18 16  1  0  0  0  0
 19 18  1  0  0  0  0
 21 20  1  0  0  0  0
 22 24  1  0  0  0  0
 23 25  1  0  0  0  0
 23 22  1  0  0  0  0
 26 23  2  0  0  0  0
 27 28  1  0  0  0  0
 30 29  1  0  0  0  0
 31 32  1  0  0  0  0
 33 32  1  0  0  0  0
 34 33  2  0  0  0  0
 35 33  1  0  0  0  0
 36 37  1  0  0  0  0
 36 34  1  0  0  0  0
 37 35  2  0  0  0  0
 38 36  1  0  0  0  0
 39 38  1  0  0  0  0
 40 39  1  0  0  0  0
 41 39  2  0  0  0  0
 42 40  2  0  0  0  0
 43 41  1  0  0  0  0
 44 43  2  0  0  0  0
 44 42  1  0  0  0  0
 45 42  1  0  0  0  0
 45 46  1  0  0  0  0
 47 48  1  0  0  0  0
 47 44  1  0  0  0  0
 49 50  1  0  0  0  0
 51 50  1  0  0  0  0
 51 52  1  0  0  0  0
 52 53  1  0  0  0  0
 53 54  1  0  0  0  0
M  END
>  <REMARK>
 VINA RESULT:    -5.236      3.552      6.459
 INTER + INTRA:         -15.098
 INTER:                 -10.521
 INTRA:                  -4.577
 UNBOUND:                -5.118
 SMILES COc1ccc(Cn2cc(COC(=O)NC[C@@H](O)C(O)[C@@H]3O[C@@](O)(C(=O)O)C[C@H](O)[C@H]3NC(C)=O)nn2)cc1OC
 SMILES IDX 15 1 13 2 14 3 16 5 17 6 19 7 21 8 23 9 28 10 22 11 29 12
 SMILES IDX 31 13 24 14 25 16 26 17 27 18 30 20 32 22 33 23 34 25 35 26
 SMILES IDX 20 27 18 29 12 31 11 32 10 33 9 34 36 35 8 36 37 37 7 38
 SMILES IDX 6 39 38 40 5 41 39 42 4 43 3 44 40 45 41 46 2 47 1 48
 H PARENT 15 4 24 15 27 19 30 21 32 24 20 28 18 30
 Flexibility Score: inf
  4 active torsions:
  status: ('A' for Active; 'I' for Inactive)
    1  A    between atoms: CA   and  CB  
    2  A    between atoms: CB   and  CG  
    3  A    between atoms: CG   and  CD  
    4  A    between atoms: CD   and  CE  

>  <TORSDO>
F 18

>  <BEGIN_>
RES LYS A 131

$$$$
ligand_29_pose_3_2HRL.pdbqt
 OpenBabel07062320523D

  6  5  0  0  0  0  0  0  0  0999 V2000
   33.1930   34.6630    9.2900 C   0  0  0  0  0  0  0  0  0  0  0  0
   32.0600   35.3600   10.0340 C   0  0  0  0  0  0  0  0  0  0  0  0
   30.8000   35.4990    9.2190 C   0  0  0  0  0  0  0  0  0  0  0  0
   30.1310   36.8370    9.4900 C   0  0  0  0  0  0  0  0  0  0  0  0
   30.8200   37.9430    8.7140 C   0  0  0  0  0  0  0  0  0  0  0  0
   31.5060   38.8950    9.6310 N   0  0  0  0  0  0  0  0  0  0  0  0
  1  2  1  0  0  0  0
  3  4  1  0  0  0  0
  3  2  1  0  0  0  0
  5  4  1  0  0  0  0
  5  6  1  0  0  0  0
M  END
>  <EGIN_R>
ES LYS A 135

>  <REMARK>
  4 active torsions:
  status: ('A' for Active; 'I' for Inactive)
    5  A    between atoms: CA   and  CB  
    6  A    between atoms: CB   and  CG  
    7  A    between atoms: CG   and  CD  
    8  A    between atoms: CD   and  CE  

$$$$
