ligand_49_pose_19_2HRL.pdbqt
 OpenBabel07062320523D

 48 49  0  0  1  0  0  0  0  0999 V2000
   27.1140   29.0710   18.2920 C   0  0  0  0  0  0  0  0  0  0  0  0
   27.2400   27.8920   19.2170 C   0  0  2  0  0  0  0  0  0  0  0  0
   26.9110   28.4010   20.6060 C   0  0  1  0  0  0  0  0  0  0  0  0
   26.9080   27.3120   21.6310 C   0  0  2  0  0  0  0  0  0  0  0  0
   25.4450   26.0480   22.9080 C   0  0  2  0  0  0  0  0  0  0  0  0
   26.7700   25.4820   23.3970 C   0  0  0  0  0  0  0  0  0  0  0  0
   25.6980   27.2690   22.2810 O   0  0  0  0  0  0  0  0  0  0  0  0
   27.6040   26.6560   23.8660 C   0  0  1  0  0  0  0  0  0  0  0  0
   28.0430   27.4010   22.6120 C   0  0  1  0  0  0  0  0  0  0  0  0
   24.6500   26.2240   24.0350 O   0  0  0  0  0  0  0  0  0  0  0  0
   24.5390   27.2170   24.1610 H   0  0  0  0  0  0  0  0  0  0  0  0
   24.7630   25.1350   21.9830 C   0  0  0  0  0  0  0  0  0  0  0  0
   23.5430   25.2650   21.7110 O   0  0  0  0  0  0  0  0  0  0  0  0
   25.4510   24.0970   21.3770 O   0  0  0  0  0  0  0  0  0  0  0  0
   24.9970   23.2070   21.1300 H   0  0  0  0  0  0  0  0  0  0  0  0
   26.7550   27.4790   24.6250 O   0  0  0  0  0  0  0  0  0  0  0  0
   27.3110   28.2280   24.9690 H   0  0  0  0  0  0  0  0  0  0  0  0
   29.2540   26.7860   22.1070 N   0  0  0  0  0  0  0  0  0  0  0  0
   30.4670   27.5070   22.0520 C   0  0  0  0  0  0  0  0  0  0  0  0
   29.2400   25.8030   21.7810 H   0  0  0  0  0  0  0  0  0  0  0  0
   31.7420   26.9390   21.5490 C   0  0  0  0  0  0  0  0  0  0  0  0
   30.4670   28.6940   22.4520 O   0  0  0  0  0  0  0  0  0  0  0  0
   27.9180   29.3060   20.9450 O   0  0  0  0  0  0  0  0  0  0  0  0
   27.6310   30.2400   20.9270 H   0  0  0  0  0  0  0  0  0  0  0  0
   28.5070   27.3570   19.2030 O   0  0  0  0  0  0  0  0  0  0  0  0
   28.5230   26.5370   19.7660 H   0  0  0  0  0  0  0  0  0  0  0  0
   28.3420   29.6420   17.8380 N   0  0  0  0  0  0  0  0  0  0  0  0
   28.8490   30.8980   18.1880 C   0  0  0  0  0  0  0  0  0  0  0  0
   28.9190   29.0420   17.1660 H   0  0  0  0  0  0  0  0  0  0  0  0
   28.2090   31.6420   18.9650 O   0  0  0  0  0  0  0  0  0  0  0  0
   30.0830   31.3360   17.6720 O   0  0  0  0  0  0  0  0  0  0  0  0
   30.3590   31.0420   16.3150 C   0  0  0  0  0  0  0  0  0  0  0  0
   30.4740   32.3200   15.5770 C   0  0  0  0  0  0  0  0  0  0  0  0
   31.6460   33.0600   15.4990 C   0  0  0  0  0  0  0  0  0  0  0  0
   29.5680   32.9970   14.8830 N   0  0  0  0  0  0  0  0  0  0  0  0
   31.3920   34.1430   14.7640 N   0  0  0  0  0  0  0  0  0  0  0  0
   30.1270   34.0930   14.3960 N   0  0  0  0  0  0  0  0  0  0  0  0
   32.3870   35.1650   14.4600 C   0  0  0  0  0  0  0  0  0  0  0  0
   32.5250   35.2350   12.9650 C   0  0  0  0  0  0  0  0  0  0  0  0
   31.8660   36.5070   14.9230 C   0  0  0  0  0  0  0  0  0  0  0  0
   32.2450   36.6510   12.5730 C   0  0  0  0  0  0  0  0  0  0  0  0
   31.3330   37.1560   13.6580 C   0  0  0  0  0  0  0  0  0  0  0  0
   29.8670   25.5550   16.9770 C   0  0  0  0  0  0  0  0  0  0  0  0
   28.3450   25.7220   17.0260 C   0  0  0  0  0  0  0  0  0  0  0  0
   27.6010   24.4010   16.9050 C   0  0  0  0  0  0  0  0  0  0  0  0
   26.5860   24.2200   17.9990 C   0  0  0  0  0  0  0  0  0  0  0  0
   25.3140   23.6110   17.4180 C   0  0  0  0  0  0  0  0  0  0  0  0
   24.8200   22.5160   18.2860 N   0  0  0  0  0  0  0  0  0  0  0  0
  2  1  1  6  0  0  0
  2  3  1  0  0  0  0
  3 23  1  1  0  0  0
  4  3  1  6  0  0  0
  4  7  1  0  0  0  0
  4  9  1  0  0  0  0
  5 12  1  6  0  0  0
  5  6  1  0  0  0  0
  5 10  1  0  0  0  0
  6  8  1  0  0  0  0
  7  5  1  0  0  0  0
  8 16  1  1  0  0  0
  9 18  1  6  0  0  0
  9  8  1  0  0  0  0
 10 11  1  0  0  0  0
 13 12  2  0  0  0  0
 14 12  1  0  0  0  0
 15 14  1  0  0  0  0
 16 17  1  0  0  0  0
 19 18  1  0  0  0  0
 19 22  2  0  0  0  0
 20 18  1  0  0  0  0
 21 19  1  0  0  0  0
 24 23  1  0  0  0  0
 25  2  1  0  0  0  0
 25 26  1  0  0  0  0
 27 28  1  0  0  0  0
 27  1  1  0  0  0  0
 28 30  2  0  0  0  0
 29 27  1  0  0  0  0
 31 28  1  0  0  0  0
 32 31  1  0  0  0  0
 33 32  1  0  0  0  0
 34 33  2  0  0  0  0
 35 33  1  0  0  0  0
 36 34  1  0  0  0  0
 37 36  1  0  0  0  0
 37 35  2  0  0  0  0
 38 36  1  0  0  0  0
 38 40  1  0  0  0  0
 39 38  1  0  0  0  0
 41 39  1  0  0  0  0
 41 42  1  0  0  0  0
 42 40  1  0  0  0  0
 43 44  1  0  0  0  0
 45 44  1  0  0  0  0
 45 46  1  0  0  0  0
 47 46  1  0  0  0  0
 47 48  1  0  0  0  0
M  END
>  <REMARK>
 VINA RESULT:    -4.791      3.539      8.872
 INTER + INTRA:         -13.317
 INTER:                  -8.292
 INTRA:                  -5.026
 UNBOUND:                -5.026
 SMILES CC(=O)N[C@@H]1[C@@H](O)C[C@](O)(C(=O)O)O[C@H]1C(O)[C@H](O)CNC(=O)OCc1cn(C2CCCC2)nn1
 SMILES IDX 20 1 18 2 16 3 15 4 9 5 8 6 14 7 6 8 5 9 10 10 11 12 12 13
 SMILES IDX 13 14 7 16 4 18 2 19 1 21 3 22 17 23 19 25 21 27 22 28 23 30
 SMILES IDX 24 31 25 32 26 33 27 34 35 35 28 36 34 37 29 38 30 39 33 40
 SMILES IDX 31 41 32 42
 H PARENT 10 11 13 15 7 17 4 20 17 24 19 26 21 29
 Flexibility Score: inf
  4 active torsions:
  status: ('A' for Active; 'I' for Inactive)
    1  A    between atoms: CA   and  CB  
    2  A    between atoms: CB   and  CG  
    3  A    between atoms: CG   and  CD  
    4  A    between atoms: CD   and  CE  

>  <TORSDO>
F 15

>  <BEGIN_>
RES LYS A 131

$$$$
ligand_49_pose_19_2HRL.pdbqt
 OpenBabel07062320523D

  6  5  0  0  0  0  0  0  0  0999 V2000
   33.1930   34.6630    9.2900 C   0  0  0  0  0  0  0  0  0  0  0  0
   32.0600   35.3600   10.0340 C   0  0  0  0  0  0  0  0  0  0  0  0
   30.7950   35.4850    9.2250 C   0  0  0  0  0  0  0  0  0  0  0  0
   30.2530   34.1110    8.8610 C   0  0  0  0  0  0  0  0  0  0  0  0
   28.7850   34.0040    9.2250 C   0  0  0  0  0  0  0  0  0  0  0  0
   28.1090   35.3270    9.1250 N   0  0  0  0  0  0  0  0  0  0  0  0
  1  2  1  0  0  0  0
  3  2  1  0  0  0  0
  4  3  1  0  0  0  0
  4  5  1  0  0  0  0
  6  5  1  0  0  0  0
M  END
>  <EGIN_R>
ES LYS A 135

>  <REMARK>
  4 active torsions:
  status: ('A' for Active; 'I' for Inactive)
    5  A    between atoms: CA   and  CB  
    6  A    between atoms: CB   and  CG  
    7  A    between atoms: CG   and  CD  
    8  A    between atoms: CD   and  CE  

$$$$
