ligand_80_pose_9_2HRL.pdbqt
 OpenBabel07062320523D

 56 54  0  0  1  0  0  0  0  0999 V2000
   30.6630   36.1830   18.7160 O   0  0  0  0  0  0  0  0  0  0  0  0
   31.2970   35.1830   18.0190 C   0  0  0  0  0  0  0  0  0  0  0  0
   30.5640   34.0230   17.5990 N   0  0  0  0  0  0  0  0  0  0  0  0
   29.5490   34.0030   17.8540 H   0  0  0  0  0  0  0  0  0  0  0  0
   32.5190   35.2390   17.7270 O   0  0  0  0  0  0  0  0  0  0  0  0
   31.1950   32.9430   16.8630 C   0  0  0  0  0  0  0  0  0  0  0  0
   30.1450   32.2720   16.0120 C   0  0  2  0  0  0  0  0  0  0  0  0
   29.8010   30.8820   16.5030 C   0  0  2  0  0  0  0  0  0  0  0  0
   28.3350   30.8210   16.9600 C   0  0  2  0  0  0  0  0  0  0  0  0
   26.4950   32.2710   16.8410 C   0  0  2  0  0  0  0  0  0  0  0  0
   26.0790   31.6830   18.1540 C   0  0  0  0  0  0  0  0  0  0  0  0
   27.6770   31.8080   16.3340 O   0  0  0  0  0  0  0  0  0  0  0  0
   27.3030   31.7460   19.0530 C   0  0  1  0  0  0  0  0  0  0  0  0
   28.3530   30.8460   18.4530 C   0  0  1  0  0  0  0  0  0  0  0  0
   26.6720   33.6580   17.0230 O   0  0  0  0  0  0  0  0  0  0  0  0
   27.1430   33.7450   17.8920 H   0  0  0  0  0  0  0  0  0  0  0  0
   25.4560   32.1060   15.7940 C   0  0  0  0  0  0  0  0  0  0  0  0
   25.7690   31.5960   14.6960 O   0  0  0  0  0  0  0  0  0  0  0  0
   24.1340   32.4990   15.9890 O   0  0  0  0  0  0  0  0  0  0  0  0
   23.6890   32.9980   15.2050 H   0  0  0  0  0  0  0  0  0  0  0  0
   27.7670   33.0570   19.0220 O   0  0  0  0  0  0  0  0  0  0  0  0
   27.0910   33.6240   19.4650 H   0  0  0  0  0  0  0  0  0  0  0  0
   28.0720   29.5010   18.9230 N   0  0  0  0  0  0  0  0  0  0  0  0
   28.7740   28.8800   19.9890 C   0  0  0  0  0  0  0  0  0  0  0  0
   27.2970   28.9460   18.4460 H   0  0  0  0  0  0  0  0  0  0  0  0
   28.3970   27.5000   20.3780 C   0  0  0  0  0  0  0  0  0  0  0  0
   29.6910   29.5270   20.5600 O   0  0  0  0  0  0  0  0  0  0  0  0
   30.6080   30.6480   17.6220 O   0  0  0  0  0  0  0  0  0  0  0  0
   31.5480   30.8900   17.4810 H   0  0  0  0  0  0  0  0  0  0  0  0
   30.5220   32.2430   14.6740 O   0  0  0  0  0  0  0  0  0  0  0  0
   30.7900   33.1220   14.3350 H   0  0  0  0  0  0  0  0  0  0  0  0
   29.9970   37.2460   18.0550 C   0  0  0  0  0  0  0  0  0  0  0  0
   29.2900   36.7650   16.8420 C   0  0  0  0  0  0  0  0  0  0  0  0
   29.6720   37.0700   15.5310 C   0  0  0  0  0  0  0  0  0  0  0  0
   28.1990   35.9880   16.7160 N   0  0  0  0  0  0  0  0  0  0  0  0
   28.8160   36.4800   14.6800 N   0  0  0  0  0  0  0  0  0  0  0  0
   27.9450   35.8380   15.4280 N   0  0  0  0  0  0  0  0  0  0  0  0
   28.8430   36.5460   13.2350 *   0  0  0  0  0  0  0  0  0  0  0  0
   29.1150   35.2090   12.6360 C   0  0  0  0  0  0  0  0  0  0  0  0
   28.5500   34.5300   11.5300 N   0  0  0  0  0  0  0  0  0  0  0  0
   30.0210   34.5910   13.2480 O   0  0  0  0  0  0  0  0  0  0  0  0
   28.7050   33.5040   11.4350 H   0  0  0  0  0  0  0  0  0  0  0  0
   27.7550   35.0970   10.4730 C   0  0  0  0  0  0  0  0  0  0  0  0
   27.3660   36.4170   10.3370 C   0  0  0  0  0  0  0  0  0  0  0  0
   27.4010   34.1290    9.5540 C   0  0  0  0  0  0  0  0  0  0  0  0
   26.6110   36.7610    9.2580 C   0  0  0  0  0  0  0  0  0  0  0  0
   26.6370   34.4800    8.4630 C   0  0  0  0  0  0  0  0  0  0  0  0
   26.2510   35.7940    8.3280 C   0  0  0  0  0  0  0  0  0  0  0  0
   27.6870   37.5390   11.2600 C   0  0  0  0  0  0  0  0  0  0  0  0
   27.5600   37.1400   12.7200 *   0  0  0  0  0  0  0  0  0  0  0  0
   29.8670   25.5550   16.9770 C   0  0  0  0  0  0  0  0  0  0  0  0
   28.3450   25.7220   17.0260 C   0  0  0  0  0  0  0  0  0  0  0  0
   27.5990   24.4650   16.6050 C   0  0  0  0  0  0  0  0  0  0  0  0
   26.2810   24.3250   17.3140 C   0  0  0  0  0  0  0  0  0  0  0  0
   26.0520   25.5390   18.2080 C   0  0  0  0  0  0  0  0  0  0  0  0
   25.6570   25.1130   19.5720 N   0  0  0  0  0  0  0  0  0  0  0  0
  2  1  1  0  0  0  0
  3  4  1  0  0  0  0
  3  2  1  0  0  0  0
  5  2  2  0  0  0  0
  6  3  1  0  0  0  0
  7  8  1  0  0  0  0
  7  6  1  1  0  0  0
  8 28  1  1  0  0  0
  9  8  1  6  0  0  0
  9 14  1  0  0  0  0
 10 17  1  6  0  0  0
 10 15  1  0  0  0  0
 10 11  1  0  0  0  0
 11 13  1  0  0  0  0
 12 10  1  0  0  0  0
 12  9  1  0  0  0  0
 13 21  1  6  0  0  0
 14 23  1  1  0  0  0
 14 13  1  0  0  0  0
 15 16  1  0  0  0  0
 17 19  1  0  0  0  0
 18 17  2  0  0  0  0
 20 19  1  0  0  0  0
 21 22  1  0  0  0  0
 23 24  1  0  0  0  0
 24 26  1  0  0  0  0
 24 27  2  0  0  0  0
 25 23  1  0  0  0  0
 29 28  1  0  0  0  0
 30  7  1  0  0  0  0
 31 30  1  0  0  0  0
 32  1  1  0  0  0  0
 33 32  1  0  0  0  0
 34 33  2  0  0  0  0
 35 33  1  0  0  0  0
 36 37  2  0  0  0  0
 36 34  1  0  0  0  0
 37 35  1  0  0  0  0
 39 41  2  0  0  0  0
 40 39  1  0  0  0  0
 42 40  1  0  0  0  0
 43 40  1  0  0  0  0
 44 43  1  0  0  0  0
 44 49  1  0  0  0  0
 45 43  2  0  0  0  0
 46 44  2  0  0  0  0
 47 45  1  0  0  0  0
 48 47  2  0  0  0  0
 48 46  1  0  0  0  0
 51 52  1  0  0  0  0
 53 52  1  0  0  0  0
 53 54  1  0  0  0  0
 54 55  1  0  0  0  0
 55 56  1  0  0  0  0
M  END
>  <REMARK>
 VINA RESULT:    -9.177      3.226      5.949
 INTER + INTRA:         -13.474
 INTER:                  -8.645
 INTRA:                  -4.829
 UNBOUND:                 4.555
 SMILES CC(=O)N[C@@H]1[C@@H](O)C[C@](O)(C(=O)O)O[C@H]1C(O)[C@H](O)CNC(=O)OCc1cn(C2CCc3ccccc3NC2=O)nn1
 SMILES IDX 24 1 22 2 21 3 23 5 20 6 18 7 16 8 15 9 9 10 8 11 14 12 6 13
 SMILES IDX 5 14 10 15 11 17 12 18 13 19 7 21 4 23 2 24 1 26 3 27 17 28
 SMILES IDX 19 30 25 32 26 33 27 34 42 35 28 36 41 37 29 38 39 40 38 41
 SMILES IDX 40 42 37 44 32 45 36 46 33 47 35 48 34 49 31 50 30 51
 H PARENT 21 4 10 16 13 20 7 22 4 25 17 29 19 31 38 43
 Flexibility Score: 80.00
  4 active torsions:
  status: ('A' for Active; 'I' for Inactive)
    1  A    between atoms: CA   and  CB  
    2  A    between atoms: CB   and  CG  
    3  A    between atoms: CG   and  CD  
    4  A    between atoms: CD   and  CE  

>  <TORSDO>
F 15

>  <BEGIN_>
RES LYS A 131

$$$$
ligand_80_pose_9_2HRL.pdbqt
 OpenBabel07062320523D

  6  5  0  0  0  0  0  0  0  0999 V2000
   33.1930   34.6630    9.2900 C   0  0  0  0  0  0  0  0  0  0  0  0
   32.0600   35.3600   10.0340 C   0  0  0  0  0  0  0  0  0  0  0  0
   30.8640   35.6590    9.1670 C   0  0  0  0  0  0  0  0  0  0  0  0
   30.6440   37.1590    9.0540 C   0  0  0  0  0  0  0  0  0  0  0  0
   31.2980   37.8820   10.2160 C   0  0  0  0  0  0  0  0  0  0  0  0
   31.9700   39.1310    9.7620 N   0  0  0  0  0  0  0  0  0  0  0  0
  1  2  1  0  0  0  0
  3  2  1  0  0  0  0
  4  3  1  0  0  0  0
  4  5  1  0  0  0  0
  6  5  1  0  0  0  0
M  END
>  <EGIN_R>
ES LYS A 135

>  <REMARK>
  4 active torsions:
  status: ('A' for Active; 'I' for Inactive)
    5  A    between atoms: CA   and  CB  
    6  A    between atoms: CB   and  CG  
    7  A    between atoms: CG   and  CD  
    8  A    between atoms: CD   and  CE  

$$$$
