ligand_20_pose_19_2HRL.pdbqt
 OpenBabel07062320523D

 53 55  0  0  1  0  0  0  0  0999 V2000
   19.0810   35.2290    7.9440 C   0  0  0  0  0  0  0  0  0  0  0  0
   19.7860   36.4810    7.6520 C   0  0  2  0  0  0  0  0  0  0  0  0
   21.3140   36.2940    7.7810 C   0  0  1  0  0  0  0  0  0  0  0  0
   21.8940   36.9630    8.9490 C   0  0  2  0  0  0  0  0  0  0  0  0
   23.5480   38.4060    8.1430 C   0  0  2  0  0  0  0  0  0  0  0  0
   24.4530   37.2070    8.1310 C   0  0  0  0  0  0  0  0  0  0  0  0
   22.3690   38.2330    8.8060 O   0  0  0  0  0  0  0  0  0  0  0  0
   24.3080   36.3300    9.3250 C   0  0  1  0  0  0  0  0  0  0  0  0
   22.8840   36.0590    9.6940 C   0  0  1  0  0  0  0  0  0  0  0  0
   23.2980   38.8060    6.8300 O   0  0  0  0  0  0  0  0  0  0  0  0
   22.5950   39.4990    6.7780 H   0  0  0  0  0  0  0  0  0  0  0  0
   24.2880   39.4980    8.8170 C   0  0  0  0  0  0  0  0  0  0  0  0
   23.8020   40.0550    9.8150 O   0  0  0  0  0  0  0  0  0  0  0  0
   25.5170   39.8940    8.3350 O   0  0  0  0  0  0  0  0  0  0  0  0
   26.4100   39.5770    8.7390 H   0  0  0  0  0  0  0  0  0  0  0  0
   25.0080   35.1360    9.0710 O   0  0  0  0  0  0  0  0  0  0  0  0
   25.9610   35.3580    9.2040 H   0  0  0  0  0  0  0  0  0  0  0  0
   22.6560   36.0640   11.1140 N   0  0  0  0  0  0  0  0  0  0  0  0
   21.5960   35.3360   11.7180 C   0  0  0  0  0  0  0  0  0  0  0  0
   23.2950   36.6300   11.7510 H   0  0  0  0  0  0  0  0  0  0  0  0
   21.4030   35.3750   13.1810 C   0  0  0  0  0  0  0  0  0  0  0  0
   20.8320   34.6630   10.9810 O   0  0  0  0  0  0  0  0  0  0  0  0
   21.3790   34.8820    8.0640 O   0  0  0  0  0  0  0  0  0  0  0  0
   20.4880   34.4750    7.9580 H   0  0  0  0  0  0  0  0  0  0  0  0
   19.4620   37.3590    8.7560 O   0  0  0  0  0  0  0  0  0  0  0  0
   20.1170   37.2020    9.4920 H   0  0  0  0  0  0  0  0  0  0  0  0
   18.6200   35.0490    9.2920 N   0  0  0  0  0  0  0  0  0  0  0  0
   17.2900   34.6490    9.5860 C   0  0  0  0  0  0  0  0  0  0  0  0
   19.2680   35.1600   10.0880 H   0  0  0  0  0  0  0  0  0  0  0  0
   16.5030   34.4500    8.6250 O   0  0  0  0  0  0  0  0  0  0  0  0
   16.8120   34.4680   10.8640 O   0  0  0  0  0  0  0  0  0  0  0  0
   16.1880   33.2870   11.3310 C   0  0  0  0  0  0  0  0  0  0  0  0
   17.2340   32.2110   11.3830 C   0  0  0  0  0  0  0  0  0  0  0  0
   18.5080   32.2810   11.9040 C   0  0  0  0  0  0  0  0  0  0  0  0
   17.1170   30.9360   10.9150 N   0  0  0  0  0  0  0  0  0  0  0  0
   19.0820   31.0560   11.7230 N   0  0  0  0  0  0  0  0  0  0  0  0
   18.2150   30.2620   11.1210 N   0  0  0  0  0  0  0  0  0  0  0  0
   20.4000   30.7190   12.1250 C   0  0  0  0  0  0  0  0  0  0  0  0
   20.8020   29.3980   12.0920 C   0  0  0  0  0  0  0  0  0  0  0  0
   21.3230   31.6490   12.5550 C   0  0  0  0  0  0  0  0  0  0  0  0
   22.0700   29.0100   12.4710 C   0  0  0  0  0  0  0  0  0  0  0  0
   22.5830   31.2880   12.9350 C   0  0  0  0  0  0  0  0  0  0  0  0
   22.9870   29.9540   12.9000 C   0  0  0  0  0  0  0  0  0  0  0  0
   23.6780   31.9830   13.3930 C   0  0  0  0  0  0  0  0  0  0  0  0
   24.2600   29.8860   13.3220 N   0  0  0  0  0  0  0  0  0  0  0  0
   24.6850   31.0920   13.6200 N   0  0  0  0  0  0  0  0  0  0  0  0
   24.8130   29.0120   13.3960 H   0  0  0  0  0  0  0  0  0  0  0  0
   29.8670   25.5550   16.9770 C   0  0  0  0  0  0  0  0  0  0  0  0
   28.3450   25.7220   17.0260 C   0  0  0  0  0  0  0  0  0  0  0  0
   27.6010   24.4030   16.8870 C   0  0  0  0  0  0  0  0  0  0  0  0
   26.2750   24.4230   17.5960 C   0  0  0  0  0  0  0  0  0  0  0  0
   26.3120   25.4580   18.7150 C   0  0  0  0  0  0  0  0  0  0  0  0
   25.4940   25.0080   19.8660 N   0  0  0  0  0  0  0  0  0  0  0  0
  1 27  1  0  0  0  0
  2  3  1  0  0  0  0
  2  1  1  1  0  0  0
  2 25  1  0  0  0  0
  3 23  1  1  0  0  0
  4  3  1  6  0  0  0
  4  9  1  0  0  0  0
  5 10  1  6  0  0  0
  5  7  1  0  0  0  0
  5 12  1  0  0  0  0
  6  5  1  0  0  0  0
  6  8  1  0  0  0  0
  7  4  1  0  0  0  0
  8 16  1  6  0  0  0
  8  9  1  0  0  0  0
  9 18  1  1  0  0  0
 11 10  1  0  0  0  0
 12 13  2  0  0  0  0
 14 15  1  0  0  0  0
 14 12  1  0  0  0  0
 16 17  1  0  0  0  0
 18 19  1  0  0  0  0
 18 20  1  0  0  0  0
 19 21  1  0  0  0  0
 22 19  2  0  0  0  0
 24 23  1  0  0  0  0
 25 26  1  0  0  0  0
 27 28  1  0  0  0  0
 27 29  1  0  0  0  0
 28 31  1  0  0  0  0
 30 28  2  0  0  0  0
 31 32  1  0  0  0  0
 32 33  1  0  0  0  0
 33 34  2  0  0  0  0
 35 37  2  0  0  0  0
 35 33  1  0  0  0  0
 36 34  1  0  0  0  0
 36 38  1  0  0  0  0
 37 36  1  0  0  0  0
 38 40  1  0  0  0  0
 39 38  2  0  0  0  0
 39 41  1  0  0  0  0
 40 42  2  0  0  0  0
 41 43  2  0  0  0  0
 42 44  1  0  0  0  0
 43 42  1  0  0  0  0
 43 45  1  0  0  0  0
 44 46  2  0  0  0  0
 45 47  1  0  0  0  0
 45 46  1  0  0  0  0
 48 49  1  0  0  0  0
 50 49  1  0  0  0  0
 50 51  1  0  0  0  0
 51 52  1  0  0  0  0
 52 53  1  0  0  0  0
M  END
>  <REMARK>
 VINA RESULT:    -4.370      4.807      8.814
 INTER + INTRA:         -14.053
 INTER:                  -8.045
 INTRA:                  -6.008
 UNBOUND:                -6.490
 SMILES CC(=O)N[C@@H]1[C@@H](O)C[C@](O)(C(=O)O)O[C@H]1C(O)[C@H](O)CNC(=O)OCc1cn(-c2ccc3[nH]ncc3c2)nn1
 SMILES IDX 20 1 18 2 16 3 15 4 9 5 8 6 14 7 6 8 5 9 10 10 11 12 12 13
 SMILES IDX 13 14 7 16 4 18 2 19 1 21 3 22 17 23 19 25 21 27 22 28 23 30
 SMILES IDX 24 31 25 32 26 33 27 34 39 35 28 36 38 37 29 38 30 39 37 40
 SMILES IDX 31 41 36 42 32 43 35 44 33 45 34 46
 H PARENT 10 11 13 15 7 17 4 20 17 24 19 26 21 29 33 47
 Flexibility Score: inf
  4 active torsions:
  status: ('A' for Active; 'I' for Inactive)
    1  A    between atoms: CA   and  CB  
    2  A    between atoms: CB   and  CG  
    3  A    between atoms: CG   and  CD  
    4  A    between atoms: CD   and  CE  

>  <TORSDO>
F 15

>  <BEGIN_>
RES LYS A 131

$$$$
ligand_20_pose_19_2HRL.pdbqt
 OpenBabel07062320523D

  6  5  0  0  0  0  0  0  0  0999 V2000
   33.1930   34.6630    9.2900 C   0  0  0  0  0  0  0  0  0  0  0  0
   32.0600   35.3600   10.0340 C   0  0  0  0  0  0  0  0  0  0  0  0
   30.7160   34.7100    9.8310 C   0  0  0  0  0  0  0  0  0  0  0  0
   30.2120   34.9490    8.4160 C   0  0  0  0  0  0  0  0  0  0  0  0
   28.7640   34.5160    8.2860 C   0  0  0  0  0  0  0  0  0  0  0  0
   28.2700   33.9080    9.5520 N   0  0  0  0  0  0  0  0  0  0  0  0
  1  2  1  0  0  0  0
  3  2  1  0  0  0  0
  4  3  1  0  0  0  0
  5  4  1  0  0  0  0
  5  6  1  0  0  0  0
M  END
>  <EGIN_R>
ES LYS A 135

>  <REMARK>
  4 active torsions:
  status: ('A' for Active; 'I' for Inactive)
    5  A    between atoms: CA   and  CB  
    6  A    between atoms: CB   and  CG  
    7  A    between atoms: CG   and  CD  
    8  A    between atoms: CD   and  CE  

$$$$
