ligand_89_pose_9_2HRL.pdbqt
 OpenBabel07062320523D

 60 63  0  0  1  0  0  0  0  0999 V2000
   26.1430   35.3750   17.4430 N   0  0  0  0  0  0  0  0  0  0  0  0
   26.1590   34.2240   18.2310 C   0  0  0  0  0  0  0  0  0  0  0  0
   27.1870   33.6660   18.6150 O   0  0  0  0  0  0  0  0  0  0  0  0
   25.1500   35.7740   17.2090 H   0  0  0  0  0  0  0  0  0  0  0  0
   27.2640   36.0630   16.9280 C   0  0  0  0  0  0  0  0  0  0  0  0
   27.6900   35.7150   15.5720 C   0  0  2  0  0  0  0  0  0  0  0  0
   28.3910   34.4620   15.2430 C   0  0  1  0  0  0  0  0  0  0  0  0
   29.6550   34.4350   16.1520 C   0  0  2  0  0  0  0  0  0  0  0  0
   31.4520   34.2670   14.6480 C   0  0  2  0  0  0  0  0  0  0  0  0
   31.8800   32.9910   15.2920 C   0  0  0  0  0  0  0  0  0  0  0  0
   30.6690   35.0030   15.4760 O   0  0  0  0  0  0  0  0  0  0  0  0
   30.7570   32.2020   15.9150 C   0  0  1  0  0  0  0  0  0  0  0  0
   29.8510   33.0880   16.7410 C   0  0  1  0  0  0  0  0  0  0  0  0
   30.7120   33.9880   13.4700 O   0  0  0  0  0  0  0  0  0  0  0  0
   31.0580   34.6300   12.7940 H   0  0  0  0  0  0  0  0  0  0  0  0
   32.7110   34.9890   14.2640 C   0  0  0  0  0  0  0  0  0  0  0  0
   33.0740   35.9770   14.9170 O   0  0  0  0  0  0  0  0  0  0  0  0
   33.4550   34.5520   13.1950 O   0  0  0  0  0  0  0  0  0  0  0  0
   33.8010   35.2140   12.4940 H   0  0  0  0  0  0  0  0  0  0  0  0
   30.0130   31.4920   14.9710 O   0  0  0  0  0  0  0  0  0  0  0  0
   30.4980   30.6680   14.7240 H   0  0  0  0  0  0  0  0  0  0  0  0
   30.4400   33.1600   18.0850 N   0  0  0  0  0  0  0  0  0  0  0  0
   30.3460   32.1030   19.0130 C   0  0  0  0  0  0  0  0  0  0  0  0
   30.9620   34.0260   18.3990 H   0  0  0  0  0  0  0  0  0  0  0  0
   30.9430   32.1810   20.3720 C   0  0  0  0  0  0  0  0  0  0  0  0
   29.7330   31.0380   18.6990 O   0  0  0  0  0  0  0  0  0  0  0  0
   27.6630   33.2940   15.4780 O   0  0  0  0  0  0  0  0  0  0  0  0
   28.2740   32.4920   15.4570 H   0  0  0  0  0  0  0  0  0  0  0  0
   28.5010   36.8280   15.1260 O   0  0  0  0  0  0  0  0  0  0  0  0
   29.2770   36.5100   14.6330 H   0  0  0  0  0  0  0  0  0  0  0  0
   24.9510   33.6150   18.6430 O   0  0  0  0  0  0  0  0  0  0  0  0
   24.5930   32.3320   18.2170 C   0  0  0  0  0  0  0  0  0  0  0  0
   24.5290   32.2980   16.7340 C   0  0  0  0  0  0  0  0  0  0  0  0
   23.7310   33.0880   15.9120 C   0  0  0  0  0  0  0  0  0  0  0  0
   25.2170   31.5170   15.8810 N   0  0  0  0  0  0  0  0  0  0  0  0
   23.9520   32.7700   14.6050 N   0  0  0  0  0  0  0  0  0  0  0  0
   24.8520   31.8230   14.6510 N   0  0  0  0  0  0  0  0  0  0  0  0
   23.2880   33.4070   13.5170 C   0  0  0  0  0  0  0  0  0  0  0  0
   21.9360   33.4480   13.3240 N   0  0  0  0  0  0  0  0  0  0  0  0
   23.8270   34.0950   12.4620 C   0  0  0  0  0  0  0  0  0  0  0  0
   21.6840   34.1330   12.2010 C   0  0  0  0  0  0  0  0  0  0  0  0
   22.8320   34.5490   11.6380 N   0  0  0  0  0  0  0  0  0  0  0  0
   25.1090   34.3870   12.1150 C   0  0  0  0  0  0  0  0  0  0  0  0
   23.0930   35.2590   10.5240 C   0  0  0  0  0  0  0  0  0  0  0  0
   25.4110   35.0850   11.0230 N   0  0  0  0  0  0  0  0  0  0  0  0
   26.0740   34.0020   12.8220 O   0  0  0  0  0  0  0  0  0  0  0  0
   22.0640   35.7000    9.7180 C   0  0  0  0  0  0  0  0  0  0  0  0
   24.4130   35.5230   10.2270 C   0  0  0  0  0  0  0  0  0  0  0  0
   22.3010   36.4320    8.5660 C   0  0  0  0  0  0  0  0  0  0  0  0
   24.6250   36.2560    9.0680 C   0  0  0  0  0  0  0  0  0  0  0  0
   23.6040   36.7040    8.2520 C   0  0  0  0  0  0  0  0  0  0  0  0
   26.7490   35.4320   10.6000 C   0  0  0  0  0  0  0  0  0  0  0  0
   27.4240   34.1490   10.1610 C   0  0  0  0  0  0  0  0  0  0  0  0
   27.6000   36.0520   11.6610 C   0  0  0  0  0  0  0  0  0  0  0  0
   29.8670   25.5550   16.9770 C   0  0  0  0  0  0  0  0  0  0  0  0
   28.3450   25.7220   17.0260 C   0  0  0  0  0  0  0  0  0  0  0  0
   27.6020   24.3980   16.9320 C   0  0  0  0  0  0  0  0  0  0  0  0
   26.3280   24.4060   17.7300 C   0  0  0  0  0  0  0  0  0  0  0  0
   25.6100   23.0710   17.5560 C   0  0  0  0  0  0  0  0  0  0  0  0
   24.9780   22.6520   18.8290 N   0  0  0  0  0  0  0  0  0  0  0  0
  1  2  1  0  0  0  0
  2  3  2  0  0  0  0
  2 31  1  0  0  0  0
  4  1  1  0  0  0  0
  5  1  1  0  0  0  0
  6  5  1  1  0  0  0
  7 27  1  1  0  0  0
  7  6  1  0  0  0  0
  8  7  1  6  0  0  0
  8 13  1  0  0  0  0
  9 14  1  6  0  0  0
  9 10  1  0  0  0  0
  9 11  1  0  0  0  0
 10 12  1  0  0  0  0
 11  8  1  0  0  0  0
 12 20  1  6  0  0  0
 12 13  1  0  0  0  0
 13 22  1  1  0  0  0
 15 14  1  0  0  0  0
 16  9  1  0  0  0  0
 16 17  2  0  0  0  0
 18 16  1  0  0  0  0
 19 18  1  0  0  0  0
 21 20  1  0  0  0  0
 22 24  1  0  0  0  0
 22 23  1  0  0  0  0
 23 25  1  0  0  0  0
 26 23  2  0  0  0  0
 28 27  1  0  0  0  0
 29  6  1  0  0  0  0
 30 29  1  0  0  0  0
 32 31  1  0  0  0  0
 33 32  1  0  0  0  0
 34 33  2  0  0  0  0
 35 33  1  0  0  0  0
 36 37  1  0  0  0  0
 36 34  1  0  0  0  0
 37 35  2  0  0  0  0
 38 36  1  0  0  0  0
 39 38  1  0  0  0  0
 40 38  2  0  0  0  0
 41 39  2  0  0  0  0
 42 41  1  0  0  0  0
 42 40  1  0  0  0  0
 43 40  1  0  0  0  0
 43 46  2  0  0  0  0
 44 42  1  0  0  0  0
 45 43  1  0  0  0  0
 47 44  2  0  0  0  0
 48 44  1  0  0  0  0
 48 45  1  0  0  0  0
 49 47  1  0  0  0  0
 50 48  2  0  0  0  0
 51 49  2  0  0  0  0
 51 50  1  0  0  0  0
 52 45  1  0  0  0  0
 52 54  1  0  0  0  0
 53 52  1  0  0  0  0
 55 56  1  0  0  0  0
 57 56  1  0  0  0  0
 57 58  1  0  0  0  0
 59 58  1  0  0  0  0
 59 60  1  0  0  0  0
M  END
>  <REMARK>
 VINA RESULT:    -4.453      3.637      6.776
 INTER + INTRA:         -15.076
 INTER:                  -9.361
 INTRA:                  -5.715
 UNBOUND:                -7.109
 SMILES CC(=O)N[C@@H]1[C@@H](O)C[C@](O)(C(=O)O)O[C@H]1C(O)[C@H](O)CNC(=O)OCc1cn(-c2ncn3c2c(=O)n(C(C)C)c2ccccc23)nn1
 SMILES IDX 21 1 22 2 23 3 20 5 18 6 16 7 15 8 9 9 8 10 14 11 6 12 5 13
 SMILES IDX 10 14 11 16 12 17 13 18 7 20 4 22 2 23 1 25 3 26 17 27 19 29
 SMILES IDX 24 31 25 32 26 33 27 34 47 35 28 36 46 37 29 38 30 39 33 40
 SMILES IDX 31 41 32 42 34 43 45 44 36 45 35 46 44 47 40 48 43 49 41 50
 SMILES IDX 42 51 37 52 38 53 39 54
 H PARENT 21 4 10 15 13 19 7 21 4 24 17 28 19 30
 Flexibility Score: inf
  4 active torsions:
  status: ('A' for Active; 'I' for Inactive)
    1  A    between atoms: CA   and  CB  
    2  A    between atoms: CB   and  CG  
    3  A    between atoms: CG   and  CD  
    4  A    between atoms: CD   and  CE  

>  <TORSDO>
F 16

>  <BEGIN_>
RES LYS A 131

$$$$
ligand_89_pose_9_2HRL.pdbqt
 OpenBabel07062320523D

  6  5  0  0  0  0  0  0  0  0999 V2000
   33.1930   34.6630    9.2900 C   0  0  0  0  0  0  0  0  0  0  0  0
   32.0600   35.3600   10.0340 C   0  0  0  0  0  0  0  0  0  0  0  0
   30.7480   35.3340    9.2940 C   0  0  0  0  0  0  0  0  0  0  0  0
   30.2540   36.7480    9.0280 C   0  0  0  0  0  0  0  0  0  0  0  0
   29.1980   36.7470    7.9390 C   0  0  0  0  0  0  0  0  0  0  0  0
   29.1460   35.4310    7.2430 N   0  0  0  0  0  0  0  0  0  0  0  0
  1  2  1  0  0  0  0
  3  2  1  0  0  0  0
  4  3  1  0  0  0  0
  5  4  1  0  0  0  0
  6  5  1  0  0  0  0
M  END
>  <EGIN_R>
ES LYS A 135

>  <REMARK>
  4 active torsions:
  status: ('A' for Active; 'I' for Inactive)
    5  A    between atoms: CA   and  CB  
    6  A    between atoms: CB   and  CG  
    7  A    between atoms: CG   and  CD  
    8  A    between atoms: CD   and  CE  

$$$$
