ligand_54_pose_2_2HRL.pdbqt
 OpenBabel07062320523D

 52 52  0  0  1  0  0  0  0  0999 V2000
   27.7950   34.9900   12.2090 O   0  0  0  0  0  0  0  0  0  0  0  0
   26.4820   35.1920   11.7570 C   0  0  0  0  0  0  0  0  0  0  0  0
   26.1150   36.3470   11.0340 N   0  0  0  0  0  0  0  0  0  0  0  0
   26.9100   37.0390   10.8500 H   0  0  0  0  0  0  0  0  0  0  0  0
   25.6490   34.3210   12.0140 O   0  0  0  0  0  0  0  0  0  0  0  0
   24.8230   36.6860   10.5290 C   0  0  0  0  0  0  0  0  0  0  0  0
   24.6180   36.1520    9.1400 C   0  0  2  0  0  0  0  0  0  0  0  0
   25.4220   37.0640    8.2170 C   0  0  2  0  0  0  0  0  0  0  0  0
   26.6180   36.3680    7.6460 C   0  0  2  0  0  0  0  0  0  0  0  0
   28.6790   35.5630    8.3410 C   0  0  2  0  0  0  0  0  0  0  0  0
   29.1010   35.5530    6.9080 C   0  0  0  0  0  0  0  0  0  0  0  0
   27.3080   35.6070    8.5430 O   0  0  0  0  0  0  0  0  0  0  0  0
   28.4130   36.5650    6.0390 C   0  0  1  0  0  0  0  0  0  0  0  0
   27.5020   37.3820    6.9280 C   0  0  1  0  0  0  0  0  0  0  0  0
   29.3390   36.5760    9.0400 O   0  0  0  0  0  0  0  0  0  0  0  0
   29.9350   36.1220    9.7070 H   0  0  0  0  0  0  0  0  0  0  0  0
   29.1330   34.2680    8.9240 C   0  0  0  0  0  0  0  0  0  0  0  0
   30.3310   33.9170    8.8640 O   0  0  0  0  0  0  0  0  0  0  0  0
   28.1830   33.4370    9.5480 O   0  0  0  0  0  0  0  0  0  0  0  0
   28.5550   32.7930   10.2440 H   0  0  0  0  0  0  0  0  0  0  0  0
   29.2930   37.3530    5.3080 O   0  0  0  0  0  0  0  0  0  0  0  0
   30.0330   37.5910    5.9230 H   0  0  0  0  0  0  0  0  0  0  0  0
   26.6340   38.2550    6.1650 N   0  0  0  0  0  0  0  0  0  0  0  0
   27.0060   39.6120    5.9720 C   0  0  0  0  0  0  0  0  0  0  0  0
   25.7400   37.9520    5.7410 H   0  0  0  0  0  0  0  0  0  0  0  0
   26.1840   40.5730    5.2090 C   0  0  0  0  0  0  0  0  0  0  0  0
   28.0910   40.0160    6.4760 O   0  0  0  0  0  0  0  0  0  0  0  0
   25.7610   38.2100    8.9180 O   0  0  0  0  0  0  0  0  0  0  0  0
   25.0170   38.5490    9.4860 H   0  0  0  0  0  0  0  0  0  0  0  0
   23.3050   36.2590    8.7620 O   0  0  0  0  0  0  0  0  0  0  0  0
   23.1890   36.6260    7.8480 H   0  0  0  0  0  0  0  0  0  0  0  0
   28.1550   35.3290   13.5450 C   0  0  0  0  0  0  0  0  0  0  0  0
   29.0030   34.2630   14.1070 C   0  0  0  0  0  0  0  0  0  0  0  0
   28.5160   33.3400   15.0370 C   0  0  0  0  0  0  0  0  0  0  0  0
   30.2720   33.9280   13.9190 N   0  0  0  0  0  0  0  0  0  0  0  0
   29.5140   32.4940   15.3650 N   0  0  0  0  0  0  0  0  0  0  0  0
   30.5590   32.8650   14.6820 N   0  0  0  0  0  0  0  0  0  0  0  0
   29.3740   31.4150   16.3020 C   0  0  0  0  0  0  0  0  0  0  0  0
   28.6380   30.2260   15.7310 C   0  0  0  0  0  0  0  0  0  0  0  0
   27.2740   30.0430   16.3200 C   0  0  0  0  0  0  0  0  0  0  0  0
   27.2080   28.7700   16.8750 O   0  0  0  0  0  0  0  0  0  0  0  0
   27.4040   28.8340   18.2600 C   0  0  0  0  0  0  0  0  0  0  0  0
   26.3360   29.6560   18.9330 C   0  0  0  0  0  0  0  0  0  0  0  0
   26.2710   30.1800   15.3960 O   0  0  0  0  0  0  0  0  0  0  0  0
   25.4970   31.3180   15.6190 C   0  0  0  0  0  0  0  0  0  0  0  0
   24.7760   31.6790   14.3250 C   0  0  0  0  0  0  0  0  0  0  0  0
   29.8670   25.5550   16.9770 C   0  0  0  0  0  0  0  0  0  0  0  0
   28.3450   25.7220   17.0260 C   0  0  0  0  0  0  0  0  0  0  0  0
   27.6010   24.4030   16.8830 C   0  0  0  0  0  0  0  0  0  0  0  0
   26.6760   24.1460   18.0400 C   0  0  0  0  0  0  0  0  0  0  0  0
   26.1130   25.4700   18.5460 C   0  0  0  0  0  0  0  0  0  0  0  0
   24.8440   25.7930   17.8520 N   0  0  0  0  0  0  0  0  0  0  0  0
  1 32  1  0  0  0  0
  2  5  2  0  0  0  0
  2  1  1  0  0  0  0
  3  2  1  0  0  0  0
  4  3  1  0  0  0  0
  6  3  1  0  0  0  0
  7  6  1  1  0  0  0
  8 28  1  1  0  0  0
  8  7  1  0  0  0  0
  9  8  1  1  0  0  0
  9 12  1  0  0  0  0
 10 12  1  0  0  0  0
 10 17  1  1  0  0  0
 10 15  1  0  0  0  0
 11 10  1  0  0  0  0
 13 21  1  1  0  0  0
 13 11  1  0  0  0  0
 13 14  1  0  0  0  0
 14 23  1  6  0  0  0
 14  9  1  0  0  0  0
 15 16  1  0  0  0  0
 17 19  1  0  0  0  0
 18 17  2  0  0  0  0
 19 20  1  0  0  0  0
 21 22  1  0  0  0  0
 24 23  1  0  0  0  0
 24 27  2  0  0  0  0
 25 23  1  0  0  0  0
 26 24  1  0  0  0  0
 28 29  1  0  0  0  0
 30  7  1  0  0  0  0
 31 30  1  0  0  0  0
 32 33  1  0  0  0  0
 33 34  2  0  0  0  0
 34 36  1  0  0  0  0
 35 33  1  0  0  0  0
 35 37  2  0  0  0  0
 36 38  1  0  0  0  0
 37 36  1  0  0  0  0
 39 38  1  0  0  0  0
 39 40  1  0  0  0  0
 40 41  1  0  0  0  0
 41 42  1  0  0  0  0
 42 43  1  0  0  0  0
 44 45  1  0  0  0  0
 44 40  1  0  0  0  0
 46 45  1  0  0  0  0
 47 48  1  0  0  0  0
 49 48  1  0  0  0  0
 49 50  1  0  0  0  0
 50 51  1  0  0  0  0
 52 51  1  0  0  0  0
M  END
>  <REMARK>
 VINA RESULT:    -4.432      4.713     11.505
 INTER + INTRA:         -15.163
 INTER:                 -10.713
 INTRA:                  -4.449
 UNBOUND:                -5.938
 SMILES CCOC(CCn1cc(COC(=O)NC[C@@H](O)C(O)[C@@H]2O[C@@](O)(C(=O)O)C[C@H](O)[C@H]2NC(C)=O)nn1)OCC
 SMILES IDX 11 1 12 2 14 3 13 5 15 6 16 7 18 8 20 9 22 10 27 11 21 12
 SMILES IDX 28 13 30 14 23 15 24 17 25 18 26 19 29 21 31 23 32 24 33 26
 SMILES IDX 34 27 19 28 17 30 10 32 9 33 8 34 35 35 7 36 36 37 6 38 5 39
 SMILES IDX 4 40 3 41 2 42 1 43 37 44 38 45 39 46
 H PARENT 14 4 23 16 26 20 29 22 31 25 19 29 17 31
 Flexibility Score: inf
  4 active torsions:
  status: ('A' for Active; 'I' for Inactive)
    1  A    between atoms: CA   and  CB  
    2  A    between atoms: CB   and  CG  
    3  A    between atoms: CG   and  CD  
    4  A    between atoms: CD   and  CE  

>  <TORSDO>
F 21

>  <BEGIN_>
RES LYS A 131

$$$$
ligand_54_pose_2_2HRL.pdbqt
 OpenBabel07062320523D

  6  5  0  0  0  0  0  0  0  0999 V2000
   33.1930   34.6630    9.2900 C   0  0  0  0  0  0  0  0  0  0  0  0
   32.0600   35.3600   10.0340 C   0  0  0  0  0  0  0  0  0  0  0  0
   32.4970   36.0190   11.3170 C   0  0  0  0  0  0  0  0  0  0  0  0
   31.9840   37.4490   11.3870 C   0  0  0  0  0  0  0  0  0  0  0  0
   30.9550   37.5920   12.4930 C   0  0  0  0  0  0  0  0  0  0  0  0
   31.5520   37.2860   13.8230 N   0  0  0  0  0  0  0  0  0  0  0  0
  1  2  1  0  0  0  0
  2  3  1  0  0  0  0
  3  4  1  0  0  0  0
  4  5  1  0  0  0  0
  5  6  1  0  0  0  0
M  END
>  <EGIN_R>
ES LYS A 135

>  <REMARK>
  4 active torsions:
  status: ('A' for Active; 'I' for Inactive)
    5  A    between atoms: CA   and  CB  
    6  A    between atoms: CB   and  CG  
    7  A    between atoms: CG   and  CD  
    8  A    between atoms: CD   and  CE  

$$$$
