ligand_80_pose_17_2HRL.pdbqt
 OpenBabel07062320523D

 56 54  0  0  1  0  0  0  0  0999 V2000
   30.0640   32.5070   20.9090 O   0  0  0  0  0  0  0  0  0  0  0  0
   30.4030   33.5990   20.1490 C   0  0  0  0  0  0  0  0  0  0  0  0
   29.7440   33.8360   18.8960 N   0  0  0  0  0  0  0  0  0  0  0  0
   29.0120   33.1390   18.6230 H   0  0  0  0  0  0  0  0  0  0  0  0
   31.2860   34.4190   20.5080 O   0  0  0  0  0  0  0  0  0  0  0  0
   30.0730   34.9760   18.0610 C   0  0  0  0  0  0  0  0  0  0  0  0
   30.6490   34.4630   16.7640 C   0  0  2  0  0  0  0  0  0  0  0  0
   29.5790   34.0440   15.7790 C   0  0  2  0  0  0  0  0  0  0  0  0
   29.8320   34.6850   14.4050 C   0  0  2  0  0  0  0  0  0  0  0  0
   31.3530   36.2570   13.5590 C   0  0  2  0  0  0  0  0  0  0  0  0
   30.2460   36.6830   12.6470 C   0  0  0  0  0  0  0  0  0  0  0  0
   31.0390   35.2690   14.4500 O   0  0  0  0  0  0  0  0  0  0  0  0
   29.0280   36.8960   13.5300 C   0  0  1  0  0  0  0  0  0  0  0  0
   28.6550   35.5580   14.1180 C   0  0  1  0  0  0  0  0  0  0  0  0
   31.7280   37.3720   14.3380 O   0  0  0  0  0  0  0  0  0  0  0  0
   32.7070   37.2770   14.4670 H   0  0  0  0  0  0  0  0  0  0  0  0
   32.5640   35.8280   12.8150 C   0  0  0  0  0  0  0  0  0  0  0  0
   32.9290   36.4770   11.8110 O   0  0  0  0  0  0  0  0  0  0  0  0
   33.3180   34.7200   13.1970 O   0  0  0  0  0  0  0  0  0  0  0  0
   34.1480   34.5170   12.6220 H   0  0  0  0  0  0  0  0  0  0  0  0
   29.4120   37.7460   14.5620 O   0  0  0  0  0  0  0  0  0  0  0  0
   28.6160   37.9140   15.1210 H   0  0  0  0  0  0  0  0  0  0  0  0
   27.8290   34.8810   13.1340 N   0  0  0  0  0  0  0  0  0  0  0  0
   26.4550   34.5860   13.3340 C   0  0  0  0  0  0  0  0  0  0  0  0
   28.2740   34.5890   12.2110 H   0  0  0  0  0  0  0  0  0  0  0  0
   25.7160   33.8890   12.2550 C   0  0  0  0  0  0  0  0  0  0  0  0
   25.9200   34.9270   14.4210 O   0  0  0  0  0  0  0  0  0  0  0  0
   28.3710   34.5500   16.2700 O   0  0  0  0  0  0  0  0  0  0  0  0
   27.5850   34.0490   15.9630 H   0  0  0  0  0  0  0  0  0  0  0  0
   31.5480   33.4260   16.9850 O   0  0  0  0  0  0  0  0  0  0  0  0
   32.0230   33.5100   17.8380 H   0  0  0  0  0  0  0  0  0  0  0  0
   30.1550   31.1860   20.4010 C   0  0  0  0  0  0  0  0  0  0  0  0
   29.3460   31.0300   19.1650 C   0  0  0  0  0  0  0  0  0  0  0  0
   27.9500   30.9480   19.1390 C   0  0  0  0  0  0  0  0  0  0  0  0
   29.7260   30.9330   17.8780 N   0  0  0  0  0  0  0  0  0  0  0  0
   27.5460   30.8060   17.8660 N   0  0  0  0  0  0  0  0  0  0  0  0
   28.6400   30.8020   17.1370 N   0  0  0  0  0  0  0  0  0  0  0  0
   26.1850   30.6750   17.3960 *   0  0  0  0  0  0  0  0  0  0  0  0
   25.8370   31.7570   16.4320 C   0  0  0  0  0  0  0  0  0  0  0  0
   25.1530   31.7430   15.1930 N   0  0  0  0  0  0  0  0  0  0  0  0
   26.2380   32.8830   16.8180 O   0  0  0  0  0  0  0  0  0  0  0  0
   25.2400   32.5660   14.5600 H   0  0  0  0  0  0  0  0  0  0  0  0
   24.3180   30.6940   14.6710 C   0  0  0  0  0  0  0  0  0  0  0  0
   24.0100   29.4910   15.2780 C   0  0  0  0  0  0  0  0  0  0  0  0
   23.8230   31.0370   13.4270 C   0  0  0  0  0  0  0  0  0  0  0  0
   23.1940   28.6240   14.6200 C   0  0  0  0  0  0  0  0  0  0  0  0
   22.9970   30.1570   12.7630 C   0  0  0  0  0  0  0  0  0  0  0  0
   22.6920   28.9590   13.3690 C   0  0  0  0  0  0  0  0  0  0  0  0
   24.4830   29.0190   16.6080 C   0  0  0  0  0  0  0  0  0  0  0  0
   25.9590   29.3000   16.8290 *   0  0  0  0  0  0  0  0  0  0  0  0
   29.8670   25.5550   16.9770 C   0  0  0  0  0  0  0  0  0  0  0  0
   28.3450   25.7220   17.0260 C   0  0  0  0  0  0  0  0  0  0  0  0
   27.6070   24.3940   17.1020 C   0  0  0  0  0  0  0  0  0  0  0  0
   26.3960   24.4690   17.9890 C   0  0  0  0  0  0  0  0  0  0  0  0
   25.2630   23.6540   17.3750 C   0  0  0  0  0  0  0  0  0  0  0  0
   24.0640   23.6920   18.2450 N   0  0  0  0  0  0  0  0  0  0  0  0
  2  5  2  0  0  0  0
  2  1  1  0  0  0  0
  3  2  1  0  0  0  0
  4  3  1  0  0  0  0
  6  3  1  0  0  0  0
  7 30  1  0  0  0  0
  7  6  1  1  0  0  0
  8 28  1  1  0  0  0
  8  7  1  0  0  0  0
  9 12  1  0  0  0  0
  9  8  1  1  0  0  0
 10 17  1  6  0  0  0
 10 15  1  0  0  0  0
 10 12  1  0  0  0  0
 11 13  1  0  0  0  0
 11 10  1  0  0  0  0
 13 14  1  0  0  0  0
 13 21  1  1  0  0  0
 14 23  1  6  0  0  0
 14  9  1  0  0  0  0
 15 16  1  0  0  0  0
 17 19  1  0  0  0  0
 18 17  2  0  0  0  0
 20 19  1  0  0  0  0
 21 22  1  0  0  0  0
 23 24  1  0  0  0  0
 24 27  2  0  0  0  0
 25 23  1  0  0  0  0
 26 24  1  0  0  0  0
 29 28  1  0  0  0  0
 30 31  1  0  0  0  0
 32  1  1  0  0  0  0
 33 32  1  0  0  0  0
 34 33  2  0  0  0  0
 35 33  1  0  0  0  0
 36 34  1  0  0  0  0
 37 36  2  0  0  0  0
 37 35  1  0  0  0  0
 39 41  2  0  0  0  0
 40 39  1  0  0  0  0
 42 40  1  0  0  0  0
 43 40  1  0  0  0  0
 43 44  1  0  0  0  0
 44 49  1  0  0  0  0
 45 43  2  0  0  0  0
 46 44  2  0  0  0  0
 47 48  2  0  0  0  0
 47 45  1  0  0  0  0
 48 46  1  0  0  0  0
 51 52  1  0  0  0  0
 52 53  1  0  0  0  0
 53 54  1  0  0  0  0
 55 54  1  0  0  0  0
 55 56  1  0  0  0  0
M  END
>  <REMARK>
 VINA RESULT:    -8.997      2.815      5.471
 INTER + INTRA:         -13.120
 INTER:                  -7.761
 INTRA:                  -5.358
 UNBOUND:                 4.555
 SMILES CC(=O)N[C@@H]1[C@@H](O)C[C@](O)(C(=O)O)O[C@H]1C(O)[C@H](O)CNC(=O)OCc1cn(C2CCc3ccccc3NC2=O)nn1
 SMILES IDX 24 1 22 2 21 3 23 5 20 6 18 7 16 8 15 9 9 10 8 11 14 12 6 13
 SMILES IDX 5 14 10 15 11 17 12 18 13 19 7 21 4 23 2 24 1 26 3 27 17 28
 SMILES IDX 19 30 25 32 26 33 27 34 42 35 28 36 41 37 29 38 39 40 38 41
 SMILES IDX 40 42 37 44 32 45 36 46 33 47 35 48 34 49 31 50 30 51
 H PARENT 21 4 10 16 13 20 7 22 4 25 17 29 19 31 38 43
 Flexibility Score: 80.00
  4 active torsions:
  status: ('A' for Active; 'I' for Inactive)
    1  A    between atoms: CA   and  CB  
    2  A    between atoms: CB   and  CG  
    3  A    between atoms: CG   and  CD  
    4  A    between atoms: CD   and  CE  

>  <TORSDO>
F 15

>  <BEGIN_>
RES LYS A 131

$$$$
ligand_80_pose_17_2HRL.pdbqt
 OpenBabel07062320523D

  6  5  0  0  0  0  0  0  0  0999 V2000
   33.1930   34.6630    9.2900 C   0  0  0  0  0  0  0  0  0  0  0  0
   32.0600   35.3600   10.0340 C   0  0  0  0  0  0  0  0  0  0  0  0
   30.7160   34.7100    9.8310 C   0  0  0  0  0  0  0  0  0  0  0  0
   30.2210   34.9320    8.4100 C   0  0  0  0  0  0  0  0  0  0  0  0
   28.7080   34.8520    8.3550 C   0  0  0  0  0  0  0  0  0  0  0  0
   28.1870   33.8590    9.3350 N   0  0  0  0  0  0  0  0  0  0  0  0
  1  2  1  0  0  0  0
  3  2  1  0  0  0  0
  4  3  1  0  0  0  0
  5  4  1  0  0  0  0
  5  6  1  0  0  0  0
M  END
>  <EGIN_R>
ES LYS A 135

>  <REMARK>
  4 active torsions:
  status: ('A' for Active; 'I' for Inactive)
    5  A    between atoms: CA   and  CB  
    6  A    between atoms: CB   and  CG  
    7  A    between atoms: CG   and  CD  
    8  A    between atoms: CD   and  CE  

$$$$
