ligand_3_pose_4_2HRL.pdbqt
 OpenBabel07062320523D

 49 50  0  0  1  0  0  0  0  0999 V2000
   25.9270   34.8510   15.5650 C   0  0  0  0  0  0  0  0  0  0  0  0
   27.4130   34.9970   15.3040 C   0  0  2  0  0  0  0  0  0  0  0  0
   28.1470   33.6860   15.4810 C   0  0  1  0  0  0  0  0  0  0  0  0
   29.3220   33.8010   16.3940 C   0  0  2  0  0  0  0  0  0  0  0  0
   31.2750   33.6610   15.0960 C   0  0  2  0  0  0  0  0  0  0  0  0
   31.4750   32.2190   15.4040 C   0  0  0  0  0  0  0  0  0  0  0  0
   30.4280   34.3590   15.8690 O   0  0  0  0  0  0  0  0  0  0  0  0
   30.3580   31.5760   16.1710 C   0  0  1  0  0  0  0  0  0  0  0  0
   29.6610   32.5190   17.0980 C   0  0  1  0  0  0  0  0  0  0  0  0
   30.8070   33.7230   13.7650 O   0  0  0  0  0  0  0  0  0  0  0  0
   31.5200   33.3230   13.1910 H   0  0  0  0  0  0  0  0  0  0  0  0
   32.5880   34.3620   15.0840 C   0  0  0  0  0  0  0  0  0  0  0  0
   32.8880   35.2450   15.9170 O   0  0  0  0  0  0  0  0  0  0  0  0
   33.5250   34.0400   14.1270 O   0  0  0  0  0  0  0  0  0  0  0  0
   34.3450   34.5960   13.9200 H   0  0  0  0  0  0  0  0  0  0  0  0
   29.4290   31.0020   15.2850 O   0  0  0  0  0  0  0  0  0  0  0  0
   29.7870   30.2190   14.8220 H   0  0  0  0  0  0  0  0  0  0  0  0
   30.5990   32.8520   18.1730 N   0  0  0  0  0  0  0  0  0  0  0  0
   30.5540   32.1950   19.4330 C   0  0  0  0  0  0  0  0  0  0  0  0
   31.3300   33.5830   18.0440 H   0  0  0  0  0  0  0  0  0  0  0  0
   31.4980   32.5180   20.5360 C   0  0  0  0  0  0  0  0  0  0  0  0
   29.6970   31.2990   19.6640 O   0  0  0  0  0  0  0  0  0  0  0  0
   27.1920   32.7960   15.9980 O   0  0  0  0  0  0  0  0  0  0  0  0
   27.1290   33.0310   16.9720 H   0  0  0  0  0  0  0  0  0  0  0  0
   27.9560   36.0390   16.0360 O   0  0  0  0  0  0  0  0  0  0  0  0
   27.3820   36.3350   16.7720 H   0  0  0  0  0  0  0  0  0  0  0  0
   25.1290   34.9020   14.3800 N   0  0  0  0  0  0  0  0  0  0  0  0
   24.7310   33.7510   13.6470 C   0  0  0  0  0  0  0  0  0  0  0  0
   24.8010   35.8230   14.0050 H   0  0  0  0  0  0  0  0  0  0  0  0
   25.0630   32.6140   14.0030 O   0  0  0  0  0  0  0  0  0  0  0  0
   23.9550   33.8590   12.4980 O   0  0  0  0  0  0  0  0  0  0  0  0
   23.7590   35.1270   11.8920 C   0  0  0  0  0  0  0  0  0  0  0  0
   24.6650   35.2030   10.7240 C   0  0  0  0  0  0  0  0  0  0  0  0
   26.0070   34.8950   10.6900 C   0  0  0  0  0  0  0  0  0  0  0  0
   24.3150   35.5960    9.4830 N   0  0  0  0  0  0  0  0  0  0  0  0
   26.4080   35.1140    9.4270 N   0  0  0  0  0  0  0  0  0  0  0  0
   25.3840   35.5340    8.7140 N   0  0  0  0  0  0  0  0  0  0  0  0
   27.7350   34.9200    8.9520 C   0  0  0  0  0  0  0  0  0  0  0  0
   28.0850   35.4060    7.7050 C   0  0  0  0  0  0  0  0  0  0  0  0
   28.6700   34.2520    9.7220 C   0  0  0  0  0  0  0  0  0  0  0  0
   29.3830   35.2000    7.2730 C   0  0  0  0  0  0  0  0  0  0  0  0
   29.9530   34.0560    9.2780 C   0  0  0  0  0  0  0  0  0  0  0  0
   30.3080   34.5380    8.0370 C   0  0  0  0  0  0  0  0  0  0  0  0
   29.8670   25.5550   16.9770 C   0  0  0  0  0  0  0  0  0  0  0  0
   28.3450   25.7220   17.0260 C   0  0  0  0  0  0  0  0  0  0  0  0
   27.5990   24.4190   16.7830 C   0  0  0  0  0  0  0  0  0  0  0  0
   26.2570   24.3990   17.4610 C   0  0  0  0  0  0  0  0  0  0  0  0
   26.2480   25.4130   18.6000 C   0  0  0  0  0  0  0  0  0  0  0  0
   25.2530   25.0280   19.6290 N   0  0  0  0  0  0  0  0  0  0  0  0
  2  3  1  0  0  0  0
  2  1  1  1  0  0  0
  2 25  1  0  0  0  0
  3 23  1  1  0  0  0
  4  3  1  6  0  0  0
  4  9  1  0  0  0  0
  5 10  1  6  0  0  0
  5  6  1  0  0  0  0
  5  7  1  0  0  0  0
  6  8  1  0  0  0  0
  7  4  1  0  0  0  0
  8 16  1  6  0  0  0
  8  9  1  0  0  0  0
  9 18  1  1  0  0  0
 11 10  1  0  0  0  0
 12  5  1  0  0  0  0
 12 13  2  0  0  0  0
 14 12  1  0  0  0  0
 15 14  1  0  0  0  0
 17 16  1  0  0  0  0
 18 19  1  0  0  0  0
 19 22  2  0  0  0  0
 19 21  1  0  0  0  0
 20 18  1  0  0  0  0
 23 24  1  0  0  0  0
 25 26  1  0  0  0  0
 27  1  1  0  0  0  0
 28 30  2  0  0  0  0
 28 27  1  0  0  0  0
 29 27  1  0  0  0  0
 31 28  1  0  0  0  0
 32 31  1  0  0  0  0
 33 32  1  0  0  0  0
 34 33  2  0  0  0  0
 35 33  1  0  0  0  0
 36 34  1  0  0  0  0
 37 36  1  0  0  0  0
 37 35  2  0  0  0  0
 38 36  1  0  0  0  0
 38 40  2  0  0  0  0
 39 38  1  0  0  0  0
 41 39  2  0  0  0  0
 41 43  1  0  0  0  0
 42 40  1  0  0  0  0
 43 42  2  0  0  0  0
 44 45  1  0  0  0  0
 46 45  1  0  0  0  0
 46 47  1  0  0  0  0
 47 48  1  0  0  0  0
 48 49  1  0  0  0  0
M  END
>  <REMARK>
 VINA RESULT:    -5.776      5.268     10.722
 INTER + INTRA:         -14.482
 INTER:                 -10.775
 INTRA:                  -3.707
 UNBOUND:                -4.485
 SMILES CC(=O)N[C@@H]1[C@@H](O)C[C@](O)(C(=O)O)O[C@H]1C(O)[C@H](O)CNC(=O)OCc1cn(-c2ccccc2)nn1
 SMILES IDX 20 1 18 2 16 3 15 4 9 5 8 6 14 7 6 8 5 9 10 10 11 12 12 13
 SMILES IDX 13 14 7 16 4 18 2 19 1 21 3 22 17 23 19 25 21 27 22 28 23 30
 SMILES IDX 24 31 25 32 26 33 27 34 36 35 28 36 35 37 29 38 30 39 34 40
 SMILES IDX 31 41 33 42 32 43
 H PARENT 10 11 13 15 7 17 4 20 17 24 19 26 21 29
 Flexibility Score: inf
  4 active torsions:
  status: ('A' for Active; 'I' for Inactive)
    1  A    between atoms: CA   and  CB  
    2  A    between atoms: CB   and  CG  
    3  A    between atoms: CG   and  CD  
    4  A    between atoms: CD   and  CE  

>  <TORSDO>
F 15

>  <BEGIN_>
RES LYS A 131

$$$$
ligand_3_pose_4_2HRL.pdbqt
 OpenBabel07062320523D

  6  5  0  0  0  0  0  0  0  0999 V2000
   33.1930   34.6630    9.2900 C   0  0  0  0  0  0  0  0  0  0  0  0
   32.0600   35.3600   10.0340 C   0  0  0  0  0  0  0  0  0  0  0  0
   32.4680   35.9070   11.3770 C   0  0  0  0  0  0  0  0  0  0  0  0
   31.6740   37.1610   11.7100 C   0  0  0  0  0  0  0  0  0  0  0  0
   31.5960   37.3590   13.2120 C   0  0  0  0  0  0  0  0  0  0  0  0
   30.2120   37.1340   13.7110 N   0  0  0  0  0  0  0  0  0  0  0  0
  1  2  1  0  0  0  0
  2  3  1  0  0  0  0
  3  4  1  0  0  0  0
  4  5  1  0  0  0  0
  5  6  1  0  0  0  0
M  END
>  <EGIN_R>
ES LYS A 135

>  <REMARK>
  4 active torsions:
  status: ('A' for Active; 'I' for Inactive)
    5  A    between atoms: CA   and  CB  
    6  A    between atoms: CB   and  CG  
    7  A    between atoms: CG   and  CD  
    8  A    between atoms: CD   and  CE  

$$$$
