ligand_64_pose_18_2HRL.pdbqt
 OpenBabel07062320523D

 59 61  0  0  1  0  0  0  0  0999 V2000
   25.3530   40.5190    7.3560 N   0  0  0  0  0  0  0  0  0  0  0  0
   23.9430   40.5520    7.1160 C   0  0  0  0  0  0  0  0  0  0  0  0
   23.3940   41.6710    6.9460 O   0  0  0  0  0  0  0  0  0  0  0  0
   25.7530   39.5460    7.4920 H   0  0  0  0  0  0  0  0  0  0  0  0
   26.1760   41.6960    7.4120 C   0  0  0  0  0  0  0  0  0  0  0  0
   26.8040   41.8540    8.7630 C   0  0  2  0  0  0  0  0  0  0  0  0
   27.6550   40.6200    9.0360 C   0  0  2  0  0  0  0  0  0  0  0  0
   28.4870   40.2990    7.8440 C   0  0  2  0  0  0  0  0  0  0  0  0
   28.7260   38.6700    6.2020 C   0  0  2  0  0  0  0  0  0  0  0  0
   29.6440   39.7400    5.6230 C   0  0  0  0  0  0  0  0  0  0  0  0
   27.9830   39.1150    7.2640 O   0  0  0  0  0  0  0  0  0  0  0  0
   30.6070   40.1330    6.6860 C   0  0  1  0  0  0  0  0  0  0  0  0
   29.9380   40.0510    8.0760 C   0  0  1  0  0  0  0  0  0  0  0  0
   29.5990   37.6200    6.5780 O   0  0  0  0  0  0  0  0  0  0  0  0
   29.7890   37.1300    5.7360 H   0  0  0  0  0  0  0  0  0  0  0  0
   27.7980   38.1510    5.1800 C   0  0  0  0  0  0  0  0  0  0  0  0
   27.6880   38.7300    4.0840 O   0  0  0  0  0  0  0  0  0  0  0  0
   27.0460   37.0230    5.4260 O   0  0  0  0  0  0  0  0  0  0  0  0
   26.5270   36.8810    6.2880 H   0  0  0  0  0  0  0  0  0  0  0  0
   31.7880   39.4240    6.6690 O   0  0  0  0  0  0  0  0  0  0  0  0
   31.9570   39.0470    5.7770 H   0  0  0  0  0  0  0  0  0  0  0  0
   30.6070   40.9730    8.9540 N   0  0  0  0  0  0  0  0  0  0  0  0
   31.6190   40.5270    9.8810 C   0  0  0  0  0  0  0  0  0  0  0  0
   30.3760   41.9690    8.9240 H   0  0  0  0  0  0  0  0  0  0  0  0
   32.3270   41.4360   10.7950 C   0  0  0  0  0  0  0  0  0  0  0  0
   31.8620   39.2840    9.8580 O   0  0  0  0  0  0  0  0  0  0  0  0
   26.9450   39.5570    9.5240 O   0  0  0  0  0  0  0  0  0  0  0  0
   27.3590   39.0630   10.2540 H   0  0  0  0  0  0  0  0  0  0  0  0
   25.7310   41.8800    9.6780 O   0  0  0  0  0  0  0  0  0  0  0  0
   25.0050   42.3470    9.2150 H   0  0  0  0  0  0  0  0  0  0  0  0
   23.2070   39.3760    7.0750 O   0  0  0  0  0  0  0  0  0  0  0  0
   22.9280   38.7270    8.2990 C   0  0  0  0  0  0  0  0  0  0  0  0
   24.1080   37.8850    8.6240 C   0  0  0  0  0  0  0  0  0  0  0  0
   24.4760   37.4010    9.8860 C   0  0  0  0  0  0  0  0  0  0  0  0
   25.0740   37.3990    7.8080 N   0  0  0  0  0  0  0  0  0  0  0  0
   25.6020   36.6730    9.7850 N   0  0  0  0  0  0  0  0  0  0  0  0
   25.9420   36.6890    8.5180 N   0  0  0  0  0  0  0  0  0  0  0  0
   26.2450   36.0320   10.9050 C   0  0  0  0  0  0  0  0  0  0  0  0
   25.5720   35.1600   11.7210 C   0  0  0  0  0  0  0  0  0  0  0  0
   27.5820   36.2900   11.1880 C   0  0  0  0  0  0  0  0  0  0  0  0
   26.1570   34.5310   12.8000 C   0  0  0  0  0  0  0  0  0  0  0  0
   28.1760   35.6720   12.2580 C   0  0  0  0  0  0  0  0  0  0  0  0
   27.4480   34.8220   13.0190 N   0  0  0  0  0  0  0  0  0  0  0  0
   25.4230   33.6090   13.6510 C   0  0  0  0  0  0  0  0  0  0  0  0
   25.7540   33.4970   14.8480 O   0  0  0  0  0  0  0  0  0  0  0  0
   24.3720   32.8600   13.1670 O   0  0  0  0  0  0  0  0  0  0  0  0
   24.4050   31.8360   13.0980 H   0  0  0  0  0  0  0  0  0  0  0  0
   29.5910   35.9260   12.5820 C   0  0  0  0  0  0  0  0  0  0  0  0
   30.0380   37.2300   12.5580 C   0  0  0  0  0  0  0  0  0  0  0  0
   30.4270   34.8930   12.8960 C   0  0  0  0  0  0  0  0  0  0  0  0
   31.3580   37.4710   12.8600 C   0  0  0  0  0  0  0  0  0  0  0  0
   31.7450   35.1790   13.1940 C   0  0  0  0  0  0  0  0  0  0  0  0
   32.2410   36.4640   13.1840 C   0  0  0  0  0  0  0  0  0  0  0  0
   29.8670   25.5550   16.9770 C   0  0  0  0  0  0  0  0  0  0  0  0
   28.3450   25.7220   17.0260 C   0  0  0  0  0  0  0  0  0  0  0  0
   27.6010   24.4030   16.8880 C   0  0  0  0  0  0  0  0  0  0  0  0
   26.5130   24.2560   17.9150 C   0  0  0  0  0  0  0  0  0  0  0  0
   25.1530   24.3950   17.2390 C   0  0  0  0  0  0  0  0  0  0  0  0
   24.4520   23.0900   17.2090 N   0  0  0  0  0  0  0  0  0  0  0  0
  1  5  1  0  0  0  0
  1  4  1  0  0  0  0
  2  1  1  0  0  0  0
  3  2  2  0  0  0  0
  6  5  1  6  0  0  0
  6  7  1  0  0  0  0
  6 29  1  0  0  0  0
  7 27  1  6  0  0  0
  8 13  1  0  0  0  0
  8  7  1  1  0  0  0
  9 16  1  6  0  0  0
  9 14  1  0  0  0  0
  9 11  1  0  0  0  0
 10  9  1  0  0  0  0
 10 12  1  0  0  0  0
 11  8  1  0  0  0  0
 12 20  1  1  0  0  0
 12 13  1  0  0  0  0
 13 22  1  1  0  0  0
 15 14  1  0  0  0  0
 16 18  1  0  0  0  0
 17 16  2  0  0  0  0
 18 19  1  0  0  0  0
 21 20  1  0  0  0  0
 22 23  1  0  0  0  0
 23 25  1  0  0  0  0
 24 22  1  0  0  0  0
 26 23  2  0  0  0  0
 27 28  1  0  0  0  0
 30 29  1  0  0  0  0
 31  2  1  0  0  0  0
 31 32  1  0  0  0  0
 32 33  1  0  0  0  0
 33 34  2  0  0  0  0
 35 37  2  0  0  0  0
 35 33  1  0  0  0  0
 36 34  1  0  0  0  0
 36 38  1  0  0  0  0
 37 36  1  0  0  0  0
 38 40  2  0  0  0  0
 38 39  1  0  0  0  0
 39 41  2  0  0  0  0
 40 42  1  0  0  0  0
 41 43  1  0  0  0  0
 41 44  1  0  0  0  0
 42 48  1  0  0  0  0
 42 43  2  0  0  0  0
 44 45  2  0  0  0  0
 46 44  1  0  0  0  0
 47 46  1  0  0  0  0
 48 50  1  0  0  0  0
 49 48  2  0  0  0  0
 49 51  1  0  0  0  0
 50 52  2  0  0  0  0
 51 53  2  0  0  0  0
 53 52  1  0  0  0  0
 54 55  1  0  0  0  0
 56 55  1  0  0  0  0
 56 57  1  0  0  0  0
 58 57  1  0  0  0  0
 59 58  1  0  0  0  0
M  END
>  <REMARK>
 VINA RESULT:    -5.849      3.356      8.206
 INTER + INTRA:         -16.195
 INTER:                  -9.426
 INTRA:                  -6.769
 UNBOUND:                -5.216
 SMILES CC(=O)N[C@@H]1[C@@H](O)C[C@](O)(C(=O)O)O[C@H]1C(O)[C@H](O)CNC(=O)OCc1cn(-c2cc(C(=O)O)nc(-c3ccccc3)c2)nn1
 SMILES IDX 21 1 22 2 23 3 20 5 18 6 16 7 15 8 9 9 8 10 14 11 6 12 5 13
 SMILES IDX 10 14 11 16 12 17 13 18 7 20 4 22 2 23 1 25 3 26 17 27 19 29
 SMILES IDX 24 31 25 32 26 33 27 34 45 35 28 36 44 37 29 38 30 39 43 40
 SMILES IDX 31 41 36 42 35 43 32 44 33 45 34 46 37 48 38 49 42 50 39 51
 SMILES IDX 41 52 40 53
 H PARENT 21 4 10 15 13 19 7 21 4 24 17 28 19 30 34 47
 Flexibility Score: inf
  4 active torsions:
  status: ('A' for Active; 'I' for Inactive)
    1  A    between atoms: CA   and  CB  
    2  A    between atoms: CB   and  CG  
    3  A    between atoms: CG   and  CD  
    4  A    between atoms: CD   and  CE  

>  <TORSDO>
F 18

>  <BEGIN_>
RES LYS A 131

$$$$
ligand_64_pose_18_2HRL.pdbqt
 OpenBabel07062320523D

  6  5  0  0  0  0  0  0  0  0999 V2000
   33.1930   34.6630    9.2900 C   0  0  0  0  0  0  0  0  0  0  0  0
   32.0600   35.3600   10.0340 C   0  0  0  0  0  0  0  0  0  0  0  0
   30.8740   35.6820    9.1610 C   0  0  0  0  0  0  0  0  0  0  0  0
   30.4040   34.4420    8.4160 C   0  0  0  0  0  0  0  0  0  0  0  0
   28.8900   34.4110    8.3370 C   0  0  0  0  0  0  0  0  0  0  0  0
   28.3140   33.5620    9.4160 N   0  0  0  0  0  0  0  0  0  0  0  0
  1  2  1  0  0  0  0
  3  2  1  0  0  0  0
  4  3  1  0  0  0  0
  5  4  1  0  0  0  0
  5  6  1  0  0  0  0
M  END
>  <EGIN_R>
ES LYS A 135

>  <REMARK>
  4 active torsions:
  status: ('A' for Active; 'I' for Inactive)
    5  A    between atoms: CA   and  CB  
    6  A    between atoms: CB   and  CG  
    7  A    between atoms: CG   and  CD  
    8  A    between atoms: CD   and  CE  

$$$$
