ligand_43_pose_6_2HRL.pdbqt
 OpenBabel07062320523D

 49 49  0  0  1  0  0  0  0  0999 V2000
   27.5410   28.8460   19.6610 O   0  0  0  0  0  0  0  0  0  0  0  0
   28.1950   30.0370   19.4130 C   0  0  0  0  0  0  0  0  0  0  0  0
   29.4260   29.9680   18.6810 N   0  0  0  0  0  0  0  0  0  0  0  0
   29.7660   29.0370   18.3730 H   0  0  0  0  0  0  0  0  0  0  0  0
   27.7320   31.1540   19.8140 O   0  0  0  0  0  0  0  0  0  0  0  0
   30.1810   31.1350   18.3710 C   0  0  0  0  0  0  0  0  0  0  0  0
   30.4450   31.3190   16.8750 C   0  0  2  0  0  0  0  0  0  0  0  0
   30.3910   32.8050   16.6300 C   0  0  2  0  0  0  0  0  0  0  0  0
   30.5160   33.1900   15.1910 C   0  0  2  0  0  0  0  0  0  0  0  0
   31.6310   34.8730   14.0470 C   0  0  2  0  0  0  0  0  0  0  0  0
   30.7150   34.4820   12.9050 C   0  0  0  0  0  0  0  0  0  0  0  0
   31.6960   33.8510   14.9780 O   0  0  0  0  0  0  0  0  0  0  0  0
   29.2990   34.5100   13.4330 C   0  0  1  0  0  0  0  0  0  0  0  0
   29.3020   34.0760   14.8810 C   0  0  1  0  0  0  0  0  0  0  0  0
   31.2400   36.0830   14.6120 O   0  0  0  0  0  0  0  0  0  0  0  0
   31.8450   36.8030   14.3240 H   0  0  0  0  0  0  0  0  0  0  0  0
   32.9800   35.0810   13.4630 C   0  0  0  0  0  0  0  0  0  0  0  0
   34.0340   34.7940   14.0860 O   0  0  0  0  0  0  0  0  0  0  0  0
   33.1610   35.6140   12.1760 O   0  0  0  0  0  0  0  0  0  0  0  0
   33.0330   36.6160   12.0630 H   0  0  0  0  0  0  0  0  0  0  0  0
   28.8280   35.8090   13.3850 O   0  0  0  0  0  0  0  0  0  0  0  0
   29.5540   36.4170   13.1010 H   0  0  0  0  0  0  0  0  0  0  0  0
   28.1090   33.3210   15.2180 N   0  0  0  0  0  0  0  0  0  0  0  0
   27.0250   33.8670   15.9620 C   0  0  0  0  0  0  0  0  0  0  0  0
   27.9860   32.3120   14.9220 H   0  0  0  0  0  0  0  0  0  0  0  0
   25.8030   33.0790   16.3040 C   0  0  0  0  0  0  0  0  0  0  0  0
   27.1400   35.0680   16.3310 O   0  0  0  0  0  0  0  0  0  0  0  0
   31.4010   33.3670   17.4280 O   0  0  0  0  0  0  0  0  0  0  0  0
   31.4200   32.9650   18.3330 H   0  0  0  0  0  0  0  0  0  0  0  0
   29.5590   30.5910   16.1090 O   0  0  0  0  0  0  0  0  0  0  0  0
   29.5060   30.8450   15.1720 H   0  0  0  0  0  0  0  0  0  0  0  0
   27.3890   27.8940   18.6410 C   0  0  0  0  0  0  0  0  0  0  0  0
   26.6420   28.5690   17.5290 C   0  0  0  0  0  0  0  0  0  0  0  0
   25.2640   28.5300   17.3900 C   0  0  0  0  0  0  0  0  0  0  0  0
   27.0900   29.2980   16.5070 N   0  0  0  0  0  0  0  0  0  0  0  0
   24.9280   29.2300   16.2990 N   0  0  0  0  0  0  0  0  0  0  0  0
   26.0540   29.6840   15.7830 N   0  0  0  0  0  0  0  0  0  0  0  0
   23.6130   29.4840   15.7300 C   0  0  0  0  0  0  0  0  0  0  0  0
   23.7550   30.0270   14.3330 C   0  0  0  0  0  0  0  0  0  0  0  0
   23.3810   28.9940   13.2990 C   0  0  0  0  0  0  0  0  0  0  0  0
   22.2680   29.4620   12.3980 C   0  0  0  0  0  0  0  0  0  0  0  0
   21.8750   30.8440   12.7520 C   0  0  0  0  0  0  0  0  0  0  0  0
   20.7190   31.3670   12.4070 C   0  0  0  0  0  0  0  0  0  0  0  0
   29.8670   25.5550   16.9770 C   0  0  0  0  0  0  0  0  0  0  0  0
   28.3450   25.7220   17.0260 C   0  0  0  0  0  0  0  0  0  0  0  0
   27.6010   24.4020   16.8910 C   0  0  0  0  0  0  0  0  0  0  0  0
   26.4960   24.2700   17.9020 C   0  0  0  0  0  0  0  0  0  0  0  0
   25.1570   24.5690   17.2340 C   0  0  0  0  0  0  0  0  0  0  0  0
   24.3420   23.3360   17.1310 N   0  0  0  0  0  0  0  0  0  0  0  0
  2  1  1  0  0  0  0
  2  5  2  0  0  0  0
  3  2  1  0  0  0  0
  4  3  1  0  0  0  0
  6  3  1  0  0  0  0
  7  6  1  1  0  0  0
  8  7  1  0  0  0  0
  8 28  1  1  0  0  0
  9  8  1  1  0  0  0
 10 17  1  6  0  0  0
 10 15  1  0  0  0  0
 10 12  1  0  0  0  0
 11 13  1  0  0  0  0
 11 10  1  0  0  0  0
 12  9  1  0  0  0  0
 13 21  1  1  0  0  0
 13 14  1  0  0  0  0
 14  9  1  0  0  0  0
 14 23  1  6  0  0  0
 16 15  1  0  0  0  0
 17 18  2  0  0  0  0
 19 17  1  0  0  0  0
 20 19  1  0  0  0  0
 22 21  1  0  0  0  0
 23 24  1  0  0  0  0
 24 26  1  0  0  0  0
 24 27  2  0  0  0  0
 25 23  1  0  0  0  0
 28 29  1  0  0  0  0
 30  7  1  0  0  0  0
 31 30  1  0  0  0  0
 32  1  1  0  0  0  0
 33 32  1  0  0  0  0
 34 33  2  0  0  0  0
 35 33  1  0  0  0  0
 36 34  1  0  0  0  0
 37 36  1  0  0  0  0
 37 35  2  0  0  0  0
 38 36  1  0  0  0  0
 39 38  1  0  0  0  0
 40 39  1  0  0  0  0
 41 42  1  0  0  0  0
 41 40  1  0  0  0  0
 43 42  2  0  0  0  0
 44 45  1  0  0  0  0
 46 45  1  0  0  0  0
 46 47  1  0  0  0  0
 48 47  1  0  0  0  0
 49 48  1  0  0  0  0
M  END
>  <REMARK>
 VINA RESULT:    -5.028      3.382      7.553
 INTER + INTRA:         -14.664
 INTER:                  -9.406
 INTRA:                  -5.258
 UNBOUND:                -4.785
 SMILES C=CCCCCn1cc(COC(=O)NC[C@@H](O)C(O)[C@@H]2O[C@@](O)(C(=O)O)C[C@H](O)[C@H]2NC(C)=O)nn1
 SMILES IDX 11 1 12 2 14 3 13 5 15 6 16 7 18 8 20 9 22 10 27 11 21 12
 SMILES IDX 28 13 30 14 23 15 24 17 25 18 26 19 29 21 31 23 32 24 33 26
 SMILES IDX 34 27 19 28 17 30 10 32 9 33 8 34 35 35 7 36 36 37 6 38 5 39
 SMILES IDX 4 40 3 41 2 42 1 43
 H PARENT 14 4 23 16 26 20 29 22 31 25 19 29 17 31
 Flexibility Score: inf
  4 active torsions:
  status: ('A' for Active; 'I' for Inactive)
    1  A    between atoms: CA   and  CB  
    2  A    between atoms: CB   and  CG  
    3  A    between atoms: CG   and  CD  
    4  A    between atoms: CD   and  CE  

>  <TORSDO>
F 19

>  <BEGIN_>
RES LYS A 131

$$$$
ligand_43_pose_6_2HRL.pdbqt
 OpenBabel07062320523D

  6  5  0  0  0  0  0  0  0  0999 V2000
   33.1930   34.6630    9.2900 C   0  0  0  0  0  0  0  0  0  0  0  0
   32.0600   35.3600   10.0340 C   0  0  0  0  0  0  0  0  0  0  0  0
   30.8030   35.5080    9.2160 C   0  0  0  0  0  0  0  0  0  0  0  0
   30.1520   34.1540    8.9820 C   0  0  0  0  0  0  0  0  0  0  0  0
   28.6810   34.3200    8.6520 C   0  0  0  0  0  0  0  0  0  0  0  0
   27.8220   33.7640    9.7340 N   0  0  0  0  0  0  0  0  0  0  0  0
  1  2  1  0  0  0  0
  3  2  1  0  0  0  0
  4  3  1  0  0  0  0
  5  4  1  0  0  0  0
  5  6  1  0  0  0  0
M  END
>  <EGIN_R>
ES LYS A 135

>  <REMARK>
  4 active torsions:
  status: ('A' for Active; 'I' for Inactive)
    5  A    between atoms: CA   and  CB  
    6  A    between atoms: CB   and  CG  
    7  A    between atoms: CG   and  CD  
    8  A    between atoms: CD   and  CE  

$$$$
