ligand_73_pose_16_2HRL.pdbqt
 OpenBabel07062320523D

 54 55  0  0  1  0  0  0  0  0999 V2000
   24.9690   34.6220   13.2320 N   0  0  0  0  0  0  0  0  0  0  0  0
   23.5740   34.8390   13.0750 C   0  0  0  0  0  0  0  0  0  0  0  0
   22.9030   35.5250   13.9160 O   0  0  0  0  0  0  0  0  0  0  0  0
   25.4770   34.0680   12.5260 H   0  0  0  0  0  0  0  0  0  0  0  0
   25.6420   35.1890   14.3640 C   0  0  0  0  0  0  0  0  0  0  0  0
   26.6970   34.3550   14.9980 C   0  0  2  0  0  0  0  0  0  0  0  0
   28.0970   34.5800   14.4880 C   0  0  1  0  0  0  0  0  0  0  0  0
   29.1310   33.6840   15.0940 C   0  0  2  0  0  0  0  0  0  0  0  0
   29.5150   32.0000   16.6070 C   0  0  2  0  0  0  0  0  0  0  0  0
   30.7880   31.9320   15.7950 C   0  0  0  0  0  0  0  0  0  0  0  0
   28.6250   32.9590   16.1600 O   0  0  0  0  0  0  0  0  0  0  0  0
   31.4460   33.2710   15.7950 C   0  0  1  0  0  0  0  0  0  0  0  0
   30.4460   34.3330   15.3220 C   0  0  1  0  0  0  0  0  0  0  0  0
   29.8830   32.2960   17.9120 O   0  0  0  0  0  0  0  0  0  0  0  0
   30.8790   32.2770   17.9430 H   0  0  0  0  0  0  0  0  0  0  0  0
   28.9070   30.6460   16.5890 C   0  0  0  0  0  0  0  0  0  0  0  0
   28.2770   30.1990   17.5830 O   0  0  0  0  0  0  0  0  0  0  0  0
   29.0220   29.8440   15.4700 O   0  0  0  0  0  0  0  0  0  0  0  0
   29.7360   29.9540   14.7760 H   0  0  0  0  0  0  0  0  0  0  0  0
   31.8680   33.5240   17.1140 O   0  0  0  0  0  0  0  0  0  0  0  0
   31.6340   32.6990   17.6380 H   0  0  0  0  0  0  0  0  0  0  0  0
   30.9180   34.8080   14.0110 N   0  0  0  0  0  0  0  0  0  0  0  0
   31.8930   35.8170   13.8710 C   0  0  0  0  0  0  0  0  0  0  0  0
   30.5090   34.3760   13.1500 H   0  0  0  0  0  0  0  0  0  0  0  0
   32.3400   36.2700   12.5310 C   0  0  0  0  0  0  0  0  0  0  0  0
   32.3860   36.3370   14.8800 O   0  0  0  0  0  0  0  0  0  0  0  0
   28.1600   34.4350   13.1030 O   0  0  0  0  0  0  0  0  0  0  0  0
   28.2400   33.5120   12.8090 H   0  0  0  0  0  0  0  0  0  0  0  0
   26.3270   33.0180   14.7920 O   0  0  0  0  0  0  0  0  0  0  0  0
   27.0020   32.6180   14.1730 H   0  0  0  0  0  0  0  0  0  0  0  0
   22.9510   34.2850   11.9820 O   0  0  0  0  0  0  0  0  0  0  0  0
   22.2420   35.1000   11.1000 C   0  0  0  0  0  0  0  0  0  0  0  0
   23.1150   35.8870   10.1890 C   0  0  0  0  0  0  0  0  0  0  0  0
   24.2730   35.4770    9.5450 C   0  0  0  0  0  0  0  0  0  0  0  0
   22.9520   37.1670    9.8050 N   0  0  0  0  0  0  0  0  0  0  0  0
   24.7710   36.4830    8.8090 N   0  0  0  0  0  0  0  0  0  0  0  0
   23.9480   37.5030    8.9830 N   0  0  0  0  0  0  0  0  0  0  0  0
   25.9370   36.5030    7.9940 C   0  0  0  0  0  0  0  0  0  0  0  0
   26.7000   35.3640    7.8480 C   0  0  0  0  0  0  0  0  0  0  0  0
   26.3580   37.6310    7.3210 C   0  0  0  0  0  0  0  0  0  0  0  0
   27.8390   35.3610    7.0590 C   0  0  0  0  0  0  0  0  0  0  0  0
   27.4890   37.6770    6.5220 C   0  0  0  0  0  0  0  0  0  0  0  0
   28.2290   36.5040    6.4030 C   0  0  0  0  0  0  0  0  0  0  0  0
   27.9060   38.8390    5.8410 N   0  0  0  0  0  0  0  0  0  0  0  0
   28.9480   39.4010    6.1800 O   0  0  0  0  0  0  0  0  0  0  0  0
   27.1590   39.3330    4.8190 O   0  0  0  0  0  0  0  0  0  0  0  0
   29.3660   36.5530    5.5990 O   0  0  0  0  0  0  0  0  0  0  0  0
   29.7030   35.6710    5.1870 H   0  0  0  0  0  0  0  0  0  0  0  0
   29.8670   25.5550   16.9770 C   0  0  0  0  0  0  0  0  0  0  0  0
   28.3450   25.7220   17.0260 C   0  0  0  0  0  0  0  0  0  0  0  0
   27.6020   24.4000   16.9160 C   0  0  0  0  0  0  0  0  0  0  0  0
   26.1690   24.5170   17.3570 C   0  0  0  0  0  0  0  0  0  0  0  0
   25.8820   23.4780   18.4360 C   0  0  0  0  0  0  0  0  0  0  0  0
   24.4780   23.5860   18.9000 N   0  0  0  0  0  0  0  0  0  0  0  0
  1  5  1  0  0  0  0
  2  1  1  0  0  0  0
  2  3  2  0  0  0  0
  4  1  1  0  0  0  0
  6  5  1  6  0  0  0
  7 27  1  6  0  0  0
  7  6  1  0  0  0  0
  8  7  1  1  0  0  0
  8 13  1  0  0  0  0
  8 11  1  0  0  0  0
  9 16  1  6  0  0  0
  9 14  1  0  0  0  0
 10  9  1  0  0  0  0
 11  9  1  0  0  0  0
 12 10  1  0  0  0  0
 12 20  1  1  0  0  0
 13 22  1  6  0  0  0
 13 12  1  0  0  0  0
 14 15  1  0  0  0  0
 16 17  2  0  0  0  0
 18 16  1  0  0  0  0
 19 18  1  0  0  0  0
 20 21  1  0  0  0  0
 23 22  1  0  0  0  0
 23 26  2  0  0  0  0
 24 22  1  0  0  0  0
 25 23  1  0  0  0  0
 28 27  1  0  0  0  0
 29  6  1  0  0  0  0
 30 29  1  0  0  0  0
 31  2  1  0  0  0  0
 32 31  1  0  0  0  0
 33 32  1  0  0  0  0
 34 33  2  0  0  0  0
 35 33  1  0  0  0  0
 36 37  1  0  0  0  0
 36 34  1  0  0  0  0
 37 35  2  0  0  0  0
 38 36  1  0  0  0  0
 39 38  1  0  0  0  0
 40 38  2  0  0  0  0
 41 39  2  0  0  0  0
 42 40  1  0  0  0  0
 43 42  2  0  0  0  0
 43 41  1  0  0  0  0
 44 45  2  0  0  0  0
 44 42  1  0  0  0  0
 46 44  2  0  0  0  0
 47 43  1  0  0  0  0
 48 47  1  0  0  0  0
 49 50  1  0  0  0  0
 51 50  1  0  0  0  0
 51 52  1  0  0  0  0
 52 53  1  0  0  0  0
 53 54  1  0  0  0  0
M  END
>  <REMARK>
 VINA RESULT:    -3.930      3.956      8.731
 INTER + INTRA:         -14.458
 INTER:                 -10.346
 INTRA:                  -4.112
 UNBOUND:                -7.311
 SMILES CC(=O)N[C@@H]1[C@@H](O)C[C@](O)(C(=O)O)O[C@H]1C(O)[C@H](O)CNC(=O)OCc1cn(-c2ccc(O)c([N+](=O)[O-])c2)nn1
 SMILES IDX 21 1 22 2 23 3 20 5 18 6 16 7 15 8 9 9 8 10 14 11 6 12 5 13
 SMILES IDX 10 14 11 16 12 17 13 18 7 20 4 22 2 23 1 25 3 26 17 27 19 29
 SMILES IDX 24 31 25 32 26 33 27 34 40 35 28 36 39 37 29 38 30 39 38 40
 SMILES IDX 31 41 34 42 32 43 35 44 36 45 37 46 33 47
 H PARENT 21 4 10 15 13 19 7 21 4 24 17 28 19 30 33 48
 Flexibility Score: inf
  4 active torsions:
  status: ('A' for Active; 'I' for Inactive)
    1  A    between atoms: CA   and  CB  
    2  A    between atoms: CB   and  CG  
    3  A    between atoms: CG   and  CD  
    4  A    between atoms: CD   and  CE  

>  <TORSDO>
F 17

>  <BEGIN_>
RES LYS A 131

$$$$
ligand_73_pose_16_2HRL.pdbqt
 OpenBabel07062320523D

  6  5  0  0  0  0  0  0  0  0999 V2000
   33.1930   34.6630    9.2900 C   0  0  0  0  0  0  0  0  0  0  0  0
   32.0600   35.3600   10.0340 C   0  0  0  0  0  0  0  0  0  0  0  0
   30.7580   35.3690    9.2760 C   0  0  0  0  0  0  0  0  0  0  0  0
   29.5840   35.5440   10.2280 C   0  0  0  0  0  0  0  0  0  0  0  0
   29.1410   36.9940   10.2660 C   0  0  0  0  0  0  0  0  0  0  0  0
   29.0310   37.4850   11.6680 N   0  0  0  0  0  0  0  0  0  0  0  0
  1  2  1  0  0  0  0
  3  2  1  0  0  0  0
  3  4  1  0  0  0  0
  4  5  1  0  0  0  0
  5  6  1  0  0  0  0
M  END
>  <EGIN_R>
ES LYS A 135

>  <REMARK>
  4 active torsions:
  status: ('A' for Active; 'I' for Inactive)
    5  A    between atoms: CA   and  CB  
    6  A    between atoms: CB   and  CG  
    7  A    between atoms: CG   and  CD  
    8  A    between atoms: CD   and  CE  

$$$$
