ligand_93_pose_18_2HRL.pdbqt
 OpenBabel07062320523D

 50 51  0  0  1  0  0  0  0  0999 V2000
   24.4210   38.2740    9.2660 C   0  0  0  0  0  0  0  0  0  0  0  0
   24.8590   38.0970    7.8300 C   0  0  2  0  0  0  0  0  0  0  0  0
   25.4810   39.3440    7.3100 C   0  0  1  0  0  0  0  0  0  0  0  0
   26.9760   39.4490    7.4680 C   0  0  2  0  0  0  0  0  0  0  0  0
   28.0500   39.7770    5.3960 C   0  0  2  0  0  0  0  0  0  0  0  0
   28.9540   38.5870    5.6460 C   0  0  0  0  0  0  0  0  0  0  0  0
   27.4320   40.2670    6.4890 O   0  0  0  0  0  0  0  0  0  0  0  0
   28.1410   37.5680    6.4010 C   0  0  1  0  0  0  0  0  0  0  0  0
   27.7100   38.1910    7.7060 C   0  0  1  0  0  0  0  0  0  0  0  0
   27.0790   39.3300    4.4990 O   0  0  0  0  0  0  0  0  0  0  0  0
   26.8210   38.4060    4.7970 H   0  0  0  0  0  0  0  0  0  0  0  0
   28.8730   40.8020    4.6810 C   0  0  0  0  0  0  0  0  0  0  0  0
   30.0880   40.9870    4.9130 O   0  0  0  0  0  0  0  0  0  0  0  0
   28.2580   41.5790    3.7230 O   0  0  0  0  0  0  0  0  0  0  0  0
   27.3610   42.0430    3.8750 H   0  0  0  0  0  0  0  0  0  0  0  0
   27.0640   37.2270    5.5820 O   0  0  0  0  0  0  0  0  0  0  0  0
   26.3580   36.7420    6.0750 H   0  0  0  0  0  0  0  0  0  0  0  0
   28.9450   38.4620    8.4640 N   0  0  0  0  0  0  0  0  0  0  0  0
   28.9320   38.6690    9.8650 C   0  0  0  0  0  0  0  0  0  0  0  0
   29.8580   38.5070    7.9700 H   0  0  0  0  0  0  0  0  0  0  0  0
   30.2150   38.9360   10.5550 C   0  0  0  0  0  0  0  0  0  0  0  0
   27.8510   38.6290   10.5250 O   0  0  0  0  0  0  0  0  0  0  0  0
   25.0210   39.6910    6.0470 O   0  0  0  0  0  0  0  0  0  0  0  0
   24.1850   39.1990    5.8120 H   0  0  0  0  0  0  0  0  0  0  0  0
   23.6760   37.7720    7.1150 O   0  0  0  0  0  0  0  0  0  0  0  0
   23.4210   36.8320    7.3230 H   0  0  0  0  0  0  0  0  0  0  0  0
   25.1040   37.4040   10.1960 N   0  0  0  0  0  0  0  0  0  0  0  0
   24.7260   36.0260   10.2580 C   0  0  0  0  0  0  0  0  0  0  0  0
   25.8530   37.8000   10.7890 H   0  0  0  0  0  0  0  0  0  0  0  0
   23.8200   35.6270    9.5060 O   0  0  0  0  0  0  0  0  0  0  0  0
   25.3970   35.2140   11.1570 O   0  0  0  0  0  0  0  0  0  0  0  0
   25.7530   35.7400   12.4090 C   0  0  0  0  0  0  0  0  0  0  0  0
   27.1800   35.4190   12.6540 C   0  0  0  0  0  0  0  0  0  0  0  0
   27.6680   34.8760   13.8490 C   0  0  0  0  0  0  0  0  0  0  0  0
   28.2450   35.5620   11.8570 N   0  0  0  0  0  0  0  0  0  0  0  0
   28.9850   34.7400   13.6650 N   0  0  0  0  0  0  0  0  0  0  0  0
   29.3450   35.1520   12.4650 N   0  0  0  0  0  0  0  0  0  0  0  0
   29.8860   34.2220   14.6280 C   0  0  0  0  0  0  0  0  0  0  0  0
   30.1010   32.8450   14.6770 C   0  0  0  0  0  0  0  0  0  0  0  0
   30.5240   35.0790   15.4820 C   0  0  0  0  0  0  0  0  0  0  0  0
   30.9770   32.3330   15.6110 C   0  0  0  0  0  0  0  0  0  0  0  0
   31.3980   34.5450   16.4120 C   0  0  0  0  0  0  0  0  0  0  0  0
   30.2310   37.1640   15.4450 I   0  0  0  0  0  0  0  0  0  0  0  0
   31.6260   33.1830   16.4790 C   0  0  0  0  0  0  0  0  0  0  0  0
   29.8670   25.5550   16.9770 C   0  0  0  0  0  0  0  0  0  0  0  0
   28.3450   25.7220   17.0260 C   0  0  0  0  0  0  0  0  0  0  0  0
   27.6010   24.4020   16.8940 C   0  0  0  0  0  0  0  0  0  0  0  0
   26.1720   24.5090   17.3490 C   0  0  0  0  0  0  0  0  0  0  0  0
   25.9740   23.6680   18.6050 C   0  0  0  0  0  0  0  0  0  0  0  0
   24.6650   23.9700   19.2310 N   0  0  0  0  0  0  0  0  0  0  0  0
  1 27  1  0  0  0  0
  2  1  1  1  0  0  0
  3 23  1  6  0  0  0
  3  2  1  0  0  0  0
  4  3  1  6  0  0  0
  4  9  1  0  0  0  0
  5 10  1  6  0  0  0
  5  6  1  0  0  0  0
  5  7  1  0  0  0  0
  6  8  1  0  0  0  0
  7  4  1  0  0  0  0
  8 16  1  6  0  0  0
  8  9  1  0  0  0  0
  9 18  1  1  0  0  0
 10 11  1  0  0  0  0
 12 13  2  0  0  0  0
 12  5  1  0  0  0  0
 14 15  1  0  0  0  0
 14 12  1  0  0  0  0
 16 17  1  0  0  0  0
 18 19  1  0  0  0  0
 19 22  2  0  0  0  0
 19 21  1  0  0  0  0
 20 18  1  0  0  0  0
 24 23  1  0  0  0  0
 25 26  1  0  0  0  0
 25  2  1  0  0  0  0
 27 28  1  0  0  0  0
 27 29  1  0  0  0  0
 28 31  1  0  0  0  0
 30 28  2  0  0  0  0
 31 32  1  0  0  0  0
 32 33  1  0  0  0  0
 33 34  2  0  0  0  0
 35 37  2  0  0  0  0
 35 33  1  0  0  0  0
 36 34  1  0  0  0  0
 36 38  1  0  0  0  0
 37 36  1  0  0  0  0
 38 39  2  0  0  0  0
 38 40  1  0  0  0  0
 39 41  1  0  0  0  0
 40 42  2  0  0  0  0
 41 44  2  0  0  0  0
 42 44  1  0  0  0  0
 43 40  1  0  0  0  0
 45 46  1  0  0  0  0
 47 46  1  0  0  0  0
 47 48  1  0  0  0  0
 48 49  1  0  0  0  0
 49 50  1  0  0  0  0
M  END
>  <REMARK>
 VINA RESULT:    -4.167      5.435     10.479
 INTER + INTRA:         -13.498
 INTER:                  -8.897
 INTRA:                  -4.601
 UNBOUND:                -6.285
 SMILES CC(=O)N[C@@H]1[C@@H](O)C[C@](O)(C(=O)O)O[C@H]1C(O)[C@H](O)CNC(=O)OCc1cn(-c2ccccc2I)nn1
 SMILES IDX 20 1 18 2 16 3 15 4 9 5 8 6 14 7 6 8 5 9 10 10 11 12 12 13
 SMILES IDX 13 14 7 16 4 18 2 19 1 21 3 22 17 23 19 25 21 27 22 28 23 30
 SMILES IDX 24 31 25 32 26 33 27 34 37 35 28 36 36 37 29 38 30 39 34 40
 SMILES IDX 31 41 33 42 35 43 32 44
 H PARENT 10 11 13 15 7 17 4 20 17 24 19 26 21 29
 Flexibility Score: inf
  4 active torsions:
  status: ('A' for Active; 'I' for Inactive)
    1  A    between atoms: CA   and  CB  
    2  A    between atoms: CB   and  CG  
    3  A    between atoms: CG   and  CD  
    4  A    between atoms: CD   and  CE  

>  <TORSDO>
F 15

>  <BEGIN_>
RES LYS A 131

$$$$
ligand_93_pose_18_2HRL.pdbqt
 OpenBabel07062320523D

  6  5  0  0  0  0  0  0  0  0999 V2000
   33.1930   34.6630    9.2900 C   0  0  0  0  0  0  0  0  0  0  0  0
   32.0600   35.3600   10.0340 C   0  0  0  0  0  0  0  0  0  0  0  0
   30.8250   35.5650    9.1950 C   0  0  0  0  0  0  0  0  0  0  0  0
   30.1420   34.2360    8.9120 C   0  0  0  0  0  0  0  0  0  0  0  0
   28.7220   34.4600    8.4280 C   0  0  0  0  0  0  0  0  0  0  0  0
   27.7460   33.6970    9.2550 N   0  0  0  0  0  0  0  0  0  0  0  0
  1  2  1  0  0  0  0
  3  2  1  0  0  0  0
  4  3  1  0  0  0  0
  5  4  1  0  0  0  0
  5  6  1  0  0  0  0
M  END
>  <EGIN_R>
ES LYS A 135

>  <REMARK>
  4 active torsions:
  status: ('A' for Active; 'I' for Inactive)
    5  A    between atoms: CA   and  CB  
    6  A    between atoms: CB   and  CG  
    7  A    between atoms: CG   and  CD  
    8  A    between atoms: CD   and  CE  

$$$$
