ligand_40_pose_16_2HRL.pdbqt
 OpenBabel07062320523D

 50 51  0  0  1  0  0  0  0  0999 V2000
   23.8450   29.8070   15.4910 C   0  0  0  0  0  0  0  0  0  0  0  0
   24.9470   29.9080   16.4630 C   0  0  2  0  0  0  0  0  0  0  0  0
   26.3040   30.3270   15.9970 C   0  0  2  0  0  0  0  0  0  0  0  0
   26.8940   31.5410   16.6420 C   0  0  2  0  0  0  0  0  0  0  0  0
   29.0930   31.4800   15.8360 C   0  0  2  0  0  0  0  0  0  0  0  0
   29.6970   31.4420   17.2290 C   0  0  0  0  0  0  0  0  0  0  0  0
   27.8680   32.0650   15.7790 O   0  0  0  0  0  0  0  0  0  0  0  0
   28.6760   30.8630   18.1940 C   0  0  1  0  0  0  0  0  0  0  0  0
   27.3340   31.5040   18.0470 C   0  0  1  0  0  0  0  0  0  0  0  0
   29.1590   30.2010   15.3390 O   0  0  0  0  0  0  0  0  0  0  0  0
   28.2790   29.7600   15.2170 H   0  0  0  0  0  0  0  0  0  0  0  0
   30.0200   32.3370   15.0320 C   0  0  0  0  0  0  0  0  0  0  0  0
   29.6150   33.3660   14.4130 O   0  0  0  0  0  0  0  0  0  0  0  0
   31.3600   32.0150   14.9480 O   0  0  0  0  0  0  0  0  0  0  0  0
   32.0280   32.7350   14.6640 H   0  0  0  0  0  0  0  0  0  0  0  0
   28.5530   29.5280   17.8040 O   0  0  0  0  0  0  0  0  0  0  0  0
   27.7010   29.3640   17.3230 H   0  0  0  0  0  0  0  0  0  0  0  0
   27.2820   32.8690   18.5370 N   0  0  0  0  0  0  0  0  0  0  0  0
   26.2520   33.3600   19.3560 C   0  0  0  0  0  0  0  0  0  0  0  0
   28.0720   33.4790   18.2420 H   0  0  0  0  0  0  0  0  0  0  0  0
   26.1720   34.7410   19.8690 C   0  0  0  0  0  0  0  0  0  0  0  0
   25.3540   32.5480   19.6520 O   0  0  0  0  0  0  0  0  0  0  0  0
   26.0530   30.8560   14.6470 O   0  0  0  0  0  0  0  0  0  0  0  0
   25.4750   31.6560   14.7660 H   0  0  0  0  0  0  0  0  0  0  0  0
   24.9630   28.8460   17.3550 O   0  0  0  0  0  0  0  0  0  0  0  0
   25.0630   29.1620   18.3050 H   0  0  0  0  0  0  0  0  0  0  0  0
   23.2450   31.0850   15.1020 N   0  0  0  0  0  0  0  0  0  0  0  0
   23.1310   31.4740   13.7490 C   0  0  0  0  0  0  0  0  0  0  0  0
   22.8820   31.7730   15.8130 H   0  0  0  0  0  0  0  0  0  0  0  0
   23.5450   30.7250   12.8570 O   0  0  0  0  0  0  0  0  0  0  0  0
   22.5620   32.6860   13.3560 O   0  0  0  0  0  0  0  0  0  0  0  0
   23.2260   33.8910   13.6610 C   0  0  0  0  0  0  0  0  0  0  0  0
   23.9750   34.4410   12.5280 C   0  0  0  0  0  0  0  0  0  0  0  0
   25.2560   34.0500   12.1950 C   0  0  0  0  0  0  0  0  0  0  0  0
   23.6480   35.3720   11.6100 N   0  0  0  0  0  0  0  0  0  0  0  0
   25.6750   34.7340   11.1100 N   0  0  0  0  0  0  0  0  0  0  0  0
   24.6750   35.5250   10.7820 N   0  0  0  0  0  0  0  0  0  0  0  0
   26.9230   34.6560   10.4220 C   0  0  0  0  0  0  0  0  0  0  0  0
   26.9720   34.5560    9.0470 C   0  0  0  0  0  0  0  0  0  0  0  0
   28.1300   34.6740   11.0910 C   0  0  0  0  0  0  0  0  0  0  0  0
   28.1720   34.4800    8.3680 C   0  0  0  0  0  0  0  0  0  0  0  0
   29.3320   34.5980   10.4180 C   0  0  0  0  0  0  0  0  0  0  0  0
   29.3740   34.5000    9.0440 C   0  0  0  0  0  0  0  0  0  0  0  0
   30.6900   34.4190    8.3580 C   0  0  0  0  0  0  0  0  0  0  0  0
   29.8670   25.5550   16.9770 C   0  0  0  0  0  0  0  0  0  0  0  0
   28.3450   25.7220   17.0260 C   0  0  0  0  0  0  0  0  0  0  0  0
   27.6010   24.4010   16.9050 C   0  0  0  0  0  0  0  0  0  0  0  0
   26.1520   24.5300   17.2840 C   0  0  0  0  0  0  0  0  0  0  0  0
   25.6360   23.1850   17.7850 C   0  0  0  0  0  0  0  0  0  0  0  0
   25.5150   23.1930   19.2620 N   0  0  0  0  0  0  0  0  0  0  0  0
  2  1  1  6  0  0  0
  2 25  1  0  0  0  0
  3 23  1  6  0  0  0
  3  2  1  0  0  0  0
  4  3  1  6  0  0  0
  4  9  1  0  0  0  0
  5 12  1  6  0  0  0
  5  6  1  0  0  0  0
  6  8  1  0  0  0  0
  7  5  1  0  0  0  0
  7  4  1  0  0  0  0
  8 16  1  6  0  0  0
  9  8  1  0  0  0  0
  9 18  1  6  0  0  0
 10  5  1  0  0  0  0
 11 10  1  0  0  0  0
 13 12  2  0  0  0  0
 14 12  1  0  0  0  0
 15 14  1  0  0  0  0
 17 16  1  0  0  0  0
 18 19  1  0  0  0  0
 19 22  2  0  0  0  0
 19 21  1  0  0  0  0
 20 18  1  0  0  0  0
 23 24  1  0  0  0  0
 25 26  1  0  0  0  0
 27  1  1  0  0  0  0
 27 29  1  0  0  0  0
 28 27  1  0  0  0  0
 30 28  2  0  0  0  0
 31 32  1  0  0  0  0
 31 28  1  0  0  0  0
 33 32  1  0  0  0  0
 34 33  2  0  0  0  0
 35 33  1  0  0  0  0
 36 34  1  0  0  0  0
 37 36  1  0  0  0  0
 37 35  2  0  0  0  0
 38 40  1  0  0  0  0
 38 36  1  0  0  0  0
 39 38  2  0  0  0  0
 41 43  2  0  0  0  0
 41 39  1  0  0  0  0
 42 40  2  0  0  0  0
 43 42  1  0  0  0  0
 44 43  1  0  0  0  0
 45 46  1  0  0  0  0
 47 46  1  0  0  0  0
 47 48  1  0  0  0  0
 48 49  1  0  0  0  0
 49 50  1  0  0  0  0
M  END
>  <REMARK>
 VINA RESULT:    -5.056      2.348      5.532
 INTER + INTRA:         -13.764
 INTER:                  -9.993
 INTRA:                  -3.771
 UNBOUND:                -5.012
 SMILES CC(=O)N[C@@H]1[C@@H](O)C[C@](O)(C(=O)O)O[C@H]1C(O)[C@H](O)CNC(=O)OCc1cn(-c2ccc(C)cc2)nn1
 SMILES IDX 20 1 18 2 16 3 15 4 9 5 8 6 14 7 6 8 5 9 10 10 11 12 12 13
 SMILES IDX 13 14 7 16 4 18 2 19 1 21 3 22 17 23 19 25 21 27 22 28 23 30
 SMILES IDX 24 31 25 32 26 33 27 34 37 35 28 36 36 37 29 38 30 39 35 40
 SMILES IDX 31 41 34 42 32 43 33 44
 H PARENT 10 11 13 15 7 17 4 20 17 24 19 26 21 29
 Flexibility Score: inf
  4 active torsions:
  status: ('A' for Active; 'I' for Inactive)
    1  A    between atoms: CA   and  CB  
    2  A    between atoms: CB   and  CG  
    3  A    between atoms: CG   and  CD  
    4  A    between atoms: CD   and  CE  

>  <TORSDO>
F 15

>  <BEGIN_>
RES LYS A 131

$$$$
ligand_40_pose_16_2HRL.pdbqt
 OpenBabel07062320523D

  6  5  0  0  0  0  0  0  0  0999 V2000
   33.1930   34.6630    9.2900 C   0  0  0  0  0  0  0  0  0  0  0  0
   32.0600   35.3600   10.0340 C   0  0  0  0  0  0  0  0  0  0  0  0
   32.5050   36.0530   11.2960 C   0  0  0  0  0  0  0  0  0  0  0  0
   31.9010   37.4460   11.3850 C   0  0  0  0  0  0  0  0  0  0  0  0
   30.9130   37.5260   12.5330 C   0  0  0  0  0  0  0  0  0  0  0  0
   31.0400   36.3470   13.4340 N   0  0  0  0  0  0  0  0  0  0  0  0
  1  2  1  0  0  0  0
  2  3  1  0  0  0  0
  3  4  1  0  0  0  0
  4  5  1  0  0  0  0
  5  6  1  0  0  0  0
M  END
>  <EGIN_R>
ES LYS A 135

>  <REMARK>
  4 active torsions:
  status: ('A' for Active; 'I' for Inactive)
    5  A    between atoms: CA   and  CB  
    6  A    between atoms: CB   and  CG  
    7  A    between atoms: CG   and  CD  
    8  A    between atoms: CD   and  CE  

$$$$
