ligand_48_pose_3_2HRL.pdbqt
 OpenBabel07062320523D

 49 50  0  0  1  0  0  0  0  0999 V2000
   31.0050   32.1660   15.8470 C   0  0  0  0  0  0  0  0  0  0  0  0
   30.0280   31.0790   16.2700 C   0  0  2  0  0  0  0  0  0  0  0  0
   28.6490   31.6440   16.1220 C   0  0  1  0  0  0  0  0  0  0  0  0
   27.5280   30.6390   16.2730 C   0  0  2  0  0  0  0  0  0  0  0  0
   25.5740   31.4460   15.2370 C   0  0  2  0  0  0  0  0  0  0  0  0
   24.7450   31.1150   16.4660 C   0  0  0  0  0  0  0  0  0  0  0  0
   26.6660   30.6450   15.2110 O   0  0  0  0  0  0  0  0  0  0  0  0
   25.5540   31.2710   17.7270 C   0  0  1  0  0  0  0  0  0  0  0  0
   26.9030   30.5900   17.6240 C   0  0  1  0  0  0  0  0  0  0  0  0
   25.8290   32.8150   15.1670 O   0  0  0  0  0  0  0  0  0  0  0  0
   24.9820   33.2980   15.4260 H   0  0  0  0  0  0  0  0  0  0  0  0
   24.7160   31.0810   14.0760 C   0  0  0  0  0  0  0  0  0  0  0  0
   24.3370   29.8970   13.9270 O   0  0  0  0  0  0  0  0  0  0  0  0
   24.3440   32.0380   13.1770 O   0  0  0  0  0  0  0  0  0  0  0  0
   24.9490   32.7730   12.8340 H   0  0  0  0  0  0  0  0  0  0  0  0
   25.6760   32.6080   18.0810 O   0  0  0  0  0  0  0  0  0  0  0  0
   24.8160   32.9450   18.4330 H   0  0  0  0  0  0  0  0  0  0  0  0
   26.7770   29.2110   18.1000 N   0  0  0  0  0  0  0  0  0  0  0  0
   27.6870   28.7500   19.0750 C   0  0  0  0  0  0  0  0  0  0  0  0
   26.0410   28.5730   17.7390 H   0  0  0  0  0  0  0  0  0  0  0  0
   27.6390   27.3590   19.6230 C   0  0  0  0  0  0  0  0  0  0  0  0
   28.6070   29.4860   19.5530 O   0  0  0  0  0  0  0  0  0  0  0  0
   28.4690   32.8270   16.7890 O   0  0  0  0  0  0  0  0  0  0  0  0
   29.1990   33.0210   17.4590 H   0  0  0  0  0  0  0  0  0  0  0  0
   30.3700   30.6750   17.5380 O   0  0  0  0  0  0  0  0  0  0  0  0
   30.8050   31.4050   18.0050 H   0  0  0  0  0  0  0  0  0  0  0  0
   30.5490   32.7180   14.5930 N   0  0  0  0  0  0  0  0  0  0  0  0
   30.9870   33.9430   14.0320 C   0  0  0  0  0  0  0  0  0  0  0  0
   29.8260   32.1980   14.0060 H   0  0  0  0  0  0  0  0  0  0  0  0
   31.8360   34.6330   14.6460 O   0  0  0  0  0  0  0  0  0  0  0  0
   30.4960   34.4010   12.8130 O   0  0  0  0  0  0  0  0  0  0  0  0
   29.8420   35.6440   12.7480 C   0  0  0  0  0  0  0  0  0  0  0  0
   28.3790   35.3960   12.6630 C   0  0  0  0  0  0  0  0  0  0  0  0
   27.4510   36.1590   11.9420 C   0  0  0  0  0  0  0  0  0  0  0  0
   27.6290   34.4320   13.2300 N   0  0  0  0  0  0  0  0  0  0  0  0
   26.2220   35.6380   12.1010 N   0  0  0  0  0  0  0  0  0  0  0  0
   26.3630   34.5880   12.8910 N   0  0  0  0  0  0  0  0  0  0  0  0
   24.9830   36.1340   11.5180 C   0  0  0  0  0  0  0  0  0  0  0  0
   25.2460   36.5750   10.0950 C   0  0  0  0  0  0  0  0  0  0  0  0
   23.9510   35.0300   11.4840 C   0  0  0  0  0  0  0  0  0  0  0  0
   24.7150   35.5680    9.0920 C   0  0  0  0  0  0  0  0  0  0  0  0
   22.7870   35.5430   10.6540 C   0  0  0  0  0  0  0  0  0  0  0  0
   23.2170   35.4770    9.2020 C   0  0  0  0  0  0  0  0  0  0  0  0
   29.8670   25.5550   16.9770 C   0  0  0  0  0  0  0  0  0  0  0  0
   28.3450   25.7220   17.0260 C   0  0  0  0  0  0  0  0  0  0  0  0
   27.6000   24.4140   16.8080 C   0  0  0  0  0  0  0  0  0  0  0  0
   26.5600   24.1710   17.8670 C   0  0  0  0  0  0  0  0  0  0  0  0
   25.1850   24.5460   17.3250 C   0  0  0  0  0  0  0  0  0  0  0  0
   24.7790   25.8830   17.8180 N   0  0  0  0  0  0  0  0  0  0  0  0
  2  1  1  1  0  0  0
  2 25  1  0  0  0  0
  3  2  1  0  0  0  0
  3 23  1  1  0  0  0
  4  3  1  1  0  0  0
  4  9  1  0  0  0  0
  5 12  1  6  0  0  0
  5  6  1  0  0  0  0
  6  8  1  0  0  0  0
  7  5  1  0  0  0  0
  7  4  1  0  0  0  0
  8 16  1  6  0  0  0
  9  8  1  0  0  0  0
  9 18  1  6  0  0  0
 10  5  1  0  0  0  0
 10 11  1  0  0  0  0
 13 12  2  0  0  0  0
 14 12  1  0  0  0  0
 15 14  1  0  0  0  0
 16 17  1  0  0  0  0
 18 19  1  0  0  0  0
 19 22  2  0  0  0  0
 19 21  1  0  0  0  0
 20 18  1  0  0  0  0
 23 24  1  0  0  0  0
 25 26  1  0  0  0  0
 27  1  1  0  0  0  0
 28 27  1  0  0  0  0
 28 30  2  0  0  0  0
 29 27  1  0  0  0  0
 31 28  1  0  0  0  0
 32 31  1  0  0  0  0
 33 32  1  0  0  0  0
 33 35  1  0  0  0  0
 34 36  1  0  0  0  0
 34 33  2  0  0  0  0
 36 37  1  0  0  0  0
 37 35  2  0  0  0  0
 38 36  1  0  0  0  0
 39 38  1  0  0  0  0
 40 38  1  0  0  0  0
 41 43  1  0  0  0  0
 41 39  1  0  0  0  0
 42 40  1  0  0  0  0
 43 42  1  0  0  0  0
 44 45  1  0  0  0  0
 46 45  1  0  0  0  0
 46 47  1  0  0  0  0
 48 49  1  0  0  0  0
 48 47  1  0  0  0  0
M  END
>  <REMARK>
 VINA RESULT:    -5.074      3.481      7.159
 INTER + INTRA:         -14.577
 INTER:                  -8.363
 INTRA:                  -6.214
 UNBOUND:                -5.796
 SMILES CC(=O)N[C@@H]1[C@@H](O)C[C@](O)(C(=O)O)O[C@H]1C(O)[C@H](O)CNC(=O)OCc1cn(C2CCCCC2)nn1
 SMILES IDX 20 1 18 2 16 3 15 4 9 5 8 6 14 7 6 8 5 9 10 10 11 12 12 13
 SMILES IDX 13 14 7 16 4 18 2 19 1 21 3 22 17 23 19 25 21 27 22 28 23 30
 SMILES IDX 24 31 25 32 26 33 27 34 36 35 28 36 35 37 29 38 30 39 34 40
 SMILES IDX 31 41 33 42 32 43
 H PARENT 10 11 13 15 7 17 4 20 17 24 19 26 21 29
 Flexibility Score: inf
  4 active torsions:
  status: ('A' for Active; 'I' for Inactive)
    1  A    between atoms: CA   and  CB  
    2  A    between atoms: CB   and  CG  
    3  A    between atoms: CG   and  CD  
    4  A    between atoms: CD   and  CE  

>  <TORSDO>
F 15

>  <BEGIN_>
RES LYS A 131

$$$$
ligand_48_pose_3_2HRL.pdbqt
 OpenBabel07062320523D

  6  5  0  0  0  0  0  0  0  0999 V2000
   33.1930   34.6630    9.2900 C   0  0  0  0  0  0  0  0  0  0  0  0
   32.0600   35.3600   10.0340 C   0  0  0  0  0  0  0  0  0  0  0  0
   30.7670   35.4000    9.2610 C   0  0  0  0  0  0  0  0  0  0  0  0
   30.1500   34.0130    9.1750 C   0  0  0  0  0  0  0  0  0  0  0  0
   28.6360   34.1010    9.1920 C   0  0  0  0  0  0  0  0  0  0  0  0
   28.1250   34.7850    7.9720 N   0  0  0  0  0  0  0  0  0  0  0  0
  1  2  1  0  0  0  0
  3  2  1  0  0  0  0
  4  5  1  0  0  0  0
  4  3  1  0  0  0  0
  6  5  1  0  0  0  0
M  END
>  <EGIN_R>
ES LYS A 135

>  <REMARK>
  4 active torsions:
  status: ('A' for Active; 'I' for Inactive)
    5  A    between atoms: CA   and  CB  
    6  A    between atoms: CB   and  CG  
    7  A    between atoms: CG   and  CD  
    8  A    between atoms: CD   and  CE  

$$$$
