ligand_65_pose_0_2HRL.pdbqt
 OpenBabel07062320523D

 53 54  0  0  1  0  0  0  0  0999 V2000
   27.9050   28.3760   18.5290 N   0  0  0  0  0  0  0  0  0  0  0  0
   26.8730   28.6940   17.6240 C   0  0  0  0  0  0  0  0  0  0  0  0
   25.8440   28.0020   17.4630 O   0  0  0  0  0  0  0  0  0  0  0  0
   28.7650   28.9920   18.6440 H   0  0  0  0  0  0  0  0  0  0  0  0
   27.8090   27.1770   19.3340 C   0  0  0  0  0  0  0  0  0  0  0  0
   27.7980   27.5650   20.7800 C   0  0  2  0  0  0  0  0  0  0  0  0
   29.2160   27.7150   21.2920 C   0  0  2  0  0  0  0  0  0  0  0  0
   29.3890   29.1490   21.7710 C   0  0  2  0  0  0  0  0  0  0  0  0
   30.2890   30.5890   20.1370 C   0  0  2  0  0  0  0  0  0  0  0  0
   31.6400   30.5330   20.7760 C   0  0  0  0  0  0  0  0  0  0  0  0
   29.2720   29.9680   20.7280 O   0  0  0  0  0  0  0  0  0  0  0  0
   31.4300   30.5020   22.2850 C   0  0  1  0  0  0  0  0  0  0  0  0
   30.6930   29.1850   22.5210 C   0  0  1  0  0  0  0  0  0  0  0  0
   30.4480   30.0430   18.8410 O   0  0  0  0  0  0  0  0  0  0  0  0
   31.3040   29.5640   18.7550 H   0  0  0  0  0  0  0  0  0  0  0  0
   29.9520   32.0220   19.9450 C   0  0  0  0  0  0  0  0  0  0  0  0
   30.8530   32.8990   19.9450 O   0  0  0  0  0  0  0  0  0  0  0  0
   28.6500   32.4540   19.7590 O   0  0  0  0  0  0  0  0  0  0  0  0
   28.4100   33.4350   19.5980 H   0  0  0  0  0  0  0  0  0  0  0  0
   32.6290   30.4540   22.9690 O   0  0  0  0  0  0  0  0  0  0  0  0
   33.3250   30.1380   22.3240 H   0  0  0  0  0  0  0  0  0  0  0  0
   30.4910   28.9510   23.9340 N   0  0  0  0  0  0  0  0  0  0  0  0
   31.0050   27.7910   24.5660 C   0  0  0  0  0  0  0  0  0  0  0  0
   29.9490   29.6840   24.4470 H   0  0  0  0  0  0  0  0  0  0  0  0
   30.7630   27.6110   26.0140 C   0  0  0  0  0  0  0  0  0  0  0  0
   31.6520   26.9220   23.9410 O   0  0  0  0  0  0  0  0  0  0  0  0
   30.1060   27.4850   20.2090 O   0  0  0  0  0  0  0  0  0  0  0  0
   30.3750   28.4040   19.9220 H   0  0  0  0  0  0  0  0  0  0  0  0
   27.0990   26.5910   21.5080 O   0  0  0  0  0  0  0  0  0  0  0  0
   26.4830   26.0990   20.9370 H   0  0  0  0  0  0  0  0  0  0  0  0
   26.9970   29.8600   16.8490 O   0  0  0  0  0  0  0  0  0  0  0  0
   28.1350   29.9760   16.0230 C   0  0  0  0  0  0  0  0  0  0  0  0
   28.7240   31.3420   16.2090 C   0  0  0  0  0  0  0  0  0  0  0  0
   29.9820   31.7730   15.8300 C   0  0  0  0  0  0  0  0  0  0  0  0
   28.1540   32.4270   16.7820 N   0  0  0  0  0  0  0  0  0  0  0  0
   30.1430   33.0680   16.1680 N   0  0  0  0  0  0  0  0  0  0  0  0
   29.0190   33.4350   16.7420 N   0  0  0  0  0  0  0  0  0  0  0  0
   31.3070   33.8700   15.9410 C   0  0  0  0  0  0  0  0  0  0  0  0
   31.8730   33.9710   14.7240 N   0  0  0  0  0  0  0  0  0  0  0  0
   31.8800   34.5570   16.9490 N   0  0  0  0  0  0  0  0  0  0  0  0
   32.9640   34.7110   14.4700 C   0  0  0  0  0  0  0  0  0  0  0  0
   32.9850   35.3230   16.7560 C   0  0  0  0  0  0  0  0  0  0  0  0
   33.5010   35.3830   15.5250 N   0  0  0  0  0  0  0  0  0  0  0  0
   33.6260   36.0850   17.8600 C   0  0  0  0  0  0  0  0  0  0  0  0
   33.5590   34.8190   13.1970 N   0  0  0  0  0  0  0  0  0  0  0  0
   33.1660   34.3020   12.3990 H   0  0  0  0  0  0  0  0  0  0  0  0
   34.3890   35.4150   13.0680 H   0  0  0  0  0  0  0  0  0  0  0  0
   29.8670   25.5550   16.9770 C   0  0  0  0  0  0  0  0  0  0  0  0
   28.3450   25.7220   17.0260 C   0  0  0  0  0  0  0  0  0  0  0  0
   27.6010   24.4040   16.8770 C   0  0  0  0  0  0  0  0  0  0  0  0
   26.1730   24.5040   17.3380 C   0  0  0  0  0  0  0  0  0  0  0  0
   25.9940   23.6930   18.6170 C   0  0  0  0  0  0  0  0  0  0  0  0
   25.1840   24.4490   19.6020 N   0  0  0  0  0  0  0  0  0  0  0  0
  1  4  1  0  0  0  0
  1  5  1  0  0  0  0
  2  1  1  0  0  0  0
  3  2  2  0  0  0  0
  6  5  1  6  0  0  0
  6  7  1  0  0  0  0
  6 29  1  0  0  0  0
  7 27  1  6  0  0  0
  8  7  1  6  0  0  0
  8 13  1  0  0  0  0
  9 14  1  6  0  0  0
  9 11  1  0  0  0  0
  9 10  1  0  0  0  0
 10 12  1  0  0  0  0
 11  8  1  0  0  0  0
 12 13  1  0  0  0  0
 12 20  1  1  0  0  0
 13 22  1  1  0  0  0
 15 14  1  0  0  0  0
 16  9  1  0  0  0  0
 17 16  2  0  0  0  0
 18 16  1  0  0  0  0
 19 18  1  0  0  0  0
 21 20  1  0  0  0  0
 22 24  1  0  0  0  0
 22 23  1  0  0  0  0
 23 25  1  0  0  0  0
 26 23  2  0  0  0  0
 28 27  1  0  0  0  0
 30 29  1  0  0  0  0
 31  2  1  0  0  0  0
 32 33  1  0  0  0  0
 32 31  1  0  0  0  0
 33 35  1  0  0  0  0
 34 36  1  0  0  0  0
 34 33  2  0  0  0  0
 36 37  1  0  0  0  0
 37 35  2  0  0  0  0
 38 36  1  0  0  0  0
 38 40  1  0  0  0  0
 39 38  2  0  0  0  0
 41 39  2  0  0  0  0
 41 43  1  0  0  0  0
 42 40  2  0  0  0  0
 42 44  1  0  0  0  0
 43 42  1  0  0  0  0
 45 41  1  0  0  0  0
 46 45  1  0  0  0  0
 47 45  1  0  0  0  0
 48 49  1  0  0  0  0
 50 49  1  0  0  0  0
 50 51  1  0  0  0  0
 51 52  1  0  0  0  0
 52 53  1  0  0  0  0
M  END
>  <REMARK>
 VINA RESULT:    -5.531      0.000      0.000
 INTER + INTRA:         -14.869
 INTER:                  -8.595
 INTRA:                  -6.274
 UNBOUND:                -5.134
 SMILES CC(=O)N[C@@H]1[C@@H](O)C[C@](O)(C(=O)O)O[C@H]1C(O)[C@H](O)CNC(=O)OCc1cn(-c2nc(C)nc(N)n2)nn1
 SMILES IDX 21 1 22 2 23 3 20 5 18 6 16 7 15 8 9 9 8 10 14 11 6 12 5 13
 SMILES IDX 10 14 11 16 12 17 13 18 7 20 4 22 2 23 1 25 3 26 17 27 19 29
 SMILES IDX 24 31 25 32 26 33 27 34 38 35 28 36 37 37 29 38 36 39 30 40
 SMILES IDX 34 41 31 42 33 43 32 44 35 45
 H PARENT 21 4 10 15 13 19 7 21 4 24 17 28 19 30 35 46 35 47
 Flexibility Score: inf
  4 active torsions:
  status: ('A' for Active; 'I' for Inactive)
    1  A    between atoms: CA   and  CB  
    2  A    between atoms: CB   and  CG  
    3  A    between atoms: CG   and  CD  
    4  A    between atoms: CD   and  CE  

>  <TORSDO>
F 16

>  <BEGIN_>
RES LYS A 131

$$$$
ligand_65_pose_0_2HRL.pdbqt
 OpenBabel07062320523D

  6  5  0  0  0  0  0  0  0  0999 V2000
   33.1930   34.6630    9.2900 C   0  0  0  0  0  0  0  0  0  0  0  0
   32.0600   35.3600   10.0340 C   0  0  0  0  0  0  0  0  0  0  0  0
   30.8050   35.5120    9.2140 C   0  0  0  0  0  0  0  0  0  0  0  0
   30.2330   34.1510    8.8500 C   0  0  0  0  0  0  0  0  0  0  0  0
   28.7750   34.0600    9.2570 C   0  0  0  0  0  0  0  0  0  0  0  0
   27.8890   34.6540    8.2170 N   0  0  0  0  0  0  0  0  0  0  0  0
  1  2  1  0  0  0  0
  3  2  1  0  0  0  0
  4  3  1  0  0  0  0
  4  5  1  0  0  0  0
  6  5  1  0  0  0  0
M  END
>  <EGIN_R>
ES LYS A 135

>  <REMARK>
  4 active torsions:
  status: ('A' for Active; 'I' for Inactive)
    5  A    between atoms: CA   and  CB  
    6  A    between atoms: CB   and  CG  
    7  A    between atoms: CG   and  CD  
    8  A    between atoms: CD   and  CE  

$$$$
