ligand_69_pose_7_2HRL.pdbqt
 OpenBabel07062320523D

 54 51  0  0  1  0  0  0  0  0999 V2000
   22.4100   34.9720   10.2330 N   0  0  0  0  0  0  0  0  0  0  0  0
   22.6600   35.5230   11.5250 C   0  0  0  0  0  0  0  0  0  0  0  0
   22.0260   36.5120   11.9780 O   0  0  0  0  0  0  0  0  0  0  0  0
   22.9510   34.1520    9.8820 H   0  0  0  0  0  0  0  0  0  0  0  0
   21.3630   35.6270    9.4470 C   0  0  0  0  0  0  0  0  0  0  0  0
   21.9910   36.0010    8.1180 C   0  0  2  0  0  0  0  0  0  0  0  0
   22.8160   37.2660    8.2000 C   0  0  2  0  0  0  0  0  0  0  0  0
   24.2840   36.9980    8.0910 C   0  0  2  0  0  0  0  0  0  0  0  0
   26.2070   36.2970    9.0940 C   0  0  2  0  0  0  0  0  0  0  0  0
   26.6950   36.4550    7.6700 C   0  0  0  0  0  0  0  0  0  0  0  0
   24.8230   36.3760    9.1840 O   0  0  0  0  0  0  0  0  0  0  0  0
   26.3230   37.8070    7.0940 C   0  0  1  0  0  0  0  0  0  0  0  0
   25.0830   38.2530    7.8140 C   0  0  1  0  0  0  0  0  0  0  0  0
   26.8400   37.1920    9.9490 O   0  0  0  0  0  0  0  0  0  0  0  0
   26.2520   37.4650   10.7030 H   0  0  0  0  0  0  0  0  0  0  0  0
   26.5830   34.9270    9.5200 C   0  0  0  0  0  0  0  0  0  0  0  0
   27.1990   34.1270    8.7650 O   0  0  0  0  0  0  0  0  0  0  0  0
   26.2500   34.5010   10.7860 O   0  0  0  0  0  0  0  0  0  0  0  0
   26.9230   34.2620   11.5080 H   0  0  0  0  0  0  0  0  0  0  0  0
   27.4010   38.6440    7.2650 O   0  0  0  0  0  0  0  0  0  0  0  0
   27.9810   38.2390    7.9820 H   0  0  0  0  0  0  0  0  0  0  0  0
   24.3400   39.2730    7.1720 N   0  0  0  0  0  0  0  0  0  0  0  0
   24.5770   40.6690    7.2900 C   0  0  0  0  0  0  0  0  0  0  0  0
   23.5480   38.9890    6.5570 H   0  0  0  0  0  0  0  0  0  0  0  0
   23.7330   41.6690    6.5690 C   0  0  0  0  0  0  0  0  0  0  0  0
   25.5200   41.0330    8.0200 O   0  0  0  0  0  0  0  0  0  0  0  0
   22.4530   38.0450    9.2710 O   0  0  0  0  0  0  0  0  0  0  0  0
   22.0440   37.4690    9.9550 H   0  0  0  0  0  0  0  0  0  0  0  0
   20.9660   36.2810    7.1840 O   0  0  0  0  0  0  0  0  0  0  0  0
   20.5370   35.4380    6.8640 H   0  0  0  0  0  0  0  0  0  0  0  0
   23.6280   34.9640   12.3230 O   0  0  0  0  0  0  0  0  0  0  0  0
   24.2670   35.6390   13.3920 C   0  0  0  0  0  0  0  0  0  0  0  0
   25.2230   34.7070   14.0330 C   0  0  0  0  0  0  0  0  0  0  0  0
   26.5200   34.9290   14.4380 C   0  0  0  0  0  0  0  0  0  0  0  0
   24.9450   33.4230   14.3330 N   0  0  0  0  0  0  0  0  0  0  0  0
   26.9980   33.7890   14.9700 N   0  0  0  0  0  0  0  0  0  0  0  0
   26.0070   32.8970   14.8860 N   0  0  0  0  0  0  0  0  0  0  0  0
   28.3380   33.5860   15.5230 C   0  0  2  0  0  0  0  0  0  0  0  0
   29.3010   33.5730   14.3850 C   0  0  0  0  0  0  0  0  0  0  0  0
   30.7240   33.7800   14.7660 *   0  0  0  0  0  0  0  0  0  0  0  0
   31.5250   34.1700   13.6700 O   0  0  0  0  0  0  0  0  0  0  0  0
   31.7930   35.1050   13.7970 H   0  0  0  0  0  0  0  0  0  0  0  0
   28.3120   32.3300   16.3250 C   0  0  0  0  0  0  0  0  0  0  0  0
   29.2120   31.2460   15.8140 C   0  0  1  0  0  0  0  0  0  0  0  0
   30.6520   31.5620   15.9410 C   0  0  0  0  0  0  0  0  0  0  0  0
   31.2940   32.6220   15.5040 *   0  0  0  0  0  0  0  0  0  0  0  0
   28.9180   30.0010   16.3650 O   0  0  0  0  0  0  0  0  0  0  0  0
   29.1310   29.9700   17.3310 H   0  0  0  0  0  0  0  0  0  0  0  0
   29.8670   25.5550   16.9770 C   0  0  0  0  0  0  0  0  0  0  0  0
   28.3450   25.7220   17.0260 C   0  0  0  0  0  0  0  0  0  0  0  0
   27.5990   24.4770   16.5710 C   0  0  0  0  0  0  0  0  0  0  0  0
   26.8560   23.8180   17.7000 C   0  0  0  0  0  0  0  0  0  0  0  0
   25.3600   23.8370   17.4040 C   0  0  0  0  0  0  0  0  0  0  0  0
   24.6530   24.7160   18.3650 N   0  0  0  0  0  0  0  0  0  0  0  0
  1  2  1  0  0  0  0
  2  3  2  0  0  0  0
  2 31  1  0  0  0  0
  4  1  1  0  0  0  0
  5  1  1  0  0  0  0
  6  7  1  0  0  0  0
  6  5  1  1  0  0  0
  7 27  1  1  0  0  0
  8  7  1  1  0  0  0
  8 11  1  0  0  0  0
  9 11  1  0  0  0  0
  9 16  1  1  0  0  0
  9 14  1  0  0  0  0
 10  9  1  0  0  0  0
 12 20  1  1  0  0  0
 12 10  1  0  0  0  0
 12 13  1  0  0  0  0
 13 22  1  6  0  0  0
 13  8  1  0  0  0  0
 14 15  1  0  0  0  0
 16 18  1  0  0  0  0
 17 16  2  0  0  0  0
 18 19  1  0  0  0  0
 20 21  1  0  0  0  0
 22 23  1  0  0  0  0
 23 26  2  0  0  0  0
 24 22  1  0  0  0  0
 25 23  1  0  0  0  0
 27 28  1  0  0  0  0
 29  6  1  0  0  0  0
 30 29  1  0  0  0  0
 31 32  1  0  0  0  0
 32 33  1  0  0  0  0
 33 35  1  0  0  0  0
 33 34  2  0  0  0  0
 34 36  1  0  0  0  0
 35 37  2  0  0  0  0
 36 38  1  0  0  0  0
 37 36  1  0  0  0  0
 38 39  1  6  0  0  0
 38 43  1  0  0  0  0
 41 42  1  0  0  0  0
 44 45  1  1  0  0  0
 44 43  1  0  0  0  0
 44 47  1  0  0  0  0
 47 48  1  0  0  0  0
 49 50  1  0  0  0  0
 51 50  1  0  0  0  0
 51 52  1  0  0  0  0
 53 52  1  0  0  0  0
 53 54  1  0  0  0  0
M  END
>  <REMARK>
 VINA RESULT:    -7.798      3.664      7.763
 INTER + INTRA:         -13.198
 INTER:                  -8.944
 INTRA:                  -4.255
 UNBOUND:                 3.032
 SMILES CC(=O)N[C@@H]1[C@@H](O)C[C@](O)(C(=O)O)O[C@H]1C(O)[C@H](O)CNC(=O)OCc1cn(C2CC(O)C=C[C@@H](O)C2)nn1
 SMILES IDX 21 1 22 2 23 3 20 5 18 6 16 7 15 8 9 9 8 10 14 11 6 12 5 13
 SMILES IDX 10 14 11 16 12 17 13 18 7 20 4 22 2 23 1 25 3 26 17 27 19 29
 SMILES IDX 24 31 25 32 26 33 27 34 39 35 28 36 38 37 29 38 30 39 31 40
 SMILES IDX 32 42 37 44 35 45 34 46 33 47 36 49
 H PARENT 21 4 10 15 13 19 7 21 4 24 17 28 19 30 32 43 36 50
 Flexibility Score: 90.00
  4 active torsions:
  status: ('A' for Active; 'I' for Inactive)
    1  A    between atoms: CA   and  CB  
    2  A    between atoms: CB   and  CG  
    3  A    between atoms: CG   and  CD  
    4  A    between atoms: CD   and  CE  

>  <TORSDO>
F 17

>  <BEGIN_>
RES LYS A 131

$$$$
ligand_69_pose_7_2HRL.pdbqt
 OpenBabel07062320523D

  6  5  0  0  0  0  0  0  0  0999 V2000
   33.1930   34.6630    9.2900 C   0  0  0  0  0  0  0  0  0  0  0  0
   32.0600   35.3600   10.0340 C   0  0  0  0  0  0  0  0  0  0  0  0
   30.7540   35.3570    9.2820 C   0  0  0  0  0  0  0  0  0  0  0  0
   30.0260   36.6800    9.4670 C   0  0  0  0  0  0  0  0  0  0  0  0
   30.7180   37.7830    8.6900 C   0  0  0  0  0  0  0  0  0  0  0  0
   31.1920   38.8630    9.5980 N   0  0  0  0  0  0  0  0  0  0  0  0
  1  2  1  0  0  0  0
  3  4  1  0  0  0  0
  3  2  1  0  0  0  0
  5  4  1  0  0  0  0
  5  6  1  0  0  0  0
M  END
>  <EGIN_R>
ES LYS A 135

>  <REMARK>
  4 active torsions:
  status: ('A' for Active; 'I' for Inactive)
    5  A    between atoms: CA   and  CB  
    6  A    between atoms: CB   and  CG  
    7  A    between atoms: CG   and  CD  
    8  A    between atoms: CD   and  CE  

$$$$
