ligand_92_pose_19_2HRL.pdbqt
 OpenBabel07062320523D

 59 61  0  0  1  0  0  0  0  0999 V2000
   29.8970   35.9560   18.4120 N   0  0  0  0  0  0  0  0  0  0  0  0
   31.2900   35.7270   18.4380 C   0  0  0  0  0  0  0  0  0  0  0  0
   31.7360   34.7590   19.1450 O   0  0  0  0  0  0  0  0  0  0  0  0
   29.5280   36.7360   17.8410 H   0  0  0  0  0  0  0  0  0  0  0  0
   28.9790   35.1340   19.1530 C   0  0  0  0  0  0  0  0  0  0  0  0
   27.7830   34.7120   18.3370 C   0  0  2  0  0  0  0  0  0  0  0  0
   27.6480   33.2180   18.2590 C   0  0  1  0  0  0  0  0  0  0  0  0
   29.0320   32.5510   18.1700 C   0  0  2  0  0  0  0  0  0  0  0  0
   29.4280   32.4320   15.8470 C   0  0  2  0  0  0  0  0  0  0  0  0
   29.6010   30.9310   15.9710 C   0  0  0  0  0  0  0  0  0  0  0  0
   29.6300   33.0260   17.0440 O   0  0  0  0  0  0  0  0  0  0  0  0
   28.5450   30.4760   16.9500 C   0  0  1  0  0  0  0  0  0  0  0  0
   28.8650   31.0870   18.2920 C   0  0  1  0  0  0  0  0  0  0  0  0
   28.0990   32.6270   15.4490 O   0  0  0  0  0  0  0  0  0  0  0  0
   27.4870   32.7390   16.1990 H   0  0  0  0  0  0  0  0  0  0  0  0
   30.2930   32.9790   14.7700 C   0  0  0  0  0  0  0  0  0  0  0  0
   29.8130   33.7640   13.9390 O   0  0  0  0  0  0  0  0  0  0  0  0
   31.6240   32.6230   14.6810 O   0  0  0  0  0  0  0  0  0  0  0  0
   32.3580   33.3400   14.7700 H   0  0  0  0  0  0  0  0  0  0  0  0
   27.2830   30.8200   16.4800 O   0  0  0  0  0  0  0  0  0  0  0  0
   27.3050   31.7970   16.2600 H   0  0  0  0  0  0  0  0  0  0  0  0
   29.9770   30.3760   18.8360 N   0  0  0  0  0  0  0  0  0  0  0  0
   29.9890   30.0000   20.1970 C   0  0  0  0  0  0  0  0  0  0  0  0
   30.7840   30.1300   18.2390 H   0  0  0  0  0  0  0  0  0  0  0  0
   31.1020   29.2610   20.8450 C   0  0  0  0  0  0  0  0  0  0  0  0
   29.0120   30.3080   20.8910 O   0  0  0  0  0  0  0  0  0  0  0  0
   26.9460   32.6850   19.3650 O   0  0  0  0  0  0  0  0  0  0  0  0
   27.5860   32.1840   19.9020 H   0  0  0  0  0  0  0  0  0  0  0  0
   27.9850   35.2760   17.0590 O   0  0  0  0  0  0  0  0  0  0  0  0
   28.6420   36.0040   17.1820 H   0  0  0  0  0  0  0  0  0  0  0  0
   32.2080   36.4880   17.7450 O   0  0  0  0  0  0  0  0  0  0  0  0
   33.3580   35.9040   17.1170 C   0  0  0  0  0  0  0  0  0  0  0  0
   33.0450   35.8320   15.6600 C   0  0  0  0  0  0  0  0  0  0  0  0
   32.2320   36.7060   14.9350 C   0  0  0  0  0  0  0  0  0  0  0  0
   33.4660   34.9330   14.7460 N   0  0  0  0  0  0  0  0  0  0  0  0
   32.1920   36.3140   13.6510 N   0  0  0  0  0  0  0  0  0  0  0  0
   32.9520   35.2400   13.5810 N   0  0  0  0  0  0  0  0  0  0  0  0
   31.4630   36.9650   12.6180 C   0  0  0  0  0  0  0  0  0  0  0  0
   30.0930   37.0810   12.6360 C   0  0  0  0  0  0  0  0  0  0  0  0
   32.1380   37.5060   11.5450 C   0  0  0  0  0  0  0  0  0  0  0  0
   29.3970   37.7220   11.6120 C   0  0  0  0  0  0  0  0  0  0  0  0
   31.4540   38.1400   10.5320 C   0  0  0  0  0  0  0  0  0  0  0  0
   30.0600   38.2660   10.5370 C   0  0  0  0  0  0  0  0  0  0  0  0
   29.2380   39.0850    9.2420 S   0  0  0  0  0  0  0  0  0  0  0  0
   29.4990   38.2800    7.9750 O   0  0  0  0  0  0  0  0  0  0  0  0
   29.8990   40.4050    9.0440 O   0  0  0  0  0  0  0  0  0  0  0  0
   27.5610   39.2490    9.4630 N   0  0  0  0  0  0  0  0  0  0  0  0
   27.2070   40.1670    9.8470 H   0  0  0  0  0  0  0  0  0  0  0  0
   26.5710   38.2910    9.1910 C   0  0  0  0  0  0  0  0  0  0  0  0
   26.4230   37.1120    8.9110 N   0  0  0  0  0  0  0  0  0  0  0  0
   24.7560   38.8120    9.2320 S   0  0  0  0  0  0  0  0  0  0  0  0
   25.3240   36.4580    8.7100 C   0  0  0  0  0  0  0  0  0  0  0  0
   24.1420   37.1080    8.8090 C   0  0  0  0  0  0  0  0  0  0  0  0
   29.8670   25.5550   16.9770 C   0  0  0  0  0  0  0  0  0  0  0  0
   28.3450   25.7220   17.0260 C   0  0  0  0  0  0  0  0  0  0  0  0
   27.6030   24.3960   16.9650 C   0  0  0  0  0  0  0  0  0  0  0  0
   26.2180   24.4950   17.5420 C   0  0  0  0  0  0  0  0  0  0  0  0
   25.8300   23.1580   18.1660 C   0  0  0  0  0  0  0  0  0  0  0  0
   24.7380   22.5220   17.3920 N   0  0  0  0  0  0  0  0  0  0  0  0
  1  2  1  0  0  0  0
  1  5  1  0  0  0  0
  2  3  2  0  0  0  0
  4  1  1  0  0  0  0
  6  5  1  1  0  0  0
  7  6  1  0  0  0  0
  7 27  1  1  0  0  0
  8  7  1  6  0  0  0
  8 13  1  0  0  0  0
  9 16  1  6  0  0  0
  9 10  1  0  0  0  0
  9 11  1  0  0  0  0
 10 12  1  0  0  0  0
 11  8  1  0  0  0  0
 12 20  1  6  0  0  0
 12 13  1  0  0  0  0
 13 22  1  6  0  0  0
 14  9  1  0  0  0  0
 14 15  1  0  0  0  0
 17 16  2  0  0  0  0
 18 16  1  0  0  0  0
 18 19  1  0  0  0  0
 21 20  1  0  0  0  0
 22 23  1  0  0  0  0
 23 25  1  0  0  0  0
 23 26  2  0  0  0  0
 24 22  1  0  0  0  0
 27 28  1  0  0  0  0
 29 30  1  0  0  0  0
 29  6  1  0  0  0  0
 31  2  1  0  0  0  0
 32 31  1  0  0  0  0
 33 32  1  0  0  0  0
 34 33  2  0  0  0  0
 35 33  1  0  0  0  0
 36 34  1  0  0  0  0
 37 36  1  0  0  0  0
 37 35  2  0  0  0  0
 38 39  1  0  0  0  0
 38 36  1  0  0  0  0
 40 38  2  0  0  0  0
 41 39  2  0  0  0  0
 42 43  2  0  0  0  0
 42 40  1  0  0  0  0
 43 41  1  0  0  0  0
 44 47  1  0  0  0  0
 44 43  1  0  0  0  0
 45 44  2  0  0  0  0
 46 44  2  0  0  0  0
 47 48  1  0  0  0  0
 49 51  1  0  0  0  0
 49 47  1  0  0  0  0
 50 49  2  0  0  0  0
 52 53  2  0  0  0  0
 52 50  1  0  0  0  0
 53 51  1  0  0  0  0
 54 55  1  0  0  0  0
 56 55  1  0  0  0  0
 56 57  1  0  0  0  0
 57 58  1  0  0  0  0
 59 58  1  0  0  0  0
M  END
>  <REMARK>
 VINA RESULT:    -4.765      3.478      7.357
 INTER + INTRA:         -15.491
 INTER:                  -9.083
 INTRA:                  -6.408
 UNBOUND:                -6.408
 SMILES CC(=O)N[C@@H]1[C@@H](O)C[C@](O)(C(=O)O)O[C@H]1C(O)[C@H](O)CNC(=O)OCc1cn(-c2ccc(S(=O)(=O)Nc3nccs3)cc2)nn1
 SMILES IDX 21 1 22 2 23 3 20 5 18 6 16 7 15 8 9 9 8 10 14 11 6 12 5 13
 SMILES IDX 10 14 11 16 12 17 13 18 7 20 4 22 2 23 1 25 3 26 17 27 19 29
 SMILES IDX 24 31 25 32 26 33 27 34 45 35 28 36 44 37 29 38 30 39 43 40
 SMILES IDX 31 41 42 42 32 43 33 44 34 45 35 46 36 47 37 49 38 50 41 51
 SMILES IDX 39 52 40 53
 H PARENT 21 4 10 15 13 19 7 21 4 24 17 28 19 30 36 48
 Flexibility Score: inf
  4 active torsions:
  status: ('A' for Active; 'I' for Inactive)
    1  A    between atoms: CA   and  CB  
    2  A    between atoms: CB   and  CG  
    3  A    between atoms: CG   and  CD  
    4  A    between atoms: CD   and  CE  

>  <TORSDO>
F 18

>  <BEGIN_>
RES LYS A 131

$$$$
ligand_92_pose_19_2HRL.pdbqt
 OpenBabel07062320523D

  6  5  0  0  0  0  0  0  0  0999 V2000
   33.1930   34.6630    9.2900 C   0  0  0  0  0  0  0  0  0  0  0  0
   32.0600   35.3600   10.0340 C   0  0  0  0  0  0  0  0  0  0  0  0
   30.7340   34.6540    9.9110 C   0  0  0  0  0  0  0  0  0  0  0  0
   30.3290   34.5240    8.4500 C   0  0  0  0  0  0  0  0  0  0  0  0
   28.8190   34.5570    8.3120 C   0  0  0  0  0  0  0  0  0  0  0  0
   28.1630   33.8100    9.4200 N   0  0  0  0  0  0  0  0  0  0  0  0
  1  2  1  0  0  0  0
  3  2  1  0  0  0  0
  4  3  1  0  0  0  0
  5  4  1  0  0  0  0
  5  6  1  0  0  0  0
M  END
>  <EGIN_R>
ES LYS A 135

>  <REMARK>
  4 active torsions:
  status: ('A' for Active; 'I' for Inactive)
    5  A    between atoms: CA   and  CB  
    6  A    between atoms: CB   and  CG  
    7  A    between atoms: CG   and  CD  
    8  A    between atoms: CD   and  CE  

$$$$
