ligand_4_pose_12_2HRL.pdbqt
 OpenBabel07062320523D

 52 53  0  0  1  0  0  0  0  0999 V2000
   25.3830   29.9280   16.6030 N   0  0  0  0  0  0  0  0  0  0  0  0
   26.7740   29.7430   16.4830 C   0  0  0  0  0  0  0  0  0  0  0  0
   27.3270   28.7020   16.8950 O   0  0  0  0  0  0  0  0  0  0  0  0
   24.9690   30.8230   16.2250 H   0  0  0  0  0  0  0  0  0  0  0  0
   24.5330   28.9600   17.2040 C   0  0  0  0  0  0  0  0  0  0  0  0
   24.2100   29.2260   18.6740 C   0  0  2  0  0  0  0  0  0  0  0  0
   24.6990   27.9550   19.3730 C   0  0  2  0  0  0  0  0  0  0  0  0
   25.7220   28.2250   20.4290 C   0  0  2  0  0  0  0  0  0  0  0  0
   28.0350   28.1040   20.3080 C   0  0  2  0  0  0  0  0  0  0  0  0
   28.1330   27.6530   21.7220 C   0  0  0  0  0  0  0  0  0  0  0  0
   26.8760   28.6860   19.8910 O   0  0  0  0  0  0  0  0  0  0  0  0
   26.8650   27.0770   22.3150 C   0  0  1  0  0  0  0  0  0  0  0  0
   25.9030   26.9120   21.1760 C   0  0  1  0  0  0  0  0  0  0  0  0
   28.4260   27.0470   19.4450 O   0  0  0  0  0  0  0  0  0  0  0  0
   27.8100   26.9030   18.7040 H   0  0  0  0  0  0  0  0  0  0  0  0
   29.0950   29.1630   20.1310 C   0  0  0  0  0  0  0  0  0  0  0  0
   29.8470   29.4130   21.0970 O   0  0  0  0  0  0  0  0  0  0  0  0
   29.2750   29.8620   18.9450 O   0  0  0  0  0  0  0  0  0  0  0  0
   29.0300   30.8400   18.8120 H   0  0  0  0  0  0  0  0  0  0  0  0
   27.1760   25.7880   22.8480 O   0  0  0  0  0  0  0  0  0  0  0  0
   27.2410   25.1170   22.1280 H   0  0  0  0  0  0  0  0  0  0  0  0
   24.6550   26.3020   21.4240 N   0  0  0  0  0  0  0  0  0  0  0  0
   24.3800   24.9190   21.2900 C   0  0  0  0  0  0  0  0  0  0  0  0
   23.8290   26.9160   21.7410 H   0  0  0  0  0  0  0  0  0  0  0  0
   23.0730   24.3050   21.5540 C   0  0  0  0  0  0  0  0  0  0  0  0
   25.3850   24.1880   20.8960 O   0  0  0  0  0  0  0  0  0  0  0  0
   25.1700   27.1380   18.3410 O   0  0  0  0  0  0  0  0  0  0  0  0
   26.1190   26.9290   18.5460 H   0  0  0  0  0  0  0  0  0  0  0  0
   22.8920   29.4210   18.9290 O   0  0  0  0  0  0  0  0  0  0  0  0
   22.7070   29.7540   19.8040 H   0  0  0  0  0  0  0  0  0  0  0  0
   27.5770   30.7210   15.8960 O   0  0  0  0  0  0  0  0  0  0  0  0
   28.8880   30.3460   15.5010 C   0  0  0  0  0  0  0  0  0  0  0  0
   29.7400   31.5300   15.7780 C   0  0  0  0  0  0  0  0  0  0  0  0
   29.5420   32.7850   15.1890 C   0  0  0  0  0  0  0  0  0  0  0  0
   30.7320   31.6680   16.6710 N   0  0  0  0  0  0  0  0  0  0  0  0
   30.4330   33.6020   15.7820 N   0  0  0  0  0  0  0  0  0  0  0  0
   31.0940   32.9220   16.6280 N   0  0  0  0  0  0  0  0  0  0  0  0
   30.4770   35.0000   15.5690 C   0  0  0  0  0  0  0  0  0  0  0  0
   31.5130   35.5590   14.9230 C   0  0  0  0  0  0  0  0  0  0  0  0
   29.5140   35.8070   16.1920 C   0  0  0  0  0  0  0  0  0  0  0  0
   31.6160   36.9490   14.8810 C   0  0  0  0  0  0  0  0  0  0  0  0
   29.5980   37.1490   16.1610 C   0  0  0  0  0  0  0  0  0  0  0  0
   30.6570   37.7590   15.5030 C   0  0  0  0  0  0  0  0  0  0  0  0
   32.4450   34.7560   14.1570 C   0  0  0  0  0  0  0  0  0  0  0  0
   33.8640   34.8280   14.6990 C   0  0  0  0  0  0  0  0  0  0  0  0
   32.6510   35.5570   12.7950 C   0  0  0  0  0  0  0  0  0  0  0  0
   29.8670   25.5550   16.9770 C   0  0  0  0  0  0  0  0  0  0  0  0
   28.3450   25.7220   17.0260 C   0  0  0  0  0  0  0  0  0  0  0  0
   27.5990   24.4370   16.7020 C   0  0  0  0  0  0  0  0  0  0  0  0
   27.0200   23.7930   17.9310 C   0  0  0  0  0  0  0  0  0  0  0  0
   25.7090   23.1000   17.5720 C   0  0  0  0  0  0  0  0  0  0  0  0
   24.7480   24.0720   16.9990 N   0  0  0  0  0  0  0  0  0  0  0  0
  1  5  1  0  0  0  0
  2  1  1  0  0  0  0
  2  3  2  0  0  0  0
  4  1  1  0  0  0  0
  6  5  1  6  0  0  0
  6 29  1  0  0  0  0
  6  7  1  0  0  0  0
  7 27  1  6  0  0  0
  8  7  1  6  0  0  0
  8 13  1  0  0  0  0
  9 14  1  6  0  0  0
  9 10  1  0  0  0  0
 10 12  1  0  0  0  0
 11  9  1  0  0  0  0
 11  8  1  0  0  0  0
 12 20  1  6  0  0  0
 13 22  1  1  0  0  0
 13 12  1  0  0  0  0
 15 14  1  0  0  0  0
 16  9  1  0  0  0  0
 16 17  2  0  0  0  0
 18 16  1  0  0  0  0
 19 18  1  0  0  0  0
 21 20  1  0  0  0  0
 22 24  1  0  0  0  0
 23 22  1  0  0  0  0
 23 25  1  0  0  0  0
 26 23  2  0  0  0  0
 27 28  1  0  0  0  0
 29 30  1  0  0  0  0
 31  2  1  0  0  0  0
 32 33  1  0  0  0  0
 32 31  1  0  0  0  0
 33 35  1  0  0  0  0
 34 33  2  0  0  0  0
 34 36  1  0  0  0  0
 36 37  1  0  0  0  0
 37 35  2  0  0  0  0
 38 36  1  0  0  0  0
 38 40  2  0  0  0  0
 39 38  1  0  0  0  0
 41 39  2  0  0  0  0
 41 43  1  0  0  0  0
 42 40  1  0  0  0  0
 43 42  2  0  0  0  0
 44 45  1  0  0  0  0
 44 39  1  0  0  0  0
 46 44  1  0  0  0  0
 47 48  1  0  0  0  0
 49 48  1  0  0  0  0
 49 50  1  0  0  0  0
 51 50  1  0  0  0  0
 52 51  1  0  0  0  0
M  END
>  <REMARK>
 VINA RESULT:    -4.115      5.806     12.260
 INTER + INTRA:         -14.599
 INTER:                  -8.166
 INTRA:                  -6.433
 UNBOUND:                -7.237
 SMILES CC(=O)N[C@@H]1[C@@H](O)C[C@](O)(C(=O)O)O[C@H]1C(O)[C@H](O)CNC(=O)OCc1cn(-c2ccccc2C(C)C)nn1
 SMILES IDX 21 1 22 2 23 3 20 5 18 6 16 7 15 8 9 9 8 10 14 11 6 12 5 13
 SMILES IDX 10 14 11 16 12 17 13 18 7 20 4 22 2 23 1 25 3 26 17 27 19 29
 SMILES IDX 24 31 25 32 26 33 27 34 39 35 28 36 38 37 29 38 34 39 30 40
 SMILES IDX 33 41 31 42 32 43 35 44 36 45 37 46
 H PARENT 21 4 10 15 13 19 7 21 4 24 17 28 19 30
 Flexibility Score: inf
  4 active torsions:
  status: ('A' for Active; 'I' for Inactive)
    1  A    between atoms: CA   and  CB  
    2  A    between atoms: CB   and  CG  
    3  A    between atoms: CG   and  CD  
    4  A    between atoms: CD   and  CE  

>  <TORSDO>
F 16

>  <BEGIN_>
RES LYS A 131

$$$$
ligand_4_pose_12_2HRL.pdbqt
 OpenBabel07062320523D

  6  5  0  0  0  0  0  0  0  0999 V2000
   33.1930   34.6630    9.2900 C   0  0  0  0  0  0  0  0  0  0  0  0
   32.0600   35.3600   10.0340 C   0  0  0  0  0  0  0  0  0  0  0  0
   30.7190   34.6980    9.8470 C   0  0  0  0  0  0  0  0  0  0  0  0
   30.4380   34.4620    8.3710 C   0  0  0  0  0  0  0  0  0  0  0  0
   28.9950   34.7970    8.0440 C   0  0  0  0  0  0  0  0  0  0  0  0
   28.8910   35.5000    6.7350 N   0  0  0  0  0  0  0  0  0  0  0  0
  1  2  1  0  0  0  0
  3  2  1  0  0  0  0
  4  3  1  0  0  0  0
  5  4  1  0  0  0  0
  6  5  1  0  0  0  0
M  END
>  <EGIN_R>
ES LYS A 135

>  <REMARK>
  4 active torsions:
  status: ('A' for Active; 'I' for Inactive)
    5  A    between atoms: CA   and  CB  
    6  A    between atoms: CB   and  CG  
    7  A    between atoms: CG   and  CD  
    8  A    between atoms: CD   and  CE  

$$$$
