ligand_87_pose_1_2HRL.pdbqt
 OpenBabel07062320523D

 52 54  0  0  1  0  0  0  0  0999 V2000
   25.6600   28.1290   19.3850 C   0  0  0  0  0  0  0  0  0  0  0  0
   26.3320   28.1750   20.7260 C   0  0  2  0  0  0  0  0  0  0  0  0
   27.4320   27.1240   20.8150 C   0  0  2  0  0  0  0  0  0  0  0  0
   28.6760   27.8020   21.3860 C   0  0  2  0  0  0  0  0  0  0  0  0
   30.9800   27.7130   20.9940 C   0  0  2  0  0  0  0  0  0  0  0  0
   31.3120   27.2840   22.3890 C   0  0  0  0  0  0  0  0  0  0  0  0
   29.7050   27.4910   20.5910 O   0  0  0  0  0  0  0  0  0  0  0  0
   30.1380   26.9170   23.2320 C   0  0  1  0  0  0  0  0  0  0  0  0
   28.8400   27.5540   22.8600 C   0  0  1  0  0  0  0  0  0  0  0  0
   31.8000   26.9940   20.1190 O   0  0  0  0  0  0  0  0  0  0  0  0
   32.6890   26.8000   20.5030 H   0  0  0  0  0  0  0  0  0  0  0  0
   31.2880   29.1390   20.7580 C   0  0  0  0  0  0  0  0  0  0  0  0
   31.8000   29.8230   21.6690 O   0  0  0  0  0  0  0  0  0  0  0  0
   31.0390   29.7980   19.5580 O   0  0  0  0  0  0  0  0  0  0  0  0
   30.4920   29.3340   18.8160 H   0  0  0  0  0  0  0  0  0  0  0  0
   30.0340   25.5190   23.2100 O   0  0  0  0  0  0  0  0  0  0  0  0
   30.3460   25.1430   24.0670 H   0  0  0  0  0  0  0  0  0  0  0  0
   28.4870   28.7090   23.6380 N   0  0  0  0  0  0  0  0  0  0  0  0
   27.3440   28.7880   24.4670 C   0  0  0  0  0  0  0  0  0  0  0  0
   29.1010   29.5670   23.6080 H   0  0  0  0  0  0  0  0  0  0  0  0
   26.9610   29.9650   25.2740 C   0  0  0  0  0  0  0  0  0  0  0  0
   26.6270   27.7580   24.4910 O   0  0  0  0  0  0  0  0  0  0  0  0
   27.7030   26.5440   19.5870 O   0  0  0  0  0  0  0  0  0  0  0  0
   27.9660   25.6010   19.7480 H   0  0  0  0  0  0  0  0  0  0  0  0
   25.4710   27.9730   21.7670 O   0  0  0  0  0  0  0  0  0  0  0  0
   24.7370   27.3490   21.4930 H   0  0  0  0  0  0  0  0  0  0  0  0
   26.0950   29.1630   18.5090 N   0  0  0  0  0  0  0  0  0  0  0  0
   26.8790   28.9770   17.3580 C   0  0  0  0  0  0  0  0  0  0  0  0
   25.8130   30.1710   18.7280 H   0  0  0  0  0  0  0  0  0  0  0  0
   27.2850   27.8580   16.9930 O   0  0  0  0  0  0  0  0  0  0  0  0
   27.2280   30.0950   16.5770 O   0  0  0  0  0  0  0  0  0  0  0  0
   28.3950   30.0250   15.7840 C   0  0  0  0  0  0  0  0  0  0  0  0
   29.3900   30.9950   16.2410 C   0  0  0  0  0  0  0  0  0  0  0  0
   30.1070   31.8620   15.4250 C   0  0  0  0  0  0  0  0  0  0  0  0
   29.7890   31.2220   17.4920 N   0  0  0  0  0  0  0  0  0  0  0  0
   30.9130   32.5830   16.2140 N   0  0  0  0  0  0  0  0  0  0  0  0
   30.7000   32.1770   17.4470 N   0  0  0  0  0  0  0  0  0  0  0  0
   31.8440   33.6130   15.8250 C   0  0  1  0  0  0  0  0  0  0  0  0
   31.3780   34.2190   14.5010 C   0  0  0  0  0  0  0  0  0  0  0  0
   31.7710   34.6960   16.8780 C   0  0  0  0  0  0  0  0  0  0  0  0
   32.1980   35.4490   14.2240 C   0  0  1  0  0  0  0  0  0  0  0  0
   32.4410   35.9430   16.4020 C   0  0  2  0  0  0  0  0  0  0  0  0
   31.8890   36.4790   15.1970 N   0  0  0  0  0  0  0  0  0  0  0  0
   33.6620   35.1780   14.5180 C   0  0  0  0  0  0  0  0  0  0  0  0
   33.8550   35.5490   15.9560 C   0  0  0  0  0  0  0  0  0  0  0  0
   30.4870   36.7740   15.2770 C   0  0  0  0  0  0  0  0  0  0  0  0
   29.8670   25.5550   16.9770 C   0  0  0  0  0  0  0  0  0  0  0  0
   28.3450   25.7220   17.0260 C   0  0  0  0  0  0  0  0  0  0  0  0
   27.5990   24.4660   16.6020 C   0  0  0  0  0  0  0  0  0  0  0  0
   27.1550   23.6460   17.7810 C   0  0  0  0  0  0  0  0  0  0  0  0
   25.6680   23.3340   17.6540 C   0  0  0  0  0  0  0  0  0  0  0  0
   24.9680   24.4270   16.9380 N   0  0  0  0  0  0  0  0  0  0  0  0
  2  1  1  6  0  0  0
  2  3  1  0  0  0  0
  2 25  1  0  0  0  0
  3 23  1  6  0  0  0
  4  3  1  6  0  0  0
  4  9  1  0  0  0  0
  5 10  1  6  0  0  0
  5  6  1  0  0  0  0
  6  8  1  0  0  0  0
  7  5  1  0  0  0  0
  7  4  1  0  0  0  0
  8 16  1  6  0  0  0
  9  8  1  0  0  0  0
  9 18  1  1  0  0  0
 10 11  1  0  0  0  0
 12  5  1  0  0  0  0
 12 13  2  0  0  0  0
 14 12  1  0  0  0  0
 15 14  1  0  0  0  0
 16 17  1  0  0  0  0
 18 19  1  0  0  0  0
 19 22  2  0  0  0  0
 19 21  1  0  0  0  0
 20 18  1  0  0  0  0
 23 24  1  0  0  0  0
 26 25  1  0  0  0  0
 27 29  1  0  0  0  0
 27  1  1  0  0  0  0
 28 27  1  0  0  0  0
 30 28  2  0  0  0  0
 31 28  1  0  0  0  0
 32 33  1  0  0  0  0
 32 31  1  0  0  0  0
 33 35  1  0  0  0  0
 34 36  1  0  0  0  0
 34 33  2  0  0  0  0
 36 37  1  0  0  0  0
 37 35  2  0  0  0  0
 38 39  1  6  0  0  0
 38 36  1  0  0  0  0
 38 40  1  0  0  0  0
 41 39  1  1  0  0  0
 41 44  1  0  0  0  0
 41 43  1  0  0  0  0
 42 45  1  6  0  0  0
 42 40  1  0  0  0  0
 43 46  1  0  0  0  0
 43 42  1  0  0  0  0
 44 45  1  0  0  0  0
 47 48  1  0  0  0  0
 49 48  1  0  0  0  0
 49 50  1  0  0  0  0
 51 50  1  0  0  0  0
 52 51  1  0  0  0  0
M  END
>  <REMARK>
 VINA RESULT:    -5.577      1.915      3.148
 INTER + INTRA:         -15.154
 INTER:                  -9.223
 INTRA:                  -5.931
 UNBOUND:                -5.502
 SMILES CC(=O)N[C@@H]1[C@@H](O)C[C@](O)(C(=O)O)O[C@H]1C(O)[C@H](O)CNC(=O)OCc1cn([C@@H]2C[C@H]3CC[C@@H](C2)N3C)nn1
 SMILES IDX 20 1 18 2 16 3 15 4 9 5 8 6 14 7 6 8 5 9 10 10 11 12 12 13
 SMILES IDX 13 14 7 16 4 18 2 19 1 21 3 22 17 23 19 25 21 27 22 28 23 30
 SMILES IDX 24 31 25 32 26 33 27 34 39 35 28 36 38 37 29 38 35 39 30 40
 SMILES IDX 34 41 31 42 36 43 33 44 32 45 37 46
 H PARENT 10 11 13 15 7 17 4 20 17 24 19 26 21 29
 Flexibility Score: inf
  4 active torsions:
  status: ('A' for Active; 'I' for Inactive)
    1  A    between atoms: CA   and  CB  
    2  A    between atoms: CB   and  CG  
    3  A    between atoms: CG   and  CD  
    4  A    between atoms: CD   and  CE  

>  <TORSDO>
F 15

>  <BEGIN_>
RES LYS A 131

$$$$
ligand_87_pose_1_2HRL.pdbqt
 OpenBabel07062320523D

  6  5  0  0  0  0  0  0  0  0999 V2000
   33.1930   34.6630    9.2900 C   0  0  0  0  0  0  0  0  0  0  0  0
   32.0600   35.3600   10.0340 C   0  0  0  0  0  0  0  0  0  0  0  0
   30.7990   35.4970    9.2200 C   0  0  0  0  0  0  0  0  0  0  0  0
   29.9750   34.2210    9.2880 C   0  0  0  0  0  0  0  0  0  0  0  0
   28.5990   34.4440    8.6900 C   0  0  0  0  0  0  0  0  0  0  0  0
   27.5580   33.6940    9.4460 N   0  0  0  0  0  0  0  0  0  0  0  0
  1  2  1  0  0  0  0
  3  4  1  0  0  0  0
  3  2  1  0  0  0  0
  5  4  1  0  0  0  0
  5  6  1  0  0  0  0
M  END
>  <EGIN_R>
ES LYS A 135

>  <REMARK>
  4 active torsions:
  status: ('A' for Active; 'I' for Inactive)
    5  A    between atoms: CA   and  CB  
    6  A    between atoms: CB   and  CG  
    7  A    between atoms: CG   and  CD  
    8  A    between atoms: CD   and  CE  

$$$$
