ligand_79_pose_10_2HRL.pdbqt
 OpenBabel07062320523D

 58 60  0  0  1  0  0  0  0  0999 V2000
   30.3340   40.4330   11.9130 N   0  0  0  0  0  0  0  0  0  0  0  0
   30.1510   41.7910   11.5610 C   0  0  0  0  0  0  0  0  0  0  0  0
   30.3250   42.1800   10.4040 O   0  0  0  0  0  0  0  0  0  0  0  0
   30.1480   40.2040   12.9480 H   0  0  0  0  0  0  0  0  0  0  0  0
   30.7350   39.3760   11.0270 C   0  0  0  0  0  0  0  0  0  0  0  0
   29.6510   38.4820   10.5500 C   0  0  2  0  0  0  0  0  0  0  0  0
   29.0710   38.8910    9.2050 C   0  0  1  0  0  0  0  0  0  0  0  0
   28.2110   37.8020    8.6160 C   0  0  2  0  0  0  0  0  0  0  0  0
   29.2840   35.7940    8.1860 C   0  0  2  0  0  0  0  0  0  0  0  0
   28.5700   35.5560    6.8720 C   0  0  0  0  0  0  0  0  0  0  0  0
   28.5170   36.5490    9.0640 O   0  0  0  0  0  0  0  0  0  0  0  0
   27.5060   36.6050    6.6210 C   0  0  1  0  0  0  0  0  0  0  0  0
   28.1070   37.9230    7.1110 C   0  0  1  0  0  0  0  0  0  0  0  0
   30.5460   36.3600    8.0140 O   0  0  0  0  0  0  0  0  0  0  0  0
   30.5200   37.0820    7.3220 H   0  0  0  0  0  0  0  0  0  0  0  0
   29.4880   34.4630    8.8170 C   0  0  0  0  0  0  0  0  0  0  0  0
   28.4890   33.8390    9.2950 O   0  0  0  0  0  0  0  0  0  0  0  0
   30.7160   33.8520    8.9170 O   0  0  0  0  0  0  0  0  0  0  0  0
   31.5880   34.3630    8.9830 H   0  0  0  0  0  0  0  0  0  0  0  0
   27.1400   36.6780    5.2970 O   0  0  0  0  0  0  0  0  0  0  0  0
   26.8470   37.6260    5.1100 H   0  0  0  0  0  0  0  0  0  0  0  0
   27.2730   39.0430    6.7690 N   0  0  0  0  0  0  0  0  0  0  0  0
   27.6780   40.0290    5.8010 C   0  0  0  0  0  0  0  0  0  0  0  0
   26.3290   39.2130    7.1970 H   0  0  0  0  0  0  0  0  0  0  0  0
   26.8600   41.1820    5.4250 C   0  0  0  0  0  0  0  0  0  0  0  0
   28.8190   39.8480    5.2660 O   0  0  0  0  0  0  0  0  0  0  0  0
   28.2860   40.0180    9.4660 O   0  0  0  0  0  0  0  0  0  0  0  0
   27.8080   39.9610   10.3160 H   0  0  0  0  0  0  0  0  0  0  0  0
   28.5970   38.4640   11.4430 O   0  0  0  0  0  0  0  0  0  0  0  0
   28.8580   39.0130   12.2270 H   0  0  0  0  0  0  0  0  0  0  0  0
   29.7670   42.7530   12.4990 O   0  0  0  0  0  0  0  0  0  0  0  0
   28.5100   43.3580   12.4330 C   0  0  0  0  0  0  0  0  0  0  0  0
   27.4700   42.3590   12.0770 C   0  0  0  0  0  0  0  0  0  0  0  0
   26.3280   42.6000   11.3280 C   0  0  0  0  0  0  0  0  0  0  0  0
   27.4040   41.0470   12.3840 N   0  0  0  0  0  0  0  0  0  0  0  0
   25.6250   41.4570   11.2090 N   0  0  0  0  0  0  0  0  0  0  0  0
   26.3060   40.5320   11.8630 N   0  0  0  0  0  0  0  0  0  0  0  0
   24.3480   41.2930   10.4860 C   0  0  0  0  0  0  0  0  0  0  0  0
   23.3130   40.7880   11.4310 C   0  0  0  0  0  0  0  0  0  0  0  0
   24.0130   42.7240   10.0230 C   0  0  0  0  0  0  0  0  0  0  0  0
   24.6170   40.4750    9.3060 C   0  0  0  0  0  0  0  0  0  0  0  0
   25.6570   40.6790    8.5870 O   0  0  0  0  0  0  0  0  0  0  0  0
   23.7710   39.3880    8.8280 C   0  0  0  0  0  0  0  0  0  0  0  0
   22.6620   39.5460    7.9980 C   0  0  0  0  0  0  0  0  0  0  0  0
   23.9230   38.0630    9.1460 C   0  0  0  0  0  0  0  0  0  0  0  0
   22.1540   38.3290    7.8190 N   0  0  0  0  0  0  0  0  0  0  0  0
   22.8780   37.4070    8.4890 C   0  0  0  0  0  0  0  0  0  0  0  0
   24.8310   37.3330    9.9080 C   0  0  0  0  0  0  0  0  0  0  0  0
   21.3240   38.1040    7.2500 H   0  0  0  0  0  0  0  0  0  0  0  0
   22.7820   36.0360    8.6250 C   0  0  0  0  0  0  0  0  0  0  0  0
   24.7050   35.9800   10.0200 C   0  0  0  0  0  0  0  0  0  0  0  0
   23.6870   35.3340    9.3830 C   0  0  0  0  0  0  0  0  0  0  0  0
   29.8670   25.5550   16.9770 C   0  0  0  0  0  0  0  0  0  0  0  0
   28.3450   25.7220   17.0260 C   0  0  0  0  0  0  0  0  0  0  0  0
   27.5990   24.4760   16.5740 C   0  0  0  0  0  0  0  0  0  0  0  0
   27.0590   23.6870   17.7340 C   0  0  0  0  0  0  0  0  0  0  0  0
   25.6100   23.3010   17.4580 C   0  0  0  0  0  0  0  0  0  0  0  0
   24.8490   24.4700   16.9560 N   0  0  0  0  0  0  0  0  0  0  0  0
  1  4  1  0  0  0  0
  2  1  1  0  0  0  0
  2 31  1  0  0  0  0
  3  2  2  0  0  0  0
  5  1  1  0  0  0  0
  6  5  1  1  0  0  0
  6 29  1  0  0  0  0
  7 27  1  1  0  0  0
  7  6  1  0  0  0  0
  8 11  1  0  0  0  0
  8  7  1  6  0  0  0
  9 14  1  6  0  0  0
  9 16  1  0  0  0  0
  9 11  1  0  0  0  0
 10  9  1  0  0  0  0
 12 20  1  6  0  0  0
 12 10  1  0  0  0  0
 12 13  1  0  0  0  0
 13 22  1  1  0  0  0
 13  8  1  0  0  0  0
 15 14  1  0  0  0  0
 16 18  1  0  0  0  0
 16 17  2  0  0  0  0
 18 19  1  0  0  0  0
 21 20  1  0  0  0  0
 22 24  1  0  0  0  0
 23 22  1  0  0  0  0
 25 23  1  0  0  0  0
 26 23  2  0  0  0  0
 27 28  1  0  0  0  0
 29 30  1  0  0  0  0
 32 31  1  0  0  0  0
 33 35  1  0  0  0  0
 33 32  1  0  0  0  0
 34 33  2  0  0  0  0
 36 34  1  0  0  0  0
 36 37  1  0  0  0  0
 37 35  2  0  0  0  0
 38 36  1  0  0  0  0
 38 39  1  0  0  0  0
 40 38  1  0  0  0  0
 41 38  1  0  0  0  0
 42 41  2  0  0  0  0
 43 45  1  0  0  0  0
 43 41  1  0  0  0  0
 44 43  2  0  0  0  0
 45 48  2  0  0  0  0
 46 44  1  0  0  0  0
 46 47  1  0  0  0  0
 47 50  2  0  0  0  0
 47 45  1  0  0  0  0
 48 51  1  0  0  0  0
 49 46  1  0  0  0  0
 50 52  1  0  0  0  0
 52 51  2  0  0  0  0
 53 54  1  0  0  0  0
 55 54  1  0  0  0  0
 55 56  1  0  0  0  0
 57 56  1  0  0  0  0
 58 57  1  0  0  0  0
M  END
>  <REMARK>
 VINA RESULT:    -6.014      3.125      7.295
 INTER + INTRA:         -15.889
 INTER:                  -8.641
 INTRA:                  -7.247
 UNBOUND:                -4.777
 SMILES CC(=O)N[C@@H]1[C@@H](O)C[C@](O)(C(=O)O)O[C@H]1C(O)[C@H](O)CNC(=O)OCc1cn(C(C)(C)C(=O)c2c[nH]c3ccccc23)nn1
 SMILES IDX 21 1 22 2 23 3 20 5 18 6 16 7 15 8 9 9 8 10 14 11 6 12 5 13
 SMILES IDX 10 14 11 16 12 17 13 18 7 20 4 22 2 23 1 25 3 26 17 27 19 29
 SMILES IDX 24 31 25 32 26 33 27 34 44 35 28 36 43 37 29 38 30 39 31 40
 SMILES IDX 32 41 33 42 34 43 35 44 42 45 36 46 37 47 41 48 38 50 40 51
 SMILES IDX 39 52
 H PARENT 21 4 10 15 13 19 7 21 4 24 17 28 19 30 36 49
 Flexibility Score: inf
  4 active torsions:
  status: ('A' for Active; 'I' for Inactive)
    1  A    between atoms: CA   and  CB  
    2  A    between atoms: CB   and  CG  
    3  A    between atoms: CG   and  CD  
    4  A    between atoms: CD   and  CE  

>  <TORSDO>
F 17

>  <BEGIN_>
RES LYS A 131

$$$$
ligand_79_pose_10_2HRL.pdbqt
 OpenBabel07062320523D

  6  5  0  0  0  0  0  0  0  0999 V2000
   33.1930   34.6630    9.2900 C   0  0  0  0  0  0  0  0  0  0  0  0
   32.0600   35.3600   10.0340 C   0  0  0  0  0  0  0  0  0  0  0  0
   32.5310   36.2310   11.1700 C   0  0  0  0  0  0  0  0  0  0  0  0
   31.7810   35.8950   12.4500 C   0  0  0  0  0  0  0  0  0  0  0  0
   30.7250   34.8380   12.1870 C   0  0  0  0  0  0  0  0  0  0  0  0
   29.3750   35.3170   12.5920 N   0  0  0  0  0  0  0  0  0  0  0  0
  1  2  1  0  0  0  0
  2  3  1  0  0  0  0
  3  4  1  0  0  0  0
  5  4  1  0  0  0  0
  5  6  1  0  0  0  0
M  END
>  <EGIN_R>
ES LYS A 135

>  <REMARK>
  4 active torsions:
  status: ('A' for Active; 'I' for Inactive)
    5  A    between atoms: CA   and  CB  
    6  A    between atoms: CB   and  CG  
    7  A    between atoms: CG   and  CD  
    8  A    between atoms: CD   and  CE  

$$$$
