ligand_48_pose_14_2HRL.pdbqt
 OpenBabel07062320523D

 49 50  0  0  1  0  0  0  0  0999 V2000
   22.7650   34.6850   12.2180 C   0  0  0  0  0  0  0  0  0  0  0  0
   21.9550   35.9610   12.0420 C   0  0  2  0  0  0  0  0  0  0  0  0
   20.9220   35.6880   10.9930 C   0  0  1  0  0  0  0  0  0  0  0  0
   20.8770   36.6940    9.8630 C   0  0  2  0  0  0  0  0  0  0  0  0
   18.7150   36.7720    8.9370 C   0  0  2  0  0  0  0  0  0  0  0  0
   19.2770   36.6580    7.5300 C   0  0  0  0  0  0  0  0  0  0  0  0
   19.6590   37.3050    9.7480 O   0  0  0  0  0  0  0  0  0  0  0  0
   20.5300   35.8240    7.5110 C   0  0  1  0  0  0  0  0  0  0  0  0
   21.5070   36.2420    8.5920 C   0  0  1  0  0  0  0  0  0  0  0  0
   18.1770   35.5560    9.3560 O   0  0  0  0  0  0  0  0  0  0  0  0
   18.7620   34.8200    8.9890 H   0  0  0  0  0  0  0  0  0  0  0  0
   17.6000   37.7540    8.8350 C   0  0  0  0  0  0  0  0  0  0  0  0
   16.5300   37.5530    9.4530 O   0  0  0  0  0  0  0  0  0  0  0  0
   17.7470   38.8730    8.0670 O   0  0  0  0  0  0  0  0  0  0  0  0
   17.4080   38.9700    7.1180 H   0  0  0  0  0  0  0  0  0  0  0  0
   20.2320   34.4700    7.5800 O   0  0  0  0  0  0  0  0  0  0  0  0
   21.0600   33.9470    7.7160 H   0  0  0  0  0  0  0  0  0  0  0  0
   22.4040   37.2660    8.0520 N   0  0  0  0  0  0  0  0  0  0  0  0
   23.7770   37.1880    8.3640 C   0  0  0  0  0  0  0  0  0  0  0  0
   22.0550   38.0370    7.4510 H   0  0  0  0  0  0  0  0  0  0  0  0
   24.7720   38.1850    7.8600 C   0  0  0  0  0  0  0  0  0  0  0  0
   24.2620   36.2650    9.0930 O   0  0  0  0  0  0  0  0  0  0  0  0
   20.8690   34.3730   10.6100 O   0  0  0  0  0  0  0  0  0  0  0  0
   19.9430   33.9780   10.6710 H   0  0  0  0  0  0  0  0  0  0  0  0
   22.8320   36.9810   11.7600 O   0  0  0  0  0  0  0  0  0  0  0  0
   22.4920   37.8120   12.1290 H   0  0  0  0  0  0  0  0  0  0  0  0
   24.0590   34.8840   11.6070 N   0  0  0  0  0  0  0  0  0  0  0  0
   25.2680   34.2900   12.0430 C   0  0  0  0  0  0  0  0  0  0  0  0
   24.1610   35.5210   10.7580 H   0  0  0  0  0  0  0  0  0  0  0  0
   25.2560   33.5250   13.0370 O   0  0  0  0  0  0  0  0  0  0  0  0
   26.4740   34.5350   11.3930 O   0  0  0  0  0  0  0  0  0  0  0  0
   26.9830   35.8440   11.3390 C   0  0  0  0  0  0  0  0  0  0  0  0
   28.3090   35.8570   12.0100 C   0  0  0  0  0  0  0  0  0  0  0  0
   28.9190   34.7740   12.6570 C   0  0  0  0  0  0  0  0  0  0  0  0
   29.1970   36.8580   12.1550 N   0  0  0  0  0  0  0  0  0  0  0  0
   30.1100   35.1580   13.1480 N   0  0  0  0  0  0  0  0  0  0  0  0
   30.2510   36.4320   12.8270 N   0  0  0  0  0  0  0  0  0  0  0  0
   31.0560   34.3330   13.8860 C   0  0  0  0  0  0  0  0  0  0  0  0
   31.7050   35.1690   14.9670 C   0  0  0  0  0  0  0  0  0  0  0  0
   30.3280   33.1870   14.5530 C   0  0  0  0  0  0  0  0  0  0  0  0
   31.1390   34.8480   16.3370 C   0  0  0  0  0  0  0  0  0  0  0  0
   31.3220   32.5220   15.4900 C   0  0  0  0  0  0  0  0  0  0  0  0
   31.4580   33.4230   16.7010 C   0  0  0  0  0  0  0  0  0  0  0  0
   29.8670   25.5550   16.9770 C   0  0  0  0  0  0  0  0  0  0  0  0
   28.3450   25.7220   17.0260 C   0  0  0  0  0  0  0  0  0  0  0  0
   27.6010   24.4060   16.8590 C   0  0  0  0  0  0  0  0  0  0  0  0
   26.6200   24.1650   17.9740 C   0  0  0  0  0  0  0  0  0  0  0  0
   25.6570   23.0520   17.5720 C   0  0  0  0  0  0  0  0  0  0  0  0
   24.3950   23.6240   17.0470 N   0  0  0  0  0  0  0  0  0  0  0  0
  2  1  1  6  0  0  0
  3 23  1  6  0  0  0
  3  2  1  0  0  0  0
  4  3  1  1  0  0  0
  5 12  1  6  0  0  0
  5 10  1  0  0  0  0
  5  7  1  0  0  0  0
  6  5  1  0  0  0  0
  7  4  1  0  0  0  0
  8  6  1  0  0  0  0
  8 16  1  1  0  0  0
  8  9  1  0  0  0  0
  9 18  1  6  0  0  0
  9  4  1  0  0  0  0
 11 10  1  0  0  0  0
 12 13  2  0  0  0  0
 14 12  1  0  0  0  0
 15 14  1  0  0  0  0
 16 17  1  0  0  0  0
 18 19  1  0  0  0  0
 19 22  2  0  0  0  0
 20 18  1  0  0  0  0
 21 19  1  0  0  0  0
 23 24  1  0  0  0  0
 25  2  1  0  0  0  0
 25 26  1  0  0  0  0
 27 28  1  0  0  0  0
 27  1  1  0  0  0  0
 28 30  2  0  0  0  0
 29 27  1  0  0  0  0
 31 28  1  0  0  0  0
 32 31  1  0  0  0  0
 32 33  1  0  0  0  0
 33 35  1  0  0  0  0
 33 34  2  0  0  0  0
 34 36  1  0  0  0  0
 35 37  2  0  0  0  0
 36 38  1  0  0  0  0
 37 36  1  0  0  0  0
 38 40  1  0  0  0  0
 38 39  1  0  0  0  0
 39 41  1  0  0  0  0
 40 42  1  0  0  0  0
 41 43  1  0  0  0  0
 42 43  1  0  0  0  0
 44 45  1  0  0  0  0
 46 45  1  0  0  0  0
 46 47  1  0  0  0  0
 48 47  1  0  0  0  0
 49 48  1  0  0  0  0
M  END
>  <REMARK>
 VINA RESULT:    -4.679      7.374     12.728
 INTER + INTRA:         -13.893
 INTER:                  -8.364
 INTRA:                  -5.529
 UNBOUND:                -5.796
 SMILES CC(=O)N[C@@H]1[C@@H](O)C[C@](O)(C(=O)O)O[C@H]1C(O)[C@H](O)CNC(=O)OCc1cn(C2CCCCC2)nn1
 SMILES IDX 20 1 18 2 16 3 15 4 9 5 8 6 14 7 6 8 5 9 10 10 11 12 12 13
 SMILES IDX 13 14 7 16 4 18 2 19 1 21 3 22 17 23 19 25 21 27 22 28 23 30
 SMILES IDX 24 31 25 32 26 33 27 34 36 35 28 36 35 37 29 38 30 39 34 40
 SMILES IDX 31 41 33 42 32 43
 H PARENT 10 11 13 15 7 17 4 20 17 24 19 26 21 29
 Flexibility Score: inf
  4 active torsions:
  status: ('A' for Active; 'I' for Inactive)
    1  A    between atoms: CA   and  CB  
    2  A    between atoms: CB   and  CG  
    3  A    between atoms: CG   and  CD  
    4  A    between atoms: CD   and  CE  

>  <TORSDO>
F 15

>  <BEGIN_>
RES LYS A 131

$$$$
ligand_48_pose_14_2HRL.pdbqt
 OpenBabel07062320523D

  6  5  0  0  0  0  0  0  0  0999 V2000
   33.1930   34.6630    9.2900 C   0  0  0  0  0  0  0  0  0  0  0  0
   32.0600   35.3600   10.0340 C   0  0  0  0  0  0  0  0  0  0  0  0
   30.8240   35.5630    9.1960 C   0  0  0  0  0  0  0  0  0  0  0  0
   30.1020   34.2430    8.9760 C   0  0  0  0  0  0  0  0  0  0  0  0
   28.7250   34.4800    8.3860 C   0  0  0  0  0  0  0  0  0  0  0  0
   28.8070   35.3110    7.1520 N   0  0  0  0  0  0  0  0  0  0  0  0
  1  2  1  0  0  0  0
  3  2  1  0  0  0  0
  4  3  1  0  0  0  0
  5  4  1  0  0  0  0
  6  5  1  0  0  0  0
M  END
>  <EGIN_R>
ES LYS A 135

>  <REMARK>
  4 active torsions:
  status: ('A' for Active; 'I' for Inactive)
    5  A    between atoms: CA   and  CB  
    6  A    between atoms: CB   and  CG  
    7  A    between atoms: CG   and  CD  
    8  A    between atoms: CD   and  CE  

$$$$
