ligand_70_pose_13_2HRL.pdbqt
 OpenBabel07062320523D

 53 55  0  0  1  0  0  0  0  0999 V2000
   25.7580   33.6800   18.9860 C   0  0  0  0  0  0  0  0  0  0  0  0
   27.2150   33.6950   19.3540 C   0  0  2  0  0  0  0  0  0  0  0  0
   27.8770   32.3470   19.2720 C   0  0  1  0  0  0  0  0  0  0  0  0
   28.7110   32.1380   18.0420 C   0  0  2  0  0  0  0  0  0  0  0  0
   28.9130   33.0970   15.9390 C   0  0  2  0  0  0  0  0  0  0  0  0
   29.8500   31.9820   15.5470 C   0  0  0  0  0  0  0  0  0  0  0  0
   28.8520   33.2990   17.2950 O   0  0  0  0  0  0  0  0  0  0  0  0
   29.4770   30.7140   16.2410 C   0  0  1  0  0  0  0  0  0  0  0  0
   28.3270   30.9380   17.2470 C   0  0  1  0  0  0  0  0  0  0  0  0
   27.6790   32.8450   15.3460 O   0  0  0  0  0  0  0  0  0  0  0  0
   27.2650   32.0170   15.6520 H   0  0  0  0  0  0  0  0  0  0  0  0
   29.4420   34.3500   15.3220 C   0  0  0  0  0  0  0  0  0  0  0  0
   30.1090   35.1280   16.0500 O   0  0  0  0  0  0  0  0  0  0  0  0
   29.2240   34.6780   13.9970 O   0  0  0  0  0  0  0  0  0  0  0  0
   28.9680   35.6380   13.7470 H   0  0  0  0  0  0  0  0  0  0  0  0
   29.0920   29.7300   15.3120 O   0  0  0  0  0  0  0  0  0  0  0  0
   29.8540   29.5100   14.7250 H   0  0  0  0  0  0  0  0  0  0  0  0
   28.2960   29.7860   18.1530 N   0  0  0  0  0  0  0  0  0  0  0  0
   27.4120   28.6900   17.9860 C   0  0  0  0  0  0  0  0  0  0  0  0
   28.9420   29.7530   18.9630 H   0  0  0  0  0  0  0  0  0  0  0  0
   27.3920   27.5320   18.9190 C   0  0  0  0  0  0  0  0  0  0  0  0
   26.6040   28.6660   17.0230 O   0  0  0  0  0  0  0  0  0  0  0  0
   28.6530   32.2040   20.4400 O   0  0  0  0  0  0  0  0  0  0  0  0
   28.2700   32.8260   21.1060 H   0  0  0  0  0  0  0  0  0  0  0  0
   27.4020   34.2720   20.6270 O   0  0  0  0  0  0  0  0  0  0  0  0
   27.4700   33.4780   21.2460 H   0  0  0  0  0  0  0  0  0  0  0  0
   25.6150   33.2990   17.6000 N   0  0  0  0  0  0  0  0  0  0  0  0
   24.9070   32.1550   17.1800 C   0  0  0  0  0  0  0  0  0  0  0  0
   26.0460   33.8750   16.8250 H   0  0  0  0  0  0  0  0  0  0  0  0
   24.3510   31.3910   17.9960 O   0  0  0  0  0  0  0  0  0  0  0  0
   24.7780   31.8040   15.8290 O   0  0  0  0  0  0  0  0  0  0  0  0
   23.9620   32.6000   14.9570 C   0  0  0  0  0  0  0  0  0  0  0  0
   24.8100   33.4420   14.0870 C   0  0  0  0  0  0  0  0  0  0  0  0
   24.9860   33.3530   12.7420 C   0  0  0  0  0  0  0  0  0  0  0  0
   25.5600   34.4590   14.5220 N   0  0  0  0  0  0  0  0  0  0  0  0
   25.8600   34.3460   12.4070 N   0  0  0  0  0  0  0  0  0  0  0  0
   26.1930   35.0000   13.4950 N   0  0  0  0  0  0  0  0  0  0  0  0
   26.3350   34.6330   11.1060 C   0  0  0  0  0  0  0  0  0  0  0  0
   25.4630   35.1670   10.1740 C   0  0  0  0  0  0  0  0  0  0  0  0
   27.6510   34.3750   10.7960 C   0  0  0  0  0  0  0  0  0  0  0  0
   25.9150   35.4380    8.9390 N   0  0  0  0  0  0  0  0  0  0  0  0
   28.0990   34.6630    9.5110 C   0  0  0  0  0  0  0  0  0  0  0  0
   27.2110   35.1950    8.5990 C   0  0  0  0  0  0  0  0  0  0  0  0
   29.3960   34.4180    9.1770 C   0  0  0  0  0  0  0  0  0  0  0  0
   27.6540   35.4830    7.3240 C   0  0  0  0  0  0  0  0  0  0  0  0
   29.8510   34.7060    7.8900 C   0  0  0  0  0  0  0  0  0  0  0  0
   28.9760   35.2360    6.9730 C   0  0  0  0  0  0  0  0  0  0  0  0
   29.8670   25.5550   16.9770 C   0  0  0  0  0  0  0  0  0  0  0  0
   28.3450   25.7220   17.0260 C   0  0  0  0  0  0  0  0  0  0  0  0
   27.5990   24.4500   16.6560 C   0  0  0  0  0  0  0  0  0  0  0  0
   26.9740   23.7900   17.8540 C   0  0  0  0  0  0  0  0  0  0  0  0
   25.5070   23.4910   17.5630 C   0  0  0  0  0  0  0  0  0  0  0  0
   24.8360   24.6870   17.0000 N   0  0  0  0  0  0  0  0  0  0  0  0
  2  1  1  1  0  0  0
  2 25  1  0  0  0  0
  3  2  1  0  0  0  0
  3 23  1  1  0  0  0
  4  3  1  1  0  0  0
  5 12  1  6  0  0  0
  5  7  1  0  0  0  0
  6  5  1  0  0  0  0
  6  8  1  0  0  0  0
  7  4  1  0  0  0  0
  8 16  1  6  0  0  0
  8  9  1  0  0  0  0
  9  4  1  0  0  0  0
  9 18  1  1  0  0  0
 10 11  1  0  0  0  0
 10  5  1  0  0  0  0
 12 13  2  0  0  0  0
 14 12  1  0  0  0  0
 15 14  1  0  0  0  0
 17 16  1  0  0  0  0
 18 20  1  0  0  0  0
 19 18  1  0  0  0  0
 19 21  1  0  0  0  0
 22 19  2  0  0  0  0
 23 24  1  0  0  0  0
 25 26  1  0  0  0  0
 27  1  1  0  0  0  0
 28 27  1  0  0  0  0
 28 30  2  0  0  0  0
 29 27  1  0  0  0  0
 31 28  1  0  0  0  0
 32 31  1  0  0  0  0
 33 35  1  0  0  0  0
 33 32  1  0  0  0  0
 34 33  2  0  0  0  0
 36 34  1  0  0  0  0
 36 37  1  0  0  0  0
 37 35  2  0  0  0  0
 38 36  1  0  0  0  0
 39 38  2  0  0  0  0
 40 38  1  0  0  0  0
 41 39  1  0  0  0  0
 42 40  2  0  0  0  0
 43 41  2  0  0  0  0
 43 42  1  0  0  0  0
 44 42  1  0  0  0  0
 45 43  1  0  0  0  0
 46 44  2  0  0  0  0
 47 45  2  0  0  0  0
 47 46  1  0  0  0  0
 48 49  1  0  0  0  0
 50 49  1  0  0  0  0
 50 51  1  0  0  0  0
 52 51  1  0  0  0  0
 53 52  1  0  0  0  0
M  END
>  <REMARK>
 VINA RESULT:    -5.938      4.419      7.512
 INTER + INTRA:         -14.810
 INTER:                  -9.544
 INTRA:                  -5.265
 UNBOUND:                -4.533
 SMILES CC(=O)N[C@@H]1[C@@H](O)C[C@](O)(C(=O)O)O[C@H]1C(O)[C@H](O)CNC(=O)OCc1cn(-c2cnc3ccccc3c2)nn1
 SMILES IDX 20 1 18 2 16 3 15 4 9 5 8 6 14 7 6 8 5 9 10 10 11 12 12 13
 SMILES IDX 13 14 7 16 4 18 2 19 1 21 3 22 17 23 19 25 21 27 22 28 23 30
 SMILES IDX 24 31 25 32 26 33 27 34 40 35 28 36 39 37 29 38 30 39 38 40
 SMILES IDX 31 41 37 42 32 43 36 44 33 45 35 46 34 47
 H PARENT 10 11 13 15 7 17 4 20 17 24 19 26 21 29
 Flexibility Score: inf
  4 active torsions:
  status: ('A' for Active; 'I' for Inactive)
    1  A    between atoms: CA   and  CB  
    2  A    between atoms: CB   and  CG  
    3  A    between atoms: CG   and  CD  
    4  A    between atoms: CD   and  CE  

>  <TORSDO>
F 15

>  <BEGIN_>
RES LYS A 131

$$$$
ligand_70_pose_13_2HRL.pdbqt
 OpenBabel07062320523D

  6  5  0  0  0  0  0  0  0  0999 V2000
   33.1930   34.6630    9.2900 C   0  0  0  0  0  0  0  0  0  0  0  0
   32.0600   35.3600   10.0340 C   0  0  0  0  0  0  0  0  0  0  0  0
   32.1390   35.2080   11.5310 C   0  0  0  0  0  0  0  0  0  0  0  0
   32.1740   36.5690   12.2080 C   0  0  0  0  0  0  0  0  0  0  0  0
   31.0270   37.4350   11.7230 C   0  0  0  0  0  0  0  0  0  0  0  0
   31.3740   38.8810   11.8050 N   0  0  0  0  0  0  0  0  0  0  0  0
  1  2  1  0  0  0  0
  2  3  1  0  0  0  0
  3  4  1  0  0  0  0
  5  6  1  0  0  0  0
  5  4  1  0  0  0  0
M  END
>  <EGIN_R>
ES LYS A 135

>  <REMARK>
  4 active torsions:
  status: ('A' for Active; 'I' for Inactive)
    5  A    between atoms: CA   and  CB  
    6  A    between atoms: CB   and  CG  
    7  A    between atoms: CG   and  CD  
    8  A    between atoms: CD   and  CE  

$$$$
