ligand_7_pose_2_2HRL.pdbqt
 OpenBabel07062320523D

 52 53  0  0  1  0  0  0  0  0999 V2000
   27.9730   27.2710   21.8900 C   0  0  0  0  0  0  0  0  0  0  0  0
   29.3900   27.4230   22.3110 C   0  0  2  0  0  0  0  0  0  0  0  0
   30.2800   28.1280   21.3380 C   0  0  1  0  0  0  0  0  0  0  0  0
   31.5690   28.6270   21.8750 C   0  0  2  0  0  0  0  0  0  0  0  0
   33.0760   27.9860   23.5440 C   0  0  2  0  0  0  0  0  0  0  0  0
   33.7470   29.3280   23.4840 C   0  0  0  0  0  0  0  0  0  0  0  0
   32.3410   27.6580   22.4450 O   0  0  0  0  0  0  0  0  0  0  0  0
   32.9270   30.3840   22.8260 C   0  0  1  0  0  0  0  0  0  0  0  0
   31.4810   29.8700   22.7080 C   0  0  1  0  0  0  0  0  0  0  0  0
   32.2880   27.9550   24.6920 O   0  0  0  0  0  0  0  0  0  0  0  0
   31.3450   27.7840   24.4060 H   0  0  0  0  0  0  0  0  0  0  0  0
   34.1550   26.9730   23.6890 C   0  0  0  0  0  0  0  0  0  0  0  0
   34.0330   26.0280   24.4930 O   0  0  0  0  0  0  0  0  0  0  0  0
   35.3280   27.0610   22.9290 O   0  0  0  0  0  0  0  0  0  0  0  0
   35.3440   26.6130   22.0010 H   0  0  0  0  0  0  0  0  0  0  0  0
   32.9820   31.6200   23.4390 O   0  0  0  0  0  0  0  0  0  0  0  0
   33.4180   31.4890   24.3320 H   0  0  0  0  0  0  0  0  0  0  0  0
   30.7650   30.9250   22.0380 N   0  0  0  0  0  0  0  0  0  0  0  0
   29.6030   31.4530   22.6610 C   0  0  0  0  0  0  0  0  0  0  0  0
   31.0700   31.3150   21.1130 H   0  0  0  0  0  0  0  0  0  0  0  0
   28.7940   32.5410   22.0520 C   0  0  0  0  0  0  0  0  0  0  0  0
   29.2160   31.0060   23.7700 O   0  0  0  0  0  0  0  0  0  0  0  0
   30.5220   27.2620   20.2750 O   0  0  0  0  0  0  0  0  0  0  0  0
   30.2820   26.3480   20.5690 H   0  0  0  0  0  0  0  0  0  0  0  0
   29.9250   26.2090   22.7460 O   0  0  0  0  0  0  0  0  0  0  0  0
   29.2230   25.5870   23.0630 H   0  0  0  0  0  0  0  0  0  0  0  0
   27.5410   28.3000   20.9650 N   0  0  0  0  0  0  0  0  0  0  0  0
   27.3410   28.0620   19.5760 C   0  0  0  0  0  0  0  0  0  0  0  0
   27.3480   29.2980   21.2770 H   0  0  0  0  0  0  0  0  0  0  0  0
   27.5370   26.9300   19.0980 O   0  0  0  0  0  0  0  0  0  0  0  0
   26.9220   29.0870   18.7230 O   0  0  0  0  0  0  0  0  0  0  0  0
   27.0570   30.4500   19.1530 C   0  0  0  0  0  0  0  0  0  0  0  0
   28.4530   30.8830   18.8920 C   0  0  0  0  0  0  0  0  0  0  0  0
   28.8250   32.0280   18.2070 C   0  0  0  0  0  0  0  0  0  0  0  0
   29.5840   30.2900   19.2460 N   0  0  0  0  0  0  0  0  0  0  0  0
   30.1570   32.1030   18.1610 N   0  0  0  0  0  0  0  0  0  0  0  0
   30.5820   31.0090   18.8160 N   0  0  0  0  0  0  0  0  0  0  0  0
   31.0000   33.0850   17.5730 C   0  0  0  0  0  0  0  0  0  0  0  0
   31.5140   34.1080   18.3390 C   0  0  0  0  0  0  0  0  0  0  0  0
   31.3310   33.0540   16.2270 C   0  0  0  0  0  0  0  0  0  0  0  0
   31.1760   34.1630   19.7780 C   0  0  0  0  0  0  0  0  0  0  0  0
   32.3440   35.0740   17.7550 C   0  0  0  0  0  0  0  0  0  0  0  0
   32.1500   34.0120   15.6620 C   0  0  0  0  0  0  0  0  0  0  0  0
   30.7590   31.9280   15.4060 C   0  0  0  0  0  0  0  0  0  0  0  0
   32.6720   35.0400   16.4170 C   0  0  0  0  0  0  0  0  0  0  0  0
   33.5590   36.0820   15.8190 C   0  0  0  0  0  0  0  0  0  0  0  0
   29.8670   25.5550   16.9770 C   0  0  0  0  0  0  0  0  0  0  0  0
   28.3450   25.7220   17.0260 C   0  0  0  0  0  0  0  0  0  0  0  0
   27.5990   24.4790   16.5660 C   0  0  0  0  0  0  0  0  0  0  0  0
   26.9640   23.7430   17.7140 C   0  0  0  0  0  0  0  0  0  0  0  0
   25.4740   23.5630   17.4400 C   0  0  0  0  0  0  0  0  0  0  0  0
   24.7900   24.8780   17.4100 N   0  0  0  0  0  0  0  0  0  0  0  0
  2  1  1  6  0  0  0
  2 25  1  0  0  0  0
  3 23  1  6  0  0  0
  3  2  1  0  0  0  0
  4  3  1  1  0  0  0
  4  7  1  0  0  0  0
  4  9  1  0  0  0  0
  5 12  1  1  0  0  0
  5 10  1  0  0  0  0
  6  5  1  0  0  0  0
  7  5  1  0  0  0  0
  8 16  1  1  0  0  0
  8  6  1  0  0  0  0
  9 18  1  6  0  0  0
  9  8  1  0  0  0  0
 11 10  1  0  0  0  0
 12 13  2  0  0  0  0
 14 12  1  0  0  0  0
 15 14  1  0  0  0  0
 16 17  1  0  0  0  0
 18 19  1  0  0  0  0
 19 22  2  0  0  0  0
 20 18  1  0  0  0  0
 21 19  1  0  0  0  0
 23 24  1  0  0  0  0
 25 26  1  0  0  0  0
 27 29  1  0  0  0  0
 27  1  1  0  0  0  0
 28 27  1  0  0  0  0
 30 28  2  0  0  0  0
 31 32  1  0  0  0  0
 31 28  1  0  0  0  0
 33 32  1  0  0  0  0
 33 35  1  0  0  0  0
 34 33  2  0  0  0  0
 36 34  1  0  0  0  0
 36 37  1  0  0  0  0
 37 35  2  0  0  0  0
 38 36  1  0  0  0  0
 38 39  2  0  0  0  0
 39 41  1  0  0  0  0
 40 38  1  0  0  0  0
 42 39  1  0  0  0  0
 43 40  2  0  0  0  0
 43 45  1  0  0  0  0
 44 40  1  0  0  0  0
 45 42  2  0  0  0  0
 46 45  1  0  0  0  0
 47 48  1  0  0  0  0
 49 48  1  0  0  0  0
 49 50  1  0  0  0  0
 51 50  1  0  0  0  0
 52 51  1  0  0  0  0
M  END
>  <REMARK>
 VINA RESULT:    -4.998      2.326      4.182
 INTER + INTRA:         -14.567
 INTER:                  -8.524
 INTRA:                  -6.043
 UNBOUND:                -5.917
 SMILES CC(=O)N[C@@H]1[C@@H](O)C[C@](O)(C(=O)O)O[C@H]1C(O)[C@H](O)CNC(=O)OCc1cn(-c2c(C)cc(C)cc2C)nn1
 SMILES IDX 20 1 18 2 16 3 15 4 9 5 8 6 14 7 6 8 5 9 10 10 11 12 12 13
 SMILES IDX 13 14 7 16 4 18 2 19 1 21 3 22 17 23 19 25 21 27 22 28 23 30
 SMILES IDX 24 31 25 32 26 33 27 34 39 35 28 36 38 37 29 38 30 39 36 40
 SMILES IDX 31 41 32 42 35 43 37 44 33 45 34 46
 H PARENT 10 11 13 15 7 17 4 20 17 24 19 26 21 29
 Flexibility Score: inf
  4 active torsions:
  status: ('A' for Active; 'I' for Inactive)
    1  A    between atoms: CA   and  CB  
    2  A    between atoms: CB   and  CG  
    3  A    between atoms: CG   and  CD  
    4  A    between atoms: CD   and  CE  

>  <TORSDO>
F 15

>  <BEGIN_>
RES LYS A 131

$$$$
ligand_7_pose_2_2HRL.pdbqt
 OpenBabel07062320523D

  6  5  0  0  0  0  0  0  0  0999 V2000
   33.1930   34.6630    9.2900 C   0  0  0  0  0  0  0  0  0  0  0  0
   32.0600   35.3600   10.0340 C   0  0  0  0  0  0  0  0  0  0  0  0
   30.8770   35.6880    9.1600 C   0  0  0  0  0  0  0  0  0  0  0  0
   30.3650   34.4400    8.4580 C   0  0  0  0  0  0  0  0  0  0  0  0
   28.8500   34.4480    8.3960 C   0  0  0  0  0  0  0  0  0  0  0  0
   28.2610   33.7730    9.5860 N   0  0  0  0  0  0  0  0  0  0  0  0
  1  2  1  0  0  0  0
  3  2  1  0  0  0  0
  4  3  1  0  0  0  0
  5  4  1  0  0  0  0
  5  6  1  0  0  0  0
M  END
>  <EGIN_R>
ES LYS A 135

>  <REMARK>
  4 active torsions:
  status: ('A' for Active; 'I' for Inactive)
    5  A    between atoms: CA   and  CB  
    6  A    between atoms: CB   and  CG  
    7  A    between atoms: CG   and  CD  
    8  A    between atoms: CD   and  CE  

$$$$
