ligand_81_pose_9_2HRL.pdbqt
 OpenBabel07062320523D

 63 65  0  0  1  0  0  0  0  0999 V2000
   23.4850   32.6550   12.9010 O   0  0  0  0  0  0  0  0  0  0  0  0
   23.7390   32.6480   14.2540 C   0  0  0  0  0  0  0  0  0  0  0  0
   24.9680   33.1760   14.7970 N   0  0  0  0  0  0  0  0  0  0  0  0
   25.6270   33.5500   14.0860 H   0  0  0  0  0  0  0  0  0  0  0  0
   22.8670   32.1640   15.0190 O   0  0  0  0  0  0  0  0  0  0  0  0
   25.1820   33.1420   16.2250 C   0  0  0  0  0  0  0  0  0  0  0  0
   26.6270   32.7280   16.4670 C   0  0  2  0  0  0  0  0  0  0  0  0
   27.4900   33.7960   15.8400 C   0  0  2  0  0  0  0  0  0  0  0  0
   28.8670   33.9170   16.4180 C   0  0  2  0  0  0  0  0  0  0  0  0
   29.7600   35.1300   14.6240 C   0  0  2  0  0  0  0  0  0  0  0  0
   30.3110   33.8100   14.1090 C   0  0  0  0  0  0  0  0  0  0  0  0
   29.4220   35.0820   15.9450 O   0  0  0  0  0  0  0  0  0  0  0  0
   30.8750   33.0420   15.2870 C   0  0  1  0  0  0  0  0  0  0  0  0
   29.7470   32.7280   16.2900 C   0  0  1  0  0  0  0  0  0  0  0  0
   28.6780   35.4380   13.7910 O   0  0  0  0  0  0  0  0  0  0  0  0
   28.1810   34.6370   13.5140 H   0  0  0  0  0  0  0  0  0  0  0  0
   30.7600   36.2060   14.4590 C   0  0  0  0  0  0  0  0  0  0  0  0
   30.9110   37.0450   15.3670 O   0  0  0  0  0  0  0  0  0  0  0  0
   31.5130   36.2840   13.3170 O   0  0  0  0  0  0  0  0  0  0  0  0
   31.6580   35.5220   12.6670 H   0  0  0  0  0  0  0  0  0  0  0  0
   31.5100   31.8940   14.8730 O   0  0  0  0  0  0  0  0  0  0  0  0
   31.0210   31.0900   15.1510 H   0  0  0  0  0  0  0  0  0  0  0  0
   30.4510   32.4120   17.5410 N   0  0  0  0  0  0  0  0  0  0  0  0
   29.9940   31.3420   18.3470 C   0  0  0  0  0  0  0  0  0  0  0  0
   31.2820   32.9620   17.8470 H   0  0  0  0  0  0  0  0  0  0  0  0
   30.6610   30.9650   19.6320 C   0  0  0  0  0  0  0  0  0  0  0  0
   28.9860   30.6980   17.9440 O   0  0  0  0  0  0  0  0  0  0  0  0
   26.8340   35.0070   16.2400 O   0  0  0  0  0  0  0  0  0  0  0  0
   27.4960   35.6550   16.5500 H   0  0  0  0  0  0  0  0  0  0  0  0
   26.7710   31.4730   15.8950 O   0  0  0  0  0  0  0  0  0  0  0  0
   27.1110   31.5230   14.9760 H   0  0  0  0  0  0  0  0  0  0  0  0
   22.5880   33.5200   12.2380 C   0  0  0  0  0  0  0  0  0  0  0  0
   23.3010   34.7760   11.8420 C   0  0  0  0  0  0  0  0  0  0  0  0
   24.5580   34.9030   11.3060 C   0  0  0  0  0  0  0  0  0  0  0  0
   22.8280   36.0360   11.9460 N   0  0  0  0  0  0  0  0  0  0  0  0
   24.8370   36.2250   11.0910 N   0  0  0  0  0  0  0  0  0  0  0  0
   23.7500   36.8670   11.4970 N   0  0  0  0  0  0  0  0  0  0  0  0
   26.0390   36.7620   10.5680 C   0  0  0  0  0  0  0  0  0  0  0  0
   27.1040   36.9780   11.3510 N   0  0  0  0  0  0  0  0  0  0  0  0
   26.1360   37.1100    9.2150 C   0  0  0  0  0  0  0  0  0  0  0  0
   28.2480   37.5180   10.8590 C   0  0  0  0  0  0  0  0  0  0  0  0
   27.2860   37.6560    8.7180 C   0  0  0  0  0  0  0  0  0  0  0  0
   28.3550   37.8570    9.5710 N   0  0  0  0  0  0  0  0  0  0  0  0
   24.9550   36.9050    8.3520 C   0  0  0  0  0  0  0  0  0  0  0  0
   24.0010   38.0640    8.2940 C   0  0  0  0  0  0  0  0  0  0  0  0
   22.8500   37.7690    7.6170 O   0  0  0  0  0  0  0  0  0  0  0  0
   21.8050   37.3760    8.4210 C   0  0  0  0  0  0  0  0  0  0  0  0
   21.4780   35.9080    8.2410 C   0  0  0  0  0  0  0  0  0  0  0  0
   29.3480   37.7270   11.7230 N   0  0  0  0  0  0  0  0  0  0  0  0
   29.3950   38.5790   12.3090 H   0  0  0  0  0  0  0  0  0  0  0  0
   30.1270   37.0470   11.7940 H   0  0  0  0  0  0  0  0  0  0  0  0
   27.4080   38.1410    7.3570 C   0  0  0  0  0  0  0  0  0  0  0  0
   27.0960   39.3550    6.8650 C   0  0  0  0  0  0  0  0  0  0  0  0
   27.9500   37.2130    6.4390 C   0  0  0  0  0  0  0  0  0  0  0  0
   27.3050   39.6650    5.5080 C   0  0  0  0  0  0  0  0  0  0  0  0
   28.1580   37.5020    5.1190 C   0  0  0  0  0  0  0  0  0  0  0  0
   27.8330   38.7530    4.6250 C   0  0  0  0  0  0  0  0  0  0  0  0
   29.8670   25.5550   16.9770 C   0  0  0  0  0  0  0  0  0  0  0  0
   28.3450   25.7220   17.0260 C   0  0  0  0  0  0  0  0  0  0  0  0
   27.6010   24.4020   16.8950 C   0  0  0  0  0  0  0  0  0  0  0  0
   26.5650   24.2260   17.9700 C   0  0  0  0  0  0  0  0  0  0  0  0
   25.1760   24.2000   17.3390 C   0  0  0  0  0  0  0  0  0  0  0  0
   24.6310   22.8210   17.3420 N   0  0  0  0  0  0  0  0  0  0  0  0
  1  2  1  0  0  0  0
  2  3  1  0  0  0  0
  2  5  2  0  0  0  0
  3  6  1  0  0  0  0
  4  3  1  0  0  0  0
  7  6  1  6  0  0  0
  8 28  1  1  0  0  0
  8  7  1  0  0  0  0
  9  8  1  6  0  0  0
 10 15  1  6  0  0  0
 10 12  1  0  0  0  0
 11 10  1  0  0  0  0
 11 13  1  0  0  0  0
 12  9  1  0  0  0  0
 13 21  1  6  0  0  0
 13 14  1  0  0  0  0
 14  9  1  0  0  0  0
 14 23  1  1  0  0  0
 16 15  1  0  0  0  0
 17 10  1  0  0  0  0
 17 18  2  0  0  0  0
 19 17  1  0  0  0  0
 20 19  1  0  0  0  0
 21 22  1  0  0  0  0
 23 25  1  0  0  0  0
 23 24  1  0  0  0  0
 24 26  1  0  0  0  0
 27 24  2  0  0  0  0
 28 29  1  0  0  0  0
 30  7  1  0  0  0  0
 31 30  1  0  0  0  0
 32  1  1  0  0  0  0
 33 35  1  0  0  0  0
 33 32  1  0  0  0  0
 34 33  2  0  0  0  0
 36 34  1  0  0  0  0
 36 37  1  0  0  0  0
 37 35  2  0  0  0  0
 38 36  1  0  0  0  0
 38 39  1  0  0  0  0
 40 38  2  0  0  0  0
 41 39  2  0  0  0  0
 41 49  1  0  0  0  0
 42 40  1  0  0  0  0
 42 43  2  0  0  0  0
 43 41  1  0  0  0  0
 44 40  1  0  0  0  0
 45 44  1  0  0  0  0
 46 45  1  0  0  0  0
 46 47  1  0  0  0  0
 48 47  1  0  0  0  0
 49 51  1  0  0  0  0
 49 50  1  0  0  0  0
 52 42  1  0  0  0  0
 53 52  1  0  0  0  0
 54 52  2  0  0  0  0
 55 53  2  0  0  0  0
 56 54  1  0  0  0  0
 57 56  2  0  0  0  0
 57 55  1  0  0  0  0
 58 59  1  0  0  0  0
 60 59  1  0  0  0  0
 60 61  1  0  0  0  0
 62 63  1  0  0  0  0
 62 61  1  0  0  0  0
M  END
>  <REMARK>
 VINA RESULT:    -4.708      2.647      9.544
 INTER + INTRA:         -16.833
 INTER:                 -10.139
 INTRA:                  -6.694
 UNBOUND:                -7.171
 SMILES CCOCCc1c(-c2ccccc2)nc(N)nc1-n1cc(COC(=O)NC[C@@H](O)C(O)[C@@H]2O[C@@](O)(C(=O)O)C[C@H](O)[C@H]2NC(C)=O)nn1
 SMILES IDX 23 1 24 2 26 3 25 5 27 6 28 7 30 8 32 9 34 10 39 11 33 12
 SMILES IDX 40 13 42 14 35 15 36 17 37 18 38 19 41 21 43 23 44 24 45 26
 SMILES IDX 46 27 31 28 29 30 22 32 21 33 20 34 47 35 19 36 48 37 18 38
 SMILES IDX 17 39 6 40 15 41 7 42 14 43 5 44 4 45 3 46 2 47 1 48 16 49
 SMILES IDX 8 52 9 53 13 54 10 55 12 56 11 57
 H PARENT 26 4 35 16 38 20 41 22 43 25 31 29 29 31 16 50 16 51
 Flexibility Score: inf
  4 active torsions:
  status: ('A' for Active; 'I' for Inactive)
    1  A    between atoms: CA   and  CB  
    2  A    between atoms: CB   and  CG  
    3  A    between atoms: CG   and  CD  
    4  A    between atoms: CD   and  CE  

>  <TORSDO>
F 21

>  <BEGIN_>
RES LYS A 131

$$$$
ligand_81_pose_9_2HRL.pdbqt
 OpenBabel07062320523D

  6  5  0  0  0  0  0  0  0  0999 V2000
   33.1930   34.6630    9.2900 C   0  0  0  0  0  0  0  0  0  0  0  0
   32.0600   35.3600   10.0340 C   0  0  0  0  0  0  0  0  0  0  0  0
   30.7390   34.6420    9.9290 C   0  0  0  0  0  0  0  0  0  0  0  0
   30.1910   34.7310    8.5130 C   0  0  0  0  0  0  0  0  0  0  0  0
   28.7290   34.3270    8.4810 C   0  0  0  0  0  0  0  0  0  0  0  0
   28.2430   33.9650    9.8420 N   0  0  0  0  0  0  0  0  0  0  0  0
  1  2  1  0  0  0  0
  3  2  1  0  0  0  0
  4  3  1  0  0  0  0
  5  4  1  0  0  0  0
  5  6  1  0  0  0  0
M  END
>  <EGIN_R>
ES LYS A 135

>  <REMARK>
  4 active torsions:
  status: ('A' for Active; 'I' for Inactive)
    5  A    between atoms: CA   and  CB  
    6  A    between atoms: CB   and  CG  
    7  A    between atoms: CG   and  CD  
    8  A    between atoms: CD   and  CE  

$$$$
