ligand_75_pose_12_2HRL.pdbqt
 OpenBabel07062320523D

 55 56  0  0  1  0  0  0  0  0999 V2000
   27.7570   28.7660   16.6310 N   0  0  0  0  0  0  0  0  0  0  0  0
   27.8500   30.1030   16.1800 C   0  0  0  0  0  0  0  0  0  0  0  0
   26.9570   30.9490   16.3870 O   0  0  0  0  0  0  0  0  0  0  0  0
   28.5910   28.1310   16.3780 H   0  0  0  0  0  0  0  0  0  0  0  0
   26.6730   28.1970   17.3790 C   0  0  0  0  0  0  0  0  0  0  0  0
   27.0390   28.0340   18.8200 C   0  0  2  0  0  0  0  0  0  0  0  0
   27.2960   29.3420   19.5420 C   0  0  2  0  0  0  0  0  0  0  0  0
   28.7260   29.4710   19.9200 C   0  0  2  0  0  0  0  0  0  0  0  0
   30.4630   28.9970   21.3660 C   0  0  2  0  0  0  0  0  0  0  0  0
   31.2590   29.7150   20.3130 C   0  0  0  0  0  0  0  0  0  0  0  0
   29.1520   28.7620   20.9980 O   0  0  0  0  0  0  0  0  0  0  0  0
   30.6430   30.9560   19.7810 C   0  0  1  0  0  0  0  0  0  0  0  0
   29.1560   30.9320   20.0390 C   0  0  1  0  0  0  0  0  0  0  0  0
   30.5740   29.6840   22.5750 O   0  0  0  0  0  0  0  0  0  0  0  0
   31.4620   30.0810   22.7030 H   0  0  0  0  0  0  0  0  0  0  0  0
   31.1010   27.6670   21.5650 C   0  0  0  0  0  0  0  0  0  0  0  0
   32.1860   27.5890   22.2360 O   0  0  0  0  0  0  0  0  0  0  0  0
   30.5600   26.4990   21.0470 O   0  0  0  0  0  0  0  0  0  0  0  0
   30.3280   26.3890   20.0800 H   0  0  0  0  0  0  0  0  0  0  0  0
   31.2320   32.1210   20.2640 O   0  0  0  0  0  0  0  0  0  0  0  0
   32.1600   31.9500   20.4900 H   0  0  0  0  0  0  0  0  0  0  0  0
   28.4250   31.7980   19.1670 N   0  0  0  0  0  0  0  0  0  0  0  0
   28.1600   33.1550   19.4840 C   0  0  0  0  0  0  0  0  0  0  0  0
   28.0480   31.4530   18.2350 H   0  0  0  0  0  0  0  0  0  0  0  0
   27.4010   34.0110   18.5510 C   0  0  0  0  0  0  0  0  0  0  0  0
   28.5650   33.6540   20.5630 O   0  0  0  0  0  0  0  0  0  0  0  0
   26.3930   29.5580   20.5780 O   0  0  0  0  0  0  0  0  0  0  0  0
   25.6300   28.9540   20.4440 H   0  0  0  0  0  0  0  0  0  0  0  0
   28.1560   27.2120   18.9820 O   0  0  0  0  0  0  0  0  0  0  0  0
   28.9750   27.7610   18.8340 H   0  0  0  0  0  0  0  0  0  0  0  0
   28.9800   30.5470   15.4600 O   0  0  0  0  0  0  0  0  0  0  0  0
   30.1230   30.9180   16.1620 C   0  0  0  0  0  0  0  0  0  0  0  0
   30.6220   32.2620   15.7840 C   0  0  0  0  0  0  0  0  0  0  0  0
   30.2490   33.0930   14.7550 C   0  0  0  0  0  0  0  0  0  0  0  0
   31.5910   32.9240   16.4380 N   0  0  0  0  0  0  0  0  0  0  0  0
   30.9860   34.2310   14.8000 N   0  0  0  0  0  0  0  0  0  0  0  0
   31.7930   34.0970   15.8360 N   0  0  0  0  0  0  0  0  0  0  0  0
   30.8720   35.3230   13.8870 C   0  0  0  0  0  0  0  0  0  0  0  0
   29.6650   35.6660   13.3360 C   0  0  0  0  0  0  0  0  0  0  0  0
   31.9840   36.0540   13.5400 C   0  0  0  0  0  0  0  0  0  0  0  0
   29.5420   36.7520   12.4250 C   0  0  0  0  0  0  0  0  0  0  0  0
   31.9340   37.1050   12.6730 C   0  0  0  0  0  0  0  0  0  0  0  0
   30.6860   37.4410   12.1200 C   0  0  0  0  0  0  0  0  0  0  0  0
   28.2560   37.0840   11.9210 C   0  0  0  0  0  0  0  0  0  0  0  0
   27.1370   36.5190   11.6810 C   0  0  0  0  0  0  0  0  0  0  0  0
   26.6070   35.2210   11.8120 C   0  0  0  0  0  0  0  0  0  0  0  0
   26.2160   34.8280   13.0230 O   0  0  0  0  0  0  0  0  0  0  0  0
   26.3980   34.2130   10.9050 O   0  0  0  0  0  0  0  0  0  0  0  0
   26.4040   33.2350   11.1460 H   0  0  0  0  0  0  0  0  0  0  0  0
   29.8670   25.5550   16.9770 C   0  0  0  0  0  0  0  0  0  0  0  0
   28.3450   25.7220   17.0260 C   0  0  0  0  0  0  0  0  0  0  0  0
   27.6000   24.4180   16.7850 C   0  0  0  0  0  0  0  0  0  0  0  0
   26.8530   23.9590   18.0070 C   0  0  0  0  0  0  0  0  0  0  0  0
   25.5270   23.3340   17.5880 C   0  0  0  0  0  0  0  0  0  0  0  0
   24.6830   24.3300   16.8860 N   0  0  0  0  0  0  0  0  0  0  0  0
  1  5  1  0  0  0  0
  2  3  2  0  0  0  0
  2  1  1  0  0  0  0
  4  1  1  0  0  0  0
  6  5  1  6  0  0  0
  6 29  1  0  0  0  0
  6  7  1  0  0  0  0
  7 27  1  1  0  0  0
  8  7  1  1  0  0  0
  8 13  1  0  0  0  0
  8 11  1  0  0  0  0
  9 16  1  1  0  0  0
  9 14  1  0  0  0  0
 10  9  1  0  0  0  0
 11  9  1  0  0  0  0
 12 13  1  0  0  0  0
 12 20  1  1  0  0  0
 12 10  1  0  0  0  0
 13 22  1  6  0  0  0
 14 15  1  0  0  0  0
 16 17  2  0  0  0  0
 18 16  1  0  0  0  0
 19 18  1  0  0  0  0
 20 21  1  0  0  0  0
 22 23  1  0  0  0  0
 23 26  2  0  0  0  0
 24 22  1  0  0  0  0
 25 23  1  0  0  0  0
 28 27  1  0  0  0  0
 30 29  1  0  0  0  0
 31 32  1  0  0  0  0
 31  2  1  0  0  0  0
 33 32  1  0  0  0  0
 33 35  1  0  0  0  0
 34 36  1  0  0  0  0
 34 33  2  0  0  0  0
 36 37  1  0  0  0  0
 37 35  2  0  0  0  0
 38 36  1  0  0  0  0
 39 38  2  0  0  0  0
 40 38  1  0  0  0  0
 41 39  1  0  0  0  0
 42 40  2  0  0  0  0
 43 41  2  0  0  0  0
 43 42  1  0  0  0  0
 44 41  1  0  0  0  0
 45 46  1  0  0  0  0
 45 44  2  0  0  0  0
 46 47  2  0  0  0  0
 48 49  1  0  0  0  0
 48 46  1  0  0  0  0
 50 51  1  0  0  0  0
 52 51  1  0  0  0  0
 52 53  1  0  0  0  0
 54 53  1  0  0  0  0
 55 54  1  0  0  0  0
M  END
>  <REMARK>
 VINA RESULT:    -4.902      6.750     12.145
 INTER + INTRA:         -15.517
 INTER:                  -9.854
 INTRA:                  -5.663
 UNBOUND:                -6.317
 SMILES CC(=O)N[C@@H]1[C@@H](O)C[C@](O)(C(=O)O)O[C@H]1C(O)[C@H](O)CNC(=O)OCc1cn(-c2cccc(C=CC(=O)O)c2)nn1
 SMILES IDX 21 1 22 2 23 3 20 5 18 6 16 7 15 8 9 9 8 10 14 11 6 12 5 13
 SMILES IDX 10 14 11 16 12 17 13 18 7 20 4 22 2 23 1 25 3 26 17 27 19 29
 SMILES IDX 24 31 25 32 26 33 27 34 41 35 28 36 40 37 29 38 39 39 30 40
 SMILES IDX 33 41 31 42 32 43 34 44 35 45 36 46 37 47 38 48
 H PARENT 21 4 10 15 13 19 7 21 4 24 17 28 19 30 38 49
 Flexibility Score: inf
  4 active torsions:
  status: ('A' for Active; 'I' for Inactive)
    1  A    between atoms: CA   and  CB  
    2  A    between atoms: CB   and  CG  
    3  A    between atoms: CG   and  CD  
    4  A    between atoms: CD   and  CE  

>  <TORSDO>
F 18

>  <BEGIN_>
RES LYS A 131

$$$$
ligand_75_pose_12_2HRL.pdbqt
 OpenBabel07062320523D

  6  5  0  0  0  0  0  0  0  0999 V2000
   33.1930   34.6630    9.2900 C   0  0  0  0  0  0  0  0  0  0  0  0
   32.0600   35.3600   10.0340 C   0  0  0  0  0  0  0  0  0  0  0  0
   30.8220   35.5570    9.1980 C   0  0  0  0  0  0  0  0  0  0  0  0
   29.8240   34.4360    9.4450 C   0  0  0  0  0  0  0  0  0  0  0  0
   28.7360   34.4490    8.3890 C   0  0  0  0  0  0  0  0  0  0  0  0
   28.1350   35.8050    8.2550 N   0  0  0  0  0  0  0  0  0  0  0  0
  1  2  1  0  0  0  0
  3  4  1  0  0  0  0
  3  2  1  0  0  0  0
  5  4  1  0  0  0  0
  6  5  1  0  0  0  0
M  END
>  <EGIN_R>
ES LYS A 135

>  <REMARK>
  4 active torsions:
  status: ('A' for Active; 'I' for Inactive)
    5  A    between atoms: CA   and  CB  
    6  A    between atoms: CB   and  CG  
    7  A    between atoms: CG   and  CD  
    8  A    between atoms: CD   and  CE  

$$$$
