ligand_58_pose_12_2HRL.pdbqt
 OpenBabel07062320523D

 56 58  0  0  1  0  0  0  0  0999 V2000
   29.8210   34.9360   15.4780 N   0  0  0  0  0  0  0  0  0  0  0  0
   29.2700   36.2180   15.2590 C   0  0  0  0  0  0  0  0  0  0  0  0
   30.0200   37.1960   15.0290 O   0  0  0  0  0  0  0  0  0  0  0  0
   29.1720   34.1460   15.6690 H   0  0  0  0  0  0  0  0  0  0  0  0
   31.2320   34.7110   15.4410 C   0  0  0  0  0  0  0  0  0  0  0  0
   31.5480   33.4400   16.2310 C   0  0  2  0  0  0  0  0  0  0  0  0
   30.3720   32.5070   15.9890 C   0  0  2  0  0  0  0  0  0  0  0  0
   30.3610   31.2730   16.8460 C   0  0  2  0  0  0  0  0  0  0  0  0
   28.0870   30.6780   16.7000 C   0  0  2  0  0  0  0  0  0  0  0  0
   27.8570   31.0860   18.1380 C   0  0  0  0  0  0  0  0  0  0  0  0
   29.3730   30.4470   16.3460 O   0  0  0  0  0  0  0  0  0  0  0  0
   28.8570   32.0900   18.6270 C   0  0  1  0  0  0  0  0  0  0  0  0
   30.2210   31.5680   18.2860 C   0  0  1  0  0  0  0  0  0  0  0  0
   27.5980   31.7350   15.9290 O   0  0  0  0  0  0  0  0  0  0  0  0
   28.1400   31.7490   15.0900 H   0  0  0  0  0  0  0  0  0  0  0  0
   27.2050   29.4910   16.4010 C   0  0  0  0  0  0  0  0  0  0  0  0
   26.0210   29.6300   16.0810 O   0  0  0  0  0  0  0  0  0  0  0  0
   27.7550   28.2340   16.4930 O   0  0  0  0  0  0  0  0  0  0  0  0
   27.5050   27.5280   15.7920 H   0  0  0  0  0  0  0  0  0  0  0  0
   28.5580   33.3050   18.0800 O   0  0  0  0  0  0  0  0  0  0  0  0
   28.1250   33.2090   17.1880 H   0  0  0  0  0  0  0  0  0  0  0  0
   30.4270   30.3520   19.0990 N   0  0  0  0  0  0  0  0  0  0  0  0
   31.1230   30.3770   20.3200 C   0  0  0  0  0  0  0  0  0  0  0  0
   30.0400   29.4540   18.7400 H   0  0  0  0  0  0  0  0  0  0  0  0
   31.3080   29.1300   21.1070 C   0  0  0  0  0  0  0  0  0  0  0  0
   31.5990   31.4580   20.7640 O   0  0  0  0  0  0  0  0  0  0  0  0
   30.5400   32.0790   14.6210 O   0  0  0  0  0  0  0  0  0  0  0  0
   31.4160   32.3260   14.2870 H   0  0  0  0  0  0  0  0  0  0  0  0
   31.6370   33.8460   17.5540 O   0  0  0  0  0  0  0  0  0  0  0  0
   31.8730   33.1230   18.1670 H   0  0  0  0  0  0  0  0  0  0  0  0
   27.8990   36.4410   15.2900 O   0  0  0  0  0  0  0  0  0  0  0  0
   27.2970   37.1080   14.2140 C   0  0  0  0  0  0  0  0  0  0  0  0
   26.8560   36.1050   13.2100 C   0  0  0  0  0  0  0  0  0  0  0  0
   26.9040   36.2780   11.8240 C   0  0  0  0  0  0  0  0  0  0  0  0
   26.3360   34.8760   13.3730 N   0  0  0  0  0  0  0  0  0  0  0  0
   26.4260   35.1800   11.2340 N   0  0  0  0  0  0  0  0  0  0  0  0
   26.0880   34.3460   12.1810 N   0  0  0  0  0  0  0  0  0  0  0  0
   26.2880   34.9180    9.8090 C   0  0  0  0  0  0  0  0  0  0  0  0
   25.2560   35.7620    9.2040 C   0  0  0  0  0  0  0  0  0  0  0  0
   25.5620   36.9720    8.5700 C   0  0  0  0  0  0  0  0  0  0  0  0
   23.9350   35.3620    9.2300 C   0  0  0  0  0  0  0  0  0  0  0  0
   24.5720   37.7370    7.9940 C   0  0  0  0  0  0  0  0  0  0  0  0
   22.9620   36.1480    8.6460 C   0  0  0  0  0  0  0  0  0  0  0  0
   23.2500   37.3420    8.0190 C   0  0  0  0  0  0  0  0  0  0  0  0
   27.5680   34.8480    9.1000 C   0  0  0  0  0  0  0  0  0  0  0  0
   28.6800   34.2300    9.6980 C   0  0  0  0  0  0  0  0  0  0  0  0
   27.7010   35.3760    7.8380 C   0  0  0  0  0  0  0  0  0  0  0  0
   29.8780   34.1540    9.0350 C   0  0  0  0  0  0  0  0  0  0  0  0
   28.9280   35.2940    7.1720 C   0  0  0  0  0  0  0  0  0  0  0  0
   30.0070   34.6860    7.7710 C   0  0  0  0  0  0  0  0  0  0  0  0
   29.8670   25.5550   16.9770 C   0  0  0  0  0  0  0  0  0  0  0  0
   28.3450   25.7220   17.0260 C   0  0  0  0  0  0  0  0  0  0  0  0
   27.6010   24.4000   16.9070 C   0  0  0  0  0  0  0  0  0  0  0  0
   26.1480   24.5340   17.2680 C   0  0  0  0  0  0  0  0  0  0  0  0
   25.9580   25.7430   18.1770 C   0  0  0  0  0  0  0  0  0  0  0  0
   24.8270   26.5760   17.7050 N   0  0  0  0  0  0  0  0  0  0  0  0
  1  4  1  0  0  0  0
  2 31  1  0  0  0  0
  2  1  1  0  0  0  0
  3  2  2  0  0  0  0
  5  1  1  0  0  0  0
  6  5  1  6  0  0  0
  6 29  1  0  0  0  0
  7 27  1  6  0  0  0
  7  6  1  0  0  0  0
  8  7  1  6  0  0  0
  8 13  1  0  0  0  0
  9 14  1  6  0  0  0
  9 10  1  0  0  0  0
 10 12  1  0  0  0  0
 11  9  1  0  0  0  0
 11  8  1  0  0  0  0
 12 20  1  6  0  0  0
 13 12  1  0  0  0  0
 13 22  1  1  0  0  0
 15 14  1  0  0  0  0
 16 18  1  0  0  0  0
 16  9  1  0  0  0  0
 17 16  2  0  0  0  0
 19 18  1  0  0  0  0
 21 20  1  0  0  0  0
 22 23  1  0  0  0  0
 23 26  2  0  0  0  0
 23 25  1  0  0  0  0
 24 22  1  0  0  0  0
 28 27  1  0  0  0  0
 29 30  1  0  0  0  0
 32 31  1  0  0  0  0
 33 35  1  0  0  0  0
 33 32  1  0  0  0  0
 34 33  2  0  0  0  0
 36 34  1  0  0  0  0
 36 37  1  0  0  0  0
 37 35  2  0  0  0  0
 38 36  1  0  0  0  0
 39 41  1  0  0  0  0
 39 38  1  0  0  0  0
 40 39  2  0  0  0  0
 42 44  2  0  0  0  0
 42 40  1  0  0  0  0
 43 41  2  0  0  0  0
 44 43  1  0  0  0  0
 45 46  1  0  0  0  0
 45 38  1  0  0  0  0
 47 45  2  0  0  0  0
 48 46  2  0  0  0  0
 49 50  2  0  0  0  0
 49 47  1  0  0  0  0
 50 48  1  0  0  0  0
 51 52  1  0  0  0  0
 53 52  1  0  0  0  0
 53 54  1  0  0  0  0
 54 55  1  0  0  0  0
 56 55  1  0  0  0  0
M  END
>  <REMARK>
 VINA RESULT:    -5.621      1.571      3.218
 INTER + INTRA:         -15.876
 INTER:                 -12.832
 INTRA:                  -3.044
 UNBOUND:                -5.490
 SMILES CC(=O)N[C@@H]1[C@@H](O)C[C@](O)(C(=O)O)O[C@H]1C(O)[C@H](O)CNC(=O)OCc1cn(C(c2ccccc2)c2ccccc2)nn1
 SMILES IDX 21 1 22 2 23 3 20 5 18 6 16 7 15 8 9 9 8 10 14 11 6 12 5 13
 SMILES IDX 10 14 11 16 12 17 13 18 7 20 4 22 2 23 1 25 3 26 17 27 19 29
 SMILES IDX 24 31 25 32 26 33 27 34 43 35 28 36 42 37 29 38 30 39 31 40
 SMILES IDX 35 41 32 42 34 43 33 44 36 45 37 46 41 47 38 48 40 49 39 50
 H PARENT 21 4 10 15 13 19 7 21 4 24 17 28 19 30
 Flexibility Score: inf
  4 active torsions:
  status: ('A' for Active; 'I' for Inactive)
    1  A    between atoms: CA   and  CB  
    2  A    between atoms: CB   and  CG  
    3  A    between atoms: CG   and  CD  
    4  A    between atoms: CD   and  CE  

>  <TORSDO>
F 17

>  <BEGIN_>
RES LYS A 131

$$$$
ligand_58_pose_12_2HRL.pdbqt
 OpenBabel07062320523D

  6  5  0  0  0  0  0  0  0  0999 V2000
   33.1930   34.6630    9.2900 C   0  0  0  0  0  0  0  0  0  0  0  0
   32.0600   35.3600   10.0340 C   0  0  0  0  0  0  0  0  0  0  0  0
   32.3600   35.6110   11.4890 C   0  0  0  0  0  0  0  0  0  0  0  0
   31.8330   36.9720   11.9190 C   0  0  0  0  0  0  0  0  0  0  0  0
   30.3980   37.1560   11.4620 C   0  0  0  0  0  0  0  0  0  0  0  0
   29.9190   38.5370   11.7440 N   0  0  0  0  0  0  0  0  0  0  0  0
  1  2  1  0  0  0  0
  2  3  1  0  0  0  0
  3  4  1  0  0  0  0
  5  6  1  0  0  0  0
  5  4  1  0  0  0  0
M  END
>  <EGIN_R>
ES LYS A 135

>  <REMARK>
  4 active torsions:
  status: ('A' for Active; 'I' for Inactive)
    5  A    between atoms: CA   and  CB  
    6  A    between atoms: CB   and  CG  
    7  A    between atoms: CG   and  CD  
    8  A    between atoms: CD   and  CE  

$$$$
