ligand_1_pose_5_2HRL.pdbqt
 OpenBabel07062320523D

 47 47  0  0  1  0  0  0  0  0999 V2000
   25.7140   35.4440   12.7330 N   0  0  0  0  0  0  0  0  0  0  0  0
   25.6830   35.9360   11.4230 C   0  0  0  0  0  0  0  0  0  0  0  0
   26.4370   36.8460   11.0890 O   0  0  0  0  0  0  0  0  0  0  0  0
   25.0150   34.6500   12.9260 H   0  0  0  0  0  0  0  0  0  0  0  0
   26.5160   35.8330   13.8270 C   0  0  0  0  0  0  0  0  0  0  0  0
   27.8510   35.1750   13.9810 C   0  0  2  0  0  0  0  0  0  0  0  0
   27.7600   33.8560   14.6880 C   0  0  1  0  0  0  0  0  0  0  0  0
   28.9260   33.3620   15.4320 C   0  0  2  0  0  0  0  0  0  0  0  0
   31.2210   33.1480   15.4920 C   0  0  2  0  0  0  0  0  0  0  0  0
   30.9530   32.9800   16.9720 C   0  0  0  0  0  0  0  0  0  0  0  0
   30.1090   33.5910   14.7750 O   0  0  0  0  0  0  0  0  0  0  0  0
   29.8390   31.9660   17.1960 C   0  0  1  0  0  0  0  0  0  0  0  0
   28.9020   31.9730   15.9720 C   0  0  1  0  0  0  0  0  0  0  0  0
   31.6020   31.9360   14.9230 O   0  0  0  0  0  0  0  0  0  0  0  0
   32.2990   32.0390   14.2360 H   0  0  0  0  0  0  0  0  0  0  0  0
   32.2890   34.1440   15.2520 C   0  0  0  0  0  0  0  0  0  0  0  0
   32.8100   34.8230   16.1740 O   0  0  0  0  0  0  0  0  0  0  0  0
   32.7430   34.3470   13.9610 O   0  0  0  0  0  0  0  0  0  0  0  0
   32.3660   35.1290   13.4050 H   0  0  0  0  0  0  0  0  0  0  0  0
   30.3980   30.7090   17.3770 O   0  0  0  0  0  0  0  0  0  0  0  0
   31.2100   30.8320   17.9360 H   0  0  0  0  0  0  0  0  0  0  0  0
   27.5930   31.5170   16.3950 N   0  0  0  0  0  0  0  0  0  0  0  0
   27.2790   30.1400   16.2680 C   0  0  0  0  0  0  0  0  0  0  0  0
   26.8770   32.1740   16.7910 H   0  0  0  0  0  0  0  0  0  0  0  0
   25.9610   29.5810   16.6740 C   0  0  0  0  0  0  0  0  0  0  0  0
   28.1330   29.3550   15.7980 O   0  0  0  0  0  0  0  0  0  0  0  0
   26.6490   34.0440   15.5930 O   0  0  0  0  0  0  0  0  0  0  0  0
   25.8430   34.1660   15.0630 H   0  0  0  0  0  0  0  0  0  0  0  0
   28.7740   36.0150   14.5080 O   0  0  0  0  0  0  0  0  0  0  0  0
   28.4780   36.9300   14.6830 H   0  0  0  0  0  0  0  0  0  0  0  0
   24.8120   35.4170   10.4680 O   0  0  0  0  0  0  0  0  0  0  0  0
   24.7040   35.9750    9.1770 C   0  0  0  0  0  0  0  0  0  0  0  0
   23.2740   36.1920    8.8490 C   0  0  0  0  0  0  0  0  0  0  0  0
   22.1830   35.6280    9.4610 C   0  0  0  0  0  0  0  0  0  0  0  0
   22.8070   36.9810    7.8930 N   0  0  0  0  0  0  0  0  0  0  0  0
   21.1050   36.1210    8.8260 N   0  0  0  0  0  0  0  0  0  0  0  0
   21.4780   36.9490    7.8640 N   0  0  0  0  0  0  0  0  0  0  0  0
   19.7370   35.7800    9.1600 C   0  0  0  0  0  0  0  0  0  0  0  0
   18.9950   35.4260    7.8740 C   0  0  0  0  0  0  0  0  0  0  0  0
   19.7770   34.5080    7.1440 O   0  0  0  0  0  0  0  0  0  0  0  0
   20.3220   35.0000    6.4560 H   0  0  0  0  0  0  0  0  0  0  0  0
   29.8670   25.5550   16.9770 C   0  0  0  0  0  0  0  0  0  0  0  0
   28.3450   25.7220   17.0260 C   0  0  0  0  0  0  0  0  0  0  0  0
   27.6010   24.4020   16.8970 C   0  0  0  0  0  0  0  0  0  0  0  0
   26.1860   24.4970   17.3960 C   0  0  0  0  0  0  0  0  0  0  0  0
   26.1760   25.1460   18.7760 C   0  0  0  0  0  0  0  0  0  0  0  0
   25.1400   24.5240   19.6340 N   0  0  0  0  0  0  0  0  0  0  0  0
  1  4  1  0  0  0  0
  1  5  1  0  0  0  0
  2  1  1  0  0  0  0
  3  2  2  0  0  0  0
  6  5  1  1  0  0  0
  6 29  1  0  0  0  0
  6  7  1  0  0  0  0
  7 27  1  1  0  0  0
  8  7  1  6  0  0  0
  8 13  1  0  0  0  0
  9 14  1  6  0  0  0
  9 10  1  0  0  0  0
 10 12  1  0  0  0  0
 11  8  1  0  0  0  0
 11  9  1  0  0  0  0
 12 20  1  6  0  0  0
 13 22  1  1  0  0  0
 13 12  1  0  0  0  0
 15 14  1  0  0  0  0
 16  9  1  0  0  0  0
 16 17  2  0  0  0  0
 18 16  1  0  0  0  0
 19 18  1  0  0  0  0
 20 21  1  0  0  0  0
 22 24  1  0  0  0  0
 23 22  1  0  0  0  0
 23 25  1  0  0  0  0
 26 23  2  0  0  0  0
 28 27  1  0  0  0  0
 29 30  1  0  0  0  0
 31  2  1  0  0  0  0
 32 31  1  0  0  0  0
 33 32  1  0  0  0  0
 33 34  2  0  0  0  0
 35 33  1  0  0  0  0
 36 38  1  0  0  0  0
 36 34  1  0  0  0  0
 37 35  2  0  0  0  0
 37 36  1  0  0  0  0
 39 38  1  0  0  0  0
 40 39  1  0  0  0  0
 41 40  1  0  0  0  0
 42 43  1  0  0  0  0
 44 43  1  0  0  0  0
 44 45  1  0  0  0  0
 45 46  1  0  0  0  0
 46 47  1  0  0  0  0
M  END
>  <REMARK>
 VINA RESULT:    -3.242      5.352      9.546
 INTER + INTRA:         -13.467
 INTER:                  -8.587
 INTRA:                  -4.880
 UNBOUND:                -7.572
 SMILES CC(=O)N[C@@H]1[C@@H](O)C[C@](O)(C(=O)O)O[C@H]1C(O)[C@H](O)CNC(=O)OCc1cn(CCO)nn1
 SMILES IDX 21 1 22 2 23 3 20 5 18 6 16 7 15 8 9 9 8 10 14 11 6 12 5 13
 SMILES IDX 10 14 11 16 12 17 13 18 7 20 4 22 2 23 1 25 3 26 17 27 19 29
 SMILES IDX 24 31 25 32 26 33 27 34 33 35 28 36 32 37 29 38 30 39 31 40
 H PARENT 21 4 10 15 13 19 7 21 4 24 17 28 19 30 31 41
 Flexibility Score: inf
  4 active torsions:
  status: ('A' for Active; 'I' for Inactive)
    1  A    between atoms: CA   and  CB  
    2  A    between atoms: CB   and  CG  
    3  A    between atoms: CG   and  CD  
    4  A    between atoms: CD   and  CE  

>  <TORSDO>
F 17

>  <BEGIN_>
RES LYS A 131

$$$$
ligand_1_pose_5_2HRL.pdbqt
 OpenBabel07062320523D

  6  5  0  0  0  0  0  0  0  0999 V2000
   33.1930   34.6630    9.2900 C   0  0  0  0  0  0  0  0  0  0  0  0
   32.0600   35.3600   10.0340 C   0  0  0  0  0  0  0  0  0  0  0  0
   30.8080   35.5220    9.2110 C   0  0  0  0  0  0  0  0  0  0  0  0
   30.1400   34.1750    8.9810 C   0  0  0  0  0  0  0  0  0  0  0  0
   28.6690   34.3590    8.6580 C   0  0  0  0  0  0  0  0  0  0  0  0
   27.8110   33.6240    9.6290 N   0  0  0  0  0  0  0  0  0  0  0  0
  1  2  1  0  0  0  0
  3  2  1  0  0  0  0
  4  3  1  0  0  0  0
  5  4  1  0  0  0  0
  5  6  1  0  0  0  0
M  END
>  <EGIN_R>
ES LYS A 135

>  <REMARK>
  4 active torsions:
  status: ('A' for Active; 'I' for Inactive)
    5  A    between atoms: CA   and  CB  
    6  A    between atoms: CB   and  CG  
    7  A    between atoms: CG   and  CD  
    8  A    between atoms: CD   and  CE  

$$$$
