ligand_12_pose_19_2HRL.pdbqt
 OpenBabel07062320523D

 52 53  0  0  1  0  0  0  0  0999 V2000
   25.1740   33.8720   14.6920 N   0  0  0  0  0  0  0  0  0  0  0  0
   24.2530   33.2950   13.7690 C   0  0  0  0  0  0  0  0  0  0  0  0
   24.4500   32.1420   13.2780 O   0  0  0  0  0  0  0  0  0  0  0  0
   24.9800   34.8120   15.0710 H   0  0  0  0  0  0  0  0  0  0  0  0
   26.3390   33.0860   15.0420 C   0  0  0  0  0  0  0  0  0  0  0  0
   27.6230   33.8190   14.7630 C   0  0  2  0  0  0  0  0  0  0  0  0
   28.1310   34.4740   16.0300 C   0  0  2  0  0  0  0  0  0  0  0  0
   29.6190   34.4520   16.1370 C   0  0  2  0  0  0  0  0  0  0  0  0
   31.5240   34.9520   14.8910 C   0  0  2  0  0  0  0  0  0  0  0  0
   32.2360   34.0000   15.8420 C   0  0  0  0  0  0  0  0  0  0  0  0
   30.1440   34.7850   14.8920 O   0  0  0  0  0  0  0  0  0  0  0  0
   31.4080   32.7350   15.8940 C   0  0  1  0  0  0  0  0  0  0  0  0
   30.1270   33.1110   16.6210 C   0  0  1  0  0  0  0  0  0  0  0  0
   31.9540   34.5950   13.6150 O   0  0  0  0  0  0  0  0  0  0  0  0
   32.8150   34.1060   13.6350 H   0  0  0  0  0  0  0  0  0  0  0  0
   31.9240   36.3400   15.1530 C   0  0  0  0  0  0  0  0  0  0  0  0
   33.0550   36.5740   15.6480 O   0  0  0  0  0  0  0  0  0  0  0  0
   31.1140   37.4360   14.8840 O   0  0  0  0  0  0  0  0  0  0  0  0
   30.7970   37.5670   13.9280 H   0  0  0  0  0  0  0  0  0  0  0  0
   31.1210   32.2570   14.6180 O   0  0  0  0  0  0  0  0  0  0  0  0
   30.7510   31.3250   14.7060 H   0  0  0  0  0  0  0  0  0  0  0  0
   30.4560   33.2100   18.0270 N   0  0  0  0  0  0  0  0  0  0  0  0
   29.7720   32.4050   18.9770 C   0  0  0  0  0  0  0  0  0  0  0  0
   31.1910   33.8570   18.4050 H   0  0  0  0  0  0  0  0  0  0  0  0
   30.0700   32.4660   20.4340 C   0  0  0  0  0  0  0  0  0  0  0  0
   28.8760   31.6020   18.6100 O   0  0  0  0  0  0  0  0  0  0  0  0
   27.4630   33.9630   17.1160 O   0  0  0  0  0  0  0  0  0  0  0  0
   27.8490   33.0610   17.3090 H   0  0  0  0  0  0  0  0  0  0  0  0
   27.4010   34.7520   13.7590 O   0  0  0  0  0  0  0  0  0  0  0  0
   26.7300   34.4020   13.1150 H   0  0  0  0  0  0  0  0  0  0  0  0
   23.1020   33.9550   13.3600 O   0  0  0  0  0  0  0  0  0  0  0  0
   22.7450   34.1510   12.0070 C   0  0  0  0  0  0  0  0  0  0  0  0
   23.6450   35.0940   11.3070 C   0  0  0  0  0  0  0  0  0  0  0  0
   23.5700   35.6420   10.0440 C   0  0  0  0  0  0  0  0  0  0  0  0
   24.7690   35.6040   11.8400 N   0  0  0  0  0  0  0  0  0  0  0  0
   24.6350   36.4580    9.8450 N   0  0  0  0  0  0  0  0  0  0  0  0
   25.3350   36.4040   10.9630 N   0  0  0  0  0  0  0  0  0  0  0  0
   24.9480   37.2410    8.6400 C   0  0  0  0  0  0  0  0  0  0  0  0
   26.3130   37.1620    8.3830 O   0  0  0  0  0  0  0  0  0  0  0  0
   26.6450   36.0650    7.6230 C   0  0  0  0  0  0  0  0  0  0  0  0
   27.8400   35.3340    8.0900 C   0  0  0  0  0  0  0  0  0  0  0  0
   29.0540   35.5330    7.4640 C   0  0  0  0  0  0  0  0  0  0  0  0
   27.7720   34.4590    9.1450 C   0  0  0  0  0  0  0  0  0  0  0  0
   30.1990   34.8580    7.8940 C   0  0  0  0  0  0  0  0  0  0  0  0
   28.9110   33.7910    9.5670 C   0  0  0  0  0  0  0  0  0  0  0  0
   30.1100   33.9800    8.9570 C   0  0  0  0  0  0  0  0  0  0  0  0
   29.8670   25.5550   16.9770 C   0  0  0  0  0  0  0  0  0  0  0  0
   28.3450   25.7220   17.0260 C   0  0  0  0  0  0  0  0  0  0  0  0
   27.6010   24.4000   16.9080 C   0  0  0  0  0  0  0  0  0  0  0  0
   26.1590   24.5240   17.3130 C   0  0  0  0  0  0  0  0  0  0  0  0
   25.8770   23.5890   18.4850 C   0  0  0  0  0  0  0  0  0  0  0  0
   25.5020   24.3660   19.6900 N   0  0  0  0  0  0  0  0  0  0  0  0
  1  5  1  0  0  0  0
  1  4  1  0  0  0  0
  2  1  1  0  0  0  0
  3  2  2  0  0  0  0
  6  5  1  1  0  0  0
  6  7  1  0  0  0  0
  7 27  1  1  0  0  0
  8  7  1  6  0  0  0
  8 13  1  0  0  0  0
  9 14  1  6  0  0  0
  9 11  1  0  0  0  0
  9 16  1  0  0  0  0
  9 10  1  0  0  0  0
 10 12  1  0  0  0  0
 11  8  1  0  0  0  0
 12 20  1  6  0  0  0
 12 13  1  0  0  0  0
 13 22  1  1  0  0  0
 14 15  1  0  0  0  0
 16 17  2  0  0  0  0
 18 16  1  0  0  0  0
 19 18  1  0  0  0  0
 20 21  1  0  0  0  0
 22 24  1  0  0  0  0
 22 23  1  0  0  0  0
 23 25  1  0  0  0  0
 26 23  2  0  0  0  0
 27 28  1  0  0  0  0
 29  6  1  0  0  0  0
 30 29  1  0  0  0  0
 31  2  1  0  0  0  0
 32 31  1  0  0  0  0
 33 35  1  0  0  0  0
 33 32  1  0  0  0  0
 34 33  2  0  0  0  0
 36 34  1  0  0  0  0
 36 37  1  0  0  0  0
 37 35  2  0  0  0  0
 38 36  1  0  0  0  0
 39 38  1  0  0  0  0
 40 41  1  0  0  0  0
 40 39  1  0  0  0  0
 41 43  2  0  0  0  0
 42 44  2  0  0  0  0
 42 41  1  0  0  0  0
 43 45  1  0  0  0  0
 44 46  1  0  0  0  0
 46 45  2  0  0  0  0
 47 48  1  0  0  0  0
 49 48  1  0  0  0  0
 49 50  1  0  0  0  0
 50 51  1  0  0  0  0
 51 52  1  0  0  0  0
M  END
>  <REMARK>
 VINA RESULT:    -5.760      3.861      7.759
 INTER + INTRA:         -14.754
 INTER:                 -10.980
 INTRA:                  -3.774
 UNBOUND:                -3.774
 SMILES CC(=O)N[C@@H]1[C@@H](O)C[C@](O)(C(=O)O)O[C@H]1C(O)[C@H](O)CNC(=O)OCc1cn(COCc2ccccc2)nn1
 SMILES IDX 21 1 22 2 23 3 20 5 18 6 16 7 15 8 9 9 8 10 14 11 6 12 5 13
 SMILES IDX 10 14 11 16 12 17 13 18 7 20 4 22 2 23 1 25 3 26 17 27 19 29
 SMILES IDX 24 31 25 32 26 33 27 34 39 35 28 36 38 37 29 38 30 39 31 40
 SMILES IDX 32 41 33 42 37 43 34 44 36 45 35 46
 H PARENT 21 4 10 15 13 19 7 21 4 24 17 28 19 30
 Flexibility Score: inf
  4 active torsions:
  status: ('A' for Active; 'I' for Inactive)
    1  A    between atoms: CA   and  CB  
    2  A    between atoms: CB   and  CG  
    3  A    between atoms: CG   and  CD  
    4  A    between atoms: CD   and  CE  

>  <TORSDO>
F 18

>  <BEGIN_>
RES LYS A 131

$$$$
ligand_12_pose_19_2HRL.pdbqt
 OpenBabel07062320523D

  6  5  0  0  0  0  0  0  0  0999 V2000
   33.1930   34.6630    9.2900 C   0  0  0  0  0  0  0  0  0  0  0  0
   32.0600   35.3600   10.0340 C   0  0  0  0  0  0  0  0  0  0  0  0
   32.5000   36.5890   10.7870 C   0  0  0  0  0  0  0  0  0  0  0  0
   31.3060   37.2860   11.4220 C   0  0  0  0  0  0  0  0  0  0  0  0
   30.2690   37.6290   10.3700 C   0  0  0  0  0  0  0  0  0  0  0  0
   28.8900   37.3940   10.8800 N   0  0  0  0  0  0  0  0  0  0  0  0
  1  2  1  0  0  0  0
  2  3  1  0  0  0  0
  3  4  1  0  0  0  0
  5  6  1  0  0  0  0
  5  4  1  0  0  0  0
M  END
>  <EGIN_R>
ES LYS A 135

>  <REMARK>
  4 active torsions:
  status: ('A' for Active; 'I' for Inactive)
    5  A    between atoms: CA   and  CB  
    6  A    between atoms: CB   and  CG  
    7  A    between atoms: CG   and  CD  
    8  A    between atoms: CD   and  CE  

$$$$
