ligand_77_pose_18_2HRL.pdbqt
 OpenBabel07062320523D

 61 63  0  0  1  0  0  0  0  0999 V2000
   29.6250   36.3880   20.4420 N   0  0  0  0  0  0  0  0  0  0  0  0
   30.4640   35.5380   21.2010 C   0  0  0  0  0  0  0  0  0  0  0  0
   30.5170   34.3300   20.9440 O   0  0  0  0  0  0  0  0  0  0  0  0
   29.6450   37.4150   20.7320 H   0  0  0  0  0  0  0  0  0  0  0  0
   28.7800   35.9670   19.3480 C   0  0  0  0  0  0  0  0  0  0  0  0
   29.5200   36.1250   18.0640 C   0  0  2  0  0  0  0  0  0  0  0  0
   28.8090   35.4860   16.8900 C   0  0  1  0  0  0  0  0  0  0  0  0
   29.1880   34.0670   16.6310 C   0  0  2  0  0  0  0  0  0  0  0  0
   29.8510   32.2090   17.8450 C   0  0  2  0  0  0  0  0  0  0  0  0
   30.2520   31.5420   16.5670 C   0  0  0  0  0  0  0  0  0  0  0  0
   28.9150   33.2130   17.6740 O   0  0  0  0  0  0  0  0  0  0  0  0
   30.5730   32.4740   15.4540 C   0  0  1  0  0  0  0  0  0  0  0  0
   30.5590   33.9020   16.0240 C   0  0  1  0  0  0  0  0  0  0  0  0
   30.9800   32.6690   18.5620 O   0  0  0  0  0  0  0  0  0  0  0  0
   31.7710   32.2320   18.2030 H   0  0  0  0  0  0  0  0  0  0  0  0
   29.2230   31.1720   18.7150 C   0  0  0  0  0  0  0  0  0  0  0  0
   29.1450   31.3930   19.9630 O   0  0  0  0  0  0  0  0  0  0  0  0
   28.7180   29.9830   18.2520 O   0  0  0  0  0  0  0  0  0  0  0  0
   28.2330   29.3470   18.8810 H   0  0  0  0  0  0  0  0  0  0  0  0
   31.7830   32.2070   14.8320 O   0  0  0  0  0  0  0  0  0  0  0  0
   31.6460   32.2030   13.8320 H   0  0  0  0  0  0  0  0  0  0  0  0
   30.6640   34.8370   14.9100 N   0  0  0  0  0  0  0  0  0  0  0  0
   31.7550   35.7370   14.8380 C   0  0  0  0  0  0  0  0  0  0  0  0
   29.9560   34.8750   14.1460 H   0  0  0  0  0  0  0  0  0  0  0  0
   31.8910   36.7170   13.7030 C   0  0  0  0  0  0  0  0  0  0  0  0
   32.6590   35.7740   15.7000 O   0  0  0  0  0  0  0  0  0  0  0  0
   27.4410   35.6270   17.1550 O   0  0  0  0  0  0  0  0  0  0  0  0
   27.0000   35.8950   16.3210 H   0  0  0  0  0  0  0  0  0  0  0  0
   30.8390   35.7130   18.1920 O   0  0  0  0  0  0  0  0  0  0  0  0
   31.4220   36.3830   17.7520 H   0  0  0  0  0  0  0  0  0  0  0  0
   31.2550   35.9990   22.2480 O   0  0  0  0  0  0  0  0  0  0  0  0
   32.0650   37.1580   22.1260 C   0  0  0  0  0  0  0  0  0  0  0  0
   32.7400   37.2240   20.7980 C   0  0  0  0  0  0  0  0  0  0  0  0
   33.9260   36.6070   20.5080 C   0  0  0  0  0  0  0  0  0  0  0  0
   32.3420   37.8630   19.6890 N   0  0  0  0  0  0  0  0  0  0  0  0
   34.2290   36.8850   19.2190 N   0  0  0  0  0  0  0  0  0  0  0  0
   33.2600   37.6340   18.7720 N   0  0  0  0  0  0  0  0  0  0  0  0
   35.3980   36.4070   18.5720 C   0  0  0  0  0  0  0  0  0  0  0  0
   35.6950   36.8090   17.2890 C   0  0  0  0  0  0  0  0  0  0  0  0
   36.2740   35.5350   19.1810 C   0  0  0  0  0  0  0  0  0  0  0  0
   36.8250   36.3670   16.6210 C   0  0  0  0  0  0  0  0  0  0  0  0
   37.4180   35.0820   18.5160 C   0  0  0  0  0  0  0  0  0  0  0  0
   37.6920   35.4990   17.2360 C   0  0  0  0  0  0  0  0  0  0  0  0
   39.1020   34.9470   16.4020 S   0  0  0  0  0  0  0  0  0  0  0  0
   39.7030   33.7920   17.1280 O   0  0  0  0  0  0  0  0  0  0  0  0
   40.1530   36.0120   16.2800 O   0  0  0  0  0  0  0  0  0  0  0  0
   38.6170   34.4970   14.7710 C   0  0  0  0  0  0  0  0  0  0  0  0
   37.4790   33.7540   14.6030 C   0  0  0  0  0  0  0  0  0  0  0  0
   39.3600   34.8800   13.6600 C   0  0  0  0  0  0  0  0  0  0  0  0
   37.0580   33.3760   13.3340 C   0  0  0  0  0  0  0  0  0  0  0  0
   38.9690   34.5200   12.3800 C   0  0  0  0  0  0  0  0  0  0  0  0
   37.8220   33.7730   12.2530 C   0  0  0  0  0  0  0  0  0  0  0  0
   37.4050   33.3960   10.9570 N   0  0  0  0  0  0  0  0  0  0  0  0
   38.0710   32.9590   10.2990 H   0  0  0  0  0  0  0  0  0  0  0  0
   36.4240   33.5620   10.6700 H   0  0  0  0  0  0  0  0  0  0  0  0
   29.8670   25.5550   16.9770 C   0  0  0  0  0  0  0  0  0  0  0  0
   28.3450   25.7220   17.0260 C   0  0  0  0  0  0  0  0  0  0  0  0
   27.6040   24.3940   16.9930 C   0  0  0  0  0  0  0  0  0  0  0  0
   26.3470   24.4270   17.8180 C   0  0  0  0  0  0  0  0  0  0  0  0
   25.4770   23.2240   17.4680 C   0  0  0  0  0  0  0  0  0  0  0  0
   24.1060   23.6610   17.1120 N   0  0  0  0  0  0  0  0  0  0  0  0
  1  4  1  0  0  0  0
  1  2  1  0  0  0  0
  2 31  1  0  0  0  0
  3  2  2  0  0  0  0
  5  1  1  0  0  0  0
  6 29  1  0  0  0  0
  6  5  1  1  0  0  0
  7 27  1  1  0  0  0
  7  6  1  0  0  0  0
  8  7  1  1  0  0  0
  8 11  1  0  0  0  0
  9 14  1  1  0  0  0
  9 16  1  0  0  0  0
 10  9  1  0  0  0  0
 11  9  1  0  0  0  0
 12 20  1  1  0  0  0
 12 13  1  0  0  0  0
 12 10  1  0  0  0  0
 13 22  1  6  0  0  0
 13  8  1  0  0  0  0
 15 14  1  0  0  0  0
 16 17  2  0  0  0  0
 18 16  1  0  0  0  0
 18 19  1  0  0  0  0
 21 20  1  0  0  0  0
 23 22  1  0  0  0  0
 23 26  2  0  0  0  0
 24 22  1  0  0  0  0
 25 23  1  0  0  0  0
 28 27  1  0  0  0  0
 30 29  1  0  0  0  0
 32 31  1  0  0  0  0
 33 32  1  0  0  0  0
 34 33  2  0  0  0  0
 35 33  1  0  0  0  0
 36 34  1  0  0  0  0
 37 36  1  0  0  0  0
 37 35  2  0  0  0  0
 38 40  1  0  0  0  0
 38 36  1  0  0  0  0
 39 38  2  0  0  0  0
 41 43  2  0  0  0  0
 41 39  1  0  0  0  0
 42 40  2  0  0  0  0
 43 42  1  0  0  0  0
 44 45  2  0  0  0  0
 44 43  1  0  0  0  0
 46 44  2  0  0  0  0
 47 44  1  0  0  0  0
 48 47  1  0  0  0  0
 49 47  2  0  0  0  0
 50 48  2  0  0  0  0
 51 49  1  0  0  0  0
 52 51  2  0  0  0  0
 52 50  1  0  0  0  0
 53 52  1  0  0  0  0
 54 53  1  0  0  0  0
 55 53  1  0  0  0  0
 56 57  1  0  0  0  0
 58 57  1  0  0  0  0
 58 59  1  0  0  0  0
 60 59  1  0  0  0  0
 61 60  1  0  0  0  0
M  END
>  <REMARK>
 VINA RESULT:    -5.000      3.960      7.457
 INTER + INTRA:         -15.913
 INTER:                  -9.385
 INTRA:                  -6.527
 UNBOUND:                -6.527
 SMILES CC(=O)N[C@@H]1[C@@H](O)C[C@](O)(C(=O)O)O[C@H]1C(O)[C@H](O)CNC(=O)OCc1cn(-c2ccc(S(=O)(=O)c3ccc(N)cc3)cc2)nn1
 SMILES IDX 21 1 22 2 23 3 20 5 18 6 16 7 15 8 9 9 8 10 14 11 6 12 5 13
 SMILES IDX 10 14 11 16 12 17 13 18 7 20 4 22 2 23 1 25 3 26 17 27 19 29
 SMILES IDX 24 31 25 32 26 33 27 34 46 35 28 36 45 37 29 38 30 39 44 40
 SMILES IDX 31 41 43 42 32 43 33 44 34 45 35 46 36 47 37 48 42 49 38 50
 SMILES IDX 41 51 39 52 40 53
 H PARENT 21 4 10 15 13 19 7 21 4 24 17 28 19 30 40 54 40 55
 Flexibility Score: inf
  4 active torsions:
  status: ('A' for Active; 'I' for Inactive)
    1  A    between atoms: CA   and  CB  
    2  A    between atoms: CB   and  CG  
    3  A    between atoms: CG   and  CD  
    4  A    between atoms: CD   and  CE  

>  <TORSDO>
F 18

>  <BEGIN_>
RES LYS A 131

$$$$
ligand_77_pose_18_2HRL.pdbqt
 OpenBabel07062320523D

  6  5  0  0  0  0  0  0  0  0999 V2000
   33.1930   34.6630    9.2900 C   0  0  0  0  0  0  0  0  0  0  0  0
   32.0600   35.3600   10.0340 C   0  0  0  0  0  0  0  0  0  0  0  0
   30.7920   35.4780    9.2280 C   0  0  0  0  0  0  0  0  0  0  0  0
   30.2230   34.1020    8.9190 C   0  0  0  0  0  0  0  0  0  0  0  0
   28.7170   34.0960    9.1000 C   0  0  0  0  0  0  0  0  0  0  0  0
   28.3450   34.3970   10.5100 N   0  0  0  0  0  0  0  0  0  0  0  0
  1  2  1  0  0  0  0
  3  2  1  0  0  0  0
  4  5  1  0  0  0  0
  4  3  1  0  0  0  0
  5  6  1  0  0  0  0
M  END
>  <EGIN_R>
ES LYS A 135

>  <REMARK>
  4 active torsions:
  status: ('A' for Active; 'I' for Inactive)
    5  A    between atoms: CA   and  CB  
    6  A    between atoms: CB   and  CG  
    7  A    between atoms: CG   and  CD  
    8  A    between atoms: CD   and  CE  

$$$$
