ligand_25_pose_4_2HRL.pdbqt
 OpenBabel07062320523D

 56 59  0  0  1  0  0  0  0  0999 V2000
   25.2760   37.3900   10.2310 C   0  0  0  0  0  0  0  0  0  0  0  0
   26.2970   37.7470    9.2150 C   0  0  2  0  0  0  0  0  0  0  0  0
   27.4830   38.4600    9.7810 C   0  0  1  0  0  0  0  0  0  0  0  0
   28.8150   37.7990    9.5630 C   0  0  2  0  0  0  0  0  0  0  0  0
   30.4470   38.6600   11.0050 C   0  0  2  0  0  0  0  0  0  0  0  0
   31.6210   38.2680   10.1330 C   0  0  0  0  0  0  0  0  0  0  0  0
   29.4350   37.7740   10.8130 O   0  0  0  0  0  0  0  0  0  0  0  0
   31.1470   38.0640    8.7410 C   0  0  1  0  0  0  0  0  0  0  0  0
   29.6790   38.4710    8.5300 C   0  0  1  0  0  0  0  0  0  0  0  0
   30.1830   39.9820   10.7630 O   0  0  0  0  0  0  0  0  0  0  0  0
   29.5490   40.1060   10.0220 H   0  0  0  0  0  0  0  0  0  0  0  0
   30.9140   38.5060   12.4170 C   0  0  0  0  0  0  0  0  0  0  0  0
   30.8200   39.4760   13.2040 O   0  0  0  0  0  0  0  0  0  0  0  0
   31.4560   37.3240   12.9010 O   0  0  0  0  0  0  0  0  0  0  0  0
   32.4750   37.1830   12.9100 H   0  0  0  0  0  0  0  0  0  0  0  0
   31.8950   38.7340    7.7860 O   0  0  0  0  0  0  0  0  0  0  0  0
   31.6010   39.6610    7.6360 H   0  0  0  0  0  0  0  0  0  0  0  0
   29.3620   37.9570    7.2170 N   0  0  0  0  0  0  0  0  0  0  0  0
   28.5250   38.6060    6.2730 C   0  0  0  0  0  0  0  0  0  0  0  0
   29.7800   37.0440    6.9410 H   0  0  0  0  0  0  0  0  0  0  0  0
   28.2430   38.0070    4.9280 C   0  0  0  0  0  0  0  0  0  0  0  0
   28.0220   39.7100    6.6030 O   0  0  0  0  0  0  0  0  0  0  0  0
   27.5480   39.8130    9.4720 O   0  0  0  0  0  0  0  0  0  0  0  0
   26.6900   40.2580    9.3820 H   0  0  0  0  0  0  0  0  0  0  0  0
   25.7320   38.5960    8.2650 O   0  0  0  0  0  0  0  0  0  0  0  0
   26.3570   39.2650    7.9260 H   0  0  0  0  0  0  0  0  0  0  0  0
   25.7650   37.0770   11.5210 N   0  0  0  0  0  0  0  0  0  0  0  0
   25.8720   35.7710   12.0310 C   0  0  0  0  0  0  0  0  0  0  0  0
   26.0800   37.8710   12.1690 H   0  0  0  0  0  0  0  0  0  0  0  0
   25.5540   34.7810   11.3800 O   0  0  0  0  0  0  0  0  0  0  0  0
   26.3560   35.5350   13.3310 O   0  0  0  0  0  0  0  0  0  0  0  0
   27.4050   36.2560   13.9020 C   0  0  0  0  0  0  0  0  0  0  0  0
   28.6660   35.4840   14.0200 C   0  0  0  0  0  0  0  0  0  0  0  0
   29.3320   35.0660   15.1470 C   0  0  0  0  0  0  0  0  0  0  0  0
   29.3700   35.0620   12.9670 N   0  0  0  0  0  0  0  0  0  0  0  0
   30.4120   34.4100   14.7390 N   0  0  0  0  0  0  0  0  0  0  0  0
   30.4190   34.4160   13.4220 N   0  0  0  0  0  0  0  0  0  0  0  0
   31.4290   33.7800   15.5680 C   0  0  0  0  0  0  0  0  0  0  0  0
   30.8490   32.7720   16.4730 C   0  0  0  0  0  0  0  0  0  0  0  0
   32.1270   34.7290   16.4210 C   0  0  0  0  0  0  0  0  0  0  0  0
   30.0760   31.6330   16.1840 C   0  0  0  0  0  0  0  0  0  0  0  0
   31.1880   33.1140   17.7500 C   0  0  0  0  0  0  0  0  0  0  0  0
   31.9870   34.3380   17.7260 C   0  0  0  0  0  0  0  0  0  0  0  0
   32.8690   35.8970   16.1540 C   0  0  0  0  0  0  0  0  0  0  0  0
   29.6580   30.8510   17.2320 C   0  0  0  0  0  0  0  0  0  0  0  0
   30.7420   32.2960   18.7880 C   0  0  0  0  0  0  0  0  0  0  0  0
   32.5440   35.0400   18.8000 C   0  0  0  0  0  0  0  0  0  0  0  0
   33.4240   36.6010   17.1910 C   0  0  0  0  0  0  0  0  0  0  0  0
   29.9850   31.1740   18.5340 C   0  0  0  0  0  0  0  0  0  0  0  0
   33.2610   36.1750   18.4980 C   0  0  0  0  0  0  0  0  0  0  0  0
   29.8670   25.5550   16.9770 C   0  0  0  0  0  0  0  0  0  0  0  0
   28.3450   25.7220   17.0260 C   0  0  0  0  0  0  0  0  0  0  0  0
   27.6010   24.4020   16.8930 C   0  0  0  0  0  0  0  0  0  0  0  0
   26.1560   24.5240   17.2900 C   0  0  0  0  0  0  0  0  0  0  0  0
   25.9740   24.0060   18.7130 C   0  0  0  0  0  0  0  0  0  0  0  0
   25.2830   25.0170   19.5490 N   0  0  0  0  0  0  0  0  0  0  0  0
  1 27  1  0  0  0  0
  2  3  1  0  0  0  0
  2  1  1  1  0  0  0
  3 23  1  6  0  0  0
  4  3  1  1  0  0  0
  4  7  1  0  0  0  0
  5 10  1  6  0  0  0
  5 12  1  0  0  0  0
  6  5  1  0  0  0  0
  7  5  1  0  0  0  0
  8 16  1  6  0  0  0
  8  6  1  0  0  0  0
  9 18  1  6  0  0  0
  9  8  1  0  0  0  0
  9  4  1  0  0  0  0
 11 10  1  0  0  0  0
 12 14  1  0  0  0  0
 12 13  2  0  0  0  0
 14 15  1  0  0  0  0
 17 16  1  0  0  0  0
 19 22  2  0  0  0  0
 19 18  1  0  0  0  0
 20 18  1  0  0  0  0
 21 19  1  0  0  0  0
 24 23  1  0  0  0  0
 25  2  1  0  0  0  0
 26 25  1  0  0  0  0
 27 28  1  0  0  0  0
 27 29  1  0  0  0  0
 28 31  1  0  0  0  0
 30 28  2  0  0  0  0
 31 32  1  0  0  0  0
 32 33  1  0  0  0  0
 33 34  2  0  0  0  0
 35 37  2  0  0  0  0
 35 33  1  0  0  0  0
 36 34  1  0  0  0  0
 36 38  1  0  0  0  0
 37 36  1  0  0  0  0
 38 40  1  0  0  0  0
 38 39  1  0  0  0  0
 39 42  1  0  0  0  0
 40 43  1  0  0  0  0
 41 39  2  0  0  0  0
 41 45  1  0  0  0  0
 42 46  2  0  0  0  0
 43 42  1  0  0  0  0
 43 47  2  0  0  0  0
 44 40  2  0  0  0  0
 44 48  1  0  0  0  0
 45 49  2  0  0  0  0
 48 50  2  0  0  0  0
 49 46  1  0  0  0  0
 50 47  1  0  0  0  0
 51 52  1  0  0  0  0
 53 52  1  0  0  0  0
 53 54  1  0  0  0  0
 54 55  1  0  0  0  0
 55 56  1  0  0  0  0
M  END
>  <REMARK>
 VINA RESULT:    -6.777      3.035      8.196
 INTER + INTRA:         -16.307
 INTER:                  -9.655
 INTRA:                  -6.652
 UNBOUND:                -4.578
 SMILES CC(=O)N[C@@H]1[C@@H](O)C[C@](O)(C(=O)O)O[C@H]1C(O)[C@H](O)CNC(=O)OCc1cn(C2c3ccccc3-c3ccccc32)nn1
 SMILES IDX 20 1 18 2 16 3 15 4 9 5 8 6 14 7 6 8 5 9 10 10 11 12 12 13
 SMILES IDX 13 14 7 16 4 18 2 19 1 21 3 22 17 23 19 25 21 27 22 28 23 30
 SMILES IDX 24 31 25 32 26 33 27 34 43 35 28 36 42 37 29 38 30 39 41 40
 SMILES IDX 31 41 35 42 36 43 40 44 32 45 34 46 37 47 39 48 33 49 38 50
 H PARENT 10 11 13 15 7 17 4 20 17 24 19 26 21 29
 Flexibility Score: inf
  4 active torsions:
  status: ('A' for Active; 'I' for Inactive)
    1  A    between atoms: CA   and  CB  
    2  A    between atoms: CB   and  CG  
    3  A    between atoms: CG   and  CD  
    4  A    between atoms: CD   and  CE  

>  <TORSDO>
F 15

>  <BEGIN_>
RES LYS A 131

$$$$
ligand_25_pose_4_2HRL.pdbqt
 OpenBabel07062320523D

  6  5  0  0  0  0  0  0  0  0999 V2000
   33.1930   34.6630    9.2900 C   0  0  0  0  0  0  0  0  0  0  0  0
   32.0600   35.3600   10.0340 C   0  0  0  0  0  0  0  0  0  0  0  0
   30.7360   34.6510    9.9160 C   0  0  0  0  0  0  0  0  0  0  0  0
   30.3490   34.4750    8.4560 C   0  0  0  0  0  0  0  0  0  0  0  0
   28.8410   34.4880    8.2990 C   0  0  0  0  0  0  0  0  0  0  0  0
   28.1760   33.8110    9.4460 N   0  0  0  0  0  0  0  0  0  0  0  0
  1  2  1  0  0  0  0
  3  2  1  0  0  0  0
  4  3  1  0  0  0  0
  5  4  1  0  0  0  0
  5  6  1  0  0  0  0
M  END
>  <EGIN_R>
ES LYS A 135

>  <REMARK>
  4 active torsions:
  status: ('A' for Active; 'I' for Inactive)
    5  A    between atoms: CA   and  CB  
    6  A    between atoms: CB   and  CG  
    7  A    between atoms: CG   and  CD  
    8  A    between atoms: CD   and  CE  

$$$$
