ligand_90_pose_11_2HRL.pdbqt
 OpenBabel07062320523D

 61 62  0  0  1  0  0  0  0  0999 V2000
   29.0740   36.0310   14.2090 C   0  0  0  0  0  0  0  0  0  0  0  0
   27.7420   35.9570   13.7390 O   0  0  0  0  0  0  0  0  0  0  0  0
   27.0090   37.0940   13.4520 C   0  0  0  0  0  0  0  0  0  0  0  0
   25.5730   37.0600   13.3930 N   0  0  0  0  0  0  0  0  0  0  0  0
   25.1300   36.1360   13.5700 H   0  0  0  0  0  0  0  0  0  0  0  0
   27.6190   38.1560   13.2420 O   0  0  0  0  0  0  0  0  0  0  0  0
   24.7740   38.2020   13.1110 C   0  0  0  0  0  0  0  0  0  0  0  0
   24.5100   38.4340   11.6640 C   0  0  2  0  0  0  0  0  0  0  0  0
   23.8520   37.1960   11.0780 C   0  0  1  0  0  0  0  0  0  0  0  0
   22.8750   37.5180    9.9920 C   0  0  2  0  0  0  0  0  0  0  0  0
   21.3260   35.7920    9.7680 C   0  0  2  0  0  0  0  0  0  0  0  0
   21.2920   35.8160    8.2460 C   0  0  0  0  0  0  0  0  0  0  0  0
   21.6350   37.0170   10.2910 O   0  0  0  0  0  0  0  0  0  0  0  0
   22.0950   37.0050    7.7370 C   0  0  1  0  0  0  0  0  0  0  0  0
   23.3330   37.0900    8.6370 C   0  0  1  0  0  0  0  0  0  0  0  0
   22.3040   34.8770   10.1140 O   0  0  0  0  0  0  0  0  0  0  0  0
   23.0760   35.3300   10.5380 H   0  0  0  0  0  0  0  0  0  0  0  0
   20.0350   35.3200   10.3310 C   0  0  0  0  0  0  0  0  0  0  0  0
   19.4300   34.3170    9.8570 O   0  0  0  0  0  0  0  0  0  0  0  0
   19.4450   35.9650   11.4040 O   0  0  0  0  0  0  0  0  0  0  0  0
   18.5380   36.3960   11.4010 H   0  0  0  0  0  0  0  0  0  0  0  0
   22.4470   36.7420    6.4250 O   0  0  0  0  0  0  0  0  0  0  0  0
   21.6860   36.4770    5.8620 H   0  0  0  0  0  0  0  0  0  0  0  0
   24.2840   38.0340    8.0660 N   0  0  0  0  0  0  0  0  0  0  0  0
   25.5670   37.5860    7.6940 C   0  0  0  0  0  0  0  0  0  0  0  0
   24.0130   39.0120    7.9430 H   0  0  0  0  0  0  0  0  0  0  0  0
   26.5820   38.5310    7.0980 C   0  0  0  0  0  0  0  0  0  0  0  0
   25.9520   36.4010    7.8290 O   0  0  0  0  0  0  0  0  0  0  0  0
   24.7970   36.3040   10.5990 O   0  0  0  0  0  0  0  0  0  0  0  0
   24.5910   35.9560    9.7130 H   0  0  0  0  0  0  0  0  0  0  0  0
   25.6310   38.7490   10.9140 O   0  0  0  0  0  0  0  0  0  0  0  0
   26.3190   39.2390   11.4400 H   0  0  0  0  0  0  0  0  0  0  0  0
   29.4490   34.6420   14.5700 C   0  0  0  0  0  0  0  0  0  0  0  0
   28.9430   33.9610   15.6550 C   0  0  0  0  0  0  0  0  0  0  0  0
   30.2980   33.7760   13.9970 N   0  0  0  0  0  0  0  0  0  0  0  0
   29.4900   32.7080   15.7180 N   0  0  0  0  0  0  0  0  0  0  0  0
   30.3080   32.6270   14.6970 N   0  0  0  0  0  0  0  0  0  0  0  0
   29.1440   31.7730   16.7660 C   0  0  0  0  0  0  0  0  0  0  0  0
   28.1730   30.7860   16.1470 C   0  0  0  0  0  0  0  0  0  0  0  0
   28.6010   29.8380   15.4530 O   0  0  0  0  0  0  0  0  0  0  0  0
   26.7910   30.8920   16.3220 N   0  0  0  0  0  0  0  0  0  0  0  0
   26.5110   31.7320   16.9570 H   0  0  0  0  0  0  0  0  0  0  0  0
   25.7380   30.0950   15.8080 C   0  0  0  0  0  0  0  0  0  0  0  0
   24.6030   30.7130   15.1280 C   0  0  1  0  0  0  0  0  0  0  0  0
   23.9730   31.7230   15.9040 O   0  0  0  0  0  0  0  0  0  0  0  0
   24.5790   31.9970   16.6340 H   0  0  0  0  0  0  0  0  0  0  0  0
   24.6120   30.9820   13.6810 C   0  0  0  0  0  0  0  0  0  0  0  0
   23.3680   31.5400   13.1850 N   0  0  0  0  0  0  0  0  0  0  0  0
   22.2390   30.8370   12.9150 C   0  0  0  0  0  0  0  0  0  0  0  0
   23.1430   32.8340   12.8960 C   0  0  0  0  0  0  0  0  0  0  0  0
   21.3100   31.7480   12.4480 C   0  0  0  0  0  0  0  0  0  0  0  0
   21.8610   32.9630   12.4360 N   0  0  0  0  0  0  0  0  0  0  0  0
   24.0160   33.9430   13.0160 N   0  0  0  0  0  0  0  0  0  0  0  0
   23.6800   34.8720   13.8090 O   0  0  0  0  0  0  0  0  0  0  0  0
   25.1880   34.1170   12.3600 O   0  0  0  0  0  0  0  0  0  0  0  0
   29.8670   25.5550   16.9770 C   0  0  0  0  0  0  0  0  0  0  0  0
   28.3450   25.7220   17.0260 C   0  0  0  0  0  0  0  0  0  0  0  0
   27.6020   24.3990   16.9230 C   0  0  0  0  0  0  0  0  0  0  0  0
   26.6290   24.2070   18.0540 C   0  0  0  0  0  0  0  0  0  0  0  0
   26.4540   25.5230   18.8040 C   0  0  0  0  0  0  0  0  0  0  0  0
   25.3010   25.4420   19.7320 N   0  0  0  0  0  0  0  0  0  0  0  0
  1 33  1  0  0  0  0
  2  1  1  0  0  0  0
  3  2  1  0  0  0  0
  4  3  1  0  0  0  0
  4  5  1  0  0  0  0
  6  3  2  0  0  0  0
  7  4  1  0  0  0  0
  8  7  1  1  0  0  0
  9 29  1  6  0  0  0
  9  8  1  0  0  0  0
 10 13  1  0  0  0  0
 10  9  1  1  0  0  0
 11 16  1  1  0  0  0
 11 13  1  0  0  0  0
 11 18  1  0  0  0  0
 12 11  1  0  0  0  0
 14 22  1  6  0  0  0
 14 12  1  0  0  0  0
 14 15  1  0  0  0  0
 15 24  1  6  0  0  0
 15 10  1  0  0  0  0
 16 17  1  0  0  0  0
 18 20  1  0  0  0  0
 19 18  2  0  0  0  0
 21 20  1  0  0  0  0
 23 22  1  0  0  0  0
 25 28  2  0  0  0  0
 25 24  1  0  0  0  0
 26 24  1  0  0  0  0
 27 25  1  0  0  0  0
 30 29  1  0  0  0  0
 31 32  1  0  0  0  0
 31  8  1  0  0  0  0
 33 34  2  0  0  0  0
 34 36  1  0  0  0  0
 35 33  1  0  0  0  0
 35 37  2  0  0  0  0
 36 38  1  0  0  0  0
 37 36  1  0  0  0  0
 39 41  1  0  0  0  0
 39 38  1  0  0  0  0
 40 39  2  0  0  0  0
 41 42  1  0  0  0  0
 43 41  1  0  0  0  0
 44 47  1  6  0  0  0
 44 43  1  0  0  0  0
 44 45  1  0  0  0  0
 45 46  1  0  0  0  0
 48 47  1  0  0  0  0
 49 48  1  0  0  0  0
 50 53  1  0  0  0  0
 50 48  1  0  0  0  0
 51 49  2  0  0  0  0
 52 51  1  0  0  0  0
 52 50  2  0  0  0  0
 53 54  2  0  0  0  0
 55 53  2  0  0  0  0
 56 57  1  0  0  0  0
 58 57  1  0  0  0  0
 58 59  1  0  0  0  0
 59 60  1  0  0  0  0
 60 61  1  0  0  0  0
M  END
>  <REMARK>
 VINA RESULT:    -5.198      3.487      7.133
 INTER + INTRA:         -16.731
 INTER:                  -9.122
 INTRA:                  -7.609
 UNBOUND:                -5.759
 SMILES CC(=O)N[C@@H]1[C@@H](O)C[C@](O)(C(=O)O)O[C@H]1C(O)[C@H](O)CNC(=O)OCc1cn(CC(=O)NCC(O)Cn2ccnc2[N+](=O)[O-])nn1
 SMILES IDX 25 1 24 2 22 3 21 4 23 6 20 7 18 8 16 9 15 10 9 11 8 12
 SMILES IDX 14 13 6 14 5 15 10 16 11 18 12 19 13 20 7 22 4 24 2 25 1 27
 SMILES IDX 3 28 17 29 19 31 26 33 27 34 46 35 28 36 45 37 29 38 30 39
 SMILES IDX 31 40 32 41 33 43 34 44 35 45 36 47 37 48 38 49 41 50 39 51
 SMILES IDX 40 52 42 53 43 54 44 55
 H PARENT 21 5 10 17 13 21 7 23 4 26 17 30 19 32 32 42 35 46
 Flexibility Score: inf
  4 active torsions:
  status: ('A' for Active; 'I' for Inactive)
    1  A    between atoms: CA   and  CB  
    2  A    between atoms: CB   and  CG  
    3  A    between atoms: CG   and  CD  
    4  A    between atoms: CD   and  CE  

>  <TORSDO>
F 22

>  <BEGIN_>
RES LYS A 131

$$$$
ligand_90_pose_11_2HRL.pdbqt
 OpenBabel07062320523D

  6  5  0  0  0  0  0  0  0  0999 V2000
   33.1930   34.6630    9.2900 C   0  0  0  0  0  0  0  0  0  0  0  0
   32.0600   35.3600   10.0340 C   0  0  0  0  0  0  0  0  0  0  0  0
   30.6900   34.8770    9.6350 C   0  0  0  0  0  0  0  0  0  0  0  0
   29.6240   35.4780   10.5380 C   0  0  0  0  0  0  0  0  0  0  0  0
   28.4540   34.5250   10.6880 C   0  0  0  0  0  0  0  0  0  0  0  0
   28.1590   33.8300    9.4040 N   0  0  0  0  0  0  0  0  0  0  0  0
  1  2  1  0  0  0  0
  3  2  1  0  0  0  0
  3  4  1  0  0  0  0
  4  5  1  0  0  0  0
  6  5  1  0  0  0  0
M  END
>  <EGIN_R>
ES LYS A 135

>  <REMARK>
  4 active torsions:
  status: ('A' for Active; 'I' for Inactive)
    5  A    between atoms: CA   and  CB  
    6  A    between atoms: CB   and  CG  
    7  A    between atoms: CG   and  CD  
    8  A    between atoms: CD   and  CE  

$$$$
