ligand_17_pose_13_2HRL.pdbqt
 OpenBabel07062320523D

 50 50  0  0  1  0  0  0  0  0999 V2000
   26.0940   31.1410   16.8480 N   0  0  0  0  0  0  0  0  0  0  0  0
   25.7550   32.4180   16.3050 C   0  0  0  0  0  0  0  0  0  0  0  0
   25.6340   32.5610   15.0760 O   0  0  0  0  0  0  0  0  0  0  0  0
   26.1800   31.0960   17.8780 H   0  0  0  0  0  0  0  0  0  0  0  0
   26.3120   29.9710   16.0550 C   0  0  0  0  0  0  0  0  0  0  0  0
   27.3870   29.0650   16.5860 C   0  0  2  0  0  0  0  0  0  0  0  0
   27.5180   29.2260   18.0850 C   0  0  1  0  0  0  0  0  0  0  0  0
   27.4590   27.9020   18.7910 C   0  0  2  0  0  0  0  0  0  0  0  0
   25.2160   28.0580   19.4820 C   0  0  2  0  0  0  0  0  0  0  0  0
   25.7030   28.4730   20.8640 C   0  0  0  0  0  0  0  0  0  0  0  0
   26.1730   27.4270   18.7440 O   0  0  0  0  0  0  0  0  0  0  0  0
   26.9280   27.6030   21.1670 C   0  0  1  0  0  0  0  0  0  0  0  0
   27.9810   27.9690   20.1830 C   0  0  1  0  0  0  0  0  0  0  0  0
   24.6500   29.1840   18.8890 O   0  0  0  0  0  0  0  0  0  0  0  0
   25.2050   29.9950   19.0620 H   0  0  0  0  0  0  0  0  0  0  0  0
   24.1140   27.0650   19.6860 C   0  0  0  0  0  0  0  0  0  0  0  0
   23.5180   26.9410   20.7770 O   0  0  0  0  0  0  0  0  0  0  0  0
   23.7440   26.2580   18.6310 O   0  0  0  0  0  0  0  0  0  0  0  0
   24.3340   25.5250   18.2500 H   0  0  0  0  0  0  0  0  0  0  0  0
   27.2980   27.8440   22.4900 O   0  0  0  0  0  0  0  0  0  0  0  0
   26.6640   27.2990   23.0560 H   0  0  0  0  0  0  0  0  0  0  0  0
   29.2120   27.2230   20.3630 N   0  0  0  0  0  0  0  0  0  0  0  0
   30.4510   27.8360   20.7040 C   0  0  0  0  0  0  0  0  0  0  0  0
   29.2410   26.1710   20.2460 H   0  0  0  0  0  0  0  0  0  0  0  0
   31.6930   27.0170   20.8770 C   0  0  0  0  0  0  0  0  0  0  0  0
   30.5180   29.0700   20.8640 O   0  0  0  0  0  0  0  0  0  0  0  0
   28.7610   29.8610   18.2640 O   0  0  0  0  0  0  0  0  0  0  0  0
   28.5480   30.8210   18.4110 H   0  0  0  0  0  0  0  0  0  0  0  0
   28.5470   29.2280   15.8850 O   0  0  0  0  0  0  0  0  0  0  0  0
   29.3240   29.0770   16.4790 H   0  0  0  0  0  0  0  0  0  0  0  0
   25.5490   33.5320   17.1010 O   0  0  0  0  0  0  0  0  0  0  0  0
   26.5600   34.5070   17.3150 C   0  0  0  0  0  0  0  0  0  0  0  0
   27.8460   33.7930   17.5220 C   0  0  0  0  0  0  0  0  0  0  0  0
   28.9270   33.8790   16.6450 C   0  0  0  0  0  0  0  0  0  0  0  0
   28.2480   32.9740   18.5020 N   0  0  0  0  0  0  0  0  0  0  0  0
   29.9080   33.1230   17.1290 N   0  0  0  0  0  0  0  0  0  0  0  0
   29.4860   32.5820   18.2510 N   0  0  0  0  0  0  0  0  0  0  0  0
   31.2030   32.9260   16.5350 C   0  0  0  0  0  0  0  0  0  0  0  0
   31.8670   34.2790   16.3560 C   0  0  0  0  0  0  0  0  0  0  0  0
   32.2360   34.5610   15.0060 N   0  0  0  0  0  0  0  0  0  0  0  0
   33.5910   34.9610   14.8210 C   0  0  0  0  0  0  0  0  0  0  0  0
   33.9530   35.8750   16.0000 C   0  0  0  0  0  0  0  0  0  0  0  0
   31.2490   35.2890   14.2820 C   0  0  0  0  0  0  0  0  0  0  0  0
   31.3390   35.1350   12.7960 C   0  0  0  0  0  0  0  0  0  0  0  0
   29.8670   25.5550   16.9770 C   0  0  0  0  0  0  0  0  0  0  0  0
   28.3450   25.7220   17.0260 C   0  0  0  0  0  0  0  0  0  0  0  0
   27.5990   24.4200   16.7790 C   0  0  0  0  0  0  0  0  0  0  0  0
   26.6490   24.0900   17.8960 C   0  0  0  0  0  0  0  0  0  0  0  0
   25.3230   23.6120   17.3120 C   0  0  0  0  0  0  0  0  0  0  0  0
   25.0970   22.1850   17.6400 N   0  0  0  0  0  0  0  0  0  0  0  0
  1  4  1  0  0  0  0
  2  1  1  0  0  0  0
  2 31  1  0  0  0  0
  3  2  2  0  0  0  0
  5  1  1  0  0  0  0
  6  5  1  6  0  0  0
  6  7  1  0  0  0  0
  7 27  1  6  0  0  0
  8  7  1  1  0  0  0
  8 13  1  0  0  0  0
  9 14  1  6  0  0  0
  9 16  1  0  0  0  0
  9 10  1  0  0  0  0
 10 12  1  0  0  0  0
 11  8  1  0  0  0  0
 11  9  1  0  0  0  0
 12 20  1  1  0  0  0
 13 22  1  6  0  0  0
 13 12  1  0  0  0  0
 14 15  1  0  0  0  0
 16 17  2  0  0  0  0
 18 16  1  0  0  0  0
 19 18  1  0  0  0  0
 20 21  1  0  0  0  0
 22 23  1  0  0  0  0
 23 26  2  0  0  0  0
 23 25  1  0  0  0  0
 24 22  1  0  0  0  0
 27 28  1  0  0  0  0
 29 30  1  0  0  0  0
 29  6  1  0  0  0  0
 31 32  1  0  0  0  0
 32 33  1  0  0  0  0
 33 35  1  0  0  0  0
 34 36  1  0  0  0  0
 34 33  2  0  0  0  0
 36 37  1  0  0  0  0
 37 35  2  0  0  0  0
 38 36  1  0  0  0  0
 39 38  1  0  0  0  0
 40 39  1  0  0  0  0
 41 40  1  0  0  0  0
 41 42  1  0  0  0  0
 43 40  1  0  0  0  0
 44 43  1  0  0  0  0
 45 46  1  0  0  0  0
 47 46  1  0  0  0  0
 47 48  1  0  0  0  0
 49 50  1  0  0  0  0
 49 48  1  0  0  0  0
M  END
>  <REMARK>
 VINA RESULT:    -3.522      2.107      4.345
 INTER + INTRA:         -14.077
 INTER:                  -7.894
 INTRA:                  -6.182
 UNBOUND:                -7.158
 SMILES CCN(CC)CCn1cc(COC(=O)NC[C@@H](O)C(O)[C@@H]2O[C@@](O)(C(=O)O)C[C@H](O)[C@H]2NC(C)=O)nn1
 SMILES IDX 15 1 13 2 14 3 16 5 17 6 19 7 21 8 23 9 28 10 22 11 29 12
 SMILES IDX 31 13 24 14 25 16 26 17 27 18 30 20 32 22 33 23 34 25 35 26
 SMILES IDX 20 27 18 29 12 31 11 32 10 33 9 34 36 35 8 36 37 37 7 38
 SMILES IDX 6 39 3 40 2 41 1 42 4 43 5 44
 H PARENT 15 4 24 15 27 19 30 21 32 24 20 28 18 30
 Flexibility Score: inf
  4 active torsions:
  status: ('A' for Active; 'I' for Inactive)
    1  A    between atoms: CA   and  CB  
    2  A    between atoms: CB   and  CG  
    3  A    between atoms: CG   and  CD  
    4  A    between atoms: CD   and  CE  

>  <TORSDO>
F 19

>  <BEGIN_>
RES LYS A 131

$$$$
ligand_17_pose_13_2HRL.pdbqt
 OpenBabel07062320523D

  6  5  0  0  0  0  0  0  0  0999 V2000
   33.1930   34.6630    9.2900 C   0  0  0  0  0  0  0  0  0  0  0  0
   32.0600   35.3600   10.0340 C   0  0  0  0  0  0  0  0  0  0  0  0
   30.8040   35.5110    9.2150 C   0  0  0  0  0  0  0  0  0  0  0  0
   30.1150   34.1670    9.0370 C   0  0  0  0  0  0  0  0  0  0  0  0
   28.6560   34.3610    8.6720 C   0  0  0  0  0  0  0  0  0  0  0  0
   27.7660   33.6060    9.5980 N   0  0  0  0  0  0  0  0  0  0  0  0
  1  2  1  0  0  0  0
  3  2  1  0  0  0  0
  4  3  1  0  0  0  0
  5  4  1  0  0  0  0
  5  6  1  0  0  0  0
M  END
>  <EGIN_R>
ES LYS A 135

>  <REMARK>
  4 active torsions:
  status: ('A' for Active; 'I' for Inactive)
    5  A    between atoms: CA   and  CB  
    6  A    between atoms: CB   and  CG  
    7  A    between atoms: CG   and  CD  
    8  A    between atoms: CD   and  CE  

$$$$
