ligand_21_pose_11_2HRL.pdbqt
 OpenBabel07062320523D

 54 55  0  0  1  0  0  0  0  0999 V2000
   24.4900   39.8330    7.6440 N   0  0  0  0  0  0  0  0  0  0  0  0
   24.7750   40.7090    6.5540 C   0  0  0  0  0  0  0  0  0  0  0  0
   23.9430   41.5990    6.2790 O   0  0  0  0  0  0  0  0  0  0  0  0
   25.1880   39.0950    7.8620 H   0  0  0  0  0  0  0  0  0  0  0  0
   23.2760   39.9690    8.4040 C   0  0  0  0  0  0  0  0  0  0  0  0
   22.3890   38.7550    8.1070 C   0  0  2  0  0  0  0  0  0  0  0  0
   22.1420   38.0070    9.3880 C   0  0  2  0  0  0  0  0  0  0  0  0
   21.0360   37.0100    9.1710 C   0  0  2  0  0  0  0  0  0  0  0  0
   19.1440   36.6560    7.8650 C   0  0  2  0  0  0  0  0  0  0  0  0
   18.2260   36.8530    9.0480 C   0  0  0  0  0  0  0  0  0  0  0  0
   20.2780   37.4100    8.1150 O   0  0  0  0  0  0  0  0  0  0  0  0
   18.8900   36.2940   10.2590 C   0  0  1  0  0  0  0  0  0  0  0  0
   20.3080   36.7600   10.4430 C   0  0  1  0  0  0  0  0  0  0  0  0
   18.4940   37.2790    6.7770 O   0  0  0  0  0  0  0  0  0  0  0  0
   18.8090   38.2020    6.6470 H   0  0  0  0  0  0  0  0  0  0  0  0
   19.4180   35.2390    7.5540 C   0  0  0  0  0  0  0  0  0  0  0  0
   20.5490   34.7040    7.6490 O   0  0  0  0  0  0  0  0  0  0  0  0
   18.3790   34.4310    7.1310 O   0  0  0  0  0  0  0  0  0  0  0  0
   18.1880   34.2190    6.1490 H   0  0  0  0  0  0  0  0  0  0  0  0
   18.1060   36.6720   11.3710 O   0  0  0  0  0  0  0  0  0  0  0  0
   17.1720   36.3370   11.2220 H   0  0  0  0  0  0  0  0  0  0  0  0
   21.0220   35.7440   11.1930 N   0  0  0  0  0  0  0  0  0  0  0  0
   21.6650   36.0300   12.4350 C   0  0  0  0  0  0  0  0  0  0  0  0
   21.0820   34.7660   10.8380 H   0  0  0  0  0  0  0  0  0  0  0  0
   22.3790   34.9550   13.1580 C   0  0  0  0  0  0  0  0  0  0  0  0
   21.6200   37.1880   12.9020 O   0  0  0  0  0  0  0  0  0  0  0  0
   21.8140   38.8710   10.4390 O   0  0  0  0  0  0  0  0  0  0  0  0
   21.8940   38.3770   11.2880 H   0  0  0  0  0  0  0  0  0  0  0  0
   23.0240   38.0150    7.1350 O   0  0  0  0  0  0  0  0  0  0  0  0
   23.9630   38.2600    6.9940 H   0  0  0  0  0  0  0  0  0  0  0  0
   25.9490   40.5580    5.8350 O   0  0  0  0  0  0  0  0  0  0  0  0
   27.2110   40.8220    6.4030 C   0  0  0  0  0  0  0  0  0  0  0  0
   27.9340   39.5510    6.5650 C   0  0  0  0  0  0  0  0  0  0  0  0
   27.5720   38.3130    6.0270 C   0  0  0  0  0  0  0  0  0  0  0  0
   29.0780   39.3070    7.2540 N   0  0  0  0  0  0  0  0  0  0  0  0
   28.4840   37.4280    6.4090 N   0  0  0  0  0  0  0  0  0  0  0  0
   29.3950   38.0320    7.1520 N   0  0  0  0  0  0  0  0  0  0  0  0
   28.4970   36.0200    6.0690 C   0  0  0  0  0  0  0  0  0  0  0  0
   28.7040   35.2810    7.3600 C   0  0  0  0  0  0  0  0  0  0  0  0
   27.6130   35.0200    8.1460 C   0  0  0  0  0  0  0  0  0  0  0  0
   29.9670   34.8880    7.7230 C   0  0  0  0  0  0  0  0  0  0  0  0
   27.7520   34.3500    9.3340 C   0  0  0  0  0  0  0  0  0  0  0  0
   30.1240   34.2030    8.9330 C   0  0  0  0  0  0  0  0  0  0  0  0
   29.0200   33.9530    9.7020 C   0  0  0  0  0  0  0  0  0  0  0  0
   26.3520   35.4340    7.7430 O   0  0  0  0  0  0  0  0  0  0  0  0
   25.5900   36.1580    8.6590 C   0  0  0  0  0  0  0  0  0  0  0  0
   25.7910   37.3870    8.7940 O   0  0  0  0  0  0  0  0  0  0  0  0
   24.5450   35.4910    9.4730 C   0  0  0  0  0  0  0  0  0  0  0  0
   29.8670   25.5550   16.9770 C   0  0  0  0  0  0  0  0  0  0  0  0
   28.3450   25.7220   17.0260 C   0  0  0  0  0  0  0  0  0  0  0  0
   27.6010   24.4030   16.8820 C   0  0  0  0  0  0  0  0  0  0  0  0
   26.1580   24.5200   17.2890 C   0  0  0  0  0  0  0  0  0  0  0  0
   25.8800   23.5750   18.4540 C   0  0  0  0  0  0  0  0  0  0  0  0
   25.4900   24.3410   19.6610 N   0  0  0  0  0  0  0  0  0  0  0  0
  1  4  1  0  0  0  0
  1  5  1  0  0  0  0
  2  1  1  0  0  0  0
  3  2  2  0  0  0  0
  6  5  1  1  0  0  0
  6  7  1  0  0  0  0
  7 27  1  1  0  0  0
  8  7  1  1  0  0  0
  8 13  1  0  0  0  0
  9 14  1  6  0  0  0
  9 11  1  0  0  0  0
  9 10  1  0  0  0  0
 10 12  1  0  0  0  0
 11  8  1  0  0  0  0
 12 13  1  0  0  0  0
 12 20  1  1  0  0  0
 13 22  1  6  0  0  0
 15 14  1  0  0  0  0
 16 17  2  0  0  0  0
 16  9  1  0  0  0  0
 18 16  1  0  0  0  0
 19 18  1  0  0  0  0
 21 20  1  0  0  0  0
 22 23  1  0  0  0  0
 23 26  2  0  0  0  0
 23 25  1  0  0  0  0
 24 22  1  0  0  0  0
 27 28  1  0  0  0  0
 29  6  1  0  0  0  0
 30 29  1  0  0  0  0
 31 32  1  0  0  0  0
 31  2  1  0  0  0  0
 32 33  1  0  0  0  0
 33 35  1  0  0  0  0
 34 36  1  0  0  0  0
 34 33  2  0  0  0  0
 36 37  1  0  0  0  0
 37 35  2  0  0  0  0
 38 36  1  0  0  0  0
 38 39  1  0  0  0  0
 39 41  2  0  0  0  0
 39 40  1  0  0  0  0
 40 42  2  0  0  0  0
 41 43  1  0  0  0  0
 42 44  1  0  0  0  0
 43 44  2  0  0  0  0
 45 40  1  0  0  0  0
 45 46  1  0  0  0  0
 46 47  2  0  0  0  0
 46 48  1  0  0  0  0
 49 50  1  0  0  0  0
 51 50  1  0  0  0  0
 51 52  1  0  0  0  0
 52 53  1  0  0  0  0
 53 54  1  0  0  0  0
M  END
>  <REMARK>
 VINA RESULT:    -4.649      1.883      2.514
 INTER + INTRA:         -15.137
 INTER:                 -10.671
 INTRA:                  -4.466
 UNBOUND:                -6.275
 SMILES CC(=O)N[C@@H]1[C@@H](O)C[C@](O)(C(=O)O)O[C@H]1C(O)[C@H](O)CNC(=O)OCc1cn(Cc2ccccc2OC(C)=O)nn1
 SMILES IDX 21 1 22 2 23 3 20 5 18 6 16 7 15 8 9 9 8 10 14 11 6 12 5 13
 SMILES IDX 10 14 11 16 12 17 13 18 7 20 4 22 2 23 1 25 3 26 17 27 19 29
 SMILES IDX 24 31 25 32 26 33 27 34 41 35 28 36 40 37 29 38 30 39 35 40
 SMILES IDX 31 41 34 42 32 43 33 44 36 45 37 46 39 47 38 48
 H PARENT 21 4 10 15 13 19 7 21 4 24 17 28 19 30
 Flexibility Score: inf
  4 active torsions:
  status: ('A' for Active; 'I' for Inactive)
    1  A    between atoms: CA   and  CB  
    2  A    between atoms: CB   and  CG  
    3  A    between atoms: CG   and  CD  
    4  A    between atoms: CD   and  CE  

>  <TORSDO>
F 18

>  <BEGIN_>
RES LYS A 131

$$$$
ligand_21_pose_11_2HRL.pdbqt
 OpenBabel07062320523D

  6  5  0  0  0  0  0  0  0  0999 V2000
   33.1930   34.6630    9.2900 C   0  0  0  0  0  0  0  0  0  0  0  0
   32.0600   35.3600   10.0340 C   0  0  0  0  0  0  0  0  0  0  0  0
   32.5340   36.4090   11.0060 C   0  0  0  0  0  0  0  0  0  0  0  0
   32.1930   36.0110   12.4340 C   0  0  0  0  0  0  0  0  0  0  0  0
   31.0660   34.9960   12.4490 C   0  0  0  0  0  0  0  0  0  0  0  0
   30.3830   34.9730   13.7720 N   0  0  0  0  0  0  0  0  0  0  0  0
  1  2  1  0  0  0  0
  2  3  1  0  0  0  0
  3  4  1  0  0  0  0
  4  5  1  0  0  0  0
  5  6  1  0  0  0  0
M  END
>  <EGIN_R>
ES LYS A 135

>  <REMARK>
  4 active torsions:
  status: ('A' for Active; 'I' for Inactive)
    5  A    between atoms: CA   and  CB  
    6  A    between atoms: CB   and  CG  
    7  A    between atoms: CG   and  CD  
    8  A    between atoms: CD   and  CE  

$$$$
