ligand_67_pose_3_2HRL.pdbqt
 OpenBabel07062320523D

 50 51  0  0  1  0  0  0  0  0999 V2000
   28.0430   32.0170   19.3760 N   0  0  0  0  0  0  0  0  0  0  0  0
   26.6300   31.9310   19.3700 C   0  0  0  0  0  0  0  0  0  0  0  0
   26.0130   31.7590   20.4760 O   0  0  0  0  0  0  0  0  0  0  0  0
   28.5520   32.1570   18.4880 H   0  0  0  0  0  0  0  0  0  0  0  0
   28.7510   31.9110   20.6090 C   0  0  0  0  0  0  0  0  0  0  0  0
   30.2470   31.9010   20.4490 C   0  0  2  0  0  0  0  0  0  0  0  0
   30.7810   30.5740   20.0010 C   0  0  1  0  0  0  0  0  0  0  0  0
   30.7650   29.5830   21.1440 C   0  0  2  0  0  0  0  0  0  0  0  0
   32.2400   28.3770   22.4790 C   0  0  2  0  0  0  0  0  0  0  0  0
   31.3140   27.2000   22.3720 C   0  0  0  0  0  0  0  0  0  0  0  0
   32.0600   29.3380   21.5200 O   0  0  0  0  0  0  0  0  0  0  0  0
   30.8620   27.1040   20.9300 C   0  0  1  0  0  0  0  0  0  0  0  0
   30.0290   28.3470   20.6490 C   0  0  1  0  0  0  0  0  0  0  0  0
   33.5550   27.8840   22.3150 O   0  0  0  0  0  0  0  0  0  0  0  0
   33.9800   27.6880   23.1720 H   0  0  0  0  0  0  0  0  0  0  0  0
   32.2060   28.9340   23.8690 C   0  0  0  0  0  0  0  0  0  0  0  0
   31.2400   28.8000   24.6520 O   0  0  0  0  0  0  0  0  0  0  0  0
   33.3240   29.6380   24.2940 O   0  0  0  0  0  0  0  0  0  0  0  0
   33.9930   30.0730   23.6670 H   0  0  0  0  0  0  0  0  0  0  0  0
   31.9990   27.1390   20.1090 O   0  0  0  0  0  0  0  0  0  0  0  0
   32.0360   26.3700   19.4940 H   0  0  0  0  0  0  0  0  0  0  0  0
   28.7440   28.1910   21.3140 N   0  0  0  0  0  0  0  0  0  0  0  0
   27.5540   28.4120   20.5770 C   0  0  0  0  0  0  0  0  0  0  0  0
   28.6910   27.9160   22.3360 H   0  0  0  0  0  0  0  0  0  0  0  0
   26.1970   28.2790   21.1650 C   0  0  0  0  0  0  0  0  0  0  0  0
   27.6640   28.7360   19.3590 O   0  0  0  0  0  0  0  0  0  0  0  0
   30.0990   30.1070   18.8790 O   0  0  0  0  0  0  0  0  0  0  0  0
   29.2310   30.5410   18.7340 H   0  0  0  0  0  0  0  0  0  0  0  0
   30.8310   32.2560   21.6560 O   0  0  0  0  0  0  0  0  0  0  0  0
   30.3510   31.9310   22.4400 H   0  0  0  0  0  0  0  0  0  0  0  0
   25.8540   32.0200   18.2500 O   0  0  0  0  0  0  0  0  0  0  0  0
   25.9800   31.2310   17.0830 C   0  0  0  0  0  0  0  0  0  0  0  0
   27.3440   31.2900   16.5060 C   0  0  0  0  0  0  0  0  0  0  0  0
   27.9050   32.3500   15.8320 C   0  0  0  0  0  0  0  0  0  0  0  0
   28.2810   30.3290   16.5280 N   0  0  0  0  0  0  0  0  0  0  0  0
   29.1580   32.0040   15.4670 N   0  0  0  0  0  0  0  0  0  0  0  0
   29.3590   30.7740   15.9020 N   0  0  0  0  0  0  0  0  0  0  0  0
   30.1440   32.7930   14.7400 C   0  0  0  0  0  0  0  0  0  0  0  0
   31.5070   32.6660   15.3860 C   0  0  0  0  0  0  0  0  0  0  0  0
   31.7780   33.8050   16.3100 C   0  0  0  0  0  0  0  0  0  0  0  0
   31.4860   33.5390   17.6410 O   0  0  0  0  0  0  0  0  0  0  0  0
   31.1110   34.9760   15.9820 O   0  0  0  0  0  0  0  0  0  0  0  0
   31.2930   34.7750   18.2540 C   0  0  0  0  0  0  0  0  0  0  0  0
   30.9580   35.7130   17.1320 C   0  0  0  0  0  0  0  0  0  0  0  0
   29.8670   25.5550   16.9770 C   0  0  0  0  0  0  0  0  0  0  0  0
   28.3450   25.7220   17.0260 C   0  0  0  0  0  0  0  0  0  0  0  0
   27.6010   24.4050   16.8660 C   0  0  0  0  0  0  0  0  0  0  0  0
   26.6660   24.1400   18.0140 C   0  0  0  0  0  0  0  0  0  0  0  0
   26.2830   25.4600   18.6740 C   0  0  0  0  0  0  0  0  0  0  0  0
   24.9160   25.8650   18.2690 N   0  0  0  0  0  0  0  0  0  0  0  0
  1  5  1  0  0  0  0
  2  1  1  0  0  0  0
  2  3  2  0  0  0  0
  4  1  1  0  0  0  0
  6  5  1  1  0  0  0
  6 29  1  0  0  0  0
  7 27  1  6  0  0  0
  7  6  1  0  0  0  0
  8  7  1  6  0  0  0
  8 11  1  0  0  0  0
  9 14  1  6  0  0  0
  9 16  1  0  0  0  0
 10  9  1  0  0  0  0
 11  9  1  0  0  0  0
 12 20  1  6  0  0  0
 12 10  1  0  0  0  0
 13 12  1  0  0  0  0
 13  8  1  0  0  0  0
 13 22  1  1  0  0  0
 14 15  1  0  0  0  0
 16 18  1  0  0  0  0
 16 17  2  0  0  0  0
 19 18  1  0  0  0  0
 21 20  1  0  0  0  0
 22 24  1  0  0  0  0
 23 25  1  0  0  0  0
 23 22  1  0  0  0  0
 26 23  2  0  0  0  0
 28 27  1  0  0  0  0
 29 30  1  0  0  0  0
 31  2  1  0  0  0  0
 32 31  1  0  0  0  0
 33 35  1  0  0  0  0
 33 32  1  0  0  0  0
 34 33  2  0  0  0  0
 36 34  1  0  0  0  0
 36 37  1  0  0  0  0
 37 35  2  0  0  0  0
 38 39  1  0  0  0  0
 38 36  1  0  0  0  0
 39 40  1  0  0  0  0
 40 41  1  0  0  0  0
 41 43  1  0  0  0  0
 42 40  1  0  0  0  0
 42 44  1  0  0  0  0
 44 43  1  0  0  0  0
 45 46  1  0  0  0  0
 47 46  1  0  0  0  0
 47 48  1  0  0  0  0
 48 49  1  0  0  0  0
 50 49  1  0  0  0  0
M  END
>  <REMARK>
 VINA RESULT:    -4.508      3.324      7.193
 INTER + INTRA:         -14.622
 INTER:                  -7.888
 INTRA:                  -6.733
 UNBOUND:                -6.292
 SMILES CC(=O)N[C@@H]1[C@@H](O)C[C@](O)(C(=O)O)O[C@H]1C(O)[C@H](O)CNC(=O)OCc1cn(CCC2OCCO2)nn1
 SMILES IDX 21 1 22 2 23 3 20 5 18 6 16 7 15 8 9 9 8 10 14 11 6 12 5 13
 SMILES IDX 10 14 11 16 12 17 13 18 7 20 4 22 2 23 1 25 3 26 17 27 19 29
 SMILES IDX 24 31 25 32 26 33 27 34 37 35 28 36 36 37 29 38 30 39 31 40
 SMILES IDX 32 41 35 42 33 43 34 44
 H PARENT 21 4 10 15 13 19 7 21 4 24 17 28 19 30
 Flexibility Score: inf
  4 active torsions:
  status: ('A' for Active; 'I' for Inactive)
    1  A    between atoms: CA   and  CB  
    2  A    between atoms: CB   and  CG  
    3  A    between atoms: CG   and  CD  
    4  A    between atoms: CD   and  CE  

>  <TORSDO>
F 17

>  <BEGIN_>
RES LYS A 131

$$$$
ligand_67_pose_3_2HRL.pdbqt
 OpenBabel07062320523D

  6  5  0  0  0  0  0  0  0  0999 V2000
   33.1930   34.6630    9.2900 C   0  0  0  0  0  0  0  0  0  0  0  0
   32.0600   35.3600   10.0340 C   0  0  0  0  0  0  0  0  0  0  0  0
   30.6920   34.8440    9.6690 C   0  0  0  0  0  0  0  0  0  0  0  0
   30.6170   34.5260    8.1830 C   0  0  0  0  0  0  0  0  0  0  0  0
   29.2740   34.9430    7.6160 C   0  0  0  0  0  0  0  0  0  0  0  0
   28.1630   34.5540    8.5290 N   0  0  0  0  0  0  0  0  0  0  0  0
  1  2  1  0  0  0  0
  3  2  1  0  0  0  0
  4  3  1  0  0  0  0
  5  4  1  0  0  0  0
  5  6  1  0  0  0  0
M  END
>  <EGIN_R>
ES LYS A 135

>  <REMARK>
  4 active torsions:
  status: ('A' for Active; 'I' for Inactive)
    5  A    between atoms: CA   and  CB  
    6  A    between atoms: CB   and  CG  
    7  A    between atoms: CG   and  CD  
    8  A    between atoms: CD   and  CE  

$$$$
