ligand_88_pose_10_2HRL.pdbqt
 OpenBabel07062320523D

 54 55  0  0  1  0  0  0  0  0999 V2000
   27.8030   32.2460   18.2110 N   0  0  0  0  0  0  0  0  0  0  0  0
   27.2630   31.1290   18.9090 C   0  0  0  0  0  0  0  0  0  0  0  0
   28.0120   30.4600   19.6570 O   0  0  0  0  0  0  0  0  0  0  0  0
   27.1630   32.7810   17.5990 H   0  0  0  0  0  0  0  0  0  0  0  0
   29.1830   32.6310   18.3370 C   0  0  0  0  0  0  0  0  0  0  0  0
   30.0000   32.0960   17.1950 C   0  0  2  0  0  0  0  0  0  0  0  0
   29.3840   32.4190   15.8510 C   0  0  1  0  0  0  0  0  0  0  0  0
   29.0820   33.9280   15.7790 C   0  0  2  0  0  0  0  0  0  0  0  0
   27.1520   34.8670   14.8150 C   0  0  2  0  0  0  0  0  0  0  0  0
   28.0510   36.0600   14.4580 C   0  0  0  0  0  0  0  0  0  0  0  0
   27.7520   34.0630   15.7240 O   0  0  0  0  0  0  0  0  0  0  0  0
   29.2280   35.4110   13.7450 C   0  0  1  0  0  0  0  0  0  0  0  0
   29.9330   34.5680   14.7670 C   0  0  1  0  0  0  0  0  0  0  0  0
   26.8430   34.2620   13.6130 O   0  0  0  0  0  0  0  0  0  0  0  0
   27.5360   34.3760   12.9180 H   0  0  0  0  0  0  0  0  0  0  0  0
   25.8950   35.3770   15.4180 C   0  0  0  0  0  0  0  0  0  0  0  0
   25.9240   36.4680   16.0410 O   0  0  0  0  0  0  0  0  0  0  0  0
   24.6890   34.6910   15.3180 O   0  0  0  0  0  0  0  0  0  0  0  0
   24.0660   35.0050   14.5600 H   0  0  0  0  0  0  0  0  0  0  0  0
   28.7930   34.6660   12.6510 O   0  0  0  0  0  0  0  0  0  0  0  0
   29.2350   33.7920   12.6940 H   0  0  0  0  0  0  0  0  0  0  0  0
   30.9880   35.4000   15.3450 N   0  0  0  0  0  0  0  0  0  0  0  0
   32.3240   34.9590   15.5070 C   0  0  0  0  0  0  0  0  0  0  0  0
   30.7850   36.3860   15.6700 H   0  0  0  0  0  0  0  0  0  0  0  0
   33.3710   35.8440   16.1030 C   0  0  0  0  0  0  0  0  0  0  0  0
   32.6420   33.7970   15.1430 O   0  0  0  0  0  0  0  0  0  0  0  0
   30.1190   31.9810   14.7780 O   0  0  0  0  0  0  0  0  0  0  0  0
   31.0840   32.0760   14.9150 H   0  0  0  0  0  0  0  0  0  0  0  0
   30.2680   30.7590   17.3850 O   0  0  0  0  0  0  0  0  0  0  0  0
   31.0160   30.4170   16.8600 H   0  0  0  0  0  0  0  0  0  0  0  0
   25.9410   30.7850   18.7680 O   0  0  0  0  0  0  0  0  0  0  0  0
   25.5200   29.7740   17.8700 C   0  0  0  0  0  0  0  0  0  0  0  0
   25.3110   30.3840   16.5300 C   0  0  0  0  0  0  0  0  0  0  0  0
   24.8650   29.7420   15.3820 C   0  0  0  0  0  0  0  0  0  0  0  0
   25.4980   31.6580   16.1380 N   0  0  0  0  0  0  0  0  0  0  0  0
   24.8040   30.6260   14.3750 N   0  0  0  0  0  0  0  0  0  0  0  0
   25.2020   31.8100   14.8670 N   0  0  0  0  0  0  0  0  0  0  0  0
   24.3950   30.3920   13.0180 C   0  0  0  0  0  0  0  0  0  0  0  0
   22.9540   30.6700   12.7880 C   0  0  0  0  0  0  0  0  0  0  0  0
   22.1160   29.6030   12.5340 C   0  0  0  0  0  0  0  0  0  0  0  0
   22.4160   31.9350   12.8160 C   0  0  0  0  0  0  0  0  0  0  0  0
   20.7650   29.7470   12.3050 C   0  0  0  0  0  0  0  0  0  0  0  0
   21.0480   32.1090   12.5870 C   0  0  0  0  0  0  0  0  0  0  0  0
   19.6350   28.2580   11.9590 Br  0  0  0  0  0  0  0  0  0  0  0  0
   20.2360   31.0300   12.3350 C   0  0  0  0  0  0  0  0  0  0  0  0
   20.3800   33.9080   12.6430 Br  0  0  0  0  0  0  0  0  0  0  0  0
   23.2280   33.0250   13.0680 O   0  0  0  0  0  0  0  0  0  0  0  0
   22.8340   33.9550   13.0210 H   0  0  0  0  0  0  0  0  0  0  0  0
   29.8670   25.5550   16.9770 C   0  0  0  0  0  0  0  0  0  0  0  0
   28.3450   25.7220   17.0260 C   0  0  0  0  0  0  0  0  0  0  0  0
   27.6020   24.4000   16.9160 C   0  0  0  0  0  0  0  0  0  0  0  0
   26.5340   24.2610   17.9660 C   0  0  0  0  0  0  0  0  0  0  0  0
   25.2790   23.6620   17.3400 C   0  0  0  0  0  0  0  0  0  0  0  0
   24.3410   24.7330   16.9310 N   0  0  0  0  0  0  0  0  0  0  0  0
  1  5  1  0  0  0  0
  1  2  1  0  0  0  0
  2  3  2  0  0  0  0
  4  1  1  0  0  0  0
  6 29  1  0  0  0  0
  6  5  1  1  0  0  0
  7 27  1  6  0  0  0
  7  6  1  0  0  0  0
  8  7  1  6  0  0  0
  9 14  1  6  0  0  0
  9 16  1  0  0  0  0
  9 11  1  0  0  0  0
 10  9  1  0  0  0  0
 11  8  1  0  0  0  0
 12 20  1  6  0  0  0
 12 10  1  0  0  0  0
 12 13  1  0  0  0  0
 13 22  1  1  0  0  0
 13  8  1  0  0  0  0
 15 14  1  0  0  0  0
 16 17  2  0  0  0  0
 18 16  1  0  0  0  0
 19 18  1  0  0  0  0
 20 21  1  0  0  0  0
 22 23  1  0  0  0  0
 22 24  1  0  0  0  0
 23 25  1  0  0  0  0
 26 23  2  0  0  0  0
 27 28  1  0  0  0  0
 30 29  1  0  0  0  0
 31  2  1  0  0  0  0
 32 31  1  0  0  0  0
 33 32  1  0  0  0  0
 34 33  2  0  0  0  0
 35 33  1  0  0  0  0
 36 37  1  0  0  0  0
 36 34  1  0  0  0  0
 37 35  2  0  0  0  0
 38 36  1  0  0  0  0
 39 41  1  0  0  0  0
 39 38  1  0  0  0  0
 40 39  2  0  0  0  0
 41 47  1  0  0  0  0
 42 45  2  0  0  0  0
 42 40  1  0  0  0  0
 43 46  1  0  0  0  0
 43 41  2  0  0  0  0
 44 42  1  0  0  0  0
 45 43  1  0  0  0  0
 48 47  1  0  0  0  0
 49 50  1  0  0  0  0
 51 50  1  0  0  0  0
 51 52  1  0  0  0  0
 53 52  1  0  0  0  0
 54 53  1  0  0  0  0
M  END
>  <REMARK>
 VINA RESULT:    -5.103      4.195      8.472
 INTER + INTRA:         -15.074
 INTER:                  -8.303
 INTRA:                  -6.771
 UNBOUND:                -5.794
 SMILES CC(=O)N[C@@H]1[C@@H](O)C[C@](O)(C(=O)O)O[C@H]1C(O)[C@H](O)CNC(=O)OCc1cn(Cc2cc(Br)cc(Br)c2O)nn1
 SMILES IDX 21 1 22 2 23 3 20 5 18 6 16 7 15 8 9 9 8 10 14 11 6 12 5 13
 SMILES IDX 10 14 11 16 12 17 13 18 7 20 4 22 2 23 1 25 3 26 17 27 19 29
 SMILES IDX 24 31 25 32 26 33 27 34 40 35 28 36 39 37 29 38 30 39 31 40
 SMILES IDX 37 41 32 42 35 43 33 44 34 45 36 46 38 47
 H PARENT 21 4 10 15 13 19 7 21 4 24 17 28 19 30 38 48
 Flexibility Score: inf
  4 active torsions:
  status: ('A' for Active; 'I' for Inactive)
    1  A    between atoms: CA   and  CB  
    2  A    between atoms: CB   and  CG  
    3  A    between atoms: CG   and  CD  
    4  A    between atoms: CD   and  CE  

>  <TORSDO>
F 17

>  <BEGIN_>
RES LYS A 131

$$$$
ligand_88_pose_10_2HRL.pdbqt
 OpenBabel07062320523D

  6  5  0  0  0  0  0  0  0  0999 V2000
   33.1930   34.6630    9.2900 C   0  0  0  0  0  0  0  0  0  0  0  0
   32.0600   35.3600   10.0340 C   0  0  0  0  0  0  0  0  0  0  0  0
   30.8140   35.5360    9.2050 C   0  0  0  0  0  0  0  0  0  0  0  0
   30.1530   34.1930    8.9370 C   0  0  0  0  0  0  0  0  0  0  0  0
   28.6860   34.3790    8.5990 C   0  0  0  0  0  0  0  0  0  0  0  0
   27.8160   33.6730    9.5800 N   0  0  0  0  0  0  0  0  0  0  0  0
  1  2  1  0  0  0  0
  3  2  1  0  0  0  0
  4  3  1  0  0  0  0
  5  4  1  0  0  0  0
  5  6  1  0  0  0  0
M  END
>  <EGIN_R>
ES LYS A 135

>  <REMARK>
  4 active torsions:
  status: ('A' for Active; 'I' for Inactive)
    5  A    between atoms: CA   and  CB  
    6  A    between atoms: CB   and  CG  
    7  A    between atoms: CG   and  CD  
    8  A    between atoms: CD   and  CE  

$$$$
