ligand_63_pose_10_2HRL.pdbqt
 OpenBabel07062320523D

 51 52  0  0  1  0  0  0  0  0999 V2000
   25.2130   36.6010   11.0100 N   0  0  0  0  0  0  0  0  0  0  0  0
   26.1080   36.0110   10.0550 C   0  0  0  0  0  0  0  0  0  0  0  0
   25.7410   35.7370    8.9070 O   0  0  0  0  0  0  0  0  0  0  0  0
   25.6870   36.8000   11.9530 H   0  0  0  0  0  0  0  0  0  0  0  0
   23.8930   36.9370   10.7660 C   0  0  0  0  0  0  0  0  0  0  0  0
   22.7880   36.0270   11.3580 C   0  0  2  0  0  0  0  0  0  0  0  0
   22.0740   35.5100   10.1690 C   0  0  1  0  0  0  0  0  0  0  0  0
   20.7860   36.1240    9.7550 C   0  0  2  0  0  0  0  0  0  0  0  0
   19.3170   34.8650    8.4170 C   0  0  2  0  0  0  0  0  0  0  0  0
   18.5790   36.0720    7.8910 C   0  0  0  0  0  0  0  0  0  0  0  0
   19.8230   35.0780    9.7010 O   0  0  0  0  0  0  0  0  0  0  0  0
   19.2500   37.3660    8.3950 C   0  0  1  0  0  0  0  0  0  0  0  0
   20.7340   36.9520    8.5540 C   0  0  1  0  0  0  0  0  0  0  0  0
   20.2640   34.4370    7.4990 O   0  0  0  0  0  0  0  0  0  0  0  0
   21.1790   34.4610    7.8160 H   0  0  0  0  0  0  0  0  0  0  0  0
   18.2920   33.8180    8.6060 C   0  0  0  0  0  0  0  0  0  0  0  0
   17.5820   33.2680    7.8560 O   0  0  0  0  0  0  0  0  0  0  0  0
   18.1750   33.4140   10.0250 O   0  0  0  0  0  0  0  0  0  0  0  0
   17.2220   33.2500   10.3550 H   0  0  0  0  0  0  0  0  0  0  0  0
   19.1020   38.3860    7.4920 O   0  0  0  0  0  0  0  0  0  0  0  0
   19.3530   38.1130    6.5910 H   0  0  0  0  0  0  0  0  0  0  0  0
   21.5070   38.1990    8.6520 N   0  0  0  0  0  0  0  0  0  0  0  0
   22.6380   38.3510    7.8350 C   0  0  0  0  0  0  0  0  0  0  0  0
   21.2100   38.9210    9.2800 H   0  0  0  0  0  0  0  0  0  0  0  0
   23.5950   39.3700    7.6110 C   0  0  0  0  0  0  0  0  0  0  0  0
   22.7930   37.2200    7.0890 O   0  0  0  0  0  0  0  0  0  0  0  0
   22.9410   35.1400    9.1810 O   0  0  0  0  0  0  0  0  0  0  0  0
   22.8410   35.6870    8.3580 H   0  0  0  0  0  0  0  0  0  0  0  0
   22.1050   36.8190   12.2380 O   0  0  0  0  0  0  0  0  0  0  0  0
   21.3270   36.3230   12.5960 H   0  0  0  0  0  0  0  0  0  0  0  0
   27.4240   35.7500   10.4420 O   0  0  0  0  0  0  0  0  0  0  0  0
   28.2280   36.7680   11.0750 C   0  0  0  0  0  0  0  0  0  0  0  0
   28.5700   36.1420   12.4040 C   0  0  0  0  0  0  0  0  0  0  0  0
   28.9440   34.8490   12.6220 C   0  0  0  0  0  0  0  0  0  0  0  0
   28.6410   36.8030   13.5600 N   0  0  0  0  0  0  0  0  0  0  0  0
   29.2460   34.7730   13.9540 N   0  0  0  0  0  0  0  0  0  0  0  0
   29.0480   35.9860   14.4880 N   0  0  0  0  0  0  0  0  0  0  0  0
   29.7030   33.6590   14.6500 C   0  0  0  0  0  0  0  0  0  0  0  0
   28.8000   32.7070   15.1340 N   0  0  0  0  0  0  0  0  0  0  0  0
   31.0100   33.4180   15.0200 C   0  0  0  0  0  0  0  0  0  0  0  0
   29.2090   31.7410   15.8440 C   0  0  0  0  0  0  0  0  0  0  0  0
   31.4220   32.4060   15.7650 C   0  0  0  0  0  0  0  0  0  0  0  0
   30.5230   31.4230   16.2720 C   0  0  0  0  0  0  0  0  0  0  0  0
   32.0520   34.4350   14.6040 C   0  0  0  0  0  0  0  0  0  0  0  0
   32.7540   35.1140   14.3440 N   0  0  0  0  0  0  0  0  0  0  0  0
   29.8670   25.5550   16.9770 C   0  0  0  0  0  0  0  0  0  0  0  0
   28.3450   25.7220   17.0260 C   0  0  0  0  0  0  0  0  0  0  0  0
   27.6010   24.4010   16.9040 C   0  0  0  0  0  0  0  0  0  0  0  0
   26.1570   24.5240   17.3050 C   0  0  0  0  0  0  0  0  0  0  0  0
   25.9240   23.7680   18.6090 C   0  0  0  0  0  0  0  0  0  0  0  0
   25.5400   24.7050   19.6900 N   0  0  0  0  0  0  0  0  0  0  0  0
  1  4  1  0  0  0  0
  2 31  1  0  0  0  0
  2  1  1  0  0  0  0
  3  2  2  0  0  0  0
  5  1  1  0  0  0  0
  6  5  1  6  0  0  0
  6 29  1  0  0  0  0
  7 27  1  6  0  0  0
  7  6  1  0  0  0  0
  8  7  1  6  0  0  0
  9 14  1  6  0  0  0
  9 16  1  0  0  0  0
  9 11  1  0  0  0  0
 10 12  1  0  0  0  0
 10  9  1  0  0  0  0
 11  8  1  0  0  0  0
 12 20  1  6  0  0  0
 12 13  1  0  0  0  0
 13 22  1  1  0  0  0
 13  8  1  0  0  0  0
 14 15  1  0  0  0  0
 16 18  1  0  0  0  0
 17 16  2  0  0  0  0
 18 19  1  0  0  0  0
 21 20  1  0  0  0  0
 22 24  1  0  0  0  0
 23 22  1  0  0  0  0
 25 23  1  0  0  0  0
 26 23  2  0  0  0  0
 28 27  1  0  0  0  0
 29 30  1  0  0  0  0
 31 32  1  0  0  0  0
 32 33  1  0  0  0  0
 33 34  2  0  0  0  0
 33 35  1  0  0  0  0
 34 36  1  0  0  0  0
 35 37  2  0  0  0  0
 36 37  1  0  0  0  0
 36 38  1  0  0  0  0
 38 40  2  0  0  0  0
 38 39  1  0  0  0  0
 39 41  2  0  0  0  0
 40 42  1  0  0  0  0
 41 43  1  0  0  0  0
 42 43  2  0  0  0  0
 44 40  1  0  0  0  0
 45 44  3  0  0  0  0
 46 47  1  0  0  0  0
 48 47  1  0  0  0  0
 48 49  1  0  0  0  0
 49 50  1  0  0  0  0
 50 51  1  0  0  0  0
M  END
>  <REMARK>
 VINA RESULT:    -4.140      3.125      5.651
 INTER + INTRA:         -14.450
 INTER:                  -9.359
 INTRA:                  -5.091
 UNBOUND:                -7.042
 SMILES CC(=O)N[C@@H]1[C@@H](O)C[C@](O)(C(=O)O)O[C@H]1C(O)[C@H](O)CNC(=O)OCc1cn(-c2ncccc2C#N)nn1
 SMILES IDX 21 1 22 2 23 3 20 5 18 6 16 7 15 8 9 9 8 10 14 11 6 12 5 13
 SMILES IDX 10 14 11 16 12 17 13 18 7 20 4 22 2 23 1 25 3 26 17 27 19 29
 SMILES IDX 24 31 25 32 26 33 27 34 38 35 28 36 37 37 29 38 30 39 34 40
 SMILES IDX 31 41 33 42 32 43 35 44 36 45
 H PARENT 21 4 10 15 13 19 7 21 4 24 17 28 19 30
 Flexibility Score: inf
  4 active torsions:
  status: ('A' for Active; 'I' for Inactive)
    1  A    between atoms: CA   and  CB  
    2  A    between atoms: CB   and  CG  
    3  A    between atoms: CG   and  CD  
    4  A    between atoms: CD   and  CE  

>  <TORSDO>
F 16

>  <BEGIN_>
RES LYS A 131

$$$$
ligand_63_pose_10_2HRL.pdbqt
 OpenBabel07062320523D

  6  5  0  0  0  0  0  0  0  0999 V2000
   33.1930   34.6630    9.2900 C   0  0  0  0  0  0  0  0  0  0  0  0
   32.0600   35.3600   10.0340 C   0  0  0  0  0  0  0  0  0  0  0  0
   30.9130   35.7630    9.1440 C   0  0  0  0  0  0  0  0  0  0  0  0
   30.2780   34.5410    8.5000 C   0  0  0  0  0  0  0  0  0  0  0  0
   29.1790   34.9550    7.5400 C   0  0  0  0  0  0  0  0  0  0  0  0
   29.0400   36.4370    7.4900 N   0  0  0  0  0  0  0  0  0  0  0  0
  1  2  1  0  0  0  0
  3  2  1  0  0  0  0
  4  3  1  0  0  0  0
  5  4  1  0  0  0  0
  6  5  1  0  0  0  0
M  END
>  <EGIN_R>
ES LYS A 135

>  <REMARK>
  4 active torsions:
  status: ('A' for Active; 'I' for Inactive)
    5  A    between atoms: CA   and  CB  
    6  A    between atoms: CB   and  CG  
    7  A    between atoms: CG   and  CD  
    8  A    between atoms: CD   and  CE  

$$$$
