ligand_15_pose_14_2HRL.pdbqt
 OpenBabel07062320523D

 50 51  0  0  1  0  0  0  0  0999 V2000
   23.9790   38.1680    8.9850 C   0  0  0  0  0  0  0  0  0  0  0  0
   24.7110   38.5130    7.7230 C   0  0  2  0  0  0  0  0  0  0  0  0
   25.6010   39.7030    7.8030 C   0  0  2  0  0  0  0  0  0  0  0  0
   26.9820   39.4880    7.2180 C   0  0  2  0  0  0  0  0  0  0  0  0
   27.9000   39.3450    5.0640 C   0  0  2  0  0  0  0  0  0  0  0  0
   28.8590   38.3540    5.6620 C   0  0  0  0  0  0  0  0  0  0  0  0
   26.8080   39.5140    5.8400 O   0  0  0  0  0  0  0  0  0  0  0  0
   28.0600   37.3740    6.4890 C   0  0  1  0  0  0  0  0  0  0  0  0
   27.4910   38.1520    7.6830 C   0  0  1  0  0  0  0  0  0  0  0  0
   27.4410   38.8400    3.8160 O   0  0  0  0  0  0  0  0  0  0  0  0
   26.6040   38.3520    4.0340 H   0  0  0  0  0  0  0  0  0  0  0  0
   28.5530   40.6620    4.8220 C   0  0  0  0  0  0  0  0  0  0  0  0
   29.7040   40.9360    5.2040 O   0  0  0  0  0  0  0  0  0  0  0  0
   27.8500   41.6380    4.1380 O   0  0  0  0  0  0  0  0  0  0  0  0
   27.1220   41.4220    3.4550 H   0  0  0  0  0  0  0  0  0  0  0  0
   26.9630   36.9800    5.7250 O   0  0  0  0  0  0  0  0  0  0  0  0
   27.0910   37.1040    4.7660 H   0  0  0  0  0  0  0  0  0  0  0  0
   28.6030   38.3500    8.5700 N   0  0  0  0  0  0  0  0  0  0  0  0
   28.5210   38.2670    9.9810 C   0  0  0  0  0  0  0  0  0  0  0  0
   29.5550   38.5700    8.1770 H   0  0  0  0  0  0  0  0  0  0  0  0
   29.7070   38.4840   10.8620 C   0  0  0  0  0  0  0  0  0  0  0  0
   27.4210   38.0040   10.5080 O   0  0  0  0  0  0  0  0  0  0  0  0
   25.7120   40.0730    9.1660 O   0  0  0  0  0  0  0  0  0  0  0  0
   25.6240   39.2520    9.6960 H   0  0  0  0  0  0  0  0  0  0  0  0
   23.7410   38.7440    6.7240 O   0  0  0  0  0  0  0  0  0  0  0  0
   23.0640   38.0230    6.7180 H   0  0  0  0  0  0  0  0  0  0  0  0
   24.6420   37.2530    9.8540 N   0  0  0  0  0  0  0  0  0  0  0  0
   24.2680   35.8600    9.8570 C   0  0  0  0  0  0  0  0  0  0  0  0
   25.4010   37.4850   10.5260 H   0  0  0  0  0  0  0  0  0  0  0  0
   23.3520   35.5020    9.0780 O   0  0  0  0  0  0  0  0  0  0  0  0
   24.8960   34.9470   10.6900 O   0  0  0  0  0  0  0  0  0  0  0  0
   24.4020   34.8710   12.0210 C   0  0  0  0  0  0  0  0  0  0  0  0
   25.5790   34.6290   12.9040 C   0  0  0  0  0  0  0  0  0  0  0  0
   26.9030   34.8830   12.6010 C   0  0  0  0  0  0  0  0  0  0  0  0
   25.5920   34.1250   14.1530 N   0  0  0  0  0  0  0  0  0  0  0  0
   27.6650   34.5330   13.6510 N   0  0  0  0  0  0  0  0  0  0  0  0
   26.8350   34.0830   14.5640 N   0  0  0  0  0  0  0  0  0  0  0  0
   29.0780   34.6070   13.8140 C   0  0  0  0  0  0  0  0  0  0  0  0
   29.7230   34.0790   14.9160 C   0  0  0  0  0  0  0  0  0  0  0  0
   29.8690   35.2170   12.8620 C   0  0  0  0  0  0  0  0  0  0  0  0
   31.0960   34.1570   15.0600 C   0  0  0  0  0  0  0  0  0  0  0  0
   31.2490   35.2980   13.0020 C   0  0  0  0  0  0  0  0  0  0  0  0
   31.8840   34.7700   14.1010 C   0  0  0  0  0  0  0  0  0  0  0  0
   33.7720   34.8500   14.3500 Br  0  0  0  0  0  0  0  0  0  0  0  0
   29.8670   25.5550   16.9770 C   0  0  0  0  0  0  0  0  0  0  0  0
   28.3450   25.7220   17.0260 C   0  0  0  0  0  0  0  0  0  0  0  0
   27.6010   24.4060   16.8600 C   0  0  0  0  0  0  0  0  0  0  0  0
   26.1530   24.5210   17.2510 C   0  0  0  0  0  0  0  0  0  0  0  0
   25.9780   24.0570   18.6940 C   0  0  0  0  0  0  0  0  0  0  0  0
   25.5480   25.1860   19.5530 N   0  0  0  0  0  0  0  0  0  0  0  0
  1 27  1  0  0  0  0
  2  3  1  0  0  0  0
  2  1  1  1  0  0  0
  3 23  1  1  0  0  0
  4  9  1  0  0  0  0
  4  3  1  1  0  0  0
  5 10  1  6  0  0  0
  5  6  1  0  0  0  0
  5  7  1  0  0  0  0
  6  8  1  0  0  0  0
  7  4  1  0  0  0  0
  8 16  1  6  0  0  0
  8  9  1  0  0  0  0
  9 18  1  1  0  0  0
 10 11  1  0  0  0  0
 12  5  1  0  0  0  0
 12 13  2  0  0  0  0
 14 12  1  0  0  0  0
 15 14  1  0  0  0  0
 17 16  1  0  0  0  0
 18 19  1  0  0  0  0
 19 22  2  0  0  0  0
 19 21  1  0  0  0  0
 20 18  1  0  0  0  0
 23 24  1  0  0  0  0
 25  2  1  0  0  0  0
 26 25  1  0  0  0  0
 27 28  1  0  0  0  0
 27 29  1  0  0  0  0
 28 31  1  0  0  0  0
 30 28  2  0  0  0  0
 31 32  1  0  0  0  0
 32 33  1  0  0  0  0
 33 35  1  0  0  0  0
 34 33  2  0  0  0  0
 34 36  1  0  0  0  0
 35 37  2  0  0  0  0
 36 38  1  0  0  0  0
 36 37  1  0  0  0  0
 38 39  2  0  0  0  0
 39 41  1  0  0  0  0
 40 42  2  0  0  0  0
 40 38  1  0  0  0  0
 42 43  1  0  0  0  0
 43 44  1  0  0  0  0
 43 41  2  0  0  0  0
 45 46  1  0  0  0  0
 47 46  1  0  0  0  0
 47 48  1  0  0  0  0
 48 49  1  0  0  0  0
 49 50  1  0  0  0  0
M  END
>  <REMARK>
 VINA RESULT:    -5.122      8.603     13.646
 INTER + INTRA:         -14.026
 INTER:                  -8.390
 INTRA:                  -5.636
 UNBOUND:                -5.161
 SMILES CC(=O)N[C@@H]1[C@@H](O)C[C@](O)(C(=O)O)O[C@H]1C(O)[C@H](O)CNC(=O)OCc1cn(-c2ccc(Br)cc2)nn1
 SMILES IDX 20 1 18 2 16 3 15 4 9 5 8 6 14 7 6 8 5 9 10 10 11 12 12 13
 SMILES IDX 13 14 7 16 4 18 2 19 1 21 3 22 17 23 19 25 21 27 22 28 23 30
 SMILES IDX 24 31 25 32 26 33 27 34 37 35 28 36 36 37 29 38 30 39 35 40
 SMILES IDX 31 41 34 42 32 43 33 44
 H PARENT 10 11 13 15 7 17 4 20 17 24 19 26 21 29
 Flexibility Score: inf
  4 active torsions:
  status: ('A' for Active; 'I' for Inactive)
    1  A    between atoms: CA   and  CB  
    2  A    between atoms: CB   and  CG  
    3  A    between atoms: CG   and  CD  
    4  A    between atoms: CD   and  CE  

>  <TORSDO>
F 15

>  <BEGIN_>
RES LYS A 131

$$$$
ligand_15_pose_14_2HRL.pdbqt
 OpenBabel07062320523D

  6  5  0  0  0  0  0  0  0  0999 V2000
   33.1930   34.6630    9.2900 C   0  0  0  0  0  0  0  0  0  0  0  0
   32.0600   35.3600   10.0340 C   0  0  0  0  0  0  0  0  0  0  0  0
   30.7860   35.4600    9.2350 C   0  0  0  0  0  0  0  0  0  0  0  0
   30.2220   34.0770    8.9490 C   0  0  0  0  0  0  0  0  0  0  0  0
   28.8440   33.9260    9.5640 C   0  0  0  0  0  0  0  0  0  0  0  0
   27.8150   34.6390    8.7560 N   0  0  0  0  0  0  0  0  0  0  0  0
  1  2  1  0  0  0  0
  3  2  1  0  0  0  0
  4  3  1  0  0  0  0
  4  5  1  0  0  0  0
  6  5  1  0  0  0  0
M  END
>  <EGIN_R>
ES LYS A 135

>  <REMARK>
  4 active torsions:
  status: ('A' for Active; 'I' for Inactive)
    5  A    between atoms: CA   and  CB  
    6  A    between atoms: CB   and  CG  
    7  A    between atoms: CG   and  CD  
    8  A    between atoms: CD   and  CE  

$$$$
