ligand_89_pose_12_2HRL.pdbqt
 OpenBabel07062320523D

 60 63  0  0  1  0  0  0  0  0999 V2000
   26.0770   28.8420   20.2630 N   0  0  0  0  0  0  0  0  0  0  0  0
   26.6880   27.7800   20.9300 C   0  0  0  0  0  0  0  0  0  0  0  0
   26.8060   26.6480   20.4610 O   0  0  0  0  0  0  0  0  0  0  0  0
   26.0770   29.7980   20.7970 H   0  0  0  0  0  0  0  0  0  0  0  0
   25.4690   28.8030   18.9890 C   0  0  0  0  0  0  0  0  0  0  0  0
   26.0970   29.5940   17.9290 C   0  0  2  0  0  0  0  0  0  0  0  0
   27.5560   29.7040   17.7620 C   0  0  1  0  0  0  0  0  0  0  0  0
   27.9050   31.1910   18.0650 C   0  0  2  0  0  0  0  0  0  0  0  0
   29.6360   31.7030   16.5630 C   0  0  2  0  0  0  0  0  0  0  0  0
   30.5360   32.0410   17.7050 C   0  0  0  0  0  0  0  0  0  0  0  0
   28.3300   31.7630   16.9250 O   0  0  0  0  0  0  0  0  0  0  0  0
   30.2320   31.2930   18.9770 C   0  0  1  0  0  0  0  0  0  0  0  0
   28.7500   31.2960   19.2800 C   0  0  1  0  0  0  0  0  0  0  0  0
   29.9100   30.3890   16.1050 O   0  0  0  0  0  0  0  0  0  0  0  0
   29.2800   30.2450   15.3500 H   0  0  0  0  0  0  0  0  0  0  0  0
   29.9660   32.6730   15.4650 C   0  0  0  0  0  0  0  0  0  0  0  0
   29.2860   33.6980   15.3290 O   0  0  0  0  0  0  0  0  0  0  0  0
   31.0200   32.4200   14.6200 O   0  0  0  0  0  0  0  0  0  0  0  0
   31.4290   31.4830   14.5600 H   0  0  0  0  0  0  0  0  0  0  0  0
   30.7200   29.9850   18.9600 O   0  0  0  0  0  0  0  0  0  0  0  0
   31.3310   29.8750   18.1910 H   0  0  0  0  0  0  0  0  0  0  0  0
   28.4750   32.5280   20.0310 N   0  0  0  0  0  0  0  0  0  0  0  0
   27.3130   32.6980   20.8120 C   0  0  0  0  0  0  0  0  0  0  0  0
   29.1550   33.3390   20.0050 H   0  0  0  0  0  0  0  0  0  0  0  0
   27.0390   33.9460   21.5700 C   0  0  0  0  0  0  0  0  0  0  0  0
   26.4580   31.7650   20.8850 O   0  0  0  0  0  0  0  0  0  0  0  0
   28.3160   28.8980   18.6130 O   0  0  0  0  0  0  0  0  0  0  0  0
   28.2520   27.9330   18.3280 H   0  0  0  0  0  0  0  0  0  0  0  0
   25.5460   30.9250   18.0650 O   0  0  0  0  0  0  0  0  0  0  0  0
   24.6440   30.9600   17.7040 H   0  0  0  0  0  0  0  0  0  0  0  0
   27.2210   27.9540   22.2280 O   0  0  0  0  0  0  0  0  0  0  0  0
   27.9820   29.0780   22.5650 C   0  0  0  0  0  0  0  0  0  0  0  0
   29.3820   28.8890   22.1060 C   0  0  0  0  0  0  0  0  0  0  0  0
   30.5030   29.5990   22.5260 C   0  0  0  0  0  0  0  0  0  0  0  0
   29.8610   28.0090   21.2090 N   0  0  0  0  0  0  0  0  0  0  0  0
   31.6130   29.1390   21.8830 N   0  0  0  0  0  0  0  0  0  0  0  0
   31.1640   28.1860   21.1070 N   0  0  0  0  0  0  0  0  0  0  0  0
   32.9210   29.6600   22.0990 C   0  0  0  0  0  0  0  0  0  0  0  0
   33.3530   30.9030   21.7320 N   0  0  0  0  0  0  0  0  0  0  0  0
   33.9990   29.0630   22.6990 C   0  0  0  0  0  0  0  0  0  0  0  0
   34.6330   31.0380   22.0990 C   0  0  0  0  0  0  0  0  0  0  0  0
   35.0690   29.9170   22.7010 N   0  0  0  0  0  0  0  0  0  0  0  0
   34.1750   27.8370   23.2600 C   0  0  0  0  0  0  0  0  0  0  0  0
   36.2570   29.5750   23.2340 C   0  0  0  0  0  0  0  0  0  0  0  0
   35.3310   27.4580   23.7970 N   0  0  0  0  0  0  0  0  0  0  0  0
   33.2380   27.0000   23.2930 O   0  0  0  0  0  0  0  0  0  0  0  0
   37.3130   30.4620   23.2180 C   0  0  0  0  0  0  0  0  0  0  0  0
   36.3720   28.3170   23.7890 C   0  0  0  0  0  0  0  0  0  0  0  0
   38.5470   30.1380   23.7580 C   0  0  0  0  0  0  0  0  0  0  0  0
   37.6170   28.0160   24.3220 C   0  0  0  0  0  0  0  0  0  0  0  0
   38.6830   28.8950   24.3130 C   0  0  0  0  0  0  0  0  0  0  0  0
   35.5840   26.1730   24.4110 C   0  0  0  0  0  0  0  0  0  0  0  0
   35.6440   25.1510   23.2970 C   0  0  0  0  0  0  0  0  0  0  0  0
   34.5360   25.7280   25.3810 C   0  0  0  0  0  0  0  0  0  0  0  0
   29.8670   25.5550   16.9770 C   0  0  0  0  0  0  0  0  0  0  0  0
   28.3450   25.7220   17.0260 C   0  0  0  0  0  0  0  0  0  0  0  0
   27.6020   24.3990   16.9270 C   0  0  0  0  0  0  0  0  0  0  0  0
   26.1910   24.5020   17.4360 C   0  0  0  0  0  0  0  0  0  0  0  0
   25.8390   23.2420   18.2200 C   0  0  0  0  0  0  0  0  0  0  0  0
   25.3780   23.5920   19.5840 N   0  0  0  0  0  0  0  0  0  0  0  0
  1  4  1  0  0  0  0
  1  2  1  0  0  0  0
  2 31  1  0  0  0  0
  3  2  2  0  0  0  0
  5  1  1  0  0  0  0
  6 29  1  0  0  0  0
  6  5  1  1  0  0  0
  7  6  1  0  0  0  0
  7 27  1  1  0  0  0
  8  7  1  6  0  0  0
  8 13  1  0  0  0  0
  9 16  1  6  0  0  0
  9 11  1  0  0  0  0
  9 10  1  0  0  0  0
 10 12  1  0  0  0  0
 11  8  1  0  0  0  0
 12 20  1  6  0  0  0
 12 13  1  0  0  0  0
 13 22  1  6  0  0  0
 14  9  1  0  0  0  0
 15 14  1  0  0  0  0
 17 16  2  0  0  0  0
 18 16  1  0  0  0  0
 19 18  1  0  0  0  0
 21 20  1  0  0  0  0
 22 23  1  0  0  0  0
 23 26  2  0  0  0  0
 23 25  1  0  0  0  0
 24 22  1  0  0  0  0
 28 27  1  0  0  0  0
 30 29  1  0  0  0  0
 31 32  1  0  0  0  0
 33 34  2  0  0  0  0
 33 32  1  0  0  0  0
 35 33  1  0  0  0  0
 36 38  1  0  0  0  0
 36 34  1  0  0  0  0
 37 35  2  0  0  0  0
 37 36  1  0  0  0  0
 38 40  2  0  0  0  0
 39 38  1  0  0  0  0
 39 41  2  0  0  0  0
 40 42  1  0  0  0  0
 40 43  1  0  0  0  0
 41 42  1  0  0  0  0
 42 44  1  0  0  0  0
 43 46  2  0  0  0  0
 43 45  1  0  0  0  0
 44 48  1  0  0  0  0
 45 52  1  0  0  0  0
 47 44  2  0  0  0  0
 47 49  1  0  0  0  0
 48 45  1  0  0  0  0
 48 50  2  0  0  0  0
 49 51  2  0  0  0  0
 51 50  1  0  0  0  0
 52 54  1  0  0  0  0
 53 52  1  0  0  0  0
 55 56  1  0  0  0  0
 57 56  1  0  0  0  0
 57 58  1  0  0  0  0
 58 59  1  0  0  0  0
 59 60  1  0  0  0  0
M  END
>  <REMARK>
 VINA RESULT:    -4.415      3.156      8.535
 INTER + INTRA:         -15.008
 INTER:                  -9.021
 INTRA:                  -5.987
 UNBOUND:                -7.109
 SMILES CC(=O)N[C@@H]1[C@@H](O)C[C@](O)(C(=O)O)O[C@H]1C(O)[C@H](O)CNC(=O)OCc1cn(-c2ncn3c2c(=O)n(C(C)C)c2ccccc23)nn1
 SMILES IDX 21 1 22 2 23 3 20 5 18 6 16 7 15 8 9 9 8 10 14 11 6 12 5 13
 SMILES IDX 10 14 11 16 12 17 13 18 7 20 4 22 2 23 1 25 3 26 17 27 19 29
 SMILES IDX 24 31 25 32 26 33 27 34 47 35 28 36 46 37 29 38 30 39 33 40
 SMILES IDX 31 41 32 42 34 43 45 44 36 45 35 46 44 47 40 48 43 49 41 50
 SMILES IDX 42 51 37 52 38 53 39 54
 H PARENT 21 4 10 15 13 19 7 21 4 24 17 28 19 30
 Flexibility Score: inf
  4 active torsions:
  status: ('A' for Active; 'I' for Inactive)
    1  A    between atoms: CA   and  CB  
    2  A    between atoms: CB   and  CG  
    3  A    between atoms: CG   and  CD  
    4  A    between atoms: CD   and  CE  

>  <TORSDO>
F 16

>  <BEGIN_>
RES LYS A 131

$$$$
ligand_89_pose_12_2HRL.pdbqt
 OpenBabel07062320523D

  6  5  0  0  0  0  0  0  0  0999 V2000
   33.1930   34.6630    9.2900 C   0  0  0  0  0  0  0  0  0  0  0  0
   32.0600   35.3600   10.0340 C   0  0  0  0  0  0  0  0  0  0  0  0
   30.7330   34.6580    9.9040 C   0  0  0  0  0  0  0  0  0  0  0  0
   30.3400   34.5190    8.4420 C   0  0  0  0  0  0  0  0  0  0  0  0
   28.8310   34.5300    8.2920 C   0  0  0  0  0  0  0  0  0  0  0  0
   28.4130   35.3440    7.1180 N   0  0  0  0  0  0  0  0  0  0  0  0
  1  2  1  0  0  0  0
  3  2  1  0  0  0  0
  4  3  1  0  0  0  0
  5  4  1  0  0  0  0
  6  5  1  0  0  0  0
M  END
>  <EGIN_R>
ES LYS A 135

>  <REMARK>
  4 active torsions:
  status: ('A' for Active; 'I' for Inactive)
    5  A    between atoms: CA   and  CB  
    6  A    between atoms: CB   and  CG  
    7  A    between atoms: CG   and  CD  
    8  A    between atoms: CD   and  CE  

$$$$
