ligand_36_pose_1_2HRL.pdbqt
 OpenBabel07062320523D

 52 53  0  0  1  0  0  0  0  0999 V2000
   31.0910   30.0830   19.7850 N   0  0  0  0  0  0  0  0  0  0  0  0
   30.3970   31.2000   20.3350 C   0  0  0  0  0  0  0  0  0  0  0  0
   30.3430   31.3330   21.6070 O   0  0  0  0  0  0  0  0  0  0  0  0
   31.1250   29.9990   18.7530 H   0  0  0  0  0  0  0  0  0  0  0  0
   31.7020   29.1430   20.6530 C   0  0  0  0  0  0  0  0  0  0  0  0
   31.1540   27.7370   20.6110 C   0  0  2  0  0  0  0  0  0  0  0  0
   29.8410   27.5840   21.3520 C   0  0  2  0  0  0  0  0  0  0  0  0
   28.6680   27.4880   20.4370 C   0  0  2  0  0  0  0  0  0  0  0  0
   27.3600   28.7800   19.0090 C   0  0  2  0  0  0  0  0  0  0  0  0
   26.6960   27.4490   18.7390 C   0  0  0  0  0  0  0  0  0  0  0  0
   28.5260   28.6750   19.7080 O   0  0  0  0  0  0  0  0  0  0  0  0
   26.4290   26.6660   19.9750 C   0  0  1  0  0  0  0  0  0  0  0  0
   27.3460   27.2150   21.0820 C   0  0  1  0  0  0  0  0  0  0  0  0
   26.4240   29.6200   19.6500 O   0  0  0  0  0  0  0  0  0  0  0  0
   25.7530   29.0280   20.1020 H   0  0  0  0  0  0  0  0  0  0  0  0
   27.6570   29.3840   17.6930 C   0  0  0  0  0  0  0  0  0  0  0  0
   26.8430   29.2430   16.7530 O   0  0  0  0  0  0  0  0  0  0  0  0
   28.8170   30.0960   17.4980 O   0  0  0  0  0  0  0  0  0  0  0  0
   29.0340   30.9780   17.9280 H   0  0  0  0  0  0  0  0  0  0  0  0
   25.1090   26.6710   20.3790 O   0  0  0  0  0  0  0  0  0  0  0  0
   24.8350   27.6360   20.4700 H   0  0  0  0  0  0  0  0  0  0  0  0
   27.3610   26.3320   22.2060 N   0  0  0  0  0  0  0  0  0  0  0  0
   26.4960   26.5460   23.3340 C   0  0  0  0  0  0  0  0  0  0  0  0
   27.9950   25.4840   22.2550 H   0  0  0  0  0  0  0  0  0  0  0  0
   26.5210   25.6170   24.5020 C   0  0  0  0  0  0  0  0  0  0  0  0
   25.7040   27.5180   23.3610 O   0  0  0  0  0  0  0  0  0  0  0  0
   29.7420   28.5040   22.3440 O   0  0  0  0  0  0  0  0  0  0  0  0
   30.3410   28.4060   23.0850 H   0  0  0  0  0  0  0  0  0  0  0  0
   32.1460   26.9610   21.2650 O   0  0  0  0  0  0  0  0  0  0  0  0
   32.7130   27.5050   21.8420 H   0  0  0  0  0  0  0  0  0  0  0  0
   29.7640   32.1760   19.5870 O   0  0  0  0  0  0  0  0  0  0  0  0
   30.5060   33.2980   19.1620 C   0  0  0  0  0  0  0  0  0  0  0  0
   30.9680   33.1600   17.7610 C   0  0  0  0  0  0  0  0  0  0  0  0
   31.6350   34.0950   16.9840 C   0  0  0  0  0  0  0  0  0  0  0  0
   30.8160   32.0750   16.9910 N   0  0  0  0  0  0  0  0  0  0  0  0
   31.8630   33.5520   15.7850 N   0  0  0  0  0  0  0  0  0  0  0  0
   31.3580   32.3370   15.8200 N   0  0  0  0  0  0  0  0  0  0  0  0
   32.5380   34.1600   14.6580 C   0  0  0  0  0  0  0  0  0  0  0  0
   31.7110   35.1080   13.9110 C   0  0  0  0  0  0  0  0  0  0  0  0
   32.1860   36.3630   13.6320 C   0  0  0  0  0  0  0  0  0  0  0  0
   30.4440   34.7370   13.4890 C   0  0  0  0  0  0  0  0  0  0  0  0
   31.4150   37.2710   12.9310 C   0  0  0  0  0  0  0  0  0  0  0  0
   29.6490   35.6300   12.7830 C   0  0  0  0  0  0  0  0  0  0  0  0
   30.1550   36.9030   12.5110 C   0  0  0  0  0  0  0  0  0  0  0  0
   29.3450   37.8370   11.7860 C   0  0  0  0  0  0  0  0  0  0  0  0
   28.6720   38.6010   11.2070 N   0  0  0  0  0  0  0  0  0  0  0  0
   29.8670   25.5550   16.9770 C   0  0  0  0  0  0  0  0  0  0  0  0
   28.3450   25.7220   17.0260 C   0  0  0  0  0  0  0  0  0  0  0  0
   27.5990   24.4490   16.6570 C   0  0  0  0  0  0  0  0  0  0  0  0
   27.0300   23.7560   17.8630 C   0  0  0  0  0  0  0  0  0  0  0  0
   25.5720   23.3920   17.6020 C   0  0  0  0  0  0  0  0  0  0  0  0
   24.7820   24.6070   17.2930 N   0  0  0  0  0  0  0  0  0  0  0  0
  1  2  1  0  0  0  0
  1  5  1  0  0  0  0
  2  3  2  0  0  0  0
  4  1  1  0  0  0  0
  6  5  1  1  0  0  0
  6 29  1  0  0  0  0
  6  7  1  0  0  0  0
  7 27  1  1  0  0  0
  8 13  1  0  0  0  0
  8  7  1  1  0  0  0
  9 16  1  6  0  0  0
  9 14  1  0  0  0  0
  9 11  1  0  0  0  0
 10  9  1  0  0  0  0
 10 12  1  0  0  0  0
 11  8  1  0  0  0  0
 12 20  1  1  0  0  0
 12 13  1  0  0  0  0
 13 22  1  1  0  0  0
 14 15  1  0  0  0  0
 17 16  2  0  0  0  0
 18 16  1  0  0  0  0
 18 19  1  0  0  0  0
 20 21  1  0  0  0  0
 22 24  1  0  0  0  0
 22 23  1  0  0  0  0
 23 26  2  0  0  0  0
 23 25  1  0  0  0  0
 27 28  1  0  0  0  0
 29 30  1  0  0  0  0
 31  2  1  0  0  0  0
 32 31  1  0  0  0  0
 33 32  1  0  0  0  0
 34 33  2  0  0  0  0
 35 33  1  0  0  0  0
 36 37  1  0  0  0  0
 36 34  1  0  0  0  0
 37 35  2  0  0  0  0
 38 36  1  0  0  0  0
 39 38  1  0  0  0  0
 40 39  1  0  0  0  0
 41 39  2  0  0  0  0
 42 40  2  0  0  0  0
 43 41  1  0  0  0  0
 44 43  2  0  0  0  0
 44 42  1  0  0  0  0
 45 44  1  0  0  0  0
 46 45  3  0  0  0  0
 47 48  1  0  0  0  0
 49 48  1  0  0  0  0
 49 50  1  0  0  0  0
 51 50  1  0  0  0  0
 52 51  1  0  0  0  0
M  END
>  <REMARK>
 VINA RESULT:    -4.546      2.261      4.474
 INTER + INTRA:         -15.379
 INTER:                  -9.100
 INTRA:                  -6.280
 UNBOUND:                -6.980
 SMILES CC(=O)N[C@@H]1[C@@H](O)C[C@](O)(C(=O)O)O[C@H]1C(O)[C@H](O)CNC(=O)OCc1cn(Cc2ccc(C#N)cc2)nn1
 SMILES IDX 21 1 22 2 23 3 20 5 18 6 16 7 15 8 9 9 8 10 14 11 6 12 5 13
 SMILES IDX 10 14 11 16 12 17 13 18 7 20 4 22 2 23 1 25 3 26 17 27 19 29
 SMILES IDX 24 31 25 32 26 33 27 34 39 35 28 36 38 37 29 38 30 39 31 40
 SMILES IDX 37 41 32 42 36 43 33 44 34 45 35 46
 H PARENT 21 4 10 15 13 19 7 21 4 24 17 28 19 30
 Flexibility Score: inf
  4 active torsions:
  status: ('A' for Active; 'I' for Inactive)
    1  A    between atoms: CA   and  CB  
    2  A    between atoms: CB   and  CG  
    3  A    between atoms: CG   and  CD  
    4  A    between atoms: CD   and  CE  

>  <TORSDO>
F 17

>  <BEGIN_>
RES LYS A 131

$$$$
ligand_36_pose_1_2HRL.pdbqt
 OpenBabel07062320523D

  6  5  0  0  0  0  0  0  0  0999 V2000
   33.1930   34.6630    9.2900 C   0  0  0  0  0  0  0  0  0  0  0  0
   32.0600   35.3600   10.0340 C   0  0  0  0  0  0  0  0  0  0  0  0
   30.7880   35.4640    9.2330 C   0  0  0  0  0  0  0  0  0  0  0  0
   29.9850   34.1760    9.3310 C   0  0  0  0  0  0  0  0  0  0  0  0
   28.5870   34.3770    8.7780 C   0  0  0  0  0  0  0  0  0  0  0  0
   27.5800   33.6320    9.5840 N   0  0  0  0  0  0  0  0  0  0  0  0
  1  2  1  0  0  0  0
  3  4  1  0  0  0  0
  3  2  1  0  0  0  0
  5  4  1  0  0  0  0
  5  6  1  0  0  0  0
M  END
>  <EGIN_R>
ES LYS A 135

>  <REMARK>
  4 active torsions:
  status: ('A' for Active; 'I' for Inactive)
    5  A    between atoms: CA   and  CB  
    6  A    between atoms: CB   and  CG  
    7  A    between atoms: CG   and  CD  
    8  A    between atoms: CD   and  CE  

$$$$
