ligand_88_pose_9_2HRL.pdbqt
 OpenBabel07062320523D

 54 55  0  0  1  0  0  0  0  0999 V2000
   27.1110   31.6400   15.7910 N   0  0  0  0  0  0  0  0  0  0  0  0
   25.7980   31.1210   15.6060 C   0  0  0  0  0  0  0  0  0  0  0  0
   25.6500   29.8880   15.4490 O   0  0  0  0  0  0  0  0  0  0  0  0
   27.2070   32.6630   15.9180 H   0  0  0  0  0  0  0  0  0  0  0  0
   28.2730   30.7930   15.8010 C   0  0  0  0  0  0  0  0  0  0  0  0
   29.4890   31.5470   16.2570 C   0  0  2  0  0  0  0  0  0  0  0  0
   30.1060   32.3650   15.1440 C   0  0  1  0  0  0  0  0  0  0  0  0
   29.8220   33.8580   15.3900 C   0  0  2  0  0  0  0  0  0  0  0  0
   27.9780   35.0360   14.5250 C   0  0  2  0  0  0  0  0  0  0  0  0
   28.9110   36.2560   14.5100 C   0  0  0  0  0  0  0  0  0  0  0  0
   28.5020   34.0350   15.2720 O   0  0  0  0  0  0  0  0  0  0  0  0
   30.1330   35.7540   13.7560 C   0  0  1  0  0  0  0  0  0  0  0  0
   30.7520   34.6870   14.6110 C   0  0  1  0  0  0  0  0  0  0  0  0
   27.7560   34.7220   13.1990 O   0  0  0  0  0  0  0  0  0  0  0  0
   28.3100   35.2420   12.5670 H   0  0  0  0  0  0  0  0  0  0  0  0
   26.6840   35.4300   15.1360 C   0  0  0  0  0  0  0  0  0  0  0  0
   26.2270   34.7390   16.0800 O   0  0  0  0  0  0  0  0  0  0  0  0
   25.9610   36.5360   14.6990 O   0  0  0  0  0  0  0  0  0  0  0  0
   26.3980   37.0750   13.9380 H   0  0  0  0  0  0  0  0  0  0  0  0
   29.7760   35.2820   12.4940 O   0  0  0  0  0  0  0  0  0  0  0  0
   29.9330   36.0050   11.8530 H   0  0  0  0  0  0  0  0  0  0  0  0
   31.7670   35.3430   15.4350 N   0  0  0  0  0  0  0  0  0  0  0  0
   33.1600   35.1670   15.2390 C   0  0  0  0  0  0  0  0  0  0  0  0
   31.4910   35.9880   16.2260 H   0  0  0  0  0  0  0  0  0  0  0  0
   34.1620   35.8570   16.1060 C   0  0  0  0  0  0  0  0  0  0  0  0
   33.5660   34.4140   14.3170 O   0  0  0  0  0  0  0  0  0  0  0  0
   31.4400   32.1130   14.9350 O   0  0  0  0  0  0  0  0  0  0  0  0
   31.8150   31.4890   15.5910 H   0  0  0  0  0  0  0  0  0  0  0  0
   30.3710   30.6970   16.8870 O   0  0  0  0  0  0  0  0  0  0  0  0
   31.3110   30.9250   16.7640 H   0  0  0  0  0  0  0  0  0  0  0  0
   24.7080   31.9550   15.5990 O   0  0  0  0  0  0  0  0  0  0  0  0
   23.7750   31.9630   14.5330 C   0  0  0  0  0  0  0  0  0  0  0  0
   24.0820   33.1130   13.6420 C   0  0  0  0  0  0  0  0  0  0  0  0
   23.3490   34.2860   13.5130 C   0  0  0  0  0  0  0  0  0  0  0  0
   25.1060   33.2740   12.7830 N   0  0  0  0  0  0  0  0  0  0  0  0
   23.9420   35.0830   12.6110 N   0  0  0  0  0  0  0  0  0  0  0  0
   25.0320   34.4340   12.1700 N   0  0  0  0  0  0  0  0  0  0  0  0
   23.5250   36.3860   12.1740 C   0  0  0  0  0  0  0  0  0  0  0  0
   23.4950   36.5210   10.6950 C   0  0  0  0  0  0  0  0  0  0  0  0
   22.2890   36.3370   10.0480 C   0  0  0  0  0  0  0  0  0  0  0  0
   24.6050   36.8200    9.9420 C   0  0  0  0  0  0  0  0  0  0  0  0
   22.1480   36.4370    8.6820 C   0  0  0  0  0  0  0  0  0  0  0  0
   24.4890   36.9270    8.5530 C   0  0  0  0  0  0  0  0  0  0  0  0
   20.4750   36.1790    7.8170 Br  0  0  0  0  0  0  0  0  0  0  0  0
   23.2780   36.7380    7.9330 C   0  0  0  0  0  0  0  0  0  0  0  0
   26.0890   37.3470    7.5780 Br  0  0  0  0  0  0  0  0  0  0  0  0
   25.8270   37.0120   10.5590 O   0  0  0  0  0  0  0  0  0  0  0  0
   26.4440   37.7360   10.2190 H   0  0  0  0  0  0  0  0  0  0  0  0
   29.8670   25.5550   16.9770 C   0  0  0  0  0  0  0  0  0  0  0  0
   28.3450   25.7220   17.0260 C   0  0  0  0  0  0  0  0  0  0  0  0
   27.6010   24.4020   16.8900 C   0  0  0  0  0  0  0  0  0  0  0  0
   26.1720   24.5080   17.3440 C   0  0  0  0  0  0  0  0  0  0  0  0
   25.9840   23.7070   18.6270 C   0  0  0  0  0  0  0  0  0  0  0  0
   25.4510   24.5720   19.7060 N   0  0  0  0  0  0  0  0  0  0  0  0
  1  5  1  0  0  0  0
  1  4  1  0  0  0  0
  2  1  1  0  0  0  0
  3  2  2  0  0  0  0
  6  5  1  6  0  0  0
  6 29  1  0  0  0  0
  7 27  1  1  0  0  0
  7  6  1  0  0  0  0
  8  7  1  6  0  0  0
  9 14  1  6  0  0  0
  9 16  1  0  0  0  0
  9 11  1  0  0  0  0
 10  9  1  0  0  0  0
 11  8  1  0  0  0  0
 12 20  1  6  0  0  0
 12 10  1  0  0  0  0
 12 13  1  0  0  0  0
 13  8  1  0  0  0  0
 13 22  1  1  0  0  0
 15 14  1  0  0  0  0
 16 17  2  0  0  0  0
 18 16  1  0  0  0  0
 19 18  1  0  0  0  0
 21 20  1  0  0  0  0
 22 24  1  0  0  0  0
 23 22  1  0  0  0  0
 23 25  1  0  0  0  0
 26 23  2  0  0  0  0
 27 28  1  0  0  0  0
 30 29  1  0  0  0  0
 31  2  1  0  0  0  0
 32 31  1  0  0  0  0
 33 32  1  0  0  0  0
 34 33  2  0  0  0  0
 35 33  1  0  0  0  0
 36 34  1  0  0  0  0
 37 36  1  0  0  0  0
 37 35  2  0  0  0  0
 38 36  1  0  0  0  0
 39 38  1  0  0  0  0
 40 39  1  0  0  0  0
 41 47  1  0  0  0  0
 41 39  2  0  0  0  0
 42 40  2  0  0  0  0
 43 41  1  0  0  0  0
 44 42  1  0  0  0  0
 45 43  2  0  0  0  0
 45 42  1  0  0  0  0
 46 43  1  0  0  0  0
 48 47  1  0  0  0  0
 49 50  1  0  0  0  0
 51 50  1  0  0  0  0
 51 52  1  0  0  0  0
 52 53  1  0  0  0  0
 53 54  1  0  0  0  0
M  END
>  <REMARK>
 VINA RESULT:    -5.126      4.565      8.434
 INTER + INTRA:         -15.115
 INTER:                  -8.437
 INTRA:                  -6.678
 UNBOUND:                -5.794
 SMILES CC(=O)N[C@@H]1[C@@H](O)C[C@](O)(C(=O)O)O[C@H]1C(O)[C@H](O)CNC(=O)OCc1cn(Cc2cc(Br)cc(Br)c2O)nn1
 SMILES IDX 21 1 22 2 23 3 20 5 18 6 16 7 15 8 9 9 8 10 14 11 6 12 5 13
 SMILES IDX 10 14 11 16 12 17 13 18 7 20 4 22 2 23 1 25 3 26 17 27 19 29
 SMILES IDX 24 31 25 32 26 33 27 34 40 35 28 36 39 37 29 38 30 39 31 40
 SMILES IDX 37 41 32 42 35 43 33 44 34 45 36 46 38 47
 H PARENT 21 4 10 15 13 19 7 21 4 24 17 28 19 30 38 48
 Flexibility Score: inf
  4 active torsions:
  status: ('A' for Active; 'I' for Inactive)
    1  A    between atoms: CA   and  CB  
    2  A    between atoms: CB   and  CG  
    3  A    between atoms: CG   and  CD  
    4  A    between atoms: CD   and  CE  

>  <TORSDO>
F 17

>  <BEGIN_>
RES LYS A 131

$$$$
ligand_88_pose_9_2HRL.pdbqt
 OpenBabel07062320523D

  6  5  0  0  0  0  0  0  0  0999 V2000
   33.1930   34.6630    9.2900 C   0  0  0  0  0  0  0  0  0  0  0  0
   32.0600   35.3600   10.0340 C   0  0  0  0  0  0  0  0  0  0  0  0
   30.8110   35.5280    9.2080 C   0  0  0  0  0  0  0  0  0  0  0  0
   30.1140   34.1910    9.0110 C   0  0  0  0  0  0  0  0  0  0  0  0
   28.6470   34.3970    8.6870 C   0  0  0  0  0  0  0  0  0  0  0  0
   27.7770   33.6920    9.6690 N   0  0  0  0  0  0  0  0  0  0  0  0
  1  2  1  0  0  0  0
  3  2  1  0  0  0  0
  4  3  1  0  0  0  0
  5  4  1  0  0  0  0
  5  6  1  0  0  0  0
M  END
>  <EGIN_R>
ES LYS A 135

>  <REMARK>
  4 active torsions:
  status: ('A' for Active; 'I' for Inactive)
    5  A    between atoms: CA   and  CB  
    6  A    between atoms: CB   and  CG  
    7  A    between atoms: CG   and  CD  
    8  A    between atoms: CD   and  CE  

$$$$
