ligand_10_pose_13_2HRL.pdbqt
 OpenBabel07062320523D

 53 53  0  0  1  0  0  0  0  0999 V2000
   24.9660   33.9720   16.9070 N   0  0  0  0  0  0  0  0  0  0  0  0
   25.8200   34.6600   17.8200 C   0  0  0  0  0  0  0  0  0  0  0  0
   26.1120   34.1100   18.8880 O   0  0  0  0  0  0  0  0  0  0  0  0
   24.7610   34.5010   16.0190 H   0  0  0  0  0  0  0  0  0  0  0  0
   24.4120   32.6730   17.1320 C   0  0  0  0  0  0  0  0  0  0  0  0
   25.1110   31.6320   16.2820 C   0  0  2  0  0  0  0  0  0  0  0  0
   26.1800   30.9040   17.0760 C   0  0  2  0  0  0  0  0  0  0  0  0
   25.7820   30.5600   18.4660 C   0  0  2  0  0  0  0  0  0  0  0  0
   27.2610   28.7730   18.6050 C   0  0  2  0  0  0  0  0  0  0  0  0
   26.2700   27.8900   17.9720 C   0  0  0  0  0  0  0  0  0  0  0  0
   26.8190   29.9410   19.1710 O   0  0  0  0  0  0  0  0  0  0  0  0
   24.8490   28.2930   17.9780 C   0  0  1  0  0  0  0  0  0  0  0  0
   24.5740   29.6670   18.5200 C   0  0  1  0  0  0  0  0  0  0  0  0
   28.2650   29.1590   17.6790 O   0  0  0  0  0  0  0  0  0  0  0  0
   27.9050   29.9780   17.2440 H   0  0  0  0  0  0  0  0  0  0  0  0
   28.0130   28.0530   19.6690 C   0  0  0  0  0  0  0  0  0  0  0  0
   28.3690   28.5700   20.7530 O   0  0  0  0  0  0  0  0  0  0  0  0
   28.3360   26.7250   19.4410 O   0  0  0  0  0  0  0  0  0  0  0  0
   28.3270   26.0220   20.1910 H   0  0  0  0  0  0  0  0  0  0  0  0
   24.3020   28.1780   16.7030 O   0  0  0  0  0  0  0  0  0  0  0  0
   23.3530   27.9690   16.6870 H   0  0  0  0  0  0  0  0  0  0  0  0
   24.1190   29.5770   19.9290 N   0  0  0  0  0  0  0  0  0  0  0  0
   22.7500   29.6920   20.2590 C   0  0  0  0  0  0  0  0  0  0  0  0
   24.7940   29.4280   20.7090 H   0  0  0  0  0  0  0  0  0  0  0  0
   22.2480   29.6080   21.6610 C   0  0  0  0  0  0  0  0  0  0  0  0
   21.9290   29.8710   19.3340 O   0  0  0  0  0  0  0  0  0  0  0  0
   27.2460   31.8490   17.1080 O   0  0  0  0  0  0  0  0  0  0  0  0
   28.0610   31.4350   17.4790 H   0  0  0  0  0  0  0  0  0  0  0  0
   25.5940   32.2570   15.1400 O   0  0  0  0  0  0  0  0  0  0  0  0
   24.9450   32.2670   14.3930 H   0  0  0  0  0  0  0  0  0  0  0  0
   26.3310   35.9190   17.5530 O   0  0  0  0  0  0  0  0  0  0  0  0
   26.8770   36.2060   16.2900 C   0  0  0  0  0  0  0  0  0  0  0  0
   27.8150   35.1590   15.8200 C   0  0  0  0  0  0  0  0  0  0  0  0
   29.1140   35.0730   16.2600 C   0  0  0  0  0  0  0  0  0  0  0  0
   27.6360   34.1640   14.9550 N   0  0  0  0  0  0  0  0  0  0  0  0
   29.6920   34.0120   15.6390 N   0  0  0  0  0  0  0  0  0  0  0  0
   28.7760   33.4980   14.8700 N   0  0  0  0  0  0  0  0  0  0  0  0
   31.0800   33.6240   15.8740 C   0  0  1  0  0  0  0  0  0  0  0  0
   31.2580   32.1690   15.5370 C   0  0  0  0  0  0  0  0  0  0  0  0
   30.3090   31.3040   16.2560 C   0  0  0  0  0  0  0  0  0  0  0  0
   30.3490   31.2720   17.5110 O   0  0  0  0  0  0  0  0  0  0  0  0
   29.3990   30.5490   15.5340 O   0  0  0  0  0  0  0  0  0  0  0  0
   29.6830   30.1660   14.6180 H   0  0  0  0  0  0  0  0  0  0  0  0
   31.9440   34.3990   14.9430 C   0  0  0  0  0  0  0  0  0  0  0  0
   32.9750   35.0240   15.2990 O   0  0  0  0  0  0  0  0  0  0  0  0
   31.5930   34.4340   13.6040 O   0  0  0  0  0  0  0  0  0  0  0  0
   31.9780   33.7940   12.9200 H   0  0  0  0  0  0  0  0  0  0  0  0
   29.8670   25.5550   16.9770 C   0  0  0  0  0  0  0  0  0  0  0  0
   28.3450   25.7220   17.0260 C   0  0  0  0  0  0  0  0  0  0  0  0
   27.5990   24.4450   16.6700 C   0  0  0  0  0  0  0  0  0  0  0  0
   27.0690   23.7410   17.8880 C   0  0  0  0  0  0  0  0  0  0  0  0
   25.7080   24.3200   18.2600 C   0  0  0  0  0  0  0  0  0  0  0  0
   24.8410   24.4190   17.0630 N   0  0  0  0  0  0  0  0  0  0  0  0
  1  5  1  0  0  0  0
  1  2  1  0  0  0  0
  2  3  2  0  0  0  0
  4  1  1  0  0  0  0
  6  7  1  0  0  0  0
  6  5  1  1  0  0  0
  7 27  1  1  0  0  0
  8  7  1  6  0  0  0
  8 13  1  0  0  0  0
  8 11  1  0  0  0  0
  9 14  1  6  0  0  0
  9 11  1  0  0  0  0
  9 16  1  0  0  0  0
 10 12  1  0  0  0  0
 10  9  1  0  0  0  0
 12 20  1  6  0  0  0
 12 13  1  0  0  0  0
 13 22  1  1  0  0  0
 15 14  1  0  0  0  0
 16 17  2  0  0  0  0
 18 16  1  0  0  0  0
 18 19  1  0  0  0  0
 21 20  1  0  0  0  0
 22 23  1  0  0  0  0
 22 24  1  0  0  0  0
 23 25  1  0  0  0  0
 26 23  2  0  0  0  0
 27 28  1  0  0  0  0
 29  6  1  0  0  0  0
 30 29  1  0  0  0  0
 31  2  1  0  0  0  0
 32 31  1  0  0  0  0
 33 34  2  0  0  0  0
 33 32  1  0  0  0  0
 35 33  1  0  0  0  0
 36 38  1  0  0  0  0
 36 34  1  0  0  0  0
 37 35  2  0  0  0  0
 37 36  1  0  0  0  0
 38 39  1  6  0  0  0
 39 40  1  0  0  0  0
 40 41  2  0  0  0  0
 42 40  1  0  0  0  0
 43 42  1  0  0  0  0
 44 45  2  0  0  0  0
 44 38  1  0  0  0  0
 46 44  1  0  0  0  0
 47 46  1  0  0  0  0
 48 49  1  0  0  0  0
 50 49  1  0  0  0  0
 50 51  1  0  0  0  0
 51 52  1  0  0  0  0
 53 52  1  0  0  0  0
M  END
>  <REMARK>
 VINA RESULT:    -4.504      2.714      6.184
 INTER + INTRA:         -14.593
 INTER:                  -7.228
 INTRA:                  -7.365
 UNBOUND:                -5.744
 SMILES CC(=O)N[C@@H]1[C@@H](O)C[C@](O)(C(=O)O)O[C@H]1C(O)[C@H](O)CNC(=O)OCc1cn([C@@H](CC(=O)O)C(=O)O)nn1
 SMILES IDX 21 1 22 2 23 3 20 5 18 6 16 7 15 8 9 9 8 10 14 11 6 12 5 13
 SMILES IDX 10 14 11 16 12 17 13 18 7 20 4 22 2 23 1 25 3 26 17 27 19 29
 SMILES IDX 24 31 25 32 26 33 27 34 38 35 28 36 37 37 29 38 30 39 31 40
 SMILES IDX 32 41 33 42 34 44 35 45 36 46
 H PARENT 21 4 10 15 13 19 7 21 4 24 17 28 19 30 33 43 36 47
 Flexibility Score: inf
  4 active torsions:
  status: ('A' for Active; 'I' for Inactive)
    1  A    between atoms: CA   and  CB  
    2  A    between atoms: CB   and  CG  
    3  A    between atoms: CG   and  CD  
    4  A    between atoms: CD   and  CE  

>  <TORSDO>
F 20

>  <BEGIN_>
RES LYS A 131

$$$$
ligand_10_pose_13_2HRL.pdbqt
 OpenBabel07062320523D

  6  5  0  0  0  0  0  0  0  0999 V2000
   33.1930   34.6630    9.2900 C   0  0  0  0  0  0  0  0  0  0  0  0
   32.0600   35.3600   10.0340 C   0  0  0  0  0  0  0  0  0  0  0  0
   30.7880   35.4640    9.2330 C   0  0  0  0  0  0  0  0  0  0  0  0
   30.2200   34.0820    8.9460 C   0  0  0  0  0  0  0  0  0  0  0  0
   28.7210   34.0630    9.1780 C   0  0  0  0  0  0  0  0  0  0  0  0
   28.0020   34.7970    8.1000 N   0  0  0  0  0  0  0  0  0  0  0  0
  1  2  1  0  0  0  0
  3  2  1  0  0  0  0
  4  5  1  0  0  0  0
  4  3  1  0  0  0  0
  6  5  1  0  0  0  0
M  END
>  <EGIN_R>
ES LYS A 135

>  <REMARK>
  4 active torsions:
  status: ('A' for Active; 'I' for Inactive)
    5  A    between atoms: CA   and  CB  
    6  A    between atoms: CB   and  CG  
    7  A    between atoms: CG   and  CD  
    8  A    between atoms: CD   and  CE  

$$$$
