ligand_1_pose_15_2HRL.pdbqt
 OpenBabel07062320523D

 47 47  0  0  1  0  0  0  0  0999 V2000
   29.7800   33.8350   18.8000 N   0  0  0  0  0  0  0  0  0  0  0  0
   30.4500   33.8730   17.5720 C   0  0  0  0  0  0  0  0  0  0  0  0
   31.5280   33.3000   17.4400 O   0  0  0  0  0  0  0  0  0  0  0  0
   28.8470   34.3680   18.8140 H   0  0  0  0  0  0  0  0  0  0  0  0
   30.1460   33.2080   20.0110 C   0  0  0  0  0  0  0  0  0  0  0  0
   29.6470   31.8190   20.2550 C   0  0  2  0  0  0  0  0  0  0  0  0
   30.6760   30.7770   19.9350 C   0  0  1  0  0  0  0  0  0  0  0  0
   30.6430   29.4960   20.6540 C   0  0  2  0  0  0  0  0  0  0  0  0
   29.3670   27.9880   21.8420 C   0  0  2  0  0  0  0  0  0  0  0  0
   30.4780   27.0460   21.4280 C   0  0  0  0  0  0  0  0  0  0  0  0
   29.4080   29.2170   21.1840 O   0  0  0  0  0  0  0  0  0  0  0  0
   31.8360   27.6700   21.7200 C   0  0  1  0  0  0  0  0  0  0  0  0
   31.7070   29.2050   21.6560 C   0  0  1  0  0  0  0  0  0  0  0  0
   29.4450   28.2670   23.2040 O   0  0  0  0  0  0  0  0  0  0  0  0
   30.3650   28.4390   23.5070 H   0  0  0  0  0  0  0  0  0  0  0  0
   28.0370   27.4080   21.5490 C   0  0  0  0  0  0  0  0  0  0  0  0
   27.6910   27.0420   20.3970 O   0  0  0  0  0  0  0  0  0  0  0  0
   27.1270   27.2570   22.5790 O   0  0  0  0  0  0  0  0  0  0  0  0
   27.4660   27.1320   23.5440 H   0  0  0  0  0  0  0  0  0  0  0  0
   32.2600   27.2660   22.9780 O   0  0  0  0  0  0  0  0  0  0  0  0
   33.2360   27.0930   22.9110 H   0  0  0  0  0  0  0  0  0  0  0  0
   33.0060   29.7600   21.3320 N   0  0  0  0  0  0  0  0  0  0  0  0
   33.8090   30.2700   22.3840 C   0  0  0  0  0  0  0  0  0  0  0  0
   33.3650   29.7940   20.3460 H   0  0  0  0  0  0  0  0  0  0  0  0
   35.1540   30.8610   22.1460 C   0  0  0  0  0  0  0  0  0  0  0  0
   33.3820   30.2290   23.5600 O   0  0  0  0  0  0  0  0  0  0  0  0
   30.4820   30.5470   18.5220 O   0  0  0  0  0  0  0  0  0  0  0  0
   30.2170   31.3880   18.1110 H   0  0  0  0  0  0  0  0  0  0  0  0
   28.4450   31.6000   19.6680 O   0  0  0  0  0  0  0  0  0  0  0  0
   27.6820   31.4910   20.2690 H   0  0  0  0  0  0  0  0  0  0  0  0
   29.9230   34.5500   16.4740 O   0  0  0  0  0  0  0  0  0  0  0  0
   29.3670   33.8640   15.3730 C   0  0  0  0  0  0  0  0  0  0  0  0
   28.6110   32.6830   15.8560 C   0  0  0  0  0  0  0  0  0  0  0  0
   28.7980   31.3700   15.5010 C   0  0  0  0  0  0  0  0  0  0  0  0
   27.6130   32.7020   16.7270 N   0  0  0  0  0  0  0  0  0  0  0  0
   27.8850   30.6650   16.1920 N   0  0  0  0  0  0  0  0  0  0  0  0
   27.1550   31.4730   16.9440 N   0  0  0  0  0  0  0  0  0  0  0  0
   27.7350   29.2270   16.1100 C   0  0  0  0  0  0  0  0  0  0  0  0
   27.1470   28.7220   17.4250 C   0  0  0  0  0  0  0  0  0  0  0  0
   28.0640   28.9990   18.4600 O   0  0  0  0  0  0  0  0  0  0  0  0
   28.9950   28.7710   18.1570 H   0  0  0  0  0  0  0  0  0  0  0  0
   29.8670   25.5550   16.9770 C   0  0  0  0  0  0  0  0  0  0  0  0
   28.3450   25.7220   17.0260 C   0  0  0  0  0  0  0  0  0  0  0  0
   27.6010   24.4020   16.8930 C   0  0  0  0  0  0  0  0  0  0  0  0
   26.6830   24.1500   18.0570 C   0  0  0  0  0  0  0  0  0  0  0  0
   25.4300   25.0060   17.9110 C   0  0  0  0  0  0  0  0  0  0  0  0
   24.5470   24.4590   16.8540 N   0  0  0  0  0  0  0  0  0  0  0  0
  1  4  1  0  0  0  0
  1  5  1  0  0  0  0
  2  1  1  0  0  0  0
  3  2  2  0  0  0  0
  6  5  1  6  0  0  0
  7 27  1  6  0  0  0
  7  6  1  0  0  0  0
  8  7  1  1  0  0  0
  8 11  1  0  0  0  0
  8 13  1  0  0  0  0
  9 16  1  6  0  0  0
  9 14  1  0  0  0  0
 10 12  1  0  0  0  0
 10  9  1  0  0  0  0
 11  9  1  0  0  0  0
 12 20  1  1  0  0  0
 13 22  1  6  0  0  0
 13 12  1  0  0  0  0
 14 15  1  0  0  0  0
 16 18  1  0  0  0  0
 17 16  2  0  0  0  0
 18 19  1  0  0  0  0
 21 20  1  0  0  0  0
 22 23  1  0  0  0  0
 23 26  2  0  0  0  0
 24 22  1  0  0  0  0
 25 23  1  0  0  0  0
 28 27  1  0  0  0  0
 29  6  1  0  0  0  0
 29 30  1  0  0  0  0
 31  2  1  0  0  0  0
 32 33  1  0  0  0  0
 32 31  1  0  0  0  0
 33 35  1  0  0  0  0
 34 33  2  0  0  0  0
 34 36  1  0  0  0  0
 35 37  2  0  0  0  0
 36 37  1  0  0  0  0
 38 36  1  0  0  0  0
 38 39  1  0  0  0  0
 39 40  1  0  0  0  0
 41 40  1  0  0  0  0
 42 43  1  0  0  0  0
 44 43  1  0  0  0  0
 44 45  1  0  0  0  0
 46 45  1  0  0  0  0
 47 46  1  0  0  0  0
M  END
>  <REMARK>
 VINA RESULT:    -3.113      8.653     14.189
 INTER + INTRA:         -13.233
 INTER:                  -6.261
 INTRA:                  -6.972
 UNBOUND:                -7.572
 SMILES CC(=O)N[C@@H]1[C@@H](O)C[C@](O)(C(=O)O)O[C@H]1C(O)[C@H](O)CNC(=O)OCc1cn(CCO)nn1
 SMILES IDX 21 1 22 2 23 3 20 5 18 6 16 7 15 8 9 9 8 10 14 11 6 12 5 13
 SMILES IDX 10 14 11 16 12 17 13 18 7 20 4 22 2 23 1 25 3 26 17 27 19 29
 SMILES IDX 24 31 25 32 26 33 27 34 33 35 28 36 32 37 29 38 30 39 31 40
 H PARENT 21 4 10 15 13 19 7 21 4 24 17 28 19 30 31 41
 Flexibility Score: inf
  4 active torsions:
  status: ('A' for Active; 'I' for Inactive)
    1  A    between atoms: CA   and  CB  
    2  A    between atoms: CB   and  CG  
    3  A    between atoms: CG   and  CD  
    4  A    between atoms: CD   and  CE  

>  <TORSDO>
F 17

>  <BEGIN_>
RES LYS A 131

$$$$
ligand_1_pose_15_2HRL.pdbqt
 OpenBabel07062320523D

  6  5  0  0  0  0  0  0  0  0999 V2000
   33.1930   34.6630    9.2900 C   0  0  0  0  0  0  0  0  0  0  0  0
   32.0600   35.3600   10.0340 C   0  0  0  0  0  0  0  0  0  0  0  0
   30.7910   35.4740    9.2290 C   0  0  0  0  0  0  0  0  0  0  0  0
   30.2250   34.0960    8.9230 C   0  0  0  0  0  0  0  0  0  0  0  0
   28.7240   34.0760    9.1400 C   0  0  0  0  0  0  0  0  0  0  0  0
   28.3780   34.4770   10.5320 N   0  0  0  0  0  0  0  0  0  0  0  0
  1  2  1  0  0  0  0
  3  2  1  0  0  0  0
  4  5  1  0  0  0  0
  4  3  1  0  0  0  0
  5  6  1  0  0  0  0
M  END
>  <EGIN_R>
ES LYS A 135

>  <REMARK>
  4 active torsions:
  status: ('A' for Active; 'I' for Inactive)
    5  A    between atoms: CA   and  CB  
    6  A    between atoms: CB   and  CG  
    7  A    between atoms: CG   and  CD  
    8  A    between atoms: CD   and  CE  

$$$$
