ligand_50_pose_6_2HRL.pdbqt
 OpenBabel07062320523D

 50 50  0  0  1  0  0  0  0  0999 V2000
   25.0200   32.6080   14.8610 N   0  0  0  0  0  0  0  0  0  0  0  0
   24.7510   32.6210   13.4700 C   0  0  0  0  0  0  0  0  0  0  0  0
   24.3190   31.6120   12.8860 O   0  0  0  0  0  0  0  0  0  0  0  0
   25.3880   33.5210   15.2670 H   0  0  0  0  0  0  0  0  0  0  0  0
   24.8080   31.4450   15.6540 C   0  0  0  0  0  0  0  0  0  0  0  0
   25.5480   31.4650   16.9730 C   0  0  2  0  0  0  0  0  0  0  0  0
   26.9850   31.0640   16.6650 C   0  0  1  0  0  0  0  0  0  0  0  0
   27.9280   31.6150   17.7410 C   0  0  2  0  0  0  0  0  0  0  0  0
   30.1670   31.7200   17.1270 C   0  0  2  0  0  0  0  0  0  0  0  0
   30.6040   31.7150   18.5790 C   0  0  0  0  0  0  0  0  0  0  0  0
   28.9200   32.2950   17.0920 O   0  0  0  0  0  0  0  0  0  0  0  0
   29.7050   30.7820   19.3140 C   0  0  1  0  0  0  0  0  0  0  0  0
   28.3880   30.5080   18.6360 C   0  0  1  0  0  0  0  0  0  0  0  0
   30.1840   30.3930   16.7000 O   0  0  0  0  0  0  0  0  0  0  0  0
   29.3030   29.9600   16.7720 H   0  0  0  0  0  0  0  0  0  0  0  0
   31.0870   32.5270   16.2870 C   0  0  0  0  0  0  0  0  0  0  0  0
   31.6860   33.4990   16.8150 O   0  0  0  0  0  0  0  0  0  0  0  0
   31.2700   32.2070   14.9630 O   0  0  0  0  0  0  0  0  0  0  0  0
   30.7450   31.4510   14.5360 H   0  0  0  0  0  0  0  0  0  0  0  0
   30.3700   29.5560   19.4370 O   0  0  0  0  0  0  0  0  0  0  0  0
   29.7300   28.8270   19.3400 H   0  0  0  0  0  0  0  0  0  0  0  0
   27.4260   30.2760   19.6920 N   0  0  0  0  0  0  0  0  0  0  0  0
   27.1250   28.9440   20.0780 C   0  0  0  0  0  0  0  0  0  0  0  0
   26.9350   31.0530   20.1910 H   0  0  0  0  0  0  0  0  0  0  0  0
   26.1330   28.6430   21.1680 C   0  0  0  0  0  0  0  0  0  0  0  0
   27.6590   27.9390   19.5420 O   0  0  0  0  0  0  0  0  0  0  0  0
   27.0610   29.6980   16.5450 O   0  0  0  0  0  0  0  0  0  0  0  0
   26.4970   29.3630   15.7920 H   0  0  0  0  0  0  0  0  0  0  0  0
   24.9630   30.5760   17.8750 O   0  0  0  0  0  0  0  0  0  0  0  0
   24.6930   29.7850   17.3690 H   0  0  0  0  0  0  0  0  0  0  0  0
   24.9630   33.7780   12.7040 O   0  0  0  0  0  0  0  0  0  0  0  0
   25.5710   34.8770   13.3200 C   0  0  0  0  0  0  0  0  0  0  0  0
   27.0330   34.6810   13.4890 C   0  0  0  0  0  0  0  0  0  0  0  0
   28.0020   34.8800   12.5490 C   0  0  0  0  0  0  0  0  0  0  0  0
   27.6550   34.2730   14.5980 N   0  0  0  0  0  0  0  0  0  0  0  0
   29.1890   34.5790   13.1400 N   0  0  0  0  0  0  0  0  0  0  0  0
   28.9610   34.2100   14.3920 N   0  0  0  0  0  0  0  0  0  0  0  0
   30.4900   34.6590   12.4790 C   0  0  0  0  0  0  0  0  0  0  0  0
   31.2780   35.7180   13.2240 C   0  0  1  0  0  0  0  0  0  0  0  0
   31.5940   35.2480   14.4930 O   0  0  0  0  0  0  0  0  0  0  0  0
   32.1660   35.9300   14.9380 H   0  0  0  0  0  0  0  0  0  0  0  0
   32.5650   36.0500   12.4630 C   0  0  0  0  0  0  0  0  0  0  0  0
   33.4280   34.9540   12.5180 O   0  0  0  0  0  0  0  0  0  0  0  0
   34.3710   35.2820   12.6220 H   0  0  0  0  0  0  0  0  0  0  0  0
   29.8670   25.5550   16.9770 C   0  0  0  0  0  0  0  0  0  0  0  0
   28.3450   25.7220   17.0260 C   0  0  0  0  0  0  0  0  0  0  0  0
   27.6000   24.4120   16.8190 C   0  0  0  0  0  0  0  0  0  0  0  0
   26.8600   23.9800   18.0540 C   0  0  0  0  0  0  0  0  0  0  0  0
   25.7810   25.0050   18.3860 C   0  0  0  0  0  0  0  0  0  0  0  0
   25.5690   25.0800   19.8510 N   0  0  0  0  0  0  0  0  0  0  0  0
  1  4  1  0  0  0  0
  1  5  1  0  0  0  0
  2  1  1  0  0  0  0
  3  2  2  0  0  0  0
  6  5  1  6  0  0  0
  6 29  1  0  0  0  0
  7 27  1  1  0  0  0
  7  6  1  0  0  0  0
  8  7  1  6  0  0  0
  8 13  1  0  0  0  0
  9 16  1  6  0  0  0
  9 10  1  0  0  0  0
 10 12  1  0  0  0  0
 11  9  1  0  0  0  0
 11  8  1  0  0  0  0
 12 20  1  6  0  0  0
 13 12  1  0  0  0  0
 13 22  1  1  0  0  0
 14 15  1  0  0  0  0
 14  9  1  0  0  0  0
 16 17  2  0  0  0  0
 18 16  1  0  0  0  0
 19 18  1  0  0  0  0
 21 20  1  0  0  0  0
 22 23  1  0  0  0  0
 22 24  1  0  0  0  0
 23 25  1  0  0  0  0
 26 23  2  0  0  0  0
 28 27  1  0  0  0  0
 30 29  1  0  0  0  0
 31 32  1  0  0  0  0
 31  2  1  0  0  0  0
 32 33  1  0  0  0  0
 33 35  1  0  0  0  0
 34 36  1  0  0  0  0
 34 33  2  0  0  0  0
 36 37  1  0  0  0  0
 37 35  2  0  0  0  0
 38 36  1  0  0  0  0
 38 39  1  0  0  0  0
 39 42  1  6  0  0  0
 39 40  1  0  0  0  0
 40 41  1  0  0  0  0
 42 43  1  0  0  0  0
 43 44  1  0  0  0  0
 45 46  1  0  0  0  0
 47 46  1  0  0  0  0
 47 48  1  0  0  0  0
 48 49  1  0  0  0  0
 49 50  1  0  0  0  0
M  END
>  <REMARK>
 VINA RESULT:    -4.722      2.893      4.535
 INTER + INTRA:         -14.478
 INTER:                  -8.400
 INTRA:                  -6.078
 UNBOUND:                -5.477
 SMILES CC(=O)N[C@@H]1[C@@H](O)C[C@](O)(C(=O)O)O[C@H]1C(O)[C@H](O)CNC(=O)OCc1cn(CC(O)CO)nn1
 SMILES IDX 21 1 22 2 23 3 20 5 18 6 16 7 15 8 9 9 8 10 14 11 6 12 5 13
 SMILES IDX 10 14 11 16 12 17 13 18 7 20 4 22 2 23 1 25 3 26 17 27 19 29
 SMILES IDX 24 31 25 32 26 33 27 34 35 35 28 36 34 37 29 38 30 39 31 40
 SMILES IDX 32 42 33 43
 H PARENT 21 4 10 15 13 19 7 21 4 24 17 28 19 30 31 41 33 44
 Flexibility Score: inf
  4 active torsions:
  status: ('A' for Active; 'I' for Inactive)
    1  A    between atoms: CA   and  CB  
    2  A    between atoms: CB   and  CG  
    3  A    between atoms: CG   and  CD  
    4  A    between atoms: CD   and  CE  

>  <TORSDO>
F 19

>  <BEGIN_>
RES LYS A 131

$$$$
ligand_50_pose_6_2HRL.pdbqt
 OpenBabel07062320523D

  6  5  0  0  0  0  0  0  0  0999 V2000
   33.1930   34.6630    9.2900 C   0  0  0  0  0  0  0  0  0  0  0  0
   32.0600   35.3600   10.0340 C   0  0  0  0  0  0  0  0  0  0  0  0
   30.8690   35.6700    9.1640 C   0  0  0  0  0  0  0  0  0  0  0  0
   30.2010   34.3870    8.6930 C   0  0  0  0  0  0  0  0  0  0  0  0
   28.8710   34.6920    8.0300 C   0  0  0  0  0  0  0  0  0  0  0  0
   28.6350   36.1600    7.9520 N   0  0  0  0  0  0  0  0  0  0  0  0
  1  2  1  0  0  0  0
  3  2  1  0  0  0  0
  4  3  1  0  0  0  0
  5  4  1  0  0  0  0
  6  5  1  0  0  0  0
M  END
>  <EGIN_R>
ES LYS A 135

>  <REMARK>
  4 active torsions:
  status: ('A' for Active; 'I' for Inactive)
    5  A    between atoms: CA   and  CB  
    6  A    between atoms: CB   and  CG  
    7  A    between atoms: CG   and  CD  
    8  A    between atoms: CD   and  CE  

$$$$
