ligand_67_pose_0_2HRL.pdbqt
 OpenBabel07062320523D

 50 51  0  0  1  0  0  0  0  0999 V2000
   25.9540   32.8270   15.0560 N   0  0  0  0  0  0  0  0  0  0  0  0
   25.3130   33.1100   13.8250 C   0  0  0  0  0  0  0  0  0  0  0  0
   24.5940   32.2060   13.2780 O   0  0  0  0  0  0  0  0  0  0  0  0
   26.5370   33.5510   15.5070 H   0  0  0  0  0  0  0  0  0  0  0  0
   25.7890   31.5480   15.6600 C   0  0  0  0  0  0  0  0  0  0  0  0
   26.7970   31.2510   16.7370 C   0  0  2  0  0  0  0  0  0  0  0  0
   28.1880   31.0790   16.2070 C   0  0  1  0  0  0  0  0  0  0  0  0
   28.9630   32.3740   16.3200 C   0  0  2  0  0  0  0  0  0  0  0  0
   29.8160   34.0640   14.9690 C   0  0  2  0  0  0  0  0  0  0  0  0
   31.0520   34.0690   15.8220 C   0  0  0  0  0  0  0  0  0  0  0  0
   29.0520   32.9310   15.0710 O   0  0  0  0  0  0  0  0  0  0  0  0
   31.4290   32.6270   16.0890 C   0  0  1  0  0  0  0  0  0  0  0  0
   30.3110   32.0320   16.9350 C   0  0  1  0  0  0  0  0  0  0  0  0
   30.2440   34.1420   13.6230 O   0  0  0  0  0  0  0  0  0  0  0  0
   30.1150   33.2970   13.1510 H   0  0  0  0  0  0  0  0  0  0  0  0
   29.0280   35.3160   15.1980 C   0  0  0  0  0  0  0  0  0  0  0  0
   29.4750   36.3260   15.7840 O   0  0  0  0  0  0  0  0  0  0  0  0
   27.7240   35.3360   14.7240 O   0  0  0  0  0  0  0  0  0  0  0  0
   27.4770   35.3030   13.7400 H   0  0  0  0  0  0  0  0  0  0  0  0
   31.4640   31.9470   14.8620 O   0  0  0  0  0  0  0  0  0  0  0  0
   32.0720   32.3780   14.2160 H   0  0  0  0  0  0  0  0  0  0  0  0
   30.4320   32.5650   18.2830 N   0  0  0  0  0  0  0  0  0  0  0  0
   30.5490   31.6660   19.3730 C   0  0  0  0  0  0  0  0  0  0  0  0
   30.4330   33.6110   18.4570 H   0  0  0  0  0  0  0  0  0  0  0  0
   30.6760   32.1110   20.7840 C   0  0  0  0  0  0  0  0  0  0  0  0
   30.5460   30.4260   19.1200 O   0  0  0  0  0  0  0  0  0  0  0  0
   28.8370   30.0130   16.8290 O   0  0  0  0  0  0  0  0  0  0  0  0
   28.3710   29.6740   17.6230 H   0  0  0  0  0  0  0  0  0  0  0  0
   26.4100   30.1040   17.4140 O   0  0  0  0  0  0  0  0  0  0  0  0
   25.9780   30.2760   18.2700 H   0  0  0  0  0  0  0  0  0  0  0  0
   25.4030   34.2990   13.1590 O   0  0  0  0  0  0  0  0  0  0  0  0
   25.4540   34.4670   11.7560 C   0  0  0  0  0  0  0  0  0  0  0  0
   26.8430   34.4900   11.2400 C   0  0  0  0  0  0  0  0  0  0  0  0
   27.2570   34.1240    9.9810 C   0  0  0  0  0  0  0  0  0  0  0  0
   27.9510   34.8650   11.8990 N   0  0  0  0  0  0  0  0  0  0  0  0
   28.5960   34.2870    9.9110 N   0  0  0  0  0  0  0  0  0  0  0  0
   28.9900   34.7370   11.0880 N   0  0  0  0  0  0  0  0  0  0  0  0
   29.4850   34.0380    8.7840 C   0  0  0  0  0  0  0  0  0  0  0  0
   30.2160   35.3050    8.3930 C   0  0  0  0  0  0  0  0  0  0  0  0
   29.3400   36.2140    7.5990 C   0  0  0  0  0  0  0  0  0  0  0  0
   28.5490   37.0580    8.3680 O   0  0  0  0  0  0  0  0  0  0  0  0
   28.4880   35.5610    6.7210 O   0  0  0  0  0  0  0  0  0  0  0  0
   27.4780   37.4340    7.5610 C   0  0  0  0  0  0  0  0  0  0  0  0
   27.3980   36.3700    6.5070 C   0  0  0  0  0  0  0  0  0  0  0  0
   29.8670   25.5550   16.9770 C   0  0  0  0  0  0  0  0  0  0  0  0
   28.3450   25.7220   17.0260 C   0  0  0  0  0  0  0  0  0  0  0  0
   27.6010   24.4030   16.8870 C   0  0  0  0  0  0  0  0  0  0  0  0
   26.3810   24.3450   17.7630 C   0  0  0  0  0  0  0  0  0  0  0  0
   26.1040   25.7300   18.3410 C   0  0  0  0  0  0  0  0  0  0  0  0
   25.7720   25.6330   19.7830 N   0  0  0  0  0  0  0  0  0  0  0  0
  1  4  1  0  0  0  0
  1  5  1  0  0  0  0
  2  1  1  0  0  0  0
  3  2  2  0  0  0  0
  6  5  1  6  0  0  0
  6 29  1  0  0  0  0
  7  6  1  0  0  0  0
  7 27  1  1  0  0  0
  8  7  1  6  0  0  0
  8 13  1  0  0  0  0
  9 14  1  6  0  0  0
  9 11  1  0  0  0  0
  9 16  1  0  0  0  0
  9 10  1  0  0  0  0
 10 12  1  0  0  0  0
 11  8  1  0  0  0  0
 12 20  1  6  0  0  0
 12 13  1  0  0  0  0
 13 22  1  1  0  0  0
 15 14  1  0  0  0  0
 16 17  2  0  0  0  0
 18 16  1  0  0  0  0
 19 18  1  0  0  0  0
 21 20  1  0  0  0  0
 22 24  1  0  0  0  0
 22 23  1  0  0  0  0
 23 25  1  0  0  0  0
 26 23  2  0  0  0  0
 27 28  1  0  0  0  0
 29 30  1  0  0  0  0
 31  2  1  0  0  0  0
 32 31  1  0  0  0  0
 33 32  1  0  0  0  0
 33 35  1  0  0  0  0
 34 33  2  0  0  0  0
 36 34  1  0  0  0  0
 36 37  1  0  0  0  0
 37 35  2  0  0  0  0
 38 36  1  0  0  0  0
 39 38  1  0  0  0  0
 40 41  1  0  0  0  0
 40 39  1  0  0  0  0
 42 40  1  0  0  0  0
 43 41  1  0  0  0  0
 44 42  1  0  0  0  0
 44 43  1  0  0  0  0
 45 46  1  0  0  0  0
 47 46  1  0  0  0  0
 47 48  1  0  0  0  0
 48 49  1  0  0  0  0
 49 50  1  0  0  0  0
M  END
>  <REMARK>
 VINA RESULT:    -4.685      0.000      0.000
 INTER + INTRA:         -14.949
 INTER:                  -9.746
 INTRA:                  -5.203
 UNBOUND:                -6.292
 SMILES CC(=O)N[C@@H]1[C@@H](O)C[C@](O)(C(=O)O)O[C@H]1C(O)[C@H](O)CNC(=O)OCc1cn(CCC2OCCO2)nn1
 SMILES IDX 21 1 22 2 23 3 20 5 18 6 16 7 15 8 9 9 8 10 14 11 6 12 5 13
 SMILES IDX 10 14 11 16 12 17 13 18 7 20 4 22 2 23 1 25 3 26 17 27 19 29
 SMILES IDX 24 31 25 32 26 33 27 34 37 35 28 36 36 37 29 38 30 39 31 40
 SMILES IDX 32 41 35 42 33 43 34 44
 H PARENT 21 4 10 15 13 19 7 21 4 24 17 28 19 30
 Flexibility Score: inf
  4 active torsions:
  status: ('A' for Active; 'I' for Inactive)
    1  A    between atoms: CA   and  CB  
    2  A    between atoms: CB   and  CG  
    3  A    between atoms: CG   and  CD  
    4  A    between atoms: CD   and  CE  

>  <TORSDO>
F 17

>  <BEGIN_>
RES LYS A 131

$$$$
ligand_67_pose_0_2HRL.pdbqt
 OpenBabel07062320523D

  6  5  0  0  0  0  0  0  0  0999 V2000
   33.1930   34.6630    9.2900 C   0  0  0  0  0  0  0  0  0  0  0  0
   32.0600   35.3600   10.0340 C   0  0  0  0  0  0  0  0  0  0  0  0
   32.5120   36.0890   11.2730 C   0  0  0  0  0  0  0  0  0  0  0  0
   31.7440   37.3910   11.4400 C   0  0  0  0  0  0  0  0  0  0  0  0
   31.4390   37.6470   12.9030 C   0  0  0  0  0  0  0  0  0  0  0  0
   32.2370   36.7470   13.7820 N   0  0  0  0  0  0  0  0  0  0  0  0
  1  2  1  0  0  0  0
  2  3  1  0  0  0  0
  3  4  1  0  0  0  0
  4  5  1  0  0  0  0
  5  6  1  0  0  0  0
M  END
>  <EGIN_R>
ES LYS A 135

>  <REMARK>
  4 active torsions:
  status: ('A' for Active; 'I' for Inactive)
    5  A    between atoms: CA   and  CB  
    6  A    between atoms: CB   and  CG  
    7  A    between atoms: CG   and  CD  
    8  A    between atoms: CD   and  CE  

$$$$
