ligand_7_pose_15_2HRL.pdbqt
 OpenBabel07062320523D

 52 53  0  0  1  0  0  0  0  0999 V2000
   27.8420   37.8770   15.7010 C   0  0  0  0  0  0  0  0  0  0  0  0
   28.6020   36.6110   15.5340 C   0  0  2  0  0  0  0  0  0  0  0  0
   30.0480   36.6730   15.9090 C   0  0  1  0  0  0  0  0  0  0  0  0
   31.0100   36.7920   14.7870 C   0  0  2  0  0  0  0  0  0  0  0  0
   31.0210   37.7510   12.6540 C   0  0  2  0  0  0  0  0  0  0  0  0
   32.2510   36.9720   12.2860 C   0  0  0  0  0  0  0  0  0  0  0  0
   30.7980   37.8790   13.9920 O   0  0  0  0  0  0  0  0  0  0  0  0
   32.5140   35.8040   13.1750 C   0  0  1  0  0  0  0  0  0  0  0  0
   31.2470   35.5340   14.0070 C   0  0  1  0  0  0  0  0  0  0  0  0
   29.9330   37.1490   12.0270 O   0  0  0  0  0  0  0  0  0  0  0  0
   30.0120   36.1620   12.1680 H   0  0  0  0  0  0  0  0  0  0  0  0
   31.1930   39.1150   12.0880 C   0  0  0  0  0  0  0  0  0  0  0  0
   31.4090   39.2740   10.8700 O   0  0  0  0  0  0  0  0  0  0  0  0
   31.1170   40.2470   12.9100 O   0  0  0  0  0  0  0  0  0  0  0  0
   30.2950   40.3520   13.5230 H   0  0  0  0  0  0  0  0  0  0  0  0
   32.9480   34.6690   12.5200 O   0  0  0  0  0  0  0  0  0  0  0  0
   33.9130   34.5380   12.7620 H   0  0  0  0  0  0  0  0  0  0  0  0
   31.5910   34.4230   14.8550 N   0  0  0  0  0  0  0  0  0  0  0  0
   30.7070   33.3120   14.9020 C   0  0  0  0  0  0  0  0  0  0  0  0
   32.4650   34.4040   15.4360 H   0  0  0  0  0  0  0  0  0  0  0  0
   30.9700   32.1180   15.7480 C   0  0  0  0  0  0  0  0  0  0  0  0
   29.6540   33.3060   14.2160 O   0  0  0  0  0  0  0  0  0  0  0  0
   30.2180   37.7420   16.7840 O   0  0  0  0  0  0  0  0  0  0  0  0
   29.3980   38.2950   16.7480 H   0  0  0  0  0  0  0  0  0  0  0  0
   28.3990   36.0590   14.2670 O   0  0  0  0  0  0  0  0  0  0  0  0
   29.0070   35.2980   14.0930 H   0  0  0  0  0  0  0  0  0  0  0  0
   27.2830   38.3720   14.4600 N   0  0  0  0  0  0  0  0  0  0  0  0
   27.6770   39.6050   13.8670 C   0  0  0  0  0  0  0  0  0  0  0  0
   26.5400   37.8370   13.9180 H   0  0  0  0  0  0  0  0  0  0  0  0
   28.5390   40.3170   14.4130 O   0  0  0  0  0  0  0  0  0  0  0  0
   27.1100   40.0410   12.6660 O   0  0  0  0  0  0  0  0  0  0  0  0
   27.8680   39.9170   11.4530 C   0  0  0  0  0  0  0  0  0  0  0  0
   27.2170   38.8880   10.6030 C   0  0  0  0  0  0  0  0  0  0  0  0
   25.8520   38.6880   10.4840 C   0  0  0  0  0  0  0  0  0  0  0  0
   27.7840   37.9860    9.8150 N   0  0  0  0  0  0  0  0  0  0  0  0
   25.6240   37.6820    9.6370 N   0  0  0  0  0  0  0  0  0  0  0  0
   26.8460   37.2800    9.2490 N   0  0  0  0  0  0  0  0  0  0  0  0
   24.3970   37.1130    9.1990 C   0  0  0  0  0  0  0  0  0  0  0  0
   23.8950   35.9870    9.8130 C   0  0  0  0  0  0  0  0  0  0  0  0
   23.6700   37.6590    8.1530 C   0  0  0  0  0  0  0  0  0  0  0  0
   24.6520   35.3860   10.9340 C   0  0  0  0  0  0  0  0  0  0  0  0
   22.6860   35.4290    9.3780 C   0  0  0  0  0  0  0  0  0  0  0  0
   22.4780   37.1010    7.7320 C   0  0  0  0  0  0  0  0  0  0  0  0
   24.2340   38.8900    7.4940 C   0  0  0  0  0  0  0  0  0  0  0  0
   21.9650   35.9750    8.3370 C   0  0  0  0  0  0  0  0  0  0  0  0
   20.6780   35.3600    7.8930 C   0  0  0  0  0  0  0  0  0  0  0  0
   29.8670   25.5550   16.9770 C   0  0  0  0  0  0  0  0  0  0  0  0
   28.3450   25.7220   17.0260 C   0  0  0  0  0  0  0  0  0  0  0  0
   27.6010   24.4060   16.8580 C   0  0  0  0  0  0  0  0  0  0  0  0
   26.1670   24.5060   17.2990 C   0  0  0  0  0  0  0  0  0  0  0  0
   25.9800   23.7320   18.6000 C   0  0  0  0  0  0  0  0  0  0  0  0
   24.7050   24.1150   19.2530 N   0  0  0  0  0  0  0  0  0  0  0  0
  2  1  1  6  0  0  0
  2  3  1  0  0  0  0
  3 23  1  1  0  0  0
  4  3  1  1  0  0  0
  5 10  1  6  0  0  0
  5  7  1  0  0  0  0
  6  5  1  0  0  0  0
  6  8  1  0  0  0  0
  7  4  1  0  0  0  0
  8 16  1  6  0  0  0
  8  9  1  0  0  0  0
  9  4  1  0  0  0  0
  9 18  1  1  0  0  0
 10 11  1  0  0  0  0
 12  5  1  0  0  0  0
 12 14  1  0  0  0  0
 13 12  2  0  0  0  0
 14 15  1  0  0  0  0
 16 17  1  0  0  0  0
 18 19  1  0  0  0  0
 18 20  1  0  0  0  0
 19 21  1  0  0  0  0
 22 19  2  0  0  0  0
 24 23  1  0  0  0  0
 25  2  1  0  0  0  0
 26 25  1  0  0  0  0
 27  1  1  0  0  0  0
 28 30  2  0  0  0  0
 28 27  1  0  0  0  0
 29 27  1  0  0  0  0
 31 28  1  0  0  0  0
 32 31  1  0  0  0  0
 33 32  1  0  0  0  0
 34 33  2  0  0  0  0
 35 33  1  0  0  0  0
 36 34  1  0  0  0  0
 37 36  1  0  0  0  0
 37 35  2  0  0  0  0
 38 36  1  0  0  0  0
 38 39  2  0  0  0  0
 39 41  1  0  0  0  0
 40 38  1  0  0  0  0
 42 39  1  0  0  0  0
 43 40  2  0  0  0  0
 43 45  1  0  0  0  0
 44 40  1  0  0  0  0
 45 42  2  0  0  0  0
 46 45  1  0  0  0  0
 47 48  1  0  0  0  0
 49 48  1  0  0  0  0
 49 50  1  0  0  0  0
 50 51  1  0  0  0  0
 51 52  1  0  0  0  0
M  END
>  <REMARK>
 VINA RESULT:    -4.618      5.523     10.265
 INTER + INTRA:         -13.910
 INTER:                  -7.993
 INTRA:                  -5.917
 UNBOUND:                -5.917
 SMILES CC(=O)N[C@@H]1[C@@H](O)C[C@](O)(C(=O)O)O[C@H]1C(O)[C@H](O)CNC(=O)OCc1cn(-c2c(C)cc(C)cc2C)nn1
 SMILES IDX 20 1 18 2 16 3 15 4 9 5 8 6 14 7 6 8 5 9 10 10 11 12 12 13
 SMILES IDX 13 14 7 16 4 18 2 19 1 21 3 22 17 23 19 25 21 27 22 28 23 30
 SMILES IDX 24 31 25 32 26 33 27 34 39 35 28 36 38 37 29 38 30 39 36 40
 SMILES IDX 31 41 32 42 35 43 37 44 33 45 34 46
 H PARENT 10 11 13 15 7 17 4 20 17 24 19 26 21 29
 Flexibility Score: inf
  4 active torsions:
  status: ('A' for Active; 'I' for Inactive)
    1  A    between atoms: CA   and  CB  
    2  A    between atoms: CB   and  CG  
    3  A    between atoms: CG   and  CD  
    4  A    between atoms: CD   and  CE  

>  <TORSDO>
F 15

>  <BEGIN_>
RES LYS A 131

$$$$
ligand_7_pose_15_2HRL.pdbqt
 OpenBabel07062320523D

  6  5  0  0  0  0  0  0  0  0999 V2000
   33.1930   34.6630    9.2900 C   0  0  0  0  0  0  0  0  0  0  0  0
   32.0600   35.3600   10.0340 C   0  0  0  0  0  0  0  0  0  0  0  0
   30.8020   35.5040    9.2170 C   0  0  0  0  0  0  0  0  0  0  0  0
   30.1530   34.1470    8.9880 C   0  0  0  0  0  0  0  0  0  0  0  0
   28.6960   34.3120    8.6010 C   0  0  0  0  0  0  0  0  0  0  0  0
   27.7980   33.6940    9.6150 N   0  0  0  0  0  0  0  0  0  0  0  0
  1  2  1  0  0  0  0
  3  2  1  0  0  0  0
  4  3  1  0  0  0  0
  5  4  1  0  0  0  0
  5  6  1  0  0  0  0
M  END
>  <EGIN_R>
ES LYS A 135

>  <REMARK>
  4 active torsions:
  status: ('A' for Active; 'I' for Inactive)
    5  A    between atoms: CA   and  CB  
    6  A    between atoms: CB   and  CG  
    7  A    between atoms: CG   and  CD  
    8  A    between atoms: CD   and  CE  

$$$$
