ligand_6_pose_6_2HRL.pdbqt
 OpenBabel07062320523D

 52 53  0  0  1  0  0  0  0  0999 V2000
   26.5690   28.6040   19.1970 N   0  0  0  0  0  0  0  0  0  0  0  0
   25.4070   28.3310   18.4520 C   0  0  0  0  0  0  0  0  0  0  0  0
   24.4380   27.6970   18.9080 O   0  0  0  0  0  0  0  0  0  0  0  0
   27.3260   29.1860   18.6960 H   0  0  0  0  0  0  0  0  0  0  0  0
   26.8040   28.1730   20.5190 C   0  0  0  0  0  0  0  0  0  0  0  0
   27.8760   27.2010   20.8110 C   0  0  2  0  0  0  0  0  0  0  0  0
   28.8520   27.3940   21.8780 C   0  0  2  0  0  0  0  0  0  0  0  0
   29.3890   28.8290   21.9300 C   0  0  2  0  0  0  0  0  0  0  0  0
   30.7760   30.2120   20.6750 C   0  0  2  0  0  0  0  0  0  0  0  0
   30.4770   31.1850   21.7920 C   0  0  0  0  0  0  0  0  0  0  0  0
   29.9570   29.1060   20.6680 O   0  0  0  0  0  0  0  0  0  0  0  0
   30.5670   30.5590   23.1480 C   0  0  1  0  0  0  0  0  0  0  0  0
   30.4570   29.0360   22.9410 C   0  0  1  0  0  0  0  0  0  0  0  0
   32.1210   29.8940   20.7520 O   0  0  0  0  0  0  0  0  0  0  0  0
   32.2150   28.9420   20.9530 H   0  0  0  0  0  0  0  0  0  0  0  0
   30.5410   30.9430   19.4020 C   0  0  0  0  0  0  0  0  0  0  0  0
   30.7830   32.1740   19.3130 O   0  0  0  0  0  0  0  0  0  0  0  0
   30.0520   30.2900   18.2830 O   0  0  0  0  0  0  0  0  0  0  0  0
   29.2610   30.6510   17.7450 H   0  0  0  0  0  0  0  0  0  0  0  0
   31.7010   30.8850   23.8550 O   0  0  0  0  0  0  0  0  0  0  0  0
   31.4400   31.0600   24.7940 H   0  0  0  0  0  0  0  0  0  0  0  0
   30.1750   28.4960   24.2540 N   0  0  0  0  0  0  0  0  0  0  0  0
   31.0040   27.4670   24.8120 C   0  0  0  0  0  0  0  0  0  0  0  0
   29.3820   28.8190   24.8410 H   0  0  0  0  0  0  0  0  0  0  0  0
   30.7760   26.8700   26.1460 C   0  0  0  0  0  0  0  0  0  0  0  0
   31.9640   27.0660   24.1210 O   0  0  0  0  0  0  0  0  0  0  0  0
   29.8740   26.4830   21.8120 O   0  0  0  0  0  0  0  0  0  0  0  0
   29.6530   25.6050   21.4280 H   0  0  0  0  0  0  0  0  0  0  0  0
   28.4810   26.9250   19.5510 O   0  0  0  0  0  0  0  0  0  0  0  0
   29.4600   26.8150   19.6670 H   0  0  0  0  0  0  0  0  0  0  0  0
   25.3610   28.8110   17.1240 O   0  0  0  0  0  0  0  0  0  0  0  0
   25.5570   30.2010   16.9570 C   0  0  0  0  0  0  0  0  0  0  0  0
   26.9370   30.4640   16.4230 C   0  0  0  0  0  0  0  0  0  0  0  0
   27.4990   31.6850   16.1170 C   0  0  0  0  0  0  0  0  0  0  0  0
   27.9040   29.5600   16.1340 N   0  0  0  0  0  0  0  0  0  0  0  0
   28.7620   31.5100   15.6610 N   0  0  0  0  0  0  0  0  0  0  0  0
   28.9550   30.2080   15.6910 N   0  0  0  0  0  0  0  0  0  0  0  0
   29.6700   32.5250   15.2400 C   0  0  0  0  0  0  0  0  0  0  0  0
   29.2710   33.5880   14.4580 C   0  0  0  0  0  0  0  0  0  0  0  0
   31.0030   32.4860   15.6060 C   0  0  0  0  0  0  0  0  0  0  0  0
   30.1680   34.5610   14.0630 C   0  0  0  0  0  0  0  0  0  0  0  0
   31.9000   33.4590   15.2120 C   0  0  0  0  0  0  0  0  0  0  0  0
   31.5050   34.5230   14.4290 C   0  0  0  0  0  0  0  0  0  0  0  0
   32.4290   35.5160   14.0300 N   0  0  0  0  0  0  0  0  0  0  0  0
   32.6680   36.4540   14.8090 O   0  0  0  0  0  0  0  0  0  0  0  0
   33.0840   35.5060   12.8310 O   0  0  0  0  0  0  0  0  0  0  0  0
   29.8670   25.5550   16.9770 C   0  0  0  0  0  0  0  0  0  0  0  0
   28.3450   25.7220   17.0260 C   0  0  0  0  0  0  0  0  0  0  0  0
   27.6070   24.3950   17.1120 C   0  0  0  0  0  0  0  0  0  0  0  0
   26.3360   24.5030   17.9070 C   0  0  0  0  0  0  0  0  0  0  0  0
   25.1890   23.8770   17.1210 C   0  0  0  0  0  0  0  0  0  0  0  0
   23.9900   24.7470   17.1720 N   0  0  0  0  0  0  0  0  0  0  0  0
  1  5  1  0  0  0  0
  2  3  2  0  0  0  0
  2  1  1  0  0  0  0
  4  1  1  0  0  0  0
  6  5  1  6  0  0  0
  6  7  1  0  0  0  0
  7 27  1  6  0  0  0
  8  7  1  6  0  0  0
  8 13  1  0  0  0  0
  9 16  1  6  0  0  0
  9 14  1  0  0  0  0
  9 10  1  0  0  0  0
 10 12  1  0  0  0  0
 11  9  1  0  0  0  0
 11  8  1  0  0  0  0
 12 20  1  6  0  0  0
 13 12  1  0  0  0  0
 13 22  1  1  0  0  0
 14 15  1  0  0  0  0
 17 16  2  0  0  0  0
 18 16  1  0  0  0  0
 19 18  1  0  0  0  0
 20 21  1  0  0  0  0
 22 23  1  0  0  0  0
 22 24  1  0  0  0  0
 23 25  1  0  0  0  0
 26 23  2  0  0  0  0
 28 27  1  0  0  0  0
 29 30  1  0  0  0  0
 29  6  1  0  0  0  0
 31  2  1  0  0  0  0
 32 31  1  0  0  0  0
 33 32  1  0  0  0  0
 34 33  2  0  0  0  0
 35 33  1  0  0  0  0
 36 37  1  0  0  0  0
 36 34  1  0  0  0  0
 37 35  2  0  0  0  0
 38 40  1  0  0  0  0
 38 36  1  0  0  0  0
 39 38  2  0  0  0  0
 41 43  2  0  0  0  0
 41 39  1  0  0  0  0
 42 40  2  0  0  0  0
 43 42  1  0  0  0  0
 44 43  1  0  0  0  0
 44 45  2  0  0  0  0
 46 44  2  0  0  0  0
 47 48  1  0  0  0  0
 48 49  1  0  0  0  0
 49 50  1  0  0  0  0
 51 52  1  0  0  0  0
 51 50  1  0  0  0  0
M  END
>  <REMARK>
 VINA RESULT:    -5.538      2.527      3.886
 INTER + INTRA:         -14.658
 INTER:                  -9.067
 INTRA:                  -5.591
 UNBOUND:                -4.749
 SMILES CC(=O)N[C@@H]1[C@@H](O)C[C@](O)(C(=O)O)O[C@H]1C(O)[C@H](O)CNC(=O)OCc1cn(-c2ccc([N+](=O)[O-])cc2)nn1
 SMILES IDX 21 1 22 2 23 3 20 5 18 6 16 7 15 8 9 9 8 10 14 11 6 12 5 13
 SMILES IDX 10 14 11 16 12 17 13 18 7 20 4 22 2 23 1 25 3 26 17 27 19 29
 SMILES IDX 24 31 25 32 26 33 27 34 39 35 28 36 38 37 29 38 30 39 37 40
 SMILES IDX 31 41 36 42 32 43 33 44 34 45 35 46
 H PARENT 21 4 10 15 13 19 7 21 4 24 17 28 19 30
 Flexibility Score: inf
  4 active torsions:
  status: ('A' for Active; 'I' for Inactive)
    1  A    between atoms: CA   and  CB  
    2  A    between atoms: CB   and  CG  
    3  A    between atoms: CG   and  CD  
    4  A    between atoms: CD   and  CE  

>  <TORSDO>
F 16

>  <BEGIN_>
RES LYS A 131

$$$$
ligand_6_pose_6_2HRL.pdbqt
 OpenBabel07062320523D

  6  5  0  0  0  0  0  0  0  0999 V2000
   33.1930   34.6630    9.2900 C   0  0  0  0  0  0  0  0  0  0  0  0
   32.0600   35.3600   10.0340 C   0  0  0  0  0  0  0  0  0  0  0  0
   30.7210   34.6930    9.8530 C   0  0  0  0  0  0  0  0  0  0  0  0
   30.2730   34.7720    8.4020 C   0  0  0  0  0  0  0  0  0  0  0  0
   28.7820   34.5200    8.2900 C   0  0  0  0  0  0  0  0  0  0  0  0
   28.2590   33.8420    9.5080 N   0  0  0  0  0  0  0  0  0  0  0  0
  1  2  1  0  0  0  0
  3  2  1  0  0  0  0
  4  3  1  0  0  0  0
  5  4  1  0  0  0  0
  5  6  1  0  0  0  0
M  END
>  <EGIN_R>
ES LYS A 135

>  <REMARK>
  4 active torsions:
  status: ('A' for Active; 'I' for Inactive)
    5  A    between atoms: CA   and  CB  
    6  A    between atoms: CB   and  CG  
    7  A    between atoms: CG   and  CD  
    8  A    between atoms: CD   and  CE  

$$$$
