ligand_63_pose_9_2HRL.pdbqt
 OpenBabel07062320523D

 51 52  0  0  1  0  0  0  0  0999 V2000
   30.2720   34.9010   15.1330 N   0  0  0  0  0  0  0  0  0  0  0  0
   29.3140   35.9700   15.1780 C   0  0  0  0  0  0  0  0  0  0  0  0
   28.3320   35.9280   15.9270 O   0  0  0  0  0  0  0  0  0  0  0  0
   31.0780   35.0970   14.4510 H   0  0  0  0  0  0  0  0  0  0  0  0
   30.2240   33.7530   15.9040 C   0  0  0  0  0  0  0  0  0  0  0  0
   29.8150   32.4280   15.2130 C   0  0  2  0  0  0  0  0  0  0  0  0
   28.4570   32.1560   15.7350 C   0  0  1  0  0  0  0  0  0  0  0  0
   28.0310   30.7560   15.9930 C   0  0  2  0  0  0  0  0  0  0  0  0
   25.7360   30.3030   16.2350 C   0  0  2  0  0  0  0  0  0  0  0  0
   25.9530   29.0110   16.9850 C   0  0  0  0  0  0  0  0  0  0  0  0
   26.7780   30.5740   15.3460 O   0  0  0  0  0  0  0  0  0  0  0  0
   27.4560   28.8060   17.2640 C   0  0  1  0  0  0  0  0  0  0  0  0
   27.9960   30.2530   17.3640 C   0  0  1  0  0  0  0  0  0  0  0  0
   25.4610   31.3370   17.1160 O   0  0  0  0  0  0  0  0  0  0  0  0
   26.1530   32.0120   17.1820 H   0  0  0  0  0  0  0  0  0  0  0  0
   24.5710   30.0670   15.3580 C   0  0  0  0  0  0  0  0  0  0  0  0
   23.6400   29.3650   15.4600 O   0  0  0  0  0  0  0  0  0  0  0  0
   24.6280   30.8960   14.1340 O   0  0  0  0  0  0  0  0  0  0  0  0
   25.3210   30.6040   13.4410 H   0  0  0  0  0  0  0  0  0  0  0  0
   27.6540   28.1100   18.4290 O   0  0  0  0  0  0  0  0  0  0  0  0
   27.9140   28.6950   19.1620 H   0  0  0  0  0  0  0  0  0  0  0  0
   29.3170   30.1640   18.0030 N   0  0  0  0  0  0  0  0  0  0  0  0
   29.6020   31.0280   19.0720 C   0  0  0  0  0  0  0  0  0  0  0  0
   29.9790   29.4840   17.6840 H   0  0  0  0  0  0  0  0  0  0  0  0
   30.6990   31.2310   19.9440 C   0  0  0  0  0  0  0  0  0  0  0  0
   28.5210   31.8320   19.2850 O   0  0  0  0  0  0  0  0  0  0  0  0
   28.0590   33.1090   16.6260 O   0  0  0  0  0  0  0  0  0  0  0  0
   27.8810   33.9870   16.1960 H   0  0  0  0  0  0  0  0  0  0  0  0
   30.8180   31.5470   15.5060 O   0  0  0  0  0  0  0  0  0  0  0  0
   30.5750   31.0230   16.3100 H   0  0  0  0  0  0  0  0  0  0  0  0
   29.5100   37.0800   14.3530 O   0  0  0  0  0  0  0  0  0  0  0  0
   29.9480   36.9220   12.9870 C   0  0  0  0  0  0  0  0  0  0  0  0
   28.8250   36.1260   12.3680 C   0  0  0  0  0  0  0  0  0  0  0  0
   27.6280   36.6120   11.9320 C   0  0  0  0  0  0  0  0  0  0  0  0
   28.8850   34.8270   12.0780 N   0  0  0  0  0  0  0  0  0  0  0  0
   26.9840   35.5470   11.3640 N   0  0  0  0  0  0  0  0  0  0  0  0
   27.7860   34.4780   11.4740 N   0  0  0  0  0  0  0  0  0  0  0  0
   25.7350   35.5490   10.7520 C   0  0  0  0  0  0  0  0  0  0  0  0
   25.5470   36.2020    9.5310 N   0  0  0  0  0  0  0  0  0  0  0  0
   24.5730   35.0310   11.2860 C   0  0  0  0  0  0  0  0  0  0  0  0
   24.3910   36.2800    9.0190 C   0  0  0  0  0  0  0  0  0  0  0  0
   23.3720   35.1230   10.7420 C   0  0  0  0  0  0  0  0  0  0  0  0
   23.1520   35.7840    9.4980 C   0  0  0  0  0  0  0  0  0  0  0  0
   24.6640   34.3670   12.6440 C   0  0  0  0  0  0  0  0  0  0  0  0
   24.7360   33.9120   13.5430 N   0  0  0  0  0  0  0  0  0  0  0  0
   29.8670   25.5550   16.9770 C   0  0  0  0  0  0  0  0  0  0  0  0
   28.3450   25.7220   17.0260 C   0  0  0  0  0  0  0  0  0  0  0  0
   27.6010   24.4040   16.8780 C   0  0  0  0  0  0  0  0  0  0  0  0
   26.1520   24.5250   17.2610 C   0  0  0  0  0  0  0  0  0  0  0  0
   25.6390   23.1730   17.7460 C   0  0  0  0  0  0  0  0  0  0  0  0
   25.5250   23.1620   19.2240 N   0  0  0  0  0  0  0  0  0  0  0  0
  1  2  1  0  0  0  0
  1  5  1  0  0  0  0
  2  3  2  0  0  0  0
  4  1  1  0  0  0  0
  6 29  1  0  0  0  0
  6  7  1  0  0  0  0
  6  5  1  1  0  0  0
  7 27  1  1  0  0  0
  8  7  1  1  0  0  0
  8 13  1  0  0  0  0
  9 16  1  6  0  0  0
  9 10  1  0  0  0  0
  9 14  1  0  0  0  0
 10 12  1  0  0  0  0
 11  8  1  0  0  0  0
 11  9  1  0  0  0  0
 12 13  1  0  0  0  0
 12 20  1  1  0  0  0
 13 22  1  6  0  0  0
 14 15  1  0  0  0  0
 16 17  2  0  0  0  0
 18 16  1  0  0  0  0
 19 18  1  0  0  0  0
 20 21  1  0  0  0  0
 22 23  1  0  0  0  0
 23 26  2  0  0  0  0
 23 25  1  0  0  0  0
 24 22  1  0  0  0  0
 28 27  1  0  0  0  0
 29 30  1  0  0  0  0
 31  2  1  0  0  0  0
 32 31  1  0  0  0  0
 33 32  1  0  0  0  0
 34 33  2  0  0  0  0
 35 33  1  0  0  0  0
 36 37  1  0  0  0  0
 36 34  1  0  0  0  0
 37 35  2  0  0  0  0
 38 40  1  0  0  0  0
 38 36  1  0  0  0  0
 39 38  2  0  0  0  0
 40 44  1  0  0  0  0
 41 43  2  0  0  0  0
 41 39  1  0  0  0  0
 42 40  2  0  0  0  0
 43 42  1  0  0  0  0
 44 45  3  0  0  0  0
 46 47  1  0  0  0  0
 48 47  1  0  0  0  0
 48 49  1  0  0  0  0
 49 50  1  0  0  0  0
 50 51  1  0  0  0  0
M  END
>  <REMARK>
 VINA RESULT:    -4.141      4.218      8.943
 INTER + INTRA:         -14.451
 INTER:                  -8.251
 INTRA:                  -6.199
 UNBOUND:                -7.042
 SMILES CC(=O)N[C@@H]1[C@@H](O)C[C@](O)(C(=O)O)O[C@H]1C(O)[C@H](O)CNC(=O)OCc1cn(-c2ncccc2C#N)nn1
 SMILES IDX 21 1 22 2 23 3 20 5 18 6 16 7 15 8 9 9 8 10 14 11 6 12 5 13
 SMILES IDX 10 14 11 16 12 17 13 18 7 20 4 22 2 23 1 25 3 26 17 27 19 29
 SMILES IDX 24 31 25 32 26 33 27 34 38 35 28 36 37 37 29 38 30 39 34 40
 SMILES IDX 31 41 33 42 32 43 35 44 36 45
 H PARENT 21 4 10 15 13 19 7 21 4 24 17 28 19 30
 Flexibility Score: inf
  4 active torsions:
  status: ('A' for Active; 'I' for Inactive)
    1  A    between atoms: CA   and  CB  
    2  A    between atoms: CB   and  CG  
    3  A    between atoms: CG   and  CD  
    4  A    between atoms: CD   and  CE  

>  <TORSDO>
F 16

>  <BEGIN_>
RES LYS A 131

$$$$
ligand_63_pose_9_2HRL.pdbqt
 OpenBabel07062320523D

  6  5  0  0  0  0  0  0  0  0999 V2000
   33.1930   34.6630    9.2900 C   0  0  0  0  0  0  0  0  0  0  0  0
   32.0600   35.3600   10.0340 C   0  0  0  0  0  0  0  0  0  0  0  0
   30.8520   35.6300    9.1750 C   0  0  0  0  0  0  0  0  0  0  0  0
   30.2040   34.3270    8.7340 C   0  0  0  0  0  0  0  0  0  0  0  0
   28.8500   34.5910    8.1050 C   0  0  0  0  0  0  0  0  0  0  0  0
   28.5960   36.0520    7.9720 N   0  0  0  0  0  0  0  0  0  0  0  0
  1  2  1  0  0  0  0
  3  2  1  0  0  0  0
  4  3  1  0  0  0  0
  5  4  1  0  0  0  0
  6  5  1  0  0  0  0
M  END
>  <EGIN_R>
ES LYS A 135

>  <REMARK>
  4 active torsions:
  status: ('A' for Active; 'I' for Inactive)
    5  A    between atoms: CA   and  CB  
    6  A    between atoms: CB   and  CG  
    7  A    between atoms: CG   and  CD  
    8  A    between atoms: CD   and  CE  

$$$$
