ligand_61_pose_3_2HRL.pdbqt
 OpenBabel07062320523D

 49 50  0  0  1  0  0  0  0  0999 V2000
   29.5780   27.0250   20.2990 N   0  0  0  0  0  0  0  0  0  0  0  0
   28.3430   27.7130   20.2840 C   0  0  0  0  0  0  0  0  0  0  0  0
   27.9640   28.3080   21.3180 O   0  0  0  0  0  0  0  0  0  0  0  0
   29.8510   26.5380   19.3880 H   0  0  0  0  0  0  0  0  0  0  0  0
   30.4620   26.9470   21.4410 C   0  0  0  0  0  0  0  0  0  0  0  0
   31.7510   27.6230   21.1060 C   0  0  2  0  0  0  0  0  0  0  0  0
   31.6850   29.1350   21.1480 C   0  0  2  0  0  0  0  0  0  0  0  0
   33.0200   29.6710   21.5450 C   0  0  2  0  0  0  0  0  0  0  0  0
   34.6710   29.5840   23.1600 C   0  0  2  0  0  0  0  0  0  0  0  0
   35.2840   30.6790   22.3200 C   0  0  0  0  0  0  0  0  0  0  0  0
   33.6580   28.9120   22.5060 O   0  0  0  0  0  0  0  0  0  0  0  0
   34.2950   31.7070   21.8810 C   0  0  1  0  0  0  0  0  0  0  0  0
   32.9030   31.1270   22.0160 C   0  0  1  0  0  0  0  0  0  0  0  0
   34.2960   30.0440   24.4230 O   0  0  0  0  0  0  0  0  0  0  0  0
   34.8660   30.8030   24.6850 H   0  0  0  0  0  0  0  0  0  0  0  0
   35.7680   28.5760   23.3910 C   0  0  0  0  0  0  0  0  0  0  0  0
   36.8490   28.8620   23.9220 O   0  0  0  0  0  0  0  0  0  0  0  0
   35.5630   27.2570   22.9900 O   0  0  0  0  0  0  0  0  0  0  0  0
   34.7840   26.9700   22.4100 H   0  0  0  0  0  0  0  0  0  0  0  0
   34.4280   32.9240   22.5140 O   0  0  0  0  0  0  0  0  0  0  0  0
   34.0500   32.9020   23.4470 H   0  0  0  0  0  0  0  0  0  0  0  0
   31.9280   31.8250   21.2190 N   0  0  0  0  0  0  0  0  0  0  0  0
   31.1560   32.8960   21.7750 C   0  0  0  0  0  0  0  0  0  0  0  0
   31.7480   31.5830   20.2210 H   0  0  0  0  0  0  0  0  0  0  0  0
   30.1470   33.6530   21.0310 C   0  0  0  0  0  0  0  0  0  0  0  0
   31.3600   33.2100   22.9950 O   0  0  0  0  0  0  0  0  0  0  0  0
   30.7310   29.4600   22.1140 O   0  0  0  0  0  0  0  0  0  0  0  0
   31.0780   30.1860   22.6890 H   0  0  0  0  0  0  0  0  0  0  0  0
   32.0730   27.2800   19.7830 O   0  0  0  0  0  0  0  0  0  0  0  0
   32.6860   26.5150   19.7270 H   0  0  0  0  0  0  0  0  0  0  0  0
   27.5630   27.7170   19.1090 O   0  0  0  0  0  0  0  0  0  0  0  0
   26.9790   28.9700   18.7790 C   0  0  0  0  0  0  0  0  0  0  0  0
   27.8250   29.6140   17.7650 C   0  0  0  0  0  0  0  0  0  0  0  0
   28.8400   30.5370   17.9650 C   0  0  0  0  0  0  0  0  0  0  0  0
   27.7570   29.4110   16.4320 N   0  0  0  0  0  0  0  0  0  0  0  0
   29.3230   30.8370   16.7520 N   0  0  0  0  0  0  0  0  0  0  0  0
   28.6740   30.1610   15.8220 N   0  0  0  0  0  0  0  0  0  0  0  0
   30.3930   31.7600   16.4950 C   0  0  0  0  0  0  0  0  0  0  0  0
   29.8910   32.9490   15.6760 C   0  0  0  0  0  0  0  0  0  0  0  0
   30.3340   33.1940   14.4490 C   0  0  0  0  0  0  0  0  0  0  0  0
   28.9510   33.7750   16.2510 C   0  0  0  0  0  0  0  0  0  0  0  0
   29.8550   34.2700   13.7520 C   0  0  0  0  0  0  0  0  0  0  0  0
   28.6850   34.9980   14.9170 S   0  0  0  0  0  0  0  0  0  0  0  0
   29.8670   25.5550   16.9770 C   0  0  0  0  0  0  0  0  0  0  0  0
   28.3450   25.7220   17.0260 C   0  0  0  0  0  0  0  0  0  0  0  0
   27.6010   24.4020   16.8950 C   0  0  0  0  0  0  0  0  0  0  0  0
   26.6120   24.1960   18.0090 C   0  0  0  0  0  0  0  0  0  0  0  0
   25.3090   24.9120   17.6710 C   0  0  0  0  0  0  0  0  0  0  0  0
   24.4380   24.0420   16.8450 N   0  0  0  0  0  0  0  0  0  0  0  0
  1  5  1  0  0  0  0
  2  1  1  0  0  0  0
  2  3  2  0  0  0  0
  4  1  1  0  0  0  0
  6  7  1  0  0  0  0
  6  5  1  6  0  0  0
  7 27  1  1  0  0  0
  8  7  1  1  0  0  0
  8 13  1  0  0  0  0
  8 11  1  0  0  0  0
  9 16  1  1  0  0  0
  9 14  1  0  0  0  0
 10  9  1  0  0  0  0
 11  9  1  0  0  0  0
 12 13  1  0  0  0  0
 12 10  1  0  0  0  0
 12 20  1  1  0  0  0
 13 22  1  6  0  0  0
 14 15  1  0  0  0  0
 16 17  2  0  0  0  0
 18 16  1  0  0  0  0
 19 18  1  0  0  0  0
 20 21  1  0  0  0  0
 22 23  1  0  0  0  0
 23 26  2  0  0  0  0
 24 22  1  0  0  0  0
 25 23  1  0  0  0  0
 27 28  1  0  0  0  0
 29  6  1  0  0  0  0
 30 29  1  0  0  0  0
 31  2  1  0  0  0  0
 32 31  1  0  0  0  0
 33 34  2  0  0  0  0
 33 32  1  0  0  0  0
 35 33  1  0  0  0  0
 36 34  1  0  0  0  0
 37 35  2  0  0  0  0
 37 36  1  0  0  0  0
 38 36  1  0  0  0  0
 39 41  2  0  0  0  0
 39 38  1  0  0  0  0
 40 39  1  0  0  0  0
 42 40  2  0  0  0  0
 42 43  1  0  0  0  0
 43 41  1  0  0  0  0
 44 45  1  0  0  0  0
 46 45  1  0  0  0  0
 46 47  1  0  0  0  0
 48 47  1  0  0  0  0
 49 48  1  0  0  0  0
M  END
>  <REMARK>
 VINA RESULT:    -4.452      7.583     12.724
 INTER + INTRA:         -14.102
 INTER:                  -8.784
 INTRA:                  -5.318
 UNBOUND:                -6.136
 SMILES CC(=O)N[C@@H]1[C@@H](O)C[C@](O)(C(=O)O)O[C@H]1C(O)[C@H](O)CNC(=O)OCc1cn(Cc2ccsc2)nn1
 SMILES IDX 21 1 22 2 23 3 20 5 18 6 16 7 15 8 9 9 8 10 14 11 6 12 5 13
 SMILES IDX 10 14 11 16 12 17 13 18 7 20 4 22 2 23 1 25 3 26 17 27 19 29
 SMILES IDX 24 31 25 32 26 33 27 34 36 35 28 36 35 37 29 38 30 39 31 40
 SMILES IDX 34 41 32 42 33 43
 H PARENT 21 4 10 15 13 19 7 21 4 24 17 28 19 30
 Flexibility Score: inf
  4 active torsions:
  status: ('A' for Active; 'I' for Inactive)
    1  A    between atoms: CA   and  CB  
    2  A    between atoms: CB   and  CG  
    3  A    between atoms: CG   and  CD  
    4  A    between atoms: CD   and  CE  

>  <TORSDO>
F 16

>  <BEGIN_>
RES LYS A 131

$$$$
ligand_61_pose_3_2HRL.pdbqt
 OpenBabel07062320523D

  6  5  0  0  0  0  0  0  0  0999 V2000
   33.1930   34.6630    9.2900 C   0  0  0  0  0  0  0  0  0  0  0  0
   32.0600   35.3600   10.0340 C   0  0  0  0  0  0  0  0  0  0  0  0
   30.7800   35.4420    9.2430 C   0  0  0  0  0  0  0  0  0  0  0  0
   30.2060   34.0540    9.0050 C   0  0  0  0  0  0  0  0  0  0  0  0
   28.7410   34.0100    9.3940 C   0  0  0  0  0  0  0  0  0  0  0  0
   28.4070   35.0990   10.3530 N   0  0  0  0  0  0  0  0  0  0  0  0
  1  2  1  0  0  0  0
  3  2  1  0  0  0  0
  4  3  1  0  0  0  0
  4  5  1  0  0  0  0
  5  6  1  0  0  0  0
M  END
>  <EGIN_R>
ES LYS A 135

>  <REMARK>
  4 active torsions:
  status: ('A' for Active; 'I' for Inactive)
    5  A    between atoms: CA   and  CB  
    6  A    between atoms: CB   and  CG  
    7  A    between atoms: CG   and  CD  
    8  A    between atoms: CD   and  CE  

$$$$
