ligand_43_pose_9_2HRL.pdbqt
 OpenBabel07062320523D

 49 49  0  0  1  0  0  0  0  0999 V2000
   26.3960   29.8030   16.9610 O   0  0  0  0  0  0  0  0  0  0  0  0
   26.3740   28.6520   17.7230 C   0  0  0  0  0  0  0  0  0  0  0  0
   27.5930   28.2780   18.3810 N   0  0  0  0  0  0  0  0  0  0  0  0
   28.4270   28.8830   18.2560 H   0  0  0  0  0  0  0  0  0  0  0  0
   25.3210   27.9460   17.8440 O   0  0  0  0  0  0  0  0  0  0  0  0
   27.6810   27.1110   19.1910 C   0  0  0  0  0  0  0  0  0  0  0  0
   27.4760   27.3790   20.6830 C   0  0  2  0  0  0  0  0  0  0  0  0
   28.8400   27.7220   21.2290 C   0  0  2  0  0  0  0  0  0  0  0  0
   29.0050   29.1620   21.5920 C   0  0  2  0  0  0  0  0  0  0  0  0
   29.3460   31.1160   20.3880 C   0  0  2  0  0  0  0  0  0  0  0  0
   29.7360   31.6880   21.7350 C   0  0  0  0  0  0  0  0  0  0  0  0
   28.6020   29.9620   20.5560 O   0  0  0  0  0  0  0  0  0  0  0  0
   30.7880   30.7750   22.3240 C   0  0  1  0  0  0  0  0  0  0  0  0
   30.4950   29.3520   21.9110 C   0  0  1  0  0  0  0  0  0  0  0  0
   30.4650   30.9140   19.5840 O   0  0  0  0  0  0  0  0  0  0  0  0
   31.2330   30.6420   20.1350 H   0  0  0  0  0  0  0  0  0  0  0  0
   28.5060   32.1390   19.7140 C   0  0  0  0  0  0  0  0  0  0  0  0
   28.8600   33.3410   19.6160 O   0  0  0  0  0  0  0  0  0  0  0  0
   27.2610   31.8230   19.1450 O   0  0  0  0  0  0  0  0  0  0  0  0
   26.5350   31.4820   19.7690 H   0  0  0  0  0  0  0  0  0  0  0  0
   32.0220   31.1180   21.8050 O   0  0  0  0  0  0  0  0  0  0  0  0
   32.7390   30.7560   22.3820 H   0  0  0  0  0  0  0  0  0  0  0  0
   30.8440   28.4060   22.9550 N   0  0  0  0  0  0  0  0  0  0  0  0
   32.1620   27.8980   23.1390 C   0  0  0  0  0  0  0  0  0  0  0  0
   30.1250   28.0420   23.6410 H   0  0  0  0  0  0  0  0  0  0  0  0
   32.5090   26.9240   24.2160 C   0  0  0  0  0  0  0  0  0  0  0  0
   33.0440   28.3110   22.3360 O   0  0  0  0  0  0  0  0  0  0  0  0
   29.7630   27.3010   20.2580 O   0  0  0  0  0  0  0  0  0  0  0  0
   30.5920   26.9480   20.6690 H   0  0  0  0  0  0  0  0  0  0  0  0
   26.8720   26.3130   21.3140 O   0  0  0  0  0  0  0  0  0  0  0  0
   27.4680   25.7180   21.7980 H   0  0  0  0  0  0  0  0  0  0  0  0
   27.2430   29.9000   15.8460 C   0  0  0  0  0  0  0  0  0  0  0  0
   28.0470   31.1550   16.0240 C   0  0  0  0  0  0  0  0  0  0  0  0
   29.4150   31.1700   16.2460 C   0  0  0  0  0  0  0  0  0  0  0  0
   27.6670   32.4320   16.0100 N   0  0  0  0  0  0  0  0  0  0  0  0
   29.8110   32.4440   16.3590 N   0  0  0  0  0  0  0  0  0  0  0  0
   28.7320   33.1870   16.2120 N   0  0  0  0  0  0  0  0  0  0  0  0
   31.1430   32.9820   16.5960 C   0  0  0  0  0  0  0  0  0  0  0  0
   31.8750   33.1330   15.2890 C   0  0  0  0  0  0  0  0  0  0  0  0
   32.5720   34.4670   15.1980 C   0  0  0  0  0  0  0  0  0  0  0  0
   31.6250   35.5850   14.8460 C   0  0  0  0  0  0  0  0  0  0  0  0
   31.4820   35.6860   13.3760 C   0  0  0  0  0  0  0  0  0  0  0  0
   32.2030   36.5060   12.6440 C   0  0  0  0  0  0  0  0  0  0  0  0
   29.8670   25.5550   16.9770 C   0  0  0  0  0  0  0  0  0  0  0  0
   28.3450   25.7220   17.0260 C   0  0  0  0  0  0  0  0  0  0  0  0
   27.5990   24.4750   16.5750 C   0  0  0  0  0  0  0  0  0  0  0  0
   26.9620   23.7490   17.7280 C   0  0  0  0  0  0  0  0  0  0  0  0
   25.4450   23.8590   17.6230 C   0  0  0  0  0  0  0  0  0  0  0  0
   24.8290   22.5120   17.5740 N   0  0  0  0  0  0  0  0  0  0  0  0
  1  2  1  0  0  0  0
  2  5  2  0  0  0  0
  2  3  1  0  0  0  0
  3  6  1  0  0  0  0
  4  3  1  0  0  0  0
  7  6  1  6  0  0  0
  7  8  1  0  0  0  0
  7 30  1  0  0  0  0
  8 28  1  6  0  0  0
  9  8  1  6  0  0  0
  9 14  1  0  0  0  0
 10 15  1  6  0  0  0
 10 12  1  0  0  0  0
 10 11  1  0  0  0  0
 11 13  1  0  0  0  0
 12  9  1  0  0  0  0
 13 21  1  6  0  0  0
 14 13  1  0  0  0  0
 14 23  1  1  0  0  0
 15 16  1  0  0  0  0
 17 10  1  0  0  0  0
 18 17  2  0  0  0  0
 19 17  1  0  0  0  0
 19 20  1  0  0  0  0
 21 22  1  0  0  0  0
 23 24  1  0  0  0  0
 23 25  1  0  0  0  0
 24 26  1  0  0  0  0
 27 24  2  0  0  0  0
 28 29  1  0  0  0  0
 30 31  1  0  0  0  0
 32 33  1  0  0  0  0
 32  1  1  0  0  0  0
 33 34  2  0  0  0  0
 34 36  1  0  0  0  0
 35 33  1  0  0  0  0
 35 37  2  0  0  0  0
 36 38  1  0  0  0  0
 37 36  1  0  0  0  0
 39 38  1  0  0  0  0
 40 39  1  0  0  0  0
 41 40  1  0  0  0  0
 42 41  1  0  0  0  0
 43 42  2  0  0  0  0
 44 45  1  0  0  0  0
 46 45  1  0  0  0  0
 46 47  1  0  0  0  0
 48 47  1  0  0  0  0
 49 48  1  0  0  0  0
M  END
>  <REMARK>
 VINA RESULT:    -4.879      4.230      7.710
 INTER + INTRA:         -14.371
 INTER:                  -7.826
 INTRA:                  -6.544
 UNBOUND:                -4.785
 SMILES C=CCCCCn1cc(COC(=O)NC[C@@H](O)C(O)[C@@H]2O[C@@](O)(C(=O)O)C[C@H](O)[C@H]2NC(C)=O)nn1
 SMILES IDX 11 1 12 2 14 3 13 5 15 6 16 7 18 8 20 9 22 10 27 11 21 12
 SMILES IDX 28 13 30 14 23 15 24 17 25 18 26 19 29 21 31 23 32 24 33 26
 SMILES IDX 34 27 19 28 17 30 10 32 9 33 8 34 35 35 7 36 36 37 6 38 5 39
 SMILES IDX 4 40 3 41 2 42 1 43
 H PARENT 14 4 23 16 26 20 29 22 31 25 19 29 17 31
 Flexibility Score: inf
  4 active torsions:
  status: ('A' for Active; 'I' for Inactive)
    1  A    between atoms: CA   and  CB  
    2  A    between atoms: CB   and  CG  
    3  A    between atoms: CG   and  CD  
    4  A    between atoms: CD   and  CE  

>  <TORSDO>
F 19

>  <BEGIN_>
RES LYS A 131

$$$$
ligand_43_pose_9_2HRL.pdbqt
 OpenBabel07062320523D

  6  5  0  0  0  0  0  0  0  0999 V2000
   33.1930   34.6630    9.2900 C   0  0  0  0  0  0  0  0  0  0  0  0
   32.0600   35.3600   10.0340 C   0  0  0  0  0  0  0  0  0  0  0  0
   30.7020   34.7730    9.7500 C   0  0  0  0  0  0  0  0  0  0  0  0
   30.5450   34.4750    8.2660 C   0  0  0  0  0  0  0  0  0  0  0  0
   29.4030   35.2820    7.6780 C   0  0  0  0  0  0  0  0  0  0  0  0
   28.0850   34.7280    8.0950 N   0  0  0  0  0  0  0  0  0  0  0  0
  1  2  1  0  0  0  0
  3  2  1  0  0  0  0
  4  3  1  0  0  0  0
  5  6  1  0  0  0  0
  5  4  1  0  0  0  0
M  END
>  <EGIN_R>
ES LYS A 135

>  <REMARK>
  4 active torsions:
  status: ('A' for Active; 'I' for Inactive)
    5  A    between atoms: CA   and  CB  
    6  A    between atoms: CB   and  CG  
    7  A    between atoms: CG   and  CD  
    8  A    between atoms: CD   and  CE  

$$$$
