ligand_85_pose_5_2HRL.pdbqt
 OpenBabel07062320523D

 55 56  0  0  1  0  0  0  0  0999 V2000
   25.6550   37.0880   11.2130 N   0  0  0  0  0  0  0  0  0  0  0  0
   25.0310   35.9730   10.6310 C   0  0  0  0  0  0  0  0  0  0  0  0
   24.8090   34.9510   11.3100 O   0  0  0  0  0  0  0  0  0  0  0  0
   25.8330   37.9410   10.6360 H   0  0  0  0  0  0  0  0  0  0  0  0
   26.0690   37.1110   12.5910 C   0  0  0  0  0  0  0  0  0  0  0  0
   27.5200   36.7190   12.6960 C   0  0  2  0  0  0  0  0  0  0  0  0
   27.7360   35.5300   13.5980 C   0  0  2  0  0  0  0  0  0  0  0  0
   29.1810   35.2740   13.8000 C   0  0  2  0  0  0  0  0  0  0  0  0
   31.3180   35.4430   12.9880 C   0  0  2  0  0  0  0  0  0  0  0  0
   31.6310   35.1020   14.4230 C   0  0  0  0  0  0  0  0  0  0  0  0
   29.9810   35.4170   12.6800 O   0  0  0  0  0  0  0  0  0  0  0  0
   30.8590   33.9320   14.9350 C   0  0  1  0  0  0  0  0  0  0  0  0
   29.4520   33.8720   14.3470 C   0  0  1  0  0  0  0  0  0  0  0  0
   31.9310   34.4680   12.1790 O   0  0  0  0  0  0  0  0  0  0  0  0
   31.5400   33.5920   12.4800 H   0  0  0  0  0  0  0  0  0  0  0  0
   31.8520   36.7580   12.6180 C   0  0  0  0  0  0  0  0  0  0  0  0
   32.6780   36.8520   11.6780 O   0  0  0  0  0  0  0  0  0  0  0  0
   31.5020   37.9420   13.2470 O   0  0  0  0  0  0  0  0  0  0  0  0
   30.6670   38.4280   12.8850 H   0  0  0  0  0  0  0  0  0  0  0  0
   31.5740   32.7590   14.6230 O   0  0  0  0  0  0  0  0  0  0  0  0
   32.3750   32.7700   15.2130 H   0  0  0  0  0  0  0  0  0  0  0  0
   28.4790   33.4660   15.3020 N   0  0  0  0  0  0  0  0  0  0  0  0
   28.4140   32.1150   15.7290 C   0  0  0  0  0  0  0  0  0  0  0  0
   27.8010   34.1400   15.7060 H   0  0  0  0  0  0  0  0  0  0  0  0
   27.3700   31.7360   16.7400 C   0  0  0  0  0  0  0  0  0  0  0  0
   29.1710   31.2180   15.3190 O   0  0  0  0  0  0  0  0  0  0  0  0
   26.9940   34.4650   13.1500 O   0  0  0  0  0  0  0  0  0  0  0  0
   26.5440   34.0560   13.9560 H   0  0  0  0  0  0  0  0  0  0  0  0
   28.2560   37.7920   13.2870 O   0  0  0  0  0  0  0  0  0  0  0  0
   29.1720   37.8180   12.9450 H   0  0  0  0  0  0  0  0  0  0  0  0
   24.6280   35.9300    9.3000 O   0  0  0  0  0  0  0  0  0  0  0  0
   24.6210   37.1190    8.5360 C   0  0  0  0  0  0  0  0  0  0  0  0
   25.9150   37.3330    7.8750 C   0  0  0  0  0  0  0  0  0  0  0  0
   26.8100   38.3750    8.0000 C   0  0  0  0  0  0  0  0  0  0  0  0
   26.4730   36.4950    6.9840 N   0  0  0  0  0  0  0  0  0  0  0  0
   27.8790   38.1470    7.1900 N   0  0  0  0  0  0  0  0  0  0  0  0
   27.6320   37.0050    6.5980 N   0  0  0  0  0  0  0  0  0  0  0  0
   29.0290   38.9630    7.0110 C   0  0  0  0  0  0  0  0  0  0  0  0
   30.1270   38.8350    7.8490 C   0  0  0  0  0  0  0  0  0  0  0  0
   29.0460   39.8870    5.9920 C   0  0  0  0  0  0  0  0  0  0  0  0
   31.2470   39.6120    7.6930 C   0  0  0  0  0  0  0  0  0  0  0  0
   30.1600   40.6880    5.8050 C   0  0  0  0  0  0  0  0  0  0  0  0
   32.6470   39.4580    8.7510 Cl  0  0  0  0  0  0  0  0  0  0  0  0
   31.2460   40.5340    6.6660 C   0  0  0  0  0  0  0  0  0  0  0  0
   27.8960   40.0080    5.1270 C   0  0  0  0  0  0  0  0  0  0  0  0
   27.7200   39.2840    4.1070 O   0  0  0  0  0  0  0  0  0  0  0  0
   26.9030   40.9750    5.4090 N   0  0  0  0  0  0  0  0  0  0  0  0
   27.0610   41.8240    6.5640 C   0  0  0  0  0  0  0  0  0  0  0  0
   25.7240   41.1400    4.5720 C   0  0  0  0  0  0  0  0  0  0  0  0
   29.8670   25.5550   16.9770 C   0  0  0  0  0  0  0  0  0  0  0  0
   28.3450   25.7220   17.0260 C   0  0  0  0  0  0  0  0  0  0  0  0
   27.6010   24.4040   16.8740 C   0  0  0  0  0  0  0  0  0  0  0  0
   26.4900   24.2620   17.8770 C   0  0  0  0  0  0  0  0  0  0  0  0
   25.1530   24.5440   17.2000 C   0  0  0  0  0  0  0  0  0  0  0  0
   24.2870   23.3420   17.2400 N   0  0  0  0  0  0  0  0  0  0  0  0
  1  5  1  0  0  0  0
  2  1  1  0  0  0  0
  2  3  2  0  0  0  0
  4  1  1  0  0  0  0
  6  5  1  1  0  0  0
  6 29  1  0  0  0  0
  6  7  1  0  0  0  0
  7 27  1  6  0  0  0
  8  7  1  6  0  0  0
  8 13  1  0  0  0  0
  9 14  1  6  0  0  0
  9 10  1  0  0  0  0
 10 12  1  0  0  0  0
 11  9  1  0  0  0  0
 11  8  1  0  0  0  0
 12 20  1  6  0  0  0
 13 12  1  0  0  0  0
 13 22  1  1  0  0  0
 14 15  1  0  0  0  0
 16  9  1  0  0  0  0
 16 18  1  0  0  0  0
 17 16  2  0  0  0  0
 19 18  1  0  0  0  0
 20 21  1  0  0  0  0
 22 24  1  0  0  0  0
 22 23  1  0  0  0  0
 23 25  1  0  0  0  0
 26 23  2  0  0  0  0
 27 28  1  0  0  0  0
 30 29  1  0  0  0  0
 31  2  1  0  0  0  0
 32 31  1  0  0  0  0
 33 34  2  0  0  0  0
 33 32  1  0  0  0  0
 35 33  1  0  0  0  0
 36 34  1  0  0  0  0
 37 35  2  0  0  0  0
 37 36  1  0  0  0  0
 38 36  1  0  0  0  0
 38 39  2  0  0  0  0
 40 38  1  0  0  0  0
 41 39  1  0  0  0  0
 41 43  1  0  0  0  0
 42 40  2  0  0  0  0
 42 44  1  0  0  0  0
 44 41  2  0  0  0  0
 45 47  1  0  0  0  0
 45 40  1  0  0  0  0
 46 45  2  0  0  0  0
 47 48  1  0  0  0  0
 49 47  1  0  0  0  0
 50 51  1  0  0  0  0
 52 51  1  0  0  0  0
 52 53  1  0  0  0  0
 54 55  1  0  0  0  0
 54 53  1  0  0  0  0
M  END
>  <REMARK>
 VINA RESULT:    -4.942      3.041      8.243
 INTER + INTRA:         -15.028
 INTER:                  -9.320
 INTRA:                  -5.709
 UNBOUND:                -6.187
 SMILES CC(=O)N[C@@H]1[C@@H](O)C[C@](O)(C(=O)O)O[C@H]1C(O)[C@H](O)CNC(=O)OCc1cn(-c2cc(Cl)ccc2C(=O)N(C)C)nn1
 SMILES IDX 21 1 22 2 23 3 20 5 18 6 16 7 15 8 9 9 8 10 14 11 6 12 5 13
 SMILES IDX 10 14 11 16 12 17 13 18 7 20 4 22 2 23 1 25 3 26 17 27 19 29
 SMILES IDX 24 31 25 32 26 33 27 34 42 35 28 36 41 37 29 38 30 39 35 40
 SMILES IDX 31 41 34 42 32 43 33 44 36 45 37 46 38 47 39 48 40 49
 H PARENT 21 4 10 15 13 19 7 21 4 24 17 28 19 30
 Flexibility Score: inf
  4 active torsions:
  status: ('A' for Active; 'I' for Inactive)
    1  A    between atoms: CA   and  CB  
    2  A    between atoms: CB   and  CG  
    3  A    between atoms: CG   and  CD  
    4  A    between atoms: CD   and  CE  

>  <TORSDO>
F 16

>  <BEGIN_>
RES LYS A 131

$$$$
ligand_85_pose_5_2HRL.pdbqt
 OpenBabel07062320523D

  6  5  0  0  0  0  0  0  0  0999 V2000
   33.1930   34.6630    9.2900 C   0  0  0  0  0  0  0  0  0  0  0  0
   32.0600   35.3600   10.0340 C   0  0  0  0  0  0  0  0  0  0  0  0
   30.7960   35.4890    9.2230 C   0  0  0  0  0  0  0  0  0  0  0  0
   30.1390   34.1300    9.0350 C   0  0  0  0  0  0  0  0  0  0  0  0
   28.6700   34.2920    8.6950 C   0  0  0  0  0  0  0  0  0  0  0  0
   27.8050   33.7600    9.7840 N   0  0  0  0  0  0  0  0  0  0  0  0
  1  2  1  0  0  0  0
  3  2  1  0  0  0  0
  4  3  1  0  0  0  0
  5  4  1  0  0  0  0
  5  6  1  0  0  0  0
M  END
>  <EGIN_R>
ES LYS A 135

>  <REMARK>
  4 active torsions:
  status: ('A' for Active; 'I' for Inactive)
    5  A    between atoms: CA   and  CB  
    6  A    between atoms: CB   and  CG  
    7  A    between atoms: CG   and  CD  
    8  A    between atoms: CD   and  CE  

$$$$
