ligand_66_pose_2_2HRL.pdbqt
 OpenBabel07062320523D

 52 53  0  0  1  0  0  0  0  0999 V2000
   29.5640   30.8390   18.0900 N   0  0  0  0  0  0  0  0  0  0  0  0
   28.2770   31.0900   18.5780 C   0  0  0  0  0  0  0  0  0  0  0  0
   27.9370   32.2400   18.9240 O   0  0  0  0  0  0  0  0  0  0  0  0
   29.7780   29.8350   17.8100 H   0  0  0  0  0  0  0  0  0  0  0  0
   30.5810   31.8470   17.9510 C   0  0  0  0  0  0  0  0  0  0  0  0
   30.7940   32.2770   16.5260 C   0  0  2  0  0  0  0  0  0  0  0  0
   29.9750   33.4200   16.0680 C   0  0  2  0  0  0  0  0  0  0  0  0
   30.7160   34.4420   15.1920 C   0  0  2  0  0  0  0  0  0  0  0  0
   32.7530   34.8440   14.2540 C   0  0  2  0  0  0  0  0  0  0  0  0
   32.9340   36.0970   15.0860 C   0  0  0  0  0  0  0  0  0  0  0  0
   31.9540   33.9880   14.9660 O   0  0  0  0  0  0  0  0  0  0  0  0
   31.6180   36.7860   15.3270 C   0  0  1  0  0  0  0  0  0  0  0  0
   30.5140   35.8290   15.6720 C   0  0  1  0  0  0  0  0  0  0  0  0
   34.0320   34.2560   14.0870 O   0  0  0  0  0  0  0  0  0  0  0  0
   34.3350   34.0650   15.0200 H   0  0  0  0  0  0  0  0  0  0  0  0
   32.2890   35.2100   12.9120 C   0  0  0  0  0  0  0  0  0  0  0  0
   32.7350   36.2100   12.3030 O   0  0  0  0  0  0  0  0  0  0  0  0
   31.3130   34.4780   12.2040 O   0  0  0  0  0  0  0  0  0  0  0  0
   31.6760   33.9140   11.4320 H   0  0  0  0  0  0  0  0  0  0  0  0
   31.8050   37.7010   16.3630 O   0  0  0  0  0  0  0  0  0  0  0  0
   32.6810   37.6090   16.7920 H   0  0  0  0  0  0  0  0  0  0  0  0
   29.2590   36.3700   15.1880 N   0  0  0  0  0  0  0  0  0  0  0  0
   28.4280   37.2330   15.9910 C   0  0  0  0  0  0  0  0  0  0  0  0
   28.8630   36.1780   14.2330 H   0  0  0  0  0  0  0  0  0  0  0  0
   27.1390   37.7660   15.4480 C   0  0  0  0  0  0  0  0  0  0  0  0
   28.7800   37.5410   17.1470 O   0  0  0  0  0  0  0  0  0  0  0  0
   29.4040   34.1450   17.1160 O   0  0  0  0  0  0  0  0  0  0  0  0
   30.0550   34.7230   17.5830 H   0  0  0  0  0  0  0  0  0  0  0  0
   30.7440   31.1380   15.7230 O   0  0  0  0  0  0  0  0  0  0  0  0
   29.8370   31.0810   15.3350 H   0  0  0  0  0  0  0  0  0  0  0  0
   27.3120   30.0910   18.7090 O   0  0  0  0  0  0  0  0  0  0  0  0
   26.9970   29.3100   17.5840 C   0  0  0  0  0  0  0  0  0  0  0  0
   26.0590   30.0630   16.7270 C   0  0  0  0  0  0  0  0  0  0  0  0
   26.1880   30.3770   15.3920 C   0  0  0  0  0  0  0  0  0  0  0  0
   24.8800   30.5830   17.1160 N   0  0  0  0  0  0  0  0  0  0  0  0
   25.0990   31.0700   15.0130 N   0  0  0  0  0  0  0  0  0  0  0  0
   24.3310   31.1720   16.0910 N   0  0  0  0  0  0  0  0  0  0  0  0
   24.7380   31.6190   13.7330 C   0  0  0  0  0  0  0  0  0  0  0  0
   23.5350   30.9170   13.1750 C   0  0  0  0  0  0  0  0  0  0  0  0
   23.6060   29.5770   12.8650 C   0  0  0  0  0  0  0  0  0  0  0  0
   22.3510   31.5720   12.9660 C   0  0  0  0  0  0  0  0  0  0  0  0
   22.4850   28.9150   12.3500 C   0  0  0  0  0  0  0  0  0  0  0  0
   21.2270   30.9520   12.4620 C   0  0  0  0  0  0  0  0  0  0  0  0
   21.2990   29.6130   12.1530 C   0  0  0  0  0  0  0  0  0  0  0  0
   19.9770   31.6150   12.2360 C   0  0  0  0  0  0  0  0  0  0  0  0
   18.9590   32.1620   12.0700 N   0  0  0  0  0  0  0  0  0  0  0  0
   29.8670   25.5550   16.9770 C   0  0  0  0  0  0  0  0  0  0  0  0
   28.3450   25.7220   17.0260 C   0  0  0  0  0  0  0  0  0  0  0  0
   27.5990   24.4770   16.5700 C   0  0  0  0  0  0  0  0  0  0  0  0
   27.0570   23.6860   17.7280 C   0  0  0  0  0  0  0  0  0  0  0  0
   25.7420   24.3020   18.1950 C   0  0  0  0  0  0  0  0  0  0  0  0
   24.7930   24.4170   17.0630 N   0  0  0  0  0  0  0  0  0  0  0  0
  1  2  1  0  0  0  0
  2 31  1  0  0  0  0
  2  3  2  0  0  0  0
  4  1  1  0  0  0  0
  5  1  1  0  0  0  0
  6  5  1  1  0  0  0
  7  6  1  0  0  0  0
  7 27  1  1  0  0  0
  8 13  1  0  0  0  0
  8  7  1  1  0  0  0
  9 16  1  6  0  0  0
  9 11  1  0  0  0  0
  9 10  1  0  0  0  0
 10 12  1  0  0  0  0
 11  8  1  0  0  0  0
 12 13  1  0  0  0  0
 12 20  1  1  0  0  0
 13 22  1  6  0  0  0
 14  9  1  0  0  0  0
 14 15  1  0  0  0  0
 17 16  2  0  0  0  0
 18 16  1  0  0  0  0
 19 18  1  0  0  0  0
 20 21  1  0  0  0  0
 22 23  1  0  0  0  0
 23 26  2  0  0  0  0
 24 22  1  0  0  0  0
 25 23  1  0  0  0  0
 27 28  1  0  0  0  0
 29  6  1  0  0  0  0
 30 29  1  0  0  0  0
 32 31  1  0  0  0  0
 33 35  1  0  0  0  0
 33 32  1  0  0  0  0
 34 33  2  0  0  0  0
 36 34  1  0  0  0  0
 36 37  1  0  0  0  0
 37 35  2  0  0  0  0
 38 36  1  0  0  0  0
 39 38  1  0  0  0  0
 40 39  2  0  0  0  0
 41 39  1  0  0  0  0
 42 40  1  0  0  0  0
 43 41  2  0  0  0  0
 44 42  2  0  0  0  0
 44 43  1  0  0  0  0
 45 43  1  0  0  0  0
 46 45  3  0  0  0  0
 47 48  1  0  0  0  0
 49 48  1  0  0  0  0
 49 50  1  0  0  0  0
 50 51  1  0  0  0  0
 52 51  1  0  0  0  0
M  END
>  <REMARK>
 VINA RESULT:    -5.256      1.766      3.171
 INTER + INTRA:         -14.922
 INTER:                  -9.490
 INTRA:                  -5.433
 UNBOUND:                -5.212
 SMILES CC(=O)N[C@@H]1[C@@H](O)C[C@](O)(C(=O)O)O[C@H]1C(O)[C@H](O)CNC(=O)OCc1cn(Cc2cccc(C#N)c2)nn1
 SMILES IDX 21 1 22 2 23 3 20 5 18 6 16 7 15 8 9 9 8 10 14 11 6 12 5 13
 SMILES IDX 10 14 11 16 12 17 13 18 7 20 4 22 2 23 1 25 3 26 17 27 19 29
 SMILES IDX 24 31 25 32 26 33 27 34 39 35 28 36 38 37 29 38 30 39 31 40
 SMILES IDX 37 41 32 42 34 43 33 44 35 45 36 46
 H PARENT 21 4 10 15 13 19 7 21 4 24 17 28 19 30
 Flexibility Score: inf
  4 active torsions:
  status: ('A' for Active; 'I' for Inactive)
    1  A    between atoms: CA   and  CB  
    2  A    between atoms: CB   and  CG  
    3  A    between atoms: CG   and  CD  
    4  A    between atoms: CD   and  CE  

>  <TORSDO>
F 17

>  <BEGIN_>
RES LYS A 131

$$$$
ligand_66_pose_2_2HRL.pdbqt
 OpenBabel07062320523D

  6  5  0  0  0  0  0  0  0  0999 V2000
   33.1930   34.6630    9.2900 C   0  0  0  0  0  0  0  0  0  0  0  0
   32.0600   35.3600   10.0340 C   0  0  0  0  0  0  0  0  0  0  0  0
   30.8230   35.5610    9.1970 C   0  0  0  0  0  0  0  0  0  0  0  0
   30.1240   34.2340    8.9450 C   0  0  0  0  0  0  0  0  0  0  0  0
   28.6800   34.4610    8.5410 C   0  0  0  0  0  0  0  0  0  0  0  0
   27.7510   33.6930    9.4150 N   0  0  0  0  0  0  0  0  0  0  0  0
  1  2  1  0  0  0  0
  3  2  1  0  0  0  0
  4  3  1  0  0  0  0
  5  4  1  0  0  0  0
  5  6  1  0  0  0  0
M  END
>  <EGIN_R>
ES LYS A 135

>  <REMARK>
  4 active torsions:
  status: ('A' for Active; 'I' for Inactive)
    5  A    between atoms: CA   and  CB  
    6  A    between atoms: CB   and  CG  
    7  A    between atoms: CG   and  CD  
    8  A    between atoms: CD   and  CE  

$$$$
