ligand_33_pose_5_2HRL.pdbqt
 OpenBabel07062320523D

 52 52  0  0  1  0  0  0  0  0999 V2000
   23.8710   37.4030    7.6470 C   0  0  0  0  0  0  0  0  0  0  0  0
   23.6220   38.7530    8.0230 O   0  0  0  0  0  0  0  0  0  0  0  0
   24.3860   39.7500    7.4020 C   0  0  0  0  0  0  0  0  0  0  0  0
   25.5250   39.3510    6.6480 N   0  0  0  0  0  0  0  0  0  0  0  0
   25.7350   38.3190    6.5890 H   0  0  0  0  0  0  0  0  0  0  0  0
   24.0280   40.9450    7.5450 O   0  0  0  0  0  0  0  0  0  0  0  0
   26.3220   40.3500    6.0100 C   0  0  0  0  0  0  0  0  0  0  0  0
   27.8070   40.2200    6.2500 C   0  0  2  0  0  0  0  0  0  0  0  0
   28.2440   41.3670    7.1400 C   0  0  2  0  0  0  0  0  0  0  0  0
   29.1880   40.9860    8.2310 C   0  0  2  0  0  0  0  0  0  0  0  0
   31.0750   41.7030    7.0440 C   0  0  2  0  0  0  0  0  0  0  0  0
   31.3060   40.2250    6.6870 C   0  0  0  0  0  0  0  0  0  0  0  0
   30.2960   41.8040    8.1600 O   0  0  0  0  0  0  0  0  0  0  0  0
   31.1000   39.4730    7.9790 C   0  0  1  0  0  0  0  0  0  0  0  0
   29.5970   39.5590    8.3030 C   0  0  1  0  0  0  0  0  0  0  0  0
   30.6080   42.3930    5.9280 O   0  0  0  0  0  0  0  0  0  0  0  0
   29.9540   43.1170    6.1900 H   0  0  0  0  0  0  0  0  0  0  0  0
   32.4140   42.2510    7.3810 C   0  0  0  0  0  0  0  0  0  0  0  0
   33.3060   42.3350    6.4840 O   0  0  0  0  0  0  0  0  0  0  0  0
   32.6600   42.6630    8.6780 O   0  0  0  0  0  0  0  0  0  0  0  0
   31.9800   42.3490    9.3860 H   0  0  0  0  0  0  0  0  0  0  0  0
   31.4970   38.1400    7.8780 O   0  0  0  0  0  0  0  0  0  0  0  0
   32.2350   38.0140    8.5310 H   0  0  0  0  0  0  0  0  0  0  0  0
   29.3610   38.9820    9.6190 N   0  0  0  0  0  0  0  0  0  0  0  0
   28.0760   38.6580   10.0960 C   0  0  0  0  0  0  0  0  0  0  0  0
   30.1990   38.7970   10.2410 H   0  0  0  0  0  0  0  0  0  0  0  0
   27.8650   38.0640   11.4660 C   0  0  0  0  0  0  0  0  0  0  0  0
   27.0780   38.8780    9.3430 O   0  0  0  0  0  0  0  0  0  0  0  0
   27.0440   41.7540    7.8040 O   0  0  0  0  0  0  0  0  0  0  0  0
   27.0860   42.7360    7.8700 H   0  0  0  0  0  0  0  0  0  0  0  0
   28.4400   40.2020    5.0270 O   0  0  0  0  0  0  0  0  0  0  0  0
   27.8620   39.8130    4.3250 H   0  0  0  0  0  0  0  0  0  0  0  0
   24.4470   36.7430    8.8410 C   0  0  0  0  0  0  0  0  0  0  0  0
   25.5070   35.8610    8.7910 C   0  0  0  0  0  0  0  0  0  0  0  0
   24.0820   36.8630   10.1170 N   0  0  0  0  0  0  0  0  0  0  0  0
   25.7260   35.4880   10.0710 N   0  0  0  0  0  0  0  0  0  0  0  0
   24.8670   36.0940   10.8600 N   0  0  0  0  0  0  0  0  0  0  0  0
   26.7860   34.5420   10.4250 C   0  0  0  0  0  0  0  0  0  0  0  0
   27.4550   34.1040    9.1490 C   0  0  0  0  0  0  0  0  0  0  0  0
   28.9430   34.3800    9.1390 C   0  0  0  0  0  0  0  0  0  0  0  0
   29.3180   35.4870    8.2160 C   0  0  0  0  0  0  0  0  0  0  0  0
   28.8610   35.2820    6.7970 C   0  0  0  0  0  0  0  0  0  0  0  0
   28.4860   36.5240    6.1050 C   0  0  0  0  0  0  0  0  0  0  0  0
   27.2970   36.8550    5.9760 O   0  0  0  0  0  0  0  0  0  0  0  0
   29.4720   37.3720    5.5710 O   0  0  0  0  0  0  0  0  0  0  0  0
   30.1960   36.9930    4.9520 H   0  0  0  0  0  0  0  0  0  0  0  0
   29.8670   25.5550   16.9770 C   0  0  0  0  0  0  0  0  0  0  0  0
   28.3450   25.7220   17.0260 C   0  0  0  0  0  0  0  0  0  0  0  0
   27.6020   24.4000   16.9150 C   0  0  0  0  0  0  0  0  0  0  0  0
   26.5140   24.2740   17.9450 C   0  0  0  0  0  0  0  0  0  0  0  0
   25.2360   23.7760   17.2770 C   0  0  0  0  0  0  0  0  0  0  0  0
   24.2180   24.8530   17.2380 N   0  0  0  0  0  0  0  0  0  0  0  0
  1  2  1  0  0  0  0
  1 33  1  0  0  0  0
  3  6  2  0  0  0  0
  3  2  1  0  0  0  0
  4  3  1  0  0  0  0
  5  4  1  0  0  0  0
  7  4  1  0  0  0  0
  8  7  1  6  0  0  0
  8  9  1  0  0  0  0
  9 29  1  1  0  0  0
 10  9  1  6  0  0  0
 10 15  1  0  0  0  0
 11 16  1  6  0  0  0
 11 18  1  0  0  0  0
 11 13  1  0  0  0  0
 12 11  1  0  0  0  0
 12 14  1  0  0  0  0
 13 10  1  0  0  0  0
 14 22  1  6  0  0  0
 14 15  1  0  0  0  0
 15 24  1  1  0  0  0
 16 17  1  0  0  0  0
 18 20  1  0  0  0  0
 19 18  2  0  0  0  0
 20 21  1  0  0  0  0
 22 23  1  0  0  0  0
 24 25  1  0  0  0  0
 24 26  1  0  0  0  0
 25 27  1  0  0  0  0
 28 25  2  0  0  0  0
 29 30  1  0  0  0  0
 31  8  1  0  0  0  0
 32 31  1  0  0  0  0
 33 35  1  0  0  0  0
 34 33  2  0  0  0  0
 34 36  1  0  0  0  0
 35 37  2  0  0  0  0
 36 38  1  0  0  0  0
 36 37  1  0  0  0  0
 39 38  1  0  0  0  0
 40 39  1  0  0  0  0
 41 40  1  0  0  0  0
 42 41  1  0  0  0  0
 43 42  1  0  0  0  0
 44 43  2  0  0  0  0
 45 43  1  0  0  0  0
 46 45  1  0  0  0  0
 47 48  1  0  0  0  0
 49 48  1  0  0  0  0
 49 50  1  0  0  0  0
 51 50  1  0  0  0  0
 52 51  1  0  0  0  0
M  END
>  <REMARK>
 VINA RESULT:    -4.427      3.345      7.569
 INTER + INTRA:         -15.004
 INTER:                  -8.727
 INTRA:                  -6.277
 UNBOUND:                -5.918
 SMILES CC(=O)N[C@@H]1[C@@H](O)C[C@](O)(C(=O)O)O[C@H]1C(O)[C@H](O)CNC(=O)OCc1cn(CCCCCC(=O)O)nn1
 SMILES IDX 25 1 24 2 22 3 21 4 23 6 20 7 18 8 16 9 15 10 9 11 8 12
 SMILES IDX 14 13 6 14 5 15 10 16 11 18 12 19 13 20 7 22 4 24 2 25 1 27
 SMILES IDX 3 28 17 29 19 31 26 33 27 34 38 35 28 36 37 37 29 38 30 39
 SMILES IDX 31 40 32 41 33 42 34 43 35 44 36 45
 H PARENT 21 5 10 17 13 21 7 23 4 26 17 30 19 32 36 46
 Flexibility Score: inf
  4 active torsions:
  status: ('A' for Active; 'I' for Inactive)
    1  A    between atoms: CA   and  CB  
    2  A    between atoms: CB   and  CG  
    3  A    between atoms: CG   and  CD  
    4  A    between atoms: CD   and  CE  

>  <TORSDO>
F 21

>  <BEGIN_>
RES LYS A 131

$$$$
ligand_33_pose_5_2HRL.pdbqt
 OpenBabel07062320523D

  6  5  0  0  0  0  0  0  0  0999 V2000
   33.1930   34.6630    9.2900 C   0  0  0  0  0  0  0  0  0  0  0  0
   32.0600   35.3600   10.0340 C   0  0  0  0  0  0  0  0  0  0  0  0
   32.4820   35.9550   11.3530 C   0  0  0  0  0  0  0  0  0  0  0  0
   31.8800   37.3400   11.5330 C   0  0  0  0  0  0  0  0  0  0  0  0
   31.5040   37.5730   12.9840 C   0  0  0  0  0  0  0  0  0  0  0  0
   30.5330   36.5480   13.4570 N   0  0  0  0  0  0  0  0  0  0  0  0
  1  2  1  0  0  0  0
  2  3  1  0  0  0  0
  3  4  1  0  0  0  0
  4  5  1  0  0  0  0
  5  6  1  0  0  0  0
M  END
>  <EGIN_R>
ES LYS A 135

>  <REMARK>
  4 active torsions:
  status: ('A' for Active; 'I' for Inactive)
    5  A    between atoms: CA   and  CB  
    6  A    between atoms: CB   and  CG  
    7  A    between atoms: CG   and  CD  
    8  A    between atoms: CD   and  CE  

$$$$
