ligand_26_pose_10_2HRL.pdbqt
 OpenBabel07062320523D

 54 55  0  0  1  0  0  0  0  0999 V2000
   23.8780   39.8020    8.3830 N   0  0  0  0  0  0  0  0  0  0  0  0
   22.7520   39.7750    9.2550 C   0  0  0  0  0  0  0  0  0  0  0  0
   22.9140   40.0880   10.4490 O   0  0  0  0  0  0  0  0  0  0  0  0
   23.6580   39.5240    7.3780 H   0  0  0  0  0  0  0  0  0  0  0  0
   25.2170   40.1690    8.7880 C   0  0  0  0  0  0  0  0  0  0  0  0
   26.0800   38.9560    9.0540 C   0  0  2  0  0  0  0  0  0  0  0  0
   26.5580   38.3100    7.7710 C   0  0  1  0  0  0  0  0  0  0  0  0
   27.9430   37.7450    7.8770 C   0  0  2  0  0  0  0  0  0  0  0  0
   29.3310   39.2510    6.7590 C   0  0  2  0  0  0  0  0  0  0  0  0
   29.5800   38.2820    5.6300 C   0  0  0  0  0  0  0  0  0  0  0  0
   28.9270   38.6940    7.9350 O   0  0  0  0  0  0  0  0  0  0  0  0
   28.4780   37.2790    5.4640 C   0  0  1  0  0  0  0  0  0  0  0  0
   28.2070   36.6820    6.8260 C   0  0  1  0  0  0  0  0  0  0  0  0
   28.4890   40.2910    6.3020 O   0  0  0  0  0  0  0  0  0  0  0  0
   27.7010   40.4030    6.8660 H   0  0  0  0  0  0  0  0  0  0  0  0
   30.6620   39.9090    7.0260 C   0  0  0  0  0  0  0  0  0  0  0  0
   30.8160   41.1340    7.1150 O   0  0  0  0  0  0  0  0  0  0  0  0
   31.7380   39.0160    7.1730 O   0  0  0  0  0  0  0  0  0  0  0  0
   32.5670   39.1080    6.6060 H   0  0  0  0  0  0  0  0  0  0  0  0
   27.3510   37.8050    4.8770 O   0  0  0  0  0  0  0  0  0  0  0  0
   27.0370   37.2070    4.1560 H   0  0  0  0  0  0  0  0  0  0  0  0
   29.4680   36.0350    7.2270 N   0  0  0  0  0  0  0  0  0  0  0  0
   29.4170   34.8730    8.0450 C   0  0  0  0  0  0  0  0  0  0  0  0
   30.3930   36.4000    6.9320 H   0  0  0  0  0  0  0  0  0  0  0  0
   30.6980   34.2320    8.4380 C   0  0  0  0  0  0  0  0  0  0  0  0
   28.3020   34.4320    8.4000 O   0  0  0  0  0  0  0  0  0  0  0  0
   25.6270   37.3190    7.4500 O   0  0  0  0  0  0  0  0  0  0  0  0
   25.4730   36.7470    8.2590 H   0  0  0  0  0  0  0  0  0  0  0  0
   25.3360   38.0300    9.8140 O   0  0  0  0  0  0  0  0  0  0  0  0
   24.5460   37.6990    9.3190 H   0  0  0  0  0  0  0  0  0  0  0  0
   21.4920   39.4190    8.8330 O   0  0  0  0  0  0  0  0  0  0  0  0
   20.9890   38.1040    8.7620 C   0  0  0  0  0  0  0  0  0  0  0  0
   21.9530   37.0610    9.1240 C   0  0  0  0  0  0  0  0  0  0  0  0
   21.9650   36.3370   10.3240 C   0  0  0  0  0  0  0  0  0  0  0  0
   23.0040   36.5760    8.4140 N   0  0  0  0  0  0  0  0  0  0  0  0
   22.9730   35.4890   10.2860 N   0  0  0  0  0  0  0  0  0  0  0  0
   23.5820   35.6430    9.1460 N   0  0  0  0  0  0  0  0  0  0  0  0
   23.3300   34.5290   11.3780 C   0  0  1  0  0  0  0  0  0  0  0  0
   24.2190   35.3290   12.2950 C   0  0  0  0  0  0  0  0  0  0  0  0
   22.0800   34.1180   12.0020 C   0  0  0  0  0  0  0  0  0  0  0  0
   22.0430   33.0170   12.9110 C   0  0  2  0  0  0  0  0  0  0  0  0
   21.5330   33.3560   14.0990 O   0  0  0  0  0  0  0  0  0  0  0  0
   22.4310   31.6430   12.8340 C   0  0  0  0  0  0  0  0  0  0  0  0
   21.4610   30.6880   12.4420 C   0  0  0  0  0  0  0  0  0  0  0  0
   23.6880   31.1520   13.0910 C   0  0  0  0  0  0  0  0  0  0  0  0
   21.7700   29.3560   12.3310 C   0  0  0  0  0  0  0  0  0  0  0  0
   23.9640   29.7970   12.9680 C   0  0  0  0  0  0  0  0  0  0  0  0
   23.0320   28.8860   12.5940 C   0  0  0  0  0  0  0  0  0  0  0  0
   29.8670   25.5550   16.9770 C   0  0  0  0  0  0  0  0  0  0  0  0
   28.3450   25.7220   17.0260 C   0  0  0  0  0  0  0  0  0  0  0  0
   27.6020   24.3990   16.9270 C   0  0  0  0  0  0  0  0  0  0  0  0
   26.5460   24.2610   17.9880 C   0  0  0  0  0  0  0  0  0  0  0  0
   25.1650   24.3400   17.3460 C   0  0  0  0  0  0  0  0  0  0  0  0
   24.5240   25.6420   17.6490 N   0  0  0  0  0  0  0  0  0  0  0  0
  1  5  1  0  0  0  0
  1  2  1  0  0  0  0
  2  3  2  0  0  0  0
  4  1  1  0  0  0  0
  6  5  1  6  0  0  0
  6 29  1  0  0  0  0
  7 27  1  1  0  0  0
  7  6  1  0  0  0  0
  8  7  1  6  0  0  0
  8 11  1  0  0  0  0
  9 14  1  6  0  0  0
  9 16  1  0  0  0  0
  9 11  1  0  0  0  0
 10  9  1  0  0  0  0
 12 20  1  1  0  0  0
 12 10  1  0  0  0  0
 12 13  1  0  0  0  0
 13 22  1  1  0  0  0
 13  8  1  0  0  0  0
 14 15  1  0  0  0  0
 16 17  2  0  0  0  0
 16 18  1  0  0  0  0
 19 18  1  0  0  0  0
 21 20  1  0  0  0  0
 22 23  1  0  0  0  0
 23 26  2  0  0  0  0
 23 25  1  0  0  0  0
 24 22  1  0  0  0  0
 27 28  1  0  0  0  0
 30 29  1  0  0  0  0
 31  2  1  0  0  0  0
 32 31  1  0  0  0  0
 32 33  1  0  0  0  0
 33 34  2  0  0  0  0
 35 33  1  0  0  0  0
 35 37  2  0  0  0  0
 36 34  1  0  0  0  0
 36 38  1  0  0  0  0
 37 36  1  0  0  0  0
 38 40  1  0  0  0  0
 38 39  1  1  0  0  0
 40 41  1  0  0  0  0
 41 42  1  1  0  0  0
 43 41  1  0  0  0  0
 43 45  2  0  0  0  0
 44 43  1  0  0  0  0
 46 44  2  0  0  0  0
 46 48  1  0  0  0  0
 47 45  1  0  0  0  0
 48 47  2  0  0  0  0
 49 50  1  0  0  0  0
 51 50  1  0  0  0  0
 51 52  1  0  0  0  0
 53 54  1  0  0  0  0
 53 52  1  0  0  0  0
M  END
>  <REMARK>
 VINA RESULT:    -4.734      7.303     13.368
 INTER + INTRA:         -15.958
 INTER:                 -11.047
 INTRA:                  -4.911
 UNBOUND:                -6.934
 SMILES CC(=O)N[C@@H]1[C@@H](O)C[C@](O)(C(=O)O)O[C@H]1C(O)[C@H](O)CNC(=O)OCc1cn(C(C)CC(=O)c2ccccc2)nn1
 SMILES IDX 21 1 22 2 23 3 20 5 18 6 16 7 15 8 9 9 8 10 14 11 6 12 5 13
 SMILES IDX 10 14 11 16 12 17 13 18 7 20 4 22 2 23 1 25 3 26 17 27 19 29
 SMILES IDX 24 31 25 32 26 33 27 34 41 35 28 36 40 37 29 38 30 39 31 40
 SMILES IDX 32 41 33 42 34 43 35 44 39 45 36 46 38 47 37 48
 H PARENT 21 4 10 15 13 19 7 21 4 24 17 28 19 30
 Flexibility Score: inf
  4 active torsions:
  status: ('A' for Active; 'I' for Inactive)
    1  A    between atoms: CA   and  CB  
    2  A    between atoms: CB   and  CG  
    3  A    between atoms: CG   and  CD  
    4  A    between atoms: CD   and  CE  

>  <TORSDO>
F 18

>  <BEGIN_>
RES LYS A 131

$$$$
ligand_26_pose_10_2HRL.pdbqt
 OpenBabel07062320523D

  6  5  0  0  0  0  0  0  0  0999 V2000
   33.1930   34.6630    9.2900 C   0  0  0  0  0  0  0  0  0  0  0  0
   32.0600   35.3600   10.0340 C   0  0  0  0  0  0  0  0  0  0  0  0
   32.5010   36.0370   11.3060 C   0  0  0  0  0  0  0  0  0  0  0  0
   31.8810   37.4210   11.4210 C   0  0  0  0  0  0  0  0  0  0  0  0
   30.3680   37.3340   11.3530 C   0  0  0  0  0  0  0  0  0  0  0  0
   29.8070   36.7530   12.6040 N   0  0  0  0  0  0  0  0  0  0  0  0
  1  2  1  0  0  0  0
  2  3  1  0  0  0  0
  3  4  1  0  0  0  0
  5  4  1  0  0  0  0
  5  6  1  0  0  0  0
M  END
>  <EGIN_R>
ES LYS A 135

>  <REMARK>
  4 active torsions:
  status: ('A' for Active; 'I' for Inactive)
    5  A    between atoms: CA   and  CB  
    6  A    between atoms: CB   and  CG  
    7  A    between atoms: CG   and  CD  
    8  A    between atoms: CD   and  CE  

$$$$
