ligand_79_pose_17_2HRL.pdbqt
 OpenBabel07062320523D

 58 60  0  0  1  0  0  0  0  0999 V2000
   26.4020   38.1750   13.7980 N   0  0  0  0  0  0  0  0  0  0  0  0
   25.5620   37.5930   14.7780 C   0  0  0  0  0  0  0  0  0  0  0  0
   26.0210   36.8660   15.6620 O   0  0  0  0  0  0  0  0  0  0  0  0
   25.8980   38.7970   13.0800 H   0  0  0  0  0  0  0  0  0  0  0  0
   27.8250   38.0020   13.6940 C   0  0  0  0  0  0  0  0  0  0  0  0
   28.2810   36.8100   12.9400 C   0  0  2  0  0  0  0  0  0  0  0  0
   29.5400   36.1740   13.5080 C   0  0  1  0  0  0  0  0  0  0  0  0
   29.4220   34.6730   13.5810 C   0  0  2  0  0  0  0  0  0  0  0  0
   27.8890   33.8570   15.1140 C   0  0  2  0  0  0  0  0  0  0  0  0
   28.7700   32.7120   15.5670 C   0  0  0  0  0  0  0  0  0  0  0  0
   28.1510   34.2260   13.8010 O   0  0  0  0  0  0  0  0  0  0  0  0
   30.0360   32.6250   14.7390 C   0  0  1  0  0  0  0  0  0  0  0  0
   30.4670   34.0730   14.4970 C   0  0  1  0  0  0  0  0  0  0  0  0
   27.9640   34.9590   15.9650 O   0  0  0  0  0  0  0  0  0  0  0  0
   28.4110   34.7130   16.8250 H   0  0  0  0  0  0  0  0  0  0  0  0
   26.4840   33.3690   15.1590 C   0  0  0  0  0  0  0  0  0  0  0  0
   26.2290   32.2520   15.7110 O   0  0  0  0  0  0  0  0  0  0  0  0
   25.4230   34.0660   14.6300 O   0  0  0  0  0  0  0  0  0  0  0  0
   25.5230   34.9490   14.1470 H   0  0  0  0  0  0  0  0  0  0  0  0
   31.0240   31.9000   15.3620 O   0  0  0  0  0  0  0  0  0  0  0  0
   31.2760   32.3880   16.2100 H   0  0  0  0  0  0  0  0  0  0  0  0
   31.7600   34.1410   13.8720 N   0  0  0  0  0  0  0  0  0  0  0  0
   32.9270   34.5930   14.5830 C   0  0  0  0  0  0  0  0  0  0  0  0
   31.9340   33.8700   12.8730 H   0  0  0  0  0  0  0  0  0  0  0  0
   34.2600   34.6770   13.9840 C   0  0  0  0  0  0  0  0  0  0  0  0
   32.7450   34.9280   15.7970 O   0  0  0  0  0  0  0  0  0  0  0  0
   30.5650   36.5210   12.6230 O   0  0  0  0  0  0  0  0  0  0  0  0
   31.4550   36.4210   13.0130 H   0  0  0  0  0  0  0  0  0  0  0  0
   28.5650   37.1340   11.6270 O   0  0  0  0  0  0  0  0  0  0  0  0
   29.2750   36.5160   11.3110 H   0  0  0  0  0  0  0  0  0  0  0  0
   24.1830   37.8120   14.7920 O   0  0  0  0  0  0  0  0  0  0  0  0
   23.3010   36.8790   14.2420 C   0  0  0  0  0  0  0  0  0  0  0  0
   23.1200   37.1290   12.7890 C   0  0  0  0  0  0  0  0  0  0  0  0
   23.6260   36.3530   11.7570 C   0  0  0  0  0  0  0  0  0  0  0  0
   22.4480   38.1220   12.1710 N   0  0  0  0  0  0  0  0  0  0  0  0
   23.2550   36.8880   10.5760 N   0  0  0  0  0  0  0  0  0  0  0  0
   22.5410   37.9620   10.8630 N   0  0  0  0  0  0  0  0  0  0  0  0
   23.5930   36.3600    9.2400 C   0  0  0  0  0  0  0  0  0  0  0  0
   24.3980   35.1160    9.3950 C   0  0  0  0  0  0  0  0  0  0  0  0
   22.2180   36.0450    8.6210 C   0  0  0  0  0  0  0  0  0  0  0  0
   24.2040   37.4490    8.4830 C   0  0  0  0  0  0  0  0  0  0  0  0
   23.5220   38.1250    7.6340 O   0  0  0  0  0  0  0  0  0  0  0  0
   25.5960   37.8710    8.5940 C   0  0  0  0  0  0  0  0  0  0  0  0
   26.1000   38.7000    9.5950 C   0  0  0  0  0  0  0  0  0  0  0  0
   26.5990   37.5390    7.7210 C   0  0  0  0  0  0  0  0  0  0  0  0
   27.3930   38.8650    9.3260 N   0  0  0  0  0  0  0  0  0  0  0  0
   27.7380   38.1860    8.2100 C   0  0  0  0  0  0  0  0  0  0  0  0
   26.6850   36.7560    6.5730 C   0  0  0  0  0  0  0  0  0  0  0  0
   28.0530   39.4280    9.8810 H   0  0  0  0  0  0  0  0  0  0  0  0
   28.9250   38.0250    7.5230 C   0  0  0  0  0  0  0  0  0  0  0  0
   27.8750   36.6190    5.9200 C   0  0  0  0  0  0  0  0  0  0  0  0
   28.9880   37.2490    6.3910 C   0  0  0  0  0  0  0  0  0  0  0  0
   29.8670   25.5550   16.9770 C   0  0  0  0  0  0  0  0  0  0  0  0
   28.3450   25.7220   17.0260 C   0  0  0  0  0  0  0  0  0  0  0  0
   27.6020   24.3990   16.9180 C   0  0  0  0  0  0  0  0  0  0  0  0
   26.6420   24.1940   18.0570 C   0  0  0  0  0  0  0  0  0  0  0  0
   25.7550   25.4260   18.2030 C   0  0  0  0  0  0  0  0  0  0  0  0
   25.7960   25.9330   19.5950 N   0  0  0  0  0  0  0  0  0  0  0  0
  1  2  1  0  0  0  0
  2 31  1  0  0  0  0
  2  3  2  0  0  0  0
  4  1  1  0  0  0  0
  5  1  1  0  0  0  0
  6  7  1  0  0  0  0
  6  5  1  1  0  0  0
  7 27  1  6  0  0  0
  8  7  1  1  0  0  0
  8 11  1  0  0  0  0
  8 13  1  0  0  0  0
  9 16  1  1  0  0  0
  9 10  1  0  0  0  0
  9 14  1  0  0  0  0
 11  9  1  0  0  0  0
 12 20  1  1  0  0  0
 12 10  1  0  0  0  0
 13 22  1  6  0  0  0
 13 12  1  0  0  0  0
 14 15  1  0  0  0  0
 16 17  2  0  0  0  0
 18 16  1  0  0  0  0
 19 18  1  0  0  0  0
 20 21  1  0  0  0  0
 22 23  1  0  0  0  0
 23 26  2  0  0  0  0
 24 22  1  0  0  0  0
 25 23  1  0  0  0  0
 27 28  1  0  0  0  0
 29  6  1  0  0  0  0
 30 29  1  0  0  0  0
 32 31  1  0  0  0  0
 33 32  1  0  0  0  0
 34 33  2  0  0  0  0
 35 33  1  0  0  0  0
 36 37  1  0  0  0  0
 36 34  1  0  0  0  0
 37 35  2  0  0  0  0
 38 39  1  0  0  0  0
 38 36  1  0  0  0  0
 40 38  1  0  0  0  0
 41 43  1  0  0  0  0
 41 38  1  0  0  0  0
 42 41  2  0  0  0  0
 43 44  2  0  0  0  0
 45 47  1  0  0  0  0
 45 43  1  0  0  0  0
 46 44  1  0  0  0  0
 46 49  1  0  0  0  0
 47 46  1  0  0  0  0
 48 45  2  0  0  0  0
 50 47  2  0  0  0  0
 51 52  2  0  0  0  0
 51 48  1  0  0  0  0
 52 50  1  0  0  0  0
 53 54  1  0  0  0  0
 55 54  1  0  0  0  0
 55 56  1  0  0  0  0
 56 57  1  0  0  0  0
 57 58  1  0  0  0  0
M  END
>  <REMARK>
 VINA RESULT:    -5.865      2.559      8.181
 INTER + INTRA:         -15.614
 INTER:                  -8.795
 INTRA:                  -6.819
 UNBOUND:                -4.777
 SMILES CC(=O)N[C@@H]1[C@@H](O)C[C@](O)(C(=O)O)O[C@H]1C(O)[C@H](O)CNC(=O)OCc1cn(C(C)(C)C(=O)c2c[nH]c3ccccc23)nn1
 SMILES IDX 21 1 22 2 23 3 20 5 18 6 16 7 15 8 9 9 8 10 14 11 6 12 5 13
 SMILES IDX 10 14 11 16 12 17 13 18 7 20 4 22 2 23 1 25 3 26 17 27 19 29
 SMILES IDX 24 31 25 32 26 33 27 34 44 35 28 36 43 37 29 38 30 39 31 40
 SMILES IDX 32 41 33 42 34 43 35 44 42 45 36 46 37 47 41 48 38 50 40 51
 SMILES IDX 39 52
 H PARENT 21 4 10 15 13 19 7 21 4 24 17 28 19 30 36 49
 Flexibility Score: inf
  4 active torsions:
  status: ('A' for Active; 'I' for Inactive)
    1  A    between atoms: CA   and  CB  
    2  A    between atoms: CB   and  CG  
    3  A    between atoms: CG   and  CD  
    4  A    between atoms: CD   and  CE  

>  <TORSDO>
F 17

>  <BEGIN_>
RES LYS A 131

$$$$
ligand_79_pose_17_2HRL.pdbqt
 OpenBabel07062320523D

  6  5  0  0  0  0  0  0  0  0999 V2000
   33.1930   34.6630    9.2900 C   0  0  0  0  0  0  0  0  0  0  0  0
   32.0600   35.3600   10.0340 C   0  0  0  0  0  0  0  0  0  0  0  0
   30.8060   35.5170    9.2120 C   0  0  0  0  0  0  0  0  0  0  0  0
   30.0900   34.1830    9.0670 C   0  0  0  0  0  0  0  0  0  0  0  0
   28.6120   34.3990    8.8020 C   0  0  0  0  0  0  0  0  0  0  0  0
   27.7780   33.6810    9.8050 N   0  0  0  0  0  0  0  0  0  0  0  0
  1  2  1  0  0  0  0
  3  2  1  0  0  0  0
  4  3  1  0  0  0  0
  5  4  1  0  0  0  0
  5  6  1  0  0  0  0
M  END
>  <EGIN_R>
ES LYS A 135

>  <REMARK>
  4 active torsions:
  status: ('A' for Active; 'I' for Inactive)
    5  A    between atoms: CA   and  CB  
    6  A    between atoms: CB   and  CG  
    7  A    between atoms: CG   and  CD  
    8  A    between atoms: CD   and  CE  

$$$$
