ligand_40_pose_15_2HRL.pdbqt
 OpenBabel07062320523D

 50 51  0  0  1  0  0  0  0  0999 V2000
   26.5940   30.3810   16.0550 C   0  0  0  0  0  0  0  0  0  0  0  0
   27.9810   30.8670   16.1350 C   0  0  2  0  0  0  0  0  0  0  0  0
   28.2910   32.2790   15.7560 C   0  0  2  0  0  0  0  0  0  0  0  0
   29.2050   33.0380   16.6650 C   0  0  2  0  0  0  0  0  0  0  0  0
   30.2160   34.5350   15.1720 C   0  0  2  0  0  0  0  0  0  0  0  0
   31.6180   34.0500   15.4960 C   0  0  0  0  0  0  0  0  0  0  0  0
   29.3190   34.3480   16.1760 O   0  0  0  0  0  0  0  0  0  0  0  0
   31.5390   32.6230   16.0140 C   0  0  1  0  0  0  0  0  0  0  0  0
   30.4990   32.4650   17.0750 C   0  0  1  0  0  0  0  0  0  0  0  0
   29.8720   33.9790   13.9640 O   0  0  0  0  0  0  0  0  0  0  0  0
   30.6190   33.5350   13.4860 H   0  0  0  0  0  0  0  0  0  0  0  0
   30.3500   36.0130   14.9800 C   0  0  0  0  0  0  0  0  0  0  0  0
   29.5660   36.8360   15.5410 O   0  0  0  0  0  0  0  0  0  0  0  0
   31.3480   36.5170   14.1710 O   0  0  0  0  0  0  0  0  0  0  0  0
   31.6530   37.4850   14.3000 H   0  0  0  0  0  0  0  0  0  0  0  0
   31.1320   31.8780   14.9060 O   0  0  0  0  0  0  0  0  0  0  0  0
   31.0110   30.9200   15.1330 H   0  0  0  0  0  0  0  0  0  0  0  0
   30.8510   33.0890   18.3360 N   0  0  0  0  0  0  0  0  0  0  0  0
   30.9040   32.3950   19.5560 C   0  0  0  0  0  0  0  0  0  0  0  0
   31.0690   34.1060   18.2850 H   0  0  0  0  0  0  0  0  0  0  0  0
   31.2580   33.0020   20.8530 C   0  0  0  0  0  0  0  0  0  0  0  0
   30.6260   31.1820   19.5080 O   0  0  0  0  0  0  0  0  0  0  0  0
   27.0280   32.9880   16.0200 O   0  0  0  0  0  0  0  0  0  0  0  0
   26.3010   32.3550   15.7790 H   0  0  0  0  0  0  0  0  0  0  0  0
   28.8930   29.9430   15.6490 O   0  0  0  0  0  0  0  0  0  0  0  0
   29.3880   30.2970   14.8470 H   0  0  0  0  0  0  0  0  0  0  0  0
   25.8880   30.7300   14.8200 N   0  0  0  0  0  0  0  0  0  0  0  0
   24.5740   30.2790   14.5600 C   0  0  0  0  0  0  0  0  0  0  0  0
   26.3300   31.3240   14.0710 H   0  0  0  0  0  0  0  0  0  0  0  0
   23.9930   29.5680   15.3870 O   0  0  0  0  0  0  0  0  0  0  0  0
   23.8820   30.6000   13.3910 O   0  0  0  0  0  0  0  0  0  0  0  0
   23.1980   31.8290   13.3090 C   0  0  0  0  0  0  0  0  0  0  0  0
   24.0770   32.9900   13.4800 C   0  0  0  0  0  0  0  0  0  0  0  0
   24.7060   33.6340   12.4340 C   0  0  0  0  0  0  0  0  0  0  0  0
   24.4610   33.6640   14.5820 N   0  0  0  0  0  0  0  0  0  0  0  0
   25.4430   34.6610   12.9070 N   0  0  0  0  0  0  0  0  0  0  0  0
   25.2700   34.6480   14.2110 N   0  0  0  0  0  0  0  0  0  0  0  0
   26.2540   35.5920   12.1920 C   0  0  0  0  0  0  0  0  0  0  0  0
   25.7500   36.2940   11.1160 C   0  0  0  0  0  0  0  0  0  0  0  0
   27.5690   35.8320   12.5350 C   0  0  0  0  0  0  0  0  0  0  0  0
   26.5240   37.1990   10.4150 C   0  0  0  0  0  0  0  0  0  0  0  0
   28.3470   36.7340   11.8380 C   0  0  0  0  0  0  0  0  0  0  0  0
   27.8370   37.4330   10.7660 C   0  0  0  0  0  0  0  0  0  0  0  0
   28.7080   38.3950   10.0410 C   0  0  0  0  0  0  0  0  0  0  0  0
   29.8670   25.5550   16.9770 C   0  0  0  0  0  0  0  0  0  0  0  0
   28.3450   25.7220   17.0260 C   0  0  0  0  0  0  0  0  0  0  0  0
   27.6020   24.3990   16.9230 C   0  0  0  0  0  0  0  0  0  0  0  0
   26.1530   24.5320   17.3000 C   0  0  0  0  0  0  0  0  0  0  0  0
   25.9580   25.7960   18.1320 C   0  0  0  0  0  0  0  0  0  0  0  0
   25.7760   25.4520   19.5620 N   0  0  0  0  0  0  0  0  0  0  0  0
  2  1  1  6  0  0  0
  3 23  1  1  0  0  0
  3  2  1  0  0  0  0
  4  3  1  6  0  0  0
  4  9  1  0  0  0  0
  5 10  1  6  0  0  0
  5  6  1  0  0  0  0
  5  7  1  0  0  0  0
  6  8  1  0  0  0  0
  7  4  1  0  0  0  0
  8 16  1  6  0  0  0
  8  9  1  0  0  0  0
  9 18  1  1  0  0  0
 11 10  1  0  0  0  0
 12  5  1  0  0  0  0
 12 13  2  0  0  0  0
 14 15  1  0  0  0  0
 14 12  1  0  0  0  0
 16 17  1  0  0  0  0
 18 19  1  0  0  0  0
 19 21  1  0  0  0  0
 20 18  1  0  0  0  0
 22 19  2  0  0  0  0
 24 23  1  0  0  0  0
 25  2  1  0  0  0  0
 26 25  1  0  0  0  0
 27  1  1  0  0  0  0
 28 27  1  0  0  0  0
 28 30  2  0  0  0  0
 29 27  1  0  0  0  0
 31 28  1  0  0  0  0
 32 31  1  0  0  0  0
 32 33  1  0  0  0  0
 33 35  1  0  0  0  0
 34 36  1  0  0  0  0
 34 33  2  0  0  0  0
 36 37  1  0  0  0  0
 37 35  2  0  0  0  0
 38 40  1  0  0  0  0
 38 36  1  0  0  0  0
 39 38  2  0  0  0  0
 41 43  2  0  0  0  0
 41 39  1  0  0  0  0
 42 40  2  0  0  0  0
 43 42  1  0  0  0  0
 44 43  1  0  0  0  0
 45 46  1  0  0  0  0
 47 46  1  0  0  0  0
 47 48  1  0  0  0  0
 48 49  1  0  0  0  0
 49 50  1  0  0  0  0
M  END
>  <REMARK>
 VINA RESULT:    -5.076      2.101      5.357
 INTER + INTRA:         -13.797
 INTER:                  -8.281
 INTRA:                  -5.516
 UNBOUND:                -5.012
 SMILES CC(=O)N[C@@H]1[C@@H](O)C[C@](O)(C(=O)O)O[C@H]1C(O)[C@H](O)CNC(=O)OCc1cn(-c2ccc(C)cc2)nn1
 SMILES IDX 20 1 18 2 16 3 15 4 9 5 8 6 14 7 6 8 5 9 10 10 11 12 12 13
 SMILES IDX 13 14 7 16 4 18 2 19 1 21 3 22 17 23 19 25 21 27 22 28 23 30
 SMILES IDX 24 31 25 32 26 33 27 34 37 35 28 36 36 37 29 38 30 39 35 40
 SMILES IDX 31 41 34 42 32 43 33 44
 H PARENT 10 11 13 15 7 17 4 20 17 24 19 26 21 29
 Flexibility Score: inf
  4 active torsions:
  status: ('A' for Active; 'I' for Inactive)
    1  A    between atoms: CA   and  CB  
    2  A    between atoms: CB   and  CG  
    3  A    between atoms: CG   and  CD  
    4  A    between atoms: CD   and  CE  

>  <TORSDO>
F 15

>  <BEGIN_>
RES LYS A 131

$$$$
ligand_40_pose_15_2HRL.pdbqt
 OpenBabel07062320523D

  6  5  0  0  0  0  0  0  0  0999 V2000
   33.1930   34.6630    9.2900 C   0  0  0  0  0  0  0  0  0  0  0  0
   32.0600   35.3600   10.0340 C   0  0  0  0  0  0  0  0  0  0  0  0
   30.7900   35.4700    9.2310 C   0  0  0  0  0  0  0  0  0  0  0  0
   29.8910   34.2690    9.4820 C   0  0  0  0  0  0  0  0  0  0  0  0
   28.5760   34.4240    8.7420 C   0  0  0  0  0  0  0  0  0  0  0  0
   27.4900   33.6540    9.4100 N   0  0  0  0  0  0  0  0  0  0  0  0
  1  2  1  0  0  0  0
  3  4  1  0  0  0  0
  3  2  1  0  0  0  0
  5  6  1  0  0  0  0
  5  4  1  0  0  0  0
M  END
>  <EGIN_R>
ES LYS A 135

>  <REMARK>
  4 active torsions:
  status: ('A' for Active; 'I' for Inactive)
    5  A    between atoms: CA   and  CB  
    6  A    between atoms: CB   and  CG  
    7  A    between atoms: CG   and  CD  
    8  A    between atoms: CD   and  CE  

$$$$
