ligand_29_pose_2_2HRL.pdbqt
 OpenBabel07062320523D

 54 55  0  0  1  0  0  0  0  0999 V2000
   29.5640   36.8590   17.1050 N   0  0  0  0  0  0  0  0  0  0  0  0
   30.1550   37.6060   16.0770 C   0  0  0  0  0  0  0  0  0  0  0  0
   31.3170   38.0540   16.1830 O   0  0  0  0  0  0  0  0  0  0  0  0
   28.5660   36.5230   16.9390 H   0  0  0  0  0  0  0  0  0  0  0  0
   30.1870   36.5020   18.3670 C   0  0  0  0  0  0  0  0  0  0  0  0
   31.0450   35.2980   18.2140 C   0  0  2  0  0  0  0  0  0  0  0  0
   30.3950   34.0090   18.6510 C   0  0  2  0  0  0  0  0  0  0  0  0
   30.7880   32.8090   17.8560 C   0  0  2  0  0  0  0  0  0  0  0  0
   30.8160   33.4940   15.6270 C   0  0  2  0  0  0  0  0  0  0  0  0
   30.4310   32.1350   15.0580 C   0  0  0  0  0  0  0  0  0  0  0  0
   31.5490   33.2610   16.7590 O   0  0  0  0  0  0  0  0  0  0  0  0
   30.3450   31.1400   16.1790 C   0  0  1  0  0  0  0  0  0  0  0  0
   29.7710   31.8220   17.4750 C   0  0  1  0  0  0  0  0  0  0  0  0
   29.6980   34.3020   15.8020 O   0  0  0  0  0  0  0  0  0  0  0  0
   29.1950   34.4460   14.9590 H   0  0  0  0  0  0  0  0  0  0  0  0
   31.6960   34.1960   14.6490 C   0  0  0  0  0  0  0  0  0  0  0  0
   32.7140   34.7930   15.0710 O   0  0  0  0  0  0  0  0  0  0  0  0
   31.4340   34.2160   13.2870 O   0  0  0  0  0  0  0  0  0  0  0  0
   31.4750   35.0830   12.7350 H   0  0  0  0  0  0  0  0  0  0  0  0
   29.5350   30.0550   15.8620 O   0  0  0  0  0  0  0  0  0  0  0  0
   28.6410   30.3430   15.5810 H   0  0  0  0  0  0  0  0  0  0  0  0
   29.7210   30.6950   18.4170 N   0  0  0  0  0  0  0  0  0  0  0  0
   28.8260   30.6180   19.5110 C   0  0  0  0  0  0  0  0  0  0  0  0
   30.3810   29.8720   18.2990 H   0  0  0  0  0  0  0  0  0  0  0  0
   28.8020   29.4670   20.4500 C   0  0  0  0  0  0  0  0  0  0  0  0
   28.0130   31.5530   19.7120 O   0  0  0  0  0  0  0  0  0  0  0  0
   28.9710   34.1610   18.4030 O   0  0  0  0  0  0  0  0  0  0  0  0
   28.8130   33.8740   17.4720 H   0  0  0  0  0  0  0  0  0  0  0  0
   32.3580   35.4370   18.5800 O   0  0  0  0  0  0  0  0  0  0  0  0
   32.5780   35.0470   19.4480 H   0  0  0  0  0  0  0  0  0  0  0  0
   29.4520   37.8800   14.8840 O   0  0  0  0  0  0  0  0  0  0  0  0
   28.1200   37.3580   14.7620 C   0  0  0  0  0  0  0  0  0  0  0  0
   28.0210   36.3960   13.6670 C   0  0  0  0  0  0  0  0  0  0  0  0
   26.8790   36.0310   12.9990 C   0  0  0  0  0  0  0  0  0  0  0  0
   29.0410   35.7130   13.1240 N   0  0  0  0  0  0  0  0  0  0  0  0
   27.2220   35.1410   12.0730 N   0  0  0  0  0  0  0  0  0  0  0  0
   28.5230   34.9620   12.1620 N   0  0  0  0  0  0  0  0  0  0  0  0
   26.3400   34.4670   11.1270 C   0  0  0  0  0  0  0  0  0  0  0  0
   26.5720   35.0550    9.7710 C   0  0  0  0  0  0  0  0  0  0  0  0
   26.1120   36.3430    9.4980 C   0  0  0  0  0  0  0  0  0  0  0  0
   27.2360   34.3780    8.7700 C   0  0  0  0  0  0  0  0  0  0  0  0
   26.3110   36.9230    8.2700 C   0  0  0  0  0  0  0  0  0  0  0  0
   27.4520   34.9350    7.5250 C   0  0  0  0  0  0  0  0  0  0  0  0
   26.9820   36.2070    7.2960 C   0  0  0  0  0  0  0  0  0  0  0  0
   25.8550   38.2070    7.9830 O   0  0  0  0  0  0  0  0  0  0  0  0
   24.4580   38.4190    7.8870 C   0  0  0  0  0  0  0  0  0  0  0  0
   27.1790   36.8000    6.0590 O   0  0  0  0  0  0  0  0  0  0  0  0
   28.4390   37.3080    5.6620 C   0  0  0  0  0  0  0  0  0  0  0  0
   29.8670   25.5550   16.9770 C   0  0  0  0  0  0  0  0  0  0  0  0
   28.3450   25.7220   17.0260 C   0  0  0  0  0  0  0  0  0  0  0  0
   27.6010   24.4020   16.8960 C   0  0  0  0  0  0  0  0  0  0  0  0
   26.6300   24.1850   18.0240 C   0  0  0  0  0  0  0  0  0  0  0  0
   25.5910   23.1490   17.6090 C   0  0  0  0  0  0  0  0  0  0  0  0
   24.4620   23.8000   16.9040 N   0  0  0  0  0  0  0  0  0  0  0  0
  1  5  1  0  0  0  0
  2  3  2  0  0  0  0
  2  1  1  0  0  0  0
  4  1  1  0  0  0  0
  6  5  1  1  0  0  0
  6 29  1  0  0  0  0
  6  7  1  0  0  0  0
  7 27  1  6  0  0  0
  8  7  1  6  0  0  0
  9 16  1  6  0  0  0
  9 14  1  0  0  0  0
  9 11  1  0  0  0  0
 10  9  1  0  0  0  0
 10 12  1  0  0  0  0
 11  8  1  0  0  0  0
 12 20  1  6  0  0  0
 12 13  1  0  0  0  0
 13  8  1  0  0  0  0
 13 22  1  1  0  0  0
 15 14  1  0  0  0  0
 16 17  2  0  0  0  0
 18 16  1  0  0  0  0
 19 18  1  0  0  0  0
 21 20  1  0  0  0  0
 22 23  1  0  0  0  0
 23 26  2  0  0  0  0
 23 25  1  0  0  0  0
 24 22  1  0  0  0  0
 28 27  1  0  0  0  0
 29 30  1  0  0  0  0
 31  2  1  0  0  0  0
 32 31  1  0  0  0  0
 33 32  1  0  0  0  0
 34 33  2  0  0  0  0
 35 33  1  0  0  0  0
 36 37  1  0  0  0  0
 36 34  1  0  0  0  0
 37 35  2  0  0  0  0
 38 36  1  0  0  0  0
 39 38  1  0  0  0  0
 40 39  1  0  0  0  0
 41 39  2  0  0  0  0
 42 40  2  0  0  0  0
 43 41  1  0  0  0  0
 44 43  2  0  0  0  0
 44 42  1  0  0  0  0
 45 42  1  0  0  0  0
 46 45  1  0  0  0  0
 47 44  1  0  0  0  0
 48 47  1  0  0  0  0
 49 50  1  0  0  0  0
 51 50  1  0  0  0  0
 51 52  1  0  0  0  0
 53 52  1  0  0  0  0
 54 53  1  0  0  0  0
M  END
>  <REMARK>
 VINA RESULT:    -5.284      3.179      5.831
 INTER + INTRA:         -15.190
 INTER:                  -9.753
 INTRA:                  -5.437
 UNBOUND:                -5.118
 SMILES COc1ccc(Cn2cc(COC(=O)NC[C@@H](O)C(O)[C@@H]3O[C@@](O)(C(=O)O)C[C@H](O)[C@H]3NC(C)=O)nn2)cc1OC
 SMILES IDX 15 1 13 2 14 3 16 5 17 6 19 7 21 8 23 9 28 10 22 11 29 12
 SMILES IDX 31 13 24 14 25 16 26 17 27 18 30 20 32 22 33 23 34 25 35 26
 SMILES IDX 20 27 18 29 12 31 11 32 10 33 9 34 36 35 8 36 37 37 7 38
 SMILES IDX 6 39 38 40 5 41 39 42 4 43 3 44 40 45 41 46 2 47 1 48
 H PARENT 15 4 24 15 27 19 30 21 32 24 20 28 18 30
 Flexibility Score: inf
  4 active torsions:
  status: ('A' for Active; 'I' for Inactive)
    1  A    between atoms: CA   and  CB  
    2  A    between atoms: CB   and  CG  
    3  A    between atoms: CG   and  CD  
    4  A    between atoms: CD   and  CE  

>  <TORSDO>
F 18

>  <BEGIN_>
RES LYS A 131

$$$$
ligand_29_pose_2_2HRL.pdbqt
 OpenBabel07062320523D

  6  5  0  0  0  0  0  0  0  0999 V2000
   33.1930   34.6630    9.2900 C   0  0  0  0  0  0  0  0  0  0  0  0
   32.0600   35.3600   10.0340 C   0  0  0  0  0  0  0  0  0  0  0  0
   30.7400   35.3050    9.3090 C   0  0  0  0  0  0  0  0  0  0  0  0
   30.4220   36.6490    8.6710 C   0  0  0  0  0  0  0  0  0  0  0  0
   30.5130   37.7610    9.6980 C   0  0  0  0  0  0  0  0  0  0  0  0
   29.2330   37.9080   10.4450 N   0  0  0  0  0  0  0  0  0  0  0  0
  1  2  1  0  0  0  0
  3  2  1  0  0  0  0
  4  3  1  0  0  0  0
  4  5  1  0  0  0  0
  5  6  1  0  0  0  0
M  END
>  <EGIN_R>
ES LYS A 135

>  <REMARK>
  4 active torsions:
  status: ('A' for Active; 'I' for Inactive)
    5  A    between atoms: CA   and  CB  
    6  A    between atoms: CB   and  CG  
    7  A    between atoms: CG   and  CD  
    8  A    between atoms: CD   and  CE  

$$$$
