ligand_66_pose_19_2HRL.pdbqt
 OpenBabel07062320523D

 52 53  0  0  1  0  0  0  0  0999 V2000
   25.7430   30.1140   18.3980 N   0  0  0  0  0  0  0  0  0  0  0  0
   25.3100   29.9320   17.0800 C   0  0  0  0  0  0  0  0  0  0  0  0
   25.0770   28.7900   16.6350 O   0  0  0  0  0  0  0  0  0  0  0  0
   25.9160   31.1180   18.7060 H   0  0  0  0  0  0  0  0  0  0  0  0
   25.9560   29.0380   19.3290 C   0  0  0  0  0  0  0  0  0  0  0  0
   27.3710   28.5300   19.3270 C   0  0  2  0  0  0  0  0  0  0  0  0
   28.4250   29.5540   19.4950 C   0  0  2  0  0  0  0  0  0  0  0  0
   29.5970   29.1400   20.4000 C   0  0  2  0  0  0  0  0  0  0  0  0
   30.2750   27.4640   21.7850 C   0  0  2  0  0  0  0  0  0  0  0  0
   30.2670   28.3940   22.9810 C   0  0  0  0  0  0  0  0  0  0  0  0
   29.3390   27.9250   20.8970 O   0  0  0  0  0  0  0  0  0  0  0  0
   30.6540   29.7930   22.5850 C   0  0  1  0  0  0  0  0  0  0  0  0
   30.0080   30.2370   21.3050 C   0  0  1  0  0  0  0  0  0  0  0  0
   29.8890   26.1790   22.2430 O   0  0  0  0  0  0  0  0  0  0  0  0
   29.7350   25.6580   21.4030 H   0  0  0  0  0  0  0  0  0  0  0  0
   31.6460   27.3270   21.2810 C   0  0  0  0  0  0  0  0  0  0  0  0
   32.6410   27.3640   22.0410 O   0  0  0  0  0  0  0  0  0  0  0  0
   31.9530   27.1460   19.9170 O   0  0  0  0  0  0  0  0  0  0  0  0
   32.9420   26.9720   19.7200 H   0  0  0  0  0  0  0  0  0  0  0  0
   30.2900   30.6420   23.6300 O   0  0  0  0  0  0  0  0  0  0  0  0
   31.0520   31.1370   23.9960 H   0  0  0  0  0  0  0  0  0  0  0  0
   30.8960   31.1640   20.6310 N   0  0  0  0  0  0  0  0  0  0  0  0
   30.7280   32.5940   20.7130 C   0  0  0  0  0  0  0  0  0  0  0  0
   31.7140   30.8720   20.0400 H   0  0  0  0  0  0  0  0  0  0  0  0
   31.6700   33.5120   19.9980 C   0  0  0  0  0  0  0  0  0  0  0  0
   29.7940   33.0760   21.3830 O   0  0  0  0  0  0  0  0  0  0  0  0
   27.9440   30.7610   20.0060 O   0  0  0  0  0  0  0  0  0  0  0  0
   28.6480   31.4500   20.0930 H   0  0  0  0  0  0  0  0  0  0  0  0
   27.5210   27.6840   18.2290 O   0  0  0  0  0  0  0  0  0  0  0  0
   27.2720   26.7710   18.5140 H   0  0  0  0  0  0  0  0  0  0  0  0
   25.1180   30.9950   16.1960 O   0  0  0  0  0  0  0  0  0  0  0  0
   25.5010   32.2840   16.6020 C   0  0  0  0  0  0  0  0  0  0  0  0
   26.9680   32.3170   16.7680 C   0  0  0  0  0  0  0  0  0  0  0  0
   27.9360   31.9200   15.8720 C   0  0  0  0  0  0  0  0  0  0  0  0
   27.6290   32.7570   17.8540 N   0  0  0  0  0  0  0  0  0  0  0  0
   29.1420   32.1280   16.4320 N   0  0  0  0  0  0  0  0  0  0  0  0
   28.9080   32.6370   17.6360 N   0  0  0  0  0  0  0  0  0  0  0  0
   30.4650   31.8940   15.9180 C   0  0  0  0  0  0  0  0  0  0  0  0
   31.0430   33.1560   15.3480 C   0  0  0  0  0  0  0  0  0  0  0  0
   30.5340   33.6780   14.1800 C   0  0  0  0  0  0  0  0  0  0  0  0
   32.0720   33.8200   15.9630 C   0  0  0  0  0  0  0  0  0  0  0  0
   31.0640   34.8590   13.6480 C   0  0  0  0  0  0  0  0  0  0  0  0
   32.6180   34.9850   15.4680 C   0  0  0  0  0  0  0  0  0  0  0  0
   32.1070   35.5060   14.3010 C   0  0  0  0  0  0  0  0  0  0  0  0
   33.6930   35.6970   16.0940 C   0  0  0  0  0  0  0  0  0  0  0  0
   34.5550   36.2880   16.6120 N   0  0  0  0  0  0  0  0  0  0  0  0
   29.8670   25.5550   16.9770 C   0  0  0  0  0  0  0  0  0  0  0  0
   28.3450   25.7220   17.0260 C   0  0  0  0  0  0  0  0  0  0  0  0
   27.6010   24.4020   16.8930 C   0  0  0  0  0  0  0  0  0  0  0  0
   26.1540   24.5260   17.2820 C   0  0  0  0  0  0  0  0  0  0  0  0
   25.9610   23.9990   18.7000 C   0  0  0  0  0  0  0  0  0  0  0  0
   25.6070   25.1060   19.6210 N   0  0  0  0  0  0  0  0  0  0  0  0
  1  4  1  0  0  0  0
  1  5  1  0  0  0  0
  2  1  1  0  0  0  0
  3  2  2  0  0  0  0
  6  5  1  6  0  0  0
  6  7  1  0  0  0  0
  7 27  1  1  0  0  0
  8  7  1  1  0  0  0
  8 11  1  0  0  0  0
  8 13  1  0  0  0  0
  9 16  1  6  0  0  0
  9 14  1  0  0  0  0
  9 10  1  0  0  0  0
 11  9  1  0  0  0  0
 12 10  1  0  0  0  0
 12 20  1  1  0  0  0
 13 22  1  6  0  0  0
 13 12  1  0  0  0  0
 15 14  1  0  0  0  0
 16 17  2  0  0  0  0
 18 16  1  0  0  0  0
 19 18  1  0  0  0  0
 20 21  1  0  0  0  0
 22 23  1  0  0  0  0
 23 26  2  0  0  0  0
 24 22  1  0  0  0  0
 25 23  1  0  0  0  0
 27 28  1  0  0  0  0
 29 30  1  0  0  0  0
 29  6  1  0  0  0  0
 31 32  1  0  0  0  0
 31  2  1  0  0  0  0
 32 33  1  0  0  0  0
 33 35  1  0  0  0  0
 34 36  1  0  0  0  0
 34 33  2  0  0  0  0
 36 37  1  0  0  0  0
 37 35  2  0  0  0  0
 38 36  1  0  0  0  0
 39 38  1  0  0  0  0
 39 41  2  0  0  0  0
 40 39  1  0  0  0  0
 42 40  2  0  0  0  0
 42 44  1  0  0  0  0
 43 41  1  0  0  0  0
 43 45  1  0  0  0  0
 44 43  2  0  0  0  0
 45 46  3  0  0  0  0
 47 48  1  0  0  0  0
 49 48  1  0  0  0  0
 49 50  1  0  0  0  0
 50 51  1  0  0  0  0
 51 52  1  0  0  0  0
M  END
>  <REMARK>
 VINA RESULT:    -4.792      4.113      7.840
 INTER + INTRA:         -14.066
 INTER:                  -8.854
 INTRA:                  -5.212
 UNBOUND:                -5.212
 SMILES CC(=O)N[C@@H]1[C@@H](O)C[C@](O)(C(=O)O)O[C@H]1C(O)[C@H](O)CNC(=O)OCc1cn(Cc2cccc(C#N)c2)nn1
 SMILES IDX 21 1 22 2 23 3 20 5 18 6 16 7 15 8 9 9 8 10 14 11 6 12 5 13
 SMILES IDX 10 14 11 16 12 17 13 18 7 20 4 22 2 23 1 25 3 26 17 27 19 29
 SMILES IDX 24 31 25 32 26 33 27 34 39 35 28 36 38 37 29 38 30 39 31 40
 SMILES IDX 37 41 32 42 34 43 33 44 35 45 36 46
 H PARENT 21 4 10 15 13 19 7 21 4 24 17 28 19 30
 Flexibility Score: inf
  4 active torsions:
  status: ('A' for Active; 'I' for Inactive)
    1  A    between atoms: CA   and  CB  
    2  A    between atoms: CB   and  CG  
    3  A    between atoms: CG   and  CD  
    4  A    between atoms: CD   and  CE  

>  <TORSDO>
F 17

>  <BEGIN_>
RES LYS A 131

$$$$
ligand_66_pose_19_2HRL.pdbqt
 OpenBabel07062320523D

  6  5  0  0  0  0  0  0  0  0999 V2000
   33.1930   34.6630    9.2900 C   0  0  0  0  0  0  0  0  0  0  0  0
   32.0600   35.3600   10.0340 C   0  0  0  0  0  0  0  0  0  0  0  0
   30.7420   34.6350    9.9410 C   0  0  0  0  0  0  0  0  0  0  0  0
   29.5830   35.6030   10.1170 C   0  0  0  0  0  0  0  0  0  0  0  0
   29.6620   36.7200    9.0940 C   0  0  0  0  0  0  0  0  0  0  0  0
   29.2890   36.2310    7.7370 N   0  0  0  0  0  0  0  0  0  0  0  0
  1  2  1  0  0  0  0
  3  2  1  0  0  0  0
  3  4  1  0  0  0  0
  5  4  1  0  0  0  0
  6  5  1  0  0  0  0
M  END
>  <EGIN_R>
ES LYS A 135

>  <REMARK>
  4 active torsions:
  status: ('A' for Active; 'I' for Inactive)
    5  A    between atoms: CA   and  CB  
    6  A    between atoms: CB   and  CG  
    7  A    between atoms: CG   and  CD  
    8  A    between atoms: CD   and  CE  

$$$$
