ligand_12_pose_13_2HRL.pdbqt
 OpenBabel07062320523D

 52 53  0  0  1  0  0  0  0  0999 V2000
   25.8740   37.6980   12.6910 N   0  0  0  0  0  0  0  0  0  0  0  0
   27.1080   37.0660   12.3570 C   0  0  0  0  0  0  0  0  0  0  0  0
   27.2140   35.8020   12.3360 O   0  0  0  0  0  0  0  0  0  0  0  0
   25.8250   38.7290   12.6970 H   0  0  0  0  0  0  0  0  0  0  0  0
   24.7520   36.8350   13.0030 C   0  0  0  0  0  0  0  0  0  0  0  0
   23.6350   36.9730   12.0040 C   0  0  2  0  0  0  0  0  0  0  0  0
   23.6910   35.8360   11.0060 C   0  0  2  0  0  0  0  0  0  0  0  0
   22.3390   35.3280   10.6320 C   0  0  2  0  0  0  0  0  0  0  0  0
   20.4230   35.9820    9.4780 C   0  0  2  0  0  0  0  0  0  0  0  0
   19.7180   34.9170   10.3070 C   0  0  0  0  0  0  0  0  0  0  0  0
   21.6460   36.3660   10.0160 O   0  0  0  0  0  0  0  0  0  0  0  0
   20.1190   35.1520   11.7480 C   0  0  1  0  0  0  0  0  0  0  0  0
   21.5920   34.7850   11.8300 C   0  0  1  0  0  0  0  0  0  0  0  0
   19.6040   37.1070    9.5420 O   0  0  0  0  0  0  0  0  0  0  0  0
   19.8400   37.7800    8.8560 H   0  0  0  0  0  0  0  0  0  0  0  0
   20.5320   35.5570    8.0770 C   0  0  0  0  0  0  0  0  0  0  0  0
   19.8090   34.6190    7.6570 O   0  0  0  0  0  0  0  0  0  0  0  0
   21.4030   36.1380    7.1640 O   0  0  0  0  0  0  0  0  0  0  0  0
   21.1120   37.0020    6.7160 H   0  0  0  0  0  0  0  0  0  0  0  0
   19.9240   36.4780   12.1240 O   0  0  0  0  0  0  0  0  0  0  0  0
   19.6200   36.4930   13.0830 H   0  0  0  0  0  0  0  0  0  0  0  0
   21.6670   33.3400   11.8200 N   0  0  0  0  0  0  0  0  0  0  0  0
   22.4840   32.6620   12.7630 C   0  0  0  0  0  0  0  0  0  0  0  0
   21.1390   32.7390   11.1400 H   0  0  0  0  0  0  0  0  0  0  0  0
   22.5970   31.1780   12.7980 C   0  0  0  0  0  0  0  0  0  0  0  0
   23.1500   33.3060   13.6150 O   0  0  0  0  0  0  0  0  0  0  0  0
   24.5710   34.8770   11.4440 O   0  0  0  0  0  0  0  0  0  0  0  0
   25.0260   35.2360   12.2580 H   0  0  0  0  0  0  0  0  0  0  0  0
   23.7400   38.2090   11.3780 O   0  0  0  0  0  0  0  0  0  0  0  0
   24.6120   38.2740   10.9040 H   0  0  0  0  0  0  0  0  0  0  0  0
   28.2490   37.7900   12.0400 O   0  0  0  0  0  0  0  0  0  0  0  0
   28.2380   38.9840   11.2840 C   0  0  0  0  0  0  0  0  0  0  0  0
   28.5950   38.7680    9.8650 C   0  0  0  0  0  0  0  0  0  0  0  0
   27.8030   38.6940    8.7380 C   0  0  0  0  0  0  0  0  0  0  0  0
   29.8510   38.5960    9.4180 N   0  0  0  0  0  0  0  0  0  0  0  0
   28.5880   38.4810    7.6530 N   0  0  0  0  0  0  0  0  0  0  0  0
   29.8230   38.4290    8.1140 N   0  0  0  0  0  0  0  0  0  0  0  0
   28.1570   38.3380    6.2540 C   0  0  0  0  0  0  0  0  0  0  0  0
   27.2970   37.2490    6.1470 O   0  0  0  0  0  0  0  0  0  0  0  0
   27.9680   36.0560    6.0160 C   0  0  0  0  0  0  0  0  0  0  0  0
   28.0790   35.2730    7.2630 C   0  0  0  0  0  0  0  0  0  0  0  0
   29.3230   34.8950    7.7260 C   0  0  0  0  0  0  0  0  0  0  0  0
   26.9660   34.9160    7.9810 C   0  0  0  0  0  0  0  0  0  0  0  0
   29.4520   34.1610    8.9080 C   0  0  0  0  0  0  0  0  0  0  0  0
   27.1000   34.1870    9.1520 C   0  0  0  0  0  0  0  0  0  0  0  0
   28.3200   33.8100    9.6160 C   0  0  0  0  0  0  0  0  0  0  0  0
   29.8670   25.5550   16.9770 C   0  0  0  0  0  0  0  0  0  0  0  0
   28.3450   25.7220   17.0260 C   0  0  0  0  0  0  0  0  0  0  0  0
   27.6010   24.4000   16.9080 C   0  0  0  0  0  0  0  0  0  0  0  0
   26.3590   24.3720   17.7540 C   0  0  0  0  0  0  0  0  0  0  0  0
   25.6280   23.0500   17.5420 C   0  0  0  0  0  0  0  0  0  0  0  0
   24.9280   22.6390   18.7820 N   0  0  0  0  0  0  0  0  0  0  0  0
  1  4  1  0  0  0  0
  1  5  1  0  0  0  0
  2  1  1  0  0  0  0
  3  2  2  0  0  0  0
  6  5  1  1  0  0  0
  7 27  1  1  0  0  0
  7  6  1  0  0  0  0
  8  7  1  1  0  0  0
  8 13  1  0  0  0  0
  9 16  1  6  0  0  0
  9 14  1  0  0  0  0
  9 11  1  0  0  0  0
  9 10  1  0  0  0  0
 10 12  1  0  0  0  0
 11  8  1  0  0  0  0
 12 13  1  0  0  0  0
 12 20  1  6  0  0  0
 13 22  1  6  0  0  0
 15 14  1  0  0  0  0
 17 16  2  0  0  0  0
 18 16  1  0  0  0  0
 19 18  1  0  0  0  0
 20 21  1  0  0  0  0
 22 23  1  0  0  0  0
 23 25  1  0  0  0  0
 23 26  2  0  0  0  0
 24 22  1  0  0  0  0
 27 28  1  0  0  0  0
 29  6  1  0  0  0  0
 30 29  1  0  0  0  0
 31  2  1  0  0  0  0
 32 31  1  0  0  0  0
 33 32  1  0  0  0  0
 34 33  2  0  0  0  0
 35 33  1  0  0  0  0
 36 37  1  0  0  0  0
 36 34  1  0  0  0  0
 37 35  2  0  0  0  0
 38 36  1  0  0  0  0
 39 38  1  0  0  0  0
 40 39  1  0  0  0  0
 40 41  1  0  0  0  0
 41 42  2  0  0  0  0
 41 43  1  0  0  0  0
 42 44  1  0  0  0  0
 43 45  2  0  0  0  0
 44 46  2  0  0  0  0
 45 46  1  0  0  0  0
 47 48  1  0  0  0  0
 49 48  1  0  0  0  0
 49 50  1  0  0  0  0
 51 50  1  0  0  0  0
 51 52  1  0  0  0  0
M  END
>  <REMARK>
 VINA RESULT:    -5.939      2.329      6.923
 INTER + INTRA:         -15.094
 INTER:                 -10.546
 INTRA:                  -4.548
 UNBOUND:                -3.774
 SMILES CC(=O)N[C@@H]1[C@@H](O)C[C@](O)(C(=O)O)O[C@H]1C(O)[C@H](O)CNC(=O)OCc1cn(COCc2ccccc2)nn1
 SMILES IDX 21 1 22 2 23 3 20 5 18 6 16 7 15 8 9 9 8 10 14 11 6 12 5 13
 SMILES IDX 10 14 11 16 12 17 13 18 7 20 4 22 2 23 1 25 3 26 17 27 19 29
 SMILES IDX 24 31 25 32 26 33 27 34 39 35 28 36 38 37 29 38 30 39 31 40
 SMILES IDX 32 41 33 42 37 43 34 44 36 45 35 46
 H PARENT 21 4 10 15 13 19 7 21 4 24 17 28 19 30
 Flexibility Score: inf
  4 active torsions:
  status: ('A' for Active; 'I' for Inactive)
    1  A    between atoms: CA   and  CB  
    2  A    between atoms: CB   and  CG  
    3  A    between atoms: CG   and  CD  
    4  A    between atoms: CD   and  CE  

>  <TORSDO>
F 18

>  <BEGIN_>
RES LYS A 131

$$$$
ligand_12_pose_13_2HRL.pdbqt
 OpenBabel07062320523D

  6  5  0  0  0  0  0  0  0  0999 V2000
   33.1930   34.6630    9.2900 C   0  0  0  0  0  0  0  0  0  0  0  0
   32.0600   35.3600   10.0340 C   0  0  0  0  0  0  0  0  0  0  0  0
   32.2170   35.3340   11.5320 C   0  0  0  0  0  0  0  0  0  0  0  0
   30.8620   35.4230   12.2160 C   0  0  0  0  0  0  0  0  0  0  0  0
   30.9840   36.1350   13.5500 C   0  0  0  0  0  0  0  0  0  0  0  0
   31.4120   37.5490   13.3660 N   0  0  0  0  0  0  0  0  0  0  0  0
  1  2  1  0  0  0  0
  2  3  1  0  0  0  0
  3  4  1  0  0  0  0
  4  5  1  0  0  0  0
  6  5  1  0  0  0  0
M  END
>  <EGIN_R>
ES LYS A 135

>  <REMARK>
  4 active torsions:
  status: ('A' for Active; 'I' for Inactive)
    5  A    between atoms: CA   and  CB  
    6  A    between atoms: CB   and  CG  
    7  A    between atoms: CG   and  CD  
    8  A    between atoms: CD   and  CE  

$$$$
