ligand_90_pose_16_2HRL.pdbqt
 OpenBabel07062320523D

 61 62  0  0  1  0  0  0  0  0999 V2000
   33.5470   34.4880   20.9920 C   0  0  0  0  0  0  0  0  0  0  0  0
   32.3580   33.9100   21.4910 O   0  0  0  0  0  0  0  0  0  0  0  0
   31.8980   32.6860   21.0380 C   0  0  0  0  0  0  0  0  0  0  0  0
   31.0120   32.5950   19.9100 N   0  0  0  0  0  0  0  0  0  0  0  0
   30.7380   33.4960   19.4690 H   0  0  0  0  0  0  0  0  0  0  0  0
   32.2670   31.6580   21.6300 O   0  0  0  0  0  0  0  0  0  0  0  0
   30.5190   31.3610   19.4000 C   0  0  0  0  0  0  0  0  0  0  0  0
   30.4520   31.2850   17.9140 C   0  0  2  0  0  0  0  0  0  0  0  0
   30.6110   32.6840   17.3410 C   0  0  1  0  0  0  0  0  0  0  0  0
   30.7250   32.6910   15.8500 C   0  0  2  0  0  0  0  0  0  0  0  0
   31.9870   34.5190   15.1490 C   0  0  2  0  0  0  0  0  0  0  0  0
   31.1140   34.8540   13.9480 C   0  0  0  0  0  0  0  0  0  0  0  0
   31.9410   33.1880   15.4590 O   0  0  0  0  0  0  0  0  0  0  0  0
   30.0640   33.7670   13.7610 C   0  0  1  0  0  0  0  0  0  0  0  0
   29.5950   33.3930   15.1730 C   0  0  1  0  0  0  0  0  0  0  0  0
   31.4880   35.2620   16.2030 O   0  0  0  0  0  0  0  0  0  0  0  0
   30.9950   36.0550   15.8730 H   0  0  0  0  0  0  0  0  0  0  0  0
   33.3970   34.9300   14.9240 C   0  0  0  0  0  0  0  0  0  0  0  0
   34.0370   34.5770   13.8930 O   0  0  0  0  0  0  0  0  0  0  0  0
   34.0650   35.7230   15.8420 O   0  0  0  0  0  0  0  0  0  0  0  0
   34.2140   36.7130   15.7610 H   0  0  0  0  0  0  0  0  0  0  0  0
   29.0300   34.3060   13.0170 O   0  0  0  0  0  0  0  0  0  0  0  0
   29.1890   34.2740   12.0470 H   0  0  0  0  0  0  0  0  0  0  0  0
   28.4120   32.5480   15.0820 N   0  0  0  0  0  0  0  0  0  0  0  0
   27.2110   32.9700   15.6850 C   0  0  0  0  0  0  0  0  0  0  0  0
   28.4650   31.6550   14.5860 H   0  0  0  0  0  0  0  0  0  0  0  0
   25.9610   32.1260   15.6140 C   0  0  0  0  0  0  0  0  0  0  0  0
   27.0930   34.0500   16.3100 O   0  0  0  0  0  0  0  0  0  0  0  0
   29.5660   33.5080   17.7280 O   0  0  0  0  0  0  0  0  0  0  0  0
   29.8250   34.1840   18.3790 H   0  0  0  0  0  0  0  0  0  0  0  0
   29.2900   30.7220   17.4140 O   0  0  0  0  0  0  0  0  0  0  0  0
   29.0260   29.8950   17.9000 H   0  0  0  0  0  0  0  0  0  0  0  0
   33.1140   35.5070   20.0040 C   0  0  0  0  0  0  0  0  0  0  0  0
   32.2870   36.5680   20.3010 C   0  0  0  0  0  0  0  0  0  0  0  0
   33.3820   35.6450   18.6980 N   0  0  0  0  0  0  0  0  0  0  0  0
   32.0710   37.3210   19.1780 N   0  0  0  0  0  0  0  0  0  0  0  0
   32.7500   36.7340   18.2230 N   0  0  0  0  0  0  0  0  0  0  0  0
   31.2300   38.4970   19.1950 C   0  0  0  0  0  0  0  0  0  0  0  0
   29.8910   38.0670   18.6270 C   0  0  0  0  0  0  0  0  0  0  0  0
   28.8660   38.1130   19.3400 O   0  0  0  0  0  0  0  0  0  0  0  0
   29.7510   37.6110   17.3140 N   0  0  0  0  0  0  0  0  0  0  0  0
   30.6900   37.6250   16.7620 H   0  0  0  0  0  0  0  0  0  0  0  0
   28.6050   37.1450   16.6230 C   0  0  0  0  0  0  0  0  0  0  0  0
   28.5590   37.1620   15.1640 C   0  0  1  0  0  0  0  0  0  0  0  0
   27.5770   36.2850   14.6290 O   0  0  0  0  0  0  0  0  0  0  0  0
   26.8730   36.8170   14.1850 H   0  0  0  0  0  0  0  0  0  0  0  0
   28.7450   38.4010   14.3920 C   0  0  0  0  0  0  0  0  0  0  0  0
   29.6660   38.2600   13.2790 N   0  0  0  0  0  0  0  0  0  0  0  0
   31.0000   38.5070   13.3210 C   0  0  0  0  0  0  0  0  0  0  0  0
   29.3420   37.8830   12.0290 C   0  0  0  0  0  0  0  0  0  0  0  0
   31.4840   38.2680   12.0490 C   0  0  0  0  0  0  0  0  0  0  0  0
   30.4750   37.8890   11.2630 N   0  0  0  0  0  0  0  0  0  0  0  0
   28.0770   37.5210   11.5030 N   0  0  0  0  0  0  0  0  0  0  0  0
   27.7100   36.3150   11.6350 O   0  0  0  0  0  0  0  0  0  0  0  0
   27.2090   38.3400   10.8640 O   0  0  0  0  0  0  0  0  0  0  0  0
   29.8670   25.5550   16.9770 C   0  0  0  0  0  0  0  0  0  0  0  0
   28.3450   25.7220   17.0260 C   0  0  0  0  0  0  0  0  0  0  0  0
   27.6020   24.3990   16.9200 C   0  0  0  0  0  0  0  0  0  0  0  0
   26.1540   24.5310   17.3030 C   0  0  0  0  0  0  0  0  0  0  0  0
   26.0440   24.7610   18.8070 C   0  0  0  0  0  0  0  0  0  0  0  0
   25.3760   23.6110   19.4600 N   0  0  0  0  0  0  0  0  0  0  0  0
  1  2  1  0  0  0  0
  3  2  1  0  0  0  0
  3  6  2  0  0  0  0
  4  3  1  0  0  0  0
  5  4  1  0  0  0  0
  7  4  1  0  0  0  0
  8  7  1  1  0  0  0
  9 29  1  6  0  0  0
  9  8  1  0  0  0  0
 10  9  1  1  0  0  0
 11 18  1  6  0  0  0
 11 13  1  0  0  0  0
 11 16  1  0  0  0  0
 12 11  1  0  0  0  0
 13 10  1  0  0  0  0
 14 22  1  6  0  0  0
 14 12  1  0  0  0  0
 14 15  1  0  0  0  0
 15 24  1  6  0  0  0
 15 10  1  0  0  0  0
 17 16  1  0  0  0  0
 18 20  1  0  0  0  0
 19 18  2  0  0  0  0
 21 20  1  0  0  0  0
 23 22  1  0  0  0  0
 24 25  1  0  0  0  0
 25 28  2  0  0  0  0
 26 24  1  0  0  0  0
 27 25  1  0  0  0  0
 29 30  1  0  0  0  0
 31 32  1  0  0  0  0
 31  8  1  0  0  0  0
 33 34  2  0  0  0  0
 33  1  1  0  0  0  0
 35 33  1  0  0  0  0
 36 38  1  0  0  0  0
 36 34  1  0  0  0  0
 37 35  2  0  0  0  0
 37 36  1  0  0  0  0
 39 38  1  0  0  0  0
 39 40  2  0  0  0  0
 41 39  1  0  0  0  0
 42 41  1  0  0  0  0
 43 41  1  0  0  0  0
 44 47  1  1  0  0  0
 44 43  1  0  0  0  0
 45 44  1  0  0  0  0
 46 45  1  0  0  0  0
 48 49  1  0  0  0  0
 48 47  1  0  0  0  0
 50 48  1  0  0  0  0
 51 49  2  0  0  0  0
 52 50  2  0  0  0  0
 52 51  1  0  0  0  0
 53 54  2  0  0  0  0
 53 50  1  0  0  0  0
 55 53  2  0  0  0  0
 56 57  1  0  0  0  0
 58 57  1  0  0  0  0
 58 59  1  0  0  0  0
 59 60  1  0  0  0  0
 60 61  1  0  0  0  0
M  END
>  <REMARK>
 VINA RESULT:    -5.158      5.339     11.014
 INTER + INTRA:         -16.645
 INTER:                  -6.664
 INTRA:                  -9.981
 UNBOUND:                -5.759
 SMILES CC(=O)N[C@@H]1[C@@H](O)C[C@](O)(C(=O)O)O[C@H]1C(O)[C@H](O)CNC(=O)OCc1cn(CC(=O)NCC(O)Cn2ccnc2[N+](=O)[O-])nn1
 SMILES IDX 25 1 24 2 22 3 21 4 23 6 20 7 18 8 16 9 15 10 9 11 8 12
 SMILES IDX 14 13 6 14 5 15 10 16 11 18 12 19 13 20 7 22 4 24 2 25 1 27
 SMILES IDX 3 28 17 29 19 31 26 33 27 34 46 35 28 36 45 37 29 38 30 39
 SMILES IDX 31 40 32 41 33 43 34 44 35 45 36 47 37 48 38 49 41 50 39 51
 SMILES IDX 40 52 42 53 43 54 44 55
 H PARENT 21 5 10 17 13 21 7 23 4 26 17 30 19 32 32 42 35 46
 Flexibility Score: inf
  4 active torsions:
  status: ('A' for Active; 'I' for Inactive)
    1  A    between atoms: CA   and  CB  
    2  A    between atoms: CB   and  CG  
    3  A    between atoms: CG   and  CD  
    4  A    between atoms: CD   and  CE  

>  <TORSDO>
F 22

>  <BEGIN_>
RES LYS A 131

$$$$
ligand_90_pose_16_2HRL.pdbqt
 OpenBabel07062320523D

  6  5  0  0  0  0  0  0  0  0999 V2000
   33.1930   34.6630    9.2900 C   0  0  0  0  0  0  0  0  0  0  0  0
   32.0600   35.3600   10.0340 C   0  0  0  0  0  0  0  0  0  0  0  0
   30.7390   34.6420    9.9300 C   0  0  0  0  0  0  0  0  0  0  0  0
   30.3080   34.5190    8.4770 C   0  0  0  0  0  0  0  0  0  0  0  0
   29.4550   35.7060    8.0720 C   0  0  0  0  0  0  0  0  0  0  0  0
   28.3520   35.2890    7.1630 N   0  0  0  0  0  0  0  0  0  0  0  0
  1  2  1  0  0  0  0
  3  2  1  0  0  0  0
  4  3  1  0  0  0  0
  5  4  1  0  0  0  0
  6  5  1  0  0  0  0
M  END
>  <EGIN_R>
ES LYS A 135

>  <REMARK>
  4 active torsions:
  status: ('A' for Active; 'I' for Inactive)
    5  A    between atoms: CA   and  CB  
    6  A    between atoms: CB   and  CG  
    7  A    between atoms: CG   and  CD  
    8  A    between atoms: CD   and  CE  

$$$$
