ligand_20_pose_9_2HRL.pdbqt
 OpenBabel07062320523D

 53 55  0  0  1  0  0  0  0  0999 V2000
   29.2580   30.8370   15.9910 C   0  0  0  0  0  0  0  0  0  0  0  0
   28.8850   32.1390   15.4310 C   0  0  2  0  0  0  0  0  0  0  0  0
   30.0830   32.7890   14.7050 C   0  0  1  0  0  0  0  0  0  0  0  0
   30.4610   34.0980   15.2470 C   0  0  2  0  0  0  0  0  0  0  0  0
   30.4930   35.5860   13.4430 C   0  0  2  0  0  0  0  0  0  0  0  0
   31.8790   35.0760   13.1700 C   0  0  0  0  0  0  0  0  0  0  0  0
   29.9700   35.2200   14.6480 O   0  0  0  0  0  0  0  0  0  0  0  0
   32.7030   34.8840   14.3950 C   0  0  1  0  0  0  0  0  0  0  0  0
   31.9710   34.1970   15.5020 C   0  0  1  0  0  0  0  0  0  0  0  0
   29.6430   35.1790   12.4160 O   0  0  0  0  0  0  0  0  0  0  0  0
   28.7130   35.4850   12.5560 H   0  0  0  0  0  0  0  0  0  0  0  0
   30.5650   37.0650   13.4150 C   0  0  0  0  0  0  0  0  0  0  0  0
   29.5230   37.7380   13.3520 O   0  0  0  0  0  0  0  0  0  0  0  0
   31.7910   37.6940   13.4600 O   0  0  0  0  0  0  0  0  0  0  0  0
   32.5590   37.4780   12.8080 H   0  0  0  0  0  0  0  0  0  0  0  0
   33.8620   34.1740   14.0290 O   0  0  0  0  0  0  0  0  0  0  0  0
   34.5310   34.3910   14.7210 H   0  0  0  0  0  0  0  0  0  0  0  0
   32.2620   34.7450   16.8010 N   0  0  0  0  0  0  0  0  0  0  0  0
   31.8580   34.1080   18.0050 C   0  0  0  0  0  0  0  0  0  0  0  0
   32.7990   35.6610   16.8800 H   0  0  0  0  0  0  0  0  0  0  0  0
   32.1810   34.7120   19.3120 C   0  0  0  0  0  0  0  0  0  0  0  0
   31.2230   33.0260   17.9290 O   0  0  0  0  0  0  0  0  0  0  0  0
   31.1390   31.8850   15.0880 O   0  0  0  0  0  0  0  0  0  0  0  0
   30.8980   31.4190   15.9220 H   0  0  0  0  0  0  0  0  0  0  0  0
   28.6830   32.9970   16.5780 O   0  0  0  0  0  0  0  0  0  0  0  0
   28.8650   33.9390   16.3090 H   0  0  0  0  0  0  0  0  0  0  0  0
   29.4890   30.7880   17.4080 N   0  0  0  0  0  0  0  0  0  0  0  0
   28.5610   30.1920   18.3020 C   0  0  0  0  0  0  0  0  0  0  0  0
   30.3700   31.1450   17.8080 H   0  0  0  0  0  0  0  0  0  0  0  0
   27.5080   29.6960   17.8220 O   0  0  0  0  0  0  0  0  0  0  0  0
   28.7460   30.1270   19.6630 O   0  0  0  0  0  0  0  0  0  0  0  0
   29.5060   31.0520   20.4180 C   0  0  0  0  0  0  0  0  0  0  0  0
   30.8220   30.4020   20.7410 C   0  0  0  0  0  0  0  0  0  0  0  0
   31.8970   30.9390   21.4150 C   0  0  0  0  0  0  0  0  0  0  0  0
   31.2060   29.1350   20.4210 N   0  0  0  0  0  0  0  0  0  0  0  0
   32.8610   29.9730   21.4640 N   0  0  0  0  0  0  0  0  0  0  0  0
   32.4130   28.8910   20.8530 N   0  0  0  0  0  0  0  0  0  0  0  0
   34.1290   30.1350   22.0770 C   0  0  0  0  0  0  0  0  0  0  0  0
   34.8410   31.3000   21.8670 C   0  0  0  0  0  0  0  0  0  0  0  0
   34.7060   29.1800   22.8880 C   0  0  0  0  0  0  0  0  0  0  0  0
   36.0790   31.5130   22.4360 C   0  0  0  0  0  0  0  0  0  0  0  0
   35.9300   29.3700   23.4630 C   0  0  0  0  0  0  0  0  0  0  0  0
   36.6460   30.5460   23.2490 C   0  0  0  0  0  0  0  0  0  0  0  0
   36.7230   28.6110   24.2910 C   0  0  0  0  0  0  0  0  0  0  0  0
   37.8030   30.4660   23.9260 N   0  0  0  0  0  0  0  0  0  0  0  0
   37.8620   29.3140   24.5540 N   0  0  0  0  0  0  0  0  0  0  0  0
   38.5300   31.2050   23.9440 H   0  0  0  0  0  0  0  0  0  0  0  0
   29.8670   25.5550   16.9770 C   0  0  0  0  0  0  0  0  0  0  0  0
   28.3450   25.7220   17.0260 C   0  0  0  0  0  0  0  0  0  0  0  0
   27.6020   24.4000   16.9130 C   0  0  0  0  0  0  0  0  0  0  0  0
   26.1540   24.5290   17.2990 C   0  0  0  0  0  0  0  0  0  0  0  0
   26.0530   24.9270   18.7670 C   0  0  0  0  0  0  0  0  0  0  0  0
   24.6940   24.6460   19.2890 N   0  0  0  0  0  0  0  0  0  0  0  0
  1 27  1  0  0  0  0
  2  1  1  1  0  0  0
  2 25  1  0  0  0  0
  3 23  1  1  0  0  0
  3  2  1  0  0  0  0
  4  3  1  6  0  0  0
  4  9  1  0  0  0  0
  5 10  1  6  0  0  0
  5  7  1  0  0  0  0
  6  5  1  0  0  0  0
  6  8  1  0  0  0  0
  7  4  1  0  0  0  0
  8 16  1  6  0  0  0
  8  9  1  0  0  0  0
  9 18  1  1  0  0  0
 10 11  1  0  0  0  0
 12  5  1  0  0  0  0
 12 14  1  0  0  0  0
 13 12  2  0  0  0  0
 15 14  1  0  0  0  0
 16 17  1  0  0  0  0
 18 20  1  0  0  0  0
 18 19  1  0  0  0  0
 19 21  1  0  0  0  0
 22 19  2  0  0  0  0
 23 24  1  0  0  0  0
 26 25  1  0  0  0  0
 27 29  1  0  0  0  0
 27 28  1  0  0  0  0
 28 31  1  0  0  0  0
 30 28  2  0  0  0  0
 31 32  1  0  0  0  0
 32 33  1  0  0  0  0
 33 34  2  0  0  0  0
 34 36  1  0  0  0  0
 35 33  1  0  0  0  0
 35 37  2  0  0  0  0
 36 38  1  0  0  0  0
 37 36  1  0  0  0  0
 38 40  1  0  0  0  0
 39 38  2  0  0  0  0
 39 41  1  0  0  0  0
 40 42  2  0  0  0  0
 41 43  2  0  0  0  0
 42 44  1  0  0  0  0
 43 42  1  0  0  0  0
 43 45  1  0  0  0  0
 44 46  2  0  0  0  0
 45 47  1  0  0  0  0
 45 46  1  0  0  0  0
 48 49  1  0  0  0  0
 50 49  1  0  0  0  0
 50 51  1  0  0  0  0
 51 52  1  0  0  0  0
 52 53  1  0  0  0  0
M  END
>  <REMARK>
 VINA RESULT:    -4.657      5.182     10.087
 INTER + INTRA:         -14.551
 INTER:                  -9.356
 INTRA:                  -5.195
 UNBOUND:                -6.490
 SMILES CC(=O)N[C@@H]1[C@@H](O)C[C@](O)(C(=O)O)O[C@H]1C(O)[C@H](O)CNC(=O)OCc1cn(-c2ccc3[nH]ncc3c2)nn1
 SMILES IDX 20 1 18 2 16 3 15 4 9 5 8 6 14 7 6 8 5 9 10 10 11 12 12 13
 SMILES IDX 13 14 7 16 4 18 2 19 1 21 3 22 17 23 19 25 21 27 22 28 23 30
 SMILES IDX 24 31 25 32 26 33 27 34 39 35 28 36 38 37 29 38 30 39 37 40
 SMILES IDX 31 41 36 42 32 43 35 44 33 45 34 46
 H PARENT 10 11 13 15 7 17 4 20 17 24 19 26 21 29 33 47
 Flexibility Score: inf
  4 active torsions:
  status: ('A' for Active; 'I' for Inactive)
    1  A    between atoms: CA   and  CB  
    2  A    between atoms: CB   and  CG  
    3  A    between atoms: CG   and  CD  
    4  A    between atoms: CD   and  CE  

>  <TORSDO>
F 15

>  <BEGIN_>
RES LYS A 131

$$$$
ligand_20_pose_9_2HRL.pdbqt
 OpenBabel07062320523D

  6  5  0  0  0  0  0  0  0  0999 V2000
   33.1930   34.6630    9.2900 C   0  0  0  0  0  0  0  0  0  0  0  0
   32.0600   35.3600   10.0340 C   0  0  0  0  0  0  0  0  0  0  0  0
   30.8030   35.5090    9.2160 C   0  0  0  0  0  0  0  0  0  0  0  0
   30.1330   34.1590    9.0110 C   0  0  0  0  0  0  0  0  0  0  0  0
   28.6730   34.3390    8.6430 C   0  0  0  0  0  0  0  0  0  0  0  0
   27.7830   33.6790    9.6380 N   0  0  0  0  0  0  0  0  0  0  0  0
  1  2  1  0  0  0  0
  3  2  1  0  0  0  0
  4  3  1  0  0  0  0
  5  4  1  0  0  0  0
  5  6  1  0  0  0  0
M  END
>  <EGIN_R>
ES LYS A 135

>  <REMARK>
  4 active torsions:
  status: ('A' for Active; 'I' for Inactive)
    5  A    between atoms: CA   and  CB  
    6  A    between atoms: CB   and  CG  
    7  A    between atoms: CG   and  CD  
    8  A    between atoms: CD   and  CE  

$$$$
