ligand_12_pose_1_2HRL.pdbqt
 OpenBabel07062320523D

 52 53  0  0  1  0  0  0  0  0999 V2000
   30.7280   32.2460   17.7670 N   0  0  0  0  0  0  0  0  0  0  0  0
   29.6620   32.5010   18.6790 C   0  0  0  0  0  0  0  0  0  0  0  0
   29.0850   33.6300   18.7160 O   0  0  0  0  0  0  0  0  0  0  0  0
   31.1740   31.3150   17.7640 H   0  0  0  0  0  0  0  0  0  0  0  0
   31.1210   33.3300   16.8890 C   0  0  0  0  0  0  0  0  0  0  0  0
   31.1060   32.9210   15.4410 C   0  0  2  0  0  0  0  0  0  0  0  0
   29.8360   33.4080   14.7780 C   0  0  2  0  0  0  0  0  0  0  0  0
   30.0050   34.7300   14.1040 C   0  0  2  0  0  0  0  0  0  0  0  0
   31.5820   36.4210   13.8220 C   0  0  2  0  0  0  0  0  0  0  0  0
   30.3860   37.3030   13.4960 C   0  0  0  0  0  0  0  0  0  0  0  0
   31.2300   35.2590   14.4990 O   0  0  0  0  0  0  0  0  0  0  0  0
   29.3720   37.0870   14.5990 C   0  0  1  0  0  0  0  0  0  0  0  0
   28.8590   35.6680   14.4140 C   0  0  1  0  0  0  0  0  0  0  0  0
   32.3610   37.1620   14.7090 O   0  0  0  0  0  0  0  0  0  0  0  0
   32.9700   36.5880   15.2390 H   0  0  0  0  0  0  0  0  0  0  0  0
   32.3710   36.1520   12.6130 C   0  0  0  0  0  0  0  0  0  0  0  0
   32.4480   37.0300   11.7180 O   0  0  0  0  0  0  0  0  0  0  0  0
   33.0520   34.9620   12.3900 O   0  0  0  0  0  0  0  0  0  0  0  0
   34.0040   34.8890   12.7370 H   0  0  0  0  0  0  0  0  0  0  0  0
   29.9440   37.2390   15.8580 O   0  0  0  0  0  0  0  0  0  0  0  0
   29.6050   38.0980   16.2580 H   0  0  0  0  0  0  0  0  0  0  0  0
   27.9500   35.6920   13.2890 N   0  0  0  0  0  0  0  0  0  0  0  0
   26.7180   34.9880   13.3520 C   0  0  0  0  0  0  0  0  0  0  0  0
   28.1450   36.2130   12.3990 H   0  0  0  0  0  0  0  0  0  0  0  0
   25.7460   34.9800   12.2250 C   0  0  0  0  0  0  0  0  0  0  0  0
   26.4040   34.3370   14.3820 O   0  0  0  0  0  0  0  0  0  0  0  0
   28.7920   33.3410   15.6690 O   0  0  0  0  0  0  0  0  0  0  0  0
   29.1240   32.8690   16.4850 H   0  0  0  0  0  0  0  0  0  0  0  0
   31.2260   31.5390   15.3610 O   0  0  0  0  0  0  0  0  0  0  0  0
   30.4780   31.1070   15.8530 H   0  0  0  0  0  0  0  0  0  0  0  0
   29.2020   31.5380   19.5670 O   0  0  0  0  0  0  0  0  0  0  0  0
   28.5560   30.3450   19.1690 C   0  0  0  0  0  0  0  0  0  0  0  0
   27.8350   30.4840   17.8850 C   0  0  0  0  0  0  0  0  0  0  0  0
   26.5120   30.7660   17.6200 C   0  0  0  0  0  0  0  0  0  0  0  0
   28.4090   30.3430   16.6770 N   0  0  0  0  0  0  0  0  0  0  0  0
   26.3180   30.7880   16.2780 N   0  0  0  0  0  0  0  0  0  0  0  0
   27.4970   30.5260   15.7460 N   0  0  0  0  0  0  0  0  0  0  0  0
   25.0610   31.0490   15.5610 C   0  0  0  0  0  0  0  0  0  0  0  0
   25.2250   30.7330   14.2160 O   0  0  0  0  0  0  0  0  0  0  0  0
   24.4200   31.4840   13.3930 C   0  0  0  0  0  0  0  0  0  0  0  0
   23.1830   30.8050   12.9580 C   0  0  0  0  0  0  0  0  0  0  0  0
   22.0140   31.5280   12.8270 C   0  0  0  0  0  0  0  0  0  0  0  0
   23.1700   29.4630   12.6730 C   0  0  0  0  0  0  0  0  0  0  0  0
   20.8330   30.9080   12.4100 C   0  0  0  0  0  0  0  0  0  0  0  0
   21.9960   28.8530   12.2600 C   0  0  0  0  0  0  0  0  0  0  0  0
   20.8400   29.5560   12.1290 C   0  0  0  0  0  0  0  0  0  0  0  0
   29.8670   25.5550   16.9770 C   0  0  0  0  0  0  0  0  0  0  0  0
   28.3450   25.7220   17.0260 C   0  0  0  0  0  0  0  0  0  0  0  0
   27.6020   24.3990   16.9200 C   0  0  0  0  0  0  0  0  0  0  0  0
   26.1510   24.5330   17.2930 C   0  0  0  0  0  0  0  0  0  0  0  0
   25.9660   25.7570   18.1830 C   0  0  0  0  0  0  0  0  0  0  0  0
   24.8450   26.5920   17.6900 N   0  0  0  0  0  0  0  0  0  0  0  0
  1  2  1  0  0  0  0
  2  3  2  0  0  0  0
  2 31  1  0  0  0  0
  4  1  1  0  0  0  0
  5  1  1  0  0  0  0
  6  5  1  1  0  0  0
  7  6  1  0  0  0  0
  7 27  1  1  0  0  0
  8 13  1  0  0  0  0
  8 11  1  0  0  0  0
  8  7  1  1  0  0  0
  9 16  1  6  0  0  0
  9 11  1  0  0  0  0
  9 14  1  0  0  0  0
 10  9  1  0  0  0  0
 10 12  1  0  0  0  0
 12 20  1  1  0  0  0
 13 22  1  6  0  0  0
 13 12  1  0  0  0  0
 14 15  1  0  0  0  0
 17 16  2  0  0  0  0
 18 16  1  0  0  0  0
 18 19  1  0  0  0  0
 20 21  1  0  0  0  0
 22 23  1  0  0  0  0
 23 26  2  0  0  0  0
 24 22  1  0  0  0  0
 25 23  1  0  0  0  0
 27 28  1  0  0  0  0
 29  6  1  0  0  0  0
 29 30  1  0  0  0  0
 32 31  1  0  0  0  0
 33 32  1  0  0  0  0
 34 33  2  0  0  0  0
 35 33  1  0  0  0  0
 36 34  1  0  0  0  0
 37 36  1  0  0  0  0
 37 35  2  0  0  0  0
 38 36  1  0  0  0  0
 39 38  1  0  0  0  0
 40 39  1  0  0  0  0
 41 40  1  0  0  0  0
 42 41  1  0  0  0  0
 43 41  2  0  0  0  0
 44 42  2  0  0  0  0
 45 43  1  0  0  0  0
 46 45  2  0  0  0  0
 46 44  1  0  0  0  0
 47 48  1  0  0  0  0
 49 48  1  0  0  0  0
 49 50  1  0  0  0  0
 50 51  1  0  0  0  0
 52 51  1  0  0  0  0
M  END
>  <REMARK>
 VINA RESULT:    -6.557      4.862      8.059
 INTER + INTRA:         -16.273
 INTER:                 -10.343
 INTRA:                  -5.930
 UNBOUND:                -3.774
 SMILES CC(=O)N[C@@H]1[C@@H](O)C[C@](O)(C(=O)O)O[C@H]1C(O)[C@H](O)CNC(=O)OCc1cn(COCc2ccccc2)nn1
 SMILES IDX 21 1 22 2 23 3 20 5 18 6 16 7 15 8 9 9 8 10 14 11 6 12 5 13
 SMILES IDX 10 14 11 16 12 17 13 18 7 20 4 22 2 23 1 25 3 26 17 27 19 29
 SMILES IDX 24 31 25 32 26 33 27 34 39 35 28 36 38 37 29 38 30 39 31 40
 SMILES IDX 32 41 33 42 37 43 34 44 36 45 35 46
 H PARENT 21 4 10 15 13 19 7 21 4 24 17 28 19 30
 Flexibility Score: inf
  4 active torsions:
  status: ('A' for Active; 'I' for Inactive)
    1  A    between atoms: CA   and  CB  
    2  A    between atoms: CB   and  CG  
    3  A    between atoms: CG   and  CD  
    4  A    between atoms: CD   and  CE  

>  <TORSDO>
F 18

>  <BEGIN_>
RES LYS A 131

$$$$
ligand_12_pose_1_2HRL.pdbqt
 OpenBabel07062320523D

  6  5  0  0  0  0  0  0  0  0999 V2000
   33.1930   34.6630    9.2900 C   0  0  0  0  0  0  0  0  0  0  0  0
   32.0600   35.3600   10.0340 C   0  0  0  0  0  0  0  0  0  0  0  0
   30.8030   35.5070    9.2160 C   0  0  0  0  0  0  0  0  0  0  0  0
   29.9460   34.2550    9.3200 C   0  0  0  0  0  0  0  0  0  0  0  0
   28.5930   34.5830    9.9220 C   0  0  0  0  0  0  0  0  0  0  0  0
   27.5470   33.6420    9.4360 N   0  0  0  0  0  0  0  0  0  0  0  0
  1  2  1  0  0  0  0
  3  4  1  0  0  0  0
  3  2  1  0  0  0  0
  4  5  1  0  0  0  0
  6  5  1  0  0  0  0
M  END
>  <EGIN_R>
ES LYS A 135

>  <REMARK>
  4 active torsions:
  status: ('A' for Active; 'I' for Inactive)
    5  A    between atoms: CA   and  CB  
    6  A    between atoms: CB   and  CG  
    7  A    between atoms: CG   and  CD  
    8  A    between atoms: CD   and  CE  

$$$$
