ligand_69_pose_4_2HRL.pdbqt
 OpenBabel07062320523D

 54 51  0  0  1  0  0  0  0  0999 V2000
   28.1200   35.4630    7.4240 N   0  0  0  0  0  0  0  0  0  0  0  0
   29.1290   34.9110    8.2700 C   0  0  0  0  0  0  0  0  0  0  0  0
   30.3080   34.7070    7.8810 O   0  0  0  0  0  0  0  0  0  0  0  0
   27.1500   35.6210    7.7740 H   0  0  0  0  0  0  0  0  0  0  0  0
   28.5350   35.7840    6.0580 C   0  0  0  0  0  0  0  0  0  0  0  0
   27.8240   37.0720    5.6840 C   0  0  2  0  0  0  0  0  0  0  0  0
   28.7000   38.2920    5.8600 C   0  0  2  0  0  0  0  0  0  0  0  0
   29.3830   38.3170    7.1910 C   0  0  2  0  0  0  0  0  0  0  0  0
   29.2660   38.7690    9.4220 C   0  0  2  0  0  0  0  0  0  0  0  0
   30.6380   38.1320    9.3540 C   0  0  0  0  0  0  0  0  0  0  0  0
   28.5530   38.6050    8.2410 O   0  0  0  0  0  0  0  0  0  0  0  0
   31.4940   38.7530    8.2680 C   0  0  1  0  0  0  0  0  0  0  0  0
   30.5490   39.2810    7.2270 C   0  0  1  0  0  0  0  0  0  0  0  0
   29.3460   40.1040    9.8040 O   0  0  0  0  0  0  0  0  0  0  0  0
   30.1350   40.5580    9.4060 H   0  0  0  0  0  0  0  0  0  0  0  0
   28.5160   38.0450   10.4760 C   0  0  0  0  0  0  0  0  0  0  0  0
   29.0890   37.4000   11.3950 O   0  0  0  0  0  0  0  0  0  0  0  0
   27.1390   38.0700   10.4600 O   0  0  0  0  0  0  0  0  0  0  0  0
   26.5550   37.3610   10.0250 H   0  0  0  0  0  0  0  0  0  0  0  0
   32.2750   39.7210    8.8560 O   0  0  0  0  0  0  0  0  0  0  0  0
   31.9200   40.6150    8.5550 H   0  0  0  0  0  0  0  0  0  0  0  0
   31.1220   39.5300    5.9560 N   0  0  0  0  0  0  0  0  0  0  0  0
   31.8200   40.7090    5.5800 C   0  0  0  0  0  0  0  0  0  0  0  0
   31.0310   38.7950    5.2240 H   0  0  0  0  0  0  0  0  0  0  0  0
   32.3890   40.8780    4.2100 C   0  0  0  0  0  0  0  0  0  0  0  0
   31.9420   41.6050    6.4390 O   0  0  0  0  0  0  0  0  0  0  0  0
   28.0370   39.4490    5.5340 O   0  0  0  0  0  0  0  0  0  0  0  0
   27.9360   39.9930    6.3470 H   0  0  0  0  0  0  0  0  0  0  0  0
   26.7290   37.2660    6.5580 O   0  0  0  0  0  0  0  0  0  0  0  0
   27.0440   37.4500    7.4870 H   0  0  0  0  0  0  0  0  0  0  0  0
   28.8190   34.5840    9.5670 O   0  0  0  0  0  0  0  0  0  0  0  0
   27.7350   33.7520    9.9420 C   0  0  0  0  0  0  0  0  0  0  0  0
   26.6360   34.6080   10.4460 C   0  0  0  0  0  0  0  0  0  0  0  0
   25.4840   35.0130    9.8100 C   0  0  0  0  0  0  0  0  0  0  0  0
   26.6020   35.1510   11.6790 N   0  0  0  0  0  0  0  0  0  0  0  0
   24.7810   35.7840   10.6600 N   0  0  0  0  0  0  0  0  0  0  0  0
   25.4970   35.8430   11.7860 N   0  0  0  0  0  0  0  0  0  0  0  0
   23.4920   36.4220   10.3880 C   0  0  2  0  0  0  0  0  0  0  0  0
   22.5830   35.3820    9.8250 C   0  0  0  0  0  0  0  0  0  0  0  0
   21.1790   35.8280    9.6090 *   0  0  0  0  0  0  0  0  0  0  0  0
   20.2590   34.7570    9.6630 O   0  0  0  0  0  0  0  0  0  0  0  0
   19.7910   34.7930   10.5240 H   0  0  0  0  0  0  0  0  0  0  0  0
   23.7410   37.5800    9.4830 C   0  0  0  0  0  0  0  0  0  0  0  0
   23.4370   37.3180    8.0390 C   0  0  1  0  0  0  0  0  0  0  0  0
   21.9900   37.2740    7.7350 C   0  0  0  0  0  0  0  0  0  0  0  0
   21.0400   36.6480    8.3930 *   0  0  0  0  0  0  0  0  0  0  0  0
   24.1060   38.1920    7.1840 O   0  0  0  0  0  0  0  0  0  0  0  0
   25.0880   38.0850    7.2490 H   0  0  0  0  0  0  0  0  0  0  0  0
   29.8670   25.5550   16.9770 C   0  0  0  0  0  0  0  0  0  0  0  0
   28.3450   25.7220   17.0260 C   0  0  0  0  0  0  0  0  0  0  0  0
   27.6020   24.3980   16.9350 C   0  0  0  0  0  0  0  0  0  0  0  0
   26.1560   24.5320   17.3230 C   0  0  0  0  0  0  0  0  0  0  0  0
   25.9760   25.7680   18.1980 C   0  0  0  0  0  0  0  0  0  0  0  0
   25.7750   25.3780   19.6130 N   0  0  0  0  0  0  0  0  0  0  0  0
  1  4  1  0  0  0  0
  1  2  1  0  0  0  0
  2 31  1  0  0  0  0
  3  2  2  0  0  0  0
  5  1  1  0  0  0  0
  6  7  1  0  0  0  0
  6  5  1  1  0  0  0
  6 29  1  0  0  0  0
  7 27  1  1  0  0  0
  8  7  1  6  0  0  0
  8 13  1  0  0  0  0
  8 11  1  0  0  0  0
  9 14  1  1  0  0  0
  9 16  1  0  0  0  0
 10  9  1  0  0  0  0
 11  9  1  0  0  0  0
 12 20  1  1  0  0  0
 12 10  1  0  0  0  0
 13 22  1  6  0  0  0
 13 12  1  0  0  0  0
 15 14  1  0  0  0  0
 16 17  2  0  0  0  0
 18 16  1  0  0  0  0
 19 18  1  0  0  0  0
 21 20  1  0  0  0  0
 23 22  1  0  0  0  0
 23 26  2  0  0  0  0
 24 22  1  0  0  0  0
 25 23  1  0  0  0  0
 27 28  1  0  0  0  0
 29 30  1  0  0  0  0
 31 32  1  0  0  0  0
 32 33  1  0  0  0  0
 33 35  1  0  0  0  0
 34 33  2  0  0  0  0
 34 36  1  0  0  0  0
 35 37  2  0  0  0  0
 36 37  1  0  0  0  0
 38 39  1  6  0  0  0
 38 36  1  0  0  0  0
 41 42  1  0  0  0  0
 43 38  1  0  0  0  0
 44 45  1  1  0  0  0
 44 43  1  0  0  0  0
 47 48  1  0  0  0  0
 47 44  1  0  0  0  0
 49 50  1  0  0  0  0
 51 50  1  0  0  0  0
 51 52  1  0  0  0  0
 52 53  1  0  0  0  0
 53 54  1  0  0  0  0
M  END
>  <REMARK>
 VINA RESULT:    -7.827      4.280      7.601
 INTER + INTRA:         -13.260
 INTER:                  -8.793
 INTRA:                  -4.467
 UNBOUND:                 3.032
 SMILES CC(=O)N[C@@H]1[C@@H](O)C[C@](O)(C(=O)O)O[C@H]1C(O)[C@H](O)CNC(=O)OCc1cn(C2CC(O)C=C[C@@H](O)C2)nn1
 SMILES IDX 21 1 22 2 23 3 20 5 18 6 16 7 15 8 9 9 8 10 14 11 6 12 5 13
 SMILES IDX 10 14 11 16 12 17 13 18 7 20 4 22 2 23 1 25 3 26 17 27 19 29
 SMILES IDX 24 31 25 32 26 33 27 34 39 35 28 36 38 37 29 38 30 39 31 40
 SMILES IDX 32 42 37 44 35 45 34 46 33 47 36 49
 H PARENT 21 4 10 15 13 19 7 21 4 24 17 28 19 30 32 43 36 50
 Flexibility Score: 90.00
  4 active torsions:
  status: ('A' for Active; 'I' for Inactive)
    1  A    between atoms: CA   and  CB  
    2  A    between atoms: CB   and  CG  
    3  A    between atoms: CG   and  CD  
    4  A    between atoms: CD   and  CE  

>  <TORSDO>
F 17

>  <BEGIN_>
RES LYS A 131

$$$$
ligand_69_pose_4_2HRL.pdbqt
 OpenBabel07062320523D

  6  5  0  0  0  0  0  0  0  0999 V2000
   33.1930   34.6630    9.2900 C   0  0  0  0  0  0  0  0  0  0  0  0
   32.0600   35.3600   10.0340 C   0  0  0  0  0  0  0  0  0  0  0  0
   32.3380   35.5630   11.5010 C   0  0  0  0  0  0  0  0  0  0  0  0
   31.2680   34.8890   12.3480 C   0  0  0  0  0  0  0  0  0  0  0  0
   31.3200   35.3980   13.7750 C   0  0  0  0  0  0  0  0  0  0  0  0
   32.1690   36.6170   13.8800 N   0  0  0  0  0  0  0  0  0  0  0  0
  1  2  1  0  0  0  0
  2  3  1  0  0  0  0
  3  4  1  0  0  0  0
  4  5  1  0  0  0  0
  5  6  1  0  0  0  0
M  END
>  <EGIN_R>
ES LYS A 135

>  <REMARK>
  4 active torsions:
  status: ('A' for Active; 'I' for Inactive)
    5  A    between atoms: CA   and  CB  
    6  A    between atoms: CB   and  CG  
    7  A    between atoms: CG   and  CD  
    8  A    between atoms: CD   and  CE  

$$$$
