ligand_12_pose_8_2HRL.pdbqt
 OpenBabel07062320523D

 52 53  0  0  1  0  0  0  0  0999 V2000
   31.0450   32.8100   16.9710 N   0  0  0  0  0  0  0  0  0  0  0  0
   30.7390   34.1550   16.6090 C   0  0  0  0  0  0  0  0  0  0  0  0
   30.2360   34.9630   17.4480 O   0  0  0  0  0  0  0  0  0  0  0  0
   31.4540   32.1800   16.2630 H   0  0  0  0  0  0  0  0  0  0  0  0
   30.7570   32.4100   18.3340 C   0  0  0  0  0  0  0  0  0  0  0  0
   29.8170   31.2360   18.3950 C   0  0  2  0  0  0  0  0  0  0  0  0
   28.4750   31.6760   18.9380 C   0  0  2  0  0  0  0  0  0  0  0  0
   27.4240   30.6240   18.8040 C   0  0  2  0  0  0  0  0  0  0  0  0
   27.1560   28.4240   18.0860 C   0  0  2  0  0  0  0  0  0  0  0  0
   25.6850   28.7880   17.9440 C   0  0  0  0  0  0  0  0  0  0  0  0
   27.9860   29.5380   18.1410 O   0  0  0  0  0  0  0  0  0  0  0  0
   25.6300   30.0830   17.1640 C   0  0  1  0  0  0  0  0  0  0  0  0
   26.1960   31.1460   18.0910 C   0  0  1  0  0  0  0  0  0  0  0  0
   27.4890   27.7530   16.9110 O   0  0  0  0  0  0  0  0  0  0  0  0
   26.7960   27.8580   16.2120 H   0  0  0  0  0  0  0  0  0  0  0  0
   27.3560   27.5150   19.2220 C   0  0  0  0  0  0  0  0  0  0  0  0
   26.3770   27.2050   19.9450 O   0  0  0  0  0  0  0  0  0  0  0  0
   28.5870   26.9640   19.5560 O   0  0  0  0  0  0  0  0  0  0  0  0
   28.7740   26.0100   19.2610 H   0  0  0  0  0  0  0  0  0  0  0  0
   26.3780   30.0090   15.9930 O   0  0  0  0  0  0  0  0  0  0  0  0
   27.2860   30.4040   16.1720 H   0  0  0  0  0  0  0  0  0  0  0  0
   25.1710   31.4410   19.0690 N   0  0  0  0  0  0  0  0  0  0  0  0
   24.7670   32.7840   19.2950 C   0  0  0  0  0  0  0  0  0  0  0  0
   24.6880   30.7050   19.6400 H   0  0  0  0  0  0  0  0  0  0  0  0
   23.7170   33.1440   20.2870 C   0  0  0  0  0  0  0  0  0  0  0  0
   25.2940   33.7290   18.6530 O   0  0  0  0  0  0  0  0  0  0  0  0
   28.1410   32.9010   18.4140 O   0  0  0  0  0  0  0  0  0  0  0  0
   27.2400   32.8100   17.9910 H   0  0  0  0  0  0  0  0  0  0  0  0
   30.3870   30.2430   19.1820 O   0  0  0  0  0  0  0  0  0  0  0  0
   31.3750   30.2540   19.0760 H   0  0  0  0  0  0  0  0  0  0  0  0
   30.9720   34.6490   15.3330 O   0  0  0  0  0  0  0  0  0  0  0  0
   30.3600   34.1360   14.1670 C   0  0  0  0  0  0  0  0  0  0  0  0
   28.8840   34.2290   14.2060 C   0  0  0  0  0  0  0  0  0  0  0  0
   27.9520   33.4770   14.8890 C   0  0  0  0  0  0  0  0  0  0  0  0
   28.1650   35.1350   13.5220 N   0  0  0  0  0  0  0  0  0  0  0  0
   26.7090   33.9400   14.6070 N   0  0  0  0  0  0  0  0  0  0  0  0
   26.8880   34.9470   13.7730 N   0  0  0  0  0  0  0  0  0  0  0  0
   25.4280   33.4300   15.1200 C   0  0  0  0  0  0  0  0  0  0  0  0
   25.1290   32.2250   14.4910 O   0  0  0  0  0  0  0  0  0  0  0  0
   24.3650   32.3940   13.3600 C   0  0  0  0  0  0  0  0  0  0  0  0
   23.5310   31.2290   13.0030 C   0  0  0  0  0  0  0  0  0  0  0  0
   24.0920   29.9690   12.9710 C   0  0  0  0  0  0  0  0  0  0  0  0
   22.1990   31.3710   12.7070 C   0  0  0  0  0  0  0  0  0  0  0  0
   23.3210   28.8510   12.6420 C   0  0  0  0  0  0  0  0  0  0  0  0
   21.4380   30.2590   12.3820 C   0  0  0  0  0  0  0  0  0  0  0  0
   21.9820   29.0140   12.3470 C   0  0  0  0  0  0  0  0  0  0  0  0
   29.8670   25.5550   16.9770 C   0  0  0  0  0  0  0  0  0  0  0  0
   28.3450   25.7220   17.0260 C   0  0  0  0  0  0  0  0  0  0  0  0
   27.6010   24.4040   16.8740 C   0  0  0  0  0  0  0  0  0  0  0  0
   26.6270   24.1710   17.9960 C   0  0  0  0  0  0  0  0  0  0  0  0
   25.6130   23.1120   17.5780 C   0  0  0  0  0  0  0  0  0  0  0  0
   24.8120   22.6710   18.7440 N   0  0  0  0  0  0  0  0  0  0  0  0
  1  5  1  0  0  0  0
  2  1  1  0  0  0  0
  2  3  2  0  0  0  0
  4  1  1  0  0  0  0
  6  5  1  1  0  0  0
  6  7  1  0  0  0  0
  6 29  1  0  0  0  0
  7 27  1  6  0  0  0
  8  7  1  6  0  0  0
  9 14  1  6  0  0  0
  9 11  1  0  0  0  0
  9 16  1  0  0  0  0
 10  9  1  0  0  0  0
 11  8  1  0  0  0  0
 12 20  1  6  0  0  0
 12 10  1  0  0  0  0
 12 13  1  0  0  0  0
 13  8  1  0  0  0  0
 13 22  1  1  0  0  0
 15 14  1  0  0  0  0
 16 18  1  0  0  0  0
 16 17  2  0  0  0  0
 19 18  1  0  0  0  0
 20 21  1  0  0  0  0
 22 23  1  0  0  0  0
 22 24  1  0  0  0  0
 23 25  1  0  0  0  0
 26 23  2  0  0  0  0
 28 27  1  0  0  0  0
 30 29  1  0  0  0  0
 31  2  1  0  0  0  0
 32 33  1  0  0  0  0
 32 31  1  0  0  0  0
 33 34  2  0  0  0  0
 35 37  2  0  0  0  0
 35 33  1  0  0  0  0
 36 34  1  0  0  0  0
 36 38  1  0  0  0  0
 37 36  1  0  0  0  0
 39 38  1  0  0  0  0
 40 39  1  0  0  0  0
 41 40  1  0  0  0  0
 42 41  1  0  0  0  0
 43 41  2  0  0  0  0
 44 42  2  0  0  0  0
 45 43  1  0  0  0  0
 46 45  2  0  0  0  0
 46 44  1  0  0  0  0
 47 48  1  0  0  0  0
 49 48  1  0  0  0  0
 49 50  1  0  0  0  0
 51 50  1  0  0  0  0
 51 52  1  0  0  0  0
M  END
>  <REMARK>
 VINA RESULT:    -6.174      5.575     10.234
 INTER + INTRA:         -15.543
 INTER:                  -9.192
 INTRA:                  -6.350
 UNBOUND:                -3.774
 SMILES CC(=O)N[C@@H]1[C@@H](O)C[C@](O)(C(=O)O)O[C@H]1C(O)[C@H](O)CNC(=O)OCc1cn(COCc2ccccc2)nn1
 SMILES IDX 21 1 22 2 23 3 20 5 18 6 16 7 15 8 9 9 8 10 14 11 6 12 5 13
 SMILES IDX 10 14 11 16 12 17 13 18 7 20 4 22 2 23 1 25 3 26 17 27 19 29
 SMILES IDX 24 31 25 32 26 33 27 34 39 35 28 36 38 37 29 38 30 39 31 40
 SMILES IDX 32 41 33 42 37 43 34 44 36 45 35 46
 H PARENT 21 4 10 15 13 19 7 21 4 24 17 28 19 30
 Flexibility Score: inf
  4 active torsions:
  status: ('A' for Active; 'I' for Inactive)
    1  A    between atoms: CA   and  CB  
    2  A    between atoms: CB   and  CG  
    3  A    between atoms: CG   and  CD  
    4  A    between atoms: CD   and  CE  

>  <TORSDO>
F 18

>  <BEGIN_>
RES LYS A 131

$$$$
ligand_12_pose_8_2HRL.pdbqt
 OpenBabel07062320523D

  6  5  0  0  0  0  0  0  0  0999 V2000
   33.1930   34.6630    9.2900 C   0  0  0  0  0  0  0  0  0  0  0  0
   32.0600   35.3600   10.0340 C   0  0  0  0  0  0  0  0  0  0  0  0
   30.8370   35.5950    9.1860 C   0  0  0  0  0  0  0  0  0  0  0  0
   30.1930   34.2730    8.7950 C   0  0  0  0  0  0  0  0  0  0  0  0
   28.7740   34.4950    8.3100 C   0  0  0  0  0  0  0  0  0  0  0  0
   27.9190   35.0590    9.3910 N   0  0  0  0  0  0  0  0  0  0  0  0
  1  2  1  0  0  0  0
  3  2  1  0  0  0  0
  4  3  1  0  0  0  0
  5  4  1  0  0  0  0
  5  6  1  0  0  0  0
M  END
>  <EGIN_R>
ES LYS A 135

>  <REMARK>
  4 active torsions:
  status: ('A' for Active; 'I' for Inactive)
    5  A    between atoms: CA   and  CB  
    6  A    between atoms: CB   and  CG  
    7  A    between atoms: CG   and  CD  
    8  A    between atoms: CD   and  CE  

$$$$
