ligand_23_pose_10_2HRL.pdbqt
 OpenBabel07062320523D

 55 56  0  0  1  0  0  0  0  0999 V2000
   25.5020   29.0040   18.5170 N   0  0  0  0  0  0  0  0  0  0  0  0
   24.6570   30.1180   18.2760 C   0  0  0  0  0  0  0  0  0  0  0  0
   24.4110   30.8970   19.2130 O   0  0  0  0  0  0  0  0  0  0  0  0
   25.6700   28.3860   17.6770 H   0  0  0  0  0  0  0  0  0  0  0  0
   26.0900   28.7320   19.8030 C   0  0  0  0  0  0  0  0  0  0  0  0
   27.5980   28.8520   19.7470 C   0  0  2  0  0  0  0  0  0  0  0  0
   28.0160   30.1790   20.3670 C   0  0  1  0  0  0  0  0  0  0  0  0
   29.5280   30.3280   20.2110 C   0  0  2  0  0  0  0  0  0  0  0  0
   30.9360   28.7740   21.1990 C   0  0  2  0  0  0  0  0  0  0  0  0
   32.0250   29.7920   21.4480 C   0  0  0  0  0  0  0  0  0  0  0  0
   30.1240   29.1070   20.1340 O   0  0  0  0  0  0  0  0  0  0  0  0
   31.5750   31.1960   21.2240 C   0  0  1  0  0  0  0  0  0  0  0  0
   30.0480   31.2290   21.2890 C   0  0  1  0  0  0  0  0  0  0  0  0
   30.1610   28.5550   22.3340 O   0  0  0  0  0  0  0  0  0  0  0  0
   30.3070   27.6070   22.6430 H   0  0  0  0  0  0  0  0  0  0  0  0
   31.6110   27.4930   20.8610 C   0  0  0  0  0  0  0  0  0  0  0  0
   31.6720   26.5410   21.6820 O   0  0  0  0  0  0  0  0  0  0  0  0
   32.2090   27.2830   19.6170 O   0  0  0  0  0  0  0  0  0  0  0  0
   31.6920   27.4550   18.7630 H   0  0  0  0  0  0  0  0  0  0  0  0
   32.1220   32.1130   22.1050 O   0  0  0  0  0  0  0  0  0  0  0  0
   32.3900   32.9700   21.6660 H   0  0  0  0  0  0  0  0  0  0  0  0
   29.5930   32.5770   20.9930 N   0  0  0  0  0  0  0  0  0  0  0  0
   29.1680   33.4810   22.0100 C   0  0  0  0  0  0  0  0  0  0  0  0
   29.5770   32.8970   19.9850 H   0  0  0  0  0  0  0  0  0  0  0  0
   28.7230   34.8350   21.5900 C   0  0  0  0  0  0  0  0  0  0  0  0
   29.1930   33.0900   23.1890 O   0  0  0  0  0  0  0  0  0  0  0  0
   27.4060   31.1910   19.6480 O   0  0  0  0  0  0  0  0  0  0  0  0
   26.4620   31.3020   19.9140 H   0  0  0  0  0  0  0  0  0  0  0  0
   27.9880   28.8150   18.3970 O   0  0  0  0  0  0  0  0  0  0  0  0
   27.1920   28.9350   17.7910 H   0  0  0  0  0  0  0  0  0  0  0  0
   24.1010   30.3530   17.0150 O   0  0  0  0  0  0  0  0  0  0  0  0
   24.6400   31.3300   16.1480 C   0  0  0  0  0  0  0  0  0  0  0  0
   26.1140   31.1800   16.0650 C   0  0  0  0  0  0  0  0  0  0  0  0
   27.0230   32.2160   16.1680 C   0  0  0  0  0  0  0  0  0  0  0  0
   26.8340   30.0670   15.8820 N   0  0  0  0  0  0  0  0  0  0  0  0
   28.2330   31.6500   16.0400 N   0  0  0  0  0  0  0  0  0  0  0  0
   28.1300   30.3420   15.8640 N   0  0  0  0  0  0  0  0  0  0  0  0
   29.4770   32.3460   16.0820 C   0  0  0  0  0  0  0  0  0  0  0  0
   29.8220   33.1940   17.1120 C   0  0  0  0  0  0  0  0  0  0  0  0
   30.4010   32.1890   15.0630 C   0  0  0  0  0  0  0  0  0  0  0  0
   31.0400   33.8710   17.1450 C   0  0  0  0  0  0  0  0  0  0  0  0
   31.6040   32.8420   15.0730 C   0  0  0  0  0  0  0  0  0  0  0  0
   31.9200   33.6820   16.1150 C   0  0  0  0  0  0  0  0  0  0  0  0
   31.4690   34.9370   18.4440 S   0  0  0  0  0  0  0  0  0  0  0  0
   32.7690   35.6130   18.0910 O   0  0  0  0  0  0  0  0  0  0  0  0
   31.7360   34.1240   19.6890 O   0  0  0  0  0  0  0  0  0  0  0  0
   30.2670   36.1320   18.7110 N   0  0  0  0  0  0  0  0  0  0  0  0
   29.6020   35.8040   19.4340 H   0  0  0  0  0  0  0  0  0  0  0  0
   29.7740   36.4060   17.8360 H   0  0  0  0  0  0  0  0  0  0  0  0
   29.8670   25.5550   16.9770 C   0  0  0  0  0  0  0  0  0  0  0  0
   28.3450   25.7220   17.0260 C   0  0  0  0  0  0  0  0  0  0  0  0
   27.6000   24.4150   16.8030 C   0  0  0  0  0  0  0  0  0  0  0  0
   26.7420   24.0440   17.9810 C   0  0  0  0  0  0  0  0  0  0  0  0
   26.0650   25.2960   18.5320 C   0  0  0  0  0  0  0  0  0  0  0  0
   24.7840   25.5440   17.8300 N   0  0  0  0  0  0  0  0  0  0  0  0
  1  5  1  0  0  0  0
  2  1  1  0  0  0  0
  2  3  2  0  0  0  0
  4  1  1  0  0  0  0
  6  5  1  6  0  0  0
  6  7  1  0  0  0  0
  7 27  1  6  0  0  0
  8  7  1  1  0  0  0
  8 13  1  0  0  0  0
  9 16  1  6  0  0  0
  9 10  1  0  0  0  0
  9 14  1  0  0  0  0
 11  8  1  0  0  0  0
 11  9  1  0  0  0  0
 12 13  1  0  0  0  0
 12 10  1  0  0  0  0
 12 20  1  1  0  0  0
 13 22  1  6  0  0  0
 14 15  1  0  0  0  0
 16 17  2  0  0  0  0
 18 16  1  0  0  0  0
 19 18  1  0  0  0  0
 21 20  1  0  0  0  0
 22 23  1  0  0  0  0
 23 26  2  0  0  0  0
 24 22  1  0  0  0  0
 25 23  1  0  0  0  0
 27 28  1  0  0  0  0
 29  6  1  0  0  0  0
 30 29  1  0  0  0  0
 31  2  1  0  0  0  0
 32 31  1  0  0  0  0
 33 32  1  0  0  0  0
 33 34  2  0  0  0  0
 35 33  1  0  0  0  0
 36 38  1  0  0  0  0
 36 34  1  0  0  0  0
 37 35  2  0  0  0  0
 37 36  1  0  0  0  0
 38 39  2  0  0  0  0
 39 41  1  0  0  0  0
 40 42  2  0  0  0  0
 40 38  1  0  0  0  0
 41 44  1  0  0  0  0
 42 43  1  0  0  0  0
 43 41  2  0  0  0  0
 44 47  1  0  0  0  0
 44 46  2  0  0  0  0
 45 44  2  0  0  0  0
 47 48  1  0  0  0  0
 49 47  1  0  0  0  0
 50 51  1  0  0  0  0
 52 51  1  0  0  0  0
 52 53  1  0  0  0  0
 53 54  1  0  0  0  0
 55 54  1  0  0  0  0
M  END
>  <REMARK>
 VINA RESULT:    -4.346      6.090     10.898
 INTER + INTRA:         -14.527
 INTER:                  -7.904
 INTRA:                  -6.622
 UNBOUND:                -6.624
 SMILES CC(=O)N[C@@H]1[C@@H](O)C[C@](O)(C(=O)O)O[C@H]1C(O)[C@H](O)CNC(=O)OCc1cn(-c2cccc(S(N)(=O)=O)c2)nn1
 SMILES IDX 21 1 22 2 23 3 20 5 18 6 16 7 15 8 9 9 8 10 14 11 6 12 5 13
 SMILES IDX 10 14 11 16 12 17 13 18 7 20 4 22 2 23 1 25 3 26 17 27 19 29
 SMILES IDX 24 31 25 32 26 33 27 34 40 35 28 36 39 37 29 38 38 39 30 40
 SMILES IDX 33 41 31 42 32 43 34 44 36 45 37 46 35 47
 H PARENT 21 4 10 15 13 19 7 21 4 24 17 28 19 30 35 48 35 49
 Flexibility Score: inf
  4 active torsions:
  status: ('A' for Active; 'I' for Inactive)
    1  A    between atoms: CA   and  CB  
    2  A    between atoms: CB   and  CG  
    3  A    between atoms: CG   and  CD  
    4  A    between atoms: CD   and  CE  

>  <TORSDO>
F 17

>  <BEGIN_>
RES LYS A 131

$$$$
ligand_23_pose_10_2HRL.pdbqt
 OpenBabel07062320523D

  6  5  0  0  0  0  0  0  0  0999 V2000
   33.1930   34.6630    9.2900 C   0  0  0  0  0  0  0  0  0  0  0  0
   32.0600   35.3600   10.0340 C   0  0  0  0  0  0  0  0  0  0  0  0
   30.6950   35.0610    9.4700 C   0  0  0  0  0  0  0  0  0  0  0  0
   29.7110   34.7430   10.5850 C   0  0  0  0  0  0  0  0  0  0  0  0
   30.4010   34.7940   11.9350 C   0  0  0  0  0  0  0  0  0  0  0  0
   29.5350   35.4450   12.9560 N   0  0  0  0  0  0  0  0  0  0  0  0
  1  2  1  0  0  0  0
  3  2  1  0  0  0  0
  3  4  1  0  0  0  0
  4  5  1  0  0  0  0
  5  6  1  0  0  0  0
M  END
>  <EGIN_R>
ES LYS A 135

>  <REMARK>
  4 active torsions:
  status: ('A' for Active; 'I' for Inactive)
    5  A    between atoms: CA   and  CB  
    6  A    between atoms: CB   and  CG  
    7  A    between atoms: CG   and  CD  
    8  A    between atoms: CD   and  CE  

$$$$
