ligand_1_pose_13_2HRL.pdbqt
 OpenBabel07062320523D

 47 47  0  0  1  0  0  0  0  0999 V2000
   29.8760   34.3990   14.5480 N   0  0  0  0  0  0  0  0  0  0  0  0
   29.6460   34.5320   13.1740 C   0  0  0  0  0  0  0  0  0  0  0  0
   30.5920   34.6360   12.3980 O   0  0  0  0  0  0  0  0  0  0  0  0
   28.9840   34.3180   15.1420 H   0  0  0  0  0  0  0  0  0  0  0  0
   31.0940   34.3570   15.2610 C   0  0  0  0  0  0  0  0  0  0  0  0
   31.1180   33.6050   16.5550 C   0  0  2  0  0  0  0  0  0  0  0  0
   30.8750   32.1380   16.3680 C   0  0  1  0  0  0  0  0  0  0  0  0
   29.5330   31.5980   16.6250 C   0  0  2  0  0  0  0  0  0  0  0  0
   27.2590   31.9490   16.4890 C   0  0  2  0  0  0  0  0  0  0  0  0
   27.2350   30.4380   16.5840 C   0  0  0  0  0  0  0  0  0  0  0  0
   28.5340   32.4710   16.2720 O   0  0  0  0  0  0  0  0  0  0  0  0
   28.1170   29.9670   17.7330 C   0  0  1  0  0  0  0  0  0  0  0  0
   29.2410   30.9980   17.9570 C   0  0  1  0  0  0  0  0  0  0  0  0
   26.7930   32.5210   17.6690 O   0  0  0  0  0  0  0  0  0  0  0  0
   26.3740   33.4000   17.5290 H   0  0  0  0  0  0  0  0  0  0  0  0
   26.4220   32.4270   15.3650 C   0  0  0  0  0  0  0  0  0  0  0  0
   25.4730   31.7550   14.8870 O   0  0  0  0  0  0  0  0  0  0  0  0
   26.6880   33.6640   14.8070 O   0  0  0  0  0  0  0  0  0  0  0  0
   26.6770   33.7740   13.7820 H   0  0  0  0  0  0  0  0  0  0  0  0
   27.3410   29.8330   18.8760 O   0  0  0  0  0  0  0  0  0  0  0  0
   26.9640   28.9140   18.8620 H   0  0  0  0  0  0  0  0  0  0  0  0
   30.3660   30.3220   18.5710 N   0  0  0  0  0  0  0  0  0  0  0  0
   30.5100   30.3820   19.9810 C   0  0  0  0  0  0  0  0  0  0  0  0
   31.0720   29.7920   18.0040 H   0  0  0  0  0  0  0  0  0  0  0  0
   31.6330   29.7210   20.6980 C   0  0  0  0  0  0  0  0  0  0  0  0
   29.6670   31.0130   20.6590 O   0  0  0  0  0  0  0  0  0  0  0  0
   31.2310   31.9200   14.9850 O   0  0  0  0  0  0  0  0  0  0  0  0
   31.9240   31.2380   14.9540 H   0  0  0  0  0  0  0  0  0  0  0  0
   30.3220   34.1770   17.4900 O   0  0  0  0  0  0  0  0  0  0  0  0
   29.3590   34.0610   17.3690 H   0  0  0  0  0  0  0  0  0  0  0  0
   28.3560   34.5510   12.6490 O   0  0  0  0  0  0  0  0  0  0  0  0
   27.7750   35.7340   12.1430 C   0  0  0  0  0  0  0  0  0  0  0  0
   27.4470   35.5500   10.7090 C   0  0  0  0  0  0  0  0  0  0  0  0
   27.0750   36.5170    9.8080 C   0  0  0  0  0  0  0  0  0  0  0  0
   27.4600   34.4010   10.0490 N   0  0  0  0  0  0  0  0  0  0  0  0
   26.8830   35.8800    8.6390 N   0  0  0  0  0  0  0  0  0  0  0  0
   27.1150   34.5860    8.7780 N   0  0  0  0  0  0  0  0  0  0  0  0
   26.4770   36.5360    7.4120 C   0  0  0  0  0  0  0  0  0  0  0  0
   27.5780   36.3460    6.3720 C   0  0  0  0  0  0  0  0  0  0  0  0
   27.2100   37.0370    5.1990 O   0  0  0  0  0  0  0  0  0  0  0  0
   27.4720   38.0040    5.2800 H   0  0  0  0  0  0  0  0  0  0  0  0
   29.8670   25.5550   16.9770 C   0  0  0  0  0  0  0  0  0  0  0  0
   28.3450   25.7220   17.0260 C   0  0  0  0  0  0  0  0  0  0  0  0
   27.6010   24.4050   16.8700 C   0  0  0  0  0  0  0  0  0  0  0  0
   26.5790   24.2000   17.9540 C   0  0  0  0  0  0  0  0  0  0  0  0
   25.1790   24.3660   17.3720 C   0  0  0  0  0  0  0  0  0  0  0  0
   24.6640   25.7290   17.6440 N   0  0  0  0  0  0  0  0  0  0  0  0
  1  4  1  0  0  0  0
  1  5  1  0  0  0  0
  2  1  1  0  0  0  0
  3  2  2  0  0  0  0
  6  5  1  6  0  0  0
  6 29  1  0  0  0  0
  7 27  1  6  0  0  0
  7  6  1  0  0  0  0
  8  7  1  1  0  0  0
  8 13  1  0  0  0  0
  9 16  1  6  0  0  0
  9 10  1  0  0  0  0
  9 14  1  0  0  0  0
 10 12  1  0  0  0  0
 11  9  1  0  0  0  0
 11  8  1  0  0  0  0
 12 13  1  0  0  0  0
 12 20  1  1  0  0  0
 13 22  1  6  0  0  0
 15 14  1  0  0  0  0
 17 16  2  0  0  0  0
 18 16  1  0  0  0  0
 19 18  1  0  0  0  0
 21 20  1  0  0  0  0
 22 23  1  0  0  0  0
 23 26  2  0  0  0  0
 23 25  1  0  0  0  0
 24 22  1  0  0  0  0
 28 27  1  0  0  0  0
 30 29  1  0  0  0  0
 31  2  1  0  0  0  0
 32 31  1  0  0  0  0
 33 32  1  0  0  0  0
 34 33  2  0  0  0  0
 35 33  1  0  0  0  0
 36 37  1  0  0  0  0
 36 34  1  0  0  0  0
 37 35  2  0  0  0  0
 38 36  1  0  0  0  0
 39 38  1  0  0  0  0
 40 41  1  0  0  0  0
 40 39  1  0  0  0  0
 42 43  1  0  0  0  0
 44 43  1  0  0  0  0
 44 45  1  0  0  0  0
 46 47  1  0  0  0  0
 46 45  1  0  0  0  0
M  END
>  <REMARK>
 VINA RESULT:    -3.160      5.385      9.619
 INTER + INTRA:         -13.318
 INTER:                  -8.831
 INTRA:                  -4.486
 UNBOUND:                -7.572
 SMILES CC(=O)N[C@@H]1[C@@H](O)C[C@](O)(C(=O)O)O[C@H]1C(O)[C@H](O)CNC(=O)OCc1cn(CCO)nn1
 SMILES IDX 21 1 22 2 23 3 20 5 18 6 16 7 15 8 9 9 8 10 14 11 6 12 5 13
 SMILES IDX 10 14 11 16 12 17 13 18 7 20 4 22 2 23 1 25 3 26 17 27 19 29
 SMILES IDX 24 31 25 32 26 33 27 34 33 35 28 36 32 37 29 38 30 39 31 40
 H PARENT 21 4 10 15 13 19 7 21 4 24 17 28 19 30 31 41
 Flexibility Score: inf
  4 active torsions:
  status: ('A' for Active; 'I' for Inactive)
    1  A    between atoms: CA   and  CB  
    2  A    between atoms: CB   and  CG  
    3  A    between atoms: CG   and  CD  
    4  A    between atoms: CD   and  CE  

>  <TORSDO>
F 17

>  <BEGIN_>
RES LYS A 131

$$$$
ligand_1_pose_13_2HRL.pdbqt
 OpenBabel07062320523D

  6  5  0  0  0  0  0  0  0  0999 V2000
   33.1930   34.6630    9.2900 C   0  0  0  0  0  0  0  0  0  0  0  0
   32.0600   35.3600   10.0340 C   0  0  0  0  0  0  0  0  0  0  0  0
   30.8140   35.5370    9.2050 C   0  0  0  0  0  0  0  0  0  0  0  0
   30.4830   37.0120    9.0420 C   0  0  0  0  0  0  0  0  0  0  0  0
   31.1620   37.8330   10.1210 C   0  0  0  0  0  0  0  0  0  0  0  0
   30.1680   38.3690   11.0920 N   0  0  0  0  0  0  0  0  0  0  0  0
  1  2  1  0  0  0  0
  3  2  1  0  0  0  0
  4  3  1  0  0  0  0
  4  5  1  0  0  0  0
  5  6  1  0  0  0  0
M  END
>  <EGIN_R>
ES LYS A 135

>  <REMARK>
  4 active torsions:
  status: ('A' for Active; 'I' for Inactive)
    5  A    between atoms: CA   and  CB  
    6  A    between atoms: CB   and  CG  
    7  A    between atoms: CG   and  CD  
    8  A    between atoms: CD   and  CE  

$$$$
