ligand_66_pose_16_2HRL.pdbqt
 OpenBabel07062320523D

 52 53  0  0  1  0  0  0  0  0999 V2000
   29.9110   30.7720   17.4380 N   0  0  0  0  0  0  0  0  0  0  0  0
   28.9180   30.7200   18.4230 C   0  0  0  0  0  0  0  0  0  0  0  0
   27.7150   30.8700   18.1260 O   0  0  0  0  0  0  0  0  0  0  0  0
   30.9130   30.6310   17.7680 H   0  0  0  0  0  0  0  0  0  0  0  0
   29.6470   31.0010   16.0420 C   0  0  0  0  0  0  0  0  0  0  0  0
   30.2920   32.2530   15.5190 C   0  0  2  0  0  0  0  0  0  0  0  0
   29.4510   33.0950   14.6420 C   0  0  2  0  0  0  0  0  0  0  0  0
   30.1400   34.3540   14.0910 C   0  0  2  0  0  0  0  0  0  0  0  0
   31.8440   35.7970   14.5410 C   0  0  2  0  0  0  0  0  0  0  0  0
   30.8760   36.9490   14.7170 C   0  0  0  0  0  0  0  0  0  0  0  0
   31.1810   34.6460   14.8780 O   0  0  0  0  0  0  0  0  0  0  0  0
   29.6930   36.8110   13.7980 C   0  0  1  0  0  0  0  0  0  0  0  0
   29.1620   35.4080   13.7390 C   0  0  1  0  0  0  0  0  0  0  0  0
   32.9150   35.9990   15.4480 O   0  0  0  0  0  0  0  0  0  0  0  0
   33.0010   35.1230   15.9220 H   0  0  0  0  0  0  0  0  0  0  0  0
   32.4270   35.8470   13.1960 C   0  0  0  0  0  0  0  0  0  0  0  0
   32.2880   36.8420   12.4470 O   0  0  0  0  0  0  0  0  0  0  0  0
   33.1830   34.7940   12.6410 O   0  0  0  0  0  0  0  0  0  0  0  0
   33.1550   34.7390   11.6200 H   0  0  0  0  0  0  0  0  0  0  0  0
   28.7040   37.6840   14.2510 O   0  0  0  0  0  0  0  0  0  0  0  0
   29.0750   38.4910   14.6650 H   0  0  0  0  0  0  0  0  0  0  0  0
   28.5990   35.1780   12.4230 N   0  0  0  0  0  0  0  0  0  0  0  0
   27.2060   34.8590   12.2220 C   0  0  0  0  0  0  0  0  0  0  0  0
   29.1500   35.2220   11.5280 H   0  0  0  0  0  0  0  0  0  0  0  0
   26.6710   34.6270   10.8430 C   0  0  0  0  0  0  0  0  0  0  0  0
   26.4370   34.7740   13.2000 O   0  0  0  0  0  0  0  0  0  0  0  0
   28.2760   33.5310   15.2580 O   0  0  0  0  0  0  0  0  0  0  0  0
   28.3940   34.3760   15.7570 H   0  0  0  0  0  0  0  0  0  0  0  0
   31.5420   31.9090   15.0050 O   0  0  0  0  0  0  0  0  0  0  0  0
   32.0550   31.4680   15.7270 H   0  0  0  0  0  0  0  0  0  0  0  0
   29.2030   30.5040   19.7710 O   0  0  0  0  0  0  0  0  0  0  0  0
   30.0300   31.4230   20.4380 C   0  0  0  0  0  0  0  0  0  0  0  0
   31.1740   30.6990   21.0270 C   0  0  0  0  0  0  0  0  0  0  0  0
   31.8370   30.9660   22.2040 C   0  0  0  0  0  0  0  0  0  0  0  0
   31.7800   29.6200   20.4990 N   0  0  0  0  0  0  0  0  0  0  0  0
   32.8140   30.0530   22.3560 N   0  0  0  0  0  0  0  0  0  0  0  0
   32.7430   29.2550   21.2970 N   0  0  0  0  0  0  0  0  0  0  0  0
   33.7790   29.8820   23.4100 C   0  0  0  0  0  0  0  0  0  0  0  0
   35.1420   30.3160   22.9560 C   0  0  0  0  0  0  0  0  0  0  0  0
   35.2690   31.3720   22.0820 C   0  0  0  0  0  0  0  0  0  0  0  0
   36.2790   29.6920   23.3940 C   0  0  0  0  0  0  0  0  0  0  0  0
   36.5380   31.7860   21.6600 C   0  0  0  0  0  0  0  0  0  0  0  0
   37.5450   30.0740   23.0010 C   0  0  0  0  0  0  0  0  0  0  0  0
   37.6710   31.1300   22.1270 C   0  0  0  0  0  0  0  0  0  0  0  0
   38.7500   29.4380   23.4460 C   0  0  0  0  0  0  0  0  0  0  0  0
   39.7290   28.9060   23.7950 N   0  0  0  0  0  0  0  0  0  0  0  0
   29.8670   25.5550   16.9770 C   0  0  0  0  0  0  0  0  0  0  0  0
   28.3450   25.7220   17.0260 C   0  0  0  0  0  0  0  0  0  0  0  0
   27.6010   24.4030   16.8870 C   0  0  0  0  0  0  0  0  0  0  0  0
   26.1740   24.5060   17.3490 C   0  0  0  0  0  0  0  0  0  0  0  0
   25.8080   23.2620   18.1530 C   0  0  0  0  0  0  0  0  0  0  0  0
   25.5030   23.6240   19.5570 N   0  0  0  0  0  0  0  0  0  0  0  0
  1  4  1  0  0  0  0
  1  2  1  0  0  0  0
  2 31  1  0  0  0  0
  3  2  2  0  0  0  0
  5  1  1  0  0  0  0
  6  5  1  6  0  0  0
  7 27  1  1  0  0  0
  7  6  1  0  0  0  0
  8  7  1  1  0  0  0
  8 11  1  0  0  0  0
  9 16  1  6  0  0  0
  9 10  1  0  0  0  0
  9 11  1  0  0  0  0
  9 14  1  0  0  0  0
 12 20  1  1  0  0  0
 12 10  1  0  0  0  0
 13 22  1  6  0  0  0
 13 12  1  0  0  0  0
 13  8  1  0  0  0  0
 14 15  1  0  0  0  0
 17 16  2  0  0  0  0
 18 16  1  0  0  0  0
 19 18  1  0  0  0  0
 20 21  1  0  0  0  0
 23 22  1  0  0  0  0
 23 26  2  0  0  0  0
 24 22  1  0  0  0  0
 25 23  1  0  0  0  0
 27 28  1  0  0  0  0
 29  6  1  0  0  0  0
 29 30  1  0  0  0  0
 31 32  1  0  0  0  0
 32 33  1  0  0  0  0
 33 34  2  0  0  0  0
 34 36  1  0  0  0  0
 35 33  1  0  0  0  0
 35 37  2  0  0  0  0
 36 38  1  0  0  0  0
 37 36  1  0  0  0  0
 39 41  2  0  0  0  0
 39 38  1  0  0  0  0
 40 39  1  0  0  0  0
 42 40  2  0  0  0  0
 42 44  1  0  0  0  0
 43 41  1  0  0  0  0
 43 45  1  0  0  0  0
 44 43  2  0  0  0  0
 45 46  3  0  0  0  0
 47 48  1  0  0  0  0
 49 48  1  0  0  0  0
 49 50  1  0  0  0  0
 50 51  1  0  0  0  0
 51 52  1  0  0  0  0
M  END
>  <REMARK>
 VINA RESULT:    -4.875      4.396      9.499
 INTER + INTRA:         -14.220
 INTER:                  -9.779
 INTRA:                  -4.441
 UNBOUND:                -5.212
 SMILES CC(=O)N[C@@H]1[C@@H](O)C[C@](O)(C(=O)O)O[C@H]1C(O)[C@H](O)CNC(=O)OCc1cn(Cc2cccc(C#N)c2)nn1
 SMILES IDX 21 1 22 2 23 3 20 5 18 6 16 7 15 8 9 9 8 10 14 11 6 12 5 13
 SMILES IDX 10 14 11 16 12 17 13 18 7 20 4 22 2 23 1 25 3 26 17 27 19 29
 SMILES IDX 24 31 25 32 26 33 27 34 39 35 28 36 38 37 29 38 30 39 31 40
 SMILES IDX 37 41 32 42 34 43 33 44 35 45 36 46
 H PARENT 21 4 10 15 13 19 7 21 4 24 17 28 19 30
 Flexibility Score: inf
  4 active torsions:
  status: ('A' for Active; 'I' for Inactive)
    1  A    between atoms: CA   and  CB  
    2  A    between atoms: CB   and  CG  
    3  A    between atoms: CG   and  CD  
    4  A    between atoms: CD   and  CE  

>  <TORSDO>
F 17

>  <BEGIN_>
RES LYS A 131

$$$$
ligand_66_pose_16_2HRL.pdbqt
 OpenBabel07062320523D

  6  5  0  0  0  0  0  0  0  0999 V2000
   33.1930   34.6630    9.2900 C   0  0  0  0  0  0  0  0  0  0  0  0
   32.0600   35.3600   10.0340 C   0  0  0  0  0  0  0  0  0  0  0  0
   30.7060   34.7520    9.7750 C   0  0  0  0  0  0  0  0  0  0  0  0
   30.4960   34.5230    8.2860 C   0  0  0  0  0  0  0  0  0  0  0  0
   29.0830   34.9000    7.8830 C   0  0  0  0  0  0  0  0  0  0  0  0
   28.8300   36.3500    8.1080 N   0  0  0  0  0  0  0  0  0  0  0  0
  1  2  1  0  0  0  0
  3  2  1  0  0  0  0
  4  3  1  0  0  0  0
  5  6  1  0  0  0  0
  5  4  1  0  0  0  0
M  END
>  <EGIN_R>
ES LYS A 135

>  <REMARK>
  4 active torsions:
  status: ('A' for Active; 'I' for Inactive)
    5  A    between atoms: CA   and  CB  
    6  A    between atoms: CB   and  CG  
    7  A    between atoms: CG   and  CD  
    8  A    between atoms: CD   and  CE  

$$$$
