ligand_2_pose_4_2HRL.pdbqt
 OpenBabel07062320523D

 50 51  0  0  1  0  0  0  0  0999 V2000
   30.5830   31.7860   17.2860 C   0  0  0  0  0  0  0  0  0  0  0  0
   30.8390   32.5420   16.0210 C   0  0  2  0  0  0  0  0  0  0  0  0
   29.5090   33.1680   15.5700 C   0  0  2  0  0  0  0  0  0  0  0  0
   29.6010   33.6680   14.1300 C   0  0  2  0  0  0  0  0  0  0  0  0
   31.1360   35.4240   13.8650 C   0  0  2  0  0  0  0  0  0  0  0  0
   30.3510   36.1570   12.8000 C   0  0  0  0  0  0  0  0  0  0  0  0
   30.9010   34.0950   13.9520 O   0  0  0  0  0  0  0  0  0  0  0  0
   29.0780   35.4300   12.5500 C   0  0  1  0  0  0  0  0  0  0  0  0
   28.6480   34.7530   13.8360 C   0  0  1  0  0  0  0  0  0  0  0  0
   30.9370   36.1280   15.0500 O   0  0  0  0  0  0  0  0  0  0  0  0
   30.6570   37.0400   14.7850 H   0  0  0  0  0  0  0  0  0  0  0  0
   32.5660   35.5960   13.4970 C   0  0  0  0  0  0  0  0  0  0  0  0
   32.8300   36.0600   12.3650 O   0  0  0  0  0  0  0  0  0  0  0  0
   33.5810   35.2660   14.3510 O   0  0  0  0  0  0  0  0  0  0  0  0
   33.4900   34.4410   14.9510 H   0  0  0  0  0  0  0  0  0  0  0  0
   28.0750   36.2320   12.0200 O   0  0  0  0  0  0  0  0  0  0  0  0
   28.3270   36.5670   11.1360 H   0  0  0  0  0  0  0  0  0  0  0  0
   27.2730   34.4130   13.7020 N   0  0  0  0  0  0  0  0  0  0  0  0
   26.2770   34.8160   14.6240 C   0  0  0  0  0  0  0  0  0  0  0  0
   27.0280   33.8290   12.8590 H   0  0  0  0  0  0  0  0  0  0  0  0
   24.8590   34.4430   14.4520 C   0  0  0  0  0  0  0  0  0  0  0  0
   26.7040   35.5090   15.5880 O   0  0  0  0  0  0  0  0  0  0  0  0
   29.1760   34.2280   16.4200 O   0  0  0  0  0  0  0  0  0  0  0  0
   29.9850   34.6080   16.8660 H   0  0  0  0  0  0  0  0  0  0  0  0
   31.3860   31.7670   15.0240 O   0  0  0  0  0  0  0  0  0  0  0  0
   32.0970   31.1570   15.2840 H   0  0  0  0  0  0  0  0  0  0  0  0
   29.2680   31.2670   17.4600 N   0  0  0  0  0  0  0  0  0  0  0  0
   28.5900   31.1670   18.7010 C   0  0  0  0  0  0  0  0  0  0  0  0
   28.7380   30.9240   16.6120 H   0  0  0  0  0  0  0  0  0  0  0  0
   29.1100   31.5460   19.7640 O   0  0  0  0  0  0  0  0  0  0  0  0
   27.2910   30.6250   18.7520 O   0  0  0  0  0  0  0  0  0  0  0  0
   26.9810   29.4150   18.0670 C   0  0  0  0  0  0  0  0  0  0  0  0
   26.2570   29.7980   16.8300 C   0  0  0  0  0  0  0  0  0  0  0  0
   25.1080   29.2300   16.3640 C   0  0  0  0  0  0  0  0  0  0  0  0
   26.6000   30.7490   15.9730 N   0  0  0  0  0  0  0  0  0  0  0  0
   24.7880   29.8680   15.2180 N   0  0  0  0  0  0  0  0  0  0  0  0
   25.7070   30.7890   14.9940 N   0  0  0  0  0  0  0  0  0  0  0  0
   23.6340   29.5420   14.4380 C   0  0  0  0  0  0  0  0  0  0  0  0
   22.6970   28.6760   14.9470 C   0  0  0  0  0  0  0  0  0  0  0  0
   23.5150   30.1190   13.1990 C   0  0  0  0  0  0  0  0  0  0  0  0
   21.5980   28.3880   14.1600 C   0  0  0  0  0  0  0  0  0  0  0  0
   22.4040   29.8110   12.4380 C   0  0  0  0  0  0  0  0  0  0  0  0
   21.4400   28.9510   12.9020 C   0  0  0  0  0  0  0  0  0  0  0  0
   20.0630   28.6030   11.8930 Cl  0  0  0  0  0  0  0  0  0  0  0  0
   29.8670   25.5550   16.9770 C   0  0  0  0  0  0  0  0  0  0  0  0
   28.3450   25.7220   17.0260 C   0  0  0  0  0  0  0  0  0  0  0  0
   27.6020   24.4000   16.9150 C   0  0  0  0  0  0  0  0  0  0  0  0
   26.1900   24.4990   17.4230 C   0  0  0  0  0  0  0  0  0  0  0  0
   25.9070   23.3370   18.3690 C   0  0  0  0  0  0  0  0  0  0  0  0
   25.4090   23.8370   19.6720 N   0  0  0  0  0  0  0  0  0  0  0  0
  1 27  1  0  0  0  0
  2  1  1  1  0  0  0
  3  2  1  0  0  0  0
  3 23  1  1  0  0  0
  4  3  1  1  0  0  0
  5 12  1  6  0  0  0
  5  7  1  0  0  0  0
  5 10  1  0  0  0  0
  6  5  1  0  0  0  0
  7  4  1  0  0  0  0
  8 16  1  1  0  0  0
  8  6  1  0  0  0  0
  8  9  1  0  0  0  0
  9 18  1  6  0  0  0
  9  4  1  0  0  0  0
 11 10  1  0  0  0  0
 12 14  1  0  0  0  0
 13 12  2  0  0  0  0
 14 15  1  0  0  0  0
 17 16  1  0  0  0  0
 18 19  1  0  0  0  0
 19 22  2  0  0  0  0
 20 18  1  0  0  0  0
 21 19  1  0  0  0  0
 23 24  1  0  0  0  0
 25 26  1  0  0  0  0
 25  2  1  0  0  0  0
 27 28  1  0  0  0  0
 28 31  1  0  0  0  0
 28 30  2  0  0  0  0
 29 27  1  0  0  0  0
 32 31  1  0  0  0  0
 33 32  1  0  0  0  0
 34 33  2  0  0  0  0
 35 33  1  0  0  0  0
 36 34  1  0  0  0  0
 37 36  1  0  0  0  0
 37 35  2  0  0  0  0
 38 39  1  0  0  0  0
 38 36  1  0  0  0  0
 40 38  2  0  0  0  0
 41 39  2  0  0  0  0
 42 43  2  0  0  0  0
 42 40  1  0  0  0  0
 43 41  1  0  0  0  0
 44 43  1  0  0  0  0
 45 46  1  0  0  0  0
 47 46  1  0  0  0  0
 47 48  1  0  0  0  0
 48 49  1  0  0  0  0
 49 50  1  0  0  0  0
M  END
>  <REMARK>
 VINA RESULT:    -4.440      5.460      8.777
 INTER + INTRA:         -14.692
 INTER:                  -8.884
 INTRA:                  -5.809
 UNBOUND:                -7.007
 SMILES CC(=O)N[C@@H]1[C@@H](O)C[C@](O)(C(=O)O)O[C@H]1C(O)[C@H](O)CNC(=O)OCc1cn(-c2ccc(Cl)cc2)nn1
 SMILES IDX 20 1 18 2 16 3 15 4 9 5 8 6 14 7 6 8 5 9 10 10 11 12 12 13
 SMILES IDX 13 14 7 16 4 18 2 19 1 21 3 22 17 23 19 25 21 27 22 28 23 30
 SMILES IDX 24 31 25 32 26 33 27 34 37 35 28 36 36 37 29 38 30 39 35 40
 SMILES IDX 31 41 34 42 32 43 33 44
 H PARENT 10 11 13 15 7 17 4 20 17 24 19 26 21 29
 Flexibility Score: inf
  4 active torsions:
  status: ('A' for Active; 'I' for Inactive)
    1  A    between atoms: CA   and  CB  
    2  A    between atoms: CB   and  CG  
    3  A    between atoms: CG   and  CD  
    4  A    between atoms: CD   and  CE  

>  <TORSDO>
F 15

>  <BEGIN_>
RES LYS A 131

$$$$
ligand_2_pose_4_2HRL.pdbqt
 OpenBabel07062320523D

  6  5  0  0  0  0  0  0  0  0999 V2000
   33.1930   34.6630    9.2900 C   0  0  0  0  0  0  0  0  0  0  0  0
   32.0600   35.3600   10.0340 C   0  0  0  0  0  0  0  0  0  0  0  0
   30.8050   35.5120    9.2140 C   0  0  0  0  0  0  0  0  0  0  0  0
   30.1060   34.1710    9.0480 C   0  0  0  0  0  0  0  0  0  0  0  0
   28.6490   34.3720    8.6810 C   0  0  0  0  0  0  0  0  0  0  0  0
   27.7530   33.6570    9.6320 N   0  0  0  0  0  0  0  0  0  0  0  0
  1  2  1  0  0  0  0
  3  2  1  0  0  0  0
  4  3  1  0  0  0  0
  5  4  1  0  0  0  0
  5  6  1  0  0  0  0
M  END
>  <EGIN_R>
ES LYS A 135

>  <REMARK>
  4 active torsions:
  status: ('A' for Active; 'I' for Inactive)
    5  A    between atoms: CA   and  CB  
    6  A    between atoms: CB   and  CG  
    7  A    between atoms: CG   and  CD  
    8  A    between atoms: CD   and  CE  

$$$$
