ligand_1_pose_17_2HRL.pdbqt
 OpenBabel07062320523D

 47 47  0  0  1  0  0  0  0  0999 V2000
   26.4670   31.6850   15.5200 N   0  0  0  0  0  0  0  0  0  0  0  0
   26.1700   32.8980   16.1510 C   0  0  0  0  0  0  0  0  0  0  0  0
   25.6920   32.9050   17.2820 O   0  0  0  0  0  0  0  0  0  0  0  0
   26.8790   31.7860   14.5330 H   0  0  0  0  0  0  0  0  0  0  0  0
   26.3060   30.3610   15.9850 C   0  0  0  0  0  0  0  0  0  0  0  0
   27.3600   29.8080   16.8920 C   0  0  2  0  0  0  0  0  0  0  0  0
   28.5300   30.7320   17.0390 C   0  0  1  0  0  0  0  0  0  0  0  0
   29.2780   30.7430   18.3040 C   0  0  2  0  0  0  0  0  0  0  0  0
   29.5910   29.7530   20.3620 C   0  0  2  0  0  0  0  0  0  0  0  0
   30.9330   30.4460   20.2530 C   0  0  0  0  0  0  0  0  0  0  0  0
   28.8640   29.7630   19.1720 O   0  0  0  0  0  0  0  0  0  0  0  0
   30.7450   31.9030   19.8520 C   0  0  1  0  0  0  0  0  0  0  0  0
   29.4460   32.0330   19.0310 C   0  0  1  0  0  0  0  0  0  0  0  0
   28.7940   30.3770   21.3170 O   0  0  0  0  0  0  0  0  0  0  0  0
   29.2390   30.4570   22.1920 H   0  0  0  0  0  0  0  0  0  0  0  0
   29.7540   28.3290   20.7330 C   0  0  0  0  0  0  0  0  0  0  0  0
   30.3370   27.9590   21.7840 O   0  0  0  0  0  0  0  0  0  0  0  0
   29.2480   27.3530   19.8940 O   0  0  0  0  0  0  0  0  0  0  0  0
   29.8900   26.8040   19.3030 H   0  0  0  0  0  0  0  0  0  0  0  0
   30.6790   32.6840   20.9970 O   0  0  0  0  0  0  0  0  0  0  0  0
   29.7880   33.1210   20.9980 H   0  0  0  0  0  0  0  0  0  0  0  0
   29.5610   33.1950   18.1730 N   0  0  0  0  0  0  0  0  0  0  0  0
   28.9850   34.4170   18.6030 C   0  0  0  0  0  0  0  0  0  0  0  0
   30.0570   33.1560   17.2490 H   0  0  0  0  0  0  0  0  0  0  0  0
   29.0510   35.6610   17.7890 C   0  0  0  0  0  0  0  0  0  0  0  0
   28.3940   34.4650   19.7060 O   0  0  0  0  0  0  0  0  0  0  0  0
   29.4040   30.3300   15.9610 O   0  0  0  0  0  0  0  0  0  0  0  0
   29.0040   30.6180   15.1220 H   0  0  0  0  0  0  0  0  0  0  0  0
   27.7020   28.5400   16.5590 O   0  0  0  0  0  0  0  0  0  0  0  0
   28.6580   28.3340   16.5610 H   0  0  0  0  0  0  0  0  0  0  0  0
   26.4040   34.1220   15.5260 O   0  0  0  0  0  0  0  0  0  0  0  0
   27.0380   34.2060   14.2670 C   0  0  0  0  0  0  0  0  0  0  0  0
   28.5060   34.2870   14.4570 C   0  0  0  0  0  0  0  0  0  0  0  0
   29.3240   35.3570   14.1910 C   0  0  0  0  0  0  0  0  0  0  0  0
   29.2840   33.3210   14.9240 N   0  0  0  0  0  0  0  0  0  0  0  0
   30.5670   34.9640   14.5200 N   0  0  0  0  0  0  0  0  0  0  0  0
   30.5520   33.7200   14.9680 N   0  0  0  0  0  0  0  0  0  0  0  0
   31.7450   35.7990   14.3930 C   0  0  0  0  0  0  0  0  0  0  0  0
   32.1960   35.7850   12.9350 C   0  0  0  0  0  0  0  0  0  0  0  0
   31.8970   34.5210   12.3860 O   0  0  0  0  0  0  0  0  0  0  0  0
   32.1060   34.5220   11.4030 H   0  0  0  0  0  0  0  0  0  0  0  0
   29.8670   25.5550   16.9770 C   0  0  0  0  0  0  0  0  0  0  0  0
   28.3450   25.7220   17.0260 C   0  0  0  0  0  0  0  0  0  0  0  0
   27.6010   24.4010   16.8980 C   0  0  0  0  0  0  0  0  0  0  0  0
   26.5280   24.2530   17.9400 C   0  0  0  0  0  0  0  0  0  0  0  0
   25.4640   25.3260   17.7320 C   0  0  0  0  0  0  0  0  0  0  0  0
   24.3450   24.7960   16.9170 N   0  0  0  0  0  0  0  0  0  0  0  0
  1  5  1  0  0  0  0
  1  2  1  0  0  0  0
  2  3  2  0  0  0  0
  4  1  1  0  0  0  0
  6  5  1  6  0  0  0
  6  7  1  0  0  0  0
  7 27  1  6  0  0  0
  8  7  1  6  0  0  0
  8 13  1  0  0  0  0
  8 11  1  0  0  0  0
  9 16  1  1  0  0  0
  9 14  1  0  0  0  0
 10  9  1  0  0  0  0
 11  9  1  0  0  0  0
 12 10  1  0  0  0  0
 12 20  1  1  0  0  0
 13 22  1  6  0  0  0
 13 12  1  0  0  0  0
 14 15  1  0  0  0  0
 16 17  2  0  0  0  0
 18 16  1  0  0  0  0
 19 18  1  0  0  0  0
 20 21  1  0  0  0  0
 22 23  1  0  0  0  0
 23 26  2  0  0  0  0
 24 22  1  0  0  0  0
 25 23  1  0  0  0  0
 28 27  1  0  0  0  0
 29 30  1  0  0  0  0
 29  6  1  0  0  0  0
 31  2  1  0  0  0  0
 32 33  1  0  0  0  0
 32 31  1  0  0  0  0
 33 35  1  0  0  0  0
 34 33  2  0  0  0  0
 34 36  1  0  0  0  0
 35 37  2  0  0  0  0
 36 37  1  0  0  0  0
 38 36  1  0  0  0  0
 39 38  1  0  0  0  0
 40 39  1  0  0  0  0
 41 40  1  0  0  0  0
 42 43  1  0  0  0  0
 44 43  1  0  0  0  0
 44 45  1  0  0  0  0
 46 45  1  0  0  0  0
 47 46  1  0  0  0  0
M  END
>  <REMARK>
 VINA RESULT:    -3.094      7.048     11.210
 INTER + INTRA:         -13.197
 INTER:                  -7.216
 INTRA:                  -5.982
 UNBOUND:                -7.572
 SMILES CC(=O)N[C@@H]1[C@@H](O)C[C@](O)(C(=O)O)O[C@H]1C(O)[C@H](O)CNC(=O)OCc1cn(CCO)nn1
 SMILES IDX 21 1 22 2 23 3 20 5 18 6 16 7 15 8 9 9 8 10 14 11 6 12 5 13
 SMILES IDX 10 14 11 16 12 17 13 18 7 20 4 22 2 23 1 25 3 26 17 27 19 29
 SMILES IDX 24 31 25 32 26 33 27 34 33 35 28 36 32 37 29 38 30 39 31 40
 H PARENT 21 4 10 15 13 19 7 21 4 24 17 28 19 30 31 41
 Flexibility Score: inf
  4 active torsions:
  status: ('A' for Active; 'I' for Inactive)
    1  A    between atoms: CA   and  CB  
    2  A    between atoms: CB   and  CG  
    3  A    between atoms: CG   and  CD  
    4  A    between atoms: CD   and  CE  

>  <TORSDO>
F 17

>  <BEGIN_>
RES LYS A 131

$$$$
ligand_1_pose_17_2HRL.pdbqt
 OpenBabel07062320523D

  6  5  0  0  0  0  0  0  0  0999 V2000
   33.1930   34.6630    9.2900 C   0  0  0  0  0  0  0  0  0  0  0  0
   32.0600   35.3600   10.0340 C   0  0  0  0  0  0  0  0  0  0  0  0
   30.7900   35.4720    9.2300 C   0  0  0  0  0  0  0  0  0  0  0  0
   30.1990   34.0960    8.9660 C   0  0  0  0  0  0  0  0  0  0  0  0
   28.7260   34.0710    9.3280 C   0  0  0  0  0  0  0  0  0  0  0  0
   28.5180   34.4450   10.7540 N   0  0  0  0  0  0  0  0  0  0  0  0
  1  2  1  0  0  0  0
  3  2  1  0  0  0  0
  4  3  1  0  0  0  0
  4  5  1  0  0  0  0
  5  6  1  0  0  0  0
M  END
>  <EGIN_R>
ES LYS A 135

>  <REMARK>
  4 active torsions:
  status: ('A' for Active; 'I' for Inactive)
    5  A    between atoms: CA   and  CB  
    6  A    between atoms: CB   and  CG  
    7  A    between atoms: CG   and  CD  
    8  A    between atoms: CD   and  CE  

$$$$
