ligand_44_pose_9_2HRL.pdbqt
 OpenBabel07062320523D

 51 52  0  0  1  0  0  0  0  0999 V2000
   27.2000   41.5070    6.4820 N   0  0  0  0  0  0  0  0  0  0  0  0
   26.1920   40.7500    5.8360 C   0  0  0  0  0  0  0  0  0  0  0  0
   24.9900   40.7100    6.1590 O   0  0  0  0  0  0  0  0  0  0  0  0
   28.2030   41.4690    6.1140 H   0  0  0  0  0  0  0  0  0  0  0  0
   26.8770   42.3140    7.6160 C   0  0  0  0  0  0  0  0  0  0  0  0
   26.8330   41.5780    8.9300 C   0  0  2  0  0  0  0  0  0  0  0  0
   27.9190   40.5760    9.0870 C   0  0  1  0  0  0  0  0  0  0  0  0
   28.9190   40.7700   10.1560 C   0  0  2  0  0  0  0  0  0  0  0  0
   30.8480   39.5840    9.7110 C   0  0  2  0  0  0  0  0  0  0  0  0
   31.3910   39.7010   11.1170 C   0  0  0  0  0  0  0  0  0  0  0  0
   30.1600   40.7680    9.4970 O   0  0  0  0  0  0  0  0  0  0  0  0
   30.2130   39.7120   12.0290 C   0  0  1  0  0  0  0  0  0  0  0  0
   28.8730   39.9340   11.3550 C   0  0  1  0  0  0  0  0  0  0  0  0
   30.0730   38.4470    9.6560 O   0  0  0  0  0  0  0  0  0  0  0  0
   29.4590   38.3320   10.4050 H   0  0  0  0  0  0  0  0  0  0  0  0
   32.0050   39.5340    8.7870 C   0  0  0  0  0  0  0  0  0  0  0  0
   33.0250   40.2440    8.9280 O   0  0  0  0  0  0  0  0  0  0  0  0
   31.9240   38.6470    7.7180 O   0  0  0  0  0  0  0  0  0  0  0  0
   31.4750   37.7470    7.7810 H   0  0  0  0  0  0  0  0  0  0  0  0
   30.1470   38.4330   12.6290 O   0  0  0  0  0  0  0  0  0  0  0  0
   29.2580   38.2440   12.9880 H   0  0  0  0  0  0  0  0  0  0  0  0
   28.0900   40.5770   12.4350 N   0  0  0  0  0  0  0  0  0  0  0  0
   26.7170   40.3720   12.6140 C   0  0  0  0  0  0  0  0  0  0  0  0
   28.6540   41.2050   13.0570 H   0  0  0  0  0  0  0  0  0  0  0  0
   26.0170   41.0750   13.7300 C   0  0  0  0  0  0  0  0  0  0  0  0
   26.0850   39.6170   11.8610 O   0  0  0  0  0  0  0  0  0  0  0  0
   27.3900   39.3000    8.9540 O   0  0  0  0  0  0  0  0  0  0  0  0
   26.4240   39.3650    8.7080 H   0  0  0  0  0  0  0  0  0  0  0  0
   25.5780   41.1270    9.3000 O   0  0  0  0  0  0  0  0  0  0  0  0
   25.5950   40.3020    9.8250 H   0  0  0  0  0  0  0  0  0  0  0  0
   26.5590   39.9750    4.7370 O   0  0  0  0  0  0  0  0  0  0  0  0
   27.8990   39.6070    4.5130 C   0  0  0  0  0  0  0  0  0  0  0  0
   28.3250   38.5110    5.4020 C   0  0  0  0  0  0  0  0  0  0  0  0
   28.1180   37.1540    5.3220 C   0  0  0  0  0  0  0  0  0  0  0  0
   29.0440   38.7370    6.5250 N   0  0  0  0  0  0  0  0  0  0  0  0
   28.7190   36.5980    6.3990 N   0  0  0  0  0  0  0  0  0  0  0  0
   29.2610   37.5800    7.0930 N   0  0  0  0  0  0  0  0  0  0  0  0
   28.7390   35.1800    6.6970 C   0  0  0  0  0  0  0  0  0  0  0  0
   27.9860   34.9820    7.9790 C   0  0  0  0  0  0  0  0  0  0  0  0
   26.6850   35.4520    8.0780 C   0  0  0  0  0  0  0  0  0  0  0  0
   28.5930   34.3360    9.0340 C   0  0  0  0  0  0  0  0  0  0  0  0
   26.0160   35.2600    9.2590 C   0  0  0  0  0  0  0  0  0  0  0  0
   27.9140   34.1400   10.2360 C   0  0  0  0  0  0  0  0  0  0  0  0
   26.6280   34.6150   10.3090 C   0  0  0  0  0  0  0  0  0  0  0  0
   25.6700   34.3600   11.9430 Br  0  0  0  0  0  0  0  0  0  0  0  0
   29.8670   25.5550   16.9770 C   0  0  0  0  0  0  0  0  0  0  0  0
   28.3450   25.7220   17.0260 C   0  0  0  0  0  0  0  0  0  0  0  0
   27.6010   24.4010   16.9040 C   0  0  0  0  0  0  0  0  0  0  0  0
   26.1550   24.5260   17.2960 C   0  0  0  0  0  0  0  0  0  0  0  0
   25.8760   23.6360   18.5030 C   0  0  0  0  0  0  0  0  0  0  0  0
   24.9670   22.5270   18.1310 N   0  0  0  0  0  0  0  0  0  0  0  0
  1  5  1  0  0  0  0
  2  3  2  0  0  0  0
  2  1  1  0  0  0  0
  4  1  1  0  0  0  0
  6  5  1  6  0  0  0
  6  7  1  0  0  0  0
  6 29  1  0  0  0  0
  7 27  1  1  0  0  0
  8  7  1  6  0  0  0
  8 13  1  0  0  0  0
  9 16  1  6  0  0  0
  9 10  1  0  0  0  0
 10 12  1  0  0  0  0
 11  9  1  0  0  0  0
 11  8  1  0  0  0  0
 12 20  1  6  0  0  0
 13 12  1  0  0  0  0
 13 22  1  1  0  0  0
 14  9  1  0  0  0  0
 14 15  1  0  0  0  0
 16 17  2  0  0  0  0
 18 19  1  0  0  0  0
 18 16  1  0  0  0  0
 20 21  1  0  0  0  0
 22 23  1  0  0  0  0
 22 24  1  0  0  0  0
 23 25  1  0  0  0  0
 26 23  2  0  0  0  0
 28 27  1  0  0  0  0
 29 30  1  0  0  0  0
 31  2  1  0  0  0  0
 32 31  1  0  0  0  0
 32 33  1  0  0  0  0
 33 35  1  0  0  0  0
 34 33  2  0  0  0  0
 34 36  1  0  0  0  0
 35 37  2  0  0  0  0
 36 38  1  0  0  0  0
 36 37  1  0  0  0  0
 38 39  1  0  0  0  0
 39 40  2  0  0  0  0
 39 41  1  0  0  0  0
 40 42  1  0  0  0  0
 41 43  2  0  0  0  0
 42 44  2  0  0  0  0
 43 44  1  0  0  0  0
 44 45  1  0  0  0  0
 46 47  1  0  0  0  0
 48 47  1  0  0  0  0
 48 49  1  0  0  0  0
 49 50  1  0  0  0  0
 51 50  1  0  0  0  0
M  END
>  <REMARK>
 VINA RESULT:    -4.648      5.255      9.519
 INTER + INTRA:         -14.714
 INTER:                  -8.005
 INTRA:                  -6.709
 UNBOUND:                -6.398
 SMILES CC(=O)N[C@@H]1[C@@H](O)C[C@](O)(C(=O)O)O[C@H]1C(O)[C@H](O)CNC(=O)OCc1cn(Cc2ccc(Br)cc2)nn1
 SMILES IDX 21 1 22 2 23 3 20 5 18 6 16 7 15 8 9 9 8 10 14 11 6 12 5 13
 SMILES IDX 10 14 11 16 12 17 13 18 7 20 4 22 2 23 1 25 3 26 17 27 19 29
 SMILES IDX 24 31 25 32 26 33 27 34 38 35 28 36 37 37 29 38 30 39 31 40
 SMILES IDX 36 41 32 42 35 43 33 44 34 45
 H PARENT 21 4 10 15 13 19 7 21 4 24 17 28 19 30
 Flexibility Score: inf
  4 active torsions:
  status: ('A' for Active; 'I' for Inactive)
    1  A    between atoms: CA   and  CB  
    2  A    between atoms: CB   and  CG  
    3  A    between atoms: CG   and  CD  
    4  A    between atoms: CD   and  CE  

>  <TORSDO>
F 16

>  <BEGIN_>
RES LYS A 131

$$$$
ligand_44_pose_9_2HRL.pdbqt
 OpenBabel07062320523D

  6  5  0  0  0  0  0  0  0  0999 V2000
   33.1930   34.6630    9.2900 C   0  0  0  0  0  0  0  0  0  0  0  0
   32.0600   35.3600   10.0340 C   0  0  0  0  0  0  0  0  0  0  0  0
   32.5300   36.2220   11.1770 C   0  0  0  0  0  0  0  0  0  0  0  0
   32.0970   35.6300   12.5090 C   0  0  0  0  0  0  0  0  0  0  0  0
   30.8010   34.8580   12.3530 C   0  0  0  0  0  0  0  0  0  0  0  0
   30.4520   34.1360   13.6080 N   0  0  0  0  0  0  0  0  0  0  0  0
  1  2  1  0  0  0  0
  2  3  1  0  0  0  0
  3  4  1  0  0  0  0
  5  4  1  0  0  0  0
  5  6  1  0  0  0  0
M  END
>  <EGIN_R>
ES LYS A 135

>  <REMARK>
  4 active torsions:
  status: ('A' for Active; 'I' for Inactive)
    5  A    between atoms: CA   and  CB  
    6  A    between atoms: CB   and  CG  
    7  A    between atoms: CG   and  CD  
    8  A    between atoms: CD   and  CE  

$$$$
