ligand_8_pose_8_2HRL.pdbqt
 OpenBabel07062320523D

 50 51  0  0  1  0  0  0  0  0999 V2000
   26.7490   36.4930   16.3500 C   0  0  0  0  0  0  0  0  0  0  0  0
   27.7860   35.5660   16.9290 C   0  0  2  0  0  0  0  0  0  0  0  0
   28.6680   35.1020   15.8120 C   0  0  1  0  0  0  0  0  0  0  0  0
   30.1440   35.0380   16.1250 C   0  0  2  0  0  0  0  0  0  0  0  0
   31.3580   35.1020   14.1210 C   0  0  2  0  0  0  0  0  0  0  0  0
   32.5220   34.3500   14.7670 C   0  0  0  0  0  0  0  0  0  0  0  0
   30.7620   35.7820   15.1280 O   0  0  0  0  0  0  0  0  0  0  0  0
   31.8880   33.2660   15.5920 C   0  0  1  0  0  0  0  0  0  0  0  0
   30.6910   33.7040   16.3930 C   0  0  1  0  0  0  0  0  0  0  0  0
   30.6010   34.1710   13.4560 O   0  0  0  0  0  0  0  0  0  0  0  0
   31.1850   33.3990   13.2510 H   0  0  0  0  0  0  0  0  0  0  0  0
   31.9000   36.0660   13.1230 C   0  0  0  0  0  0  0  0  0  0  0  0
   32.7810   35.6770   12.3170 O   0  0  0  0  0  0  0  0  0  0  0  0
   31.4540   37.3820   13.0660 O   0  0  0  0  0  0  0  0  0  0  0  0
   32.0500   38.1800   13.2690 H   0  0  0  0  0  0  0  0  0  0  0  0
   31.5110   32.2610   14.7000 O   0  0  0  0  0  0  0  0  0  0  0  0
   31.7900   31.3820   15.0100 H   0  0  0  0  0  0  0  0  0  0  0  0
   31.0460   33.6290   17.8260 N   0  0  0  0  0  0  0  0  0  0  0  0
   30.2160   32.9650   18.7560 C   0  0  0  0  0  0  0  0  0  0  0  0
   31.9400   34.0770   18.1780 H   0  0  0  0  0  0  0  0  0  0  0  0
   30.5660   32.8940   20.2160 C   0  0  0  0  0  0  0  0  0  0  0  0
   29.1610   32.4290   18.3320 O   0  0  0  0  0  0  0  0  0  0  0  0
   28.1480   33.9830   15.2140 O   0  0  0  0  0  0  0  0  0  0  0  0
   28.6320   33.1420   15.4760 H   0  0  0  0  0  0  0  0  0  0  0  0
   27.1790   34.5040   17.5490 O   0  0  0  0  0  0  0  0  0  0  0  0
   26.2320   34.6920   17.7990 H   0  0  0  0  0  0  0  0  0  0  0  0
   26.1400   36.0920   15.1270 N   0  0  0  0  0  0  0  0  0  0  0  0
   25.0230   35.2330   15.0390 C   0  0  0  0  0  0  0  0  0  0  0  0
   26.5280   36.4460   14.1910 H   0  0  0  0  0  0  0  0  0  0  0  0
   24.4620   34.7250   16.0370 O   0  0  0  0  0  0  0  0  0  0  0  0
   24.5120   34.9300   13.7680 O   0  0  0  0  0  0  0  0  0  0  0  0
   25.1280   33.8820   13.0550 C   0  0  0  0  0  0  0  0  0  0  0  0
   26.1550   34.4760   12.1650 C   0  0  0  0  0  0  0  0  0  0  0  0
   25.9320   34.8390   10.8300 C   0  0  0  0  0  0  0  0  0  0  0  0
   27.4390   34.7890   12.3720 N   0  0  0  0  0  0  0  0  0  0  0  0
   27.0590   35.3420   10.2980 N   0  0  0  0  0  0  0  0  0  0  0  0
   27.9620   35.3000   11.2620 N   0  0  0  0  0  0  0  0  0  0  0  0
   27.2230   35.8200    8.9630 C   0  0  0  0  0  0  0  0  0  0  0  0
   27.6450   34.9940    7.9450 C   0  0  0  0  0  0  0  0  0  0  0  0
   26.9610   37.1340    8.6400 C   0  0  0  0  0  0  0  0  0  0  0  0
   27.7990   35.4770    6.6440 C   0  0  0  0  0  0  0  0  0  0  0  0
   27.1140   37.6180    7.3500 C   0  0  0  0  0  0  0  0  0  0  0  0
   26.3730   38.2940   10.0520 Br  0  0  0  0  0  0  0  0  0  0  0  0
   27.5360   36.7940    6.3290 C   0  0  0  0  0  0  0  0  0  0  0  0
   29.8670   25.5550   16.9770 C   0  0  0  0  0  0  0  0  0  0  0  0
   28.3450   25.7220   17.0260 C   0  0  0  0  0  0  0  0  0  0  0  0
   27.6010   24.4030   16.8830 C   0  0  0  0  0  0  0  0  0  0  0  0
   26.5890   24.2030   17.9770 C   0  0  0  0  0  0  0  0  0  0  0  0
   25.6730   23.0380   17.6150 C   0  0  0  0  0  0  0  0  0  0  0  0
   24.4230   23.5350   16.9930 N   0  0  0  0  0  0  0  0  0  0  0  0
  2  1  1  6  0  0  0
  2 25  1  0  0  0  0
  3 23  1  1  0  0  0
  3  2  1  0  0  0  0
  4  3  1  6  0  0  0
  4  9  1  0  0  0  0
  5 12  1  6  0  0  0
  5  6  1  0  0  0  0
  5  7  1  0  0  0  0
  6  8  1  0  0  0  0
  7  4  1  0  0  0  0
  8 16  1  6  0  0  0
  8  9  1  0  0  0  0
  9 18  1  1  0  0  0
 10  5  1  0  0  0  0
 11 10  1  0  0  0  0
 13 12  2  0  0  0  0
 14 12  1  0  0  0  0
 14 15  1  0  0  0  0
 16 17  1  0  0  0  0
 18 20  1  0  0  0  0
 18 19  1  0  0  0  0
 19 21  1  0  0  0  0
 22 19  2  0  0  0  0
 23 24  1  0  0  0  0
 25 26  1  0  0  0  0
 27  1  1  0  0  0  0
 28 27  1  0  0  0  0
 28 30  2  0  0  0  0
 29 27  1  0  0  0  0
 31 28  1  0  0  0  0
 32 31  1  0  0  0  0
 33 35  1  0  0  0  0
 33 32  1  0  0  0  0
 34 33  2  0  0  0  0
 36 34  1  0  0  0  0
 36 37  1  0  0  0  0
 37 35  2  0  0  0  0
 38 36  1  0  0  0  0
 39 38  2  0  0  0  0
 40 38  1  0  0  0  0
 40 43  1  0  0  0  0
 41 39  1  0  0  0  0
 42 40  2  0  0  0  0
 44 41  2  0  0  0  0
 44 42  1  0  0  0  0
 45 46  1  0  0  0  0
 47 46  1  0  0  0  0
 47 48  1  0  0  0  0
 49 48  1  0  0  0  0
 50 49  1  0  0  0  0
M  END
>  <REMARK>
 VINA RESULT:    -5.655      3.920      6.995
 INTER + INTRA:         -14.182
 INTER:                  -8.860
 INTRA:                  -5.323
 UNBOUND:                -4.396
 SMILES CC(=O)N[C@@H]1[C@@H](O)C[C@](O)(C(=O)O)O[C@H]1C(O)[C@H](O)CNC(=O)OCc1cn(-c2ccccc2Br)nn1
 SMILES IDX 20 1 18 2 16 3 15 4 9 5 8 6 14 7 6 8 5 9 10 10 11 12 12 13
 SMILES IDX 13 14 7 16 4 18 2 19 1 21 3 22 17 23 19 25 21 27 22 28 23 30
 SMILES IDX 24 31 25 32 26 33 27 34 37 35 28 36 36 37 29 38 30 39 34 40
 SMILES IDX 31 41 33 42 35 43 32 44
 H PARENT 10 11 13 15 7 17 4 20 17 24 19 26 21 29
 Flexibility Score: inf
  4 active torsions:
  status: ('A' for Active; 'I' for Inactive)
    1  A    between atoms: CA   and  CB  
    2  A    between atoms: CB   and  CG  
    3  A    between atoms: CG   and  CD  
    4  A    between atoms: CD   and  CE  

>  <TORSDO>
F 15

>  <BEGIN_>
RES LYS A 131

$$$$
ligand_8_pose_8_2HRL.pdbqt
 OpenBabel07062320523D

  6  5  0  0  0  0  0  0  0  0999 V2000
   33.1930   34.6630    9.2900 C   0  0  0  0  0  0  0  0  0  0  0  0
   32.0600   35.3600   10.0340 C   0  0  0  0  0  0  0  0  0  0  0  0
   30.9540   35.8430    9.1320 C   0  0  0  0  0  0  0  0  0  0  0  0
   30.4500   37.2060    9.5820 C   0  0  0  0  0  0  0  0  0  0  0  0
   30.9590   38.2950    8.6580 C   0  0  0  0  0  0  0  0  0  0  0  0
   32.0190   39.1070    9.3170 N   0  0  0  0  0  0  0  0  0  0  0  0
  1  2  1  0  0  0  0
  3  4  1  0  0  0  0
  3  2  1  0  0  0  0
  5  6  1  0  0  0  0
  5  4  1  0  0  0  0
M  END
>  <EGIN_R>
ES LYS A 135

>  <REMARK>
  4 active torsions:
  status: ('A' for Active; 'I' for Inactive)
    5  A    between atoms: CA   and  CB  
    6  A    between atoms: CB   and  CG  
    7  A    between atoms: CG   and  CD  
    8  A    between atoms: CD   and  CE  

$$$$
