ligand_54_pose_1_2HRL.pdbqt
 OpenBabel07062320523D

 52 52  0  0  1  0  0  0  0  0999 V2000
   23.9010   34.8200   11.3900 O   0  0  0  0  0  0  0  0  0  0  0  0
   22.7390   35.4600   10.9330 C   0  0  0  0  0  0  0  0  0  0  0  0
   21.8660   34.8440   10.0120 N   0  0  0  0  0  0  0  0  0  0  0  0
   22.1500   33.8590    9.7050 H   0  0  0  0  0  0  0  0  0  0  0  0
   22.5030   36.5900   11.3640 O   0  0  0  0  0  0  0  0  0  0  0  0
   20.6650   35.3810    9.4560 C   0  0  0  0  0  0  0  0  0  0  0  0
   20.8740   35.8510    8.0440 C   0  0  2  0  0  0  0  0  0  0  0  0
   21.0350   37.3670    8.1260 C   0  0  2  0  0  0  0  0  0  0  0  0
   22.4000   37.8080    7.6990 C   0  0  2  0  0  0  0  0  0  0  0  0
   24.6030   37.6310    8.4020 C   0  0  2  0  0  0  0  0  0  0  0  0
   24.9260   38.7900    7.5170 C   0  0  0  0  0  0  0  0  0  0  0  0
   23.4110   36.9880    8.1070 O   0  0  0  0  0  0  0  0  0  0  0  0
   23.7890   39.7420    7.2820 C   0  0  1  0  0  0  0  0  0  0  0  0
   22.6160   39.2610    8.1070 C   0  0  1  0  0  0  0  0  0  0  0  0
   24.6720   38.0060    9.7460 O   0  0  0  0  0  0  0  0  0  0  0  0
   23.7530   38.3150   10.0040 H   0  0  0  0  0  0  0  0  0  0  0  0
   25.6750   36.6180    8.1790 C   0  0  0  0  0  0  0  0  0  0  0  0
   26.5970   36.8230    7.3620 O   0  0  0  0  0  0  0  0  0  0  0  0
   25.6310   35.4160    8.9110 O   0  0  0  0  0  0  0  0  0  0  0  0
   26.1100   35.4340    9.8090 H   0  0  0  0  0  0  0  0  0  0  0  0
   24.1170   41.0670    7.5410 O   0  0  0  0  0  0  0  0  0  0  0  0
   24.1520   41.1580    8.5280 H   0  0  0  0  0  0  0  0  0  0  0  0
   21.4000   39.9860    7.8020 N   0  0  0  0  0  0  0  0  0  0  0  0
   21.0270   41.0920    8.6110 C   0  0  0  0  0  0  0  0  0  0  0  0
   20.7690   39.7480    7.0180 H   0  0  0  0  0  0  0  0  0  0  0  0
   19.8060   41.8880    8.3740 C   0  0  0  0  0  0  0  0  0  0  0  0
   21.7750   41.4100    9.5770 O   0  0  0  0  0  0  0  0  0  0  0  0
   20.7270   37.7720    9.4140 O   0  0  0  0  0  0  0  0  0  0  0  0
   19.9650   37.2660    9.8070 H   0  0  0  0  0  0  0  0  0  0  0  0
   19.7640   35.6080    7.2770 O   0  0  0  0  0  0  0  0  0  0  0  0
   19.4230   36.4170    6.8160 H   0  0  0  0  0  0  0  0  0  0  0  0
   24.5260   35.2440   12.5980 C   0  0  0  0  0  0  0  0  0  0  0  0
   25.9170   35.6420   12.3140 C   0  0  0  0  0  0  0  0  0  0  0  0
   27.0090   34.8970   12.7660 C   0  0  0  0  0  0  0  0  0  0  0  0
   26.4440   36.6620   11.6510 N   0  0  0  0  0  0  0  0  0  0  0  0
   28.1420   35.5030   12.3540 N   0  0  0  0  0  0  0  0  0  0  0  0
   27.7790   36.5600   11.6860 N   0  0  0  0  0  0  0  0  0  0  0  0
   29.4610   35.0160   12.6420 C   0  0  0  0  0  0  0  0  0  0  0  0
   29.5390   34.2470   13.9400 C   0  0  0  0  0  0  0  0  0  0  0  0
   30.9440   33.9470   14.3600 C   0  0  0  0  0  0  0  0  0  0  0  0
   30.8970   33.1020   15.4640 O   0  0  0  0  0  0  0  0  0  0  0  0
   29.8460   32.1870   15.3280 C   0  0  0  0  0  0  0  0  0  0  0  0
   29.9560   31.0650   16.3270 C   0  0  0  0  0  0  0  0  0  0  0  0
   31.6530   35.0730   14.6910 O   0  0  0  0  0  0  0  0  0  0  0  0
   33.0260   34.8360   14.7530 C   0  0  0  0  0  0  0  0  0  0  0  0
   33.6230   35.7120   15.8490 C   0  0  0  0  0  0  0  0  0  0  0  0
   29.8670   25.5550   16.9770 C   0  0  0  0  0  0  0  0  0  0  0  0
   28.3450   25.7220   17.0260 C   0  0  0  0  0  0  0  0  0  0  0  0
   27.6010   24.4010   16.9030 C   0  0  0  0  0  0  0  0  0  0  0  0
   26.1470   24.5350   17.2590 C   0  0  0  0  0  0  0  0  0  0  0  0
   25.9880   24.5020   18.7750 C   0  0  0  0  0  0  0  0  0  0  0  0
   24.6490   23.9860   19.1460 N   0  0  0  0  0  0  0  0  0  0  0  0
  1 32  1  0  0  0  0
  2  5  2  0  0  0  0
  2  1  1  0  0  0  0
  3  2  1  0  0  0  0
  4  3  1  0  0  0  0
  6  3  1  0  0  0  0
  7  8  1  0  0  0  0
  7  6  1  1  0  0  0
  8 28  1  1  0  0  0
  9 14  1  0  0  0  0
  9 12  1  0  0  0  0
  9  8  1  1  0  0  0
 10 17  1  6  0  0  0
 10 15  1  0  0  0  0
 11 10  1  0  0  0  0
 12 10  1  0  0  0  0
 13 11  1  0  0  0  0
 13 21  1  1  0  0  0
 13 14  1  0  0  0  0
 14 23  1  6  0  0  0
 15 16  1  0  0  0  0
 17 19  1  0  0  0  0
 18 17  2  0  0  0  0
 19 20  1  0  0  0  0
 21 22  1  0  0  0  0
 23 24  1  0  0  0  0
 24 27  2  0  0  0  0
 25 23  1  0  0  0  0
 26 24  1  0  0  0  0
 28 29  1  0  0  0  0
 30  7  1  0  0  0  0
 31 30  1  0  0  0  0
 33 32  1  0  0  0  0
 33 34  2  0  0  0  0
 35 37  2  0  0  0  0
 35 33  1  0  0  0  0
 36 38  1  0  0  0  0
 36 34  1  0  0  0  0
 37 36  1  0  0  0  0
 38 39  1  0  0  0  0
 39 40  1  0  0  0  0
 40 44  1  0  0  0  0
 40 41  1  0  0  0  0
 42 41  1  0  0  0  0
 42 43  1  0  0  0  0
 44 45  1  0  0  0  0
 45 46  1  0  0  0  0
 47 48  1  0  0  0  0
 49 48  1  0  0  0  0
 49 50  1  0  0  0  0
 50 51  1  0  0  0  0
 51 52  1  0  0  0  0
M  END
>  <REMARK>
 VINA RESULT:    -4.493      6.838     12.070
 INTER + INTRA:         -15.290
 INTER:                  -8.397
 INTRA:                  -6.893
 UNBOUND:                -5.938
 SMILES CCOC(CCn1cc(COC(=O)NC[C@@H](O)C(O)[C@@H]2O[C@@](O)(C(=O)O)C[C@H](O)[C@H]2NC(C)=O)nn1)OCC
 SMILES IDX 11 1 12 2 14 3 13 5 15 6 16 7 18 8 20 9 22 10 27 11 21 12
 SMILES IDX 28 13 30 14 23 15 24 17 25 18 26 19 29 21 31 23 32 24 33 26
 SMILES IDX 34 27 19 28 17 30 10 32 9 33 8 34 35 35 7 36 36 37 6 38 5 39
 SMILES IDX 4 40 3 41 2 42 1 43 37 44 38 45 39 46
 H PARENT 14 4 23 16 26 20 29 22 31 25 19 29 17 31
 Flexibility Score: inf
  4 active torsions:
  status: ('A' for Active; 'I' for Inactive)
    1  A    between atoms: CA   and  CB  
    2  A    between atoms: CB   and  CG  
    3  A    between atoms: CG   and  CD  
    4  A    between atoms: CD   and  CE  

>  <TORSDO>
F 21

>  <BEGIN_>
RES LYS A 131

$$$$
ligand_54_pose_1_2HRL.pdbqt
 OpenBabel07062320523D

  6  5  0  0  0  0  0  0  0  0999 V2000
   33.1930   34.6630    9.2900 C   0  0  0  0  0  0  0  0  0  0  0  0
   32.0600   35.3600   10.0340 C   0  0  0  0  0  0  0  0  0  0  0  0
   30.8780   35.6910    9.1590 C   0  0  0  0  0  0  0  0  0  0  0  0
   30.4080   34.4570    8.4040 C   0  0  0  0  0  0  0  0  0  0  0  0
   28.8930   34.4140    8.3450 C   0  0  0  0  0  0  0  0  0  0  0  0
   28.3340   33.6390    9.4870 N   0  0  0  0  0  0  0  0  0  0  0  0
  1  2  1  0  0  0  0
  3  2  1  0  0  0  0
  4  3  1  0  0  0  0
  5  4  1  0  0  0  0
  5  6  1  0  0  0  0
M  END
>  <EGIN_R>
ES LYS A 135

>  <REMARK>
  4 active torsions:
  status: ('A' for Active; 'I' for Inactive)
    5  A    between atoms: CA   and  CB  
    6  A    between atoms: CB   and  CG  
    7  A    between atoms: CG   and  CD  
    8  A    between atoms: CD   and  CE  

$$$$
