ligand_88_pose_11_2HRL.pdbqt
 OpenBabel07062320523D

 54 55  0  0  1  0  0  0  0  0999 V2000
   33.9520   35.8060   16.0220 N   0  0  0  0  0  0  0  0  0  0  0  0
   32.7890   34.9960   15.8870 C   0  0  0  0  0  0  0  0  0  0  0  0
   32.1010   34.7480   16.9040 O   0  0  0  0  0  0  0  0  0  0  0  0
   34.5030   35.9960   15.1660 H   0  0  0  0  0  0  0  0  0  0  0  0
   34.3630   36.3470   17.2890 C   0  0  0  0  0  0  0  0  0  0  0  0
   35.8060   36.7610   17.2570 C   0  0  2  0  0  0  0  0  0  0  0  0
   36.7290   35.5970   16.9730 C   0  0  1  0  0  0  0  0  0  0  0  0
   37.3290   35.7550   15.5630 C   0  0  2  0  0  0  0  0  0  0  0  0
   37.5590   34.0140   13.9970 C   0  0  2  0  0  0  0  0  0  0  0  0
   38.8030   34.7720   13.5100 C   0  0  0  0  0  0  0  0  0  0  0  0
   36.7960   34.7980   14.7960 O   0  0  0  0  0  0  0  0  0  0  0  0
   39.6030   34.9890   14.7850 C   0  0  1  0  0  0  0  0  0  0  0  0
   38.7880   35.9090   15.6470 C   0  0  1  0  0  0  0  0  0  0  0  0
   38.0340   32.8610   14.5890 O   0  0  0  0  0  0  0  0  0  0  0  0
   37.4870   32.0600   14.4000 H   0  0  0  0  0  0  0  0  0  0  0  0
   36.7390   33.6320   12.8190 C   0  0  0  0  0  0  0  0  0  0  0  0
   37.3250   33.3220   11.7520 O   0  0  0  0  0  0  0  0  0  0  0  0
   35.3490   33.6040   12.8570 O   0  0  0  0  0  0  0  0  0  0  0  0
   34.9360   33.4620   13.7900 H   0  0  0  0  0  0  0  0  0  0  0  0
   39.8730   33.7740   15.4120 O   0  0  0  0  0  0  0  0  0  0  0  0
   40.4280   33.2440   14.8040 H   0  0  0  0  0  0  0  0  0  0  0  0
   39.2420   37.2690   15.3590 N   0  0  0  0  0  0  0  0  0  0  0  0
   39.3870   38.2670   16.3540 C   0  0  0  0  0  0  0  0  0  0  0  0
   39.4830   37.5630   14.3720 H   0  0  0  0  0  0  0  0  0  0  0  0
   39.8530   39.6450   16.0140 C   0  0  0  0  0  0  0  0  0  0  0  0
   39.1190   37.9920   17.5520 O   0  0  0  0  0  0  0  0  0  0  0  0
   37.6910   35.3950   17.9310 O   0  0  0  0  0  0  0  0  0  0  0  0
   37.7450   34.4610   18.2240 H   0  0  0  0  0  0  0  0  0  0  0  0
   36.1260   37.4680   18.3950 O   0  0  0  0  0  0  0  0  0  0  0  0
   36.3680   38.3990   18.2390 H   0  0  0  0  0  0  0  0  0  0  0  0
   32.4210   34.4920   14.6640 O   0  0  0  0  0  0  0  0  0  0  0  0
   32.3820   35.2990   13.5000 C   0  0  0  0  0  0  0  0  0  0  0  0
   30.9670   35.4350   13.0630 C   0  0  0  0  0  0  0  0  0  0  0  0
   30.1830   36.5800   13.1240 C   0  0  0  0  0  0  0  0  0  0  0  0
   30.1510   34.5100   12.5260 N   0  0  0  0  0  0  0  0  0  0  0  0
   28.9630   36.3090   12.6370 N   0  0  0  0  0  0  0  0  0  0  0  0
   28.9650   35.0160   12.2710 N   0  0  0  0  0  0  0  0  0  0  0  0
   27.8440   37.2000   12.5110 C   0  0  0  0  0  0  0  0  0  0  0  0
   27.2980   37.2560   11.1310 C   0  0  0  0  0  0  0  0  0  0  0  0
   26.1210   36.5850   10.8680 C   0  0  0  0  0  0  0  0  0  0  0  0
   27.9060   37.9420   10.1060 C   0  0  0  0  0  0  0  0  0  0  0  0
   25.5270   36.5690    9.6240 C   0  0  0  0  0  0  0  0  0  0  0  0
   27.3250   37.9420    8.8340 C   0  0  0  0  0  0  0  0  0  0  0  0
   23.9050   35.6360    9.2910 Br  0  0  0  0  0  0  0  0  0  0  0  0
   26.1530   37.2650    8.5990 C   0  0  0  0  0  0  0  0  0  0  0  0
   28.2400   38.9230    7.4620 Br  0  0  0  0  0  0  0  0  0  0  0  0
   29.0850   38.6250   10.3370 O   0  0  0  0  0  0  0  0  0  0  0  0
   29.6010   38.4460   11.1880 H   0  0  0  0  0  0  0  0  0  0  0  0
   29.8670   25.5550   16.9770 C   0  0  0  0  0  0  0  0  0  0  0  0
   28.3450   25.7220   17.0260 C   0  0  0  0  0  0  0  0  0  0  0  0
   27.6010   24.4020   16.8910 C   0  0  0  0  0  0  0  0  0  0  0  0
   26.6190   24.1880   18.0090 C   0  0  0  0  0  0  0  0  0  0  0  0
   25.2950   24.8600   17.6590 C   0  0  0  0  0  0  0  0  0  0  0  0
   24.4400   23.9410   16.8710 N   0  0  0  0  0  0  0  0  0  0  0  0
  1  5  1  0  0  0  0
  2  1  1  0  0  0  0
  2  3  2  0  0  0  0
  4  1  1  0  0  0  0
  6  5  1  1  0  0  0
  6 29  1  0  0  0  0
  7  6  1  0  0  0  0
  7 27  1  1  0  0  0
  8 13  1  0  0  0  0
  8  7  1  1  0  0  0
  9 16  1  6  0  0  0
  9 14  1  0  0  0  0
  9 11  1  0  0  0  0
 10  9  1  0  0  0  0
 10 12  1  0  0  0  0
 11  8  1  0  0  0  0
 12 20  1  1  0  0  0
 12 13  1  0  0  0  0
 13 22  1  6  0  0  0
 15 14  1  0  0  0  0
 16 18  1  0  0  0  0
 17 16  2  0  0  0  0
 18 19  1  0  0  0  0
 21 20  1  0  0  0  0
 22 23  1  0  0  0  0
 23 26  2  0  0  0  0
 24 22  1  0  0  0  0
 25 23  1  0  0  0  0
 27 28  1  0  0  0  0
 30 29  1  0  0  0  0
 31  2  1  0  0  0  0
 32 31  1  0  0  0  0
 33 34  2  0  0  0  0
 33 32  1  0  0  0  0
 35 33  1  0  0  0  0
 36 34  1  0  0  0  0
 37 35  2  0  0  0  0
 37 36  1  0  0  0  0
 38 36  1  0  0  0  0
 39 38  1  0  0  0  0
 40 39  1  0  0  0  0
 41 47  1  0  0  0  0
 41 39  2  0  0  0  0
 42 40  2  0  0  0  0
 43 41  1  0  0  0  0
 44 42  1  0  0  0  0
 45 43  2  0  0  0  0
 45 42  1  0  0  0  0
 46 43  1  0  0  0  0
 47 48  1  0  0  0  0
 49 50  1  0  0  0  0
 51 50  1  0  0  0  0
 51 52  1  0  0  0  0
 53 52  1  0  0  0  0
 54 53  1  0  0  0  0
M  END
>  <REMARK>
 VINA RESULT:    -5.077      6.024     10.115
 INTER + INTRA:         -15.026
 INTER:                  -9.874
 INTRA:                  -5.151
 UNBOUND:                -5.794
 SMILES CC(=O)N[C@@H]1[C@@H](O)C[C@](O)(C(=O)O)O[C@H]1C(O)[C@H](O)CNC(=O)OCc1cn(Cc2cc(Br)cc(Br)c2O)nn1
 SMILES IDX 21 1 22 2 23 3 20 5 18 6 16 7 15 8 9 9 8 10 14 11 6 12 5 13
 SMILES IDX 10 14 11 16 12 17 13 18 7 20 4 22 2 23 1 25 3 26 17 27 19 29
 SMILES IDX 24 31 25 32 26 33 27 34 40 35 28 36 39 37 29 38 30 39 31 40
 SMILES IDX 37 41 32 42 35 43 33 44 34 45 36 46 38 47
 H PARENT 21 4 10 15 13 19 7 21 4 24 17 28 19 30 38 48
 Flexibility Score: inf
  4 active torsions:
  status: ('A' for Active; 'I' for Inactive)
    1  A    between atoms: CA   and  CB  
    2  A    between atoms: CB   and  CG  
    3  A    between atoms: CG   and  CD  
    4  A    between atoms: CD   and  CE  

>  <TORSDO>
F 17

>  <BEGIN_>
RES LYS A 131

$$$$
ligand_88_pose_11_2HRL.pdbqt
 OpenBabel07062320523D

  6  5  0  0  0  0  0  0  0  0999 V2000
   33.1930   34.6630    9.2900 C   0  0  0  0  0  0  0  0  0  0  0  0
   32.0600   35.3600   10.0340 C   0  0  0  0  0  0  0  0  0  0  0  0
   30.8420   35.6060    9.1820 C   0  0  0  0  0  0  0  0  0  0  0  0
   30.1510   34.2950    8.8420 C   0  0  0  0  0  0  0  0  0  0  0  0
   28.7490   34.5500    8.3220 C   0  0  0  0  0  0  0  0  0  0  0  0
   28.7830   35.2670    7.0170 N   0  0  0  0  0  0  0  0  0  0  0  0
  1  2  1  0  0  0  0
  3  2  1  0  0  0  0
  4  3  1  0  0  0  0
  5  4  1  0  0  0  0
  6  5  1  0  0  0  0
M  END
>  <EGIN_R>
ES LYS A 135

>  <REMARK>
  4 active torsions:
  status: ('A' for Active; 'I' for Inactive)
    5  A    between atoms: CA   and  CB  
    6  A    between atoms: CB   and  CG  
    7  A    between atoms: CG   and  CD  
    8  A    between atoms: CD   and  CE  

$$$$
