ligand_80_pose_2_2HRL.pdbqt
 OpenBabel07062320523D

 56 54  0  0  1  0  0  0  0  0999 V2000
   24.8930   41.0730    8.7780 O   0  0  0  0  0  0  0  0  0  0  0  0
   25.2300   40.5110    7.5710 C   0  0  0  0  0  0  0  0  0  0  0  0
   26.5910   40.1440    7.3040 N   0  0  0  0  0  0  0  0  0  0  0  0
   27.2770   40.3290    8.0730 H   0  0  0  0  0  0  0  0  0  0  0  0
   24.3810   40.3010    6.6680 O   0  0  0  0  0  0  0  0  0  0  0  0
   26.9910   39.5500    6.0410 C   0  0  0  0  0  0  0  0  0  0  0  0
   27.6010   38.1990    6.3240 C   0  0  2  0  0  0  0  0  0  0  0  0
   29.1030   38.1900    6.1390 C   0  0  2  0  0  0  0  0  0  0  0  0
   29.8120   38.4160    7.4840 C   0  0  2  0  0  0  0  0  0  0  0  0
   29.1140   38.9020    9.6700 C   0  0  2  0  0  0  0  0  0  0  0  0
   30.3900   39.6760    9.7940 C   0  0  0  0  0  0  0  0  0  0  0  0
   28.8810   38.3360    8.4470 O   0  0  0  0  0  0  0  0  0  0  0  0
   30.4550   40.5830    8.5760 C   0  0  1  0  0  0  0  0  0  0  0  0
   30.5640   39.7000    7.3590 C   0  0  1  0  0  0  0  0  0  0  0  0
   28.0420   39.7930    9.8910 O   0  0  0  0  0  0  0  0  0  0  0  0
   27.6900   39.5520   10.7860 H   0  0  0  0  0  0  0  0  0  0  0  0
   29.0000   37.8330   10.6930 C   0  0  0  0  0  0  0  0  0  0  0  0
   29.9130   37.6900   11.5340 O   0  0  0  0  0  0  0  0  0  0  0  0
   27.9040   36.9760   10.7540 O   0  0  0  0  0  0  0  0  0  0  0  0
   27.0730   37.2640   10.2170 H   0  0  0  0  0  0  0  0  0  0  0  0
   29.2520   41.2780    8.5170 O   0  0  0  0  0  0  0  0  0  0  0  0
   29.2580   41.9460    9.2440 H   0  0  0  0  0  0  0  0  0  0  0  0
   31.9710   39.3770    7.1990 N   0  0  0  0  0  0  0  0  0  0  0  0
   32.7430   39.7680    6.0730 C   0  0  0  0  0  0  0  0  0  0  0  0
   32.4550   38.8160    7.9650 H   0  0  0  0  0  0  0  0  0  0  0  0
   34.1710   39.3760    6.0230 C   0  0  0  0  0  0  0  0  0  0  0  0
   32.1810   40.4300    5.1620 O   0  0  0  0  0  0  0  0  0  0  0  0
   29.4040   39.2760    5.3090 O   0  0  0  0  0  0  0  0  0  0  0  0
   28.6240   39.6290    4.8320 H   0  0  0  0  0  0  0  0  0  0  0  0
   27.0050   37.2040    5.5580 O   0  0  0  0  0  0  0  0  0  0  0  0
   26.1510   36.8990    5.9290 H   0  0  0  0  0  0  0  0  0  0  0  0
   24.7450   40.2890    9.9510 C   0  0  0  0  0  0  0  0  0  0  0  0
   24.6370   38.8460    9.6220 C   0  0  0  0  0  0  0  0  0  0  0  0
   23.4300   38.1420    9.5420 C   0  0  0  0  0  0  0  0  0  0  0  0
   25.5900   37.9370    9.3470 N   0  0  0  0  0  0  0  0  0  0  0  0
   23.6940   36.8620    9.2310 N   0  0  0  0  0  0  0  0  0  0  0  0
   25.0020   36.7760    9.1210 N   0  0  0  0  0  0  0  0  0  0  0  0
   22.7330   35.7940    9.0600 *   0  0  0  0  0  0  0  0  0  0  0  0
   22.2870   35.2510   10.3740 C   0  0  0  0  0  0  0  0  0  0  0  0
   21.0020   35.0210   10.9210 N   0  0  0  0  0  0  0  0  0  0  0  0
   23.2550   34.9480   11.1150 O   0  0  0  0  0  0  0  0  0  0  0  0
   20.9100   34.8750   11.9490 H   0  0  0  0  0  0  0  0  0  0  0  0
   19.7510   34.9610   10.2120 C   0  0  0  0  0  0  0  0  0  0  0  0
   19.5620   35.0420    8.8450 C   0  0  0  0  0  0  0  0  0  0  0  0
   18.6980   34.8030   11.0920 C   0  0  0  0  0  0  0  0  0  0  0  0
   18.2920   34.9620    8.3620 C   0  0  0  0  0  0  0  0  0  0  0  0
   17.4130   34.7210   10.6000 C   0  0  0  0  0  0  0  0  0  0  0  0
   17.2260   34.8020    9.2380 C   0  0  0  0  0  0  0  0  0  0  0  0
   20.6160   35.2120    7.8090 C   0  0  0  0  0  0  0  0  0  0  0  0
   21.6100   36.3020    8.1710 *   0  0  0  0  0  0  0  0  0  0  0  0
   29.8670   25.5550   16.9770 C   0  0  0  0  0  0  0  0  0  0  0  0
   28.3450   25.7220   17.0260 C   0  0  0  0  0  0  0  0  0  0  0  0
   27.6020   24.3980   16.9350 C   0  0  0  0  0  0  0  0  0  0  0  0
   26.1760   24.5160   17.3970 C   0  0  0  0  0  0  0  0  0  0  0  0
   25.5640   23.1240   17.5180 C   0  0  0  0  0  0  0  0  0  0  0  0
   24.1380   23.1480   17.1140 N   0  0  0  0  0  0  0  0  0  0  0  0
  1 32  1  0  0  0  0
  2  1  1  0  0  0  0
  3  2  1  0  0  0  0
  3  4  1  0  0  0  0
  5  2  2  0  0  0  0
  6  3  1  0  0  0  0
  7  6  1  6  0  0  0
  8 28  1  6  0  0  0
  8  7  1  0  0  0  0
  9  8  1  6  0  0  0
  9 12  1  0  0  0  0
 10 11  1  0  0  0  0
 10 15  1  1  0  0  0
 10 17  1  0  0  0  0
 12 10  1  0  0  0  0
 13 21  1  6  0  0  0
 13 11  1  0  0  0  0
 14 23  1  1  0  0  0
 14  9  1  0  0  0  0
 14 13  1  0  0  0  0
 15 16  1  0  0  0  0
 17 19  1  0  0  0  0
 17 18  2  0  0  0  0
 20 19  1  0  0  0  0
 21 22  1  0  0  0  0
 23 25  1  0  0  0  0
 24 23  1  0  0  0  0
 26 24  1  0  0  0  0
 27 24  2  0  0  0  0
 29 28  1  0  0  0  0
 30 31  1  0  0  0  0
 30  7  1  0  0  0  0
 33 32  1  0  0  0  0
 34 33  2  0  0  0  0
 35 33  1  0  0  0  0
 36 34  1  0  0  0  0
 37 36  2  0  0  0  0
 37 35  1  0  0  0  0
 39 40  1  0  0  0  0
 39 41  2  0  0  0  0
 40 42  1  0  0  0  0
 43 40  1  0  0  0  0
 43 45  2  0  0  0  0
 44 43  1  0  0  0  0
 46 44  2  0  0  0  0
 46 48  1  0  0  0  0
 47 45  1  0  0  0  0
 48 47  2  0  0  0  0
 49 44  1  0  0  0  0
 51 52  1  0  0  0  0
 53 52  1  0  0  0  0
 53 54  1  0  0  0  0
 54 55  1  0  0  0  0
 56 55  1  0  0  0  0
M  END
>  <REMARK>
 VINA RESULT:    -9.294      5.325      7.740
 INTER + INTRA:         -13.705
 INTER:                  -7.853
 INTRA:                  -5.852
 UNBOUND:                 4.555
 SMILES CC(=O)N[C@@H]1[C@@H](O)C[C@](O)(C(=O)O)O[C@H]1C(O)[C@H](O)CNC(=O)OCc1cn(C2CCc3ccccc3NC2=O)nn1
 SMILES IDX 24 1 22 2 21 3 23 5 20 6 18 7 16 8 15 9 9 10 8 11 14 12 6 13
 SMILES IDX 5 14 10 15 11 17 12 18 13 19 7 21 4 23 2 24 1 26 3 27 17 28
 SMILES IDX 19 30 25 32 26 33 27 34 42 35 28 36 41 37 29 38 39 40 38 41
 SMILES IDX 40 42 37 44 32 45 36 46 33 47 35 48 34 49 31 50 30 51
 H PARENT 21 4 10 16 13 20 7 22 4 25 17 29 19 31 38 43
 Flexibility Score: 80.00
  4 active torsions:
  status: ('A' for Active; 'I' for Inactive)
    1  A    between atoms: CA   and  CB  
    2  A    between atoms: CB   and  CG  
    3  A    between atoms: CG   and  CD  
    4  A    between atoms: CD   and  CE  

>  <TORSDO>
F 15

>  <BEGIN_>
RES LYS A 131

$$$$
ligand_80_pose_2_2HRL.pdbqt
 OpenBabel07062320523D

  6  5  0  0  0  0  0  0  0  0999 V2000
   33.1930   34.6630    9.2900 C   0  0  0  0  0  0  0  0  0  0  0  0
   32.0600   35.3600   10.0340 C   0  0  0  0  0  0  0  0  0  0  0  0
   30.7110   34.7300    9.8040 C   0  0  0  0  0  0  0  0  0  0  0  0
   30.4700   34.5050    8.3190 C   0  0  0  0  0  0  0  0  0  0  0  0
   29.0380   34.8470    7.9540 C   0  0  0  0  0  0  0  0  0  0  0  0
   28.0760   34.1820    8.8760 N   0  0  0  0  0  0  0  0  0  0  0  0
  1  2  1  0  0  0  0
  3  2  1  0  0  0  0
  4  3  1  0  0  0  0
  5  4  1  0  0  0  0
  5  6  1  0  0  0  0
M  END
>  <EGIN_R>
ES LYS A 135

>  <REMARK>
  4 active torsions:
  status: ('A' for Active; 'I' for Inactive)
    5  A    between atoms: CA   and  CB  
    6  A    between atoms: CB   and  CG  
    7  A    between atoms: CG   and  CD  
    8  A    between atoms: CD   and  CE  

$$$$
