ligand_0_pose_1_2HRL.pdbqt
 OpenBabel07062320523D

 54 55  0  0  1  0  0  0  0  0999 V2000
   27.3400   32.2920   18.2320 N   0  0  0  0  0  0  0  0  0  0  0  0
   26.8650   32.3580   16.8960 C   0  0  0  0  0  0  0  0  0  0  0  0
   26.3170   31.3580   16.3990 O   0  0  0  0  0  0  0  0  0  0  0  0
   27.7960   33.1790   18.5940 H   0  0  0  0  0  0  0  0  0  0  0  0
   27.2380   31.1350   19.0870 C   0  0  0  0  0  0  0  0  0  0  0  0
   28.3420   30.1240   18.8280 C   0  0  2  0  0  0  0  0  0  0  0  0
   29.6720   30.7860   18.6260 C   0  0  1  0  0  0  0  0  0  0  0  0
   30.6870   30.4670   19.6570 C   0  0  2  0  0  0  0  0  0  0  0  0
   31.0770   28.8130   21.2650 C   0  0  2  0  0  0  0  0  0  0  0  0
   32.3890   29.5340   21.3700 C   0  0  0  0  0  0  0  0  0  0  0  0
   30.2640   29.2590   20.2730 O   0  0  0  0  0  0  0  0  0  0  0  0
   32.2720   31.0200   21.3880 C   0  0  1  0  0  0  0  0  0  0  0  0
   30.9460   31.4220   20.7500 C   0  0  1  0  0  0  0  0  0  0  0  0
   30.4450   28.8210   22.5310 O   0  0  0  0  0  0  0  0  0  0  0  0
   29.4640   28.9520   22.3740 H   0  0  0  0  0  0  0  0  0  0  0  0
   31.3960   27.3820   20.9890 C   0  0  0  0  0  0  0  0  0  0  0  0
   31.0310   26.5150   21.8410 O   0  0  0  0  0  0  0  0  0  0  0  0
   32.0610   26.9490   19.8630 O   0  0  0  0  0  0  0  0  0  0  0  0
   32.1290   25.9680   19.6420 H   0  0  0  0  0  0  0  0  0  0  0  0
   32.3580   31.4650   22.6980 O   0  0  0  0  0  0  0  0  0  0  0  0
   31.5000   31.7960   23.0620 H   0  0  0  0  0  0  0  0  0  0  0  0
   30.8560   32.8080   20.4960 N   0  0  0  0  0  0  0  0  0  0  0  0
   29.7930   33.5950   20.9870 C   0  0  0  0  0  0  0  0  0  0  0  0
   31.5900   33.3000   19.9490 H   0  0  0  0  0  0  0  0  0  0  0  0
   29.6480   35.0470   20.7510 C   0  0  0  0  0  0  0  0  0  0  0  0
   28.9130   33.0260   21.6690 O   0  0  0  0  0  0  0  0  0  0  0  0
   30.1000   30.8720   17.3220 O   0  0  0  0  0  0  0  0  0  0  0  0
   29.6460   31.6420   16.8640 H   0  0  0  0  0  0  0  0  0  0  0  0
   27.9900   29.1890   17.8960 O   0  0  0  0  0  0  0  0  0  0  0  0
   27.1450   28.7250   18.1500 H   0  0  0  0  0  0  0  0  0  0  0  0
   26.9890   33.5040   16.1190 O   0  0  0  0  0  0  0  0  0  0  0  0
   27.7130   33.5150   14.9010 C   0  0  0  0  0  0  0  0  0  0  0  0
   29.1820   33.4590   15.1710 C   0  0  0  0  0  0  0  0  0  0  0  0
   29.9310   34.4690   15.7460 C   0  0  0  0  0  0  0  0  0  0  0  0
   30.0330   32.4540   14.9200 N   0  0  0  0  0  0  0  0  0  0  0  0
   31.2220   34.0280   15.8190 N   0  0  0  0  0  0  0  0  0  0  0  0
   31.2490   32.8270   15.3200 N   0  0  0  0  0  0  0  0  0  0  0  0
   32.3170   34.7860   16.3480 C   0  0  0  0  0  0  0  0  0  0  0  0
   33.3050   35.3000   15.5420 C   0  0  0  0  0  0  0  0  0  0  0  0
   32.3610   34.9960   17.7220 C   0  0  0  0  0  0  0  0  0  0  0  0
   34.3410   36.0300   16.1330 C   0  0  0  0  0  0  0  0  0  0  0  0
   33.3870   35.7150   18.2840 C   0  0  0  0  0  0  0  0  0  0  0  0
   34.3720   36.2260   17.4810 C   0  0  0  0  0  0  0  0  0  0  0  0
   33.3180   35.1180   14.0980 C   0  0  0  0  0  0  0  0  0  0  0  0
   32.5450   35.8590   13.4090 O   0  0  0  0  0  0  0  0  0  0  0  0
   34.1460   34.1650   13.4470 N   0  0  0  0  0  0  0  0  0  0  0  0
   35.1690   34.2780   13.3680 H   0  0  0  0  0  0  0  0  0  0  0  0
   33.6520   33.3180   13.0310 H   0  0  0  0  0  0  0  0  0  0  0  0
   29.8670   25.5550   16.9770 C   0  0  0  0  0  0  0  0  0  0  0  0
   28.3450   25.7220   17.0260 C   0  0  0  0  0  0  0  0  0  0  0  0
   27.6040   24.3940   17.0140 C   0  0  0  0  0  0  0  0  0  0  0  0
   26.1370   24.5610   17.2990 C   0  0  0  0  0  0  0  0  0  0  0  0
   25.9020   24.5060   18.8050 C   0  0  0  0  0  0  0  0  0  0  0  0
   25.4950   23.1420   19.2170 N   0  0  0  0  0  0  0  0  0  0  0  0
  1  4  1  0  0  0  0
  1  5  1  0  0  0  0
  2  1  1  0  0  0  0
  3  2  2  0  0  0  0
  6  5  1  6  0  0  0
  7 27  1  6  0  0  0
  7  6  1  0  0  0  0
  8  7  1  6  0  0  0
  8 11  1  0  0  0  0
  8 13  1  0  0  0  0
  9 16  1  6  0  0  0
  9 10  1  0  0  0  0
  9 14  1  0  0  0  0
 10 12  1  0  0  0  0
 11  9  1  0  0  0  0
 12 20  1  1  0  0  0
 13 22  1  6  0  0  0
 13 12  1  0  0  0  0
 15 14  1  0  0  0  0
 16 17  2  0  0  0  0
 18 16  1  0  0  0  0
 19 18  1  0  0  0  0
 20 21  1  0  0  0  0
 22 23  1  0  0  0  0
 23 26  2  0  0  0  0
 24 22  1  0  0  0  0
 25 23  1  0  0  0  0
 28 27  1  0  0  0  0
 29 30  1  0  0  0  0
 29  6  1  0  0  0  0
 31  2  1  0  0  0  0
 32 33  1  0  0  0  0
 32 31  1  0  0  0  0
 33 34  2  0  0  0  0
 34 36  1  0  0  0  0
 35 33  1  0  0  0  0
 35 37  2  0  0  0  0
 36 38  1  0  0  0  0
 37 36  1  0  0  0  0
 38 40  2  0  0  0  0
 39 41  2  0  0  0  0
 39 38  1  0  0  0  0
 40 42  1  0  0  0  0
 41 43  1  0  0  0  0
 43 42  2  0  0  0  0
 44 39  1  0  0  0  0
 45 44  2  0  0  0  0
 46 44  1  0  0  0  0
 47 46  1  0  0  0  0
 48 46  1  0  0  0  0
 49 50  1  0  0  0  0
 51 50  1  0  0  0  0
 51 52  1  0  0  0  0
 52 53  1  0  0  0  0
 53 54  1  0  0  0  0
M  END
>  <REMARK>
 VINA RESULT:    -5.761      2.729      4.326
 INTER + INTRA:         -15.721
 INTER:                  -9.457
 INTRA:                  -6.264
 UNBOUND:                -5.414
 SMILES CC(=O)N[C@@H]1[C@@H](O)C[C@](O)(C(=O)O)O[C@H]1C(O)[C@H](O)CNC(=O)OCc1cn(-c2ccccc2C(N)=O)nn1
 SMILES IDX 21 1 22 2 23 3 20 5 18 6 16 7 15 8 9 9 8 10 14 11 6 12 5 13
 SMILES IDX 10 14 11 16 12 17 13 18 7 20 4 22 2 23 1 25 3 26 17 27 19 29
 SMILES IDX 24 31 25 32 26 33 27 34 39 35 28 36 38 37 29 38 34 39 30 40
 SMILES IDX 33 41 31 42 32 43 35 44 37 45 36 46
 H PARENT 21 4 10 15 13 19 7 21 4 24 17 28 19 30 36 47 36 48
 Flexibility Score: inf
  4 active torsions:
  status: ('A' for Active; 'I' for Inactive)
    1  A    between atoms: CA   and  CB  
    2  A    between atoms: CB   and  CG  
    3  A    between atoms: CG   and  CD  
    4  A    between atoms: CD   and  CE  

>  <TORSDO>
F 16

>  <BEGIN_>
RES LYS A 131

$$$$
ligand_0_pose_1_2HRL.pdbqt
 OpenBabel07062320523D

  6  5  0  0  0  0  0  0  0  0999 V2000
   33.1930   34.6630    9.2900 C   0  0  0  0  0  0  0  0  0  0  0  0
   32.0600   35.3600   10.0340 C   0  0  0  0  0  0  0  0  0  0  0  0
   30.7850   35.4550    9.2370 C   0  0  0  0  0  0  0  0  0  0  0  0
   29.9000   34.2450    9.4920 C   0  0  0  0  0  0  0  0  0  0  0  0
   28.6670   34.2910    8.6110 C   0  0  0  0  0  0  0  0  0  0  0  0
   27.4520   33.8770    9.3660 N   0  0  0  0  0  0  0  0  0  0  0  0
  1  2  1  0  0  0  0
  3  4  1  0  0  0  0
  3  2  1  0  0  0  0
  5  6  1  0  0  0  0
  5  4  1  0  0  0  0
M  END
>  <EGIN_R>
ES LYS A 135

>  <REMARK>
  4 active torsions:
  status: ('A' for Active; 'I' for Inactive)
    5  A    between atoms: CA   and  CB  
    6  A    between atoms: CB   and  CG  
    7  A    between atoms: CG   and  CD  
    8  A    between atoms: CD   and  CE  

$$$$
