ligand_33_pose_12_2HRL.pdbqt
 OpenBabel07062320523D

 52 52  0  0  1  0  0  0  0  0999 V2000
   32.4960   32.0940   22.5310 C   0  0  0  0  0  0  0  0  0  0  0  0
   33.3810   31.0150   22.2540 O   0  0  0  0  0  0  0  0  0  0  0  0
   33.0460   29.7540   22.7610 C   0  0  0  0  0  0  0  0  0  0  0  0
   32.7560   28.7130   21.8340 N   0  0  0  0  0  0  0  0  0  0  0  0
   32.8140   28.9440   20.8070 H   0  0  0  0  0  0  0  0  0  0  0  0
   33.0150   29.6050   24.0080 O   0  0  0  0  0  0  0  0  0  0  0  0
   32.4050   27.4190   22.3270 C   0  0  0  0  0  0  0  0  0  0  0  0
   30.9230   27.1860   22.4890 C   0  0  2  0  0  0  0  0  0  0  0  0
   30.2180   27.7650   21.2770 C   0  0  2  0  0  0  0  0  0  0  0  0
   28.8440   27.2350   21.0430 C   0  0  2  0  0  0  0  0  0  0  0  0
   28.3140   28.8970   19.4800 C   0  0  2  0  0  0  0  0  0  0  0  0
   27.5610   29.6050   20.6180 C   0  0  0  0  0  0  0  0  0  0  0  0
   28.4560   27.5690   19.7620 O   0  0  0  0  0  0  0  0  0  0  0  0
   26.7710   28.5170   21.3030 C   0  0  1  0  0  0  0  0  0  0  0  0
   27.7950   27.6190   22.0230 C   0  0  1  0  0  0  0  0  0  0  0  0
   29.4980   29.5750   19.2010 O   0  0  0  0  0  0  0  0  0  0  0  0
   29.5300   30.4680   19.6710 H   0  0  0  0  0  0  0  0  0  0  0  0
   27.4400   29.0100   18.2850 C   0  0  0  0  0  0  0  0  0  0  0  0
   26.8270   30.0950   18.0520 O   0  0  0  0  0  0  0  0  0  0  0  0
   27.3140   27.9200   17.4440 O   0  0  0  0  0  0  0  0  0  0  0  0
   27.9220   27.9210   16.6120 H   0  0  0  0  0  0  0  0  0  0  0  0
   25.8540   29.0330   22.2190 O   0  0  0  0  0  0  0  0  0  0  0  0
   26.1110   29.9790   22.3760 H   0  0  0  0  0  0  0  0  0  0  0  0
   27.1040   26.4610   22.5750 N   0  0  0  0  0  0  0  0  0  0  0  0
   27.2420   26.0530   23.9160 C   0  0  0  0  0  0  0  0  0  0  0  0
   26.4670   25.9070   21.9340 H   0  0  0  0  0  0  0  0  0  0  0  0
   26.5150   24.8470   24.4560 C   0  0  0  0  0  0  0  0  0  0  0  0
   28.0020   26.7250   24.6780 O   0  0  0  0  0  0  0  0  0  0  0  0
   30.9930   27.2910   20.1790 O   0  0  0  0  0  0  0  0  0  0  0  0
   31.9310   27.3400   20.4800 H   0  0  0  0  0  0  0  0  0  0  0  0
   30.5250   27.7540   23.6790 O   0  0  0  0  0  0  0  0  0  0  0  0
   29.6470   28.2010   23.5910 H   0  0  0  0  0  0  0  0  0  0  0  0
   32.7210   33.0960   21.4640 C   0  0  0  0  0  0  0  0  0  0  0  0
   31.8260   33.3410   20.4430 C   0  0  0  0  0  0  0  0  0  0  0  0
   33.7630   33.9080   21.2900 N   0  0  0  0  0  0  0  0  0  0  0  0
   32.3930   34.3100   19.6910 N   0  0  0  0  0  0  0  0  0  0  0  0
   33.5550   34.6440   20.2060 N   0  0  0  0  0  0  0  0  0  0  0  0
   31.7330   34.8400   18.4960 C   0  0  0  0  0  0  0  0  0  0  0  0
   31.2790   33.6690   17.6640 C   0  0  0  0  0  0  0  0  0  0  0  0
   31.7370   33.7560   16.2250 C   0  0  0  0  0  0  0  0  0  0  0  0
   31.3510   32.5620   15.4240 C   0  0  0  0  0  0  0  0  0  0  0  0
   30.6840   31.4770   16.2250 C   0  0  0  0  0  0  0  0  0  0  0  0
   29.3130   31.1700   15.7880 C   0  0  0  0  0  0  0  0  0  0  0  0
   28.4920   32.0730   15.5620 O   0  0  0  0  0  0  0  0  0  0  0  0
   28.8980   29.8380   15.6150 O   0  0  0  0  0  0  0  0  0  0  0  0
   27.9130   29.6270   15.4270 H   0  0  0  0  0  0  0  0  0  0  0  0
   29.8670   25.5550   16.9770 C   0  0  0  0  0  0  0  0  0  0  0  0
   28.3450   25.7220   17.0260 C   0  0  0  0  0  0  0  0  0  0  0  0
   27.6020   24.3980   16.9290 C   0  0  0  0  0  0  0  0  0  0  0  0
   26.4500   24.3240   17.8920 C   0  0  0  0  0  0  0  0  0  0  0  0
   25.1360   24.3740   17.1180 C   0  0  0  0  0  0  0  0  0  0  0  0
   24.0460   24.8890   17.9800 N   0  0  0  0  0  0  0  0  0  0  0  0
  2  1  1  0  0  0  0
  2  3  1  0  0  0  0
  3  6  2  0  0  0  0
  4  7  1  0  0  0  0
  4  3  1  0  0  0  0
  5  4  1  0  0  0  0
  8  7  1  6  0  0  0
  8 31  1  0  0  0  0
  9 29  1  6  0  0  0
  9  8  1  0  0  0  0
 10  9  1  1  0  0  0
 10 15  1  0  0  0  0
 11 18  1  6  0  0  0
 11 13  1  0  0  0  0
 11 12  1  0  0  0  0
 12 14  1  0  0  0  0
 13 10  1  0  0  0  0
 14 15  1  0  0  0  0
 14 22  1  1  0  0  0
 15 24  1  6  0  0  0
 16 11  1  0  0  0  0
 16 17  1  0  0  0  0
 19 18  2  0  0  0  0
 20 18  1  0  0  0  0
 21 20  1  0  0  0  0
 22 23  1  0  0  0  0
 24 25  1  0  0  0  0
 25 27  1  0  0  0  0
 25 28  2  0  0  0  0
 26 24  1  0  0  0  0
 29 30  1  0  0  0  0
 32 31  1  0  0  0  0
 33  1  1  0  0  0  0
 34 33  2  0  0  0  0
 35 33  1  0  0  0  0
 36 37  1  0  0  0  0
 36 34  1  0  0  0  0
 37 35  2  0  0  0  0
 38 36  1  0  0  0  0
 39 38  1  0  0  0  0
 40 39  1  0  0  0  0
 41 40  1  0  0  0  0
 41 42  1  0  0  0  0
 43 42  1  0  0  0  0
 44 43  2  0  0  0  0
 45 43  1  0  0  0  0
 46 45  1  0  0  0  0
 47 48  1  0  0  0  0
 49 48  1  0  0  0  0
 49 50  1  0  0  0  0
 51 50  1  0  0  0  0
 51 52  1  0  0  0  0
M  END
>  <REMARK>
 VINA RESULT:    -4.315      8.572     14.004
 INTER + INTRA:         -14.773
 INTER:                  -8.910
 INTRA:                  -5.863
 UNBOUND:                -5.918
 SMILES CC(=O)N[C@@H]1[C@@H](O)C[C@](O)(C(=O)O)O[C@H]1C(O)[C@H](O)CNC(=O)OCc1cn(CCCCCC(=O)O)nn1
 SMILES IDX 25 1 24 2 22 3 21 4 23 6 20 7 18 8 16 9 15 10 9 11 8 12
 SMILES IDX 14 13 6 14 5 15 10 16 11 18 12 19 13 20 7 22 4 24 2 25 1 27
 SMILES IDX 3 28 17 29 19 31 26 33 27 34 38 35 28 36 37 37 29 38 30 39
 SMILES IDX 31 40 32 41 33 42 34 43 35 44 36 45
 H PARENT 21 5 10 17 13 21 7 23 4 26 17 30 19 32 36 46
 Flexibility Score: inf
  4 active torsions:
  status: ('A' for Active; 'I' for Inactive)
    1  A    between atoms: CA   and  CB  
    2  A    between atoms: CB   and  CG  
    3  A    between atoms: CG   and  CD  
    4  A    between atoms: CD   and  CE  

>  <TORSDO>
F 21

>  <BEGIN_>
RES LYS A 131

$$$$
ligand_33_pose_12_2HRL.pdbqt
 OpenBabel07062320523D

  6  5  0  0  0  0  0  0  0  0999 V2000
   33.1930   34.6630    9.2900 C   0  0  0  0  0  0  0  0  0  0  0  0
   32.0600   35.3600   10.0340 C   0  0  0  0  0  0  0  0  0  0  0  0
   30.6930   34.8310    9.6830 C   0  0  0  0  0  0  0  0  0  0  0  0
   30.6030   34.5220    8.1960 C   0  0  0  0  0  0  0  0  0  0  0  0
   29.3070   35.0570    7.6190 C   0  0  0  0  0  0  0  0  0  0  0  0
   28.9980   36.4100    8.1580 N   0  0  0  0  0  0  0  0  0  0  0  0
  1  2  1  0  0  0  0
  3  2  1  0  0  0  0
  4  3  1  0  0  0  0
  5  6  1  0  0  0  0
  5  4  1  0  0  0  0
M  END
>  <EGIN_R>
ES LYS A 135

>  <REMARK>
  4 active torsions:
  status: ('A' for Active; 'I' for Inactive)
    5  A    between atoms: CA   and  CB  
    6  A    between atoms: CB   and  CG  
    7  A    between atoms: CG   and  CD  
    8  A    between atoms: CD   and  CE  

$$$$
