ligand_49_pose_2_2HRL.pdbqt
 OpenBabel07062320523D

 48 49  0  0  1  0  0  0  0  0999 V2000
   30.3690   31.0840   16.9610 C   0  0  0  0  0  0  0  0  0  0  0  0
   30.3140   32.5660   16.7190 C   0  0  2  0  0  0  0  0  0  0  0  0
   30.1960   32.7510   15.2180 C   0  0  1  0  0  0  0  0  0  0  0  0
   29.8010   34.1420   14.8400 C   0  0  2  0  0  0  0  0  0  0  0  0
   28.0030   35.3330   13.9920 C   0  0  2  0  0  0  0  0  0  0  0  0
   29.0150   36.4600   14.1350 C   0  0  0  0  0  0  0  0  0  0  0  0
   28.6930   34.1200   14.0260 O   0  0  0  0  0  0  0  0  0  0  0  0
   30.2590   36.0330   13.3820 C   0  0  1  0  0  0  0  0  0  0  0  0
   30.9120   34.9390   14.2160 C   0  0  1  0  0  0  0  0  0  0  0  0
   27.3800   35.5150   12.7630 O   0  0  0  0  0  0  0  0  0  0  0  0
   27.5880   36.4540   12.4660 H   0  0  0  0  0  0  0  0  0  0  0  0
   26.9870   35.3660   15.0500 C   0  0  0  0  0  0  0  0  0  0  0  0
   27.0570   36.1810   16.0040 O   0  0  0  0  0  0  0  0  0  0  0  0
   25.9120   34.4920   15.0270 O   0  0  0  0  0  0  0  0  0  0  0  0
   25.3210   34.3700   14.1950 H   0  0  0  0  0  0  0  0  0  0  0  0
   29.8270   35.4940   12.1580 O   0  0  0  0  0  0  0  0  0  0  0  0
   29.0980   34.8530   12.3670 H   0  0  0  0  0  0  0  0  0  0  0  0
   31.7670   35.5590   15.2080 N   0  0  0  0  0  0  0  0  0  0  0  0
   33.1640   35.3570   15.1920 C   0  0  0  0  0  0  0  0  0  0  0  0
   31.3550   36.1620   15.9430 H   0  0  0  0  0  0  0  0  0  0  0  0
   34.0960   35.9610   16.1760 C   0  0  0  0  0  0  0  0  0  0  0  0
   33.6450   34.6260   14.2960 O   0  0  0  0  0  0  0  0  0  0  0  0
   31.4650   32.5070   14.6900 O   0  0  0  0  0  0  0  0  0  0  0  0
   31.4520   32.1880   13.7650 H   0  0  0  0  0  0  0  0  0  0  0  0
   31.4380   33.2100   17.1810 O   0  0  0  0  0  0  0  0  0  0  0  0
   32.1310   33.2140   16.4680 H   0  0  0  0  0  0  0  0  0  0  0  0
   29.2410   30.3350   16.5060 N   0  0  0  0  0  0  0  0  0  0  0  0
   28.1190   29.9860   17.2660 C   0  0  0  0  0  0  0  0  0  0  0  0
   29.2690   30.0160   15.4850 H   0  0  0  0  0  0  0  0  0  0  0  0
   28.0420   30.3290   18.4680 O   0  0  0  0  0  0  0  0  0  0  0  0
   27.0690   29.2500   16.6870 O   0  0  0  0  0  0  0  0  0  0  0  0
   25.7500   29.5850   17.0770 C   0  0  0  0  0  0  0  0  0  0  0  0
   25.1440   30.4060   16.0050 C   0  0  0  0  0  0  0  0  0  0  0  0
   24.6320   29.8780   14.8280 C   0  0  0  0  0  0  0  0  0  0  0  0
   24.9660   31.7190   15.9240 N   0  0  0  0  0  0  0  0  0  0  0  0
   24.1700   30.8920   14.0970 N   0  0  0  0  0  0  0  0  0  0  0  0
   24.3790   32.0050   14.7730 N   0  0  0  0  0  0  0  0  0  0  0  0
   23.5540   30.7290   12.7850 C   0  0  0  0  0  0  0  0  0  0  0  0
   23.2580   29.2670   12.6000 C   0  0  0  0  0  0  0  0  0  0  0  0
   22.2280   31.4560   12.7740 C   0  0  0  0  0  0  0  0  0  0  0  0
   21.7940   29.1560   12.3200 C   0  0  0  0  0  0  0  0  0  0  0  0
   21.2000   30.3600   12.9980 C   0  0  0  0  0  0  0  0  0  0  0  0
   29.8670   25.5550   16.9770 C   0  0  0  0  0  0  0  0  0  0  0  0
   28.3450   25.7220   17.0260 C   0  0  0  0  0  0  0  0  0  0  0  0
   27.5990   24.4200   16.7780 C   0  0  0  0  0  0  0  0  0  0  0  0
   26.7250   24.0380   17.9400 C   0  0  0  0  0  0  0  0  0  0  0  0
   25.3380   23.6610   17.4310 C   0  0  0  0  0  0  0  0  0  0  0  0
   24.4400   24.8400   17.4480 N   0  0  0  0  0  0  0  0  0  0  0  0
  2  1  1  6  0  0  0
  2 25  1  0  0  0  0
  3 23  1  6  0  0  0
  3  2  1  0  0  0  0
  4  3  1  6  0  0  0
  5 10  1  6  0  0  0
  5  7  1  0  0  0  0
  5  6  1  0  0  0  0
  5 12  1  0  0  0  0
  7  4  1  0  0  0  0
  8 16  1  6  0  0  0
  8  6  1  0  0  0  0
  8  9  1  0  0  0  0
  9  4  1  0  0  0  0
  9 18  1  1  0  0  0
 11 10  1  0  0  0  0
 12 13  2  0  0  0  0
 14 12  1  0  0  0  0
 15 14  1  0  0  0  0
 16 17  1  0  0  0  0
 18 20  1  0  0  0  0
 19 18  1  0  0  0  0
 19 21  1  0  0  0  0
 22 19  2  0  0  0  0
 24 23  1  0  0  0  0
 26 25  1  0  0  0  0
 27  1  1  0  0  0  0
 27 28  1  0  0  0  0
 28 30  2  0  0  0  0
 29 27  1  0  0  0  0
 31 32  1  0  0  0  0
 31 28  1  0  0  0  0
 33 32  1  0  0  0  0
 34 33  2  0  0  0  0
 35 33  1  0  0  0  0
 36 37  1  0  0  0  0
 36 34  1  0  0  0  0
 37 35  2  0  0  0  0
 38 36  1  0  0  0  0
 39 38  1  0  0  0  0
 40 38  1  0  0  0  0
 40 42  1  0  0  0  0
 41 39  1  0  0  0  0
 41 42  1  0  0  0  0
 43 44  1  0  0  0  0
 45 44  1  0  0  0  0
 45 46  1  0  0  0  0
 47 48  1  0  0  0  0
 47 46  1  0  0  0  0
M  END
>  <REMARK>
 VINA RESULT:    -5.447      1.586      2.464
 INTER + INTRA:         -14.454
 INTER:                  -8.527
 INTRA:                  -5.927
 UNBOUND:                -5.026
 SMILES CC(=O)N[C@@H]1[C@@H](O)C[C@](O)(C(=O)O)O[C@H]1C(O)[C@H](O)CNC(=O)OCc1cn(C2CCCC2)nn1
 SMILES IDX 20 1 18 2 16 3 15 4 9 5 8 6 14 7 6 8 5 9 10 10 11 12 12 13
 SMILES IDX 13 14 7 16 4 18 2 19 1 21 3 22 17 23 19 25 21 27 22 28 23 30
 SMILES IDX 24 31 25 32 26 33 27 34 35 35 28 36 34 37 29 38 30 39 33 40
 SMILES IDX 31 41 32 42
 H PARENT 10 11 13 15 7 17 4 20 17 24 19 26 21 29
 Flexibility Score: inf
  4 active torsions:
  status: ('A' for Active; 'I' for Inactive)
    1  A    between atoms: CA   and  CB  
    2  A    between atoms: CB   and  CG  
    3  A    between atoms: CG   and  CD  
    4  A    between atoms: CD   and  CE  

>  <TORSDO>
F 15

>  <BEGIN_>
RES LYS A 131

$$$$
ligand_49_pose_2_2HRL.pdbqt
 OpenBabel07062320523D

  6  5  0  0  0  0  0  0  0  0999 V2000
   33.1930   34.6630    9.2900 C   0  0  0  0  0  0  0  0  0  0  0  0
   32.0600   35.3600   10.0340 C   0  0  0  0  0  0  0  0  0  0  0  0
   30.8230   35.5590    9.1970 C   0  0  0  0  0  0  0  0  0  0  0  0
   30.1570   34.2250    8.8970 C   0  0  0  0  0  0  0  0  0  0  0  0
   28.6730   34.4150    8.6480 C   0  0  0  0  0  0  0  0  0  0  0  0
   27.8610   33.6690    9.6500 N   0  0  0  0  0  0  0  0  0  0  0  0
  1  2  1  0  0  0  0
  3  2  1  0  0  0  0
  4  3  1  0  0  0  0
  5  4  1  0  0  0  0
  5  6  1  0  0  0  0
M  END
>  <EGIN_R>
ES LYS A 135

>  <REMARK>
  4 active torsions:
  status: ('A' for Active; 'I' for Inactive)
    5  A    between atoms: CA   and  CB  
    6  A    between atoms: CB   and  CG  
    7  A    between atoms: CG   and  CD  
    8  A    between atoms: CD   and  CE  

$$$$
