ligand_90_pose_9_2HRL.pdbqt
 OpenBabel07062320523D

 61 62  0  0  1  0  0  0  0  0999 V2000
   28.3830   37.1690   19.0310 C   0  0  0  0  0  0  0  0  0  0  0  0
   27.7310   37.2700   17.7810 O   0  0  0  0  0  0  0  0  0  0  0  0
   27.0200   36.2110   17.2450 C   0  0  0  0  0  0  0  0  0  0  0  0
   27.3540   35.6640   15.9580 N   0  0  0  0  0  0  0  0  0  0  0  0
   28.1470   36.1150   15.4620 H   0  0  0  0  0  0  0  0  0  0  0  0
   26.0770   35.7370   17.9020 O   0  0  0  0  0  0  0  0  0  0  0  0
   26.6600   34.5710   15.3690 C   0  0  0  0  0  0  0  0  0  0  0  0
   27.5060   33.3800   15.0810 C   0  0  2  0  0  0  0  0  0  0  0  0
   27.7570   32.6290   16.3790 C   0  0  1  0  0  0  0  0  0  0  0  0
   27.8260   31.1480   16.1870 C   0  0  2  0  0  0  0  0  0  0  0  0
   25.6790   30.2520   16.0650 C   0  0  2  0  0  0  0  0  0  0  0  0
   25.9820   29.0160   16.8990 C   0  0  0  0  0  0  0  0  0  0  0  0
   26.7870   30.7100   15.4080 O   0  0  0  0  0  0  0  0  0  0  0  0
   27.4760   28.9470   17.1830 C   0  0  1  0  0  0  0  0  0  0  0  0
   27.9140   30.3880   17.4700 C   0  0  1  0  0  0  0  0  0  0  0  0
   25.2330   31.2130   16.9540 O   0  0  0  0  0  0  0  0  0  0  0  0
   25.9770   31.5430   17.5180 H   0  0  0  0  0  0  0  0  0  0  0  0
   24.5910   29.9920   15.0870 C   0  0  0  0  0  0  0  0  0  0  0  0
   23.5510   29.3490   15.4040 O   0  0  0  0  0  0  0  0  0  0  0  0
   24.6780   30.4490   13.7830 O   0  0  0  0  0  0  0  0  0  0  0  0
   24.7090   29.8720   12.9620 H   0  0  0  0  0  0  0  0  0  0  0  0
   27.6550   28.1400   18.2930 O   0  0  0  0  0  0  0  0  0  0  0  0
   26.9480   28.2430   18.9680 H   0  0  0  0  0  0  0  0  0  0  0  0
   29.2700   30.3850   18.0030 N   0  0  0  0  0  0  0  0  0  0  0  0
   29.4670   30.4790   19.3950 C   0  0  0  0  0  0  0  0  0  0  0  0
   30.0650   30.3200   17.3630 H   0  0  0  0  0  0  0  0  0  0  0  0
   30.8540   30.4790   19.9900 C   0  0  0  0  0  0  0  0  0  0  0  0
   28.5290   30.5690   20.2220 O   0  0  0  0  0  0  0  0  0  0  0  0
   28.9160   33.0690   16.9970 O   0  0  0  0  0  0  0  0  0  0  0  0
   28.8150   33.9280   17.4460 H   0  0  0  0  0  0  0  0  0  0  0  0
   28.7210   33.6630   14.4800 O   0  0  0  0  0  0  0  0  0  0  0  0
   28.6900   34.4890   13.9260 H   0  0  0  0  0  0  0  0  0  0  0  0
   29.4280   36.1310   18.8560 C   0  0  0  0  0  0  0  0  0  0  0  0
   30.5860   36.3140   18.1340 C   0  0  0  0  0  0  0  0  0  0  0  0
   29.5070   34.8690   19.3040 N   0  0  0  0  0  0  0  0  0  0  0  0
   31.3380   35.1700   18.1580 N   0  0  0  0  0  0  0  0  0  0  0  0
   30.6560   34.3130   18.8770 N   0  0  0  0  0  0  0  0  0  0  0  0
   32.6080   35.0730   17.4720 C   0  0  0  0  0  0  0  0  0  0  0  0
   32.2810   34.8260   16.0120 C   0  0  0  0  0  0  0  0  0  0  0  0
   31.5060   33.8990   15.6920 O   0  0  0  0  0  0  0  0  0  0  0  0
   32.8210   35.6060   14.9860 N   0  0  0  0  0  0  0  0  0  0  0  0
   33.4660   36.4020   15.3580 H   0  0  0  0  0  0  0  0  0  0  0  0
   32.6590   35.5120   13.5820 C   0  0  0  0  0  0  0  0  0  0  0  0
   31.3310   35.5830   12.9800 C   0  0  1  0  0  0  0  0  0  0  0  0
   30.7690   34.3030   12.7200 O   0  0  0  0  0  0  0  0  0  0  0  0
   30.7610   33.7770   13.5560 H   0  0  0  0  0  0  0  0  0  0  0  0
   30.3470   36.6040   13.3770 C   0  0  0  0  0  0  0  0  0  0  0  0
   29.7450   37.2990   12.2560 N   0  0  0  0  0  0  0  0  0  0  0  0
   30.2450   38.4060   11.6510 C   0  0  0  0  0  0  0  0  0  0  0  0
   28.5890   36.9700   11.6510 C   0  0  0  0  0  0  0  0  0  0  0  0
   29.3530   38.7470   10.6520 C   0  0  0  0  0  0  0  0  0  0  0  0
   28.3450   37.8730   10.6530 N   0  0  0  0  0  0  0  0  0  0  0  0
   27.7100   35.8940   11.9270 N   0  0  0  0  0  0  0  0  0  0  0  0
   26.5370   36.1790   12.3120 O   0  0  0  0  0  0  0  0  0  0  0  0
   27.9970   34.5750   11.8220 O   0  0  0  0  0  0  0  0  0  0  0  0
   29.8670   25.5550   16.9770 C   0  0  0  0  0  0  0  0  0  0  0  0
   28.3450   25.7220   17.0260 C   0  0  0  0  0  0  0  0  0  0  0  0
   27.6000   24.4070   16.8540 C   0  0  0  0  0  0  0  0  0  0  0  0
   26.7720   24.0630   18.0600 C   0  0  0  0  0  0  0  0  0  0  0  0
   25.6530   25.0870   18.2190 C   0  0  0  0  0  0  0  0  0  0  0  0
   25.6290   25.6190   19.6020 N   0  0  0  0  0  0  0  0  0  0  0  0
  2  1  1  0  0  0  0
  3  2  1  0  0  0  0
  3  6  2  0  0  0  0
  4  3  1  0  0  0  0
  5  4  1  0  0  0  0
  7  4  1  0  0  0  0
  8  7  1  1  0  0  0
  8  9  1  0  0  0  0
  9 29  1  6  0  0  0
 10  9  1  1  0  0  0
 10 15  1  0  0  0  0
 11 18  1  6  0  0  0
 11 12  1  0  0  0  0
 11 16  1  0  0  0  0
 12 14  1  0  0  0  0
 13 11  1  0  0  0  0
 13 10  1  0  0  0  0
 14 15  1  0  0  0  0
 14 22  1  1  0  0  0
 15 24  1  6  0  0  0
 16 17  1  0  0  0  0
 18 19  2  0  0  0  0
 20 18  1  0  0  0  0
 21 20  1  0  0  0  0
 22 23  1  0  0  0  0
 24 25  1  0  0  0  0
 25 27  1  0  0  0  0
 25 28  2  0  0  0  0
 26 24  1  0  0  0  0
 29 30  1  0  0  0  0
 31  8  1  0  0  0  0
 32 31  1  0  0  0  0
 33  1  1  0  0  0  0
 33 35  1  0  0  0  0
 34 36  1  0  0  0  0
 34 33  2  0  0  0  0
 36 37  1  0  0  0  0
 37 35  2  0  0  0  0
 38 36  1  0  0  0  0
 39 38  1  0  0  0  0
 40 39  2  0  0  0  0
 41 42  1  0  0  0  0
 41 39  1  0  0  0  0
 43 41  1  0  0  0  0
 44 47  1  1  0  0  0
 44 43  1  0  0  0  0
 45 44  1  0  0  0  0
 45 46  1  0  0  0  0
 48 47  1  0  0  0  0
 49 48  1  0  0  0  0
 50 53  1  0  0  0  0
 50 48  1  0  0  0  0
 51 52  1  0  0  0  0
 51 49  2  0  0  0  0
 52 50  2  0  0  0  0
 53 54  2  0  0  0  0
 55 53  2  0  0  0  0
 56 57  1  0  0  0  0
 58 57  1  0  0  0  0
 58 59  1  0  0  0  0
 59 60  1  0  0  0  0
 60 61  1  0  0  0  0
M  END
>  <REMARK>
 VINA RESULT:    -5.203      5.262     10.195
 INTER + INTRA:         -16.740
 INTER:                  -8.070
 INTRA:                  -8.670
 UNBOUND:                -5.759
 SMILES CC(=O)N[C@@H]1[C@@H](O)C[C@](O)(C(=O)O)O[C@H]1C(O)[C@H](O)CNC(=O)OCc1cn(CC(=O)NCC(O)Cn2ccnc2[N+](=O)[O-])nn1
 SMILES IDX 25 1 24 2 22 3 21 4 23 6 20 7 18 8 16 9 15 10 9 11 8 12
 SMILES IDX 14 13 6 14 5 15 10 16 11 18 12 19 13 20 7 22 4 24 2 25 1 27
 SMILES IDX 3 28 17 29 19 31 26 33 27 34 46 35 28 36 45 37 29 38 30 39
 SMILES IDX 31 40 32 41 33 43 34 44 35 45 36 47 37 48 38 49 41 50 39 51
 SMILES IDX 40 52 42 53 43 54 44 55
 H PARENT 21 5 10 17 13 21 7 23 4 26 17 30 19 32 32 42 35 46
 Flexibility Score: inf
  4 active torsions:
  status: ('A' for Active; 'I' for Inactive)
    1  A    between atoms: CA   and  CB  
    2  A    between atoms: CB   and  CG  
    3  A    between atoms: CG   and  CD  
    4  A    between atoms: CD   and  CE  

>  <TORSDO>
F 22

>  <BEGIN_>
RES LYS A 131

$$$$
ligand_90_pose_9_2HRL.pdbqt
 OpenBabel07062320523D

  6  5  0  0  0  0  0  0  0  0999 V2000
   33.1930   34.6630    9.2900 C   0  0  0  0  0  0  0  0  0  0  0  0
   32.0600   35.3600   10.0340 C   0  0  0  0  0  0  0  0  0  0  0  0
   30.8230   35.5610    9.1970 C   0  0  0  0  0  0  0  0  0  0  0  0
   30.0670   34.2520    9.0340 C   0  0  0  0  0  0  0  0  0  0  0  0
   28.7270   34.4900    8.3630 C   0  0  0  0  0  0  0  0  0  0  0  0
   28.8740   35.3710    7.1710 N   0  0  0  0  0  0  0  0  0  0  0  0
  1  2  1  0  0  0  0
  3  2  1  0  0  0  0
  4  3  1  0  0  0  0
  5  4  1  0  0  0  0
  6  5  1  0  0  0  0
M  END
>  <EGIN_R>
ES LYS A 135

>  <REMARK>
  4 active torsions:
  status: ('A' for Active; 'I' for Inactive)
    5  A    between atoms: CA   and  CB  
    6  A    between atoms: CB   and  CG  
    7  A    between atoms: CG   and  CD  
    8  A    between atoms: CD   and  CE  

$$$$
