ligand_20_pose_18_2HRL.pdbqt
 OpenBabel07062320523D

 53 55  0  0  1  0  0  0  0  0999 V2000
   26.9440   42.3620    7.2780 C   0  0  0  0  0  0  0  0  0  0  0  0
   27.1050   41.2570    8.2270 C   0  0  2  0  0  0  0  0  0  0  0  0
   28.5620   40.7440    8.2310 C   0  0  1  0  0  0  0  0  0  0  0  0
   28.9750   40.1500    9.5050 C   0  0  2  0  0  0  0  0  0  0  0  0
   31.0340   41.1110   10.0580 C   0  0  2  0  0  0  0  0  0  0  0  0
   31.6480   40.0840    9.1510 C   0  0  0  0  0  0  0  0  0  0  0  0
   29.7220   40.8990   10.3650 O   0  0  0  0  0  0  0  0  0  0  0  0
   31.0480   38.7280    9.2810 C   0  0  1  0  0  0  0  0  0  0  0  0
   29.5530   38.7410    9.3190 C   0  0  1  0  0  0  0  0  0  0  0  0
   31.1880   42.3750    9.4910 O   0  0  0  0  0  0  0  0  0  0  0  0
   31.6790   42.3430    8.6330 H   0  0  0  0  0  0  0  0  0  0  0  0
   31.8020   41.0830   11.3240 C   0  0  0  0  0  0  0  0  0  0  0  0
   32.6620   41.9500   11.5500 O   0  0  0  0  0  0  0  0  0  0  0  0
   31.5600   40.0920   12.2520 O   0  0  0  0  0  0  0  0  0  0  0  0
   32.0640   40.0230   13.1470 H   0  0  0  0  0  0  0  0  0  0  0  0
   31.5260   37.9390    8.2180 O   0  0  0  0  0  0  0  0  0  0  0  0
   30.7280   37.5030    7.8360 H   0  0  0  0  0  0  0  0  0  0  0  0
   29.0020   37.8030   10.2620 N   0  0  0  0  0  0  0  0  0  0  0  0
   27.7150   37.2240   10.0960 C   0  0  0  0  0  0  0  0  0  0  0  0
   29.5650   37.5230   11.1200 H   0  0  0  0  0  0  0  0  0  0  0  0
   27.1940   36.2670   11.0910 C   0  0  0  0  0  0  0  0  0  0  0  0
   27.0360   37.5450    9.0870 O   0  0  0  0  0  0  0  0  0  0  0  0
   28.4520   39.6470    7.3030 O   0  0  0  0  0  0  0  0  0  0  0  0
   27.5480   39.6240    6.9120 H   0  0  0  0  0  0  0  0  0  0  0  0
   26.3650   40.1560    7.6490 O   0  0  0  0  0  0  0  0  0  0  0  0
   26.9410   39.3430    7.6600 H   0  0  0  0  0  0  0  0  0  0  0  0
   27.8920   42.4300    6.2010 N   0  0  0  0  0  0  0  0  0  0  0  0
   27.5990   41.9260    4.9070 C   0  0  0  0  0  0  0  0  0  0  0  0
   28.8020   42.8990    6.3320 H   0  0  0  0  0  0  0  0  0  0  0  0
   26.4700   41.4060    4.7130 O   0  0  0  0  0  0  0  0  0  0  0  0
   28.4810   41.9720    3.8520 O   0  0  0  0  0  0  0  0  0  0  0  0
   29.7920   42.4980    3.9210 C   0  0  0  0  0  0  0  0  0  0  0  0
   30.6810   41.4340    4.4980 C   0  0  0  0  0  0  0  0  0  0  0  0
   32.0380   41.2710    4.3330 C   0  0  0  0  0  0  0  0  0  0  0  0
   30.3010   40.4080    5.3110 N   0  0  0  0  0  0  0  0  0  0  0  0
   32.3990   40.1660    5.0480 N   0  0  0  0  0  0  0  0  0  0  0  0
   31.3250   39.6640    5.6300 N   0  0  0  0  0  0  0  0  0  0  0  0
   33.7210   39.6600    5.1340 C   0  0  0  0  0  0  0  0  0  0  0  0
   34.3430   39.5930    6.3670 C   0  0  0  0  0  0  0  0  0  0  0  0
   34.4380   39.2220    4.0410 C   0  0  0  0  0  0  0  0  0  0  0  0
   35.6270   39.1110    6.5120 C   0  0  0  0  0  0  0  0  0  0  0  0
   35.7100   38.7410    4.1620 C   0  0  0  0  0  0  0  0  0  0  0  0
   36.3350   38.6730    5.4060 C   0  0  0  0  0  0  0  0  0  0  0  0
   36.6330   38.2510    3.2690 C   0  0  0  0  0  0  0  0  0  0  0  0
   37.5660   38.1670    5.2350 N   0  0  0  0  0  0  0  0  0  0  0  0
   37.7580   37.9090    3.9610 N   0  0  0  0  0  0  0  0  0  0  0  0
   38.2520   38.0070    5.9960 H   0  0  0  0  0  0  0  0  0  0  0  0
   29.8670   25.5550   16.9770 C   0  0  0  0  0  0  0  0  0  0  0  0
   28.3450   25.7220   17.0260 C   0  0  0  0  0  0  0  0  0  0  0  0
   27.6010   24.4030   16.8860 C   0  0  0  0  0  0  0  0  0  0  0  0
   26.1680   24.5110   17.3280 C   0  0  0  0  0  0  0  0  0  0  0  0
   25.9930   23.7970   18.6650 C   0  0  0  0  0  0  0  0  0  0  0  0
   25.4900   24.7380   19.6930 N   0  0  0  0  0  0  0  0  0  0  0  0
  2  1  1  6  0  0  0
  2  3  1  0  0  0  0
  3 23  1  6  0  0  0
  4  3  1  6  0  0  0
  4  7  1  0  0  0  0
  5 10  1  6  0  0  0
  5  7  1  0  0  0  0
  5 12  1  0  0  0  0
  6  8  1  0  0  0  0
  6  5  1  0  0  0  0
  8 16  1  6  0  0  0
  8  9  1  0  0  0  0
  9  4  1  0  0  0  0
  9 18  1  1  0  0  0
 11 10  1  0  0  0  0
 12 13  2  0  0  0  0
 12 14  1  0  0  0  0
 14 15  1  0  0  0  0
 17 16  1  0  0  0  0
 18 20  1  0  0  0  0
 19 18  1  0  0  0  0
 19 21  1  0  0  0  0
 22 19  2  0  0  0  0
 24 23  1  0  0  0  0
 25 26  1  0  0  0  0
 25  2  1  0  0  0  0
 27 29  1  0  0  0  0
 27  1  1  0  0  0  0
 28 27  1  0  0  0  0
 30 28  2  0  0  0  0
 31 32  1  0  0  0  0
 31 28  1  0  0  0  0
 32 33  1  0  0  0  0
 33 35  1  0  0  0  0
 34 33  2  0  0  0  0
 34 36  1  0  0  0  0
 35 37  2  0  0  0  0
 36 38  1  0  0  0  0
 36 37  1  0  0  0  0
 38 39  2  0  0  0  0
 39 41  1  0  0  0  0
 40 42  2  0  0  0  0
 40 38  1  0  0  0  0
 42 43  1  0  0  0  0
 43 41  2  0  0  0  0
 44 46  2  0  0  0  0
 44 42  1  0  0  0  0
 45 43  1  0  0  0  0
 45 47  1  0  0  0  0
 46 45  1  0  0  0  0
 48 49  1  0  0  0  0
 50 49  1  0  0  0  0
 50 51  1  0  0  0  0
 51 52  1  0  0  0  0
 52 53  1  0  0  0  0
M  END
>  <REMARK>
 VINA RESULT:    -4.396      6.011     10.320
 INTER + INTRA:         -14.099
 INTER:                  -7.609
 INTRA:                  -6.490
 UNBOUND:                -6.490
 SMILES CC(=O)N[C@@H]1[C@@H](O)C[C@](O)(C(=O)O)O[C@H]1C(O)[C@H](O)CNC(=O)OCc1cn(-c2ccc3[nH]ncc3c2)nn1
 SMILES IDX 20 1 18 2 16 3 15 4 9 5 8 6 14 7 6 8 5 9 10 10 11 12 12 13
 SMILES IDX 13 14 7 16 4 18 2 19 1 21 3 22 17 23 19 25 21 27 22 28 23 30
 SMILES IDX 24 31 25 32 26 33 27 34 39 35 28 36 38 37 29 38 30 39 37 40
 SMILES IDX 31 41 36 42 32 43 35 44 33 45 34 46
 H PARENT 10 11 13 15 7 17 4 20 17 24 19 26 21 29 33 47
 Flexibility Score: inf
  4 active torsions:
  status: ('A' for Active; 'I' for Inactive)
    1  A    between atoms: CA   and  CB  
    2  A    between atoms: CB   and  CG  
    3  A    between atoms: CG   and  CD  
    4  A    between atoms: CD   and  CE  

>  <TORSDO>
F 15

>  <BEGIN_>
RES LYS A 131

$$$$
ligand_20_pose_18_2HRL.pdbqt
 OpenBabel07062320523D

  6  5  0  0  0  0  0  0  0  0999 V2000
   33.1930   34.6630    9.2900 C   0  0  0  0  0  0  0  0  0  0  0  0
   32.0600   35.3600   10.0340 C   0  0  0  0  0  0  0  0  0  0  0  0
   30.7050   34.7530    9.7740 C   0  0  0  0  0  0  0  0  0  0  0  0
   30.4770   34.5700    8.2810 C   0  0  0  0  0  0  0  0  0  0  0  0
   29.0250   34.8290    7.9290 C   0  0  0  0  0  0  0  0  0  0  0  0
   28.9100   35.6220    6.6740 N   0  0  0  0  0  0  0  0  0  0  0  0
  1  2  1  0  0  0  0
  3  2  1  0  0  0  0
  4  3  1  0  0  0  0
  5  4  1  0  0  0  0
  6  5  1  0  0  0  0
M  END
>  <EGIN_R>
ES LYS A 135

>  <REMARK>
  4 active torsions:
  status: ('A' for Active; 'I' for Inactive)
    5  A    between atoms: CA   and  CB  
    6  A    between atoms: CB   and  CG  
    7  A    between atoms: CG   and  CD  
    8  A    between atoms: CD   and  CE  

$$$$
