ligand_3_pose_16_2HRL.pdbqt
 OpenBabel07062320523D

 49 50  0  0  1  0  0  0  0  0999 V2000
   26.0330   32.1600   16.7220 C   0  0  0  0  0  0  0  0  0  0  0  0
   26.8020   30.9330   16.2760 C   0  0  2  0  0  0  0  0  0  0  0  0
   28.2610   31.2430   16.0270 C   0  0  1  0  0  0  0  0  0  0  0  0
   28.8910   31.9990   17.1480 C   0  0  2  0  0  0  0  0  0  0  0  0
   29.3320   34.1830   16.4030 C   0  0  2  0  0  0  0  0  0  0  0  0
   30.7610   33.8850   16.1140 C   0  0  0  0  0  0  0  0  0  0  0  0
   28.6520   33.3230   17.1780 O   0  0  0  0  0  0  0  0  0  0  0  0
   31.1470   32.4430   16.2590 C   0  0  1  0  0  0  0  0  0  0  0  0
   30.3580   31.7240   17.3070 C   0  0  1  0  0  0  0  0  0  0  0  0
   28.6790   34.2570   15.1530 O   0  0  0  0  0  0  0  0  0  0  0  0
   27.7830   33.8320   15.2710 H   0  0  0  0  0  0  0  0  0  0  0  0
   29.2080   35.5440   16.9920 C   0  0  0  0  0  0  0  0  0  0  0  0
   28.4940   36.4360   16.4850 O   0  0  0  0  0  0  0  0  0  0  0  0
   29.9000   35.8560   18.1420 O   0  0  0  0  0  0  0  0  0  0  0  0
   29.4910   35.8760   19.0680 H   0  0  0  0  0  0  0  0  0  0  0  0
   31.0170   31.7810   15.0250 O   0  0  0  0  0  0  0  0  0  0  0  0
   31.8800   31.6140   14.5980 H   0  0  0  0  0  0  0  0  0  0  0  0
   30.7620   32.2650   18.6070 N   0  0  0  0  0  0  0  0  0  0  0  0
   30.8380   31.4460   19.7660 C   0  0  0  0  0  0  0  0  0  0  0  0
   31.0060   33.2720   18.7210 H   0  0  0  0  0  0  0  0  0  0  0  0
   31.2450   31.9750   21.0950 C   0  0  0  0  0  0  0  0  0  0  0  0
   30.5570   30.2170   19.7070 O   0  0  0  0  0  0  0  0  0  0  0  0
   28.8780   29.9930   15.8520 O   0  0  0  0  0  0  0  0  0  0  0  0
   28.3130   29.5270   15.1660 H   0  0  0  0  0  0  0  0  0  0  0  0
   26.1790   30.3030   15.2130 O   0  0  0  0  0  0  0  0  0  0  0  0
   26.5280   30.5800   14.3410 H   0  0  0  0  0  0  0  0  0  0  0  0
   25.8760   33.1440   15.6970 N   0  0  0  0  0  0  0  0  0  0  0  0
   24.6170   33.5440   15.1730 C   0  0  0  0  0  0  0  0  0  0  0  0
   26.7170   33.6170   15.2880 H   0  0  0  0  0  0  0  0  0  0  0  0
   23.5610   33.0490   15.5860 O   0  0  0  0  0  0  0  0  0  0  0  0
   24.5230   34.5050   14.1740 O   0  0  0  0  0  0  0  0  0  0  0  0
   24.4850   34.1100   12.8110 C   0  0  0  0  0  0  0  0  0  0  0  0
   25.8230   34.3740   12.2370 C   0  0  0  0  0  0  0  0  0  0  0  0
   26.1780   34.3590   10.9070 C   0  0  0  0  0  0  0  0  0  0  0  0
   26.9330   34.6780   12.9410 N   0  0  0  0  0  0  0  0  0  0  0  0
   27.4870   34.6550   10.8650 N   0  0  0  0  0  0  0  0  0  0  0  0
   27.9270   34.8440   12.0920 N   0  0  0  0  0  0  0  0  0  0  0  0
   28.2610   34.7450    9.6750 C   0  0  0  0  0  0  0  0  0  0  0  0
   29.6120   34.4490    9.7230 C   0  0  0  0  0  0  0  0  0  0  0  0
   27.6780   35.1250    8.4800 C   0  0  0  0  0  0  0  0  0  0  0  0
   30.3360   34.5470    8.5480 C   0  0  0  0  0  0  0  0  0  0  0  0
   28.4100   35.2170    7.3240 C   0  0  0  0  0  0  0  0  0  0  0  0
   29.7560   34.9230    7.3650 C   0  0  0  0  0  0  0  0  0  0  0  0
   29.8670   25.5550   16.9770 C   0  0  0  0  0  0  0  0  0  0  0  0
   28.3450   25.7220   17.0260 C   0  0  0  0  0  0  0  0  0  0  0  0
   27.5990   24.4330   16.7190 C   0  0  0  0  0  0  0  0  0  0  0  0
   27.1020   23.7550   17.9650 C   0  0  0  0  0  0  0  0  0  0  0  0
   25.6230   24.0740   18.1630 C   0  0  0  0  0  0  0  0  0  0  0  0
   24.9950   24.4440   16.8720 N   0  0  0  0  0  0  0  0  0  0  0  0
  2  1  1  6  0  0  0
  3 23  1  1  0  0  0
  3  2  1  0  0  0  0
  4  3  1  6  0  0  0
  4  7  1  0  0  0  0
  4  9  1  0  0  0  0
  5 10  1  6  0  0  0
  5 12  1  0  0  0  0
  5  7  1  0  0  0  0
  6  8  1  0  0  0  0
  6  5  1  0  0  0  0
  8 16  1  6  0  0  0
  8  9  1  0  0  0  0
  9 18  1  1  0  0  0
 10 11  1  0  0  0  0
 12 14  1  0  0  0  0
 13 12  2  0  0  0  0
 14 15  1  0  0  0  0
 17 16  1  0  0  0  0
 18 20  1  0  0  0  0
 18 19  1  0  0  0  0
 19 21  1  0  0  0  0
 22 19  2  0  0  0  0
 24 23  1  0  0  0  0
 25  2  1  0  0  0  0
 26 25  1  0  0  0  0
 27  1  1  0  0  0  0
 28 30  2  0  0  0  0
 28 27  1  0  0  0  0
 29 27  1  0  0  0  0
 31 28  1  0  0  0  0
 32 31  1  0  0  0  0
 33 32  1  0  0  0  0
 33 35  1  0  0  0  0
 34 33  2  0  0  0  0
 36 34  1  0  0  0  0
 36 37  1  0  0  0  0
 37 35  2  0  0  0  0
 38 39  1  0  0  0  0
 38 36  1  0  0  0  0
 40 38  2  0  0  0  0
 41 39  2  0  0  0  0
 42 43  2  0  0  0  0
 42 40  1  0  0  0  0
 43 41  1  0  0  0  0
 44 45  1  0  0  0  0
 46 45  1  0  0  0  0
 46 47  1  0  0  0  0
 47 48  1  0  0  0  0
 49 48  1  0  0  0  0
M  END
>  <REMARK>
 VINA RESULT:    -5.229      6.161     10.870
 INTER + INTRA:         -13.536
 INTER:                  -9.368
 INTRA:                  -4.168
 UNBOUND:                -4.485
 SMILES CC(=O)N[C@@H]1[C@@H](O)C[C@](O)(C(=O)O)O[C@H]1C(O)[C@H](O)CNC(=O)OCc1cn(-c2ccccc2)nn1
 SMILES IDX 20 1 18 2 16 3 15 4 9 5 8 6 14 7 6 8 5 9 10 10 11 12 12 13
 SMILES IDX 13 14 7 16 4 18 2 19 1 21 3 22 17 23 19 25 21 27 22 28 23 30
 SMILES IDX 24 31 25 32 26 33 27 34 36 35 28 36 35 37 29 38 30 39 34 40
 SMILES IDX 31 41 33 42 32 43
 H PARENT 10 11 13 15 7 17 4 20 17 24 19 26 21 29
 Flexibility Score: inf
  4 active torsions:
  status: ('A' for Active; 'I' for Inactive)
    1  A    between atoms: CA   and  CB  
    2  A    between atoms: CB   and  CG  
    3  A    between atoms: CG   and  CD  
    4  A    between atoms: CD   and  CE  

>  <TORSDO>
F 15

>  <BEGIN_>
RES LYS A 131

$$$$
ligand_3_pose_16_2HRL.pdbqt
 OpenBabel07062320523D

  6  5  0  0  0  0  0  0  0  0999 V2000
   33.1930   34.6630    9.2900 C   0  0  0  0  0  0  0  0  0  0  0  0
   32.0600   35.3600   10.0340 C   0  0  0  0  0  0  0  0  0  0  0  0
   32.5090   36.0760   11.2820 C   0  0  0  0  0  0  0  0  0  0  0  0
   31.9600   35.3880   12.5220 C   0  0  0  0  0  0  0  0  0  0  0  0
   32.7390   35.8090   13.7540 C   0  0  0  0  0  0  0  0  0  0  0  0
   33.7210   34.7630   14.1510 N   0  0  0  0  0  0  0  0  0  0  0  0
  1  2  1  0  0  0  0
  2  3  1  0  0  0  0
  3  4  1  0  0  0  0
  4  5  1  0  0  0  0
  5  6  1  0  0  0  0
M  END
>  <EGIN_R>
ES LYS A 135

>  <REMARK>
  4 active torsions:
  status: ('A' for Active; 'I' for Inactive)
    5  A    between atoms: CA   and  CB  
    6  A    between atoms: CB   and  CG  
    7  A    between atoms: CG   and  CD  
    8  A    between atoms: CD   and  CE  

$$$$
