ligand_50_pose_14_2HRL.pdbqt
 OpenBabel07062320523D

 50 50  0  0  1  0  0  0  0  0999 V2000
   31.2740   37.5870   12.1060 N   0  0  0  0  0  0  0  0  0  0  0  0
   29.9940   38.1900   12.0330 C   0  0  0  0  0  0  0  0  0  0  0  0
   29.1400   38.0010   12.9170 O   0  0  0  0  0  0  0  0  0  0  0  0
   31.9330   37.8090   11.3000 H   0  0  0  0  0  0  0  0  0  0  0  0
   31.6430   36.7420   13.1900 C   0  0  0  0  0  0  0  0  0  0  0  0
   31.4410   35.2700   12.9090 C   0  0  2  0  0  0  0  0  0  0  0  0
   30.3960   34.7820   13.9060 C   0  0  1  0  0  0  0  0  0  0  0  0
   30.9640   33.6330   14.7450 C   0  0  2  0  0  0  0  0  0  0  0  0
   29.3810   32.3630   15.8760 C   0  0  2  0  0  0  0  0  0  0  0  0
   30.4180   31.8920   16.8760 C   0  0  0  0  0  0  0  0  0  0  0  0
   30.0510   32.6180   14.7040 O   0  0  0  0  0  0  0  0  0  0  0  0
   31.3170   33.0440   17.1650 C   0  0  1  0  0  0  0  0  0  0  0  0
   31.3180   34.1230   16.1140 C   0  0  1  0  0  0  0  0  0  0  0  0
   28.7720   33.4870   16.4290 O   0  0  0  0  0  0  0  0  0  0  0  0
   27.7910   33.4160   16.4510 H   0  0  0  0  0  0  0  0  0  0  0  0
   28.3590   31.3150   15.6210 C   0  0  0  0  0  0  0  0  0  0  0  0
   28.7420   30.1280   15.4680 O   0  0  0  0  0  0  0  0  0  0  0  0
   27.0290   31.6530   15.5580 O   0  0  0  0  0  0  0  0  0  0  0  0
   26.6530   32.1320   14.7450 H   0  0  0  0  0  0  0  0  0  0  0  0
   30.8870   33.6330   18.3610 O   0  0  0  0  0  0  0  0  0  0  0  0
   29.9170   33.5670   18.4260 H   0  0  0  0  0  0  0  0  0  0  0  0
   32.6470   34.6970   16.1200 N   0  0  0  0  0  0  0  0  0  0  0  0
   32.8250   36.0310   16.5690 C   0  0  0  0  0  0  0  0  0  0  0  0
   33.4930   34.1680   15.8060 H   0  0  0  0  0  0  0  0  0  0  0  0
   34.1830   36.6800   16.5960 C   0  0  0  0  0  0  0  0  0  0  0  0
   31.8750   36.7520   16.9680 O   0  0  0  0  0  0  0  0  0  0  0  0
   29.9720   35.8390   14.6740 O   0  0  0  0  0  0  0  0  0  0  0  0
   30.0370   36.7030   14.1790 H   0  0  0  0  0  0  0  0  0  0  0  0
   32.6400   34.5740   13.0620 O   0  0  0  0  0  0  0  0  0  0  0  0
   33.2070   35.1000   13.6570 H   0  0  0  0  0  0  0  0  0  0  0  0
   29.6470   39.0220   10.9580 O   0  0  0  0  0  0  0  0  0  0  0  0
   30.6520   39.4000   10.0630 C   0  0  0  0  0  0  0  0  0  0  0  0
   30.2430   39.2000    8.6490 C   0  0  0  0  0  0  0  0  0  0  0  0
   28.9980   38.8770    8.1930 C   0  0  0  0  0  0  0  0  0  0  0  0
   31.0300   39.3000    7.5750 N   0  0  0  0  0  0  0  0  0  0  0  0
   29.0860   38.7950    6.8380 N   0  0  0  0  0  0  0  0  0  0  0  0
   30.3340   39.0560    6.4750 N   0  0  0  0  0  0  0  0  0  0  0  0
   27.9700   38.4710    5.9510 C   0  0  0  0  0  0  0  0  0  0  0  0
   27.9570   36.9600    5.8260 C   0  0  1  0  0  0  0  0  0  0  0  0
   29.2460   36.4730    6.0020 O   0  0  0  0  0  0  0  0  0  0  0  0
   29.4010   36.3640    6.9780 H   0  0  0  0  0  0  0  0  0  0  0  0
   27.0280   36.3530    6.8820 C   0  0  0  0  0  0  0  0  0  0  0  0
   25.8660   37.1220    6.9710 O   0  0  0  0  0  0  0  0  0  0  0  0
   26.0870   38.0050    7.3940 H   0  0  0  0  0  0  0  0  0  0  0  0
   29.8670   25.5550   16.9770 C   0  0  0  0  0  0  0  0  0  0  0  0
   28.3450   25.7220   17.0260 C   0  0  0  0  0  0  0  0  0  0  0  0
   27.6010   24.4050   16.8720 C   0  0  0  0  0  0  0  0  0  0  0  0
   26.5530   24.2180   17.9340 C   0  0  0  0  0  0  0  0  0  0  0  0
   25.6420   23.0560   17.5520 C   0  0  0  0  0  0  0  0  0  0  0  0
   24.3570   23.5590   17.0130 N   0  0  0  0  0  0  0  0  0  0  0  0
  1  5  1  0  0  0  0
  2  1  1  0  0  0  0
  2  3  2  0  0  0  0
  4  1  1  0  0  0  0
  6 29  1  0  0  0  0
  6  5  1  1  0  0  0
  6  7  1  0  0  0  0
  7 27  1  1  0  0  0
  8  7  1  6  0  0  0
  8 13  1  0  0  0  0
  9 16  1  6  0  0  0
  9 14  1  0  0  0  0
  9 10  1  0  0  0  0
 10 12  1  0  0  0  0
 11  8  1  0  0  0  0
 11  9  1  0  0  0  0
 12 20  1  1  0  0  0
 13 22  1  6  0  0  0
 13 12  1  0  0  0  0
 14 15  1  0  0  0  0
 17 16  2  0  0  0  0
 18 16  1  0  0  0  0
 19 18  1  0  0  0  0
 20 21  1  0  0  0  0
 22 23  1  0  0  0  0
 23 25  1  0  0  0  0
 23 26  2  0  0  0  0
 24 22  1  0  0  0  0
 28 27  1  0  0  0  0
 29 30  1  0  0  0  0
 31  2  1  0  0  0  0
 32 31  1  0  0  0  0
 33 32  1  0  0  0  0
 34 33  2  0  0  0  0
 35 33  1  0  0  0  0
 36 34  1  0  0  0  0
 37 36  1  0  0  0  0
 37 35  2  0  0  0  0
 38 36  1  0  0  0  0
 39 38  1  1  0  0  0
 39 40  1  0  0  0  0
 39 42  1  0  0  0  0
 40 41  1  0  0  0  0
 42 43  1  0  0  0  0
 43 44  1  0  0  0  0
 45 46  1  0  0  0  0
 47 46  1  0  0  0  0
 47 48  1  0  0  0  0
 49 48  1  0  0  0  0
 50 49  1  0  0  0  0
M  END
>  <REMARK>
 VINA RESULT:    -4.525      4.213      9.005
 INTER + INTRA:         -14.103
 INTER:                  -8.502
 INTRA:                  -5.601
 UNBOUND:                -5.477
 SMILES CC(=O)N[C@@H]1[C@@H](O)C[C@](O)(C(=O)O)O[C@H]1C(O)[C@H](O)CNC(=O)OCc1cn(CC(O)CO)nn1
 SMILES IDX 21 1 22 2 23 3 20 5 18 6 16 7 15 8 9 9 8 10 14 11 6 12 5 13
 SMILES IDX 10 14 11 16 12 17 13 18 7 20 4 22 2 23 1 25 3 26 17 27 19 29
 SMILES IDX 24 31 25 32 26 33 27 34 35 35 28 36 34 37 29 38 30 39 31 40
 SMILES IDX 32 42 33 43
 H PARENT 21 4 10 15 13 19 7 21 4 24 17 28 19 30 31 41 33 44
 Flexibility Score: inf
  4 active torsions:
  status: ('A' for Active; 'I' for Inactive)
    1  A    between atoms: CA   and  CB  
    2  A    between atoms: CB   and  CG  
    3  A    between atoms: CG   and  CD  
    4  A    between atoms: CD   and  CE  

>  <TORSDO>
F 19

>  <BEGIN_>
RES LYS A 131

$$$$
ligand_50_pose_14_2HRL.pdbqt
 OpenBabel07062320523D

  6  5  0  0  0  0  0  0  0  0999 V2000
   33.1930   34.6630    9.2900 C   0  0  0  0  0  0  0  0  0  0  0  0
   32.0600   35.3600   10.0340 C   0  0  0  0  0  0  0  0  0  0  0  0
   30.7990   35.4970    9.2200 C   0  0  0  0  0  0  0  0  0  0  0  0
   30.1730   34.1350    8.9670 C   0  0  0  0  0  0  0  0  0  0  0  0
   28.7340   34.1130    9.4460 C   0  0  0  0  0  0  0  0  0  0  0  0
   28.5150   35.1090   10.5310 N   0  0  0  0  0  0  0  0  0  0  0  0
  1  2  1  0  0  0  0
  3  2  1  0  0  0  0
  4  3  1  0  0  0  0
  4  5  1  0  0  0  0
  5  6  1  0  0  0  0
M  END
>  <EGIN_R>
ES LYS A 135

>  <REMARK>
  4 active torsions:
  status: ('A' for Active; 'I' for Inactive)
    5  A    between atoms: CA   and  CB  
    6  A    between atoms: CB   and  CG  
    7  A    between atoms: CG   and  CD  
    8  A    between atoms: CD   and  CE  

$$$$
