ligand_3_pose_9_2HRL.pdbqt
 OpenBabel07062320523D

 49 50  0  0  1  0  0  0  0  0999 V2000
   24.4730   39.3510    8.4560 C   0  0  0  0  0  0  0  0  0  0  0  0
   25.9440   39.0280    8.6270 C   0  0  2  0  0  0  0  0  0  0  0  0
   26.5060   38.3090    7.4210 C   0  0  1  0  0  0  0  0  0  0  0  0
   27.8680   37.7500    7.6650 C   0  0  2  0  0  0  0  0  0  0  0  0
   29.4490   39.3150    6.9090 C   0  0  2  0  0  0  0  0  0  0  0  0
   29.6500   38.6100    5.6140 C   0  0  0  0  0  0  0  0  0  0  0  0
   28.8420   38.6470    7.9040 O   0  0  0  0  0  0  0  0  0  0  0  0
   28.7180   37.4610    5.3700 C   0  0  1  0  0  0  0  0  0  0  0  0
   28.3050   36.7600    6.6250 C   0  0  1  0  0  0  0  0  0  0  0  0
   28.6820   40.4650    6.6220 O   0  0  0  0  0  0  0  0  0  0  0  0
   27.7370   40.1610    6.5160 H   0  0  0  0  0  0  0  0  0  0  0  0
   30.7520   39.8270    7.4130 C   0  0  0  0  0  0  0  0  0  0  0  0
   30.9300   41.0230    7.7300 O   0  0  0  0  0  0  0  0  0  0  0  0
   31.8190   38.9660    7.5450 O   0  0  0  0  0  0  0  0  0  0  0  0
   32.1490   38.5930    8.4260 H   0  0  0  0  0  0  0  0  0  0  0  0
   27.5800   37.8990    4.6700 O   0  0  0  0  0  0  0  0  0  0  0  0
   27.4740   38.8700    4.7000 H   0  0  0  0  0  0  0  0  0  0  0  0
   29.4860   36.0720    7.1520 N   0  0  0  0  0  0  0  0  0  0  0  0
   29.3740   34.8980    7.9470 C   0  0  0  0  0  0  0  0  0  0  0  0
   30.4470   36.4230    6.9580 H   0  0  0  0  0  0  0  0  0  0  0  0
   30.5590   34.1850    8.4910 C   0  0  0  0  0  0  0  0  0  0  0  0
   28.2430   34.4130    8.2250 O   0  0  0  0  0  0  0  0  0  0  0  0
   25.5850   37.2870    7.1380 O   0  0  0  0  0  0  0  0  0  0  0  0
   24.7300   37.7690    6.9300 H   0  0  0  0  0  0  0  0  0  0  0  0
   26.1830   38.3740    9.8230 O   0  0  0  0  0  0  0  0  0  0  0  0
   25.5890   37.6110    9.9730 H   0  0  0  0  0  0  0  0  0  0  0  0
   23.6130   38.5710    9.2890 N   0  0  0  0  0  0  0  0  0  0  0  0
   22.6400   37.6650    8.7880 C   0  0  0  0  0  0  0  0  0  0  0  0
   23.6780   38.6480   10.3310 H   0  0  0  0  0  0  0  0  0  0  0  0
   22.4800   37.4970    7.5730 O   0  0  0  0  0  0  0  0  0  0  0  0
   21.8270   36.9310    9.6450 O   0  0  0  0  0  0  0  0  0  0  0  0
   22.1070   35.5600    9.8870 C   0  0  0  0  0  0  0  0  0  0  0  0
   23.5650   35.4400   10.1100 C   0  0  0  0  0  0  0  0  0  0  0  0
   24.2080   35.2030   11.3040 C   0  0  0  0  0  0  0  0  0  0  0  0
   24.5160   35.5460    9.1600 N   0  0  0  0  0  0  0  0  0  0  0  0
   25.5210   35.1760   11.0220 N   0  0  0  0  0  0  0  0  0  0  0  0
   25.6910   35.3830    9.7330 N   0  0  0  0  0  0  0  0  0  0  0  0
   26.5520   34.9580   11.9780 C   0  0  0  0  0  0  0  0  0  0  0  0
   26.2110   34.6690   13.2880 C   0  0  0  0  0  0  0  0  0  0  0  0
   27.8830   35.0330   11.6100 C   0  0  0  0  0  0  0  0  0  0  0  0
   27.2380   34.4630   14.1910 C   0  0  0  0  0  0  0  0  0  0  0  0
   28.8890   34.8240   12.5190 C   0  0  0  0  0  0  0  0  0  0  0  0
   28.5560   34.5360   13.8250 C   0  0  0  0  0  0  0  0  0  0  0  0
   29.8670   25.5550   16.9770 C   0  0  0  0  0  0  0  0  0  0  0  0
   28.3450   25.7220   17.0260 C   0  0  0  0  0  0  0  0  0  0  0  0
   27.6020   24.3980   16.9330 C   0  0  0  0  0  0  0  0  0  0  0  0
   26.5450   24.2660   17.9930 C   0  0  0  0  0  0  0  0  0  0  0  0
   26.1470   25.6520   18.4910 C   0  0  0  0  0  0  0  0  0  0  0  0
   25.8120   25.6080   19.9340 N   0  0  0  0  0  0  0  0  0  0  0  0
  1 27  1  0  0  0  0
  2  1  1  6  0  0  0
  2 25  1  0  0  0  0
  3 23  1  1  0  0  0
  3  2  1  0  0  0  0
  4  3  1  6  0  0  0
  4  7  1  0  0  0  0
  5 10  1  6  0  0  0
  5 12  1  0  0  0  0
  5  7  1  0  0  0  0
  6  5  1  0  0  0  0
  8 16  1  1  0  0  0
  8  6  1  0  0  0  0
  8  9  1  0  0  0  0
  9 18  1  1  0  0  0
  9  4  1  0  0  0  0
 11 10  1  0  0  0  0
 12 14  1  0  0  0  0
 12 13  2  0  0  0  0
 14 15  1  0  0  0  0
 16 17  1  0  0  0  0
 18 19  1  0  0  0  0
 19 22  2  0  0  0  0
 19 21  1  0  0  0  0
 20 18  1  0  0  0  0
 24 23  1  0  0  0  0
 25 26  1  0  0  0  0
 27 29  1  0  0  0  0
 28 27  1  0  0  0  0
 28 31  1  0  0  0  0
 30 28  2  0  0  0  0
 31 32  1  0  0  0  0
 32 33  1  0  0  0  0
 33 34  2  0  0  0  0
 35 37  2  0  0  0  0
 35 33  1  0  0  0  0
 36 34  1  0  0  0  0
 36 38  1  0  0  0  0
 37 36  1  0  0  0  0
 38 39  1  0  0  0  0
 39 41  2  0  0  0  0
 40 38  2  0  0  0  0
 40 42  1  0  0  0  0
 42 43  2  0  0  0  0
 43 41  1  0  0  0  0
 44 45  1  0  0  0  0
 46 45  1  0  0  0  0
 46 47  1  0  0  0  0
 47 48  1  0  0  0  0
 48 49  1  0  0  0  0
M  END
>  <REMARK>
 VINA RESULT:    -5.512      3.890      7.860
 INTER + INTRA:         -14.025
 INTER:                  -9.444
 INTRA:                  -4.581
 UNBOUND:                -4.485
 SMILES CC(=O)N[C@@H]1[C@@H](O)C[C@](O)(C(=O)O)O[C@H]1C(O)[C@H](O)CNC(=O)OCc1cn(-c2ccccc2)nn1
 SMILES IDX 20 1 18 2 16 3 15 4 9 5 8 6 14 7 6 8 5 9 10 10 11 12 12 13
 SMILES IDX 13 14 7 16 4 18 2 19 1 21 3 22 17 23 19 25 21 27 22 28 23 30
 SMILES IDX 24 31 25 32 26 33 27 34 36 35 28 36 35 37 29 38 30 39 34 40
 SMILES IDX 31 41 33 42 32 43
 H PARENT 10 11 13 15 7 17 4 20 17 24 19 26 21 29
 Flexibility Score: inf
  4 active torsions:
  status: ('A' for Active; 'I' for Inactive)
    1  A    between atoms: CA   and  CB  
    2  A    between atoms: CB   and  CG  
    3  A    between atoms: CG   and  CD  
    4  A    between atoms: CD   and  CE  

>  <TORSDO>
F 15

>  <BEGIN_>
RES LYS A 131

$$$$
ligand_3_pose_9_2HRL.pdbqt
 OpenBabel07062320523D

  6  5  0  0  0  0  0  0  0  0999 V2000
   33.1930   34.6630    9.2900 C   0  0  0  0  0  0  0  0  0  0  0  0
   32.0600   35.3600   10.0340 C   0  0  0  0  0  0  0  0  0  0  0  0
   32.5350   36.3780   11.0380 C   0  0  0  0  0  0  0  0  0  0  0  0
   32.5120   35.7980   12.4430 C   0  0  0  0  0  0  0  0  0  0  0  0
   31.9370   36.8010   13.4250 C   0  0  0  0  0  0  0  0  0  0  0  0
   31.7160   36.1790   14.7600 N   0  0  0  0  0  0  0  0  0  0  0  0
  1  2  1  0  0  0  0
  2  3  1  0  0  0  0
  3  4  1  0  0  0  0
  4  5  1  0  0  0  0
  5  6  1  0  0  0  0
M  END
>  <EGIN_R>
ES LYS A 135

>  <REMARK>
  4 active torsions:
  status: ('A' for Active; 'I' for Inactive)
    5  A    between atoms: CA   and  CB  
    6  A    between atoms: CB   and  CG  
    7  A    between atoms: CG   and  CD  
    8  A    between atoms: CD   and  CE  

$$$$
