ligand_47_pose_6_2HRL.pdbqt
 OpenBabel07062320523D

 62 64  0  0  1  0  0  0  0  0999 V2000
   24.6850   35.7850   11.0330 N   0  0  0  0  0  0  0  0  0  0  0  0
   24.4530   34.6220   11.8120 C   0  0  0  0  0  0  0  0  0  0  0  0
   23.2670   34.2220   12.0010 O   0  0  0  0  0  0  0  0  0  0  0  0
   25.7070   36.0540   10.9220 H   0  0  0  0  0  0  0  0  0  0  0  0
   23.6310   36.5600   10.4240 C   0  0  0  0  0  0  0  0  0  0  0  0
   23.3730   36.1600    8.9710 C   0  0  2  0  0  0  0  0  0  0  0  0
   22.5890   37.2810    8.3600 C   0  0  2  0  0  0  0  0  0  0  0  0
   21.1480   37.3050    8.7850 C   0  0  2  0  0  0  0  0  0  0  0  0
   19.0650   36.6340    8.0190 C   0  0  2  0  0  0  0  0  0  0  0  0
   18.5150   37.3560    9.2220 C   0  0  0  0  0  0  0  0  0  0  0  0
   20.4150   36.4210    8.0420 O   0  0  0  0  0  0  0  0  0  0  0  0
   19.2490   38.6120    9.5440 C   0  0  1  0  0  0  0  0  0  0  0  0
   20.5250   38.6780    8.7050 C   0  0  1  0  0  0  0  0  0  0  0  0
   18.6880   37.3580    6.8820 O   0  0  0  0  0  0  0  0  0  0  0  0
   19.3620   38.0580    6.6660 H   0  0  0  0  0  0  0  0  0  0  0  0
   18.3900   35.3150    7.9590 C   0  0  0  0  0  0  0  0  0  0  0  0
   19.0380   34.2800    8.2500 O   0  0  0  0  0  0  0  0  0  0  0  0
   17.0670   35.1900    7.5930 O   0  0  0  0  0  0  0  0  0  0  0  0
   16.3830   34.8280    8.2710 H   0  0  0  0  0  0  0  0  0  0  0  0
   18.5050   39.7620    9.4590 O   0  0  0  0  0  0  0  0  0  0  0  0
   18.0130   39.9310   10.3050 H   0  0  0  0  0  0  0  0  0  0  0  0
   21.4180   39.6930    9.2460 N   0  0  0  0  0  0  0  0  0  0  0  0
   21.4340   40.9710    8.6400 C   0  0  0  0  0  0  0  0  0  0  0  0
   22.0140   39.4570   10.0540 H   0  0  0  0  0  0  0  0  0  0  0  0
   22.3210   42.0400    9.1480 C   0  0  0  0  0  0  0  0  0  0  0  0
   20.6930   41.2200    7.6570 O   0  0  0  0  0  0  0  0  0  0  0  0
   22.7640   37.3070    6.9920 O   0  0  0  0  0  0  0  0  0  0  0  0
   23.6550   36.9570    6.7070 H   0  0  0  0  0  0  0  0  0  0  0  0
   22.6060   34.9830    9.0290 O   0  0  0  0  0  0  0  0  0  0  0  0
   22.8510   34.5720    9.9120 H   0  0  0  0  0  0  0  0  0  0  0  0
   25.4950   33.9120   12.3730 O   0  0  0  0  0  0  0  0  0  0  0  0
   26.1210   34.3380   13.5900 C   0  0  0  0  0  0  0  0  0  0  0  0
   27.4200   34.9890   13.3110 C   0  0  0  0  0  0  0  0  0  0  0  0
   28.5080   35.0370   14.1970 C   0  0  0  0  0  0  0  0  0  0  0  0
   27.8500   35.6450   12.2270 N   0  0  0  0  0  0  0  0  0  0  0  0
   29.5240   35.6950   13.6400 N   0  0  0  0  0  0  0  0  0  0  0  0
   29.0900   36.0630   12.4130 N   0  0  0  0  0  0  0  0  0  0  0  0
   30.8520   36.0150   14.0800 C   0  0  0  0  0  0  0  0  0  0  0  0
   31.8960   34.9710   13.8680 C   0  0  1  0  0  0  0  0  0  0  0  0
   32.8470   35.3670   12.8290 C   0  0  0  0  0  0  0  0  0  0  0  0
   32.7170   36.3220   12.0440 O   0  0  0  0  0  0  0  0  0  0  0  0
   34.0380   34.6280   12.6640 O   0  0  0  0  0  0  0  0  0  0  0  0
   34.5500   34.7130   11.7810 H   0  0  0  0  0  0  0  0  0  0  0  0
   32.5880   34.5870   15.1650 C   0  0  0  0  0  0  0  0  0  0  0  0
   31.7860   33.6140   15.9430 C   0  0  0  0  0  0  0  0  0  0  0  0
   31.5520   33.7910   17.3110 C   0  0  0  0  0  0  0  0  0  0  0  0
   31.2310   32.4900   15.3610 C   0  0  0  0  0  0  0  0  0  0  0  0
   30.8060   32.8870   18.0350 C   0  0  0  0  0  0  0  0  0  0  0  0
   30.4860   31.5810   16.0660 C   0  0  0  0  0  0  0  0  0  0  0  0
   30.2630   31.7650   17.4070 C   0  0  0  0  0  0  0  0  0  0  0  0
   32.9050   35.7300   16.0270 C   0  0  0  0  0  0  0  0  0  0  0  0
   34.2580   36.0330   16.2310 C   0  0  0  0  0  0  0  0  0  0  0  0
   31.9550   36.5160   16.6430 C   0  0  0  0  0  0  0  0  0  0  0  0
   34.5950   37.0980   17.0320 C   0  0  0  0  0  0  0  0  0  0  0  0
   32.2910   37.5830   17.4460 C   0  0  0  0  0  0  0  0  0  0  0  0
   33.6310   37.8910   17.6530 C   0  0  0  0  0  0  0  0  0  0  0  0
   29.8670   25.5550   16.9770 C   0  0  0  0  0  0  0  0  0  0  0  0
   28.3450   25.7220   17.0260 C   0  0  0  0  0  0  0  0  0  0  0  0
   27.6010   24.4030   16.8860 C   0  0  0  0  0  0  0  0  0  0  0  0
   26.5140   24.2540   17.9140 C   0  0  0  0  0  0  0  0  0  0  0  0
   25.1530   24.3340   17.2300 C   0  0  0  0  0  0  0  0  0  0  0  0
   24.5050   23.0020   17.2060 N   0  0  0  0  0  0  0  0  0  0  0  0
  1  2  1  0  0  0  0
  2  3  2  0  0  0  0
  2 31  1  0  0  0  0
  4  1  1  0  0  0  0
  5  1  1  0  0  0  0
  6 29  1  0  0  0  0
  6  5  1  1  0  0  0
  7 27  1  6  0  0  0
  7  6  1  0  0  0  0
  8  7  1  6  0  0  0
  9 14  1  6  0  0  0
  9 11  1  0  0  0  0
  9 10  1  0  0  0  0
 10 12  1  0  0  0  0
 11  8  1  0  0  0  0
 12 20  1  6  0  0  0
 13  8  1  0  0  0  0
 13 22  1  1  0  0  0
 13 12  1  0  0  0  0
 15 14  1  0  0  0  0
 16  9  1  0  0  0  0
 16 17  2  0  0  0  0
 18 16  1  0  0  0  0
 18 19  1  0  0  0  0
 20 21  1  0  0  0  0
 22 24  1  0  0  0  0
 23 25  1  0  0  0  0
 23 22  1  0  0  0  0
 26 23  2  0  0  0  0
 28 27  1  0  0  0  0
 29 30  1  0  0  0  0
 31 32  1  0  0  0  0
 33 32  1  0  0  0  0
 33 34  2  0  0  0  0
 35 37  2  0  0  0  0
 35 33  1  0  0  0  0
 36 38  1  0  0  0  0
 36 34  1  0  0  0  0
 37 36  1  0  0  0  0
 39 38  1  1  0  0  0
 39 44  1  0  0  0  0
 40 39  1  0  0  0  0
 41 40  2  0  0  0  0
 42 40  1  0  0  0  0
 43 42  1  0  0  0  0
 44 45  1  0  0  0  0
 44 51  1  0  0  0  0
 45 46  1  0  0  0  0
 46 48  2  0  0  0  0
 47 45  2  0  0  0  0
 47 49  1  0  0  0  0
 49 50  2  0  0  0  0
 50 48  1  0  0  0  0
 51 52  2  0  0  0  0
 51 53  1  0  0  0  0
 52 54  1  0  0  0  0
 53 55  2  0  0  0  0
 54 56  2  0  0  0  0
 55 56  1  0  0  0  0
 57 58  1  0  0  0  0
 59 58  1  0  0  0  0
 59 60  1  0  0  0  0
 61 60  1  0  0  0  0
 62 61  1  0  0  0  0
M  END
>  <REMARK>
 VINA RESULT:    -5.511      4.562      9.983
 INTER + INTRA:         -17.608
 INTER:                 -12.499
 INTRA:                  -5.108
 UNBOUND:                -6.299
 SMILES CC(=O)N[C@@H]1[C@@H](O)C[C@](O)(C(=O)O)O[C@H]1C(O)[C@H](O)CNC(=O)OCc1cn(C[C@@H](C(=O)O)C(c2ccccc2)c2ccccc2)nn1
 SMILES IDX 21 1 22 2 23 3 20 5 18 6 16 7 15 8 9 9 8 10 14 11 6 12 5 13
 SMILES IDX 10 14 11 16 12 17 13 18 7 20 4 22 2 23 1 25 3 26 17 27 19 29
 SMILES IDX 24 31 25 32 26 33 27 34 48 35 28 36 47 37 29 38 30 39 31 40
 SMILES IDX 32 41 33 42 34 44 35 45 36 46 40 47 37 48 39 49 38 50 41 51
 SMILES IDX 42 52 46 53 43 54 45 55 44 56
 H PARENT 21 4 10 15 13 19 7 21 4 24 17 28 19 30 33 43
 Flexibility Score: inf
  4 active torsions:
  status: ('A' for Active; 'I' for Inactive)
    1  A    between atoms: CA   and  CB  
    2  A    between atoms: CB   and  CG  
    3  A    between atoms: CG   and  CD  
    4  A    between atoms: CD   and  CE  

>  <TORSDO>
F 21

>  <BEGIN_>
RES LYS A 131

$$$$
ligand_47_pose_6_2HRL.pdbqt
 OpenBabel07062320523D

  6  5  0  0  0  0  0  0  0  0999 V2000
   33.1930   34.6630    9.2900 C   0  0  0  0  0  0  0  0  0  0  0  0
   32.0600   35.3600   10.0340 C   0  0  0  0  0  0  0  0  0  0  0  0
   30.8190   35.5510    9.2000 C   0  0  0  0  0  0  0  0  0  0  0  0
   30.1350   34.2170    8.9440 C   0  0  0  0  0  0  0  0  0  0  0  0
   28.6870   34.4290    8.5470 C   0  0  0  0  0  0  0  0  0  0  0  0
   27.7690   33.6700    9.4400 N   0  0  0  0  0  0  0  0  0  0  0  0
  1  2  1  0  0  0  0
  3  2  1  0  0  0  0
  4  3  1  0  0  0  0
  5  4  1  0  0  0  0
  5  6  1  0  0  0  0
M  END
>  <EGIN_R>
ES LYS A 135

>  <REMARK>
  4 active torsions:
  status: ('A' for Active; 'I' for Inactive)
    5  A    between atoms: CA   and  CB  
    6  A    between atoms: CB   and  CG  
    7  A    between atoms: CG   and  CD  
    8  A    between atoms: CD   and  CE  

$$$$
