ligand_24_pose_6_2HRL.pdbqt
 OpenBabel07062320523D

 52 53  0  0  1  0  0  0  0  0999 V2000
   25.2590   29.2500   18.0810 N   0  0  0  0  0  0  0  0  0  0  0  0
   24.9170   30.6110   18.2360 C   0  0  0  0  0  0  0  0  0  0  0  0
   24.9080   31.1950   19.3460 O   0  0  0  0  0  0  0  0  0  0  0  0
   25.2270   28.8630   17.1090 H   0  0  0  0  0  0  0  0  0  0  0  0
   25.6410   28.3870   19.1530 C   0  0  0  0  0  0  0  0  0  0  0  0
   27.1090   28.2940   19.3930 C   0  0  2  0  0  0  0  0  0  0  0  0
   27.5650   29.1380   20.5620 C   0  0  1  0  0  0  0  0  0  0  0  0
   28.7610   28.6110   21.2710 C   0  0  2  0  0  0  0  0  0  0  0  0
   30.8840   27.7380   20.9770 C   0  0  2  0  0  0  0  0  0  0  0  0
   30.6710   26.6950   22.0380 C   0  0  0  0  0  0  0  0  0  0  0  0
   29.7600   28.2170   20.3840 O   0  0  0  0  0  0  0  0  0  0  0  0
   29.4620   26.9800   22.9030 C   0  0  1  0  0  0  0  0  0  0  0  0
   28.3380   27.3220   21.9850 C   0  0  1  0  0  0  0  0  0  0  0  0
   31.6160   27.0750   19.9570 O   0  0  0  0  0  0  0  0  0  0  0  0
   30.9360   26.7530   19.3170 H   0  0  0  0  0  0  0  0  0  0  0  0
   31.7940   28.7680   21.5310 C   0  0  0  0  0  0  0  0  0  0  0  0
   32.1120   29.8100   20.8860 O   0  0  0  0  0  0  0  0  0  0  0  0
   32.3530   28.6480   22.8020 O   0  0  0  0  0  0  0  0  0  0  0  0
   33.3090   28.8950   22.9700 H   0  0  0  0  0  0  0  0  0  0  0  0
   29.2030   25.8950   23.7170 O   0  0  0  0  0  0  0  0  0  0  0  0
   30.0380   25.5000   24.0110 H   0  0  0  0  0  0  0  0  0  0  0  0
   27.0570   27.4090   22.6100 N   0  0  0  0  0  0  0  0  0  0  0  0
   25.9790   26.5450   22.3740 C   0  0  0  0  0  0  0  0  0  0  0  0
   26.9090   28.1840   23.3110 H   0  0  0  0  0  0  0  0  0  0  0  0
   24.6970   26.7420   23.0910 C   0  0  0  0  0  0  0  0  0  0  0  0
   26.0910   25.6160   21.5690 O   0  0  0  0  0  0  0  0  0  0  0  0
   27.7720   30.4320   20.1360 O   0  0  0  0  0  0  0  0  0  0  0  0
   27.5340   30.6130   19.2000 H   0  0  0  0  0  0  0  0  0  0  0  0
   27.8640   28.5070   18.2780 O   0  0  0  0  0  0  0  0  0  0  0  0
   28.6980   27.9520   18.3610 H   0  0  0  0  0  0  0  0  0  0  0  0
   24.5630   31.3690   17.1040 O   0  0  0  0  0  0  0  0  0  0  0  0
   25.5440   32.1980   16.5230 C   0  0  0  0  0  0  0  0  0  0  0  0
   26.8580   31.5360   16.4330 C   0  0  0  0  0  0  0  0  0  0  0  0
   28.0580   31.9600   17.0110 C   0  0  0  0  0  0  0  0  0  0  0  0
   27.1700   30.4020   15.7810 N   0  0  0  0  0  0  0  0  0  0  0  0
   29.0230   31.0850   16.6930 N   0  0  0  0  0  0  0  0  0  0  0  0
   28.4590   30.1530   15.9490 N   0  0  0  0  0  0  0  0  0  0  0  0
   30.4110   31.1260   17.0720 C   0  0  0  0  0  0  0  0  0  0  0  0
   31.0360   32.4140   16.7040 C   0  0  0  0  0  0  0  0  0  0  0  0
   31.2340   33.3900   17.6540 C   0  0  0  0  0  0  0  0  0  0  0  0
   31.4210   32.6380   15.4080 C   0  0  0  0  0  0  0  0  0  0  0  0
   31.8240   34.6010   17.2990 C   0  0  0  0  0  0  0  0  0  0  0  0
   32.0130   33.8450   15.0400 C   0  0  0  0  0  0  0  0  0  0  0  0
   32.2110   34.8170   15.9870 C   0  0  0  0  0  0  0  0  0  0  0  0
   32.8000   36.0370   15.6500 O   0  0  0  0  0  0  0  0  0  0  0  0
   32.0160   37.0440   15.0330 C   0  0  0  0  0  0  0  0  0  0  0  0
   29.8670   25.5550   16.9770 C   0  0  0  0  0  0  0  0  0  0  0  0
   28.3450   25.7220   17.0260 C   0  0  0  0  0  0  0  0  0  0  0  0
   27.6010   24.4050   16.8710 C   0  0  0  0  0  0  0  0  0  0  0  0
   26.6070   24.1820   17.9780 C   0  0  0  0  0  0  0  0  0  0  0  0
   25.2060   24.0640   17.3870 C   0  0  0  0  0  0  0  0  0  0  0  0
   24.5390   25.3880   17.3650 N   0  0  0  0  0  0  0  0  0  0  0  0
  1  2  1  0  0  0  0
  1  5  1  0  0  0  0
  2  3  2  0  0  0  0
  4  1  1  0  0  0  0
  6  5  1  6  0  0  0
  6  7  1  0  0  0  0
  7 27  1  6  0  0  0
  8  7  1  6  0  0  0
  8 13  1  0  0  0  0
  9 14  1  6  0  0  0
  9 16  1  0  0  0  0
  9 10  1  0  0  0  0
 10 12  1  0  0  0  0
 11  9  1  0  0  0  0
 11  8  1  0  0  0  0
 12 20  1  6  0  0  0
 13 22  1  1  0  0  0
 13 12  1  0  0  0  0
 15 14  1  0  0  0  0
 16 18  1  0  0  0  0
 17 16  2  0  0  0  0
 18 19  1  0  0  0  0
 20 21  1  0  0  0  0
 22 24  1  0  0  0  0
 23 22  1  0  0  0  0
 23 25  1  0  0  0  0
 26 23  2  0  0  0  0
 28 27  1  0  0  0  0
 29 30  1  0  0  0  0
 29  6  1  0  0  0  0
 31  2  1  0  0  0  0
 32 31  1  0  0  0  0
 33 32  1  0  0  0  0
 33 34  2  0  0  0  0
 35 37  2  0  0  0  0
 35 33  1  0  0  0  0
 36 34  1  0  0  0  0
 36 38  1  0  0  0  0
 37 36  1  0  0  0  0
 39 38  1  0  0  0  0
 39 40  2  0  0  0  0
 41 39  1  0  0  0  0
 42 40  1  0  0  0  0
 43 41  2  0  0  0  0
 43 44  1  0  0  0  0
 44 42  2  0  0  0  0
 45 44  1  0  0  0  0
 46 45  1  0  0  0  0
 47 48  1  0  0  0  0
 49 48  1  0  0  0  0
 49 50  1  0  0  0  0
 51 50  1  0  0  0  0
 52 51  1  0  0  0  0
M  END
>  <REMARK>
 VINA RESULT:    -5.242      1.695      2.469
 INTER + INTRA:         -14.961
 INTER:                  -8.898
 INTRA:                  -6.063
 UNBOUND:                -5.276
 SMILES COc1ccc(Cn2cc(COC(=O)NC[C@@H](O)C(O)[C@@H]3O[C@@](O)(C(=O)O)C[C@H](O)[C@H]3NC(C)=O)nn2)cc1
 SMILES IDX 15 1 13 2 14 3 16 5 17 6 19 7 21 8 23 9 28 10 22 11 29 12
 SMILES IDX 31 13 24 14 25 16 26 17 27 18 30 20 32 22 33 23 34 25 35 26
 SMILES IDX 20 27 18 29 12 31 11 32 10 33 9 34 36 35 8 36 37 37 7 38
 SMILES IDX 6 39 5 40 38 41 4 42 39 43 3 44 2 45 1 46
 H PARENT 15 4 24 15 27 19 30 21 32 24 20 28 18 30
 Flexibility Score: inf
  4 active torsions:
  status: ('A' for Active; 'I' for Inactive)
    1  A    between atoms: CA   and  CB  
    2  A    between atoms: CB   and  CG  
    3  A    between atoms: CG   and  CD  
    4  A    between atoms: CD   and  CE  

>  <TORSDO>
F 17

>  <BEGIN_>
RES LYS A 131

$$$$
ligand_24_pose_6_2HRL.pdbqt
 OpenBabel07062320523D

  6  5  0  0  0  0  0  0  0  0999 V2000
   33.1930   34.6630    9.2900 C   0  0  0  0  0  0  0  0  0  0  0  0
   32.0600   35.3600   10.0340 C   0  0  0  0  0  0  0  0  0  0  0  0
   30.8140   35.5360    9.2050 C   0  0  0  0  0  0  0  0  0  0  0  0
   30.0730   34.2160    9.0620 C   0  0  0  0  0  0  0  0  0  0  0  0
   28.6540   34.4500    8.5820 C   0  0  0  0  0  0  0  0  0  0  0  0
   27.6710   33.7360    9.4420 N   0  0  0  0  0  0  0  0  0  0  0  0
  1  2  1  0  0  0  0
  3  2  1  0  0  0  0
  4  3  1  0  0  0  0
  5  4  1  0  0  0  0
  5  6  1  0  0  0  0
M  END
>  <EGIN_R>
ES LYS A 135

>  <REMARK>
  4 active torsions:
  status: ('A' for Active; 'I' for Inactive)
    5  A    between atoms: CA   and  CB  
    6  A    between atoms: CB   and  CG  
    7  A    between atoms: CG   and  CD  
    8  A    between atoms: CD   and  CE  

$$$$
