ligand_8_pose_12_2HRL.pdbqt
 OpenBabel07062320523D

 50 51  0  0  1  0  0  0  0  0999 V2000
   27.9330   38.6450   11.9830 C   0  0  0  0  0  0  0  0  0  0  0  0
   27.2010   38.8550   10.6820 C   0  0  2  0  0  0  0  0  0  0  0  0
   28.0620   38.3270    9.5770 C   0  0  1  0  0  0  0  0  0  0  0  0
   27.5030   37.1470    8.8160 C   0  0  2  0  0  0  0  0  0  0  0  0
   29.2760   35.8270    8.0370 C   0  0  2  0  0  0  0  0  0  0  0  0
   28.4200   35.3080    6.8810 C   0  0  0  0  0  0  0  0  0  0  0  0
   28.4050   36.1130    9.0330 O   0  0  0  0  0  0  0  0  0  0  0  0
   27.6810   36.5080    6.3620 C   0  0  1  0  0  0  0  0  0  0  0  0
   27.1060   37.4030    7.4280 C   0  0  1  0  0  0  0  0  0  0  0  0
   30.0290   36.8610    7.5430 O   0  0  0  0  0  0  0  0  0  0  0  0
   29.4420   37.6540    7.4720 H   0  0  0  0  0  0  0  0  0  0  0  0
   30.1980   34.7440    8.4800 C   0  0  0  0  0  0  0  0  0  0  0  0
   29.8320   33.9720    9.4010 O   0  0  0  0  0  0  0  0  0  0  0  0
   31.4480   34.5690    7.8980 O   0  0  0  0  0  0  0  0  0  0  0  0
   32.1530   33.9380    8.2710 H   0  0  0  0  0  0  0  0  0  0  0  0
   28.5920   37.2290    5.5890 O   0  0  0  0  0  0  0  0  0  0  0  0
   29.2790   36.6520    5.2110 H   0  0  0  0  0  0  0  0  0  0  0  0
   25.6320   37.3240    7.3470 N   0  0  0  0  0  0  0  0  0  0  0  0
   24.8210   38.4580    7.5710 C   0  0  0  0  0  0  0  0  0  0  0  0
   25.1590   36.4030    7.1150 H   0  0  0  0  0  0  0  0  0  0  0  0
   23.3220   38.3840    7.5000 C   0  0  0  0  0  0  0  0  0  0  0  0
   25.3880   39.5480    7.8370 O   0  0  0  0  0  0  0  0  0  0  0  0
   28.5380   39.3510    8.7990 O   0  0  0  0  0  0  0  0  0  0  0  0
   29.0990   40.0040    9.3170 H   0  0  0  0  0  0  0  0  0  0  0  0
   26.9300   40.1860   10.5000 O   0  0  0  0  0  0  0  0  0  0  0  0
   26.6770   40.4050    9.5620 H   0  0  0  0  0  0  0  0  0  0  0  0
   28.6420   37.4190   12.1300 N   0  0  0  0  0  0  0  0  0  0  0  0
   28.0570   36.2060   12.5520 C   0  0  0  0  0  0  0  0  0  0  0  0
   29.6930   37.3770   11.9150 H   0  0  0  0  0  0  0  0  0  0  0  0
   26.8460   36.0910   12.8530 O   0  0  0  0  0  0  0  0  0  0  0  0
   28.8700   35.0660   12.6400 O   0  0  0  0  0  0  0  0  0  0  0  0
   28.5760   34.1380   13.6590 C   0  0  0  0  0  0  0  0  0  0  0  0
   29.8220   33.8920   14.4270 C   0  0  0  0  0  0  0  0  0  0  0  0
   30.5650   34.8900   15.0710 C   0  0  0  0  0  0  0  0  0  0  0  0
   30.5040   32.7690   14.6810 N   0  0  0  0  0  0  0  0  0  0  0  0
   31.6370   34.3450   15.6720 N   0  0  0  0  0  0  0  0  0  0  0  0
   31.5740   33.0500   15.4170 N   0  0  0  0  0  0  0  0  0  0  0  0
   32.6280   35.0440   16.4260 C   0  0  0  0  0  0  0  0  0  0  0  0
   33.6920   35.6730   15.8190 C   0  0  0  0  0  0  0  0  0  0  0  0
   32.5550   35.1160   17.8010 C   0  0  0  0  0  0  0  0  0  0  0  0
   34.6520   36.3510   16.5720 C   0  0  0  0  0  0  0  0  0  0  0  0
   33.5060   35.7890   18.5530 C   0  0  0  0  0  0  0  0  0  0  0  0
   31.0770   34.2430   18.6580 Br  0  0  0  0  0  0  0  0  0  0  0  0
   34.5720   36.4200   17.9470 C   0  0  0  0  0  0  0  0  0  0  0  0
   29.8670   25.5550   16.9770 C   0  0  0  0  0  0  0  0  0  0  0  0
   28.3450   25.7220   17.0260 C   0  0  0  0  0  0  0  0  0  0  0  0
   27.6010   24.4010   16.8990 C   0  0  0  0  0  0  0  0  0  0  0  0
   26.1510   24.5300   17.2730 C   0  0  0  0  0  0  0  0  0  0  0  0
   25.7800   23.4270   18.2590 C   0  0  0  0  0  0  0  0  0  0  0  0
   25.1040   22.3100   17.5580 N   0  0  0  0  0  0  0  0  0  0  0  0
  1 27  1  0  0  0  0
  2  1  1  1  0  0  0
  3 23  1  6  0  0  0
  3  2  1  0  0  0  0
  4  7  1  0  0  0  0
  4  3  1  6  0  0  0
  5 10  1  6  0  0  0
  5 12  1  0  0  0  0
  5  7  1  0  0  0  0
  6  5  1  0  0  0  0
  8 16  1  1  0  0  0
  8  6  1  0  0  0  0
  8  9  1  0  0  0  0
  9 18  1  1  0  0  0
  9  4  1  0  0  0  0
 11 10  1  0  0  0  0
 12 13  2  0  0  0  0
 14 15  1  0  0  0  0
 14 12  1  0  0  0  0
 17 16  1  0  0  0  0
 18 19  1  0  0  0  0
 19 22  2  0  0  0  0
 20 18  1  0  0  0  0
 21 19  1  0  0  0  0
 23 24  1  0  0  0  0
 25  2  1  0  0  0  0
 26 25  1  0  0  0  0
 27 28  1  0  0  0  0
 28 31  1  0  0  0  0
 28 30  2  0  0  0  0
 29 27  1  0  0  0  0
 31 32  1  0  0  0  0
 32 33  1  0  0  0  0
 33 35  1  0  0  0  0
 33 34  2  0  0  0  0
 34 36  1  0  0  0  0
 35 37  2  0  0  0  0
 36 38  1  0  0  0  0
 37 36  1  0  0  0  0
 38 40  1  0  0  0  0
 39 38  2  0  0  0  0
 39 41  1  0  0  0  0
 40 42  2  0  0  0  0
 40 43  1  0  0  0  0
 41 44  2  0  0  0  0
 44 42  1  0  0  0  0
 45 46  1  0  0  0  0
 47 46  1  0  0  0  0
 47 48  1  0  0  0  0
 48 49  1  0  0  0  0
 50 49  1  0  0  0  0
M  END
>  <REMARK>
 VINA RESULT:    -5.492      6.172     11.456
 INTER + INTRA:         -13.902
 INTER:                 -10.099
 INTRA:                  -3.803
 UNBOUND:                -4.396
 SMILES CC(=O)N[C@@H]1[C@@H](O)C[C@](O)(C(=O)O)O[C@H]1C(O)[C@H](O)CNC(=O)OCc1cn(-c2ccccc2Br)nn1
 SMILES IDX 20 1 18 2 16 3 15 4 9 5 8 6 14 7 6 8 5 9 10 10 11 12 12 13
 SMILES IDX 13 14 7 16 4 18 2 19 1 21 3 22 17 23 19 25 21 27 22 28 23 30
 SMILES IDX 24 31 25 32 26 33 27 34 37 35 28 36 36 37 29 38 30 39 34 40
 SMILES IDX 31 41 33 42 35 43 32 44
 H PARENT 10 11 13 15 7 17 4 20 17 24 19 26 21 29
 Flexibility Score: inf
  4 active torsions:
  status: ('A' for Active; 'I' for Inactive)
    1  A    between atoms: CA   and  CB  
    2  A    between atoms: CB   and  CG  
    3  A    between atoms: CG   and  CD  
    4  A    between atoms: CD   and  CE  

>  <TORSDO>
F 15

>  <BEGIN_>
RES LYS A 131

$$$$
ligand_8_pose_12_2HRL.pdbqt
 OpenBabel07062320523D

  6  5  0  0  0  0  0  0  0  0999 V2000
   33.1930   34.6630    9.2900 C   0  0  0  0  0  0  0  0  0  0  0  0
   32.0600   35.3600   10.0340 C   0  0  0  0  0  0  0  0  0  0  0  0
   32.3620   35.6160   11.4880 C   0  0  0  0  0  0  0  0  0  0  0  0
   32.1370   37.0800   11.8330 C   0  0  0  0  0  0  0  0  0  0  0  0
   31.8220   37.8800   10.5830 C   0  0  0  0  0  0  0  0  0  0  0  0
   31.4930   39.2930   10.9190 N   0  0  0  0  0  0  0  0  0  0  0  0
  1  2  1  0  0  0  0
  2  3  1  0  0  0  0
  3  4  1  0  0  0  0
  5  6  1  0  0  0  0
  5  4  1  0  0  0  0
M  END
>  <EGIN_R>
ES LYS A 135

>  <REMARK>
  4 active torsions:
  status: ('A' for Active; 'I' for Inactive)
    5  A    between atoms: CA   and  CB  
    6  A    between atoms: CB   and  CG  
    7  A    between atoms: CG   and  CD  
    8  A    between atoms: CD   and  CE  

$$$$
