ligand_5_pose_17_2HRL.pdbqt
 OpenBabel07062320523D

 51 52  0  0  1  0  0  0  0  0999 V2000
   29.1470   27.3730   19.9220 N   0  0  0  0  0  0  0  0  0  0  0  0
   27.7890   27.3680   19.5370 C   0  0  0  0  0  0  0  0  0  0  0  0
   26.8640   27.3540   20.3630 O   0  0  0  0  0  0  0  0  0  0  0  0
   29.8380   27.3570   19.1040 H   0  0  0  0  0  0  0  0  0  0  0  0
   29.7000   27.3950   21.2150 C   0  0  0  0  0  0  0  0  0  0  0  0
   31.0850   27.8160   21.4140 C   0  0  2  0  0  0  0  0  0  0  0  0
   31.5800   29.0150   20.7750 C   0  0  1  0  0  0  0  0  0  0  0  0
   31.1230   30.3560   21.3900 C   0  0  2  0  0  0  0  0  0  0  0  0
   30.3230   30.8060   23.5620 C   0  0  2  0  0  0  0  0  0  0  0  0
   28.8720   30.8030   23.0570 C   0  0  0  0  0  0  0  0  0  0  0  0
   31.0280   30.0320   22.7320 O   0  0  0  0  0  0  0  0  0  0  0  0
   28.8940   31.4990   21.7510 C   0  0  1  0  0  0  0  0  0  0  0  0
   29.9410   30.9420   20.7690 C   0  0  1  0  0  0  0  0  0  0  0  0
   30.2350   30.0750   24.7790 O   0  0  0  0  0  0  0  0  0  0  0  0
   29.3680   30.2350   25.2250 H   0  0  0  0  0  0  0  0  0  0  0  0
   30.8310   32.1270   23.8770 C   0  0  0  0  0  0  0  0  0  0  0  0
   30.1040   32.9620   24.4710 O   0  0  0  0  0  0  0  0  0  0  0  0
   32.1100   32.5980   23.5740 O   0  0  0  0  0  0  0  0  0  0  0  0
   32.2650   33.4160   22.9800 H   0  0  0  0  0  0  0  0  0  0  0  0
   27.6660   31.4660   21.0730 O   0  0  0  0  0  0  0  0  0  0  0  0
   27.4360   30.4860   21.0090 H   0  0  0  0  0  0  0  0  0  0  0  0
   30.1320   32.0470   19.8820 N   0  0  0  0  0  0  0  0  0  0  0  0
   31.1620   32.9880   19.8980 C   0  0  0  0  0  0  0  0  0  0  0  0
   29.3900   32.1470   19.1260 H   0  0  0  0  0  0  0  0  0  0  0  0
   31.2250   34.1000   18.9000 C   0  0  0  0  0  0  0  0  0  0  0  0
   32.0230   32.8680   20.7760 O   0  0  0  0  0  0  0  0  0  0  0  0
   32.9680   28.9730   20.6790 O   0  0  0  0  0  0  0  0  0  0  0  0
   33.4120   29.3670   21.4720 H   0  0  0  0  0  0  0  0  0  0  0  0
   31.9510   26.6970   21.2530 O   0  0  0  0  0  0  0  0  0  0  0  0
   32.5510   26.8450   20.4760 H   0  0  0  0  0  0  0  0  0  0  0  0
   27.4180   27.3800   18.1760 O   0  0  0  0  0  0  0  0  0  0  0  0
   26.4490   28.2950   17.7280 C   0  0  0  0  0  0  0  0  0  0  0  0
   27.0180   29.6510   17.7060 C   0  0  0  0  0  0  0  0  0  0  0  0
   28.0030   30.0620   16.8010 C   0  0  0  0  0  0  0  0  0  0  0  0
   26.7730   30.7220   18.4550 N   0  0  0  0  0  0  0  0  0  0  0  0
   28.2980   31.3510   17.0500 N   0  0  0  0  0  0  0  0  0  0  0  0
   27.5240   31.7180   18.0690 N   0  0  0  0  0  0  0  0  0  0  0  0
   29.2420   32.1660   16.3700 C   0  0  0  0  0  0  0  0  0  0  0  0
   28.9450   33.4240   15.8980 C   0  0  0  0  0  0  0  0  0  0  0  0
   30.5440   31.7080   16.1510 C   0  0  0  0  0  0  0  0  0  0  0  0
   29.8830   34.2080   15.2370 C   0  0  0  0  0  0  0  0  0  0  0  0
   31.4740   32.4890   15.4930 C   0  0  0  0  0  0  0  0  0  0  0  0
   31.1600   33.7440   15.0290 C   0  0  0  0  0  0  0  0  0  0  0  0
   32.0760   34.5160   14.3800 O   0  0  0  0  0  0  0  0  0  0  0  0
   31.6670   35.3590   13.3240 C   0  0  0  0  0  0  0  0  0  0  0  0
   29.8670   25.5550   16.9770 C   0  0  0  0  0  0  0  0  0  0  0  0
   28.3450   25.7220   17.0260 C   0  0  0  0  0  0  0  0  0  0  0  0
   27.5990   24.4270   16.7430 C   0  0  0  0  0  0  0  0  0  0  0  0
   27.0040   23.8330   17.9890 C   0  0  0  0  0  0  0  0  0  0  0  0
   25.5970   24.3850   18.1950 C   0  0  0  0  0  0  0  0  0  0  0  0
   24.8650   24.4320   16.9070 N   0  0  0  0  0  0  0  0  0  0  0  0
  1  5  1  0  0  0  0
  2  1  1  0  0  0  0
  2  3  2  0  0  0  0
  4  1  1  0  0  0  0
  6  5  1  6  0  0  0
  7 27  1  1  0  0  0
  7  6  1  0  0  0  0
  8  7  1  6  0  0  0
  8 11  1  0  0  0  0
  9 16  1  1  0  0  0
  9 14  1  0  0  0  0
 10  9  1  0  0  0  0
 11  9  1  0  0  0  0
 12 20  1  6  0  0  0
 12 10  1  0  0  0  0
 13 22  1  6  0  0  0
 13  8  1  0  0  0  0
 13 12  1  0  0  0  0
 14 15  1  0  0  0  0
 16 17  2  0  0  0  0
 18 16  1  0  0  0  0
 19 18  1  0  0  0  0
 21 20  1  0  0  0  0
 22 23  1  0  0  0  0
 23 26  2  0  0  0  0
 24 22  1  0  0  0  0
 25 23  1  0  0  0  0
 27 28  1  0  0  0  0
 29  6  1  0  0  0  0
 30 29  1  0  0  0  0
 31  2  1  0  0  0  0
 32 31  1  0  0  0  0
 33 32  1  0  0  0  0
 33 35  1  0  0  0  0
 34 36  1  0  0  0  0
 34 33  2  0  0  0  0
 36 37  1  0  0  0  0
 37 35  2  0  0  0  0
 38 36  1  0  0  0  0
 39 38  2  0  0  0  0
 40 38  1  0  0  0  0
 41 39  1  0  0  0  0
 42 40  2  0  0  0  0
 43 41  2  0  0  0  0
 43 42  1  0  0  0  0
 44 43  1  0  0  0  0
 45 44  1  0  0  0  0
 46 47  1  0  0  0  0
 48 47  1  0  0  0  0
 48 49  1  0  0  0  0
 49 50  1  0  0  0  0
 51 50  1  0  0  0  0
M  END
>  <REMARK>
 VINA RESULT:    -4.835      2.658      3.570
 INTER + INTRA:         -13.877
 INTER:                  -7.910
 INTRA:                  -5.967
 UNBOUND:                -5.226
 SMILES COc1ccc(-n2cc(COC(=O)NC[C@@H](O)C(O)[C@@H]3O[C@@](O)(C(=O)O)C[C@H](O)[C@H]3NC(C)=O)nn2)cc1
 SMILES IDX 14 1 12 2 13 3 15 5 16 6 18 7 20 8 22 9 27 10 21 11 28 12
 SMILES IDX 30 13 23 14 24 16 25 17 26 18 29 20 31 22 32 23 33 25 34 26
 SMILES IDX 19 27 17 29 11 31 10 32 9 33 8 34 35 35 7 36 36 37 6 38 5 39
 SMILES IDX 37 40 4 41 38 42 3 43 2 44 1 45
 H PARENT 14 4 23 15 26 19 29 21 31 24 19 28 17 30
 Flexibility Score: inf
  4 active torsions:
  status: ('A' for Active; 'I' for Inactive)
    1  A    between atoms: CA   and  CB  
    2  A    between atoms: CB   and  CG  
    3  A    between atoms: CG   and  CD  
    4  A    between atoms: CD   and  CE  

>  <TORSDO>
F 16

>  <BEGIN_>
RES LYS A 131

$$$$
ligand_5_pose_17_2HRL.pdbqt
 OpenBabel07062320523D

  6  5  0  0  0  0  0  0  0  0999 V2000
   33.1930   34.6630    9.2900 C   0  0  0  0  0  0  0  0  0  0  0  0
   32.0600   35.3600   10.0340 C   0  0  0  0  0  0  0  0  0  0  0  0
   30.7060   34.7510    9.7760 C   0  0  0  0  0  0  0  0  0  0  0  0
   30.4970   34.5170    8.2880 C   0  0  0  0  0  0  0  0  0  0  0  0
   29.0830   34.8880    7.8840 C   0  0  0  0  0  0  0  0  0  0  0  0
   28.2920   35.3480    9.0590 N   0  0  0  0  0  0  0  0  0  0  0  0
  1  2  1  0  0  0  0
  3  2  1  0  0  0  0
  4  3  1  0  0  0  0
  5  4  1  0  0  0  0
  5  6  1  0  0  0  0
M  END
>  <EGIN_R>
ES LYS A 135

>  <REMARK>
  4 active torsions:
  status: ('A' for Active; 'I' for Inactive)
    5  A    between atoms: CA   and  CB  
    6  A    between atoms: CB   and  CG  
    7  A    between atoms: CG   and  CD  
    8  A    between atoms: CD   and  CE  

$$$$
