ligand_23_pose_13_2HRL.pdbqt
 OpenBabel07062320523D

 55 56  0  0  1  0  0  0  0  0999 V2000
   26.4580   37.9550   14.6740 N   0  0  0  0  0  0  0  0  0  0  0  0
   25.4330   37.1930   15.2910 C   0  0  0  0  0  0  0  0  0  0  0  0
   25.7460   36.1740   15.9300 O   0  0  0  0  0  0  0  0  0  0  0  0
   26.1200   38.8080   14.1490 H   0  0  0  0  0  0  0  0  0  0  0  0
   27.8520   37.6010   14.7530 C   0  0  0  0  0  0  0  0  0  0  0  0
   28.2250   36.6180   13.6640 C   0  0  2  0  0  0  0  0  0  0  0  0
   29.5660   35.9820   14.0030 C   0  0  1  0  0  0  0  0  0  0  0  0
   29.4060   34.4650   13.9510 C   0  0  2  0  0  0  0  0  0  0  0  0
   27.9090   33.4240   15.3820 C   0  0  2  0  0  0  0  0  0  0  0  0
   28.7500   32.1740   15.4910 C   0  0  0  0  0  0  0  0  0  0  0  0
   28.1170   34.1090   14.2020 O   0  0  0  0  0  0  0  0  0  0  0  0
   30.1170   32.3360   14.9190 C   0  0  1  0  0  0  0  0  0  0  0  0
   30.4320   33.8300   14.8410 C   0  0  1  0  0  0  0  0  0  0  0  0
   28.1050   34.2770   16.4650 O   0  0  0  0  0  0  0  0  0  0  0  0
   29.0960   34.3840   16.6130 H   0  0  0  0  0  0  0  0  0  0  0  0
   26.4860   32.9920   15.4010 C   0  0  0  0  0  0  0  0  0  0  0  0
   26.0950   32.0370   16.1210 O   0  0  0  0  0  0  0  0  0  0  0  0
   25.5150   33.6240   14.6220 O   0  0  0  0  0  0  0  0  0  0  0  0
   24.8030   34.1990   15.0560 H   0  0  0  0  0  0  0  0  0  0  0  0
   31.1060   31.6650   15.6160 O   0  0  0  0  0  0  0  0  0  0  0  0
   30.8030   31.3310   16.5080 H   0  0  0  0  0  0  0  0  0  0  0  0
   31.7290   34.0060   14.2100 N   0  0  0  0  0  0  0  0  0  0  0  0
   32.8380   34.5890   14.8920 C   0  0  0  0  0  0  0  0  0  0  0  0
   31.8540   33.6900   13.2090 H   0  0  0  0  0  0  0  0  0  0  0  0
   34.1170   34.7180   14.1480 C   0  0  0  0  0  0  0  0  0  0  0  0
   32.6740   34.9540   16.0690 O   0  0  0  0  0  0  0  0  0  0  0  0
   30.4690   36.3560   13.0230 O   0  0  0  0  0  0  0  0  0  0  0  0
   31.1560   35.6620   12.8840 H   0  0  0  0  0  0  0  0  0  0  0  0
   28.3270   37.3260   12.4540 O   0  0  0  0  0  0  0  0  0  0  0  0
   29.0550   38.0210   12.5060 H   0  0  0  0  0  0  0  0  0  0  0  0
   24.0880   37.5640   15.1940 O   0  0  0  0  0  0  0  0  0  0  0  0
   23.4640   37.7340   13.9380 C   0  0  0  0  0  0  0  0  0  0  0  0
   23.9880   36.7390   12.9700 C   0  0  0  0  0  0  0  0  0  0  0  0
   24.7830   37.0370   11.8800 C   0  0  0  0  0  0  0  0  0  0  0  0
   23.8080   35.4130   12.9510 N   0  0  0  0  0  0  0  0  0  0  0  0
   25.0280   35.8620   11.2790 N   0  0  0  0  0  0  0  0  0  0  0  0
   24.4390   34.8670   11.9220 N   0  0  0  0  0  0  0  0  0  0  0  0
   25.8140   35.6870   10.1020 C   0  0  0  0  0  0  0  0  0  0  0  0
   26.0020   36.6890    9.1750 C   0  0  0  0  0  0  0  0  0  0  0  0
   26.4300   34.4730    9.8460 C   0  0  0  0  0  0  0  0  0  0  0  0
   26.7720   36.5090    8.0270 C   0  0  0  0  0  0  0  0  0  0  0  0
   27.1910   34.2730    8.7270 C   0  0  0  0  0  0  0  0  0  0  0  0
   27.3600   35.2920    7.8200 C   0  0  0  0  0  0  0  0  0  0  0  0
   27.0040   37.7740    6.8630 S   0  0  0  0  0  0  0  0  0  0  0  0
   28.2650   38.5180    7.2200 O   0  0  0  0  0  0  0  0  0  0  0  0
   25.8740   38.7700    6.9770 O   0  0  0  0  0  0  0  0  0  0  0  0
   27.1460   37.1550    5.2680 N   0  0  0  0  0  0  0  0  0  0  0  0
   26.8980   37.8910    4.5840 H   0  0  0  0  0  0  0  0  0  0  0  0
   26.5810   36.2930    5.1230 H   0  0  0  0  0  0  0  0  0  0  0  0
   29.8670   25.5550   16.9770 C   0  0  0  0  0  0  0  0  0  0  0  0
   28.3450   25.7220   17.0260 C   0  0  0  0  0  0  0  0  0  0  0  0
   27.5990   24.4190   16.7820 C   0  0  0  0  0  0  0  0  0  0  0  0
   26.8340   23.9690   17.9960 C   0  0  0  0  0  0  0  0  0  0  0  0
   25.4810   23.4110   17.5660 C   0  0  0  0  0  0  0  0  0  0  0  0
   24.6990   24.4440   16.8460 N   0  0  0  0  0  0  0  0  0  0  0  0
  1  5  1  0  0  0  0
  1  2  1  0  0  0  0
  2  3  2  0  0  0  0
  4  1  1  0  0  0  0
  6  7  1  0  0  0  0
  6  5  1  1  0  0  0
  7 27  1  6  0  0  0
  8  7  1  1  0  0  0
  8 11  1  0  0  0  0
  8 13  1  0  0  0  0
  9 16  1  1  0  0  0
  9 10  1  0  0  0  0
  9 14  1  0  0  0  0
 11  9  1  0  0  0  0
 12 10  1  0  0  0  0
 12 20  1  1  0  0  0
 13 22  1  6  0  0  0
 13 12  1  0  0  0  0
 14 15  1  0  0  0  0
 16 17  2  0  0  0  0
 18 19  1  0  0  0  0
 18 16  1  0  0  0  0
 20 21  1  0  0  0  0
 22 23  1  0  0  0  0
 23 26  2  0  0  0  0
 24 22  1  0  0  0  0
 25 23  1  0  0  0  0
 28 27  1  0  0  0  0
 29 30  1  0  0  0  0
 29  6  1  0  0  0  0
 31  2  1  0  0  0  0
 32 31  1  0  0  0  0
 33 32  1  0  0  0  0
 34 33  2  0  0  0  0
 35 33  1  0  0  0  0
 36 34  1  0  0  0  0
 36 37  1  0  0  0  0
 37 35  2  0  0  0  0
 38 36  1  0  0  0  0
 39 38  2  0  0  0  0
 40 38  1  0  0  0  0
 41 39  1  0  0  0  0
 42 40  2  0  0  0  0
 43 41  2  0  0  0  0
 43 42  1  0  0  0  0
 44 46  2  0  0  0  0
 44 45  2  0  0  0  0
 44 41  1  0  0  0  0
 47 44  1  0  0  0  0
 48 47  1  0  0  0  0
 49 47  1  0  0  0  0
 50 51  1  0  0  0  0
 52 51  1  0  0  0  0
 52 53  1  0  0  0  0
 54 53  1  0  0  0  0
 55 54  1  0  0  0  0
M  END
>  <REMARK>
 VINA RESULT:    -4.249      3.241      7.859
 INTER + INTRA:         -14.350
 INTER:                  -9.082
 INTRA:                  -5.268
 UNBOUND:                -6.624
 SMILES CC(=O)N[C@@H]1[C@@H](O)C[C@](O)(C(=O)O)O[C@H]1C(O)[C@H](O)CNC(=O)OCc1cn(-c2cccc(S(N)(=O)=O)c2)nn1
 SMILES IDX 21 1 22 2 23 3 20 5 18 6 16 7 15 8 9 9 8 10 14 11 6 12 5 13
 SMILES IDX 10 14 11 16 12 17 13 18 7 20 4 22 2 23 1 25 3 26 17 27 19 29
 SMILES IDX 24 31 25 32 26 33 27 34 40 35 28 36 39 37 29 38 38 39 30 40
 SMILES IDX 33 41 31 42 32 43 34 44 36 45 37 46 35 47
 H PARENT 21 4 10 15 13 19 7 21 4 24 17 28 19 30 35 48 35 49
 Flexibility Score: inf
  4 active torsions:
  status: ('A' for Active; 'I' for Inactive)
    1  A    between atoms: CA   and  CB  
    2  A    between atoms: CB   and  CG  
    3  A    between atoms: CG   and  CD  
    4  A    between atoms: CD   and  CE  

>  <TORSDO>
F 17

>  <BEGIN_>
RES LYS A 131

$$$$
ligand_23_pose_13_2HRL.pdbqt
 OpenBabel07062320523D

  6  5  0  0  0  0  0  0  0  0999 V2000
   33.1930   34.6630    9.2900 C   0  0  0  0  0  0  0  0  0  0  0  0
   32.0600   35.3600   10.0340 C   0  0  0  0  0  0  0  0  0  0  0  0
   30.8020   35.5030    9.2180 C   0  0  0  0  0  0  0  0  0  0  0  0
   30.1630   36.8640    9.4500 C   0  0  0  0  0  0  0  0  0  0  0  0
   31.1980   37.8630    9.9310 C   0  0  0  0  0  0  0  0  0  0  0  0
   30.9920   39.1960    9.3000 N   0  0  0  0  0  0  0  0  0  0  0  0
  1  2  1  0  0  0  0
  3  4  1  0  0  0  0
  3  2  1  0  0  0  0
  4  5  1  0  0  0  0
  6  5  1  0  0  0  0
M  END
>  <EGIN_R>
ES LYS A 135

>  <REMARK>
  4 active torsions:
  status: ('A' for Active; 'I' for Inactive)
    5  A    between atoms: CA   and  CB  
    6  A    between atoms: CB   and  CG  
    7  A    between atoms: CG   and  CD  
    8  A    between atoms: CD   and  CE  

$$$$
