ligand_52_pose_7_2HRL.pdbqt
 OpenBabel07062320523D

 49 50  0  0  1  0  0  0  0  0999 V2000
   28.1340   30.7310   15.7050 C   0  0  0  0  0  0  0  0  0  0  0  0
   28.6720   31.9730   16.3140 C   0  0  2  0  0  0  0  0  0  0  0  0
   30.1280   31.9280   16.5820 C   0  0  2  0  0  0  0  0  0  0  0  0
   30.9350   33.1530   16.3270 C   0  0  2  0  0  0  0  0  0  0  0  0
   32.2840   34.2950   14.9080 C   0  0  2  0  0  0  0  0  0  0  0  0
   32.6120   35.2790   15.9740 C   0  0  0  0  0  0  0  0  0  0  0  0
   31.8470   33.0520   15.3270 O   0  0  0  0  0  0  0  0  0  0  0  0
   31.8250   35.1970   17.2350 C   0  0  1  0  0  0  0  0  0  0  0  0
   31.5670   33.7000   17.5760 C   0  0  1  0  0  0  0  0  0  0  0  0
   33.5240   34.0440   14.2370 O   0  0  0  0  0  0  0  0  0  0  0  0
   33.6400   33.0690   14.3050 H   0  0  0  0  0  0  0  0  0  0  0  0
   31.3800   34.8430   13.8720 C   0  0  0  0  0  0  0  0  0  0  0  0
   30.9340   36.0110   13.9910 O   0  0  0  0  0  0  0  0  0  0  0  0
   30.9670   34.1540   12.7390 O   0  0  0  0  0  0  0  0  0  0  0  0
   31.1100   34.6390   11.8450 H   0  0  0  0  0  0  0  0  0  0  0  0
   32.5590   35.6880   18.3150 O   0  0  0  0  0  0  0  0  0  0  0  0
   32.6860   36.6640   18.2100 H   0  0  0  0  0  0  0  0  0  0  0  0
   30.5830   33.7200   18.6240 N   0  0  0  0  0  0  0  0  0  0  0  0
   30.8850   33.5460   19.9940 C   0  0  0  0  0  0  0  0  0  0  0  0
   29.5710   33.8750   18.3710 H   0  0  0  0  0  0  0  0  0  0  0  0
   29.7990   33.5830   20.9990 C   0  0  0  0  0  0  0  0  0  0  0  0
   32.0720   33.3610   20.3440 O   0  0  0  0  0  0  0  0  0  0  0  0
   30.7410   30.7390   16.2350 O   0  0  0  0  0  0  0  0  0  0  0  0
   30.1690   30.0400   15.8820 H   0  0  0  0  0  0  0  0  0  0  0  0
   28.0480   32.1980   17.5660 O   0  0  0  0  0  0  0  0  0  0  0  0
   28.4850   32.9770   17.9660 H   0  0  0  0  0  0  0  0  0  0  0  0
   28.1320   29.5560   16.5250 N   0  0  0  0  0  0  0  0  0  0  0  0
   27.0120   28.8960   17.0150 C   0  0  0  0  0  0  0  0  0  0  0  0
   29.0760   29.1360   16.7900 H   0  0  0  0  0  0  0  0  0  0  0  0
   25.8650   29.2980   16.7790 O   0  0  0  0  0  0  0  0  0  0  0  0
   27.0930   27.7380   17.8080 O   0  0  0  0  0  0  0  0  0  0  0  0
   27.0910   27.8270   19.2150 C   0  0  0  0  0  0  0  0  0  0  0  0
   28.2430   28.5990   19.7170 C   0  0  0  0  0  0  0  0  0  0  0  0
   29.2810   28.0280   20.4360 C   0  0  0  0  0  0  0  0  0  0  0  0
   28.5460   29.8940   19.6200 N   0  0  0  0  0  0  0  0  0  0  0  0
   30.1690   28.9880   20.7460 N   0  0  0  0  0  0  0  0  0  0  0  0
   29.7120   30.1080   20.2470 N   0  0  0  0  0  0  0  0  0  0  0  0
   31.3870   28.8340   21.4820 C   0  0  0  0  0  0  0  0  0  0  0  0
   31.6160   27.7220   22.2730 C   0  0  0  0  0  0  0  0  0  0  0  0
   32.3620   29.8080   21.4090 C   0  0  0  0  0  0  0  0  0  0  0  0
   32.8210   27.6160   22.9710 C   0  0  0  0  0  0  0  0  0  0  0  0
   33.5280   29.6790   22.1010 N   0  0  0  0  0  0  0  0  0  0  0  0
   33.7790   28.6100   22.8780 C   0  0  0  0  0  0  0  0  0  0  0  0
   29.8670   25.5550   16.9770 C   0  0  0  0  0  0  0  0  0  0  0  0
   28.3450   25.7220   17.0260 C   0  0  0  0  0  0  0  0  0  0  0  0
   27.6010   24.4060   16.8620 C   0  0  0  0  0  0  0  0  0  0  0  0
   26.5640   24.2040   17.9330 C   0  0  0  0  0  0  0  0  0  0  0  0
   25.2160   24.7210   17.4410 C   0  0  0  0  0  0  0  0  0  0  0  0
   24.3760   23.6000   16.9570 N   0  0  0  0  0  0  0  0  0  0  0  0
  1 27  1  0  0  0  0
  2  1  1  1  0  0  0
  2  3  1  0  0  0  0
  2 25  1  0  0  0  0
  3 23  1  6  0  0  0
  4  3  1  1  0  0  0
  4  9  1  0  0  0  0
  5 12  1  6  0  0  0
  5  7  1  0  0  0  0
  5  6  1  0  0  0  0
  6  8  1  0  0  0  0
  7  4  1  0  0  0  0
  8  9  1  0  0  0  0
  8 16  1  1  0  0  0
  9 18  1  1  0  0  0
 10 11  1  0  0  0  0
 10  5  1  0  0  0  0
 12 13  2  0  0  0  0
 14 12  1  0  0  0  0
 15 14  1  0  0  0  0
 17 16  1  0  0  0  0
 18 19  1  0  0  0  0
 19 22  2  0  0  0  0
 19 21  1  0  0  0  0
 20 18  1  0  0  0  0
 24 23  1  0  0  0  0
 25 26  1  0  0  0  0
 27 29  1  0  0  0  0
 27 28  1  0  0  0  0
 28 31  1  0  0  0  0
 30 28  2  0  0  0  0
 31 32  1  0  0  0  0
 32 33  1  0  0  0  0
 33 34  2  0  0  0  0
 34 36  1  0  0  0  0
 35 33  1  0  0  0  0
 35 37  2  0  0  0  0
 36 38  1  0  0  0  0
 37 36  1  0  0  0  0
 38 39  1  0  0  0  0
 39 41  2  0  0  0  0
 40 38  2  0  0  0  0
 40 42  1  0  0  0  0
 42 43  2  0  0  0  0
 43 41  1  0  0  0  0
 44 45  1  0  0  0  0
 46 45  1  0  0  0  0
 46 47  1  0  0  0  0
 48 47  1  0  0  0  0
 49 48  1  0  0  0  0
M  END
>  <REMARK>
 VINA RESULT:    -5.078      2.261      5.954
 INTER + INTRA:         -13.952
 INTER:                  -8.481
 INTRA:                  -5.471
 UNBOUND:                -5.164
 SMILES CC(=O)N[C@@H]1[C@@H](O)C[C@](O)(C(=O)O)O[C@H]1C(O)[C@H](O)CNC(=O)OCc1cn(-c2cccnc2)nn1
 SMILES IDX 20 1 18 2 16 3 15 4 9 5 8 6 14 7 6 8 5 9 10 10 11 12 12 13
 SMILES IDX 13 14 7 16 4 18 2 19 1 21 3 22 17 23 19 25 21 27 22 28 23 30
 SMILES IDX 24 31 25 32 26 33 27 34 36 35 28 36 35 37 29 38 30 39 34 40
 SMILES IDX 31 41 33 42 32 43
 H PARENT 10 11 13 15 7 17 4 20 17 24 19 26 21 29
 Flexibility Score: inf
  4 active torsions:
  status: ('A' for Active; 'I' for Inactive)
    1  A    between atoms: CA   and  CB  
    2  A    between atoms: CB   and  CG  
    3  A    between atoms: CG   and  CD  
    4  A    between atoms: CD   and  CE  

>  <TORSDO>
F 15

>  <BEGIN_>
RES LYS A 131

$$$$
ligand_52_pose_7_2HRL.pdbqt
 OpenBabel07062320523D

  6  5  0  0  0  0  0  0  0  0999 V2000
   33.1930   34.6630    9.2900 C   0  0  0  0  0  0  0  0  0  0  0  0
   32.0600   35.3600   10.0340 C   0  0  0  0  0  0  0  0  0  0  0  0
   30.7770   35.4310    9.2470 C   0  0  0  0  0  0  0  0  0  0  0  0
   30.2350   34.0360    8.9770 C   0  0  0  0  0  0  0  0  0  0  0  0
   28.7400   33.9880    9.2280 C   0  0  0  0  0  0  0  0  0  0  0  0
   28.3980   34.5810   10.5510 N   0  0  0  0  0  0  0  0  0  0  0  0
  1  2  1  0  0  0  0
  3  2  1  0  0  0  0
  4  5  1  0  0  0  0
  4  3  1  0  0  0  0
  5  6  1  0  0  0  0
M  END
>  <EGIN_R>
ES LYS A 135

>  <REMARK>
  4 active torsions:
  status: ('A' for Active; 'I' for Inactive)
    5  A    between atoms: CA   and  CB  
    6  A    between atoms: CB   and  CG  
    7  A    between atoms: CG   and  CD  
    8  A    between atoms: CD   and  CE  

$$$$
