ligand_17_pose_16_2HRL.pdbqt
 OpenBabel07062320523D

 50 50  0  0  1  0  0  0  0  0999 V2000
   29.2720   36.6930    6.0980 N   0  0  0  0  0  0  0  0  0  0  0  0
   28.6250   35.6250    6.7920 C   0  0  0  0  0  0  0  0  0  0  0  0
   27.4000   35.4530    6.6710 O   0  0  0  0  0  0  0  0  0  0  0  0
   30.2920   36.7770    6.2470 H   0  0  0  0  0  0  0  0  0  0  0  0
   28.5900   37.6140    5.2420 C   0  0  0  0  0  0  0  0  0  0  0  0
   27.8950   38.7270    5.9730 C   0  0  2  0  0  0  0  0  0  0  0  0
   28.6570   39.0890    7.2290 C   0  0  1  0  0  0  0  0  0  0  0  0
   29.3830   40.3950    7.0780 C   0  0  2  0  0  0  0  0  0  0  0  0
   31.5100   39.6010    7.6980 C   0  0  2  0  0  0  0  0  0  0  0  0
   31.2890   40.1880    9.0860 C   0  0  0  0  0  0  0  0  0  0  0  0
   30.6920   40.1440    6.7510 O   0  0  0  0  0  0  0  0  0  0  0  0
   30.5980   41.5390    8.8760 C   0  0  1  0  0  0  0  0  0  0  0  0
   29.2640   41.2620    8.2820 C   0  0  1  0  0  0  0  0  0  0  0  0
   31.4440   38.2160    7.8210 O   0  0  0  0  0  0  0  0  0  0  0  0
   32.1020   37.7720    7.2150 H   0  0  0  0  0  0  0  0  0  0  0  0
   32.9110   39.9420    7.2950 C   0  0  0  0  0  0  0  0  0  0  0  0
   33.1650   40.7890    6.4110 O   0  0  0  0  0  0  0  0  0  0  0  0
   33.9570   39.2990    7.9220 O   0  0  0  0  0  0  0  0  0  0  0  0
   34.7500   39.7840    8.3310 H   0  0  0  0  0  0  0  0  0  0  0  0
   30.5300   42.1740   10.1160 O   0  0  0  0  0  0  0  0  0  0  0  0
   31.1470   41.6550   10.7240 H   0  0  0  0  0  0  0  0  0  0  0  0
   28.4870   42.4630    8.0390 N   0  0  0  0  0  0  0  0  0  0  0  0
   27.1170   42.5930    8.4040 C   0  0  0  0  0  0  0  0  0  0  0  0
   28.9160   43.3120    7.5710 H   0  0  0  0  0  0  0  0  0  0  0  0
   26.3630   43.8570    8.1290 C   0  0  0  0  0  0  0  0  0  0  0  0
   26.5250   41.6490    8.9610 O   0  0  0  0  0  0  0  0  0  0  0  0
   27.6750   39.1490    8.2340 O   0  0  0  0  0  0  0  0  0  0  0  0
   27.9940   38.5390    8.9520 H   0  0  0  0  0  0  0  0  0  0  0  0
   26.5760   38.4290    6.1650 O   0  0  0  0  0  0  0  0  0  0  0  0
   26.1000   39.2210    6.5210 H   0  0  0  0  0  0  0  0  0  0  0  0
   29.3140   34.7490    7.6130 O   0  0  0  0  0  0  0  0  0  0  0  0
   30.1190   35.1990    8.6950 C   0  0  0  0  0  0  0  0  0  0  0  0
   29.2480   35.9630    9.6240 C   0  0  0  0  0  0  0  0  0  0  0  0
   28.2240   35.3840   10.3740 C   0  0  0  0  0  0  0  0  0  0  0  0
   29.2290   37.2640    9.9420 N   0  0  0  0  0  0  0  0  0  0  0  0
   27.6510   36.3450   11.0940 N   0  0  0  0  0  0  0  0  0  0  0  0
   28.2670   37.4750   10.8240 N   0  0  0  0  0  0  0  0  0  0  0  0
   26.5500   36.1840   12.0060 C   0  0  0  0  0  0  0  0  0  0  0  0
   25.2630   36.5300   11.2800 C   0  0  0  0  0  0  0  0  0  0  0  0
   24.5820   35.3930   10.7490 N   0  0  0  0  0  0  0  0  0  0  0  0
   24.0750   35.5550    9.4280 C   0  0  0  0  0  0  0  0  0  0  0  0
   24.8390   36.7290    8.7970 C   0  0  0  0  0  0  0  0  0  0  0  0
   23.7280   34.7460   11.6870 C   0  0  0  0  0  0  0  0  0  0  0  0
   22.2850   35.1240   11.5660 C   0  0  0  0  0  0  0  0  0  0  0  0
   29.8670   25.5550   16.9770 C   0  0  0  0  0  0  0  0  0  0  0  0
   28.3450   25.7220   17.0260 C   0  0  0  0  0  0  0  0  0  0  0  0
   27.6010   24.4020   16.8930 C   0  0  0  0  0  0  0  0  0  0  0  0
   26.5540   24.2320   17.9590 C   0  0  0  0  0  0  0  0  0  0  0  0
   25.2420   23.7930   17.3170 C   0  0  0  0  0  0  0  0  0  0  0  0
   24.9900   22.3570   17.5830 N   0  0  0  0  0  0  0  0  0  0  0  0
  1  4  1  0  0  0  0
  1  2  1  0  0  0  0
  2 31  1  0  0  0  0
  3  2  2  0  0  0  0
  5  1  1  0  0  0  0
  6  5  1  1  0  0  0
  6 29  1  0  0  0  0
  6  7  1  0  0  0  0
  7 27  1  1  0  0  0
  8  7  1  1  0  0  0
  8 13  1  0  0  0  0
  9 16  1  6  0  0  0
  9 14  1  0  0  0  0
  9 10  1  0  0  0  0
 11  8  1  0  0  0  0
 11  9  1  0  0  0  0
 12 10  1  0  0  0  0
 12 20  1  1  0  0  0
 13 22  1  6  0  0  0
 13 12  1  0  0  0  0
 15 14  1  0  0  0  0
 16 18  1  0  0  0  0
 17 16  2  0  0  0  0
 18 19  1  0  0  0  0
 20 21  1  0  0  0  0
 22 23  1  0  0  0  0
 23 26  2  0  0  0  0
 24 22  1  0  0  0  0
 25 23  1  0  0  0  0
 27 28  1  0  0  0  0
 29 30  1  0  0  0  0
 31 32  1  0  0  0  0
 32 33  1  0  0  0  0
 33 35  1  0  0  0  0
 33 34  2  0  0  0  0
 34 36  1  0  0  0  0
 35 37  2  0  0  0  0
 36 38  1  0  0  0  0
 37 36  1  0  0  0  0
 39 38  1  0  0  0  0
 40 39  1  0  0  0  0
 40 43  1  0  0  0  0
 41 40  1  0  0  0  0
 42 41  1  0  0  0  0
 44 43  1  0  0  0  0
 45 46  1  0  0  0  0
 47 46  1  0  0  0  0
 47 48  1  0  0  0  0
 49 50  1  0  0  0  0
 49 48  1  0  0  0  0
M  END
>  <REMARK>
 VINA RESULT:    -3.439      8.406     13.313
 INTER + INTRA:         -13.914
 INTER:                  -8.217
 INTRA:                  -5.697
 UNBOUND:                -7.158
 SMILES CCN(CC)CCn1cc(COC(=O)NC[C@@H](O)C(O)[C@@H]2O[C@@](O)(C(=O)O)C[C@H](O)[C@H]2NC(C)=O)nn1
 SMILES IDX 15 1 13 2 14 3 16 5 17 6 19 7 21 8 23 9 28 10 22 11 29 12
 SMILES IDX 31 13 24 14 25 16 26 17 27 18 30 20 32 22 33 23 34 25 35 26
 SMILES IDX 20 27 18 29 12 31 11 32 10 33 9 34 36 35 8 36 37 37 7 38
 SMILES IDX 6 39 3 40 2 41 1 42 4 43 5 44
 H PARENT 15 4 24 15 27 19 30 21 32 24 20 28 18 30
 Flexibility Score: inf
  4 active torsions:
  status: ('A' for Active; 'I' for Inactive)
    1  A    between atoms: CA   and  CB  
    2  A    between atoms: CB   and  CG  
    3  A    between atoms: CG   and  CD  
    4  A    between atoms: CD   and  CE  

>  <TORSDO>
F 19

>  <BEGIN_>
RES LYS A 131

$$$$
ligand_17_pose_16_2HRL.pdbqt
 OpenBabel07062320523D

  6  5  0  0  0  0  0  0  0  0999 V2000
   33.1930   34.6630    9.2900 C   0  0  0  0  0  0  0  0  0  0  0  0
   32.0600   35.3600   10.0340 C   0  0  0  0  0  0  0  0  0  0  0  0
   32.3980   35.7030   11.4620 C   0  0  0  0  0  0  0  0  0  0  0  0
   32.2140   37.1910   11.7140 C   0  0  0  0  0  0  0  0  0  0  0  0
   31.4170   37.4220   12.9840 C   0  0  0  0  0  0  0  0  0  0  0  0
   30.5340   36.2600   13.2810 N   0  0  0  0  0  0  0  0  0  0  0  0
  1  2  1  0  0  0  0
  2  3  1  0  0  0  0
  3  4  1  0  0  0  0
  4  5  1  0  0  0  0
  5  6  1  0  0  0  0
M  END
>  <EGIN_R>
ES LYS A 135

>  <REMARK>
  4 active torsions:
  status: ('A' for Active; 'I' for Inactive)
    5  A    between atoms: CA   and  CB  
    6  A    between atoms: CB   and  CG  
    7  A    between atoms: CG   and  CD  
    8  A    between atoms: CD   and  CE  

$$$$
