ligand_81_pose_18_2HRL.pdbqt
 OpenBabel07062320523D

 63 65  0  0  1  0  0  0  0  0999 V2000
   19.9880   39.2380   10.5680 O   0  0  0  0  0  0  0  0  0  0  0  0
   20.6500   39.3600    9.3660 C   0  0  0  0  0  0  0  0  0  0  0  0
   22.0910   39.3870    9.2940 N   0  0  0  0  0  0  0  0  0  0  0  0
   22.5700   39.3110   10.2140 H   0  0  0  0  0  0  0  0  0  0  0  0
   19.9630   39.4480    8.3180 O   0  0  0  0  0  0  0  0  0  0  0  0
   22.7330   39.5160    8.0070 C   0  0  0  0  0  0  0  0  0  0  0  0
   23.6460   38.3120    7.8220 C   0  0  2  0  0  0  0  0  0  0  0  0
   25.0340   38.8580    7.5870 C   0  0  2  0  0  0  0  0  0  0  0  0
   26.0560   38.4430    8.6000 C   0  0  2  0  0  0  0  0  0  0  0  0
   27.4040   37.2620    7.0910 C   0  0  2  0  0  0  0  0  0  0  0  0
   26.7070   36.0020    7.5780 C   0  0  0  0  0  0  0  0  0  0  0  0
   27.2620   38.3110    7.9520 O   0  0  0  0  0  0  0  0  0  0  0  0
   26.5810   36.0840    9.0850 C   0  0  1  0  0  0  0  0  0  0  0  0
   25.7030   37.2920    9.4680 C   0  0  1  0  0  0  0  0  0  0  0  0
   26.8760   37.5190    5.8200 O   0  0  0  0  0  0  0  0  0  0  0  0
   27.4220   38.1590    5.3130 H   0  0  0  0  0  0  0  0  0  0  0  0
   28.8520   37.0190    6.9220 C   0  0  0  0  0  0  0  0  0  0  0  0
   29.6640   37.8990    7.2630 O   0  0  0  0  0  0  0  0  0  0  0  0
   29.2990   35.8360    6.3940 O   0  0  0  0  0  0  0  0  0  0  0  0
   30.0010   35.7550    5.6700 H   0  0  0  0  0  0  0  0  0  0  0  0
   26.0780   34.9150    9.6060 O   0  0  0  0  0  0  0  0  0  0  0  0
   25.4790   34.4650    8.9720 H   0  0  0  0  0  0  0  0  0  0  0  0
   26.0170   37.5360   10.8820 N   0  0  0  0  0  0  0  0  0  0  0  0
   25.0280   38.0850   11.7320 C   0  0  0  0  0  0  0  0  0  0  0  0
   26.9570   37.3130   11.2730 H   0  0  0  0  0  0  0  0  0  0  0  0
   25.2780   38.3610   13.1810 C   0  0  0  0  0  0  0  0  0  0  0  0
   23.9010   38.3430   11.2240 O   0  0  0  0  0  0  0  0  0  0  0  0
   24.8630   40.2630    7.8140 O   0  0  0  0  0  0  0  0  0  0  0  0
   24.3760   40.4060    8.6490 H   0  0  0  0  0  0  0  0  0  0  0  0
   23.1290   37.5940    6.7550 O   0  0  0  0  0  0  0  0  0  0  0  0
   22.5720   38.1510    6.1700 H   0  0  0  0  0  0  0  0  0  0  0  0
   19.3580   38.0690   11.0440 C   0  0  0  0  0  0  0  0  0  0  0  0
   20.2850   36.9020   10.8960 C   0  0  0  0  0  0  0  0  0  0  0  0
   21.1320   36.3690   11.8340 C   0  0  0  0  0  0  0  0  0  0  0  0
   20.4600   36.1500    9.7880 N   0  0  0  0  0  0  0  0  0  0  0  0
   21.8100   35.3090   11.2960 N   0  0  0  0  0  0  0  0  0  0  0  0
   21.3600   35.2220   10.0510 N   0  0  0  0  0  0  0  0  0  0  0  0
   22.7850   34.5120   11.9430 C   0  0  0  0  0  0  0  0  0  0  0  0
   24.0650   34.9030   12.0200 N   0  0  0  0  0  0  0  0  0  0  0  0
   22.4420   33.2720   12.4970 C   0  0  0  0  0  0  0  0  0  0  0  0
   25.0080   34.1300   12.6160 C   0  0  0  0  0  0  0  0  0  0  0  0
   23.3900   32.4910   13.0940 C   0  0  0  0  0  0  0  0  0  0  0  0
   24.6950   32.9430   13.1470 N   0  0  0  0  0  0  0  0  0  0  0  0
   21.0400   32.8200   12.3870 C   0  0  0  0  0  0  0  0  0  0  0  0
   20.1340   33.2830   13.4930 C   0  0  0  0  0  0  0  0  0  0  0  0
   18.8550   33.5130   13.0690 O   0  0  0  0  0  0  0  0  0  0  0  0
   18.6810   33.4020   11.7090 C   0  0  0  0  0  0  0  0  0  0  0  0
   17.6340   34.3680   11.1960 C   0  0  0  0  0  0  0  0  0  0  0  0
   26.3460   34.5830   12.6750 N   0  0  0  0  0  0  0  0  0  0  0  0
   26.5500   35.5790   12.8710 H   0  0  0  0  0  0  0  0  0  0  0  0
   27.1490   33.9440   12.5280 H   0  0  0  0  0  0  0  0  0  0  0  0
   23.1200   31.1530   13.5830 C   0  0  0  0  0  0  0  0  0  0  0  0
   22.5990   30.7780   14.7660 C   0  0  0  0  0  0  0  0  0  0  0  0
   23.4300   30.1130   12.6780 C   0  0  0  0  0  0  0  0  0  0  0  0
   22.3810   29.4200   15.0670 C   0  0  0  0  0  0  0  0  0  0  0  0
   23.2230   28.7910   12.9580 C   0  0  0  0  0  0  0  0  0  0  0  0
   22.6860   28.4190   14.1780 C   0  0  0  0  0  0  0  0  0  0  0  0
   29.8670   25.5550   16.9770 C   0  0  0  0  0  0  0  0  0  0  0  0
   28.3450   25.7220   17.0260 C   0  0  0  0  0  0  0  0  0  0  0  0
   27.5990   24.4230   16.7640 C   0  0  0  0  0  0  0  0  0  0  0  0
   26.8960   23.9150   17.9920 C   0  0  0  0  0  0  0  0  0  0  0  0
   25.5980   23.2230   17.5860 C   0  0  0  0  0  0  0  0  0  0  0  0
   24.6920   24.1780   16.9060 N   0  0  0  0  0  0  0  0  0  0  0  0
  1 32  1  0  0  0  0
  2  1  1  0  0  0  0
  3  2  1  0  0  0  0
  3  4  1  0  0  0  0
  5  2  2  0  0  0  0
  6  3  1  0  0  0  0
  7  6  1  6  0  0  0
  8 28  1  1  0  0  0
  8  7  1  0  0  0  0
  9  8  1  6  0  0  0
  9 14  1  0  0  0  0
 10 15  1  6  0  0  0
 10 11  1  0  0  0  0
 10 12  1  0  0  0  0
 11 13  1  0  0  0  0
 12  9  1  0  0  0  0
 13 14  1  0  0  0  0
 13 21  1  6  0  0  0
 14 23  1  1  0  0  0
 16 15  1  0  0  0  0
 17 10  1  0  0  0  0
 17 18  2  0  0  0  0
 19 17  1  0  0  0  0
 20 19  1  0  0  0  0
 22 21  1  0  0  0  0
 23 25  1  0  0  0  0
 23 24  1  0  0  0  0
 24 26  1  0  0  0  0
 27 24  2  0  0  0  0
 28 29  1  0  0  0  0
 30  7  1  0  0  0  0
 31 30  1  0  0  0  0
 33 32  1  0  0  0  0
 33 34  2  0  0  0  0
 35 37  2  0  0  0  0
 35 33  1  0  0  0  0
 36 34  1  0  0  0  0
 36 38  1  0  0  0  0
 37 36  1  0  0  0  0
 38 39  1  0  0  0  0
 38 40  2  0  0  0  0
 39 41  2  0  0  0  0
 40 42  1  0  0  0  0
 41 49  1  0  0  0  0
 41 43  1  0  0  0  0
 42 43  2  0  0  0  0
 42 52  1  0  0  0  0
 44 40  1  0  0  0  0
 44 45  1  0  0  0  0
 46 45  1  0  0  0  0
 47 46  1  0  0  0  0
 48 47  1  0  0  0  0
 49 50  1  0  0  0  0
 51 49  1  0  0  0  0
 52 53  2  0  0  0  0
 53 55  1  0  0  0  0
 54 56  2  0  0  0  0
 54 52  1  0  0  0  0
 56 57  1  0  0  0  0
 57 55  2  0  0  0  0
 58 59  1  0  0  0  0
 60 59  1  0  0  0  0
 60 61  1  0  0  0  0
 62 61  1  0  0  0  0
 63 62  1  0  0  0  0
M  END
>  <REMARK>
 VINA RESULT:    -4.600      3.400      7.261
 INTER + INTRA:         -16.612
 INTER:                  -9.440
 INTRA:                  -7.171
 UNBOUND:                -7.171
 SMILES CCOCCc1c(-c2ccccc2)nc(N)nc1-n1cc(COC(=O)NC[C@@H](O)C(O)[C@@H]2O[C@@](O)(C(=O)O)C[C@H](O)[C@H]2NC(C)=O)nn1
 SMILES IDX 23 1 24 2 26 3 25 5 27 6 28 7 30 8 32 9 34 10 39 11 33 12
 SMILES IDX 40 13 42 14 35 15 36 17 37 18 38 19 41 21 43 23 44 24 45 26
 SMILES IDX 46 27 31 28 29 30 22 32 21 33 20 34 47 35 19 36 48 37 18 38
 SMILES IDX 17 39 6 40 15 41 7 42 14 43 5 44 4 45 3 46 2 47 1 48 16 49
 SMILES IDX 8 52 9 53 13 54 10 55 12 56 11 57
 H PARENT 26 4 35 16 38 20 41 22 43 25 31 29 29 31 16 50 16 51
 Flexibility Score: inf
  4 active torsions:
  status: ('A' for Active; 'I' for Inactive)
    1  A    between atoms: CA   and  CB  
    2  A    between atoms: CB   and  CG  
    3  A    between atoms: CG   and  CD  
    4  A    between atoms: CD   and  CE  

>  <TORSDO>
F 21

>  <BEGIN_>
RES LYS A 131

$$$$
ligand_81_pose_18_2HRL.pdbqt
 OpenBabel07062320523D

  6  5  0  0  0  0  0  0  0  0999 V2000
   33.1930   34.6630    9.2900 C   0  0  0  0  0  0  0  0  0  0  0  0
   32.0600   35.3600   10.0340 C   0  0  0  0  0  0  0  0  0  0  0  0
   30.6900   34.8780    9.6330 C   0  0  0  0  0  0  0  0  0  0  0  0
   29.7630   34.8330   10.8390 C   0  0  0  0  0  0  0  0  0  0  0  0
   30.5630   34.8650   12.1270 C   0  0  0  0  0  0  0  0  0  0  0  0
   29.7740   34.3100   13.2620 N   0  0  0  0  0  0  0  0  0  0  0  0
  1  2  1  0  0  0  0
  3  2  1  0  0  0  0
  3  4  1  0  0  0  0
  4  5  1  0  0  0  0
  5  6  1  0  0  0  0
M  END
>  <EGIN_R>
ES LYS A 135

>  <REMARK>
  4 active torsions:
  status: ('A' for Active; 'I' for Inactive)
    5  A    between atoms: CA   and  CB  
    6  A    between atoms: CB   and  CG  
    7  A    between atoms: CG   and  CD  
    8  A    between atoms: CD   and  CE  

$$$$
