ligand_80_pose_8_2HRL.pdbqt
 OpenBabel07062320523D

 56 54  0  0  1  0  0  0  0  0999 V2000
   24.8680   40.9010    7.6000 O   0  0  0  0  0  0  0  0  0  0  0  0
   26.0030   40.5930    6.8910 C   0  0  0  0  0  0  0  0  0  0  0  0
   26.2010   39.2600    6.3940 N   0  0  0  0  0  0  0  0  0  0  0  0
   25.4400   38.5730    6.6060 H   0  0  0  0  0  0  0  0  0  0  0  0
   26.8980   41.4430    6.6520 O   0  0  0  0  0  0  0  0  0  0  0  0
   27.3860   38.8910    5.6430 C   0  0  0  0  0  0  0  0  0  0  0  0
   27.9790   37.6530    6.2700 C   0  0  2  0  0  0  0  0  0  0  0  0
   29.0980   37.9720    7.2380 C   0  0  2  0  0  0  0  0  0  0  0  0
   28.7610   37.4460    8.6420 C   0  0  2  0  0  0  0  0  0  0  0  0
   27.0710   36.0970    9.5510 C   0  0  2  0  0  0  0  0  0  0  0  0
   27.2120   36.9330   10.7850 C   0  0  0  0  0  0  0  0  0  0  0  0
   27.8640   36.4600    8.4970 O   0  0  0  0  0  0  0  0  0  0  0  0
   27.1500   38.3800   10.3250 C   0  0  1  0  0  0  0  0  0  0  0  0
   28.3560   38.6310    9.4560 C   0  0  1  0  0  0  0  0  0  0  0  0
   25.7430   36.2190    9.0920 O   0  0  0  0  0  0  0  0  0  0  0  0
   25.2160   36.4660    9.8960 H   0  0  0  0  0  0  0  0  0  0  0  0
   27.3020   34.6550    9.8170 C   0  0  0  0  0  0  0  0  0  0  0  0
   28.1350   34.0310    9.1260 O   0  0  0  0  0  0  0  0  0  0  0  0
   26.6200   33.9650   10.8160 O   0  0  0  0  0  0  0  0  0  0  0  0
   25.6320   33.7460   10.6220 H   0  0  0  0  0  0  0  0  0  0  0  0
   26.0040   38.5170    9.5490 O   0  0  0  0  0  0  0  0  0  0  0  0
   25.8920   37.6820    9.0350 H   0  0  0  0  0  0  0  0  0  0  0  0
   29.4570   38.9560   10.3460 N   0  0  0  0  0  0  0  0  0  0  0  0
   30.1200   40.2110   10.3480 C   0  0  0  0  0  0  0  0  0  0  0  0
   29.7880   38.2150   11.0370 H   0  0  0  0  0  0  0  0  0  0  0  0
   31.2320   40.4240   11.3040 C   0  0  0  0  0  0  0  0  0  0  0  0
   29.7360   41.0930    9.5350 O   0  0  0  0  0  0  0  0  0  0  0  0
   29.1710   39.3680    7.3100 O   0  0  0  0  0  0  0  0  0  0  0  0
   28.5400   39.7570    7.9530 H   0  0  0  0  0  0  0  0  0  0  0  0
   28.4060   36.7500    5.3040 O   0  0  0  0  0  0  0  0  0  0  0  0
   28.8270   37.1880    4.5350 H   0  0  0  0  0  0  0  0  0  0  0  0
   23.5920   40.4230    7.2100 C   0  0  0  0  0  0  0  0  0  0  0  0
   23.2520   39.1610    7.9140 C   0  0  0  0  0  0  0  0  0  0  0  0
   22.4050   39.0780    9.0240 C   0  0  0  0  0  0  0  0  0  0  0  0
   23.6460   37.8960    7.6790 N   0  0  0  0  0  0  0  0  0  0  0  0
   22.3210   37.7940    9.4110 N   0  0  0  0  0  0  0  0  0  0  0  0
   23.0790   37.1130    8.5800 N   0  0  0  0  0  0  0  0  0  0  0  0
   21.5580   37.2710   10.5230 *   0  0  0  0  0  0  0  0  0  0  0  0
   21.3550   35.8000   10.3970 C   0  0  0  0  0  0  0  0  0  0  0  0
   22.0910   34.6930   10.8820 N   0  0  0  0  0  0  0  0  0  0  0  0
   20.3280   35.5200    9.7300 O   0  0  0  0  0  0  0  0  0  0  0  0
   21.9190   33.7520   10.4680 H   0  0  0  0  0  0  0  0  0  0  0  0
   23.0900   34.6980   11.9180 C   0  0  0  0  0  0  0  0  0  0  0  0
   23.7980   35.7870   12.3910 C   0  0  0  0  0  0  0  0  0  0  0  0
   23.2760   33.4250   12.4230 C   0  0  0  0  0  0  0  0  0  0  0  0
   24.7050   35.5870   13.3850 C   0  0  0  0  0  0  0  0  0  0  0  0
   24.1950   33.2260   13.4300 C   0  0  0  0  0  0  0  0  0  0  0  0
   24.9000   34.3110   13.8990 C   0  0  0  0  0  0  0  0  0  0  0  0
   23.6800   37.1950   11.9250 C   0  0  0  0  0  0  0  0  0  0  0  0
   22.2350   37.6590   11.8470 *   0  0  0  0  0  0  0  0  0  0  0  0
   29.8670   25.5550   16.9770 C   0  0  0  0  0  0  0  0  0  0  0  0
   28.3450   25.7220   17.0260 C   0  0  0  0  0  0  0  0  0  0  0  0
   27.6010   24.4000   16.9080 C   0  0  0  0  0  0  0  0  0  0  0  0
   26.4630   24.3010   17.8860 C   0  0  0  0  0  0  0  0  0  0  0  0
   25.9790   25.7020   18.2470 C   0  0  0  0  0  0  0  0  0  0  0  0
   25.8460   25.8420   19.7160 N   0  0  0  0  0  0  0  0  0  0  0  0
  2  1  1  0  0  0  0
  3  4  1  0  0  0  0
  3  2  1  0  0  0  0
  5  2  2  0  0  0  0
  6  3  1  0  0  0  0
  7  6  1  6  0  0  0
  7  8  1  0  0  0  0
  8 28  1  1  0  0  0
  9  8  1  6  0  0  0
  9 14  1  0  0  0  0
 10 15  1  6  0  0  0
 10 17  1  0  0  0  0
 10 11  1  0  0  0  0
 12  9  1  0  0  0  0
 12 10  1  0  0  0  0
 13 21  1  6  0  0  0
 13 11  1  0  0  0  0
 14 13  1  0  0  0  0
 14 23  1  1  0  0  0
 15 16  1  0  0  0  0
 17 19  1  0  0  0  0
 18 17  2  0  0  0  0
 20 19  1  0  0  0  0
 22 21  1  0  0  0  0
 23 24  1  0  0  0  0
 23 25  1  0  0  0  0
 24 26  1  0  0  0  0
 27 24  2  0  0  0  0
 28 29  1  0  0  0  0
 30  7  1  0  0  0  0
 31 30  1  0  0  0  0
 32  1  1  0  0  0  0
 32 33  1  0  0  0  0
 33 34  2  0  0  0  0
 34 36  1  0  0  0  0
 35 33  1  0  0  0  0
 35 37  1  0  0  0  0
 37 36  2  0  0  0  0
 39 40  1  0  0  0  0
 40 43  1  0  0  0  0
 41 39  2  0  0  0  0
 42 40  1  0  0  0  0
 43 44  2  0  0  0  0
 43 45  1  0  0  0  0
 44 46  1  0  0  0  0
 45 47  2  0  0  0  0
 46 48  2  0  0  0  0
 47 48  1  0  0  0  0
 49 44  1  0  0  0  0
 51 52  1  0  0  0  0
 53 52  1  0  0  0  0
 53 54  1  0  0  0  0
 54 55  1  0  0  0  0
 55 56  1  0  0  0  0
M  END
>  <REMARK>
 VINA RESULT:    -9.188      4.409      6.816
 INTER + INTRA:         -13.496
 INTER:                  -7.285
 INTRA:                  -6.211
 UNBOUND:                 4.555
 SMILES CC(=O)N[C@@H]1[C@@H](O)C[C@](O)(C(=O)O)O[C@H]1C(O)[C@H](O)CNC(=O)OCc1cn(C2CCc3ccccc3NC2=O)nn1
 SMILES IDX 24 1 22 2 21 3 23 5 20 6 18 7 16 8 15 9 9 10 8 11 14 12 6 13
 SMILES IDX 5 14 10 15 11 17 12 18 13 19 7 21 4 23 2 24 1 26 3 27 17 28
 SMILES IDX 19 30 25 32 26 33 27 34 42 35 28 36 41 37 29 38 39 40 38 41
 SMILES IDX 40 42 37 44 32 45 36 46 33 47 35 48 34 49 31 50 30 51
 H PARENT 21 4 10 16 13 20 7 22 4 25 17 29 19 31 38 43
 Flexibility Score: 80.00
  4 active torsions:
  status: ('A' for Active; 'I' for Inactive)
    1  A    between atoms: CA   and  CB  
    2  A    between atoms: CB   and  CG  
    3  A    between atoms: CG   and  CD  
    4  A    between atoms: CD   and  CE  

>  <TORSDO>
F 15

>  <BEGIN_>
RES LYS A 131

$$$$
ligand_80_pose_8_2HRL.pdbqt
 OpenBabel07062320523D

  6  5  0  0  0  0  0  0  0  0999 V2000
   33.1930   34.6630    9.2900 C   0  0  0  0  0  0  0  0  0  0  0  0
   32.0600   35.3600   10.0340 C   0  0  0  0  0  0  0  0  0  0  0  0
   32.5260   36.1800   11.2100 C   0  0  0  0  0  0  0  0  0  0  0  0
   31.4490   36.2400   12.2820 C   0  0  0  0  0  0  0  0  0  0  0  0
   30.2870   35.3330   11.9220 C   0  0  0  0  0  0  0  0  0  0  0  0
   29.8370   34.5440   13.1020 N   0  0  0  0  0  0  0  0  0  0  0  0
  1  2  1  0  0  0  0
  2  3  1  0  0  0  0
  3  4  1  0  0  0  0
  5  4  1  0  0  0  0
  5  6  1  0  0  0  0
M  END
>  <EGIN_R>
ES LYS A 135

>  <REMARK>
  4 active torsions:
  status: ('A' for Active; 'I' for Inactive)
    5  A    between atoms: CA   and  CB  
    6  A    between atoms: CB   and  CG  
    7  A    between atoms: CG   and  CD  
    8  A    between atoms: CD   and  CE  

$$$$
