ligand_71_pose_9_2HRL.pdbqt
 OpenBabel07062320523D

 54 55  0  0  1  0  0  0  0  0999 V2000
   28.1810   33.7990    9.4430 N   0  0  0  0  0  0  0  0  0  0  0  0
   27.5750   34.3460   10.6260 C   0  0  0  0  0  0  0  0  0  0  0  0
   28.2550   34.9900   11.4620 O   0  0  0  0  0  0  0  0  0  0  0  0
   27.6050   33.2730    8.7650 H   0  0  0  0  0  0  0  0  0  0  0  0
   29.5890   34.0140    9.2530 C   0  0  0  0  0  0  0  0  0  0  0  0
   29.9070   35.2920    8.5170 C   0  0  2  0  0  0  0  0  0  0  0  0
   28.8510   35.4710    7.4530 C   0  0  1  0  0  0  0  0  0  0  0  0
   28.2060   36.8570    7.5410 C   0  0  2  0  0  0  0  0  0  0  0  0
   26.2320   37.9210    7.7960 C   0  0  2  0  0  0  0  0  0  0  0  0
   26.7760   39.0860    7.0530 C   0  0  0  0  0  0  0  0  0  0  0  0
   26.8410   36.7560    7.4300 O   0  0  0  0  0  0  0  0  0  0  0  0
   27.7890   38.7640    5.9800 C   0  0  1  0  0  0  0  0  0  0  0  0
   28.7600   37.6980    6.4030 C   0  0  1  0  0  0  0  0  0  0  0  0
   24.8570   37.7410    7.4210 O   0  0  0  0  0  0  0  0  0  0  0  0
   24.3330   38.5080    7.7820 H   0  0  0  0  0  0  0  0  0  0  0  0
   26.1860   38.1600    9.2680 C   0  0  0  0  0  0  0  0  0  0  0  0
   25.2470   38.7680    9.7830 O   0  0  0  0  0  0  0  0  0  0  0  0
   27.2010   37.7070   10.1140 O   0  0  0  0  0  0  0  0  0  0  0  0
   27.0230   37.0660   10.8670 H   0  0  0  0  0  0  0  0  0  0  0  0
   27.0680   38.3750    4.8480 O   0  0  0  0  0  0  0  0  0  0  0  0
   27.2090   37.4100    4.6350 H   0  0  0  0  0  0  0  0  0  0  0  0
   30.0520   38.1690    6.7630 N   0  0  0  0  0  0  0  0  0  0  0  0
   30.3660   38.8360    7.9740 C   0  0  0  0  0  0  0  0  0  0  0  0
   30.8540   38.0280    6.1010 H   0  0  0  0  0  0  0  0  0  0  0  0
   31.7500   39.3090    8.2860 C   0  0  0  0  0  0  0  0  0  0  0  0
   29.4440   39.0210    8.7870 O   0  0  0  0  0  0  0  0  0  0  0  0
   29.3490   35.2440    6.1850 O   0  0  0  0  0  0  0  0  0  0  0  0
   30.1510   35.8360    6.0550 H   0  0  0  0  0  0  0  0  0  0  0  0
   31.1780   35.1570    7.9620 O   0  0  0  0  0  0  0  0  0  0  0  0
   31.4130   36.0350    7.5580 H   0  0  0  0  0  0  0  0  0  0  0  0
   26.2330   34.1830   10.8800 O   0  0  0  0  0  0  0  0  0  0  0  0
   25.4080   35.0750   11.5700 C   0  0  0  0  0  0  0  0  0  0  0  0
   24.2800   35.4960   10.7120 C   0  0  0  0  0  0  0  0  0  0  0  0
   23.0970   36.1040   11.0770 C   0  0  0  0  0  0  0  0  0  0  0  0
   24.2410   35.3470    9.3780 N   0  0  0  0  0  0  0  0  0  0  0  0
   22.3940   36.2990    9.9630 N   0  0  0  0  0  0  0  0  0  0  0  0
   23.1100   35.8310    8.9570 N   0  0  0  0  0  0  0  0  0  0  0  0
   21.0730   36.9350    9.9150 C   0  0  0  0  0  0  0  0  0  0  0  0
   21.1310   38.1560    9.0580 C   0  0  0  0  0  0  0  0  0  0  0  0
   20.2070   38.5390    8.3220 O   0  0  0  0  0  0  0  0  0  0  0  0
   22.3320   38.9360    9.0900 N   0  0  0  0  0  0  0  0  0  0  0  0
   23.1270   38.6380    9.7000 H   0  0  0  0  0  0  0  0  0  0  0  0
   22.4810   40.1130    8.3190 C   0  0  0  0  0  0  0  0  0  0  0  0
   23.2970   40.2030    7.2520 N   0  0  0  0  0  0  0  0  0  0  0  0
   21.7840   41.2200    8.6390 N   0  0  0  0  0  0  0  0  0  0  0  0
   23.4170   41.3380    6.5350 C   0  0  0  0  0  0  0  0  0  0  0  0
   21.8570   42.3690    7.9720 C   0  0  0  0  0  0  0  0  0  0  0  0
   22.6950   42.4620    6.8780 C   0  0  0  0  0  0  0  0  0  0  0  0
   29.8670   25.5550   16.9770 C   0  0  0  0  0  0  0  0  0  0  0  0
   28.3450   25.7220   17.0260 C   0  0  0  0  0  0  0  0  0  0  0  0
   27.6030   24.3950   16.9890 C   0  0  0  0  0  0  0  0  0  0  0  0
   26.1360   24.5580   17.2710 C   0  0  0  0  0  0  0  0  0  0  0  0
   25.6820   23.4800   18.2500 C   0  0  0  0  0  0  0  0  0  0  0  0
   25.1570   22.3030   17.5190 N   0  0  0  0  0  0  0  0  0  0  0  0
  1  2  1  0  0  0  0
  2 31  1  0  0  0  0
  2  3  2  0  0  0  0
  4  1  1  0  0  0  0
  5  1  1  0  0  0  0
  6  5  1  6  0  0  0
  7 27  1  6  0  0  0
  7  6  1  0  0  0  0
  8  7  1  6  0  0  0
  9 14  1  6  0  0  0
  9 16  1  0  0  0  0
 10  9  1  0  0  0  0
 11  8  1  0  0  0  0
 11  9  1  0  0  0  0
 12 20  1  6  0  0  0
 12 13  1  0  0  0  0
 12 10  1  0  0  0  0
 13 22  1  1  0  0  0
 13  8  1  0  0  0  0
 14 15  1  0  0  0  0
 16 17  2  0  0  0  0
 16 18  1  0  0  0  0
 18 19  1  0  0  0  0
 21 20  1  0  0  0  0
 22 23  1  0  0  0  0
 23 25  1  0  0  0  0
 23 26  2  0  0  0  0
 24 22  1  0  0  0  0
 28 27  1  0  0  0  0
 29  6  1  0  0  0  0
 30 29  1  0  0  0  0
 31 32  1  0  0  0  0
 33 34  2  0  0  0  0
 33 32  1  0  0  0  0
 35 33  1  0  0  0  0
 36 34  1  0  0  0  0
 37 35  2  0  0  0  0
 37 36  1  0  0  0  0
 38 36  1  0  0  0  0
 39 41  1  0  0  0  0
 39 38  1  0  0  0  0
 40 39  2  0  0  0  0
 41 42  1  0  0  0  0
 43 45  1  0  0  0  0
 43 41  1  0  0  0  0
 44 43  2  0  0  0  0
 46 48  2  0  0  0  0
 46 44  1  0  0  0  0
 47 45  2  0  0  0  0
 48 47  1  0  0  0  0
 49 50  1  0  0  0  0
 51 50  1  0  0  0  0
 51 52  1  0  0  0  0
 52 53  1  0  0  0  0
 54 53  1  0  0  0  0
M  END
>  <REMARK>
 VINA RESULT:    -3.918      4.694      7.697
 INTER + INTRA:         -14.804
 INTER:                  -9.551
 INTRA:                  -5.253
 UNBOUND:                -7.565
 SMILES CC(=O)N[C@@H]1[C@@H](O)C[C@](O)(C(=O)O)O[C@H]1C(O)[C@H](O)CNC(=O)OCc1cn(CC(=O)Nc2ncccn2)nn1
 SMILES IDX 21 1 22 2 23 3 20 5 18 6 16 7 15 8 9 9 8 10 14 11 6 12 5 13
 SMILES IDX 10 14 11 16 12 17 13 18 7 20 4 22 2 23 1 25 3 26 17 27 19 29
 SMILES IDX 24 31 25 32 26 33 27 34 40 35 28 36 39 37 29 38 30 39 31 40
 SMILES IDX 32 41 33 43 34 44 38 45 35 46 37 47 36 48
 H PARENT 21 4 10 15 13 19 7 21 4 24 17 28 19 30 32 42
 Flexibility Score: inf
  4 active torsions:
  status: ('A' for Active; 'I' for Inactive)
    1  A    between atoms: CA   and  CB  
    2  A    between atoms: CB   and  CG  
    3  A    between atoms: CG   and  CD  
    4  A    between atoms: CD   and  CE  

>  <TORSDO>
F 17

>  <BEGIN_>
RES LYS A 131

$$$$
ligand_71_pose_9_2HRL.pdbqt
 OpenBabel07062320523D

  6  5  0  0  0  0  0  0  0  0999 V2000
   33.1930   34.6630    9.2900 C   0  0  0  0  0  0  0  0  0  0  0  0
   32.0600   35.3600   10.0340 C   0  0  0  0  0  0  0  0  0  0  0  0
   32.4900   35.9890   11.3340 C   0  0  0  0  0  0  0  0  0  0  0  0
   31.8750   37.3700   11.4920 C   0  0  0  0  0  0  0  0  0  0  0  0
   31.4590   37.6070   12.9310 C   0  0  0  0  0  0  0  0  0  0  0  0
   29.9780   37.5520   13.0790 N   0  0  0  0  0  0  0  0  0  0  0  0
  1  2  1  0  0  0  0
  2  3  1  0  0  0  0
  3  4  1  0  0  0  0
  4  5  1  0  0  0  0
  5  6  1  0  0  0  0
M  END
>  <EGIN_R>
ES LYS A 135

>  <REMARK>
  4 active torsions:
  status: ('A' for Active; 'I' for Inactive)
    5  A    between atoms: CA   and  CB  
    6  A    between atoms: CB   and  CG  
    7  A    between atoms: CG   and  CD  
    8  A    between atoms: CD   and  CE  

$$$$
