ligand_41_pose_18_2HRL.pdbqt
 OpenBabel07062320523D

 52 53  0  0  1  0  0  0  0  0999 V2000
   27.9780   29.1780   17.6010 N   0  0  0  0  0  0  0  0  0  0  0  0
   27.7750   29.1530   19.0240 C   0  0  0  0  0  0  0  0  0  0  0  0
   26.6300   29.3990   19.4750 O   0  0  0  0  0  0  0  0  0  0  0  0
   28.9370   28.9610   17.2660 H   0  0  0  0  0  0  0  0  0  0  0  0
   26.8860   29.4940   16.7280 C   0  0  0  0  0  0  0  0  0  0  0  0
   27.0460   30.7060   15.8720 C   0  0  2  0  0  0  0  0  0  0  0  0
   26.9960   32.0040   16.6210 C   0  0  2  0  0  0  0  0  0  0  0  0
   28.2890   32.7770   16.6240 C   0  0  2  0  0  0  0  0  0  0  0  0
   30.2400   33.1480   15.4460 C   0  0  2  0  0  0  0  0  0  0  0  0
   31.1360   32.8190   16.6240 C   0  0  0  0  0  0  0  0  0  0  0  0
   29.0660   32.4950   15.5540 O   0  0  0  0  0  0  0  0  0  0  0  0
   30.4120   32.0610   17.6860 C   0  0  1  0  0  0  0  0  0  0  0  0
   29.0280   32.5380   17.9230 C   0  0  1  0  0  0  0  0  0  0  0  0
   30.9650   32.6330   14.3180 O   0  0  0  0  0  0  0  0  0  0  0  0
   31.9210   32.4890   14.5990 H   0  0  0  0  0  0  0  0  0  0  0  0
   30.2110   34.6010   15.2450 C   0  0  0  0  0  0  0  0  0  0  0  0
   30.2730   35.4300   16.1820 O   0  0  0  0  0  0  0  0  0  0  0  0
   30.1130   35.1510   13.9650 O   0  0  0  0  0  0  0  0  0  0  0  0
   30.5010   34.6640   13.1650 H   0  0  0  0  0  0  0  0  0  0  0  0
   30.3590   30.7110   17.2990 O   0  0  0  0  0  0  0  0  0  0  0  0
   30.5980   30.5790   16.3500 H   0  0  0  0  0  0  0  0  0  0  0  0
   28.9930   33.6450   18.8260 N   0  0  0  0  0  0  0  0  0  0  0  0
   28.2230   33.6450   20.0220 C   0  0  0  0  0  0  0  0  0  0  0  0
   29.5530   34.4910   18.6160 H   0  0  0  0  0  0  0  0  0  0  0  0
   28.2220   34.8230   20.9280 C   0  0  0  0  0  0  0  0  0  0  0  0
   27.5220   32.6540   20.3490 O   0  0  0  0  0  0  0  0  0  0  0  0
   26.3460   31.9390   17.8270 O   0  0  0  0  0  0  0  0  0  0  0  0
   26.1000   32.8790   18.0790 H   0  0  0  0  0  0  0  0  0  0  0  0
   25.8680   30.7230   15.0170 O   0  0  0  0  0  0  0  0  0  0  0  0
   26.2570   30.8250   14.1070 H   0  0  0  0  0  0  0  0  0  0  0  0
   28.7800   28.8740   19.9190 O   0  0  0  0  0  0  0  0  0  0  0  0
   28.6610   29.1890   21.3040 C   0  0  0  0  0  0  0  0  0  0  0  0
   29.5280   30.3340   21.6770 C   0  0  0  0  0  0  0  0  0  0  0  0
   30.6160   30.8280   21.0070 C   0  0  0  0  0  0  0  0  0  0  0  0
   29.3950   31.1190   22.7820 N   0  0  0  0  0  0  0  0  0  0  0  0
   31.1070   31.8930   21.7240 N   0  0  0  0  0  0  0  0  0  0  0  0
   30.3360   32.0270   22.7850 N   0  0  0  0  0  0  0  0  0  0  0  0
   32.2480   32.6870   21.4460 C   0  0  0  0  0  0  0  0  0  0  0  0
   33.5040   32.4170   21.8650 C   0  0  0  0  0  0  0  0  0  0  0  0
   31.9780   33.8270   20.6550 C   0  0  0  0  0  0  0  0  0  0  0  0
   34.5380   33.2860   21.5020 C   0  0  0  0  0  0  0  0  0  0  0  0
   33.0030   34.6710   20.3070 C   0  0  0  0  0  0  0  0  0  0  0  0
   34.2700   34.3820   20.7400 C   0  0  0  0  0  0  0  0  0  0  0  0
   33.8620   31.2790   22.6820 C   0  0  1  0  0  0  0  0  0  0  0  0
   33.9470   31.4920   23.9590 O   0  0  0  0  0  0  0  0  0  0  0  0
   34.1410   29.9100   22.2470 C   0  0  0  0  0  0  0  0  0  0  0  0
   29.8670   25.5550   16.9770 C   0  0  0  0  0  0  0  0  0  0  0  0
   28.3450   25.7220   17.0260 C   0  0  0  0  0  0  0  0  0  0  0  0
   27.6020   24.4000   16.9170 C   0  0  0  0  0  0  0  0  0  0  0  0
   26.5630   24.2430   17.9930 C   0  0  0  0  0  0  0  0  0  0  0  0
   25.2190   24.7520   17.4810 C   0  0  0  0  0  0  0  0  0  0  0  0
   24.4020   23.6290   16.9630 N   0  0  0  0  0  0  0  0  0  0  0  0
  1  2  1  0  0  0  0
  2  3  2  0  0  0  0
  2 31  1  0  0  0  0
  4  1  1  0  0  0  0
  5  1  1  0  0  0  0
  6  7  1  0  0  0  0
  6  5  1  1  0  0  0
  7 27  1  1  0  0  0
  8  7  1  1  0  0  0
  8 13  1  0  0  0  0
  9 14  1  6  0  0  0
  9 11  1  0  0  0  0
  9 10  1  0  0  0  0
 10 12  1  0  0  0  0
 11  8  1  0  0  0  0
 12 20  1  6  0  0  0
 12 13  1  0  0  0  0
 13 22  1  6  0  0  0
 14 15  1  0  0  0  0
 16  9  1  0  0  0  0
 16 17  2  0  0  0  0
 18 16  1  0  0  0  0
 19 18  1  0  0  0  0
 21 20  1  0  0  0  0
 22 23  1  0  0  0  0
 23 26  2  0  0  0  0
 23 25  1  0  0  0  0
 24 22  1  0  0  0  0
 27 28  1  0  0  0  0
 29  6  1  0  0  0  0
 30 29  1  0  0  0  0
 31 32  1  0  0  0  0
 32 33  1  0  0  0  0
 33 35  1  0  0  0  0
 34 33  2  0  0  0  0
 34 36  1  0  0  0  0
 35 37  2  0  0  0  0
 36 37  1  0  0  0  0
 38 36  1  0  0  0  0
 38 39  2  0  0  0  0
 39 44  1  0  0  0  0
 40 38  1  0  0  0  0
 41 39  1  0  0  0  0
 42 40  2  0  0  0  0
 42 43  1  0  0  0  0
 43 41  2  0  0  0  0
 44 46  1  1  0  0  0
 44 45  1  0  0  0  0
 47 48  1  0  0  0  0
 49 48  1  0  0  0  0
 49 50  1  0  0  0  0
 51 50  1  0  0  0  0
 52 51  1  0  0  0  0
M  END
>  <REMARK>
 VINA RESULT:    -4.253      3.322      7.238
 INTER + INTRA:         -14.413
 INTER:                  -7.144
 INTRA:                  -7.269
 UNBOUND:                -6.804
 SMILES CC(=O)N[C@@H]1[C@@H](O)C[C@](O)(C(=O)O)O[C@H]1C(O)[C@H](O)CNC(=O)OCc1cn(-c2ccccc2C(C)=O)nn1
 SMILES IDX 21 1 22 2 23 3 20 5 18 6 16 7 15 8 9 9 8 10 14 11 6 12 5 13
 SMILES IDX 10 14 11 16 12 17 13 18 7 20 4 22 2 23 1 25 3 26 17 27 19 29
 SMILES IDX 24 31 25 32 26 33 27 34 39 35 28 36 38 37 29 38 34 39 30 40
 SMILES IDX 33 41 31 42 32 43 35 44 37 45 36 46
 H PARENT 21 4 10 15 13 19 7 21 4 24 17 28 19 30
 Flexibility Score: inf
  4 active torsions:
  status: ('A' for Active; 'I' for Inactive)
    1  A    between atoms: CA   and  CB  
    2  A    between atoms: CB   and  CG  
    3  A    between atoms: CG   and  CD  
    4  A    between atoms: CD   and  CE  

>  <TORSDO>
F 16

>  <BEGIN_>
RES LYS A 131

$$$$
ligand_41_pose_18_2HRL.pdbqt
 OpenBabel07062320523D

  6  5  0  0  0  0  0  0  0  0999 V2000
   33.1930   34.6630    9.2900 C   0  0  0  0  0  0  0  0  0  0  0  0
   32.0600   35.3600   10.0340 C   0  0  0  0  0  0  0  0  0  0  0  0
   30.7300   34.6660    9.8930 C   0  0  0  0  0  0  0  0  0  0  0  0
   30.3260   34.5720    8.4300 C   0  0  0  0  0  0  0  0  0  0  0  0
   29.6020   35.8320    7.9950 C   0  0  0  0  0  0  0  0  0  0  0  0
   28.8420   35.6070    6.7340 N   0  0  0  0  0  0  0  0  0  0  0  0
  1  2  1  0  0  0  0
  3  2  1  0  0  0  0
  4  3  1  0  0  0  0
  5  4  1  0  0  0  0
  6  5  1  0  0  0  0
M  END
>  <EGIN_R>
ES LYS A 135

>  <REMARK>
  4 active torsions:
  status: ('A' for Active; 'I' for Inactive)
    5  A    between atoms: CA   and  CB  
    6  A    between atoms: CB   and  CG  
    7  A    between atoms: CG   and  CD  
    8  A    between atoms: CD   and  CE  

$$$$
