ligand_13_pose_5_2HRL.pdbqt
 OpenBabel07062320523D

 49 49  0  0  1  0  0  0  0  0999 V2000
   28.7730   40.5940    4.7420 N   0  0  0  0  0  0  0  0  0  0  0  0
   28.9160   41.9460    5.1270 C   0  0  0  0  0  0  0  0  0  0  0  0
   29.6080   42.2940    6.0890 O   0  0  0  0  0  0  0  0  0  0  0  0
   28.1450   40.4580    3.8830 H   0  0  0  0  0  0  0  0  0  0  0  0
   29.3680   39.4630    5.3770 C   0  0  0  0  0  0  0  0  0  0  0  0
   28.5090   38.2610    5.5710 C   0  0  2  0  0  0  0  0  0  0  0  0
   27.3420   38.4770    6.4680 C   0  0  1  0  0  0  0  0  0  0  0  0
   27.1010   37.4160    7.5070 C   0  0  2  0  0  0  0  0  0  0  0  0
   24.9040   37.4870    8.3030 C   0  0  2  0  0  0  0  0  0  0  0  0
   25.2180   36.8250    9.6270 C   0  0  0  0  0  0  0  0  0  0  0  0
   25.7710   37.0300    7.3600 O   0  0  0  0  0  0  0  0  0  0  0  0
   26.6710   36.9390    9.9070 C   0  0  1  0  0  0  0  0  0  0  0  0
   27.4100   37.8490    8.9130 C   0  0  1  0  0  0  0  0  0  0  0  0
   24.9020   38.8510    8.5290 O   0  0  0  0  0  0  0  0  0  0  0  0
   25.4010   39.2790    7.7960 H   0  0  0  0  0  0  0  0  0  0  0  0
   23.5380   37.0540    7.9310 C   0  0  0  0  0  0  0  0  0  0  0  0
   22.9590   36.2140    8.6520 O   0  0  0  0  0  0  0  0  0  0  0  0
   22.9000   37.5490    6.8220 O   0  0  0  0  0  0  0  0  0  0  0  0
   23.2620   37.4090    5.8790 H   0  0  0  0  0  0  0  0  0  0  0  0
   26.9590   37.3720   11.1980 O   0  0  0  0  0  0  0  0  0  0  0  0
   26.5490   38.2290   11.4300 H   0  0  0  0  0  0  0  0  0  0  0  0
   28.8080   37.6550    9.2370 N   0  0  0  0  0  0  0  0  0  0  0  0
   29.7810   38.6680    9.2840 C   0  0  0  0  0  0  0  0  0  0  0  0
   29.1120   36.6810    9.4550 H   0  0  0  0  0  0  0  0  0  0  0  0
   31.2090   38.4470    9.6210 C   0  0  0  0  0  0  0  0  0  0  0  0
   29.3970   39.8490    9.0180 O   0  0  0  0  0  0  0  0  0  0  0  0
   27.3370   39.7480    6.9910 O   0  0  0  0  0  0  0  0  0  0  0  0
   26.7400   40.3830    6.5220 H   0  0  0  0  0  0  0  0  0  0  0  0
   29.2940   37.2640    6.1860 O   0  0  0  0  0  0  0  0  0  0  0  0
   29.3540   37.4310    7.1720 H   0  0  0  0  0  0  0  0  0  0  0  0
   28.2590   42.9720    4.4100 O   0  0  0  0  0  0  0  0  0  0  0  0
   27.0740   42.7090    3.6830 C   0  0  0  0  0  0  0  0  0  0  0  0
   26.0850   42.1750    4.6560 C   0  0  0  0  0  0  0  0  0  0  0  0
   25.3810   42.8640    5.6160 C   0  0  0  0  0  0  0  0  0  0  0  0
   25.6750   40.8830    4.7890 N   0  0  0  0  0  0  0  0  0  0  0  0
   24.5930   41.9660    6.2710 N   0  0  0  0  0  0  0  0  0  0  0  0
   24.7970   40.7720    5.7430 N   0  0  0  0  0  0  0  0  0  0  0  0
   23.6780   42.2240    7.3590 C   0  0  0  0  0  0  0  0  0  0  0  0
   22.4340   41.4580    7.1940 C   0  0  0  0  0  0  0  0  0  0  0  0
   21.5040   41.9420    6.5130 O   0  0  0  0  0  0  0  0  0  0  0  0
   22.3360   40.2090    7.8100 O   0  0  0  0  0  0  0  0  0  0  0  0
   21.6010   40.1800    9.0370 C   0  0  0  0  0  0  0  0  0  0  0  0
   20.3120   39.4400    8.7840 C   0  0  0  0  0  0  0  0  0  0  0  0
   29.8670   25.5550   16.9770 C   0  0  0  0  0  0  0  0  0  0  0  0
   28.3450   25.7220   17.0260 C   0  0  0  0  0  0  0  0  0  0  0  0
   27.6050   24.3930   17.0460 C   0  0  0  0  0  0  0  0  0  0  0  0
   26.1170   24.5750   17.1590 C   0  0  0  0  0  0  0  0  0  0  0  0
   25.4820   23.2800   17.6570 C   0  0  0  0  0  0  0  0  0  0  0  0
   25.6330   23.1600   19.1260 N   0  0  0  0  0  0  0  0  0  0  0  0
  1  2  1  0  0  0  0
  1  5  1  0  0  0  0
  2  3  2  0  0  0  0
  4  1  1  0  0  0  0
  6  5  1  1  0  0  0
  6 29  1  0  0  0  0
  6  7  1  0  0  0  0
  7 27  1  1  0  0  0
  8  7  1  6  0  0  0
  8 13  1  0  0  0  0
  9 16  1  6  0  0  0
  9 14  1  0  0  0  0
  9 10  1  0  0  0  0
 10 12  1  0  0  0  0
 11  8  1  0  0  0  0
 11  9  1  0  0  0  0
 12 20  1  1  0  0  0
 13 22  1  1  0  0  0
 13 12  1  0  0  0  0
 15 14  1  0  0  0  0
 16 17  2  0  0  0  0
 18 16  1  0  0  0  0
 19 18  1  0  0  0  0
 20 21  1  0  0  0  0
 22 23  1  0  0  0  0
 22 24  1  0  0  0  0
 23 25  1  0  0  0  0
 26 23  2  0  0  0  0
 28 27  1  0  0  0  0
 29 30  1  0  0  0  0
 31  2  1  0  0  0  0
 32 31  1  0  0  0  0
 32 33  1  0  0  0  0
 33 35  1  0  0  0  0
 33 34  2  0  0  0  0
 34 36  1  0  0  0  0
 35 37  2  0  0  0  0
 36 38  1  0  0  0  0
 37 36  1  0  0  0  0
 39 38  1  0  0  0  0
 39 41  1  0  0  0  0
 40 39  2  0  0  0  0
 41 42  1  0  0  0  0
 43 42  1  0  0  0  0
 44 45  1  0  0  0  0
 45 46  1  0  0  0  0
 46 47  1  0  0  0  0
 47 48  1  0  0  0  0
 48 49  1  0  0  0  0
M  END
>  <REMARK>
 VINA RESULT:    -4.212      7.710     15.300
 INTER + INTRA:         -13.978
 INTER:                  -6.586
 INTRA:                  -7.392
 UNBOUND:                -5.949
 SMILES CCOC(=O)Cn1cc(COC(=O)NC[C@@H](O)C(O)[C@@H]2O[C@@](O)(C(=O)O)C[C@H](O)[C@H]2NC(C)=O)nn1
 SMILES IDX 14 1 12 2 13 3 15 5 16 6 18 7 20 8 22 9 27 10 21 11 28 12
 SMILES IDX 30 13 23 14 24 16 25 17 26 18 29 20 31 22 32 23 33 25 34 26
 SMILES IDX 19 27 17 29 11 31 10 32 9 33 8 34 35 35 7 36 36 37 6 38 4 39
 SMILES IDX 5 40 3 41 2 42 1 43
 H PARENT 14 4 23 15 26 19 29 21 31 24 19 28 17 30
 Flexibility Score: inf
  4 active torsions:
  status: ('A' for Active; 'I' for Inactive)
    1  A    between atoms: CA   and  CB  
    2  A    between atoms: CB   and  CG  
    3  A    between atoms: CG   and  CD  
    4  A    between atoms: CD   and  CE  

>  <TORSDO>
F 18

>  <BEGIN_>
RES LYS A 131

$$$$
ligand_13_pose_5_2HRL.pdbqt
 OpenBabel07062320523D

  6  5  0  0  0  0  0  0  0  0999 V2000
   33.1930   34.6630    9.2900 C   0  0  0  0  0  0  0  0  0  0  0  0
   32.0600   35.3600   10.0340 C   0  0  0  0  0  0  0  0  0  0  0  0
   30.7480   34.6220    9.9610 C   0  0  0  0  0  0  0  0  0  0  0  0
   30.3490   34.3790    8.5140 C   0  0  0  0  0  0  0  0  0  0  0  0
   28.8390   34.3290    8.3790 C   0  0  0  0  0  0  0  0  0  0  0  0
   28.2120   33.7240    9.5870 N   0  0  0  0  0  0  0  0  0  0  0  0
  1  2  1  0  0  0  0
  3  2  1  0  0  0  0
  4  3  1  0  0  0  0
  5  4  1  0  0  0  0
  5  6  1  0  0  0  0
M  END
>  <EGIN_R>
ES LYS A 135

>  <REMARK>
  4 active torsions:
  status: ('A' for Active; 'I' for Inactive)
    5  A    between atoms: CA   and  CB  
    6  A    between atoms: CB   and  CG  
    7  A    between atoms: CG   and  CD  
    8  A    between atoms: CD   and  CE  

$$$$
