ligand_72_pose_2_2HRL.pdbqt
 OpenBabel07062320523D

 49 49  0  0  1  0  0  0  0  0999 V2000
   31.9380   35.4140   16.0150 N   0  0  0  0  0  0  0  0  0  0  0  0
   32.6480   35.2870   14.7780 C   0  0  0  0  0  0  0  0  0  0  0  0
   33.2940   34.2230   14.4880 O   0  0  0  0  0  0  0  0  0  0  0  0
   31.4200   36.2940   16.1950 H   0  0  0  0  0  0  0  0  0  0  0  0
   31.9480   34.3160   16.9590 C   0  0  0  0  0  0  0  0  0  0  0  0
   30.7450   33.4620   16.8700 C   0  0  2  0  0  0  0  0  0  0  0  0
   30.8460   32.1790   16.1340 C   0  0  1  0  0  0  0  0  0  0  0  0
   30.1230   31.0670   16.8540 C   0  0  2  0  0  0  0  0  0  0  0  0
   27.8670   31.3970   16.2270 C   0  0  2  0  0  0  0  0  0  0  0  0
   27.5430   31.8090   17.6750 C   0  0  0  0  0  0  0  0  0  0  0  0
   29.0150   30.6780   16.1330 O   0  0  0  0  0  0  0  0  0  0  0  0
   28.3680   30.9120   18.5360 C   0  0  1  0  0  0  0  0  0  0  0  0
   29.8480   31.3310   18.3030 C   0  0  1  0  0  0  0  0  0  0  0  0
   27.7750   32.5120   15.4210 O   0  0  0  0  0  0  0  0  0  0  0  0
   28.6770   32.8060   15.1480 H   0  0  0  0  0  0  0  0  0  0  0  0
   26.7600   30.4550   15.7960 C   0  0  0  0  0  0  0  0  0  0  0  0
   26.7180   29.2770   16.2210 O   0  0  0  0  0  0  0  0  0  0  0  0
   25.8060   30.9350   14.9250 O   0  0  0  0  0  0  0  0  0  0  0  0
   25.9110   30.8440   13.9210 H   0  0  0  0  0  0  0  0  0  0  0  0
   28.0630   30.9940   19.8810 O   0  0  0  0  0  0  0  0  0  0  0  0
   28.8170   30.5740   20.3730 H   0  0  0  0  0  0  0  0  0  0  0  0
   30.5640   30.4110   19.2020 N   0  0  0  0  0  0  0  0  0  0  0  0
   31.2960   30.8370   20.3150 C   0  0  0  0  0  0  0  0  0  0  0  0
   30.5050   29.3970   18.9750 H   0  0  0  0  0  0  0  0  0  0  0  0
   32.0300   29.9270   21.2320 C   0  0  0  0  0  0  0  0  0  0  0  0
   31.3440   32.0730   20.5670 O   0  0  0  0  0  0  0  0  0  0  0  0
   30.7540   32.1920   14.7820 O   0  0  0  0  0  0  0  0  0  0  0  0
   30.7210   31.2960   14.3560 H   0  0  0  0  0  0  0  0  0  0  0  0
   29.6830   34.2080   16.3100 O   0  0  0  0  0  0  0  0  0  0  0  0
   29.8410   34.2700   15.3410 H   0  0  0  0  0  0  0  0  0  0  0  0
   32.6210   36.3420   13.9030 O   0  0  0  0  0  0  0  0  0  0  0  0
   31.8200   36.3750   12.7600 C   0  0  0  0  0  0  0  0  0  0  0  0
   30.4990   35.7390   13.0060 C   0  0  0  0  0  0  0  0  0  0  0  0
   29.3130   36.4230   13.1020 C   0  0  0  0  0  0  0  0  0  0  0  0
   30.2080   34.4500   13.1770 N   0  0  0  0  0  0  0  0  0  0  0  0
   28.3330   35.5410   13.3260 N   0  0  0  0  0  0  0  0  0  0  0  0
   28.9120   34.3390   13.3670 N   0  0  0  0  0  0  0  0  0  0  0  0
   26.9380   35.8600   13.4870 C   0  0  0  0  0  0  0  0  0  0  0  0
   26.6180   37.2010   12.8600 C   0  0  0  0  0  0  0  0  0  0  0  0
   26.6140   35.8840   14.9750 C   0  0  0  0  0  0  0  0  0  0  0  0
   26.0940   34.7720   12.8750 C   0  0  0  0  0  0  0  0  0  0  0  0
   25.8940   33.7440   13.8000 O   0  0  0  0  0  0  0  0  0  0  0  0
   26.5130   33.0010   13.5830 H   0  0  0  0  0  0  0  0  0  0  0  0
   29.8670   25.5550   16.9770 C   0  0  0  0  0  0  0  0  0  0  0  0
   28.3450   25.7220   17.0260 C   0  0  0  0  0  0  0  0  0  0  0  0
   27.6020   24.4000   16.9120 C   0  0  0  0  0  0  0  0  0  0  0  0
   26.1490   24.5340   17.2770 C   0  0  0  0  0  0  0  0  0  0  0  0
   26.0050   24.5500   18.7960 C   0  0  0  0  0  0  0  0  0  0  0  0
   25.5310   23.2340   19.2860 N   0  0  0  0  0  0  0  0  0  0  0  0
  1  4  1  0  0  0  0
  1  5  1  0  0  0  0
  2  1  1  0  0  0  0
  3  2  2  0  0  0  0
  6  5  1  6  0  0  0
  7 27  1  6  0  0  0
  7  6  1  0  0  0  0
  8  7  1  6  0  0  0
  8 13  1  0  0  0  0
  9 14  1  6  0  0  0
  9 10  1  0  0  0  0
 10 12  1  0  0  0  0
 11  9  1  0  0  0  0
 11  8  1  0  0  0  0
 12 20  1  1  0  0  0
 13 12  1  0  0  0  0
 13 22  1  1  0  0  0
 15 14  1  0  0  0  0
 16 17  2  0  0  0  0
 16  9  1  0  0  0  0
 18 16  1  0  0  0  0
 19 18  1  0  0  0  0
 20 21  1  0  0  0  0
 22 23  1  0  0  0  0
 23 26  2  0  0  0  0
 23 25  1  0  0  0  0
 24 22  1  0  0  0  0
 28 27  1  0  0  0  0
 29  6  1  0  0  0  0
 30 29  1  0  0  0  0
 31  2  1  0  0  0  0
 32 33  1  0  0  0  0
 32 31  1  0  0  0  0
 33 34  2  0  0  0  0
 33 35  1  0  0  0  0
 34 36  1  0  0  0  0
 35 37  2  0  0  0  0
 36 37  1  0  0  0  0
 36 38  1  0  0  0  0
 38 40  1  0  0  0  0
 39 38  1  0  0  0  0
 41 38  1  0  0  0  0
 41 42  1  0  0  0  0
 43 42  1  0  0  0  0
 44 45  1  0  0  0  0
 46 45  1  0  0  0  0
 46 47  1  0  0  0  0
 47 48  1  0  0  0  0
 48 49  1  0  0  0  0
M  END
>  <REMARK>
 VINA RESULT:    -4.738      6.047     10.368
 INTER + INTRA:         -14.760
 INTER:                  -7.882
 INTRA:                  -6.878
 UNBOUND:                -6.145
 SMILES CC(=O)N[C@@H]1[C@@H](O)C[C@](O)(C(=O)O)O[C@H]1C(O)[C@H](O)CNC(=O)OCc1cn(C(C)(C)CO)nn1
 SMILES IDX 21 1 22 2 23 3 20 5 18 6 16 7 15 8 9 9 8 10 14 11 6 12 5 13
 SMILES IDX 10 14 11 16 12 17 13 18 7 20 4 22 2 23 1 25 3 26 17 27 19 29
 SMILES IDX 24 31 25 32 26 33 27 34 35 35 28 36 34 37 29 38 30 39 31 40
 SMILES IDX 32 41 33 42
 H PARENT 21 4 10 15 13 19 7 21 4 24 17 28 19 30 33 43
 Flexibility Score: inf
  4 active torsions:
  status: ('A' for Active; 'I' for Inactive)
    1  A    between atoms: CA   and  CB  
    2  A    between atoms: CB   and  CG  
    3  A    between atoms: CG   and  CD  
    4  A    between atoms: CD   and  CE  

>  <TORSDO>
F 17

>  <BEGIN_>
RES LYS A 131

$$$$
ligand_72_pose_2_2HRL.pdbqt
 OpenBabel07062320523D

  6  5  0  0  0  0  0  0  0  0999 V2000
   33.1930   34.6630    9.2900 C   0  0  0  0  0  0  0  0  0  0  0  0
   32.0600   35.3600   10.0340 C   0  0  0  0  0  0  0  0  0  0  0  0
   30.7900   35.4720    9.2300 C   0  0  0  0  0  0  0  0  0  0  0  0
   30.1400   34.1070    9.0620 C   0  0  0  0  0  0  0  0  0  0  0  0
   28.7640   34.0910    9.7010 C   0  0  0  0  0  0  0  0  0  0  0  0
   28.1940   35.4640    9.7820 N   0  0  0  0  0  0  0  0  0  0  0  0
  1  2  1  0  0  0  0
  3  2  1  0  0  0  0
  4  3  1  0  0  0  0
  4  5  1  0  0  0  0
  5  6  1  0  0  0  0
M  END
>  <EGIN_R>
ES LYS A 135

>  <REMARK>
  4 active torsions:
  status: ('A' for Active; 'I' for Inactive)
    5  A    between atoms: CA   and  CB  
    6  A    between atoms: CB   and  CG  
    7  A    between atoms: CG   and  CD  
    8  A    between atoms: CD   and  CE  

$$$$
