ligand_25_pose_10_2HRL.pdbqt
 OpenBabel07062320523D

 56 59  0  0  1  0  0  0  0  0999 V2000
   24.2650   36.0650   12.3970 C   0  0  0  0  0  0  0  0  0  0  0  0
   23.5920   34.9590   11.6710 C   0  0  2  0  0  0  0  0  0  0  0  0
   23.1280   35.3370   10.3010 C   0  0  1  0  0  0  0  0  0  0  0  0
   21.9680   36.2910   10.2380 C   0  0  2  0  0  0  0  0  0  0  0  0
   20.5620   35.8150    8.4260 C   0  0  2  0  0  0  0  0  0  0  0  0
   19.9770   37.2090    8.3370 C   0  0  0  0  0  0  0  0  0  0  0  0
   20.9020   35.5570    9.7160 O   0  0  0  0  0  0  0  0  0  0  0  0
   20.8940   38.1650    9.0070 C   0  0  1  0  0  0  0  0  0  0  0  0
   22.2300   37.5340    9.4320 C   0  0  1  0  0  0  0  0  0  0  0  0
   21.5520   35.7280    7.4840 O   0  0  0  0  0  0  0  0  0  0  0  0
   22.4390   35.5920    7.8850 H   0  0  0  0  0  0  0  0  0  0  0  0
   19.4550   34.8800    8.0590 C   0  0  0  0  0  0  0  0  0  0  0  0
   18.7750   34.3480    8.9670 O   0  0  0  0  0  0  0  0  0  0  0  0
   19.1420   34.5710    6.7430 O   0  0  0  0  0  0  0  0  0  0  0  0
   18.8850   35.3140    6.0800 H   0  0  0  0  0  0  0  0  0  0  0  0
   21.1980   39.2830    8.2460 O   0  0  0  0  0  0  0  0  0  0  0  0
   21.8930   39.8540    8.6450 H   0  0  0  0  0  0  0  0  0  0  0  0
   22.8380   38.5420   10.2720 N   0  0  0  0  0  0  0  0  0  0  0  0
   24.1970   38.9450   10.2010 C   0  0  0  0  0  0  0  0  0  0  0  0
   22.2350   39.0100   10.9790 H   0  0  0  0  0  0  0  0  0  0  0  0
   24.7540   39.9990   11.1080 C   0  0  0  0  0  0  0  0  0  0  0  0
   24.9260   38.3830    9.3440 O   0  0  0  0  0  0  0  0  0  0  0  0
   24.1400   35.7340    9.4350 O   0  0  0  0  0  0  0  0  0  0  0  0
   24.2330   36.6940    9.3230 H   0  0  0  0  0  0  0  0  0  0  0  0
   22.4650   34.5530   12.3810 O   0  0  0  0  0  0  0  0  0  0  0  0
   22.1350   35.2310   13.0010 H   0  0  0  0  0  0  0  0  0  0  0  0
   25.5950   36.3470   12.0070 N   0  0  0  0  0  0  0  0  0  0  0  0
   26.7290   35.7150   12.5480 C   0  0  0  0  0  0  0  0  0  0  0  0
   25.7740   37.0870   11.2530 H   0  0  0  0  0  0  0  0  0  0  0  0
   26.6500   34.8440   13.4090 O   0  0  0  0  0  0  0  0  0  0  0  0
   28.0250   36.0560   12.1210 O   0  0  0  0  0  0  0  0  0  0  0  0
   28.8940   36.8530   12.8670 C   0  0  0  0  0  0  0  0  0  0  0  0
   30.1100   36.1400   13.3300 C   0  0  0  0  0  0  0  0  0  0  0  0
   30.3570   35.5300   14.5350 C   0  0  0  0  0  0  0  0  0  0  0  0
   31.2020   35.9880   12.5790 N   0  0  0  0  0  0  0  0  0  0  0  0
   31.5870   35.0310   14.4730 N   0  0  0  0  0  0  0  0  0  0  0  0
   32.0820   35.3170   13.2860 N   0  0  0  0  0  0  0  0  0  0  0  0
   32.2940   34.2940   15.5100 C   0  0  0  0  0  0  0  0  0  0  0  0
   31.4800   33.1920   16.0490 C   0  0  0  0  0  0  0  0  0  0  0  0
   32.6500   35.1250   16.6490 C   0  0  0  0  0  0  0  0  0  0  0  0
   30.8760   32.1050   15.3920 C   0  0  0  0  0  0  0  0  0  0  0  0
   31.3740   33.3740   17.3980 C   0  0  0  0  0  0  0  0  0  0  0  0
   32.1030   34.5820   17.7810 C   0  0  0  0  0  0  0  0  0  0  0  0
   33.4050   36.3080   16.7790 C   0  0  0  0  0  0  0  0  0  0  0  0
   30.1610   31.2080   16.1460 C   0  0  0  0  0  0  0  0  0  0  0  0
   30.6380   32.4420   18.1290 C   0  0  0  0  0  0  0  0  0  0  0  0
   32.2600   35.1430   19.0520 C   0  0  0  0  0  0  0  0  0  0  0  0
   33.5720   36.8760   18.0150 C   0  0  0  0  0  0  0  0  0  0  0  0
   30.0370   31.3680   17.5110 C   0  0  0  0  0  0  0  0  0  0  0  0
   33.0040   36.2980   19.1380 C   0  0  0  0  0  0  0  0  0  0  0  0
   29.8670   25.5550   16.9770 C   0  0  0  0  0  0  0  0  0  0  0  0
   28.3450   25.7220   17.0260 C   0  0  0  0  0  0  0  0  0  0  0  0
   27.5990   24.4260   16.7480 C   0  0  0  0  0  0  0  0  0  0  0  0
   26.8980   23.9020   17.9700 C   0  0  0  0  0  0  0  0  0  0  0  0
   25.5450   23.3220   17.5720 C   0  0  0  0  0  0  0  0  0  0  0  0
   24.7350   24.3380   16.8590 N   0  0  0  0  0  0  0  0  0  0  0  0
  2 25  1  0  0  0  0
  2  1  1  1  0  0  0
  3 23  1  6  0  0  0
  3  2  1  0  0  0  0
  4  3  1  6  0  0  0
  5 10  1  6  0  0  0
  5  7  1  0  0  0  0
  6  5  1  0  0  0  0
  6  8  1  0  0  0  0
  7  4  1  0  0  0  0
  8 16  1  6  0  0  0
  8  9  1  0  0  0  0
  9  4  1  0  0  0  0
  9 18  1  1  0  0  0
 10 11  1  0  0  0  0
 12  5  1  0  0  0  0
 12 13  2  0  0  0  0
 14 12  1  0  0  0  0
 15 14  1  0  0  0  0
 16 17  1  0  0  0  0
 18 20  1  0  0  0  0
 19 18  1  0  0  0  0
 19 21  1  0  0  0  0
 22 19  2  0  0  0  0
 24 23  1  0  0  0  0
 25 26  1  0  0  0  0
 27  1  1  0  0  0  0
 27 28  1  0  0  0  0
 28 30  2  0  0  0  0
 29 27  1  0  0  0  0
 31 28  1  0  0  0  0
 31 32  1  0  0  0  0
 32 33  1  0  0  0  0
 33 34  2  0  0  0  0
 35 37  2  0  0  0  0
 35 33  1  0  0  0  0
 36 34  1  0  0  0  0
 36 38  1  0  0  0  0
 37 36  1  0  0  0  0
 38 39  1  0  0  0  0
 38 40  1  0  0  0  0
 39 42  1  0  0  0  0
 40 44  2  0  0  0  0
 40 43  1  0  0  0  0
 41 39  2  0  0  0  0
 41 45  1  0  0  0  0
 42 43  1  0  0  0  0
 42 46  2  0  0  0  0
 43 47  2  0  0  0  0
 44 48  1  0  0  0  0
 45 49  2  0  0  0  0
 47 50  1  0  0  0  0
 48 50  2  0  0  0  0
 49 46  1  0  0  0  0
 51 52  1  0  0  0  0
 53 52  1  0  0  0  0
 53 54  1  0  0  0  0
 55 54  1  0  0  0  0
 56 55  1  0  0  0  0
M  END
>  <REMARK>
 VINA RESULT:    -6.555      4.042      8.955
 INTER + INTRA:         -15.923
 INTER:                 -10.092
 INTRA:                  -5.831
 UNBOUND:                -4.578
 SMILES CC(=O)N[C@@H]1[C@@H](O)C[C@](O)(C(=O)O)O[C@H]1C(O)[C@H](O)CNC(=O)OCc1cn(C2c3ccccc3-c3ccccc32)nn1
 SMILES IDX 20 1 18 2 16 3 15 4 9 5 8 6 14 7 6 8 5 9 10 10 11 12 12 13
 SMILES IDX 13 14 7 16 4 18 2 19 1 21 3 22 17 23 19 25 21 27 22 28 23 30
 SMILES IDX 24 31 25 32 26 33 27 34 43 35 28 36 42 37 29 38 30 39 41 40
 SMILES IDX 31 41 35 42 36 43 40 44 32 45 34 46 37 47 39 48 33 49 38 50
 H PARENT 10 11 13 15 7 17 4 20 17 24 19 26 21 29
 Flexibility Score: inf
  4 active torsions:
  status: ('A' for Active; 'I' for Inactive)
    1  A    between atoms: CA   and  CB  
    2  A    between atoms: CB   and  CG  
    3  A    between atoms: CG   and  CD  
    4  A    between atoms: CD   and  CE  

>  <TORSDO>
F 15

>  <BEGIN_>
RES LYS A 131

$$$$
ligand_25_pose_10_2HRL.pdbqt
 OpenBabel07062320523D

  6  5  0  0  0  0  0  0  0  0999 V2000
   33.1930   34.6630    9.2900 C   0  0  0  0  0  0  0  0  0  0  0  0
   32.0600   35.3600   10.0340 C   0  0  0  0  0  0  0  0  0  0  0  0
   30.7030   34.7670    9.7570 C   0  0  0  0  0  0  0  0  0  0  0  0
   30.4550   34.6700    8.2600 C   0  0  0  0  0  0  0  0  0  0  0  0
   28.9750   34.8050    7.9550 C   0  0  0  0  0  0  0  0  0  0  0  0
   28.1480   34.1890    9.0290 N   0  0  0  0  0  0  0  0  0  0  0  0
  1  2  1  0  0  0  0
  3  2  1  0  0  0  0
  4  3  1  0  0  0  0
  5  4  1  0  0  0  0
  5  6  1  0  0  0  0
M  END
>  <EGIN_R>
ES LYS A 135

>  <REMARK>
  4 active torsions:
  status: ('A' for Active; 'I' for Inactive)
    5  A    between atoms: CA   and  CB  
    6  A    between atoms: CB   and  CG  
    7  A    between atoms: CG   and  CD  
    8  A    between atoms: CD   and  CE  

$$$$
