ligand_93_pose_10_2HRL.pdbqt
 OpenBabel07062320523D

 50 51  0  0  1  0  0  0  0  0999 V2000
   24.5540   37.9630    9.2950 C   0  0  0  0  0  0  0  0  0  0  0  0
   24.4820   37.5220    7.8510 C   0  0  2  0  0  0  0  0  0  0  0  0
   25.8400   37.2290    7.3190 C   0  0  1  0  0  0  0  0  0  0  0  0
   26.8560   38.3320    7.4660 C   0  0  2  0  0  0  0  0  0  0  0  0
   27.7550   38.9700    5.3830 C   0  0  2  0  0  0  0  0  0  0  0  0
   29.1640   38.7510    5.8930 C   0  0  0  0  0  0  0  0  0  0  0  0
   26.8100   39.0810    6.3380 O   0  0  0  0  0  0  0  0  0  0  0  0
   29.1110   37.5830    6.8430 C   0  0  1  0  0  0  0  0  0  0  0  0
   28.1860   37.9460    7.9770 C   0  0  1  0  0  0  0  0  0  0  0  0
   27.4620   37.8580    4.5940 O   0  0  0  0  0  0  0  0  0  0  0  0
   27.1570   38.2120    3.7060 H   0  0  0  0  0  0  0  0  0  0  0  0
   27.8050   40.1570    4.4720 C   0  0  0  0  0  0  0  0  0  0  0  0
   28.8150   40.8850    4.3520 O   0  0  0  0  0  0  0  0  0  0  0  0
   26.6820   40.4590    3.7320 O   0  0  0  0  0  0  0  0  0  0  0  0
   26.1850   39.7680    3.1670 H   0  0  0  0  0  0  0  0  0  0  0  0
   28.6590   36.4870    6.1050 O   0  0  0  0  0  0  0  0  0  0  0  0
   27.9410   36.7330    5.4710 H   0  0  0  0  0  0  0  0  0  0  0  0
   28.8100   39.0870    8.6720 N   0  0  0  0  0  0  0  0  0  0  0  0
   28.5450   39.3700   10.0340 C   0  0  0  0  0  0  0  0  0  0  0  0
   29.4640   39.7110    8.1600 H   0  0  0  0  0  0  0  0  0  0  0  0
   29.2120   40.5350   10.6590 C   0  0  0  0  0  0  0  0  0  0  0  0
   27.7550   38.6480   10.7120 O   0  0  0  0  0  0  0  0  0  0  0  0
   26.3080   35.9760    7.6900 O   0  0  0  0  0  0  0  0  0  0  0  0
   25.8890   35.6650    8.5410 H   0  0  0  0  0  0  0  0  0  0  0  0
   23.8780   38.6040    7.1590 O   0  0  0  0  0  0  0  0  0  0  0  0
   24.3650   39.4440    7.3840 H   0  0  0  0  0  0  0  0  0  0  0  0
   25.2470   37.0320   10.1560 N   0  0  0  0  0  0  0  0  0  0  0  0
   24.4790   36.1220   10.9490 C   0  0  0  0  0  0  0  0  0  0  0  0
   26.2810   37.0430   10.1710 H   0  0  0  0  0  0  0  0  0  0  0  0
   23.2400   36.1670   10.8670 O   0  0  0  0  0  0  0  0  0  0  0  0
   25.1680   35.2400   11.7640 O   0  0  0  0  0  0  0  0  0  0  0  0
   25.1480   35.4450   13.1530 C   0  0  0  0  0  0  0  0  0  0  0  0
   26.5000   35.8890   13.5720 C   0  0  0  0  0  0  0  0  0  0  0  0
   27.6620   35.6820   12.8200 C   0  0  0  0  0  0  0  0  0  0  0  0
   26.8900   36.5350   14.6770 N   0  0  0  0  0  0  0  0  0  0  0  0
   28.6510   36.2240   13.5380 N   0  0  0  0  0  0  0  0  0  0  0  0
   28.1960   36.7410   14.6630 N   0  0  0  0  0  0  0  0  0  0  0  0
   30.0140   36.2440   13.1510 C   0  0  0  0  0  0  0  0  0  0  0  0
   30.4880   37.3270   12.4120 C   0  0  0  0  0  0  0  0  0  0  0  0
   30.8300   35.2070   13.5100 C   0  0  0  0  0  0  0  0  0  0  0  0
   31.8130   37.3550   12.0310 C   0  0  0  0  0  0  0  0  0  0  0  0
   32.1560   35.2540   13.1180 C   0  0  0  0  0  0  0  0  0  0  0  0
   30.1590   33.5510   14.6250 I   0  0  0  0  0  0  0  0  0  0  0  0
   32.6480   36.3180   12.3840 C   0  0  0  0  0  0  0  0  0  0  0  0
   29.8670   25.5550   16.9770 C   0  0  0  0  0  0  0  0  0  0  0  0
   28.3450   25.7220   17.0260 C   0  0  0  0  0  0  0  0  0  0  0  0
   27.6000   24.4100   16.8300 C   0  0  0  0  0  0  0  0  0  0  0  0
   26.3280   24.3570   17.6300 C   0  0  0  0  0  0  0  0  0  0  0  0
   26.0440   25.7310   18.2280 C   0  0  0  0  0  0  0  0  0  0  0  0
   25.8130   25.6240   19.6870 N   0  0  0  0  0  0  0  0  0  0  0  0
  1 27  1  0  0  0  0
  2  1  1  1  0  0  0
  3 23  1  1  0  0  0
  3  2  1  0  0  0  0
  4  3  1  6  0  0  0
  4  9  1  0  0  0  0
  5 12  1  6  0  0  0
  5  6  1  0  0  0  0
  5  7  1  0  0  0  0
  6  8  1  0  0  0  0
  7  4  1  0  0  0  0
  8 16  1  6  0  0  0
  8  9  1  0  0  0  0
  9 18  1  6  0  0  0
 10  5  1  0  0  0  0
 11 10  1  0  0  0  0
 13 12  2  0  0  0  0
 14 12  1  0  0  0  0
 15 14  1  0  0  0  0
 17 16  1  0  0  0  0
 18 19  1  0  0  0  0
 19 21  1  0  0  0  0
 19 22  2  0  0  0  0
 20 18  1  0  0  0  0
 23 24  1  0  0  0  0
 25 26  1  0  0  0  0
 25  2  1  0  0  0  0
 27 29  1  0  0  0  0
 27 28  1  0  0  0  0
 28 31  1  0  0  0  0
 30 28  2  0  0  0  0
 31 32  1  0  0  0  0
 32 33  1  0  0  0  0
 33 35  1  0  0  0  0
 34 36  1  0  0  0  0
 34 33  2  0  0  0  0
 36 37  1  0  0  0  0
 37 35  2  0  0  0  0
 38 40  1  0  0  0  0
 38 36  1  0  0  0  0
 39 38  2  0  0  0  0
 40 43  1  0  0  0  0
 41 44  2  0  0  0  0
 41 39  1  0  0  0  0
 42 40  2  0  0  0  0
 44 42  1  0  0  0  0
 45 46  1  0  0  0  0
 47 46  1  0  0  0  0
 47 48  1  0  0  0  0
 48 49  1  0  0  0  0
 49 50  1  0  0  0  0
M  END
>  <REMARK>
 VINA RESULT:    -4.360      5.521     10.407
 INTER + INTRA:         -13.831
 INTER:                  -8.208
 INTRA:                  -5.623
 UNBOUND:                -6.285
 SMILES CC(=O)N[C@@H]1[C@@H](O)C[C@](O)(C(=O)O)O[C@H]1C(O)[C@H](O)CNC(=O)OCc1cn(-c2ccccc2I)nn1
 SMILES IDX 20 1 18 2 16 3 15 4 9 5 8 6 14 7 6 8 5 9 10 10 11 12 12 13
 SMILES IDX 13 14 7 16 4 18 2 19 1 21 3 22 17 23 19 25 21 27 22 28 23 30
 SMILES IDX 24 31 25 32 26 33 27 34 37 35 28 36 36 37 29 38 30 39 34 40
 SMILES IDX 31 41 33 42 35 43 32 44
 H PARENT 10 11 13 15 7 17 4 20 17 24 19 26 21 29
 Flexibility Score: inf
  4 active torsions:
  status: ('A' for Active; 'I' for Inactive)
    1  A    between atoms: CA   and  CB  
    2  A    between atoms: CB   and  CG  
    3  A    between atoms: CG   and  CD  
    4  A    between atoms: CD   and  CE  

>  <TORSDO>
F 15

>  <BEGIN_>
RES LYS A 131

$$$$
ligand_93_pose_10_2HRL.pdbqt
 OpenBabel07062320523D

  6  5  0  0  0  0  0  0  0  0999 V2000
   33.1930   34.6630    9.2900 C   0  0  0  0  0  0  0  0  0  0  0  0
   32.0600   35.3600   10.0340 C   0  0  0  0  0  0  0  0  0  0  0  0
   30.7730   35.4200    9.2520 C   0  0  0  0  0  0  0  0  0  0  0  0
   30.1530   34.0360    9.1330 C   0  0  0  0  0  0  0  0  0  0  0  0
   28.7000   34.1380    8.7090 C   0  0  0  0  0  0  0  0  0  0  0  0
   27.7910   33.6880    9.7990 N   0  0  0  0  0  0  0  0  0  0  0  0
  1  2  1  0  0  0  0
  3  2  1  0  0  0  0
  4  3  1  0  0  0  0
  5  4  1  0  0  0  0
  5  6  1  0  0  0  0
M  END
>  <EGIN_R>
ES LYS A 135

>  <REMARK>
  4 active torsions:
  status: ('A' for Active; 'I' for Inactive)
    5  A    between atoms: CA   and  CB  
    6  A    between atoms: CB   and  CG  
    7  A    between atoms: CG   and  CD  
    8  A    between atoms: CD   and  CE  

$$$$
