ligand_81_pose_13_2HRL.pdbqt
 OpenBabel07062320523D

 63 65  0  0  1  0  0  0  0  0999 V2000
   23.2040   35.0180   11.2960 O   0  0  0  0  0  0  0  0  0  0  0  0
   23.5420   36.0650   10.4670 C   0  0  0  0  0  0  0  0  0  0  0  0
   24.1960   35.8470    9.1980 N   0  0  0  0  0  0  0  0  0  0  0  0
   24.3850   34.8490    8.9780 H   0  0  0  0  0  0  0  0  0  0  0  0
   23.2660   37.2320   10.8430 O   0  0  0  0  0  0  0  0  0  0  0  0
   24.5270   36.9820    8.3690 C   0  0  0  0  0  0  0  0  0  0  0  0
   26.0270   36.9410    8.1070 C   0  0  2  0  0  0  0  0  0  0  0  0
   26.6200   38.1290    8.8250 C   0  0  2  0  0  0  0  0  0  0  0  0
   28.1140   38.1200    8.9370 C   0  0  2  0  0  0  0  0  0  0  0  0
   28.3850   40.4130    8.5380 C   0  0  2  0  0  0  0  0  0  0  0  0
   28.6930   40.0440    7.0960 C   0  0  0  0  0  0  0  0  0  0  0  0
   28.5110   39.3550    9.3920 O   0  0  0  0  0  0  0  0  0  0  0  0
   29.5980   38.8300    7.1010 C   0  0  1  0  0  0  0  0  0  0  0  0
   28.8650   37.6390    7.7500 C   0  0  1  0  0  0  0  0  0  0  0  0
   27.0950   40.9560    8.5230 O   0  0  0  0  0  0  0  0  0  0  0  0
   26.4290   40.3220    8.1750 H   0  0  0  0  0  0  0  0  0  0  0  0
   29.3010   41.4730    9.0070 C   0  0  0  0  0  0  0  0  0  0  0  0
   30.0740   42.0180    8.1960 O   0  0  0  0  0  0  0  0  0  0  0  0
   29.3020   41.8560   10.3230 O   0  0  0  0  0  0  0  0  0  0  0  0
   29.0890   41.2470   11.1020 H   0  0  0  0  0  0  0  0  0  0  0  0
   30.0240   38.5220    5.8300 O   0  0  0  0  0  0  0  0  0  0  0  0
   29.3690   38.7960    5.1530 H   0  0  0  0  0  0  0  0  0  0  0  0
   29.9390   36.7020    8.1070 N   0  0  0  0  0  0  0  0  0  0  0  0
   29.7150   35.3090    8.0000 C   0  0  0  0  0  0  0  0  0  0  0  0
   30.8670   37.0440    8.4380 H   0  0  0  0  0  0  0  0  0  0  0  0
   30.7610   34.2980    8.3470 C   0  0  0  0  0  0  0  0  0  0  0  0
   28.5800   34.9310    7.5960 O   0  0  0  0  0  0  0  0  0  0  0  0
   26.1660   37.9430   10.1730 O   0  0  0  0  0  0  0  0  0  0  0  0
   25.1910   38.0090   10.2050 H   0  0  0  0  0  0  0  0  0  0  0  0
   26.1810   36.9740    6.7310 O   0  0  0  0  0  0  0  0  0  0  0  0
   25.7720   37.7710    6.3320 H   0  0  0  0  0  0  0  0  0  0  0  0
   24.1070   34.2560   12.0660 C   0  0  0  0  0  0  0  0  0  0  0  0
   25.4690   34.8740   12.0020 C   0  0  0  0  0  0  0  0  0  0  0  0
   26.0580   35.7200   12.9080 C   0  0  0  0  0  0  0  0  0  0  0  0
   26.3820   34.7110   11.0200 N   0  0  0  0  0  0  0  0  0  0  0  0
   27.3100   36.0610   12.4740 N   0  0  0  0  0  0  0  0  0  0  0  0
   27.4540   35.4180   11.3230 N   0  0  0  0  0  0  0  0  0  0  0  0
   28.2230   36.9290   13.1220 C   0  0  0  0  0  0  0  0  0  0  0  0
   28.2880   38.2310   12.8110 N   0  0  0  0  0  0  0  0  0  0  0  0
   29.1070   36.4400   14.0920 C   0  0  0  0  0  0  0  0  0  0  0  0
   29.1790   39.0600   13.4100 C   0  0  0  0  0  0  0  0  0  0  0  0
   30.0070   37.2720   14.6950 C   0  0  0  0  0  0  0  0  0  0  0  0
   30.0310   38.6070   14.3360 N   0  0  0  0  0  0  0  0  0  0  0  0
   29.0640   35.0010   14.4190 C   0  0  0  0  0  0  0  0  0  0  0  0
   29.9370   34.1280   13.5610 C   0  0  0  0  0  0  0  0  0  0  0  0
   30.8360   33.3990   14.2890 O   0  0  0  0  0  0  0  0  0  0  0  0
   30.2790   32.6810   15.3220 C   0  0  0  0  0  0  0  0  0  0  0  0
   31.1620   32.6880   16.5520 C   0  0  0  0  0  0  0  0  0  0  0  0
   29.2120   40.4270   13.0510 N   0  0  0  0  0  0  0  0  0  0  0  0
   28.3430   40.9900   13.0670 H   0  0  0  0  0  0  0  0  0  0  0  0
   30.0900   40.8980   12.7640 H   0  0  0  0  0  0  0  0  0  0  0  0
   31.0220   36.8050   15.6200 C   0  0  0  0  0  0  0  0  0  0  0  0
   30.9150   36.5820   16.9440 C   0  0  0  0  0  0  0  0  0  0  0  0
   32.2800   36.5310   15.0380 C   0  0  0  0  0  0  0  0  0  0  0  0
   32.0070   36.1000   17.6900 C   0  0  0  0  0  0  0  0  0  0  0  0
   33.3480   36.0640   15.7510 C   0  0  0  0  0  0  0  0  0  0  0  0
   33.2260   35.8370   17.1120 C   0  0  0  0  0  0  0  0  0  0  0  0
   29.8670   25.5550   16.9770 C   0  0  0  0  0  0  0  0  0  0  0  0
   28.3450   25.7220   17.0260 C   0  0  0  0  0  0  0  0  0  0  0  0
   27.6030   24.3960   16.9690 C   0  0  0  0  0  0  0  0  0  0  0  0
   26.6380   24.2370   18.1110 C   0  0  0  0  0  0  0  0  0  0  0  0
   25.2600   23.8750   17.5660 C   0  0  0  0  0  0  0  0  0  0  0  0
   25.0900   22.4030   17.5220 N   0  0  0  0  0  0  0  0  0  0  0  0
  1 32  1  0  0  0  0
  2  5  2  0  0  0  0
  2  1  1  0  0  0  0
  3  2  1  0  0  0  0
  4  3  1  0  0  0  0
  6  3  1  0  0  0  0
  7  6  1  6  0  0  0
  7  8  1  0  0  0  0
  8 28  1  1  0  0  0
  9  8  1  6  0  0  0
  9 12  1  0  0  0  0
 10 15  1  1  0  0  0
 10 17  1  0  0  0  0
 10 12  1  0  0  0  0
 11 13  1  0  0  0  0
 11 10  1  0  0  0  0
 13 21  1  6  0  0  0
 13 14  1  0  0  0  0
 14 23  1  1  0  0  0
 14  9  1  0  0  0  0
 16 15  1  0  0  0  0
 17 19  1  0  0  0  0
 18 17  2  0  0  0  0
 19 20  1  0  0  0  0
 22 21  1  0  0  0  0
 23 25  1  0  0  0  0
 24 23  1  0  0  0  0
 24 26  1  0  0  0  0
 27 24  2  0  0  0  0
 28 29  1  0  0  0  0
 30  7  1  0  0  0  0
 31 30  1  0  0  0  0
 33 32  1  0  0  0  0
 33 34  2  0  0  0  0
 35 37  2  0  0  0  0
 35 33  1  0  0  0  0
 36 34  1  0  0  0  0
 36 38  1  0  0  0  0
 37 36  1  0  0  0  0
 38 40  2  0  0  0  0
 39 38  1  0  0  0  0
 39 41  2  0  0  0  0
 40 44  1  0  0  0  0
 40 42  1  0  0  0  0
 41 43  1  0  0  0  0
 42 52  1  0  0  0  0
 43 42  2  0  0  0  0
 45 46  1  0  0  0  0
 45 44  1  0  0  0  0
 46 47  1  0  0  0  0
 47 48  1  0  0  0  0
 49 50  1  0  0  0  0
 49 41  1  0  0  0  0
 51 49  1  0  0  0  0
 52 53  1  0  0  0  0
 53 55  2  0  0  0  0
 54 52  2  0  0  0  0
 54 56  1  0  0  0  0
 56 57  2  0  0  0  0
 57 55  1  0  0  0  0
 58 59  1  0  0  0  0
 60 59  1  0  0  0  0
 60 61  1  0  0  0  0
 62 61  1  0  0  0  0
 63 62  1  0  0  0  0
M  END
>  <REMARK>
 VINA RESULT:    -4.640      2.993      6.317
 INTER + INTRA:         -16.693
 INTER:                 -10.552
 INTRA:                  -6.141
 UNBOUND:                -7.171
 SMILES CCOCCc1c(-c2ccccc2)nc(N)nc1-n1cc(COC(=O)NC[C@@H](O)C(O)[C@@H]2O[C@@](O)(C(=O)O)C[C@H](O)[C@H]2NC(C)=O)nn1
 SMILES IDX 23 1 24 2 26 3 25 5 27 6 28 7 30 8 32 9 34 10 39 11 33 12
 SMILES IDX 40 13 42 14 35 15 36 17 37 18 38 19 41 21 43 23 44 24 45 26
 SMILES IDX 46 27 31 28 29 30 22 32 21 33 20 34 47 35 19 36 48 37 18 38
 SMILES IDX 17 39 6 40 15 41 7 42 14 43 5 44 4 45 3 46 2 47 1 48 16 49
 SMILES IDX 8 52 9 53 13 54 10 55 12 56 11 57
 H PARENT 26 4 35 16 38 20 41 22 43 25 31 29 29 31 16 50 16 51
 Flexibility Score: inf
  4 active torsions:
  status: ('A' for Active; 'I' for Inactive)
    1  A    between atoms: CA   and  CB  
    2  A    between atoms: CB   and  CG  
    3  A    between atoms: CG   and  CD  
    4  A    between atoms: CD   and  CE  

>  <TORSDO>
F 21

>  <BEGIN_>
RES LYS A 131

$$$$
ligand_81_pose_13_2HRL.pdbqt
 OpenBabel07062320523D

  6  5  0  0  0  0  0  0  0  0999 V2000
   33.1930   34.6630    9.2900 C   0  0  0  0  0  0  0  0  0  0  0  0
   32.0600   35.3600   10.0340 C   0  0  0  0  0  0  0  0  0  0  0  0
   32.5030   36.0450   11.3010 C   0  0  0  0  0  0  0  0  0  0  0  0
   31.7360   37.3420   11.5060 C   0  0  0  0  0  0  0  0  0  0  0  0
   31.8950   38.2510   10.3020 C   0  0  0  0  0  0  0  0  0  0  0  0
   31.8560   39.6840   10.7040 N   0  0  0  0  0  0  0  0  0  0  0  0
  1  2  1  0  0  0  0
  2  3  1  0  0  0  0
  3  4  1  0  0  0  0
  5  6  1  0  0  0  0
  5  4  1  0  0  0  0
M  END
>  <EGIN_R>
ES LYS A 135

>  <REMARK>
  4 active torsions:
  status: ('A' for Active; 'I' for Inactive)
    5  A    between atoms: CA   and  CB  
    6  A    between atoms: CB   and  CG  
    7  A    between atoms: CG   and  CD  
    8  A    between atoms: CD   and  CE  

$$$$
