ligand_4_pose_1_2HRL.pdbqt
 OpenBabel07062320523D

 52 53  0  0  1  0  0  0  0  0999 V2000
   28.7480   31.2340   16.8940 N   0  0  0  0  0  0  0  0  0  0  0  0
   27.9640   30.6500   17.9070 C   0  0  0  0  0  0  0  0  0  0  0  0
   28.4860   30.0000   18.8360 O   0  0  0  0  0  0  0  0  0  0  0  0
   28.2520   31.7830   16.1400 H   0  0  0  0  0  0  0  0  0  0  0  0
   30.1640   31.1120   16.8580 C   0  0  0  0  0  0  0  0  0  0  0  0
   30.8770   32.2290   16.0970 C   0  0  2  0  0  0  0  0  0  0  0  0
   29.7450   33.2050   15.7690 C   0  0  2  0  0  0  0  0  0  0  0  0
   29.7760   33.6820   14.3520 C   0  0  2  0  0  0  0  0  0  0  0  0
   30.7740   35.5710   13.4510 C   0  0  2  0  0  0  0  0  0  0  0  0
   29.6950   35.7170   12.4380 C   0  0  0  0  0  0  0  0  0  0  0  0
   30.9090   34.3750   14.0890 O   0  0  0  0  0  0  0  0  0  0  0  0
   28.4010   34.9970   12.7530 C   0  0  1  0  0  0  0  0  0  0  0  0
   28.5170   34.5160   14.1690 C   0  0  1  0  0  0  0  0  0  0  0  0
   30.7070   36.6480   14.3740 O   0  0  0  0  0  0  0  0  0  0  0  0
   31.5010   36.7290   14.9330 H   0  0  0  0  0  0  0  0  0  0  0  0
   32.0730   35.7730   12.7110 C   0  0  0  0  0  0  0  0  0  0  0  0
   32.2510   36.8560   12.1140 O   0  0  0  0  0  0  0  0  0  0  0  0
   33.0780   34.8150   12.6730 O   0  0  0  0  0  0  0  0  0  0  0  0
   33.0830   33.9650   13.2320 H   0  0  0  0  0  0  0  0  0  0  0  0
   27.3390   35.9510   12.6740 O   0  0  0  0  0  0  0  0  0  0  0  0
   27.6440   36.7800   12.2350 H   0  0  0  0  0  0  0  0  0  0  0  0
   27.4060   33.8840   14.7640 N   0  0  0  0  0  0  0  0  0  0  0  0
   26.4110   34.5330   15.5350 C   0  0  0  0  0  0  0  0  0  0  0  0
   27.2820   32.8220   14.6390 H   0  0  0  0  0  0  0  0  0  0  0  0
   25.2620   33.8550   16.1460 C   0  0  0  0  0  0  0  0  0  0  0  0
   26.5770   35.8180   15.6880 O   0  0  0  0  0  0  0  0  0  0  0  0
   29.8810   34.2370   16.7030 O   0  0  0  0  0  0  0  0  0  0  0  0
   29.9560   33.8110   17.5970 H   0  0  0  0  0  0  0  0  0  0  0  0
   31.4880   31.8230   14.9560 O   0  0  0  0  0  0  0  0  0  0  0  0
   32.2300   31.2390   15.0930 H   0  0  0  0  0  0  0  0  0  0  0  0
   26.5740   30.7820   17.9010 O   0  0  0  0  0  0  0  0  0  0  0  0
   25.8100   29.6720   17.4560 C   0  0  0  0  0  0  0  0  0  0  0  0
   25.4100   29.9980   16.0640 C   0  0  0  0  0  0  0  0  0  0  0  0
   24.1680   29.6610   15.5120 C   0  0  0  0  0  0  0  0  0  0  0  0
   26.0590   30.7320   15.1470 N   0  0  0  0  0  0  0  0  0  0  0  0
   24.1520   30.2290   14.2920 N   0  0  0  0  0  0  0  0  0  0  0  0
   25.2560   30.8360   14.1220 N   0  0  0  0  0  0  0  0  0  0  0  0
   23.0180   30.2410   13.4470 C   0  0  0  0  0  0  0  0  0  0  0  0
   22.2290   31.3250   13.3810 C   0  0  0  0  0  0  0  0  0  0  0  0
   22.6340   29.0480   12.8180 C   0  0  0  0  0  0  0  0  0  0  0  0
   21.0270   31.2480   12.6780 C   0  0  0  0  0  0  0  0  0  0  0  0
   21.4780   28.9550   12.1350 C   0  0  0  0  0  0  0  0  0  0  0  0
   20.6390   30.0580   12.0480 C   0  0  0  0  0  0  0  0  0  0  0  0
   22.6620   32.6060   13.9040 C   0  0  0  0  0  0  0  0  0  0  0  0
   21.5030   33.4620   14.3920 C   0  0  0  0  0  0  0  0  0  0  0  0
   23.0820   33.4510   12.6210 C   0  0  0  0  0  0  0  0  0  0  0  0
   29.8670   25.5550   16.9770 C   0  0  0  0  0  0  0  0  0  0  0  0
   28.3450   25.7220   17.0260 C   0  0  0  0  0  0  0  0  0  0  0  0
   27.6010   24.4060   16.8630 C   0  0  0  0  0  0  0  0  0  0  0  0
   26.6560   24.1440   18.0030 C   0  0  0  0  0  0  0  0  0  0  0  0
   25.5490   23.2020   17.5420 C   0  0  0  0  0  0  0  0  0  0  0  0
   24.4680   23.9620   16.8700 N   0  0  0  0  0  0  0  0  0  0  0  0
  1  2  1  0  0  0  0
  2  3  2  0  0  0  0
  4  1  1  0  0  0  0
  5  1  1  0  0  0  0
  6  5  1  6  0  0  0
  7  6  1  0  0  0  0
  7 27  1  1  0  0  0
  8  7  1  1  0  0  0
  9 16  1  6  0  0  0
  9 11  1  0  0  0  0
  9 14  1  0  0  0  0
 10 12  1  0  0  0  0
 10  9  1  0  0  0  0
 11  8  1  0  0  0  0
 12 20  1  1  0  0  0
 12 13  1  0  0  0  0
 13  8  1  0  0  0  0
 13 22  1  6  0  0  0
 14 15  1  0  0  0  0
 17 16  2  0  0  0  0
 18 16  1  0  0  0  0
 18 19  1  0  0  0  0
 21 20  1  0  0  0  0
 22 23  1  0  0  0  0
 23 26  2  0  0  0  0
 23 25  1  0  0  0  0
 24 22  1  0  0  0  0
 27 28  1  0  0  0  0
 29 30  1  0  0  0  0
 29  6  1  0  0  0  0
 31  2  1  0  0  0  0
 32 31  1  0  0  0  0
 33 32  1  0  0  0  0
 34 33  2  0  0  0  0
 35 33  1  0  0  0  0
 36 34  1  0  0  0  0
 37 36  1  0  0  0  0
 37 35  2  0  0  0  0
 38 36  1  0  0  0  0
 39 38  1  0  0  0  0
 39 44  1  0  0  0  0
 40 38  2  0  0  0  0
 41 39  2  0  0  0  0
 42 40  1  0  0  0  0
 43 42  2  0  0  0  0
 43 41  1  0  0  0  0
 44 45  1  0  0  0  0
 46 44  1  0  0  0  0
 47 48  1  0  0  0  0
 49 48  1  0  0  0  0
 49 50  1  0  0  0  0
 51 50  1  0  0  0  0
 52 51  1  0  0  0  0
M  END
>  <REMARK>
 VINA RESULT:    -4.646      3.380      6.527
 INTER + INTRA:         -15.550
 INTER:                  -9.440
 INTRA:                  -6.110
 UNBOUND:                -7.237
 SMILES CC(=O)N[C@@H]1[C@@H](O)C[C@](O)(C(=O)O)O[C@H]1C(O)[C@H](O)CNC(=O)OCc1cn(-c2ccccc2C(C)C)nn1
 SMILES IDX 21 1 22 2 23 3 20 5 18 6 16 7 15 8 9 9 8 10 14 11 6 12 5 13
 SMILES IDX 10 14 11 16 12 17 13 18 7 20 4 22 2 23 1 25 3 26 17 27 19 29
 SMILES IDX 24 31 25 32 26 33 27 34 39 35 28 36 38 37 29 38 34 39 30 40
 SMILES IDX 33 41 31 42 32 43 35 44 36 45 37 46
 H PARENT 21 4 10 15 13 19 7 21 4 24 17 28 19 30
 Flexibility Score: inf
  4 active torsions:
  status: ('A' for Active; 'I' for Inactive)
    1  A    between atoms: CA   and  CB  
    2  A    between atoms: CB   and  CG  
    3  A    between atoms: CG   and  CD  
    4  A    between atoms: CD   and  CE  

>  <TORSDO>
F 16

>  <BEGIN_>
RES LYS A 131

$$$$
ligand_4_pose_1_2HRL.pdbqt
 OpenBabel07062320523D

  6  5  0  0  0  0  0  0  0  0999 V2000
   33.1930   34.6630    9.2900 C   0  0  0  0  0  0  0  0  0  0  0  0
   32.0600   35.3600   10.0340 C   0  0  0  0  0  0  0  0  0  0  0  0
   30.8250   35.5660    9.1950 C   0  0  0  0  0  0  0  0  0  0  0  0
   30.1020   34.2480    8.9720 C   0  0  0  0  0  0  0  0  0  0  0  0
   28.7250   34.4890    8.3830 C   0  0  0  0  0  0  0  0  0  0  0  0
   27.9720   35.5000    9.1760 N   0  0  0  0  0  0  0  0  0  0  0  0
  1  2  1  0  0  0  0
  3  2  1  0  0  0  0
  4  3  1  0  0  0  0
  5  4  1  0  0  0  0
  5  6  1  0  0  0  0
M  END
>  <EGIN_R>
ES LYS A 135

>  <REMARK>
  4 active torsions:
  status: ('A' for Active; 'I' for Inactive)
    5  A    between atoms: CA   and  CB  
    6  A    between atoms: CB   and  CG  
    7  A    between atoms: CG   and  CD  
    8  A    between atoms: CD   and  CE  

$$$$
