ligand_86_pose_1_2HRL.pdbqt
 OpenBabel07062320523D

 52 54  0  0  1  0  0  0  0  0999 V2000
   30.6560   26.8740   21.3060 C   0  0  0  0  0  0  0  0  0  0  0  0
   31.8760   27.6160   20.8790 C   0  0  2  0  0  0  0  0  0  0  0  0
   31.7590   29.1030   21.0050 C   0  0  2  0  0  0  0  0  0  0  0  0
   33.0560   29.7590   21.4160 C   0  0  2  0  0  0  0  0  0  0  0  0
   34.6500   29.7340   23.0910 C   0  0  2  0  0  0  0  0  0  0  0  0
   35.1430   30.8960   22.2720 C   0  0  0  0  0  0  0  0  0  0  0  0
   33.5690   29.0850   22.5150 O   0  0  0  0  0  0  0  0  0  0  0  0
   34.0760   31.8950   21.9450 C   0  0  1  0  0  0  0  0  0  0  0  0
   32.7580   31.1760   21.8640 C   0  0  1  0  0  0  0  0  0  0  0  0
   34.3700   30.0890   24.4090 O   0  0  0  0  0  0  0  0  0  0  0  0
   34.7210   30.9890   24.6060 H   0  0  0  0  0  0  0  0  0  0  0  0
   35.7660   28.7360   23.1480 C   0  0  0  0  0  0  0  0  0  0  0  0
   36.9820   29.1160   23.0720 O   0  0  0  0  0  0  0  0  0  0  0  0
   35.5560   27.3840   23.2840 O   0  0  0  0  0  0  0  0  0  0  0  0
   35.5590   26.9930   24.2340 H   0  0  0  0  0  0  0  0  0  0  0  0
   34.0650   32.9910   22.7760 O   0  0  0  0  0  0  0  0  0  0  0  0
   33.6540   32.7150   23.6370 H   0  0  0  0  0  0  0  0  0  0  0  0
   31.8010   31.8320   21.0090 N   0  0  0  0  0  0  0  0  0  0  0  0
   30.9390   32.8690   21.4790 C   0  0  0  0  0  0  0  0  0  0  0  0
   31.7090   31.5640   20.0030 H   0  0  0  0  0  0  0  0  0  0  0  0
   29.9800   33.5030   20.5510 C   0  0  0  0  0  0  0  0  0  0  0  0
   31.0350   33.2060   22.6810 O   0  0  0  0  0  0  0  0  0  0  0  0
   30.8020   29.4030   21.9740 O   0  0  0  0  0  0  0  0  0  0  0  0
   30.4460   28.6040   22.4010 H   0  0  0  0  0  0  0  0  0  0  0  0
   32.2050   27.3190   19.5370 O   0  0  0  0  0  0  0  0  0  0  0  0
   32.9020   27.9890   19.2880 H   0  0  0  0  0  0  0  0  0  0  0  0
   29.5710   27.0090   20.3640 N   0  0  0  0  0  0  0  0  0  0  0  0
   28.3000   27.4560   20.8110 C   0  0  0  0  0  0  0  0  0  0  0  0
   29.6720   26.7910   19.3430 H   0  0  0  0  0  0  0  0  0  0  0  0
   28.0560   27.7480   22.0140 O   0  0  0  0  0  0  0  0  0  0  0  0
   27.2180   27.6060   19.9440 O   0  0  0  0  0  0  0  0  0  0  0  0
   26.7120   28.8710   19.5670 C   0  0  0  0  0  0  0  0  0  0  0  0
   27.7850   29.6770   18.9230 C   0  0  0  0  0  0  0  0  0  0  0  0
   27.7770   30.1030   17.6120 C   0  0  0  0  0  0  0  0  0  0  0  0
   28.9330   30.1450   19.4410 N   0  0  0  0  0  0  0  0  0  0  0  0
   28.9120   30.8140   17.3660 N   0  0  0  0  0  0  0  0  0  0  0  0
   29.5770   30.8080   18.5090 N   0  0  0  0  0  0  0  0  0  0  0  0
   29.3030   31.4440   16.1080 C   0  0  2  0  0  0  0  0  0  0  0  0
   30.7820   31.5540   16.0880 C   0  0  0  0  0  0  0  0  0  0  0  0
   28.5630   32.7300   15.9960 C   0  0  0  0  0  0  0  0  0  0  0  0
   31.3290   32.7370   15.3730 C   0  0  1  0  0  0  0  0  0  0  0  0
   29.4100   33.8920   15.5480 C   0  0  2  0  0  0  0  0  0  0  0  0
   30.3360   33.3890   14.5490 N   0  0  0  0  0  0  0  0  0  0  0  0
   31.6390   33.8090   16.4050 C   0  0  0  0  0  0  0  0  0  0  0  0
   30.2520   34.3360   16.7170 C   0  0  0  0  0  0  0  0  0  0  0  0
   30.9430   34.4500   13.7850 C   0  0  0  0  0  0  0  0  0  0  0  0
   29.8670   25.5550   16.9770 C   0  0  0  0  0  0  0  0  0  0  0  0
   28.3450   25.7220   17.0260 C   0  0  0  0  0  0  0  0  0  0  0  0
   27.6010   24.4020   16.8930 C   0  0  0  0  0  0  0  0  0  0  0  0
   26.6230   24.1880   18.0150 C   0  0  0  0  0  0  0  0  0  0  0  0
   25.3620   23.5250   17.4710 C   0  0  0  0  0  0  0  0  0  0  0  0
   24.4650   24.5370   16.8630 N   0  0  0  0  0  0  0  0  0  0  0  0
  2  3  1  0  0  0  0
  2  1  1  6  0  0  0
  3 23  1  1  0  0  0
  4  3  1  1  0  0  0
  4  9  1  0  0  0  0
  4  7  1  0  0  0  0
  5 12  1  1  0  0  0
  5 10  1  0  0  0  0
  6  5  1  0  0  0  0
  7  5  1  0  0  0  0
  8  6  1  0  0  0  0
  8 16  1  1  0  0  0
  9 18  1  6  0  0  0
  9  8  1  0  0  0  0
 10 11  1  0  0  0  0
 12 14  1  0  0  0  0
 13 12  2  0  0  0  0
 14 15  1  0  0  0  0
 16 17  1  0  0  0  0
 18 19  1  0  0  0  0
 19 22  2  0  0  0  0
 20 18  1  0  0  0  0
 21 19  1  0  0  0  0
 23 24  1  0  0  0  0
 25  2  1  0  0  0  0
 26 25  1  0  0  0  0
 27 28  1  0  0  0  0
 27  1  1  0  0  0  0
 28 30  2  0  0  0  0
 29 27  1  0  0  0  0
 31 28  1  0  0  0  0
 32 31  1  0  0  0  0
 33 35  1  0  0  0  0
 33 32  1  0  0  0  0
 34 33  2  0  0  0  0
 36 34  1  0  0  0  0
 36 37  1  0  0  0  0
 37 35  2  0  0  0  0
 38 40  1  1  0  0  0
 38 36  1  0  0  0  0
 39 38  1  0  0  0  0
 41 39  1  1  0  0  0
 41 44  1  0  0  0  0
 42 40  1  1  0  0  0
 42 45  1  0  0  0  0
 43 41  1  0  0  0  0
 43 42  1  0  0  0  0
 44 45  1  0  0  0  0
 46 43  1  0  0  0  0
 47 48  1  0  0  0  0
 49 48  1  0  0  0  0
 49 50  1  0  0  0  0
 51 50  1  0  0  0  0
 52 51  1  0  0  0  0
M  END
>  <REMARK>
 VINA RESULT:    -5.057      1.967      4.112
 INTER + INTRA:         -15.307
 INTER:                  -9.485
 INTRA:                  -5.821
 UNBOUND:                -6.555
 SMILES CC(=O)N[C@@H]1[C@@H](O)C[C@](O)(C(=O)O)O[C@H]1C(O)[C@H](O)CNC(=O)OCc1cn([C@H]2C[C@H]3CC[C@@H](C2)N3C)nn1
 SMILES IDX 20 1 18 2 16 3 15 4 9 5 8 6 14 7 6 8 5 9 10 10 11 12 12 13
 SMILES IDX 13 14 7 16 4 18 2 19 1 21 3 22 17 23 19 25 21 27 22 28 23 30
 SMILES IDX 24 31 25 32 26 33 27 34 39 35 28 36 38 37 29 38 35 39 30 40
 SMILES IDX 34 41 31 42 36 43 33 44 32 45 37 46
 H PARENT 10 11 13 15 7 17 4 20 17 24 19 26 21 29
 Flexibility Score: inf
  4 active torsions:
  status: ('A' for Active; 'I' for Inactive)
    1  A    between atoms: CA   and  CB  
    2  A    between atoms: CB   and  CG  
    3  A    between atoms: CG   and  CD  
    4  A    between atoms: CD   and  CE  

>  <TORSDO>
F 15

>  <BEGIN_>
RES LYS A 131

$$$$
ligand_86_pose_1_2HRL.pdbqt
 OpenBabel07062320523D

  6  5  0  0  0  0  0  0  0  0999 V2000
   33.1930   34.6630    9.2900 C   0  0  0  0  0  0  0  0  0  0  0  0
   32.0600   35.3600   10.0340 C   0  0  0  0  0  0  0  0  0  0  0  0
   30.8700   35.6720    9.1640 C   0  0  0  0  0  0  0  0  0  0  0  0
   29.9620   34.4580    9.0400 C   0  0  0  0  0  0  0  0  0  0  0  0
   28.5470   34.8060    9.4620 C   0  0  0  0  0  0  0  0  0  0  0  0
   27.7260   33.5780    9.6480 N   0  0  0  0  0  0  0  0  0  0  0  0
  1  2  1  0  0  0  0
  3  2  1  0  0  0  0
  4  3  1  0  0  0  0
  4  5  1  0  0  0  0
  5  6  1  0  0  0  0
M  END
>  <EGIN_R>
ES LYS A 135

>  <REMARK>
  4 active torsions:
  status: ('A' for Active; 'I' for Inactive)
    5  A    between atoms: CA   and  CB  
    6  A    between atoms: CB   and  CG  
    7  A    between atoms: CG   and  CD  
    8  A    between atoms: CD   and  CE  

$$$$
