ligand_66_pose_11_2HRL.pdbqt
 OpenBabel07062320523D

 52 53  0  0  1  0  0  0  0  0999 V2000
   21.6240   36.4940    9.2590 N   0  0  0  0  0  0  0  0  0  0  0  0
   20.5490   36.0320    8.4900 C   0  0  0  0  0  0  0  0  0  0  0  0
   20.1360   36.6870    7.5120 O   0  0  0  0  0  0  0  0  0  0  0  0
   21.9220   35.8790   10.0740 H   0  0  0  0  0  0  0  0  0  0  0  0
   22.3230   37.7260    9.0040 C   0  0  0  0  0  0  0  0  0  0  0  0
   23.5330   37.5450    8.1310 C   0  0  2  0  0  0  0  0  0  0  0  0
   24.6810   38.4290    8.4280 C   0  0  2  0  0  0  0  0  0  0  0  0
   26.0610   37.8410    8.0910 C   0  0  2  0  0  0  0  0  0  0  0  0
   27.3830   37.2980    6.3180 C   0  0  2  0  0  0  0  0  0  0  0  0
   27.3450   35.8290    6.6870 C   0  0  0  0  0  0  0  0  0  0  0  0
   26.2180   37.8660    6.7630 O   0  0  0  0  0  0  0  0  0  0  0  0
   27.2810   35.6440    8.1790 C   0  0  1  0  0  0  0  0  0  0  0  0
   26.3270   36.5940    8.8430 C   0  0  1  0  0  0  0  0  0  0  0  0
   27.4290   37.3790    4.9030 O   0  0  0  0  0  0  0  0  0  0  0  0
   28.3150   36.9800    4.6650 H   0  0  0  0  0  0  0  0  0  0  0  0
   28.6310   37.8930    6.8050 C   0  0  0  0  0  0  0  0  0  0  0  0
   28.7690   39.1310    6.9450 O   0  0  0  0  0  0  0  0  0  0  0  0
   29.7670   37.1330    7.1530 O   0  0  0  0  0  0  0  0  0  0  0  0
   30.2730   37.4690    7.9760 H   0  0  0  0  0  0  0  0  0  0  0  0
   26.9000   34.3250    8.4250 O   0  0  0  0  0  0  0  0  0  0  0  0
   26.5050   33.8950    7.6370 H   0  0  0  0  0  0  0  0  0  0  0  0
   26.8120   36.8850   10.1780 N   0  0  0  0  0  0  0  0  0  0  0  0
   26.4070   36.1190   11.3320 C   0  0  0  0  0  0  0  0  0  0  0  0
   27.4810   37.6620   10.4070 H   0  0  0  0  0  0  0  0  0  0  0  0
   26.9330   36.4590   12.6920 C   0  0  0  0  0  0  0  0  0  0  0  0
   25.6130   35.1660   11.2030 O   0  0  0  0  0  0  0  0  0  0  0  0
   24.7410   38.8240    9.7660 O   0  0  0  0  0  0  0  0  0  0  0  0
   24.6280   39.7990    9.8860 H   0  0  0  0  0  0  0  0  0  0  0  0
   23.1080   37.5350    6.8030 O   0  0  0  0  0  0  0  0  0  0  0  0
   23.7840   37.0460    6.2730 H   0  0  0  0  0  0  0  0  0  0  0  0
   19.8850   34.8370    8.7650 O   0  0  0  0  0  0  0  0  0  0  0  0
   18.9620   34.8100    9.8240 C   0  0  0  0  0  0  0  0  0  0  0  0
   19.5930   34.1640   10.9930 C   0  0  0  0  0  0  0  0  0  0  0  0
   19.2250   32.9960   11.6230 C   0  0  0  0  0  0  0  0  0  0  0  0
   20.6700   34.6200   11.6590 N   0  0  0  0  0  0  0  0  0  0  0  0
   20.0780   32.7770   12.6410 N   0  0  0  0  0  0  0  0  0  0  0  0
   20.9390   33.7880   12.6260 N   0  0  0  0  0  0  0  0  0  0  0  0
   20.1390   31.7020   13.5950 C   0  0  0  0  0  0  0  0  0  0  0  0
   21.3760   30.8790   13.3860 C   0  0  0  0  0  0  0  0  0  0  0  0
   21.3790   29.8730   12.4460 C   0  0  0  0  0  0  0  0  0  0  0  0
   22.5190   31.1010   14.1060 C   0  0  0  0  0  0  0  0  0  0  0  0
   22.5320   29.1060   12.2420 C   0  0  0  0  0  0  0  0  0  0  0  0
   23.6730   30.3650   13.9310 C   0  0  0  0  0  0  0  0  0  0  0  0
   23.6760   29.3610   12.9900 C   0  0  0  0  0  0  0  0  0  0  0  0
   24.8820   30.5800   14.6710 C   0  0  0  0  0  0  0  0  0  0  0  0
   25.8740   30.7620   15.2590 N   0  0  0  0  0  0  0  0  0  0  0  0
   29.8670   25.5550   16.9770 C   0  0  0  0  0  0  0  0  0  0  0  0
   28.3450   25.7220   17.0260 C   0  0  0  0  0  0  0  0  0  0  0  0
   27.6010   24.4010   16.9030 C   0  0  0  0  0  0  0  0  0  0  0  0
   26.5180   24.2630   17.9360 C   0  0  0  0  0  0  0  0  0  0  0  0
   25.2030   23.9070   17.2500 C   0  0  0  0  0  0  0  0  0  0  0  0
   24.2620   25.0510   17.3070 N   0  0  0  0  0  0  0  0  0  0  0  0
  1  4  1  0  0  0  0
  2 31  1  0  0  0  0
  2  1  1  0  0  0  0
  3  2  2  0  0  0  0
  5  1  1  0  0  0  0
  6  7  1  0  0  0  0
  6  5  1  1  0  0  0
  7 27  1  1  0  0  0
  8  7  1  6  0  0  0
  8 13  1  0  0  0  0
  9 14  1  6  0  0  0
  9 10  1  0  0  0  0
  9 11  1  0  0  0  0
  9 16  1  0  0  0  0
 10 12  1  0  0  0  0
 11  8  1  0  0  0  0
 12 20  1  6  0  0  0
 12 13  1  0  0  0  0
 13 22  1  1  0  0  0
 15 14  1  0  0  0  0
 16 17  2  0  0  0  0
 16 18  1  0  0  0  0
 18 19  1  0  0  0  0
 21 20  1  0  0  0  0
 22 24  1  0  0  0  0
 22 23  1  0  0  0  0
 23 25  1  0  0  0  0
 26 23  2  0  0  0  0
 27 28  1  0  0  0  0
 29  6  1  0  0  0  0
 30 29  1  0  0  0  0
 31 32  1  0  0  0  0
 32 33  1  0  0  0  0
 33 34  2  0  0  0  0
 33 35  1  0  0  0  0
 34 36  1  0  0  0  0
 35 37  2  0  0  0  0
 36 38  1  0  0  0  0
 37 36  1  0  0  0  0
 39 38  1  0  0  0  0
 39 41  2  0  0  0  0
 40 39  1  0  0  0  0
 42 40  2  0  0  0  0
 42 44  1  0  0  0  0
 43 41  1  0  0  0  0
 43 45  1  0  0  0  0
 44 43  2  0  0  0  0
 45 46  3  0  0  0  0
 47 48  1  0  0  0  0
 49 48  1  0  0  0  0
 49 50  1  0  0  0  0
 51 52  1  0  0  0  0
 51 50  1  0  0  0  0
M  END
>  <REMARK>
 VINA RESULT:    -4.997      4.929      8.306
 INTER + INTRA:         -14.446
 INTER:                  -9.892
 INTRA:                  -4.553
 UNBOUND:                -5.212
 SMILES CC(=O)N[C@@H]1[C@@H](O)C[C@](O)(C(=O)O)O[C@H]1C(O)[C@H](O)CNC(=O)OCc1cn(Cc2cccc(C#N)c2)nn1
 SMILES IDX 21 1 22 2 23 3 20 5 18 6 16 7 15 8 9 9 8 10 14 11 6 12 5 13
 SMILES IDX 10 14 11 16 12 17 13 18 7 20 4 22 2 23 1 25 3 26 17 27 19 29
 SMILES IDX 24 31 25 32 26 33 27 34 39 35 28 36 38 37 29 38 30 39 31 40
 SMILES IDX 37 41 32 42 34 43 33 44 35 45 36 46
 H PARENT 21 4 10 15 13 19 7 21 4 24 17 28 19 30
 Flexibility Score: inf
  4 active torsions:
  status: ('A' for Active; 'I' for Inactive)
    1  A    between atoms: CA   and  CB  
    2  A    between atoms: CB   and  CG  
    3  A    between atoms: CG   and  CD  
    4  A    between atoms: CD   and  CE  

>  <TORSDO>
F 17

>  <BEGIN_>
RES LYS A 131

$$$$
ligand_66_pose_11_2HRL.pdbqt
 OpenBabel07062320523D

  6  5  0  0  0  0  0  0  0  0999 V2000
   33.1930   34.6630    9.2900 C   0  0  0  0  0  0  0  0  0  0  0  0
   32.0600   35.3600   10.0340 C   0  0  0  0  0  0  0  0  0  0  0  0
   30.6890   34.8920    9.6190 C   0  0  0  0  0  0  0  0  0  0  0  0
   29.7890   34.7240   10.8340 C   0  0  0  0  0  0  0  0  0  0  0  0
   30.5890   34.8720   12.1140 C   0  0  0  0  0  0  0  0  0  0  0  0
   29.8350   34.3390   13.2820 N   0  0  0  0  0  0  0  0  0  0  0  0
  1  2  1  0  0  0  0
  3  2  1  0  0  0  0
  3  4  1  0  0  0  0
  4  5  1  0  0  0  0
  5  6  1  0  0  0  0
M  END
>  <EGIN_R>
ES LYS A 135

>  <REMARK>
  4 active torsions:
  status: ('A' for Active; 'I' for Inactive)
    5  A    between atoms: CA   and  CB  
    6  A    between atoms: CB   and  CG  
    7  A    between atoms: CG   and  CD  
    8  A    between atoms: CD   and  CE  

$$$$
