ligand_15_pose_19_2HRL.pdbqt
 OpenBabel07062320523D

 50 51  0  0  1  0  0  0  0  0999 V2000
   28.3510   37.3840   14.9870 C   0  0  0  0  0  0  0  0  0  0  0  0
   27.5620   36.1280   15.2070 C   0  0  2  0  0  0  0  0  0  0  0  0
   28.3230   34.8590   15.0550 C   0  0  2  0  0  0  0  0  0  0  0  0
   29.7890   34.9640   15.4220 C   0  0  2  0  0  0  0  0  0  0  0  0
   31.8160   35.1360   14.2520 C   0  0  2  0  0  0  0  0  0  0  0  0
   32.4020   34.3270   15.3760 C   0  0  0  0  0  0  0  0  0  0  0  0
   30.4700   35.0340   14.2130 O   0  0  0  0  0  0  0  0  0  0  0  0
   31.4800   33.1590   15.6380 C   0  0  1  0  0  0  0  0  0  0  0  0
   30.1720   33.7350   16.1980 C   0  0  1  0  0  0  0  0  0  0  0  0
   32.3020   34.6210   13.0180 O   0  0  0  0  0  0  0  0  0  0  0  0
   32.7900   33.7930   13.2660 H   0  0  0  0  0  0  0  0  0  0  0  0
   32.2080   36.5690   14.3470 C   0  0  0  0  0  0  0  0  0  0  0  0
   32.7680   37.0620   15.3410 O   0  0  0  0  0  0  0  0  0  0  0  0
   31.9410   37.4050   13.2760 O   0  0  0  0  0  0  0  0  0  0  0  0
   31.1650   38.0690   13.2710 H   0  0  0  0  0  0  0  0  0  0  0  0
   31.1580   32.5950   14.4050 O   0  0  0  0  0  0  0  0  0  0  0  0
   31.8580   32.7030   13.7330 H   0  0  0  0  0  0  0  0  0  0  0  0
   30.4710   34.1020   17.5540 N   0  0  0  0  0  0  0  0  0  0  0  0
   30.3040   33.2430   18.6660 C   0  0  0  0  0  0  0  0  0  0  0  0
   30.8400   35.0650   17.7670 H   0  0  0  0  0  0  0  0  0  0  0  0
   30.6260   33.6730   20.0600 C   0  0  0  0  0  0  0  0  0  0  0  0
   29.8730   32.0870   18.4790 O   0  0  0  0  0  0  0  0  0  0  0  0
   28.1980   34.4340   13.7090 O   0  0  0  0  0  0  0  0  0  0  0  0
   28.8900   33.7570   13.5550 H   0  0  0  0  0  0  0  0  0  0  0  0
   26.5000   36.1310   14.2780 O   0  0  0  0  0  0  0  0  0  0  0  0
   26.5640   35.3540   13.6690 H   0  0  0  0  0  0  0  0  0  0  0  0
   28.8020   37.6050   13.6520 N   0  0  0  0  0  0  0  0  0  0  0  0
   28.3060   38.7320   12.9000 C   0  0  0  0  0  0  0  0  0  0  0  0
   29.4770   37.0140   13.1260 H   0  0  0  0  0  0  0  0  0  0  0  0
   27.4800   39.4890   13.4630 O   0  0  0  0  0  0  0  0  0  0  0  0
   28.7270   38.9720   11.6010 O   0  0  0  0  0  0  0  0  0  0  0  0
   28.9740   37.8240   10.8000 C   0  0  0  0  0  0  0  0  0  0  0  0
   27.6870   37.0740   10.7140 C   0  0  0  0  0  0  0  0  0  0  0  0
   26.5940   37.4000    9.9340 C   0  0  0  0  0  0  0  0  0  0  0  0
   27.3360   35.9480   11.3630 N   0  0  0  0  0  0  0  0  0  0  0  0
   25.6320   36.4830   10.1280 N   0  0  0  0  0  0  0  0  0  0  0  0
   26.1200   35.6270   10.9960 N   0  0  0  0  0  0  0  0  0  0  0  0
   24.3320   36.3920    9.5510 C   0  0  0  0  0  0  0  0  0  0  0  0
   23.3430   35.5870   10.0810 C   0  0  0  0  0  0  0  0  0  0  0  0
   24.0070   37.1180    8.4230 C   0  0  0  0  0  0  0  0  0  0  0  0
   22.0860   35.5100    9.5110 C   0  0  0  0  0  0  0  0  0  0  0  0
   22.7450   37.0440    7.8460 C   0  0  0  0  0  0  0  0  0  0  0  0
   21.7660   36.2400    8.3800 C   0  0  0  0  0  0  0  0  0  0  0  0
   20.0180   36.0960    7.6350 Br  0  0  0  0  0  0  0  0  0  0  0  0
   29.8670   25.5550   16.9770 C   0  0  0  0  0  0  0  0  0  0  0  0
   28.3450   25.7220   17.0260 C   0  0  0  0  0  0  0  0  0  0  0  0
   27.6010   24.4010   16.9000 C   0  0  0  0  0  0  0  0  0  0  0  0
   26.1490   24.5320   17.2660 C   0  0  0  0  0  0  0  0  0  0  0  0
   26.0060   24.5370   18.7850 C   0  0  0  0  0  0  0  0  0  0  0  0
   25.5410   23.2150   19.2670 N   0  0  0  0  0  0  0  0  0  0  0  0
  2  1  1  6  0  0  0
  3 23  1  6  0  0  0
  3  2  1  0  0  0  0
  4  3  1  6  0  0  0
  4  9  1  0  0  0  0
  5 10  1  6  0  0  0
  5 12  1  0  0  0  0
  5  6  1  0  0  0  0
  6  8  1  0  0  0  0
  7  5  1  0  0  0  0
  7  4  1  0  0  0  0
  8 16  1  6  0  0  0
  8  9  1  0  0  0  0
  9 18  1  1  0  0  0
 10 11  1  0  0  0  0
 12 13  2  0  0  0  0
 14 12  1  0  0  0  0
 15 14  1  0  0  0  0
 17 16  1  0  0  0  0
 18 20  1  0  0  0  0
 18 19  1  0  0  0  0
 19 21  1  0  0  0  0
 22 19  2  0  0  0  0
 24 23  1  0  0  0  0
 25  2  1  0  0  0  0
 26 25  1  0  0  0  0
 27  1  1  0  0  0  0
 28 30  2  0  0  0  0
 28 27  1  0  0  0  0
 29 27  1  0  0  0  0
 31 28  1  0  0  0  0
 32 31  1  0  0  0  0
 33 32  1  0  0  0  0
 33 35  1  0  0  0  0
 34 36  1  0  0  0  0
 34 33  2  0  0  0  0
 36 37  1  0  0  0  0
 37 35  2  0  0  0  0
 38 39  1  0  0  0  0
 38 36  1  0  0  0  0
 40 38  2  0  0  0  0
 41 39  2  0  0  0  0
 42 43  2  0  0  0  0
 42 40  1  0  0  0  0
 43 41  1  0  0  0  0
 44 43  1  0  0  0  0
 45 46  1  0  0  0  0
 47 46  1  0  0  0  0
 47 48  1  0  0  0  0
 48 49  1  0  0  0  0
 49 50  1  0  0  0  0
M  END
>  <REMARK>
 VINA RESULT:    -5.005      5.583      9.712
 INTER + INTRA:         -13.823
 INTER:                  -7.920
 INTRA:                  -5.903
 UNBOUND:                -5.161
 SMILES CC(=O)N[C@@H]1[C@@H](O)C[C@](O)(C(=O)O)O[C@H]1C(O)[C@H](O)CNC(=O)OCc1cn(-c2ccc(Br)cc2)nn1
 SMILES IDX 20 1 18 2 16 3 15 4 9 5 8 6 14 7 6 8 5 9 10 10 11 12 12 13
 SMILES IDX 13 14 7 16 4 18 2 19 1 21 3 22 17 23 19 25 21 27 22 28 23 30
 SMILES IDX 24 31 25 32 26 33 27 34 37 35 28 36 36 37 29 38 30 39 35 40
 SMILES IDX 31 41 34 42 32 43 33 44
 H PARENT 10 11 13 15 7 17 4 20 17 24 19 26 21 29
 Flexibility Score: inf
  4 active torsions:
  status: ('A' for Active; 'I' for Inactive)
    1  A    between atoms: CA   and  CB  
    2  A    between atoms: CB   and  CG  
    3  A    between atoms: CG   and  CD  
    4  A    between atoms: CD   and  CE  

>  <TORSDO>
F 15

>  <BEGIN_>
RES LYS A 131

$$$$
ligand_15_pose_19_2HRL.pdbqt
 OpenBabel07062320523D

  6  5  0  0  0  0  0  0  0  0999 V2000
   33.1930   34.6630    9.2900 C   0  0  0  0  0  0  0  0  0  0  0  0
   32.0600   35.3600   10.0340 C   0  0  0  0  0  0  0  0  0  0  0  0
   30.6950   34.8150    9.7000 C   0  0  0  0  0  0  0  0  0  0  0  0
   30.5910   34.5000    8.2160 C   0  0  0  0  0  0  0  0  0  0  0  0
   29.3280   35.1030    7.6310 C   0  0  0  0  0  0  0  0  0  0  0  0
   28.1130   34.5130    8.2570 N   0  0  0  0  0  0  0  0  0  0  0  0
  1  2  1  0  0  0  0
  3  2  1  0  0  0  0
  4  3  1  0  0  0  0
  5  4  1  0  0  0  0
  5  6  1  0  0  0  0
M  END
>  <EGIN_R>
ES LYS A 135

>  <REMARK>
  4 active torsions:
  status: ('A' for Active; 'I' for Inactive)
    5  A    between atoms: CA   and  CB  
    6  A    between atoms: CB   and  CG  
    7  A    between atoms: CG   and  CD  
    8  A    between atoms: CD   and  CE  

$$$$
