ligand_25_pose_7_2HRL.pdbqt
 OpenBabel07062320523D

 56 59  0  0  1  0  0  0  0  0999 V2000
   29.0160   29.2730   20.7740 C   0  0  0  0  0  0  0  0  0  0  0  0
   28.7470   28.1140   19.8870 C   0  0  2  0  0  0  0  0  0  0  0  0
   27.3150   27.6850   19.8790 C   0  0  1  0  0  0  0  0  0  0  0  0
   26.6440   27.6540   18.5340 C   0  0  2  0  0  0  0  0  0  0  0  0
   26.7820   29.7290   17.4580 C   0  0  2  0  0  0  0  0  0  0  0  0
   25.5810   29.5010   16.5650 C   0  0  0  0  0  0  0  0  0  0  0  0
   27.3690   28.5350   17.7290 O   0  0  0  0  0  0  0  0  0  0  0  0
   24.7280   28.4400   17.1580 C   0  0  1  0  0  0  0  0  0  0  0  0
   25.1820   28.0070   18.5610 C   0  0  1  0  0  0  0  0  0  0  0  0
   26.3620   30.4820   18.5220 O   0  0  0  0  0  0  0  0  0  0  0  0
   25.8180   29.9620   19.1550 H   0  0  0  0  0  0  0  0  0  0  0  0
   27.7510   30.5290   16.6470 C   0  0  0  0  0  0  0  0  0  0  0  0
   27.4720   31.7140   16.3510 O   0  0  0  0  0  0  0  0  0  0  0  0
   28.9590   30.0130   16.2010 O   0  0  0  0  0  0  0  0  0  0  0  0
   28.9830   29.3460   15.4170 H   0  0  0  0  0  0  0  0  0  0  0  0
   23.3880   28.7800   17.2520 O   0  0  0  0  0  0  0  0  0  0  0  0
   22.9020   28.7040   16.4000 H   0  0  0  0  0  0  0  0  0  0  0  0
   24.3980   26.8220   18.8290 N   0  0  0  0  0  0  0  0  0  0  0  0
   23.8300   26.4910   20.0870 C   0  0  0  0  0  0  0  0  0  0  0  0
   24.2340   26.1620   18.0400 H   0  0  0  0  0  0  0  0  0  0  0  0
   23.0270   25.2410   20.2840 C   0  0  0  0  0  0  0  0  0  0  0  0
   24.0230   27.2890   21.0390 O   0  0  0  0  0  0  0  0  0  0  0  0
   27.0560   26.5170   20.5850 O   0  0  0  0  0  0  0  0  0  0  0  0
   27.6170   25.7600   20.3510 H   0  0  0  0  0  0  0  0  0  0  0  0
   29.4940   27.0180   20.3130 O   0  0  0  0  0  0  0  0  0  0  0  0
   29.2700   26.1920   19.8430 H   0  0  0  0  0  0  0  0  0  0  0  0
   28.8790   30.5520   20.1860 N   0  0  0  0  0  0  0  0  0  0  0  0
   29.9560   31.3310   19.7250 C   0  0  0  0  0  0  0  0  0  0  0  0
   27.9000   30.9750   20.0740 H   0  0  0  0  0  0  0  0  0  0  0  0
   31.1200   30.9480   19.7890 O   0  0  0  0  0  0  0  0  0  0  0  0
   29.7450   32.6020   19.1620 O   0  0  0  0  0  0  0  0  0  0  0  0
   30.7200   33.2940   18.4430 C   0  0  0  0  0  0  0  0  0  0  0  0
   30.5700   33.1820   16.9710 C   0  0  0  0  0  0  0  0  0  0  0  0
   30.0160   34.0690   16.0810 C   0  0  0  0  0  0  0  0  0  0  0  0
   30.9860   32.1260   16.2700 N   0  0  0  0  0  0  0  0  0  0  0  0
   30.1140   33.5210   14.8740 N   0  0  0  0  0  0  0  0  0  0  0  0
   30.7020   32.3490   15.0070 N   0  0  0  0  0  0  0  0  0  0  0  0
   29.6660   34.0830   13.6090 C   0  0  0  0  0  0  0  0  0  0  0  0
   30.5910   35.1160   13.1120 C   0  0  0  0  0  0  0  0  0  0  0  0
   28.3640   34.7240   13.7070 C   0  0  0  0  0  0  0  0  0  0  0  0
   31.9670   35.0430   12.8350 C   0  0  0  0  0  0  0  0  0  0  0  0
   29.8760   36.2660   12.9370 C   0  0  0  0  0  0  0  0  0  0  0  0
   28.4820   36.0290   13.3080 C   0  0  0  0  0  0  0  0  0  0  0  0
   27.0940   34.2670   14.1140 C   0  0  0  0  0  0  0  0  0  0  0  0
   32.5970   36.1720   12.3740 C   0  0  0  0  0  0  0  0  0  0  0  0
   30.5510   37.3930   12.4690 C   0  0  0  0  0  0  0  0  0  0  0  0
   27.4060   36.9230   13.2840 C   0  0  0  0  0  0  0  0  0  0  0  0
   26.0260   35.1250   14.0990 C   0  0  0  0  0  0  0  0  0  0  0  0
   31.8990   37.3480   12.1880 C   0  0  0  0  0  0  0  0  0  0  0  0
   26.1830   36.4380   13.6890 C   0  0  0  0  0  0  0  0  0  0  0  0
   29.8670   25.5550   16.9770 C   0  0  0  0  0  0  0  0  0  0  0  0
   28.3450   25.7220   17.0260 C   0  0  0  0  0  0  0  0  0  0  0  0
   27.6000   24.4140   16.8070 C   0  0  0  0  0  0  0  0  0  0  0  0
   26.7300   24.0550   17.9800 C   0  0  0  0  0  0  0  0  0  0  0  0
   25.3250   23.7220   17.4880 C   0  0  0  0  0  0  0  0  0  0  0  0
   25.0600   22.2700   17.6170 N   0  0  0  0  0  0  0  0  0  0  0  0
  2 25  1  0  0  0  0
  2  1  1  1  0  0  0
  3  2  1  0  0  0  0
  3 23  1  6  0  0  0
  4  9  1  0  0  0  0
  4  3  1  1  0  0  0
  5 12  1  6  0  0  0
  5  7  1  0  0  0  0
  5 10  1  0  0  0  0
  6  8  1  0  0  0  0
  6  5  1  0  0  0  0
  7  4  1  0  0  0  0
  8 16  1  1  0  0  0
  8  9  1  0  0  0  0
  9 18  1  6  0  0  0
 10 11  1  0  0  0  0
 13 12  2  0  0  0  0
 14 12  1  0  0  0  0
 15 14  1  0  0  0  0
 17 16  1  0  0  0  0
 18 19  1  0  0  0  0
 19 21  1  0  0  0  0
 19 22  2  0  0  0  0
 20 18  1  0  0  0  0
 24 23  1  0  0  0  0
 26 25  1  0  0  0  0
 27  1  1  0  0  0  0
 28 30  2  0  0  0  0
 28 27  1  0  0  0  0
 29 27  1  0  0  0  0
 31 28  1  0  0  0  0
 32 31  1  0  0  0  0
 33 32  1  0  0  0  0
 34 33  2  0  0  0  0
 35 33  1  0  0  0  0
 36 37  1  0  0  0  0
 36 34  1  0  0  0  0
 37 35  2  0  0  0  0
 38 40  1  0  0  0  0
 38 36  1  0  0  0  0
 39 38  1  0  0  0  0
 40 44  2  0  0  0  0
 41 39  2  0  0  0  0
 42 39  1  0  0  0  0
 42 43  1  0  0  0  0
 43 40  1  0  0  0  0
 45 41  1  0  0  0  0
 46 42  2  0  0  0  0
 47 43  2  0  0  0  0
 47 50  1  0  0  0  0
 48 44  1  0  0  0  0
 49 45  2  0  0  0  0
 49 46  1  0  0  0  0
 50 48  2  0  0  0  0
 51 52  1  0  0  0  0
 53 52  1  0  0  0  0
 53 54  1  0  0  0  0
 55 56  1  0  0  0  0
 55 54  1  0  0  0  0
M  END
>  <REMARK>
 VINA RESULT:    -6.643      2.997      5.774
 INTER + INTRA:         -16.075
 INTER:                  -9.635
 INTRA:                  -6.439
 UNBOUND:                -4.578
 SMILES CC(=O)N[C@@H]1[C@@H](O)C[C@](O)(C(=O)O)O[C@H]1C(O)[C@H](O)CNC(=O)OCc1cn(C2c3ccccc3-c3ccccc32)nn1
 SMILES IDX 20 1 18 2 16 3 15 4 9 5 8 6 14 7 6 8 5 9 10 10 11 12 12 13
 SMILES IDX 13 14 7 16 4 18 2 19 1 21 3 22 17 23 19 25 21 27 22 28 23 30
 SMILES IDX 24 31 25 32 26 33 27 34 43 35 28 36 42 37 29 38 30 39 41 40
 SMILES IDX 31 41 35 42 36 43 40 44 32 45 34 46 37 47 39 48 33 49 38 50
 H PARENT 10 11 13 15 7 17 4 20 17 24 19 26 21 29
 Flexibility Score: inf
  4 active torsions:
  status: ('A' for Active; 'I' for Inactive)
    1  A    between atoms: CA   and  CB  
    2  A    between atoms: CB   and  CG  
    3  A    between atoms: CG   and  CD  
    4  A    between atoms: CD   and  CE  

>  <TORSDO>
F 15

>  <BEGIN_>
RES LYS A 131

$$$$
ligand_25_pose_7_2HRL.pdbqt
 OpenBabel07062320523D

  6  5  0  0  0  0  0  0  0  0999 V2000
   33.1930   34.6630    9.2900 C   0  0  0  0  0  0  0  0  0  0  0  0
   32.0600   35.3600   10.0340 C   0  0  0  0  0  0  0  0  0  0  0  0
   30.7630   35.3890    9.2670 C   0  0  0  0  0  0  0  0  0  0  0  0
   30.1080   34.0160    9.2700 C   0  0  0  0  0  0  0  0  0  0  0  0
   28.6280   34.1320    8.9560 C   0  0  0  0  0  0  0  0  0  0  0  0
   27.8150   34.1540   10.2030 N   0  0  0  0  0  0  0  0  0  0  0  0
  1  2  1  0  0  0  0
  3  4  1  0  0  0  0
  3  2  1  0  0  0  0
  5  4  1  0  0  0  0
  5  6  1  0  0  0  0
M  END
>  <EGIN_R>
ES LYS A 135

>  <REMARK>
  4 active torsions:
  status: ('A' for Active; 'I' for Inactive)
    5  A    between atoms: CA   and  CB  
    6  A    between atoms: CB   and  CG  
    7  A    between atoms: CG   and  CD  
    8  A    between atoms: CD   and  CE  

$$$$
