ligand_21_pose_7_2HRL.pdbqt
 OpenBabel07062320523D

 54 55  0  0  1  0  0  0  0  0999 V2000
   26.2330   32.0420   18.7410 N   0  0  0  0  0  0  0  0  0  0  0  0
   25.7890   33.0380   17.8200 C   0  0  0  0  0  0  0  0  0  0  0  0
   25.7270   34.2210   18.2150 O   0  0  0  0  0  0  0  0  0  0  0  0
   26.2790   31.0620   18.4020 H   0  0  0  0  0  0  0  0  0  0  0  0
   26.5960   32.3910   20.0890 C   0  0  0  0  0  0  0  0  0  0  0  0
   28.0990   32.1440   20.2560 C   0  0  2  0  0  0  0  0  0  0  0  0
   28.4120   30.7330   19.8410 C   0  0  2  0  0  0  0  0  0  0  0  0
   29.3810   30.1340   20.8230 C   0  0  2  0  0  0  0  0  0  0  0  0
   31.5500   30.3930   21.6210 C   0  0  2  0  0  0  0  0  0  0  0  0
   32.0020   29.1090   20.9660 C   0  0  0  0  0  0  0  0  0  0  0  0
   30.5120   30.8870   20.8480 O   0  0  0  0  0  0  0  0  0  0  0  0
   30.8790   28.1300   21.0250 C   0  0  1  0  0  0  0  0  0  0  0  0
   29.5650   28.6840   20.5500 C   0  0  1  0  0  0  0  0  0  0  0  0
   32.6230   31.2960   21.4550 O   0  0  0  0  0  0  0  0  0  0  0  0
   32.8510   31.7480   22.2990 H   0  0  0  0  0  0  0  0  0  0  0  0
   31.2220   30.2470   23.0520 C   0  0  0  0  0  0  0  0  0  0  0  0
   30.2640   30.8280   23.6170 O   0  0  0  0  0  0  0  0  0  0  0  0
   32.0030   29.4230   23.8400 O   0  0  0  0  0  0  0  0  0  0  0  0
   32.9980   29.5840   24.0190 H   0  0  0  0  0  0  0  0  0  0  0  0
   31.2560   27.0230   20.2330 O   0  0  0  0  0  0  0  0  0  0  0  0
   32.1690   26.7270   20.5250 H   0  0  0  0  0  0  0  0  0  0  0  0
   28.5020   27.9490   21.2100 N   0  0  0  0  0  0  0  0  0  0  0  0
   27.4660   27.2930   20.4780 C   0  0  0  0  0  0  0  0  0  0  0  0
   28.4700   27.8810   22.2490 H   0  0  0  0  0  0  0  0  0  0  0  0
   26.4070   26.5570   21.2040 C   0  0  0  0  0  0  0  0  0  0  0  0
   27.4630   27.3450   19.2300 O   0  0  0  0  0  0  0  0  0  0  0  0
   28.9420   30.6790   18.5460 O   0  0  0  0  0  0  0  0  0  0  0  0
   28.4700   29.9750   18.0430 H   0  0  0  0  0  0  0  0  0  0  0  0
   28.4150   32.4300   21.5660 O   0  0  0  0  0  0  0  0  0  0  0  0
   29.3760   32.4200   21.7570 H   0  0  0  0  0  0  0  0  0  0  0  0
   25.4430   32.6800   16.5280 O   0  0  0  0  0  0  0  0  0  0  0  0
   26.2210   33.0550   15.4160 C   0  0  0  0  0  0  0  0  0  0  0  0
   27.5240   32.3770   15.4960 C   0  0  0  0  0  0  0  0  0  0  0  0
   28.7780   32.9560   15.2830 C   0  0  0  0  0  0  0  0  0  0  0  0
   27.7880   31.0770   15.7840 N   0  0  0  0  0  0  0  0  0  0  0  0
   29.6910   32.0060   15.4480 N   0  0  0  0  0  0  0  0  0  0  0  0
   29.0890   30.8700   15.7520 N   0  0  0  0  0  0  0  0  0  0  0  0
   31.1240   32.1750   15.3240 C   0  0  0  0  0  0  0  0  0  0  0  0
   31.5090   33.2230   16.3290 C   0  0  0  0  0  0  0  0  0  0  0  0
   32.2260   34.3080   15.8990 C   0  0  0  0  0  0  0  0  0  0  0  0
   31.1400   33.0740   17.6420 C   0  0  0  0  0  0  0  0  0  0  0  0
   32.6020   35.2900   16.7790 C   0  0  0  0  0  0  0  0  0  0  0  0
   31.5170   34.0690   18.5510 C   0  0  0  0  0  0  0  0  0  0  0  0
   32.2330   35.1440   18.1000 C   0  0  0  0  0  0  0  0  0  0  0  0
   32.5790   34.4210   14.5630 O   0  0  0  0  0  0  0  0  0  0  0  0
   31.8910   35.3580   13.7930 C   0  0  0  0  0  0  0  0  0  0  0  0
   30.7260   35.6860   14.1170 O   0  0  0  0  0  0  0  0  0  0  0  0
   32.5190   35.9690   12.5980 C   0  0  0  0  0  0  0  0  0  0  0  0
   29.8670   25.5550   16.9770 C   0  0  0  0  0  0  0  0  0  0  0  0
   28.3450   25.7220   17.0260 C   0  0  0  0  0  0  0  0  0  0  0  0
   27.6000   24.4180   16.7860 C   0  0  0  0  0  0  0  0  0  0  0  0
   26.9530   23.8960   18.0390 C   0  0  0  0  0  0  0  0  0  0  0  0
   25.5610   24.5030   18.1840 C   0  0  0  0  0  0  0  0  0  0  0  0
   24.8110   24.3930   16.9110 N   0  0  0  0  0  0  0  0  0  0  0  0
  1  5  1  0  0  0  0
  2  3  2  0  0  0  0
  2  1  1  0  0  0  0
  4  1  1  0  0  0  0
  6  5  1  1  0  0  0
  6 29  1  0  0  0  0
  7 27  1  6  0  0  0
  7  6  1  0  0  0  0
  8  7  1  6  0  0  0
  8 11  1  0  0  0  0
  9 14  1  6  0  0  0
  9 16  1  0  0  0  0
 10 12  1  0  0  0  0
 10  9  1  0  0  0  0
 11  9  1  0  0  0  0
 12 20  1  6  0  0  0
 13  8  1  0  0  0  0
 13 12  1  0  0  0  0
 13 22  1  1  0  0  0
 14 15  1  0  0  0  0
 16 17  2  0  0  0  0
 16 18  1  0  0  0  0
 18 19  1  0  0  0  0
 20 21  1  0  0  0  0
 22 24  1  0  0  0  0
 23 25  1  0  0  0  0
 23 22  1  0  0  0  0
 26 23  2  0  0  0  0
 28 27  1  0  0  0  0
 29 30  1  0  0  0  0
 31  2  1  0  0  0  0
 32 33  1  0  0  0  0
 32 31  1  0  0  0  0
 33 35  1  0  0  0  0
 34 36  1  0  0  0  0
 34 33  2  0  0  0  0
 36 37  1  0  0  0  0
 37 35  2  0  0  0  0
 38 36  1  0  0  0  0
 38 39  1  0  0  0  0
 39 41  1  0  0  0  0
 40 39  2  0  0  0  0
 40 42  1  0  0  0  0
 41 43  2  0  0  0  0
 42 44  2  0  0  0  0
 44 43  1  0  0  0  0
 45 40  1  0  0  0  0
 46 47  2  0  0  0  0
 46 45  1  0  0  0  0
 48 46  1  0  0  0  0
 49 50  1  0  0  0  0
 51 50  1  0  0  0  0
 51 52  1  0  0  0  0
 52 53  1  0  0  0  0
 54 53  1  0  0  0  0
M  END
>  <REMARK>
 VINA RESULT:    -4.688      7.607     13.043
 INTER + INTRA:         -15.211
 INTER:                  -8.702
 INTRA:                  -6.509
 UNBOUND:                -6.275
 SMILES CC(=O)N[C@@H]1[C@@H](O)C[C@](O)(C(=O)O)O[C@H]1C(O)[C@H](O)CNC(=O)OCc1cn(Cc2ccccc2OC(C)=O)nn1
 SMILES IDX 21 1 22 2 23 3 20 5 18 6 16 7 15 8 9 9 8 10 14 11 6 12 5 13
 SMILES IDX 10 14 11 16 12 17 13 18 7 20 4 22 2 23 1 25 3 26 17 27 19 29
 SMILES IDX 24 31 25 32 26 33 27 34 41 35 28 36 40 37 29 38 30 39 35 40
 SMILES IDX 31 41 34 42 32 43 33 44 36 45 37 46 39 47 38 48
 H PARENT 21 4 10 15 13 19 7 21 4 24 17 28 19 30
 Flexibility Score: inf
  4 active torsions:
  status: ('A' for Active; 'I' for Inactive)
    1  A    between atoms: CA   and  CB  
    2  A    between atoms: CB   and  CG  
    3  A    between atoms: CG   and  CD  
    4  A    between atoms: CD   and  CE  

>  <TORSDO>
F 18

>  <BEGIN_>
RES LYS A 131

$$$$
ligand_21_pose_7_2HRL.pdbqt
 OpenBabel07062320523D

  6  5  0  0  0  0  0  0  0  0999 V2000
   33.1930   34.6630    9.2900 C   0  0  0  0  0  0  0  0  0  0  0  0
   32.0600   35.3600   10.0340 C   0  0  0  0  0  0  0  0  0  0  0  0
   30.8000   35.5000    9.2190 C   0  0  0  0  0  0  0  0  0  0  0  0
   30.1330   34.1470    9.0260 C   0  0  0  0  0  0  0  0  0  0  0  0
   28.6770   34.3210    8.6400 C   0  0  0  0  0  0  0  0  0  0  0  0
   27.7740   33.7570    9.6810 N   0  0  0  0  0  0  0  0  0  0  0  0
  1  2  1  0  0  0  0
  3  2  1  0  0  0  0
  4  3  1  0  0  0  0
  5  4  1  0  0  0  0
  5  6  1  0  0  0  0
M  END
>  <EGIN_R>
ES LYS A 135

>  <REMARK>
  4 active torsions:
  status: ('A' for Active; 'I' for Inactive)
    5  A    between atoms: CA   and  CB  
    6  A    between atoms: CB   and  CG  
    7  A    between atoms: CG   and  CD  
    8  A    between atoms: CD   and  CE  

$$$$
