ligand_23_pose_7_2HRL.pdbqt
 OpenBabel07062320523D

 55 56  0  0  1  0  0  0  0  0999 V2000
   24.7100   39.7060    6.5330 N   0  0  0  0  0  0  0  0  0  0  0  0
   23.5420   39.4660    7.3000 C   0  0  0  0  0  0  0  0  0  0  0  0
   22.7470   40.4020    7.4920 O   0  0  0  0  0  0  0  0  0  0  0  0
   25.3380   38.8660    6.4080 H   0  0  0  0  0  0  0  0  0  0  0  0
   25.0210   40.9920    5.9630 C   0  0  0  0  0  0  0  0  0  0  0  0
   25.9070   40.8460    4.7440 C   0  0  2  0  0  0  0  0  0  0  0  0
   27.2980   41.3730    5.0720 C   0  0  1  0  0  0  0  0  0  0  0  0
   28.2770   40.2020    5.0340 C   0  0  2  0  0  0  0  0  0  0  0  0
   27.9470   38.3900    6.4420 C   0  0  2  0  0  0  0  0  0  0  0  0
   29.4270   38.1220    6.5850 C   0  0  0  0  0  0  0  0  0  0  0  0
   27.6290   39.0270    5.2600 O   0  0  0  0  0  0  0  0  0  0  0  0
   30.2760   39.2220    6.0430 C   0  0  1  0  0  0  0  0  0  0  0  0
   29.4240   40.4890    5.9540 C   0  0  1  0  0  0  0  0  0  0  0  0
   27.4450   39.1150    7.5190 O   0  0  0  0  0  0  0  0  0  0  0  0
   27.8190   38.7250    8.3700 H   0  0  0  0  0  0  0  0  0  0  0  0
   27.2660   37.0680    6.4330 C   0  0  0  0  0  0  0  0  0  0  0  0
   26.1840   36.8780    7.0470 O   0  0  0  0  0  0  0  0  0  0  0  0
   27.7930   35.9740    5.7440 O   0  0  0  0  0  0  0  0  0  0  0  0
   28.4010   36.1150    4.9450 H   0  0  0  0  0  0  0  0  0  0  0  0
   31.4290   39.4580    6.7700 O   0  0  0  0  0  0  0  0  0  0  0  0
   31.2680   39.9800    7.6060 H   0  0  0  0  0  0  0  0  0  0  0  0
   30.2160   41.5480    5.3520 N   0  0  0  0  0  0  0  0  0  0  0  0
   30.5970   42.7200    6.0690 C   0  0  0  0  0  0  0  0  0  0  0  0
   30.5200   41.4430    4.3440 H   0  0  0  0  0  0  0  0  0  0  0  0
   31.4080   43.7370    5.3520 C   0  0  0  0  0  0  0  0  0  0  0  0
   30.2320   42.8260    7.2520 O   0  0  0  0  0  0  0  0  0  0  0  0
   27.6540   42.2670    4.0790 O   0  0  0  0  0  0  0  0  0  0  0  0
   27.9620   41.7990    3.2670 H   0  0  0  0  0  0  0  0  0  0  0  0
   25.3450   41.6050    3.7040 O   0  0  0  0  0  0  0  0  0  0  0  0
   24.4870   42.0430    4.0020 H   0  0  0  0  0  0  0  0  0  0  0  0
   23.2690   38.2050    7.8400 O   0  0  0  0  0  0  0  0  0  0  0  0
   23.0340   38.0350    9.2230 C   0  0  0  0  0  0  0  0  0  0  0  0
   24.2020   37.3790    9.8620 C   0  0  0  0  0  0  0  0  0  0  0  0
   25.4030   38.0000   10.1440 C   0  0  0  0  0  0  0  0  0  0  0  0
   24.3290   36.1130   10.2760 N   0  0  0  0  0  0  0  0  0  0  0  0
   26.1730   37.0590   10.7120 N   0  0  0  0  0  0  0  0  0  0  0  0
   25.5290   35.9050   10.7970 N   0  0  0  0  0  0  0  0  0  0  0  0
   27.5100   37.2530   11.1700 C   0  0  0  0  0  0  0  0  0  0  0  0
   28.3510   38.2030   10.6330 C   0  0  0  0  0  0  0  0  0  0  0  0
   28.0180   36.4730   12.1950 C   0  0  0  0  0  0  0  0  0  0  0  0
   29.6560   38.3860   11.0860 C   0  0  0  0  0  0  0  0  0  0  0  0
   29.2960   36.6340   12.6570 C   0  0  0  0  0  0  0  0  0  0  0  0
   30.1120   37.5900   12.1010 C   0  0  0  0  0  0  0  0  0  0  0  0
   30.7100   39.5830   10.4060 S   0  0  0  0  0  0  0  0  0  0  0  0
   31.7950   38.8750    9.6350 O   0  0  0  0  0  0  0  0  0  0  0  0
   31.4000   40.3320   11.5210 O   0  0  0  0  0  0  0  0  0  0  0  0
   29.8710   40.6460    9.3510 N   0  0  0  0  0  0  0  0  0  0  0  0
   30.5500   41.2000    8.8000 H   0  0  0  0  0  0  0  0  0  0  0  0
   29.1990   41.2610    9.8550 H   0  0  0  0  0  0  0  0  0  0  0  0
   29.8670   25.5550   16.9770 C   0  0  0  0  0  0  0  0  0  0  0  0
   28.3450   25.7220   17.0260 C   0  0  0  0  0  0  0  0  0  0  0  0
   27.6010   24.4010   16.9070 C   0  0  0  0  0  0  0  0  0  0  0  0
   26.1570   24.5250   17.3070 C   0  0  0  0  0  0  0  0  0  0  0  0
   25.8740   23.5990   18.4850 C   0  0  0  0  0  0  0  0  0  0  0  0
   25.4890   24.3850   19.6810 N   0  0  0  0  0  0  0  0  0  0  0  0
  1  2  1  0  0  0  0
  2  3  2  0  0  0  0
  2 31  1  0  0  0  0
  4  1  1  0  0  0  0
  5  1  1  0  0  0  0
  6  7  1  0  0  0  0
  6  5  1  1  0  0  0
  7 27  1  6  0  0  0
  8  7  1  1  0  0  0
  8 11  1  0  0  0  0
  8 13  1  0  0  0  0
  9 16  1  6  0  0  0
  9 10  1  0  0  0  0
  9 14  1  0  0  0  0
 11  9  1  0  0  0  0
 12 10  1  0  0  0  0
 12 20  1  1  0  0  0
 13 22  1  6  0  0  0
 13 12  1  0  0  0  0
 14 15  1  0  0  0  0
 16 17  2  0  0  0  0
 18 16  1  0  0  0  0
 19 18  1  0  0  0  0
 20 21  1  0  0  0  0
 22 23  1  0  0  0  0
 23 26  2  0  0  0  0
 24 22  1  0  0  0  0
 25 23  1  0  0  0  0
 28 27  1  0  0  0  0
 29 30  1  0  0  0  0
 29  6  1  0  0  0  0
 31 32  1  0  0  0  0
 32 33  1  0  0  0  0
 33 34  2  0  0  0  0
 33 35  1  0  0  0  0
 34 36  1  0  0  0  0
 35 37  2  0  0  0  0
 36 37  1  0  0  0  0
 36 38  1  0  0  0  0
 38 40  2  0  0  0  0
 39 41  2  0  0  0  0
 39 38  1  0  0  0  0
 40 42  1  0  0  0  0
 41 43  1  0  0  0  0
 43 42  2  0  0  0  0
 44 41  1  0  0  0  0
 44 46  2  0  0  0  0
 45 44  2  0  0  0  0
 47 49  1  0  0  0  0
 47 44  1  0  0  0  0
 48 47  1  0  0  0  0
 50 51  1  0  0  0  0
 52 51  1  0  0  0  0
 52 53  1  0  0  0  0
 53 54  1  0  0  0  0
 54 55  1  0  0  0  0
M  END
>  <REMARK>
 VINA RESULT:    -4.460      4.213      5.938
 INTER + INTRA:         -14.734
 INTER:                  -7.383
 INTRA:                  -7.352
 UNBOUND:                -6.624
 SMILES CC(=O)N[C@@H]1[C@@H](O)C[C@](O)(C(=O)O)O[C@H]1C(O)[C@H](O)CNC(=O)OCc1cn(-c2cccc(S(N)(=O)=O)c2)nn1
 SMILES IDX 21 1 22 2 23 3 20 5 18 6 16 7 15 8 9 9 8 10 14 11 6 12 5 13
 SMILES IDX 10 14 11 16 12 17 13 18 7 20 4 22 2 23 1 25 3 26 17 27 19 29
 SMILES IDX 24 31 25 32 26 33 27 34 40 35 28 36 39 37 29 38 38 39 30 40
 SMILES IDX 33 41 31 42 32 43 34 44 36 45 37 46 35 47
 H PARENT 21 4 10 15 13 19 7 21 4 24 17 28 19 30 35 48 35 49
 Flexibility Score: inf
  4 active torsions:
  status: ('A' for Active; 'I' for Inactive)
    1  A    between atoms: CA   and  CB  
    2  A    between atoms: CB   and  CG  
    3  A    between atoms: CG   and  CD  
    4  A    between atoms: CD   and  CE  

>  <TORSDO>
F 17

>  <BEGIN_>
RES LYS A 131

$$$$
ligand_23_pose_7_2HRL.pdbqt
 OpenBabel07062320523D

  6  5  0  0  0  0  0  0  0  0999 V2000
   33.1930   34.6630    9.2900 C   0  0  0  0  0  0  0  0  0  0  0  0
   32.0600   35.3600   10.0340 C   0  0  0  0  0  0  0  0  0  0  0  0
   30.8380   35.5970    9.1850 C   0  0  0  0  0  0  0  0  0  0  0  0
   30.1840   34.2770    8.8050 C   0  0  0  0  0  0  0  0  0  0  0  0
   28.6850   34.4480    8.6570 C   0  0  0  0  0  0  0  0  0  0  0  0
   27.9500   33.6480    9.6750 N   0  0  0  0  0  0  0  0  0  0  0  0
  1  2  1  0  0  0  0
  3  2  1  0  0  0  0
  4  3  1  0  0  0  0
  5  4  1  0  0  0  0
  5  6  1  0  0  0  0
M  END
>  <EGIN_R>
ES LYS A 135

>  <REMARK>
  4 active torsions:
  status: ('A' for Active; 'I' for Inactive)
    5  A    between atoms: CA   and  CB  
    6  A    between atoms: CB   and  CG  
    7  A    between atoms: CG   and  CD  
    8  A    between atoms: CD   and  CE  

$$$$
