ligand_21_pose_12_2HRL.pdbqt
 OpenBabel07062320523D

 54 55  0  0  1  0  0  0  0  0999 V2000
   23.4420   38.4030    9.4950 N   0  0  0  0  0  0  0  0  0  0  0  0
   22.8020   37.8260    8.3570 C   0  0  0  0  0  0  0  0  0  0  0  0
   23.4400   37.7730    7.2850 O   0  0  0  0  0  0  0  0  0  0  0  0
   22.9020   38.4440   10.3800 H   0  0  0  0  0  0  0  0  0  0  0  0
   24.7850   38.9120    9.4080 C   0  0  0  0  0  0  0  0  0  0  0  0
   25.6860   38.0280   10.2770 C   0  0  2  0  0  0  0  0  0  0  0  0
   26.4660   37.1010    9.3860 C   0  0  2  0  0  0  0  0  0  0  0  0
   27.1970   37.9120    8.3500 C   0  0  2  0  0  0  0  0  0  0  0  0
   27.7010   37.9240    6.0800 C   0  0  2  0  0  0  0  0  0  0  0  0
   29.1620   37.6470    6.3490 C   0  0  0  0  0  0  0  0  0  0  0  0
   26.9930   37.3580    7.1260 O   0  0  0  0  0  0  0  0  0  0  0  0
   29.5520   38.3520    7.6030 C   0  0  1  0  0  0  0  0  0  0  0  0
   28.6150   38.1090    8.7530 C   0  0  1  0  0  0  0  0  0  0  0  0
   27.3790   37.1640    4.9350 O   0  0  0  0  0  0  0  0  0  0  0  0
   26.5480   37.4790    4.5130 H   0  0  0  0  0  0  0  0  0  0  0  0
   27.4000   39.3510    5.8490 C   0  0  0  0  0  0  0  0  0  0  0  0
   28.2740   40.2440    5.7370 O   0  0  0  0  0  0  0  0  0  0  0  0
   26.0820   39.7510    5.7450 O   0  0  0  0  0  0  0  0  0  0  0  0
   25.2850   39.1310    5.9050 H   0  0  0  0  0  0  0  0  0  0  0  0
   30.8530   37.9120    7.9340 O   0  0  0  0  0  0  0  0  0  0  0  0
   30.9940   38.0660    8.9150 H   0  0  0  0  0  0  0  0  0  0  0  0
   28.6890   39.2520    9.6430 N   0  0  0  0  0  0  0  0  0  0  0  0
   29.5490   39.2700   10.7830 C   0  0  0  0  0  0  0  0  0  0  0  0
   28.1090   40.1000    9.4680 H   0  0  0  0  0  0  0  0  0  0  0  0
   29.5860   40.4640   11.6580 C   0  0  0  0  0  0  0  0  0  0  0  0
   30.2650   38.2770   11.0330 O   0  0  0  0  0  0  0  0  0  0  0  0
   25.6370   36.1590    8.7650 O   0  0  0  0  0  0  0  0  0  0  0  0
   25.9100   36.0740    7.8220 H   0  0  0  0  0  0  0  0  0  0  0  0
   24.8740   37.3870   11.1850 O   0  0  0  0  0  0  0  0  0  0  0  0
   24.7710   36.4260   11.0220 H   0  0  0  0  0  0  0  0  0  0  0  0
   21.5080   37.3440    8.4620 O   0  0  0  0  0  0  0  0  0  0  0  0
   21.2290   35.9650    8.5230 C   0  0  0  0  0  0  0  0  0  0  0  0
   21.8270   35.4110    9.7470 C   0  0  0  0  0  0  0  0  0  0  0  0
   21.1390   34.8890   10.8460 C   0  0  0  0  0  0  0  0  0  0  0  0
   23.1390   35.2910   10.0710 N   0  0  0  0  0  0  0  0  0  0  0  0
   22.0440   34.5000   11.7360 N   0  0  0  0  0  0  0  0  0  0  0  0
   23.2540   34.7440   11.2650 N   0  0  0  0  0  0  0  0  0  0  0  0
   21.7650   33.8960   13.0230 C   0  0  0  0  0  0  0  0  0  0  0  0
   22.2690   32.4840   12.9390 C   0  0  0  0  0  0  0  0  0  0  0  0
   21.4040   31.5050   12.5260 C   0  0  0  0  0  0  0  0  0  0  0  0
   23.5690   32.2040   13.2740 C   0  0  0  0  0  0  0  0  0  0  0  0
   21.8170   30.2010   12.4350 C   0  0  0  0  0  0  0  0  0  0  0  0
   24.0050   30.8780   13.1850 C   0  0  0  0  0  0  0  0  0  0  0  0
   23.1240   29.9160   12.7710 C   0  0  0  0  0  0  0  0  0  0  0  0
   20.0960   31.8280   12.1960 O   0  0  0  0  0  0  0  0  0  0  0  0
   19.0780   31.1740   12.8880 C   0  0  0  0  0  0  0  0  0  0  0  0
   18.9550   31.3550   14.1220 O   0  0  0  0  0  0  0  0  0  0  0  0
   18.1400   30.2680   12.1830 C   0  0  0  0  0  0  0  0  0  0  0  0
   29.8670   25.5550   16.9770 C   0  0  0  0  0  0  0  0  0  0  0  0
   28.3450   25.7220   17.0260 C   0  0  0  0  0  0  0  0  0  0  0  0
   27.6020   24.3980   16.9340 C   0  0  0  0  0  0  0  0  0  0  0  0
   26.3980   24.3610   17.8340 C   0  0  0  0  0  0  0  0  0  0  0  0
   26.3710   25.6150   18.7010 C   0  0  0  0  0  0  0  0  0  0  0  0
   25.0770   26.3210   18.5540 N   0  0  0  0  0  0  0  0  0  0  0  0
  1  4  1  0  0  0  0
  2 31  1  0  0  0  0
  2  1  1  0  0  0  0
  3  2  2  0  0  0  0
  5  1  1  0  0  0  0
  6  5  1  6  0  0  0
  6 29  1  0  0  0  0
  7 27  1  6  0  0  0
  7  6  1  0  0  0  0
  8 13  1  0  0  0  0
  8  7  1  1  0  0  0
  9 14  1  6  0  0  0
  9 10  1  0  0  0  0
  9 11  1  0  0  0  0
 10 12  1  0  0  0  0
 11  8  1  0  0  0  0
 12 20  1  1  0  0  0
 12 13  1  0  0  0  0
 13 22  1  1  0  0  0
 15 14  1  0  0  0  0
 16  9  1  0  0  0  0
 17 16  2  0  0  0  0
 18 16  1  0  0  0  0
 18 19  1  0  0  0  0
 20 21  1  0  0  0  0
 22 23  1  0  0  0  0
 23 26  2  0  0  0  0
 23 25  1  0  0  0  0
 24 22  1  0  0  0  0
 28 27  1  0  0  0  0
 30 29  1  0  0  0  0
 31 32  1  0  0  0  0
 32 33  1  0  0  0  0
 33 35  1  0  0  0  0
 33 34  2  0  0  0  0
 34 36  1  0  0  0  0
 35 37  2  0  0  0  0
 36 38  1  0  0  0  0
 37 36  1  0  0  0  0
 39 38  1  0  0  0  0
 39 41  2  0  0  0  0
 40 39  1  0  0  0  0
 42 40  2  0  0  0  0
 42 44  1  0  0  0  0
 43 41  1  0  0  0  0
 44 43  2  0  0  0  0
 45 40  1  0  0  0  0
 45 46  1  0  0  0  0
 46 47  2  0  0  0  0
 48 46  1  0  0  0  0
 49 50  1  0  0  0  0
 51 50  1  0  0  0  0
 51 52  1  0  0  0  0
 52 53  1  0  0  0  0
 54 53  1  0  0  0  0
M  END
>  <REMARK>
 VINA RESULT:    -4.622      3.509      6.793
 INTER + INTRA:         -15.086
 INTER:                  -9.339
 INTRA:                  -5.747
 UNBOUND:                -6.275
 SMILES CC(=O)N[C@@H]1[C@@H](O)C[C@](O)(C(=O)O)O[C@H]1C(O)[C@H](O)CNC(=O)OCc1cn(Cc2ccccc2OC(C)=O)nn1
 SMILES IDX 21 1 22 2 23 3 20 5 18 6 16 7 15 8 9 9 8 10 14 11 6 12 5 13
 SMILES IDX 10 14 11 16 12 17 13 18 7 20 4 22 2 23 1 25 3 26 17 27 19 29
 SMILES IDX 24 31 25 32 26 33 27 34 41 35 28 36 40 37 29 38 30 39 35 40
 SMILES IDX 31 41 34 42 32 43 33 44 36 45 37 46 39 47 38 48
 H PARENT 21 4 10 15 13 19 7 21 4 24 17 28 19 30
 Flexibility Score: inf
  4 active torsions:
  status: ('A' for Active; 'I' for Inactive)
    1  A    between atoms: CA   and  CB  
    2  A    between atoms: CB   and  CG  
    3  A    between atoms: CG   and  CD  
    4  A    between atoms: CD   and  CE  

>  <TORSDO>
F 18

>  <BEGIN_>
RES LYS A 131

$$$$
ligand_21_pose_12_2HRL.pdbqt
 OpenBabel07062320523D

  6  5  0  0  0  0  0  0  0  0999 V2000
   33.1930   34.6630    9.2900 C   0  0  0  0  0  0  0  0  0  0  0  0
   32.0600   35.3600   10.0340 C   0  0  0  0  0  0  0  0  0  0  0  0
   30.7350   34.6520    9.9140 C   0  0  0  0  0  0  0  0  0  0  0  0
   30.3380   34.5020    8.4530 C   0  0  0  0  0  0  0  0  0  0  0  0
   28.8280   34.5010    8.3100 C   0  0  0  0  0  0  0  0  0  0  0  0
   28.1820   33.7700    9.4340 N   0  0  0  0  0  0  0  0  0  0  0  0
  1  2  1  0  0  0  0
  3  2  1  0  0  0  0
  4  3  1  0  0  0  0
  5  4  1  0  0  0  0
  5  6  1  0  0  0  0
M  END
>  <EGIN_R>
ES LYS A 135

>  <REMARK>
  4 active torsions:
  status: ('A' for Active; 'I' for Inactive)
    5  A    between atoms: CA   and  CB  
    6  A    between atoms: CB   and  CG  
    7  A    between atoms: CG   and  CD  
    8  A    between atoms: CD   and  CE  

$$$$
