ligand_9_pose_3_2HRL.pdbqt
 OpenBabel07062320523D

 54 55  0  0  1  0  0  0  0  0999 V2000
   28.0820   27.7760   18.7930 N   0  0  0  0  0  0  0  0  0  0  0  0
   27.1750   28.3440   17.8580 C   0  0  0  0  0  0  0  0  0  0  0  0
   25.9770   28.4950   18.2020 O   0  0  0  0  0  0  0  0  0  0  0  0
   29.0690   27.6610   18.4870 H   0  0  0  0  0  0  0  0  0  0  0  0
   27.6510   27.3710   20.1150 C   0  0  0  0  0  0  0  0  0  0  0  0
   28.6400   27.7120   21.1790 C   0  0  2  0  0  0  0  0  0  0  0  0
   29.9890   28.0820   20.6520 C   0  0  1  0  0  0  0  0  0  0  0  0
   30.6270   29.1900   21.5280 C   0  0  2  0  0  0  0  0  0  0  0  0
   31.3990   31.3160   21.4400 C   0  0  2  0  0  0  0  0  0  0  0  0
   32.8210   30.9240   21.7720 C   0  0  0  0  0  0  0  0  0  0  0  0
   30.8050   30.3050   20.7510 O   0  0  0  0  0  0  0  0  0  0  0  0
   32.9000   29.6490   22.5550 C   0  0  1  0  0  0  0  0  0  0  0  0
   31.8360   28.6520   22.1990 C   0  0  1  0  0  0  0  0  0  0  0  0
   31.5250   32.4040   20.5300 O   0  0  0  0  0  0  0  0  0  0  0  0
   30.8420   32.3830   19.8370 H   0  0  0  0  0  0  0  0  0  0  0  0
   30.6950   31.8090   22.6310 C   0  0  0  0  0  0  0  0  0  0  0  0
   31.1840   31.7430   23.8100 O   0  0  0  0  0  0  0  0  0  0  0  0
   29.4210   32.3830   22.4610 O   0  0  0  0  0  0  0  0  0  0  0  0
   28.8330   32.0020   21.7090 H   0  0  0  0  0  0  0  0  0  0  0  0
   34.1780   29.1120   22.4060 O   0  0  0  0  0  0  0  0  0  0  0  0
   34.1630   28.1760   22.0830 H   0  0  0  0  0  0  0  0  0  0  0  0
   31.4400   27.8590   23.3490 N   0  0  0  0  0  0  0  0  0  0  0  0
   32.2950   26.8760   23.9140 C   0  0  0  0  0  0  0  0  0  0  0  0
   30.4780   28.0340   23.7660 H   0  0  0  0  0  0  0  0  0  0  0  0
   31.8200   26.1030   25.0910 C   0  0  0  0  0  0  0  0  0  0  0  0
   33.4570   26.6530   23.4280 O   0  0  0  0  0  0  0  0  0  0  0  0
   30.8870   27.0480   20.5680 O   0  0  0  0  0  0  0  0  0  0  0  0
   30.5550   26.2340   20.1500 H   0  0  0  0  0  0  0  0  0  0  0  0
   28.6830   26.7220   22.1570 O   0  0  0  0  0  0  0  0  0  0  0  0
   28.2350   25.9170   21.7790 H   0  0  0  0  0  0  0  0  0  0  0  0
   27.5360   28.7460   16.5830 O   0  0  0  0  0  0  0  0  0  0  0  0
   27.4700   30.0990   16.1760 C   0  0  0  0  0  0  0  0  0  0  0  0
   28.6530   30.8420   16.6510 C   0  0  0  0  0  0  0  0  0  0  0  0
   29.2880   31.9250   16.0670 C   0  0  0  0  0  0  0  0  0  0  0  0
   29.3610   30.6000   17.7760 N   0  0  0  0  0  0  0  0  0  0  0  0
   30.3330   32.2950   16.8360 N   0  0  0  0  0  0  0  0  0  0  0  0
   30.3420   31.4560   17.8750 N   0  0  0  0  0  0  0  0  0  0  0  0
   31.2590   33.3420   16.6350 C   0  0  0  0  0  0  0  0  0  0  0  0
   31.8610   33.5480   15.4080 C   0  0  0  0  0  0  0  0  0  0  0  0
   31.5980   34.2020   17.6560 C   0  0  0  0  0  0  0  0  0  0  0  0
   32.7710   34.5590   15.1680 C   0  0  0  0  0  0  0  0  0  0  0  0
   32.5110   35.2310   17.4460 C   0  0  0  0  0  0  0  0  0  0  0  0
   33.0860   35.3990   16.2120 C   0  0  0  0  0  0  0  0  0  0  0  0
   33.3900   34.7530   13.8630 C   0  0  0  0  0  0  0  0  0  0  0  0
   34.5790   34.3910   13.6850 O   0  0  0  0  0  0  0  0  0  0  0  0
   32.7170   35.3250   12.7950 O   0  0  0  0  0  0  0  0  0  0  0  0
   31.7710   36.3620   12.9570 C   0  0  0  0  0  0  0  0  0  0  0  0
   32.0250   37.4110   11.9140 C   0  0  0  0  0  0  0  0  0  0  0  0
   29.8670   25.5550   16.9770 C   0  0  0  0  0  0  0  0  0  0  0  0
   28.3450   25.7220   17.0260 C   0  0  0  0  0  0  0  0  0  0  0  0
   27.6020   24.3980   16.9280 C   0  0  0  0  0  0  0  0  0  0  0  0
   26.6100   24.2220   18.0450 C   0  0  0  0  0  0  0  0  0  0  0  0
   25.3230   24.9670   17.7050 C   0  0  0  0  0  0  0  0  0  0  0  0
   24.4230   24.1070   16.9000 N   0  0  0  0  0  0  0  0  0  0  0  0
  1  5  1  0  0  0  0
  2  3  2  0  0  0  0
  2  1  1  0  0  0  0
  4  1  1  0  0  0  0
  6  5  1  6  0  0  0
  6 29  1  0  0  0  0
  7 27  1  1  0  0  0
  7  6  1  0  0  0  0
  8  7  1  6  0  0  0
  8 13  1  0  0  0  0
  9 14  1  6  0  0  0
  9 10  1  0  0  0  0
  9 16  1  0  0  0  0
 10 12  1  0  0  0  0
 11  9  1  0  0  0  0
 11  8  1  0  0  0  0
 12 20  1  6  0  0  0
 13 12  1  0  0  0  0
 13 22  1  1  0  0  0
 15 14  1  0  0  0  0
 16 17  2  0  0  0  0
 18 16  1  0  0  0  0
 19 18  1  0  0  0  0
 21 20  1  0  0  0  0
 22 24  1  0  0  0  0
 22 23  1  0  0  0  0
 23 25  1  0  0  0  0
 26 23  2  0  0  0  0
 28 27  1  0  0  0  0
 30 29  1  0  0  0  0
 31  2  1  0  0  0  0
 32 31  1  0  0  0  0
 32 33  1  0  0  0  0
 33 35  1  0  0  0  0
 34 33  2  0  0  0  0
 34 36  1  0  0  0  0
 35 37  2  0  0  0  0
 36 37  1  0  0  0  0
 38 36  1  0  0  0  0
 38 40  2  0  0  0  0
 39 38  1  0  0  0  0
 41 39  2  0  0  0  0
 41 43  1  0  0  0  0
 42 40  1  0  0  0  0
 43 42  2  0  0  0  0
 44 41  1  0  0  0  0
 45 44  2  0  0  0  0
 46 47  1  0  0  0  0
 46 44  1  0  0  0  0
 48 47  1  0  0  0  0
 49 50  1  0  0  0  0
 51 50  1  0  0  0  0
 51 52  1  0  0  0  0
 53 52  1  0  0  0  0
 54 53  1  0  0  0  0
M  END
>  <REMARK>
 VINA RESULT:    -5.202      2.175      3.836
 INTER + INTRA:         -15.588
 INTER:                 -10.356
 INTRA:                  -5.232
 UNBOUND:                -5.671
 SMILES CCOC(=O)c1cccc(-n2cc(COC(=O)NC[C@@H](O)C(O)[C@@H]3O[C@@](O)(C(=O)O)C[C@H](O)[C@H]3NC(C)=O)nn2)c1
 SMILES IDX 18 1 16 2 17 3 19 5 20 6 22 7 24 8 26 9 31 10 25 11 32 12
 SMILES IDX 34 13 27 14 28 16 29 17 30 18 33 20 35 22 36 23 37 25 38 26
 SMILES IDX 23 27 21 29 15 31 14 32 13 33 12 34 39 35 11 36 40 37 10 38
 SMILES IDX 41 39 9 40 6 41 8 42 7 43 4 44 5 45 3 46 2 47 1 48
 H PARENT 18 4 27 15 30 19 33 21 35 24 23 28 21 30
 Flexibility Score: inf
  4 active torsions:
  status: ('A' for Active; 'I' for Inactive)
    1  A    between atoms: CA   and  CB  
    2  A    between atoms: CB   and  CG  
    3  A    between atoms: CG   and  CD  
    4  A    between atoms: CD   and  CE  

>  <TORSDO>
F 18

>  <BEGIN_>
RES LYS A 131

$$$$
ligand_9_pose_3_2HRL.pdbqt
 OpenBabel07062320523D

  6  5  0  0  0  0  0  0  0  0999 V2000
   33.1930   34.6630    9.2900 C   0  0  0  0  0  0  0  0  0  0  0  0
   32.0600   35.3600   10.0340 C   0  0  0  0  0  0  0  0  0  0  0  0
   30.7100   34.7330    9.7990 C   0  0  0  0  0  0  0  0  0  0  0  0
   30.3890   34.6900    8.3130 C   0  0  0  0  0  0  0  0  0  0  0  0
   29.4190   35.7970    7.9460 C   0  0  0  0  0  0  0  0  0  0  0  0
   28.2730   35.2660    7.1570 N   0  0  0  0  0  0  0  0  0  0  0  0
  1  2  1  0  0  0  0
  3  2  1  0  0  0  0
  4  3  1  0  0  0  0
  5  4  1  0  0  0  0
  6  5  1  0  0  0  0
M  END
>  <EGIN_R>
ES LYS A 135

>  <REMARK>
  4 active torsions:
  status: ('A' for Active; 'I' for Inactive)
    5  A    between atoms: CA   and  CB  
    6  A    between atoms: CB   and  CG  
    7  A    between atoms: CG   and  CD  
    8  A    between atoms: CD   and  CE  

$$$$
