ligand_55_pose_18_2HRL.pdbqt
 OpenBabel07062320523D

 51 51  0  0  1  0  0  0  0  0999 V2000
   29.9420   30.8510   18.0210 N   0  0  0  0  0  0  0  0  0  0  0  0
   29.1280   31.4170   19.0240 C   0  0  0  0  0  0  0  0  0  0  0  0
   28.3060   32.3220   18.8080 O   0  0  0  0  0  0  0  0  0  0  0  0
   30.6030   30.0740   18.3250 H   0  0  0  0  0  0  0  0  0  0  0  0
   29.9590   31.2220   16.6560 C   0  0  0  0  0  0  0  0  0  0  0  0
   31.0150   32.2090   16.2250 C   0  0  2  0  0  0  0  0  0  0  0  0
   30.4100   33.5740   16.3390 C   0  0  2  0  0  0  0  0  0  0  0  0
   30.8940   34.6180   15.3840 C   0  0  2  0  0  0  0  0  0  0  0  0
   30.9690   35.0320   13.0780 C   0  0  2  0  0  0  0  0  0  0  0  0
   32.2620   35.7600   13.2230 C   0  0  0  0  0  0  0  0  0  0  0  0
   30.5250   34.3360   14.1330 O   0  0  0  0  0  0  0  0  0  0  0  0
   33.1110   35.2590   14.3600 C   0  0  1  0  0  0  0  0  0  0  0  0
   32.3130   35.0490   15.6010 C   0  0  1  0  0  0  0  0  0  0  0  0
   31.0730   34.1700   11.9800 O   0  0  0  0  0  0  0  0  0  0  0  0
   31.0860   33.2450   12.3090 H   0  0  0  0  0  0  0  0  0  0  0  0
   29.9230   36.0310   12.7140 C   0  0  0  0  0  0  0  0  0  0  0  0
   29.8870   37.1950   13.1540 O   0  0  0  0  0  0  0  0  0  0  0  0
   28.8960   35.6750   11.8190 O   0  0  0  0  0  0  0  0  0  0  0  0
   28.2700   36.3700   11.4340 H   0  0  0  0  0  0  0  0  0  0  0  0
   33.8050   34.1350   13.9320 O   0  0  0  0  0  0  0  0  0  0  0  0
   33.1480   33.3940   13.8850 H   0  0  0  0  0  0  0  0  0  0  0  0
   32.4020   36.2600   16.3960 N   0  0  0  0  0  0  0  0  0  0  0  0
   32.9130   36.2950   17.7200 C   0  0  0  0  0  0  0  0  0  0  0  0
   32.0810   37.2010   16.0140 H   0  0  0  0  0  0  0  0  0  0  0  0
   32.9840   37.5750   18.5020 C   0  0  0  0  0  0  0  0  0  0  0  0
   33.3040   35.2040   18.2090 O   0  0  0  0  0  0  0  0  0  0  0  0
   30.6770   33.9680   17.6830 O   0  0  0  0  0  0  0  0  0  0  0  0
   31.6420   34.0100   17.8480 H   0  0  0  0  0  0  0  0  0  0  0  0
   31.4830   31.8580   14.9880 O   0  0  0  0  0  0  0  0  0  0  0  0
   31.6310   32.6190   14.4150 H   0  0  0  0  0  0  0  0  0  0  0  0
   29.2310   30.9560   20.3320 O   0  0  0  0  0  0  0  0  0  0  0  0
   29.4970   29.6190   20.6720 C   0  0  0  0  0  0  0  0  0  0  0  0
   28.3440   28.7570   20.3560 C   0  0  0  0  0  0  0  0  0  0  0  0
   26.9990   29.0110   20.5380 C   0  0  0  0  0  0  0  0  0  0  0  0
   28.4130   27.5420   19.8180 N   0  0  0  0  0  0  0  0  0  0  0  0
   26.2980   27.9510   20.1110 N   0  0  0  0  0  0  0  0  0  0  0  0
   27.1910   27.0700   19.6760 N   0  0  0  0  0  0  0  0  0  0  0  0
   24.8770   27.7230   20.0850 C   0  0  0  0  0  0  0  0  0  0  0  0
   24.2150   28.3650   18.8800 C   0  0  0  0  0  0  0  0  0  0  0  0
   25.0290   28.0590   17.7240 N   0  0  0  0  0  0  0  0  0  0  0  0
   24.5280   27.4790   17.0360 H   0  0  0  0  0  0  0  0  0  0  0  0
   25.6520   29.4740   16.9710 S   0  0  0  0  0  0  0  0  0  0  0  0
   27.1540   29.3640   16.9850 O   0  0  0  0  0  0  0  0  0  0  0  0
   25.1150   29.5790   15.5800 O   0  0  0  0  0  0  0  0  0  0  0  0
   25.2010   30.9290   17.8890 C   0  0  0  0  0  0  0  0  0  0  0  0
   29.8670   25.5550   16.9770 C   0  0  0  0  0  0  0  0  0  0  0  0
   28.3450   25.7220   17.0260 C   0  0  0  0  0  0  0  0  0  0  0  0
   27.6020   24.3990   16.9170 C   0  0  0  0  0  0  0  0  0  0  0  0
   26.1590   24.5260   17.3220 C   0  0  0  0  0  0  0  0  0  0  0  0
   25.8870   23.6270   18.5240 C   0  0  0  0  0  0  0  0  0  0  0  0
   24.6290   22.8690   18.3300 N   0  0  0  0  0  0  0  0  0  0  0  0
  1  4  1  0  0  0  0
  1  2  1  0  0  0  0
  2 31  1  0  0  0  0
  3  2  2  0  0  0  0
  5  1  1  0  0  0  0
  6  7  1  0  0  0  0
  6  5  1  6  0  0  0
  7 27  1  1  0  0  0
  8 13  1  0  0  0  0
  8  7  1  1  0  0  0
  9 14  1  6  0  0  0
  9 10  1  0  0  0  0
  9 11  1  0  0  0  0
 10 12  1  0  0  0  0
 11  8  1  0  0  0  0
 12 20  1  6  0  0  0
 12 13  1  0  0  0  0
 13 22  1  6  0  0  0
 14 15  1  0  0  0  0
 16  9  1  0  0  0  0
 16 17  2  0  0  0  0
 18 16  1  0  0  0  0
 19 18  1  0  0  0  0
 21 20  1  0  0  0  0
 22 23  1  0  0  0  0
 23 26  2  0  0  0  0
 23 25  1  0  0  0  0
 24 22  1  0  0  0  0
 27 28  1  0  0  0  0
 29  6  1  0  0  0  0
 30 29  1  0  0  0  0
 31 32  1  0  0  0  0
 33 34  2  0  0  0  0
 33 32  1  0  0  0  0
 35 33  1  0  0  0  0
 36 34  1  0  0  0  0
 37 35  2  0  0  0  0
 37 36  1  0  0  0  0
 38 36  1  0  0  0  0
 39 38  1  0  0  0  0
 40 39  1  0  0  0  0
 41 40  1  0  0  0  0
 42 43  2  0  0  0  0
 42 40  1  0  0  0  0
 42 45  1  0  0  0  0
 44 42  2  0  0  0  0
 46 47  1  0  0  0  0
 48 47  1  0  0  0  0
 48 49  1  0  0  0  0
 49 50  1  0  0  0  0
 51 50  1  0  0  0  0
M  END
>  <REMARK>
 VINA RESULT:    -4.169      2.764      5.400
 INTER + INTRA:         -14.223
 INTER:                  -8.272
 INTRA:                  -5.950
 UNBOUND:                -6.277
 SMILES CC(=O)N[C@@H]1[C@@H](O)C[C@](O)(C(=O)O)O[C@H]1C(O)[C@H](O)CNC(=O)OCc1cn(CCNS(C)(=O)=O)nn1
 SMILES IDX 21 1 22 2 23 3 20 5 18 6 16 7 15 8 9 9 8 10 14 11 6 12 5 13
 SMILES IDX 10 14 11 16 12 17 13 18 7 20 4 22 2 23 1 25 3 26 17 27 19 29
 SMILES IDX 24 31 25 32 26 33 27 34 37 35 28 36 36 37 29 38 30 39 31 40
 SMILES IDX 32 42 34 43 35 44 33 45
 H PARENT 21 4 10 15 13 19 7 21 4 24 17 28 19 30 31 41
 Flexibility Score: inf
  4 active torsions:
  status: ('A' for Active; 'I' for Inactive)
    1  A    between atoms: CA   and  CB  
    2  A    between atoms: CB   and  CG  
    3  A    between atoms: CG   and  CD  
    4  A    between atoms: CD   and  CE  

>  <TORSDO>
F 18

>  <BEGIN_>
RES LYS A 131

$$$$
ligand_55_pose_18_2HRL.pdbqt
 OpenBabel07062320523D

  6  5  0  0  0  0  0  0  0  0999 V2000
   33.1930   34.6630    9.2900 C   0  0  0  0  0  0  0  0  0  0  0  0
   32.0600   35.3600   10.0340 C   0  0  0  0  0  0  0  0  0  0  0  0
   30.8850   35.7050    9.1560 C   0  0  0  0  0  0  0  0  0  0  0  0
   30.2580   34.4450    8.5790 C   0  0  0  0  0  0  0  0  0  0  0  0
   28.8750   34.7410    8.0300 C   0  0  0  0  0  0  0  0  0  0  0  0
   28.4970   36.1610    8.2680 N   0  0  0  0  0  0  0  0  0  0  0  0
  1  2  1  0  0  0  0
  3  2  1  0  0  0  0
  4  3  1  0  0  0  0
  5  6  1  0  0  0  0
  5  4  1  0  0  0  0
M  END
>  <EGIN_R>
ES LYS A 135

>  <REMARK>
  4 active torsions:
  status: ('A' for Active; 'I' for Inactive)
    5  A    between atoms: CA   and  CB  
    6  A    between atoms: CB   and  CG  
    7  A    between atoms: CG   and  CD  
    8  A    between atoms: CD   and  CE  

$$$$
