ligand_50_pose_1_2HRL.pdbqt
 OpenBabel07062320523D

 50 50  0  0  1  0  0  0  0  0999 V2000
   30.7780   34.0830   20.6470 N   0  0  0  0  0  0  0  0  0  0  0  0
   32.0620   34.1490   21.2430 C   0  0  0  0  0  0  0  0  0  0  0  0
   32.9430   34.9060   20.7990 O   0  0  0  0  0  0  0  0  0  0  0  0
   30.0950   33.4040   21.0990 H   0  0  0  0  0  0  0  0  0  0  0  0
   30.4370   34.8780   19.5160 C   0  0  0  0  0  0  0  0  0  0  0  0
   29.2070   34.3920   18.7810 C   0  0  2  0  0  0  0  0  0  0  0  0
   29.3180   32.8740   18.7140 C   0  0  1  0  0  0  0  0  0  0  0  0
   28.2380   32.3060   17.7880 C   0  0  2  0  0  0  0  0  0  0  0  0
   27.5820   30.1270   18.2580 C   0  0  2  0  0  0  0  0  0  0  0  0
   27.0730   29.9350   16.8430 C   0  0  0  0  0  0  0  0  0  0  0  0
   27.4670   31.4670   18.5410 O   0  0  0  0  0  0  0  0  0  0  0  0
   28.0230   30.6260   15.9280 C   0  0  1  0  0  0  0  0  0  0  0  0
   28.8690   31.6880   16.5810 C   0  0  1  0  0  0  0  0  0  0  0  0
   28.8960   29.6620   18.2780 O   0  0  0  0  0  0  0  0  0  0  0  0
   28.9690   28.7210   18.0000 H   0  0  0  0  0  0  0  0  0  0  0  0
   26.7670   29.3620   19.2360 C   0  0  0  0  0  0  0  0  0  0  0  0
   27.0330   28.1480   19.4210 O   0  0  0  0  0  0  0  0  0  0  0  0
   25.7460   29.9830   19.9160 O   0  0  0  0  0  0  0  0  0  0  0  0
   25.6390   30.9920   19.8810 H   0  0  0  0  0  0  0  0  0  0  0  0
   28.8970   29.6620   15.4100 O   0  0  0  0  0  0  0  0  0  0  0  0
   29.4040   29.2580   16.1370 H   0  0  0  0  0  0  0  0  0  0  0  0
   29.1170   32.6920   15.5670 N   0  0  0  0  0  0  0  0  0  0  0  0
   30.4300   32.8500   15.0530 C   0  0  0  0  0  0  0  0  0  0  0  0
   28.3660   33.3140   15.1910 H   0  0  0  0  0  0  0  0  0  0  0  0
   30.7470   33.8770   14.0000 C   0  0  0  0  0  0  0  0  0  0  0  0
   31.4050   32.1530   15.4370 O   0  0  0  0  0  0  0  0  0  0  0  0
   30.5880   32.5270   18.3210 O   0  0  0  0  0  0  0  0  0  0  0  0
   31.2100   33.3070   18.3550 H   0  0  0  0  0  0  0  0  0  0  0  0
   29.1530   34.9450   17.5010 O   0  0  0  0  0  0  0  0  0  0  0  0
   29.6310   34.3400   16.9030 H   0  0  0  0  0  0  0  0  0  0  0  0
   32.3810   33.3600   22.3590 O   0  0  0  0  0  0  0  0  0  0  0  0
   32.9780   32.1150   22.1410 C   0  0  0  0  0  0  0  0  0  0  0  0
   31.9900   31.0900   21.7190 C   0  0  0  0  0  0  0  0  0  0  0  0
   31.3910   30.1530   22.5090 C   0  0  0  0  0  0  0  0  0  0  0  0
   31.5150   30.9090   20.4840 N   0  0  0  0  0  0  0  0  0  0  0  0
   30.5650   29.4320   21.7050 N   0  0  0  0  0  0  0  0  0  0  0  0
   30.6510   29.9060   20.4700 N   0  0  0  0  0  0  0  0  0  0  0  0
   29.7280   28.3210   22.1550 C   0  0  0  0  0  0  0  0  0  0  0  0
   30.1030   27.1330   21.2900 C   0  0  1  0  0  0  0  0  0  0  0  0
   29.6440   27.3440   19.9950 O   0  0  0  0  0  0  0  0  0  0  0  0
   29.6340   26.4660   19.5280 H   0  0  0  0  0  0  0  0  0  0  0  0
   31.6250   26.9540   21.2740 C   0  0  0  0  0  0  0  0  0  0  0  0
   32.0990   27.1580   19.9770 O   0  0  0  0  0  0  0  0  0  0  0  0
   32.9980   26.7240   19.8830 H   0  0  0  0  0  0  0  0  0  0  0  0
   29.8670   25.5550   16.9770 C   0  0  0  0  0  0  0  0  0  0  0  0
   28.3450   25.7220   17.0260 C   0  0  0  0  0  0  0  0  0  0  0  0
   27.6010   24.4050   16.8710 C   0  0  0  0  0  0  0  0  0  0  0  0
   26.1410   24.5360   17.2040 C   0  0  0  0  0  0  0  0  0  0  0  0
   25.7310   23.4130   18.1510 C   0  0  0  0  0  0  0  0  0  0  0  0
   25.5640   23.9310   19.5290 N   0  0  0  0  0  0  0  0  0  0  0  0
  1  4  1  0  0  0  0
  1  2  1  0  0  0  0
  2 31  1  0  0  0  0
  3  2  2  0  0  0  0
  5  1  1  0  0  0  0
  6  5  1  6  0  0  0
  7 27  1  6  0  0  0
  7  6  1  0  0  0  0
  8 11  1  0  0  0  0
  8  7  1  1  0  0  0
  9 14  1  1  0  0  0
  9 11  1  0  0  0  0
  9 16  1  0  0  0  0
 10  9  1  0  0  0  0
 12 20  1  1  0  0  0
 12 13  1  0  0  0  0
 12 10  1  0  0  0  0
 13 22  1  6  0  0  0
 13  8  1  0  0  0  0
 15 14  1  0  0  0  0
 16 17  2  0  0  0  0
 16 18  1  0  0  0  0
 19 18  1  0  0  0  0
 20 21  1  0  0  0  0
 23 26  2  0  0  0  0
 23 22  1  0  0  0  0
 24 22  1  0  0  0  0
 25 23  1  0  0  0  0
 27 28  1  0  0  0  0
 29  6  1  0  0  0  0
 30 29  1  0  0  0  0
 32 31  1  0  0  0  0
 33 32  1  0  0  0  0
 33 34  2  0  0  0  0
 35 33  1  0  0  0  0
 36 38  1  0  0  0  0
 36 34  1  0  0  0  0
 37 35  2  0  0  0  0
 37 36  1  0  0  0  0
 39 42  1  6  0  0  0
 39 38  1  0  0  0  0
 40 39  1  0  0  0  0
 41 40  1  0  0  0  0
 43 42  1  0  0  0  0
 44 43  1  0  0  0  0
 45 46  1  0  0  0  0
 47 46  1  0  0  0  0
 47 48  1  0  0  0  0
 48 49  1  0  0  0  0
 49 50  1  0  0  0  0
M  END
>  <REMARK>
 VINA RESULT:    -4.821      2.088      6.671
 INTER + INTRA:         -14.667
 INTER:                  -7.553
 INTRA:                  -7.114
 UNBOUND:                -5.477
 SMILES CC(=O)N[C@@H]1[C@@H](O)C[C@](O)(C(=O)O)O[C@H]1C(O)[C@H](O)CNC(=O)OCc1cn(CC(O)CO)nn1
 SMILES IDX 21 1 22 2 23 3 20 5 18 6 16 7 15 8 9 9 8 10 14 11 6 12 5 13
 SMILES IDX 10 14 11 16 12 17 13 18 7 20 4 22 2 23 1 25 3 26 17 27 19 29
 SMILES IDX 24 31 25 32 26 33 27 34 35 35 28 36 34 37 29 38 30 39 31 40
 SMILES IDX 32 42 33 43
 H PARENT 21 4 10 15 13 19 7 21 4 24 17 28 19 30 31 41 33 44
 Flexibility Score: inf
  4 active torsions:
  status: ('A' for Active; 'I' for Inactive)
    1  A    between atoms: CA   and  CB  
    2  A    between atoms: CB   and  CG  
    3  A    between atoms: CG   and  CD  
    4  A    between atoms: CD   and  CE  

>  <TORSDO>
F 19

>  <BEGIN_>
RES LYS A 131

$$$$
ligand_50_pose_1_2HRL.pdbqt
 OpenBabel07062320523D

  6  5  0  0  0  0  0  0  0  0999 V2000
   33.1930   34.6630    9.2900 C   0  0  0  0  0  0  0  0  0  0  0  0
   32.0600   35.3600   10.0340 C   0  0  0  0  0  0  0  0  0  0  0  0
   30.8140   35.5370    9.2050 C   0  0  0  0  0  0  0  0  0  0  0  0
   30.0410   34.2300    9.1130 C   0  0  0  0  0  0  0  0  0  0  0  0
   28.7440   34.4310    8.3530 C   0  0  0  0  0  0  0  0  0  0  0  0
   28.8460   35.5820    7.4140 N   0  0  0  0  0  0  0  0  0  0  0  0
  1  2  1  0  0  0  0
  3  2  1  0  0  0  0
  4  3  1  0  0  0  0
  5  4  1  0  0  0  0
  6  5  1  0  0  0  0
M  END
>  <EGIN_R>
ES LYS A 135

>  <REMARK>
  4 active torsions:
  status: ('A' for Active; 'I' for Inactive)
    5  A    between atoms: CA   and  CB  
    6  A    between atoms: CB   and  CG  
    7  A    between atoms: CG   and  CD  
    8  A    between atoms: CD   and  CE  

$$$$
