ligand_75_pose_19_2HRL.pdbqt
 OpenBabel07062320523D

 55 56  0  0  1  0  0  0  0  0999 V2000
   31.1430   36.8720   20.7040 N   0  0  0  0  0  0  0  0  0  0  0  0
   32.2310   36.5800   21.5590 C   0  0  0  0  0  0  0  0  0  0  0  0
   32.4680   35.4300   21.9820 O   0  0  0  0  0  0  0  0  0  0  0  0
   31.0410   37.9060   20.4180 H   0  0  0  0  0  0  0  0  0  0  0  0
   30.1870   35.9300   20.1960 C   0  0  0  0  0  0  0  0  0  0  0  0
   30.4890   35.5650   18.7780 C   0  0  2  0  0  0  0  0  0  0  0  0
   31.6640   34.6200   18.6220 C   0  0  2  0  0  0  0  0  0  0  0  0
   31.7120   34.0500   17.2520 C   0  0  2  0  0  0  0  0  0  0  0  0
   31.9070   34.3420   14.9700 C   0  0  2  0  0  0  0  0  0  0  0  0
   31.9000   32.8390   14.9870 C   0  0  0  0  0  0  0  0  0  0  0  0
   31.9750   34.9050   16.2290 O   0  0  0  0  0  0  0  0  0  0  0  0
   30.8950   32.2160   15.8840 C   0  0  1  0  0  0  0  0  0  0  0  0
   30.4740   33.2100   16.9390 C   0  0  1  0  0  0  0  0  0  0  0  0
   30.8190   34.8000   14.2270 O   0  0  0  0  0  0  0  0  0  0  0  0
   30.5600   34.1770   13.5150 H   0  0  0  0  0  0  0  0  0  0  0  0
   33.1350   34.7640   14.2410 C   0  0  0  0  0  0  0  0  0  0  0  0
   34.1540   35.1540   14.9060 O   0  0  0  0  0  0  0  0  0  0  0  0
   33.2170   34.7510   12.8550 O   0  0  0  0  0  0  0  0  0  0  0  0
   33.0780   35.5670   12.2940 H   0  0  0  0  0  0  0  0  0  0  0  0
   29.8000   31.6840   15.2110 O   0  0  0  0  0  0  0  0  0  0  0  0
   29.9390   30.7350   15.0560 H   0  0  0  0  0  0  0  0  0  0  0  0
   29.9180   32.5890   18.1000 N   0  0  0  0  0  0  0  0  0  0  0  0
   28.5260   32.3580   18.2510 C   0  0  0  0  0  0  0  0  0  0  0  0
   30.5340   32.2720   18.9060 H   0  0  0  0  0  0  0  0  0  0  0  0
   27.9980   31.7120   19.4680 C   0  0  0  0  0  0  0  0  0  0  0  0
   27.7180   32.6990   17.3520 O   0  0  0  0  0  0  0  0  0  0  0  0
   31.7260   33.6840   19.6500 O   0  0  0  0  0  0  0  0  0  0  0  0
   32.6200   33.2770   19.6330 H   0  0  0  0  0  0  0  0  0  0  0  0
   30.7210   36.6940   17.9890 O   0  0  0  0  0  0  0  0  0  0  0  0
   30.8910   36.3940   17.0540 H   0  0  0  0  0  0  0  0  0  0  0  0
   33.1130   37.5970   21.9800 O   0  0  0  0  0  0  0  0  0  0  0  0
   33.7060   38.4150   21.0210 C   0  0  0  0  0  0  0  0  0  0  0  0
   34.2900   37.6510   19.8920 C   0  0  0  0  0  0  0  0  0  0  0  0
   35.4450   36.9110   19.8220 C   0  0  0  0  0  0  0  0  0  0  0  0
   33.7370   37.5580   18.6710 N   0  0  0  0  0  0  0  0  0  0  0  0
   35.5740   36.3870   18.5770 N   0  0  0  0  0  0  0  0  0  0  0  0
   34.5180   36.8000   17.9010 N   0  0  0  0  0  0  0  0  0  0  0  0
   36.6540   35.5620   18.1370 C   0  0  0  0  0  0  0  0  0  0  0  0
   37.1180   35.6250   16.8490 C   0  0  0  0  0  0  0  0  0  0  0  0
   37.2500   34.6800   19.0080 C   0  0  0  0  0  0  0  0  0  0  0  0
   38.1920   34.8060   16.4030 C   0  0  0  0  0  0  0  0  0  0  0  0
   38.2820   33.8680   18.6430 C   0  0  0  0  0  0  0  0  0  0  0  0
   38.7440   33.9490   17.3180 C   0  0  0  0  0  0  0  0  0  0  0  0
   38.6560   34.9480   15.0670 C   0  0  0  0  0  0  0  0  0  0  0  0
   38.3920   34.5020   13.9010 C   0  0  0  0  0  0  0  0  0  0  0  0
   37.4570   33.6070   13.3440 C   0  0  0  0  0  0  0  0  0  0  0  0
   37.9160   32.4620   12.8410 O   0  0  0  0  0  0  0  0  0  0  0  0
   36.0950   33.6680   13.1970 O   0  0  0  0  0  0  0  0  0  0  0  0
   35.5950   33.2350   12.4360 H   0  0  0  0  0  0  0  0  0  0  0  0
   29.8670   25.5550   16.9770 C   0  0  0  0  0  0  0  0  0  0  0  0
   28.3450   25.7220   17.0260 C   0  0  0  0  0  0  0  0  0  0  0  0
   27.6020   24.3990   16.9190 C   0  0  0  0  0  0  0  0  0  0  0  0
   26.1580   24.5270   17.3200 C   0  0  0  0  0  0  0  0  0  0  0  0
   25.9500   25.8430   18.0610 C   0  0  0  0  0  0  0  0  0  0  0  0
   25.1260   25.6320   19.2740 N   0  0  0  0  0  0  0  0  0  0  0  0
  1  2  1  0  0  0  0
  2 31  1  0  0  0  0
  2  3  2  0  0  0  0
  4  1  1  0  0  0  0
  5  1  1  0  0  0  0
  6  5  1  1  0  0  0
  7  6  1  0  0  0  0
  7 27  1  1  0  0  0
  8  7  1  1  0  0  0
  9 14  1  6  0  0  0
  9 10  1  0  0  0  0
  9 11  1  0  0  0  0
 10 12  1  0  0  0  0
 11  8  1  0  0  0  0
 12 20  1  6  0  0  0
 12 13  1  0  0  0  0
 13  8  1  0  0  0  0
 13 22  1  1  0  0  0
 15 14  1  0  0  0  0
 16 17  2  0  0  0  0
 16  9  1  0  0  0  0
 18 16  1  0  0  0  0
 19 18  1  0  0  0  0
 21 20  1  0  0  0  0
 22 23  1  0  0  0  0
 22 24  1  0  0  0  0
 23 25  1  0  0  0  0
 26 23  2  0  0  0  0
 28 27  1  0  0  0  0
 29  6  1  0  0  0  0
 30 29  1  0  0  0  0
 32 31  1  0  0  0  0
 33 32  1  0  0  0  0
 34 33  2  0  0  0  0
 35 33  1  0  0  0  0
 36 34  1  0  0  0  0
 37 36  1  0  0  0  0
 37 35  2  0  0  0  0
 38 36  1  0  0  0  0
 38 40  2  0  0  0  0
 39 38  1  0  0  0  0
 41 39  2  0  0  0  0
 41 43  1  0  0  0  0
 42 40  1  0  0  0  0
 43 42  2  0  0  0  0
 44 41  1  0  0  0  0
 45 44  2  0  0  0  0
 46 45  1  0  0  0  0
 47 46  2  0  0  0  0
 48 46  1  0  0  0  0
 49 48  1  0  0  0  0
 50 51  1  0  0  0  0
 52 51  1  0  0  0  0
 52 53  1  0  0  0  0
 53 54  1  0  0  0  0
 54 55  1  0  0  0  0
M  END
>  <REMARK>
 VINA RESULT:    -4.836      8.548     12.954
 INTER + INTRA:         -15.393
 INTER:                  -8.869
 INTRA:                  -6.524
 UNBOUND:                -6.317
 SMILES CC(=O)N[C@@H]1[C@@H](O)C[C@](O)(C(=O)O)O[C@H]1C(O)[C@H](O)CNC(=O)OCc1cn(-c2cccc(C=CC(=O)O)c2)nn1
 SMILES IDX 21 1 22 2 23 3 20 5 18 6 16 7 15 8 9 9 8 10 14 11 6 12 5 13
 SMILES IDX 10 14 11 16 12 17 13 18 7 20 4 22 2 23 1 25 3 26 17 27 19 29
 SMILES IDX 24 31 25 32 26 33 27 34 41 35 28 36 40 37 29 38 39 39 30 40
 SMILES IDX 33 41 31 42 32 43 34 44 35 45 36 46 37 47 38 48
 H PARENT 21 4 10 15 13 19 7 21 4 24 17 28 19 30 38 49
 Flexibility Score: inf
  4 active torsions:
  status: ('A' for Active; 'I' for Inactive)
    1  A    between atoms: CA   and  CB  
    2  A    between atoms: CB   and  CG  
    3  A    between atoms: CG   and  CD  
    4  A    between atoms: CD   and  CE  

>  <TORSDO>
F 18

>  <BEGIN_>
RES LYS A 131

$$$$
ligand_75_pose_19_2HRL.pdbqt
 OpenBabel07062320523D

  6  5  0  0  0  0  0  0  0  0999 V2000
   33.1930   34.6630    9.2900 C   0  0  0  0  0  0  0  0  0  0  0  0
   32.0600   35.3600   10.0340 C   0  0  0  0  0  0  0  0  0  0  0  0
   30.7090   34.7370    9.7950 C   0  0  0  0  0  0  0  0  0  0  0  0
   30.4810   34.5020    8.3100 C   0  0  0  0  0  0  0  0  0  0  0  0
   29.0590   34.8610    7.9260 C   0  0  0  0  0  0  0  0  0  0  0  0
   28.0830   34.3090    8.9060 N   0  0  0  0  0  0  0  0  0  0  0  0
  1  2  1  0  0  0  0
  3  2  1  0  0  0  0
  4  3  1  0  0  0  0
  5  4  1  0  0  0  0
  5  6  1  0  0  0  0
M  END
>  <EGIN_R>
ES LYS A 135

>  <REMARK>
  4 active torsions:
  status: ('A' for Active; 'I' for Inactive)
    5  A    between atoms: CA   and  CB  
    6  A    between atoms: CB   and  CG  
    7  A    between atoms: CG   and  CD  
    8  A    between atoms: CD   and  CE  

$$$$
