ligand_22_pose_17_2HRL.pdbqt
 OpenBabel07062320523D

 50 50  0  0  1  0  0  0  0  0999 V2000
   26.0290   32.9130   16.3770 N   0  0  0  0  0  0  0  0  0  0  0  0
   25.0670   32.1650   15.6590 C   0  0  0  0  0  0  0  0  0  0  0  0
   25.2690   30.9300   15.3930 O   0  0  0  0  0  0  0  0  0  0  0  0
   25.8550   33.9130   16.5910 H   0  0  0  0  0  0  0  0  0  0  0  0
   27.2330   32.2420   16.7970 C   0  0  0  0  0  0  0  0  0  0  0  0
   28.4850   32.7130   16.1470 C   0  0  2  0  0  0  0  0  0  0  0  0
   28.3550   34.0680   15.4980 C   0  0  1  0  0  0  0  0  0  0  0  0
   29.7600   34.6700   15.3830 C   0  0  2  0  0  0  0  0  0  0  0  0
   31.3890   34.9720   13.7510 C   0  0  2  0  0  0  0  0  0  0  0  0
   32.4610   34.4490   14.6820 C   0  0  0  0  0  0  0  0  0  0  0  0
   30.1290   34.5150   14.0520 O   0  0  0  0  0  0  0  0  0  0  0  0
   31.8930   33.3810   15.5710 C   0  0  1  0  0  0  0  0  0  0  0  0
   30.7010   33.9430   16.3190 C   0  0  1  0  0  0  0  0  0  0  0  0
   31.7000   34.4650   12.4790 O   0  0  0  0  0  0  0  0  0  0  0  0
   30.8820   34.2130   12.0120 H   0  0  0  0  0  0  0  0  0  0  0  0
   31.4390   36.4480   13.6750 C   0  0  0  0  0  0  0  0  0  0  0  0
   32.1440   37.0910   14.4780 O   0  0  0  0  0  0  0  0  0  0  0  0
   30.7180   37.1610   12.7290 O   0  0  0  0  0  0  0  0  0  0  0  0
   30.3210   36.7240   11.9100 H   0  0  0  0  0  0  0  0  0  0  0  0
   31.5950   32.2180   14.9030 O   0  0  0  0  0  0  0  0  0  0  0  0
   32.3180   31.8710   14.3360 H   0  0  0  0  0  0  0  0  0  0  0  0
   31.2360   34.8530   17.3300 N   0  0  0  0  0  0  0  0  0  0  0  0
   30.9080   34.7050   18.7060 C   0  0  0  0  0  0  0  0  0  0  0  0
   31.8710   35.6290   17.0500 H   0  0  0  0  0  0  0  0  0  0  0  0
   31.4460   35.6260   19.7510 C   0  0  0  0  0  0  0  0  0  0  0  0
   30.1300   33.7420   18.9960 O   0  0  0  0  0  0  0  0  0  0  0  0
   27.7060   34.0780   14.2950 O   0  0  0  0  0  0  0  0  0  0  0  0
   27.8980   33.2680   13.7860 H   0  0  0  0  0  0  0  0  0  0  0  0
   28.7850   31.7570   15.1420 O   0  0  0  0  0  0  0  0  0  0  0  0
   29.6360   31.2950   15.3950 H   0  0  0  0  0  0  0  0  0  0  0  0
   23.8750   32.6860   15.2000 O   0  0  0  0  0  0  0  0  0  0  0  0
   23.6350   32.8860   13.7960 C   0  0  0  0  0  0  0  0  0  0  0  0
   24.4670   34.0380   13.3590 C   0  0  0  0  0  0  0  0  0  0  0  0
   24.9730   34.2260   12.0830 C   0  0  0  0  0  0  0  0  0  0  0  0
   24.8990   35.1030   14.0600 N   0  0  0  0  0  0  0  0  0  0  0  0
   25.6830   35.3770   12.0440 N   0  0  0  0  0  0  0  0  0  0  0  0
   25.6160   35.8810   13.2620 N   0  0  0  0  0  0  0  0  0  0  0  0
   26.3630   35.9130   10.8830 C   0  0  0  0  0  0  0  0  0  0  0  0
   26.3140   34.9190    9.7420 C   0  0  0  0  0  0  0  0  0  0  0  0
   25.6960   37.2070   10.4640 C   0  0  0  0  0  0  0  0  0  0  0  0
   27.8050   36.1640   11.1780 C   0  0  0  0  0  0  0  0  0  0  0  0
   28.2790   37.2770   10.8350 O   0  0  0  0  0  0  0  0  0  0  0  0
   28.6050   35.2280   11.8020 O   0  0  0  0  0  0  0  0  0  0  0  0
   28.3390   34.2520   11.7100 H   0  0  0  0  0  0  0  0  0  0  0  0
   29.8670   25.5550   16.9770 C   0  0  0  0  0  0  0  0  0  0  0  0
   28.3450   25.7220   17.0260 C   0  0  0  0  0  0  0  0  0  0  0  0
   27.6010   24.4060   16.8620 C   0  0  0  0  0  0  0  0  0  0  0  0
   26.1670   24.5070   17.3050 C   0  0  0  0  0  0  0  0  0  0  0  0
   26.1060   25.1350   18.6930 C   0  0  0  0  0  0  0  0  0  0  0  0
   25.3870   24.2440   19.6340 N   0  0  0  0  0  0  0  0  0  0  0  0
  1  4  1  0  0  0  0
  1  5  1  0  0  0  0
  2  1  1  0  0  0  0
  3  2  2  0  0  0  0
  6  5  1  6  0  0  0
  7 27  1  6  0  0  0
  7  6  1  0  0  0  0
  8  7  1  6  0  0  0
  8 13  1  0  0  0  0
  9 14  1  6  0  0  0
  9 11  1  0  0  0  0
  9 10  1  0  0  0  0
 10 12  1  0  0  0  0
 11  8  1  0  0  0  0
 12 20  1  6  0  0  0
 12 13  1  0  0  0  0
 13 22  1  1  0  0  0
 15 14  1  0  0  0  0
 16  9  1  0  0  0  0
 16 17  2  0  0  0  0
 18 16  1  0  0  0  0
 19 18  1  0  0  0  0
 21 20  1  0  0  0  0
 22 23  1  0  0  0  0
 23 26  2  0  0  0  0
 23 25  1  0  0  0  0
 24 22  1  0  0  0  0
 28 27  1  0  0  0  0
 29 30  1  0  0  0  0
 29  6  1  0  0  0  0
 31  2  1  0  0  0  0
 32 31  1  0  0  0  0
 33 32  1  0  0  0  0
 33 35  1  0  0  0  0
 34 33  2  0  0  0  0
 36 34  1  0  0  0  0
 36 37  1  0  0  0  0
 37 35  2  0  0  0  0
 38 41  1  0  0  0  0
 38 36  1  0  0  0  0
 39 38  1  0  0  0  0
 40 38  1  0  0  0  0
 41 43  1  0  0  0  0
 42 41  2  0  0  0  0
 44 43  1  0  0  0  0
 45 46  1  0  0  0  0
 47 46  1  0  0  0  0
 47 48  1  0  0  0  0
 48 49  1  0  0  0  0
 49 50  1  0  0  0  0
M  END
>  <REMARK>
 VINA RESULT:    -4.785      1.863      5.184
 INTER + INTRA:         -14.280
 INTER:                  -7.262
 INTRA:                  -7.018
 UNBOUND:                -5.578
 SMILES CC(=O)N[C@@H]1[C@@H](O)C[C@](O)(C(=O)O)O[C@H]1C(O)[C@H](O)CNC(=O)OCc1cn(C(C)(C)C(=O)O)nn1
 SMILES IDX 21 1 22 2 23 3 20 5 18 6 16 7 15 8 9 9 8 10 14 11 6 12 5 13
 SMILES IDX 10 14 11 16 12 17 13 18 7 20 4 22 2 23 1 25 3 26 17 27 19 29
 SMILES IDX 24 31 25 32 26 33 27 34 36 35 28 36 35 37 29 38 30 39 31 40
 SMILES IDX 32 41 33 42 34 43
 H PARENT 21 4 10 15 13 19 7 21 4 24 17 28 19 30 34 44
 Flexibility Score: inf
  4 active torsions:
  status: ('A' for Active; 'I' for Inactive)
    1  A    between atoms: CA   and  CB  
    2  A    between atoms: CB   and  CG  
    3  A    between atoms: CG   and  CD  
    4  A    between atoms: CD   and  CE  

>  <TORSDO>
F 17

>  <BEGIN_>
RES LYS A 131

$$$$
ligand_22_pose_17_2HRL.pdbqt
 OpenBabel07062320523D

  6  5  0  0  0  0  0  0  0  0999 V2000
   33.1930   34.6630    9.2900 C   0  0  0  0  0  0  0  0  0  0  0  0
   32.0600   35.3600   10.0340 C   0  0  0  0  0  0  0  0  0  0  0  0
   30.9010   35.7390    9.1480 C   0  0  0  0  0  0  0  0  0  0  0  0
   30.1820   34.4970    8.6440 C   0  0  0  0  0  0  0  0  0  0  0  0
   29.1620   34.8660    7.5840 C   0  0  0  0  0  0  0  0  0  0  0  0
   28.9090   36.3330    7.5710 N   0  0  0  0  0  0  0  0  0  0  0  0
  1  2  1  0  0  0  0
  3  2  1  0  0  0  0
  4  3  1  0  0  0  0
  5  4  1  0  0  0  0
  6  5  1  0  0  0  0
M  END
>  <EGIN_R>
ES LYS A 135

>  <REMARK>
  4 active torsions:
  status: ('A' for Active; 'I' for Inactive)
    5  A    between atoms: CA   and  CB  
    6  A    between atoms: CB   and  CG  
    7  A    between atoms: CG   and  CD  
    8  A    between atoms: CD   and  CE  

$$$$
