ligand_23_pose_3_2HRL.pdbqt
 OpenBabel07062320523D

 55 56  0  0  1  0  0  0  0  0999 V2000
   27.9180   28.7610   18.9670 N   0  0  0  0  0  0  0  0  0  0  0  0
   27.3540   28.9710   17.6820 C   0  0  0  0  0  0  0  0  0  0  0  0
   26.8990   27.9960   17.0610 O   0  0  0  0  0  0  0  0  0  0  0  0
   28.2840   29.6330   19.4380 H   0  0  0  0  0  0  0  0  0  0  0  0
   27.9880   27.4640   19.5880 C   0  0  0  0  0  0  0  0  0  0  0  0
   28.4380   27.5750   21.0290 C   0  0  2  0  0  0  0  0  0  0  0  0
   29.9470   27.3810   21.0980 C   0  0  1  0  0  0  0  0  0  0  0  0
   30.5700   28.6540   21.6670 C   0  0  2  0  0  0  0  0  0  0  0  0
   30.5020   30.6120   20.4290 C   0  0  2  0  0  0  0  0  0  0  0  0
   31.8240   31.1030   20.9740 C   0  0  0  0  0  0  0  0  0  0  0  0
   29.8560   29.7480   21.2900 O   0  0  0  0  0  0  0  0  0  0  0  0
   32.5710   30.0560   21.7280 C   0  0  1  0  0  0  0  0  0  0  0  0
   32.0280   28.6870   21.3190 C   0  0  1  0  0  0  0  0  0  0  0  0
   30.6440   30.0160   19.1800 O   0  0  0  0  0  0  0  0  0  0  0  0
   30.6840   30.7420   18.4820 H   0  0  0  0  0  0  0  0  0  0  0  0
   29.6320   31.8070   20.2620 C   0  0  0  0  0  0  0  0  0  0  0  0
   29.7830   32.8380   20.9680 O   0  0  0  0  0  0  0  0  0  0  0  0
   28.6070   31.8440   19.3160 O   0  0  0  0  0  0  0  0  0  0  0  0
   28.6650   32.4700   18.5210 H   0  0  0  0  0  0  0  0  0  0  0  0
   33.9430   30.1080   21.5600 O   0  0  0  0  0  0  0  0  0  0  0  0
   34.4480   29.6700   22.3030 H   0  0  0  0  0  0  0  0  0  0  0  0
   32.6910   27.6620   22.1060 N   0  0  0  0  0  0  0  0  0  0  0  0
   32.9000   27.7930   23.5110 C   0  0  0  0  0  0  0  0  0  0  0  0
   33.0320   26.7880   21.6180 H   0  0  0  0  0  0  0  0  0  0  0  0
   33.5900   26.6800   24.2140 C   0  0  0  0  0  0  0  0  0  0  0  0
   32.4930   28.8260   24.0690 O   0  0  0  0  0  0  0  0  0  0  0  0
   30.1990   26.3440   21.9770 O   0  0  0  0  0  0  0  0  0  0  0  0
   30.3070   25.4870   21.5020 H   0  0  0  0  0  0  0  0  0  0  0  0
   27.7960   26.5650   21.7650 O   0  0  0  0  0  0  0  0  0  0  0  0
   28.1860   26.4930   22.6920 H   0  0  0  0  0  0  0  0  0  0  0  0
   27.3020   30.2450   17.1070 O   0  0  0  0  0  0  0  0  0  0  0  0
   27.8100   30.4850   15.8110 C   0  0  0  0  0  0  0  0  0  0  0  0
   29.0430   31.3080   15.8910 C   0  0  0  0  0  0  0  0  0  0  0  0
   29.2790   32.4540   15.1580 C   0  0  0  0  0  0  0  0  0  0  0  0
   30.1280   31.1190   16.6510 N   0  0  0  0  0  0  0  0  0  0  0  0
   30.4970   32.8780   15.5310 N   0  0  0  0  0  0  0  0  0  0  0  0
   31.0230   32.0720   16.4400 N   0  0  0  0  0  0  0  0  0  0  0  0
   31.1560   34.0390   15.0280 C   0  0  0  0  0  0  0  0  0  0  0  0
   30.4760   35.0970   14.4670 C   0  0  0  0  0  0  0  0  0  0  0  0
   32.5360   34.1410   15.0890 C   0  0  0  0  0  0  0  0  0  0  0  0
   31.1280   36.2280   13.9770 C   0  0  0  0  0  0  0  0  0  0  0  0
   33.1980   35.2410   14.6150 C   0  0  0  0  0  0  0  0  0  0  0  0
   32.4920   36.2810   14.0600 C   0  0  0  0  0  0  0  0  0  0  0  0
   30.2670   37.5570   13.2710 S   0  0  0  0  0  0  0  0  0  0  0  0
   29.3230   38.1130   14.3080 O   0  0  0  0  0  0  0  0  0  0  0  0
   29.4050   37.0490   12.1390 O   0  0  0  0  0  0  0  0  0  0  0  0
   31.3290   38.8010   12.7510 N   0  0  0  0  0  0  0  0  0  0  0  0
   30.9170   39.7260   12.9670 H   0  0  0  0  0  0  0  0  0  0  0  0
   31.5750   38.7200   11.7430 H   0  0  0  0  0  0  0  0  0  0  0  0
   29.8670   25.5550   16.9770 C   0  0  0  0  0  0  0  0  0  0  0  0
   28.3450   25.7220   17.0260 C   0  0  0  0  0  0  0  0  0  0  0  0
   27.5990   24.4760   16.5740 C   0  0  0  0  0  0  0  0  0  0  0  0
   26.8180   23.8460   17.6940 C   0  0  0  0  0  0  0  0  0  0  0  0
   25.7730   24.8340   18.2030 C   0  0  0  0  0  0  0  0  0  0  0  0
   25.5230   24.6260   19.6490 N   0  0  0  0  0  0  0  0  0  0  0  0
  1  4  1  0  0  0  0
  1  5  1  0  0  0  0
  2  1  1  0  0  0  0
  3  2  2  0  0  0  0
  6  5  1  6  0  0  0
  6  7  1  0  0  0  0
  6 29  1  0  0  0  0
  7 27  1  1  0  0  0
  8  7  1  6  0  0  0
  9 14  1  6  0  0  0
  9 10  1  0  0  0  0
  9 11  1  0  0  0  0
 10 12  1  0  0  0  0
 11  8  1  0  0  0  0
 12 20  1  6  0  0  0
 13  8  1  0  0  0  0
 13 12  1  0  0  0  0
 13 22  1  1  0  0  0
 15 14  1  0  0  0  0
 16  9  1  0  0  0  0
 16 17  2  0  0  0  0
 18 16  1  0  0  0  0
 19 18  1  0  0  0  0
 20 21  1  0  0  0  0
 22 23  1  0  0  0  0
 23 26  2  0  0  0  0
 23 25  1  0  0  0  0
 24 22  1  0  0  0  0
 28 27  1  0  0  0  0
 29 30  1  0  0  0  0
 31  2  1  0  0  0  0
 32 33  1  0  0  0  0
 32 31  1  0  0  0  0
 33 35  1  0  0  0  0
 34 36  1  0  0  0  0
 34 33  2  0  0  0  0
 36 37  1  0  0  0  0
 37 35  2  0  0  0  0
 38 40  1  0  0  0  0
 38 36  1  0  0  0  0
 39 38  2  0  0  0  0
 41 43  2  0  0  0  0
 41 39  1  0  0  0  0
 42 40  2  0  0  0  0
 43 42  1  0  0  0  0
 44 41  1  0  0  0  0
 44 45  2  0  0  0  0
 46 44  2  0  0  0  0
 47 48  1  0  0  0  0
 47 44  1  0  0  0  0
 49 47  1  0  0  0  0
 50 51  1  0  0  0  0
 52 51  1  0  0  0  0
 52 53  1  0  0  0  0
 53 54  1  0  0  0  0
 54 55  1  0  0  0  0
M  END
>  <REMARK>
 VINA RESULT:    -4.655      4.478     12.132
 INTER + INTRA:         -15.088
 INTER:                  -9.542
 INTRA:                  -5.546
 UNBOUND:                -6.624
 SMILES CC(=O)N[C@@H]1[C@@H](O)C[C@](O)(C(=O)O)O[C@H]1C(O)[C@H](O)CNC(=O)OCc1cn(-c2cccc(S(N)(=O)=O)c2)nn1
 SMILES IDX 21 1 22 2 23 3 20 5 18 6 16 7 15 8 9 9 8 10 14 11 6 12 5 13
 SMILES IDX 10 14 11 16 12 17 13 18 7 20 4 22 2 23 1 25 3 26 17 27 19 29
 SMILES IDX 24 31 25 32 26 33 27 34 40 35 28 36 39 37 29 38 38 39 30 40
 SMILES IDX 33 41 31 42 32 43 34 44 36 45 37 46 35 47
 H PARENT 21 4 10 15 13 19 7 21 4 24 17 28 19 30 35 48 35 49
 Flexibility Score: inf
  4 active torsions:
  status: ('A' for Active; 'I' for Inactive)
    1  A    between atoms: CA   and  CB  
    2  A    between atoms: CB   and  CG  
    3  A    between atoms: CG   and  CD  
    4  A    between atoms: CD   and  CE  

>  <TORSDO>
F 17

>  <BEGIN_>
RES LYS A 131

$$$$
ligand_23_pose_3_2HRL.pdbqt
 OpenBabel07062320523D

  6  5  0  0  0  0  0  0  0  0999 V2000
   33.1930   34.6630    9.2900 C   0  0  0  0  0  0  0  0  0  0  0  0
   32.0600   35.3600   10.0340 C   0  0  0  0  0  0  0  0  0  0  0  0
   30.8030   35.5090    9.2160 C   0  0  0  0  0  0  0  0  0  0  0  0
   30.1170   34.1630    9.0360 C   0  0  0  0  0  0  0  0  0  0  0  0
   28.6600   34.3540    8.6610 C   0  0  0  0  0  0  0  0  0  0  0  0
   27.7630   33.6530    9.6210 N   0  0  0  0  0  0  0  0  0  0  0  0
  1  2  1  0  0  0  0
  3  2  1  0  0  0  0
  4  3  1  0  0  0  0
  5  4  1  0  0  0  0
  5  6  1  0  0  0  0
M  END
>  <EGIN_R>
ES LYS A 135

>  <REMARK>
  4 active torsions:
  status: ('A' for Active; 'I' for Inactive)
    5  A    between atoms: CA   and  CB  
    6  A    between atoms: CB   and  CG  
    7  A    between atoms: CG   and  CD  
    8  A    between atoms: CD   and  CE  

$$$$
