ligand_50_pose_17_2HRL.pdbqt
 OpenBabel07062320523D

 50 50  0  0  1  0  0  0  0  0999 V2000
   27.9220   28.9540   17.6120 N   0  0  0  0  0  0  0  0  0  0  0  0
   27.5530   29.7200   16.4780 C   0  0  0  0  0  0  0  0  0  0  0  0
   26.3940   29.6930   16.0300 O   0  0  0  0  0  0  0  0  0  0  0  0
   28.9380   29.0440   17.9160 H   0  0  0  0  0  0  0  0  0  0  0  0
   26.9880   28.1220   18.2890 C   0  0  0  0  0  0  0  0  0  0  0  0
   27.3820   27.7980   19.7130 C   0  0  2  0  0  0  0  0  0  0  0  0
   28.7700   28.3940   19.9200 C   0  0  1  0  0  0  0  0  0  0  0  0
   28.7560   29.3640   21.1070 C   0  0  2  0  0  0  0  0  0  0  0  0
   30.0850   31.2510   20.8510 C   0  0  2  0  0  0  0  0  0  0  0  0
   30.1610   31.4480   22.3530 C   0  0  0  0  0  0  0  0  0  0  0  0
   28.8910   30.6230   20.5940 O   0  0  0  0  0  0  0  0  0  0  0  0
   30.2710   30.0990   22.9750 C   0  0  1  0  0  0  0  0  0  0  0  0
   29.7910   28.9630   22.1090 C   0  0  1  0  0  0  0  0  0  0  0  0
   31.2020   30.5010   20.4880 O   0  0  0  0  0  0  0  0  0  0  0  0
   30.9780   29.7500   19.8940 H   0  0  0  0  0  0  0  0  0  0  0  0
   30.1020   32.5520   20.1340 C   0  0  0  0  0  0  0  0  0  0  0  0
   29.1890   33.3820   20.3720 O   0  0  0  0  0  0  0  0  0  0  0  0
   31.1020   32.8270   19.2320 O   0  0  0  0  0  0  0  0  0  0  0  0
   31.2880   33.7810   18.9390 H   0  0  0  0  0  0  0  0  0  0  0  0
   31.6230   29.8640   23.2530 O   0  0  0  0  0  0  0  0  0  0  0  0
   31.8110   30.1040   24.1790 H   0  0  0  0  0  0  0  0  0  0  0  0
   29.2650   27.9590   23.0090 N   0  0  0  0  0  0  0  0  0  0  0  0
   30.0490   26.8140   23.3070 C   0  0  0  0  0  0  0  0  0  0  0  0
   28.3220   28.0370   23.4550 H   0  0  0  0  0  0  0  0  0  0  0  0
   29.5530   25.7380   24.2340 C   0  0  0  0  0  0  0  0  0  0  0  0
   31.1940   26.6240   22.8240 O   0  0  0  0  0  0  0  0  0  0  0  0
   29.6820   27.3790   20.0770 O   0  0  0  0  0  0  0  0  0  0  0  0
   29.7960   27.1320   21.0370 H   0  0  0  0  0  0  0  0  0  0  0  0
   27.3960   26.4180   19.9150 O   0  0  0  0  0  0  0  0  0  0  0  0
   27.9580   26.2440   20.6940 H   0  0  0  0  0  0  0  0  0  0  0  0
   28.4880   30.5380   15.8230 O   0  0  0  0  0  0  0  0  0  0  0  0
   29.5450   31.0650   16.5710 C   0  0  0  0  0  0  0  0  0  0  0  0
   30.2660   32.1350   15.8370 C   0  0  0  0  0  0  0  0  0  0  0  0
   29.8240   32.8240   14.7460 C   0  0  0  0  0  0  0  0  0  0  0  0
   31.4820   32.6100   16.1210 N   0  0  0  0  0  0  0  0  0  0  0  0
   30.8060   33.7020   14.4100 N   0  0  0  0  0  0  0  0  0  0  0  0
   31.8140   33.5590   15.2600 N   0  0  0  0  0  0  0  0  0  0  0  0
   30.7380   34.6390   13.2910 C   0  0  0  0  0  0  0  0  0  0  0  0
   31.9980   35.4780   13.3660 C   0  0  1  0  0  0  0  0  0  0  0  0
   32.9700   34.9240   12.5420 O   0  0  0  0  0  0  0  0  0  0  0  0
   32.5810   34.8300   11.6310 H   0  0  0  0  0  0  0  0  0  0  0  0
   31.7010   36.9140   12.9190 C   0  0  0  0  0  0  0  0  0  0  0  0
   30.6030   37.4000   13.6310 O   0  0  0  0  0  0  0  0  0  0  0  0
   30.9270   38.0150   14.3550 H   0  0  0  0  0  0  0  0  0  0  0  0
   29.8670   25.5550   16.9770 C   0  0  0  0  0  0  0  0  0  0  0  0
   28.3450   25.7220   17.0260 C   0  0  0  0  0  0  0  0  0  0  0  0
   27.6010   24.4020   16.8910 C   0  0  0  0  0  0  0  0  0  0  0  0
   26.1500   24.5290   17.2630 C   0  0  0  0  0  0  0  0  0  0  0  0
   25.6420   23.1940   17.7960 C   0  0  0  0  0  0  0  0  0  0  0  0
   25.5080   23.2410   19.2710 N   0  0  0  0  0  0  0  0  0  0  0  0
  1  4  1  0  0  0  0
  1  5  1  0  0  0  0
  2  1  1  0  0  0  0
  3  2  2  0  0  0  0
  6  5  1  6  0  0  0
  6 29  1  0  0  0  0
  6  7  1  0  0  0  0
  7 27  1  1  0  0  0
  8  7  1  6  0  0  0
  8 13  1  0  0  0  0
  9 16  1  6  0  0  0
  9 10  1  0  0  0  0
 10 12  1  0  0  0  0
 11  9  1  0  0  0  0
 11  8  1  0  0  0  0
 12 20  1  6  0  0  0
 13 12  1  0  0  0  0
 13 22  1  1  0  0  0
 14  9  1  0  0  0  0
 15 14  1  0  0  0  0
 16 17  2  0  0  0  0
 18 16  1  0  0  0  0
 19 18  1  0  0  0  0
 20 21  1  0  0  0  0
 22 23  1  0  0  0  0
 22 24  1  0  0  0  0
 23 25  1  0  0  0  0
 26 23  2  0  0  0  0
 27 28  1  0  0  0  0
 29 30  1  0  0  0  0
 31  2  1  0  0  0  0
 31 32  1  0  0  0  0
 33 35  1  0  0  0  0
 33 32  1  0  0  0  0
 34 33  2  0  0  0  0
 36 34  1  0  0  0  0
 36 37  1  0  0  0  0
 37 35  2  0  0  0  0
 38 39  1  0  0  0  0
 38 36  1  0  0  0  0
 39 42  1  6  0  0  0
 40 39  1  0  0  0  0
 41 40  1  0  0  0  0
 42 43  1  0  0  0  0
 43 44  1  0  0  0  0
 45 46  1  0  0  0  0
 47 46  1  0  0  0  0
 47 48  1  0  0  0  0
 48 49  1  0  0  0  0
 49 50  1  0  0  0  0
M  END
>  <REMARK>
 VINA RESULT:    -4.449      1.712      2.153
 INTER + INTRA:         -13.958
 INTER:                  -8.481
 INTRA:                  -5.477
 UNBOUND:                -5.477
 SMILES CC(=O)N[C@@H]1[C@@H](O)C[C@](O)(C(=O)O)O[C@H]1C(O)[C@H](O)CNC(=O)OCc1cn(CC(O)CO)nn1
 SMILES IDX 21 1 22 2 23 3 20 5 18 6 16 7 15 8 9 9 8 10 14 11 6 12 5 13
 SMILES IDX 10 14 11 16 12 17 13 18 7 20 4 22 2 23 1 25 3 26 17 27 19 29
 SMILES IDX 24 31 25 32 26 33 27 34 35 35 28 36 34 37 29 38 30 39 31 40
 SMILES IDX 32 42 33 43
 H PARENT 21 4 10 15 13 19 7 21 4 24 17 28 19 30 31 41 33 44
 Flexibility Score: inf
  4 active torsions:
  status: ('A' for Active; 'I' for Inactive)
    1  A    between atoms: CA   and  CB  
    2  A    between atoms: CB   and  CG  
    3  A    between atoms: CG   and  CD  
    4  A    between atoms: CD   and  CE  

>  <TORSDO>
F 19

>  <BEGIN_>
RES LYS A 131

$$$$
ligand_50_pose_17_2HRL.pdbqt
 OpenBabel07062320523D

  6  5  0  0  0  0  0  0  0  0999 V2000
   33.1930   34.6630    9.2900 C   0  0  0  0  0  0  0  0  0  0  0  0
   32.0600   35.3600   10.0340 C   0  0  0  0  0  0  0  0  0  0  0  0
   30.7820   35.4460    9.2410 C   0  0  0  0  0  0  0  0  0  0  0  0
   30.2350   34.0570    8.9520 C   0  0  0  0  0  0  0  0  0  0  0  0
   28.7680   33.9730    9.3290 C   0  0  0  0  0  0  0  0  0  0  0  0
   28.4340   34.9490   10.4040 N   0  0  0  0  0  0  0  0  0  0  0  0
  1  2  1  0  0  0  0
  3  2  1  0  0  0  0
  4  3  1  0  0  0  0
  4  5  1  0  0  0  0
  5  6  1  0  0  0  0
M  END
>  <EGIN_R>
ES LYS A 135

>  <REMARK>
  4 active torsions:
  status: ('A' for Active; 'I' for Inactive)
    5  A    between atoms: CA   and  CB  
    6  A    between atoms: CB   and  CG  
    7  A    between atoms: CG   and  CD  
    8  A    between atoms: CD   and  CE  

$$$$
