ligand_40_pose_12_2HRL.pdbqt
 OpenBabel07062320523D

 50 51  0  0  1  0  0  0  0  0999 V2000
   26.2450   27.3840   19.4730 C   0  0  0  0  0  0  0  0  0  0  0  0
   27.6090   27.5980   19.9860 C   0  0  2  0  0  0  0  0  0  0  0  0
   28.1990   28.9710   19.9620 C   0  0  2  0  0  0  0  0  0  0  0  0
   28.8940   29.4290   21.2040 C   0  0  2  0  0  0  0  0  0  0  0  0
   30.6670   30.6790   20.3180 C   0  0  2  0  0  0  0  0  0  0  0  0
   31.7240   29.8370   21.0090 C   0  0  0  0  0  0  0  0  0  0  0  0
   29.4630   30.6860   20.9480 O   0  0  0  0  0  0  0  0  0  0  0  0
   31.1500   28.4570   21.2880 C   0  0  1  0  0  0  0  0  0  0  0  0
   29.8030   28.5260   21.9310 C   0  0  1  0  0  0  0  0  0  0  0  0
   30.6400   30.2830   19.0020 O   0  0  0  0  0  0  0  0  0  0  0  0
   31.1520   29.4560   18.8100 H   0  0  0  0  0  0  0  0  0  0  0  0
   31.1910   32.0800   20.3680 C   0  0  0  0  0  0  0  0  0  0  0  0
   31.6840   32.5740   21.4250 O   0  0  0  0  0  0  0  0  0  0  0  0
   31.1430   32.8760   19.2420 O   0  0  0  0  0  0  0  0  0  0  0  0
   30.4310   32.6920   18.5310 H   0  0  0  0  0  0  0  0  0  0  0  0
   30.9890   27.8890   20.0230 O   0  0  0  0  0  0  0  0  0  0  0  0
   30.6120   26.9740   20.0770 H   0  0  0  0  0  0  0  0  0  0  0  0
   29.8350   28.9840   23.3070 N   0  0  0  0  0  0  0  0  0  0  0  0
   29.7340   28.1230   24.4130 C   0  0  0  0  0  0  0  0  0  0  0  0
   29.9410   30.0120   23.4330 H   0  0  0  0  0  0  0  0  0  0  0  0
   29.7630   28.5580   25.8220 C   0  0  0  0  0  0  0  0  0  0  0  0
   29.6110   26.9110   24.1530 O   0  0  0  0  0  0  0  0  0  0  0  0
   27.0190   29.8500   19.9950 O   0  0  0  0  0  0  0  0  0  0  0  0
   26.9830   30.2990   19.1090 H   0  0  0  0  0  0  0  0  0  0  0  0
   28.4870   26.6030   19.5820 O   0  0  0  0  0  0  0  0  0  0  0  0
   28.0990   26.0460   18.8390 H   0  0  0  0  0  0  0  0  0  0  0  0
   26.0630   27.6980   18.0540 N   0  0  0  0  0  0  0  0  0  0  0  0
   25.1340   28.6690   17.6190 C   0  0  0  0  0  0  0  0  0  0  0  0
   26.6090   27.2080   17.2970 H   0  0  0  0  0  0  0  0  0  0  0  0
   24.4480   29.2780   18.4470 O   0  0  0  0  0  0  0  0  0  0  0  0
   24.9440   28.9850   16.2730 O   0  0  0  0  0  0  0  0  0  0  0  0
   25.3650   30.2400   15.7920 C   0  0  0  0  0  0  0  0  0  0  0  0
   26.8070   30.4600   15.9360 C   0  0  0  0  0  0  0  0  0  0  0  0
   27.4080   31.6960   15.8220 C   0  0  0  0  0  0  0  0  0  0  0  0
   27.8180   29.6050   16.1900 N   0  0  0  0  0  0  0  0  0  0  0  0
   28.7400   31.5760   16.0030 N   0  0  0  0  0  0  0  0  0  0  0  0
   28.9520   30.2960   16.2230 N   0  0  0  0  0  0  0  0  0  0  0  0
   29.7490   32.5850   15.9730 C   0  0  0  0  0  0  0  0  0  0  0  0
   29.4740   33.8770   16.3720 C   0  0  0  0  0  0  0  0  0  0  0  0
   31.0340   32.3230   15.5460 C   0  0  0  0  0  0  0  0  0  0  0  0
   30.4400   34.8640   16.3480 C   0  0  0  0  0  0  0  0  0  0  0  0
   32.0030   33.3040   15.5190 C   0  0  0  0  0  0  0  0  0  0  0  0
   31.7230   34.5920   15.9200 C   0  0  0  0  0  0  0  0  0  0  0  0
   32.7950   35.6210   15.8750 C   0  0  0  0  0  0  0  0  0  0  0  0
   29.8670   25.5550   16.9770 C   0  0  0  0  0  0  0  0  0  0  0  0
   28.3450   25.7220   17.0260 C   0  0  0  0  0  0  0  0  0  0  0  0
   27.5990   24.4200   16.7790 C   0  0  0  0  0  0  0  0  0  0  0  0
   26.8900   23.9300   18.0100 C   0  0  0  0  0  0  0  0  0  0  0  0
   25.5570   23.3030   17.6150 C   0  0  0  0  0  0  0  0  0  0  0  0
   24.4730   23.7840   18.5030 N   0  0  0  0  0  0  0  0  0  0  0  0
  2  1  1  6  0  0  0
  3  2  1  0  0  0  0
  3 23  1  1  0  0  0
  4  3  1  6  0  0  0
  4  9  1  0  0  0  0
  5 10  1  6  0  0  0
  5 12  1  0  0  0  0
  5  7  1  0  0  0  0
  5  6  1  0  0  0  0
  6  8  1  0  0  0  0
  7  4  1  0  0  0  0
  8 16  1  6  0  0  0
  8  9  1  0  0  0  0
  9 18  1  1  0  0  0
 11 10  1  0  0  0  0
 12 13  2  0  0  0  0
 14 12  1  0  0  0  0
 15 14  1  0  0  0  0
 16 17  1  0  0  0  0
 18 20  1  0  0  0  0
 18 19  1  0  0  0  0
 19 21  1  0  0  0  0
 22 19  2  0  0  0  0
 24 23  1  0  0  0  0
 25  2  1  0  0  0  0
 26 25  1  0  0  0  0
 27  1  1  0  0  0  0
 28 27  1  0  0  0  0
 28 30  2  0  0  0  0
 29 27  1  0  0  0  0
 31 28  1  0  0  0  0
 32 33  1  0  0  0  0
 32 31  1  0  0  0  0
 33 35  1  0  0  0  0
 34 33  2  0  0  0  0
 34 36  1  0  0  0  0
 35 37  2  0  0  0  0
 36 37  1  0  0  0  0
 38 36  1  0  0  0  0
 38 39  2  0  0  0  0
 40 38  1  0  0  0  0
 41 39  1  0  0  0  0
 42 40  2  0  0  0  0
 42 43  1  0  0  0  0
 43 41  2  0  0  0  0
 44 43  1  0  0  0  0
 45 46  1  0  0  0  0
 47 46  1  0  0  0  0
 47 48  1  0  0  0  0
 49 48  1  0  0  0  0
 49 50  1  0  0  0  0
M  END
>  <REMARK>
 VINA RESULT:    -5.166      3.439      6.739
 INTER + INTRA:         -13.954
 INTER:                  -8.787
 INTRA:                  -5.167
 UNBOUND:                -5.012
 SMILES CC(=O)N[C@@H]1[C@@H](O)C[C@](O)(C(=O)O)O[C@H]1C(O)[C@H](O)CNC(=O)OCc1cn(-c2ccc(C)cc2)nn1
 SMILES IDX 20 1 18 2 16 3 15 4 9 5 8 6 14 7 6 8 5 9 10 10 11 12 12 13
 SMILES IDX 13 14 7 16 4 18 2 19 1 21 3 22 17 23 19 25 21 27 22 28 23 30
 SMILES IDX 24 31 25 32 26 33 27 34 37 35 28 36 36 37 29 38 30 39 35 40
 SMILES IDX 31 41 34 42 32 43 33 44
 H PARENT 10 11 13 15 7 17 4 20 17 24 19 26 21 29
 Flexibility Score: inf
  4 active torsions:
  status: ('A' for Active; 'I' for Inactive)
    1  A    between atoms: CA   and  CB  
    2  A    between atoms: CB   and  CG  
    3  A    between atoms: CG   and  CD  
    4  A    between atoms: CD   and  CE  

>  <TORSDO>
F 15

>  <BEGIN_>
RES LYS A 131

$$$$
ligand_40_pose_12_2HRL.pdbqt
 OpenBabel07062320523D

  6  5  0  0  0  0  0  0  0  0999 V2000
   33.1930   34.6630    9.2900 C   0  0  0  0  0  0  0  0  0  0  0  0
   32.0600   35.3600   10.0340 C   0  0  0  0  0  0  0  0  0  0  0  0
   30.7180   35.2110    9.3640 C   0  0  0  0  0  0  0  0  0  0  0  0
   29.6470   34.8510   10.3820 C   0  0  0  0  0  0  0  0  0  0  0  0
   30.0700   35.2810   11.7740 C   0  0  0  0  0  0  0  0  0  0  0  0
   29.4070   34.4490   12.8170 N   0  0  0  0  0  0  0  0  0  0  0  0
  1  2  1  0  0  0  0
  3  2  1  0  0  0  0
  3  4  1  0  0  0  0
  4  5  1  0  0  0  0
  5  6  1  0  0  0  0
M  END
>  <EGIN_R>
ES LYS A 135

>  <REMARK>
  4 active torsions:
  status: ('A' for Active; 'I' for Inactive)
    5  A    between atoms: CA   and  CB  
    6  A    between atoms: CB   and  CG  
    7  A    between atoms: CG   and  CD  
    8  A    between atoms: CD   and  CE  

$$$$
