ligand_75_pose_10_2HRL.pdbqt
 OpenBabel07062320523D

 55 56  0  0  1  0  0  0  0  0999 V2000
   29.0500   37.8680   15.9170 N   0  0  0  0  0  0  0  0  0  0  0  0
   29.8430   38.4250   14.8870 C   0  0  0  0  0  0  0  0  0  0  0  0
   29.5010   38.4070   13.6870 O   0  0  0  0  0  0  0  0  0  0  0  0
   29.4620   37.9390   16.9100 H   0  0  0  0  0  0  0  0  0  0  0  0
   27.7730   37.2340   15.7550 C   0  0  0  0  0  0  0  0  0  0  0  0
   27.6990   35.9630   16.5380 C   0  0  2  0  0  0  0  0  0  0  0  0
   29.0390   35.4850   17.0660 C   0  0  2  0  0  0  0  0  0  0  0  0
   29.2380   34.0410   16.7860 C   0  0  2  0  0  0  0  0  0  0  0  0
   29.4570   31.8690   17.5390 C   0  0  2  0  0  0  0  0  0  0  0  0
   29.4600   31.5790   16.0640 C   0  0  0  0  0  0  0  0  0  0  0  0
   29.1640   33.1850   17.8390 O   0  0  0  0  0  0  0  0  0  0  0  0
   30.2860   32.4920   15.2360 C   0  0  1  0  0  0  0  0  0  0  0  0
   30.5110   33.7850   15.9810 C   0  0  1  0  0  0  0  0  0  0  0  0
   30.6620   31.4400   18.0960 O   0  0  0  0  0  0  0  0  0  0  0  0
   30.9930   30.6130   17.6850 H   0  0  0  0  0  0  0  0  0  0  0  0
   28.3810   31.0370   18.1460 C   0  0  0  0  0  0  0  0  0  0  0  0
   27.4410   31.6090   18.7960 O   0  0  0  0  0  0  0  0  0  0  0  0
   28.3590   29.6540   18.0320 O   0  0  0  0  0  0  0  0  0  0  0  0
   28.1940   29.0460   18.8090 H   0  0  0  0  0  0  0  0  0  0  0  0
   31.4830   31.9270   14.8090 O   0  0  0  0  0  0  0  0  0  0  0  0
   31.5780   31.0360   15.1830 H   0  0  0  0  0  0  0  0  0  0  0  0
   30.8480   34.8740   15.1180 N   0  0  0  0  0  0  0  0  0  0  0  0
   32.1420   35.0320   14.5550 C   0  0  0  0  0  0  0  0  0  0  0  0
   30.1330   35.6170   14.8600 H   0  0  0  0  0  0  0  0  0  0  0  0
   32.4430   36.1720   13.6690 C   0  0  0  0  0  0  0  0  0  0  0  0
   33.0540   34.2040   14.8020 O   0  0  0  0  0  0  0  0  0  0  0  0
   29.2480   35.8610   18.3890 O   0  0  0  0  0  0  0  0  0  0  0  0
   29.7080   36.7280   18.3870 H   0  0  0  0  0  0  0  0  0  0  0  0
   27.1210   34.9290   15.7980 O   0  0  0  0  0  0  0  0  0  0  0  0
   27.7370   34.1460   15.8170 H   0  0  0  0  0  0  0  0  0  0  0  0
   31.0810   39.0360   15.1770 O   0  0  0  0  0  0  0  0  0  0  0  0
   31.4920   39.1300   16.5040 C   0  0  0  0  0  0  0  0  0  0  0  0
   32.3490   37.9950   16.9250 C   0  0  0  0  0  0  0  0  0  0  0  0
   33.7130   37.8410   16.8680 C   0  0  0  0  0  0  0  0  0  0  0  0
   31.8880   36.8550   17.4670 N   0  0  0  0  0  0  0  0  0  0  0  0
   34.0550   36.6280   17.3690 N   0  0  0  0  0  0  0  0  0  0  0  0
   32.9210   36.0520   17.7250 N   0  0  0  0  0  0  0  0  0  0  0  0
   35.3870   36.1230   17.4700 C   0  0  0  0  0  0  0  0  0  0  0  0
   36.1630   35.9370   16.3560 C   0  0  0  0  0  0  0  0  0  0  0  0
   35.9180   35.8090   18.7000 C   0  0  0  0  0  0  0  0  0  0  0  0
   37.4900   35.4340   16.4460 C   0  0  0  0  0  0  0  0  0  0  0  0
   37.1820   35.3230   18.8540 C   0  0  0  0  0  0  0  0  0  0  0  0
   37.9610   35.1410   17.6980 C   0  0  0  0  0  0  0  0  0  0  0  0
   38.2590   35.3040   15.2580 C   0  0  0  0  0  0  0  0  0  0  0  0
   38.2840   34.5950   14.1970 C   0  0  0  0  0  0  0  0  0  0  0  0
   37.5150   33.5440   13.6590 C   0  0  0  0  0  0  0  0  0  0  0  0
   36.3030   33.8370   13.1920 O   0  0  0  0  0  0  0  0  0  0  0  0
   37.7620   32.2030   13.5090 O   0  0  0  0  0  0  0  0  0  0  0  0
   38.6340   31.7650   13.7600 H   0  0  0  0  0  0  0  0  0  0  0  0
   29.8670   25.5550   16.9770 C   0  0  0  0  0  0  0  0  0  0  0  0
   28.3450   25.7220   17.0260 C   0  0  0  0  0  0  0  0  0  0  0  0
   27.6010   24.4020   16.8910 C   0  0  0  0  0  0  0  0  0  0  0  0
   26.1600   24.5190   17.3050 C   0  0  0  0  0  0  0  0  0  0  0  0
   25.7980   23.3560   18.2230 C   0  0  0  0  0  0  0  0  0  0  0  0
   24.8000   22.4740   17.5730 N   0  0  0  0  0  0  0  0  0  0  0  0
  1  4  1  0  0  0  0
  2 31  1  0  0  0  0
  2  1  1  0  0  0  0
  3  2  2  0  0  0  0
  5  1  1  0  0  0  0
  6  5  1  6  0  0  0
  6  7  1  0  0  0  0
  7 27  1  1  0  0  0
  8  7  1  1  0  0  0
  8 11  1  0  0  0  0
  9 11  1  0  0  0  0
  9 14  1  1  0  0  0
  9 16  1  0  0  0  0
 10  9  1  0  0  0  0
 12 20  1  1  0  0  0
 12 13  1  0  0  0  0
 12 10  1  0  0  0  0
 13 22  1  6  0  0  0
 13  8  1  0  0  0  0
 15 14  1  0  0  0  0
 16 17  2  0  0  0  0
 18 16  1  0  0  0  0
 18 19  1  0  0  0  0
 20 21  1  0  0  0  0
 23 26  2  0  0  0  0
 23 22  1  0  0  0  0
 24 22  1  0  0  0  0
 25 23  1  0  0  0  0
 28 27  1  0  0  0  0
 29 30  1  0  0  0  0
 29  6  1  0  0  0  0
 31 32  1  0  0  0  0
 32 33  1  0  0  0  0
 33 35  1  0  0  0  0
 34 33  2  0  0  0  0
 34 36  1  0  0  0  0
 35 37  2  0  0  0  0
 36 38  1  0  0  0  0
 36 37  1  0  0  0  0
 38 40  2  0  0  0  0
 39 41  2  0  0  0  0
 39 38  1  0  0  0  0
 40 42  1  0  0  0  0
 41 43  1  0  0  0  0
 43 42  2  0  0  0  0
 44 41  1  0  0  0  0
 45 44  2  0  0  0  0
 46 45  1  0  0  0  0
 47 46  2  0  0  0  0
 48 46  1  0  0  0  0
 48 49  1  0  0  0  0
 50 51  1  0  0  0  0
 52 51  1  0  0  0  0
 52 53  1  0  0  0  0
 53 54  1  0  0  0  0
 55 54  1  0  0  0  0
M  END
>  <REMARK>
 VINA RESULT:    -5.001      7.173     11.097
 INTER + INTRA:         -15.704
 INTER:                  -9.047
 INTRA:                  -6.658
 UNBOUND:                -6.317
 SMILES CC(=O)N[C@@H]1[C@@H](O)C[C@](O)(C(=O)O)O[C@H]1C(O)[C@H](O)CNC(=O)OCc1cn(-c2cccc(C=CC(=O)O)c2)nn1
 SMILES IDX 21 1 22 2 23 3 20 5 18 6 16 7 15 8 9 9 8 10 14 11 6 12 5 13
 SMILES IDX 10 14 11 16 12 17 13 18 7 20 4 22 2 23 1 25 3 26 17 27 19 29
 SMILES IDX 24 31 25 32 26 33 27 34 41 35 28 36 40 37 29 38 39 39 30 40
 SMILES IDX 33 41 31 42 32 43 34 44 35 45 36 46 37 47 38 48
 H PARENT 21 4 10 15 13 19 7 21 4 24 17 28 19 30 38 49
 Flexibility Score: inf
  4 active torsions:
  status: ('A' for Active; 'I' for Inactive)
    1  A    between atoms: CA   and  CB  
    2  A    between atoms: CB   and  CG  
    3  A    between atoms: CG   and  CD  
    4  A    between atoms: CD   and  CE  

>  <TORSDO>
F 18

>  <BEGIN_>
RES LYS A 131

$$$$
ligand_75_pose_10_2HRL.pdbqt
 OpenBabel07062320523D

  6  5  0  0  0  0  0  0  0  0999 V2000
   33.1930   34.6630    9.2900 C   0  0  0  0  0  0  0  0  0  0  0  0
   32.0600   35.3600   10.0340 C   0  0  0  0  0  0  0  0  0  0  0  0
   30.7050   34.7540    9.7720 C   0  0  0  0  0  0  0  0  0  0  0  0
   30.5550   34.3890    8.3040 C   0  0  0  0  0  0  0  0  0  0  0  0
   29.4040   35.1530    7.6800 C   0  0  0  0  0  0  0  0  0  0  0  0
   28.0930   34.6520    8.1790 N   0  0  0  0  0  0  0  0  0  0  0  0
  1  2  1  0  0  0  0
  3  2  1  0  0  0  0
  4  3  1  0  0  0  0
  5  6  1  0  0  0  0
  5  4  1  0  0  0  0
M  END
>  <EGIN_R>
ES LYS A 135

>  <REMARK>
  4 active torsions:
  status: ('A' for Active; 'I' for Inactive)
    5  A    between atoms: CA   and  CB  
    6  A    between atoms: CB   and  CG  
    7  A    between atoms: CG   and  CD  
    8  A    between atoms: CD   and  CE  

$$$$
