ligand_50_pose_8_2HRL.pdbqt
 OpenBabel07062320523D

 50 50  0  0  1  0  0  0  0  0999 V2000
   28.4520   31.8050   16.5400 N   0  0  0  0  0  0  0  0  0  0  0  0
   28.3620   30.3920   16.4780 C   0  0  0  0  0  0  0  0  0  0  0  0
   28.7160   29.7660   15.4640 O   0  0  0  0  0  0  0  0  0  0  0  0
   28.1220   32.2470   17.4510 H   0  0  0  0  0  0  0  0  0  0  0  0
   28.9520   32.5710   15.4500 C   0  0  0  0  0  0  0  0  0  0  0  0
   30.4360   32.8510   15.5340 C   0  0  2  0  0  0  0  0  0  0  0  0
   30.6810   34.1160   14.7200 C   0  0  1  0  0  0  0  0  0  0  0  0
   32.0300   34.7360   15.1020 C   0  0  2  0  0  0  0  0  0  0  0  0
   32.2230   35.3800   17.3250 C   0  0  2  0  0  0  0  0  0  0  0  0
   33.3320   36.3570   16.9850 C   0  0  0  0  0  0  0  0  0  0  0  0
   32.2850   34.3730   16.3940 O   0  0  0  0  0  0  0  0  0  0  0  0
   32.9870   36.9890   15.6820 C   0  0  1  0  0  0  0  0  0  0  0  0
   32.0100   36.2090   14.8410 C   0  0  1  0  0  0  0  0  0  0  0  0
   31.0310   36.1000   17.2930 O   0  0  0  0  0  0  0  0  0  0  0  0
   31.1330   36.9840   16.8720 H   0  0  0  0  0  0  0  0  0  0  0  0
   32.4150   34.7920   18.6760 C   0  0  0  0  0  0  0  0  0  0  0  0
   33.3290   35.2510   19.4070 O   0  0  0  0  0  0  0  0  0  0  0  0
   31.6040   33.7670   19.1020 O   0  0  0  0  0  0  0  0  0  0  0  0
   30.6520   33.6840   18.7600 H   0  0  0  0  0  0  0  0  0  0  0  0
   32.4010   38.2320   15.9500 O   0  0  0  0  0  0  0  0  0  0  0  0
   33.0990   38.8900   16.1230 H   0  0  0  0  0  0  0  0  0  0  0  0
   32.3480   36.4850   13.4610 N   0  0  0  0  0  0  0  0  0  0  0  0
   31.6070   37.4610   12.7460 C   0  0  0  0  0  0  0  0  0  0  0  0
   33.1220   35.9930   12.9590 H   0  0  0  0  0  0  0  0  0  0  0  0
   31.9130   37.7890   11.3100 C   0  0  0  0  0  0  0  0  0  0  0  0
   30.6580   38.1090   13.2560 O   0  0  0  0  0  0  0  0  0  0  0  0
   30.5950   33.8200   13.3810 O   0  0  0  0  0  0  0  0  0  0  0  0
   30.8190   34.6100   12.8150 H   0  0  0  0  0  0  0  0  0  0  0  0
   31.1660   31.7780   15.0210 O   0  0  0  0  0  0  0  0  0  0  0  0
   31.7940   31.4970   15.7130 H   0  0  0  0  0  0  0  0  0  0  0  0
   27.8680   29.6510   17.5640 O   0  0  0  0  0  0  0  0  0  0  0  0
   27.6850   30.3080   18.7840 C   0  0  0  0  0  0  0  0  0  0  0  0
   28.9400   30.3740   19.5750 C   0  0  0  0  0  0  0  0  0  0  0  0
   29.2490   29.6470   20.6870 C   0  0  0  0  0  0  0  0  0  0  0  0
   29.9900   31.1640   19.3310 N   0  0  0  0  0  0  0  0  0  0  0  0
   30.4940   30.0330   21.0760 N   0  0  0  0  0  0  0  0  0  0  0  0
   30.9330   30.9610   20.2370 N   0  0  0  0  0  0  0  0  0  0  0  0
   31.2080   29.4960   22.2330 C   0  0  0  0  0  0  0  0  0  0  0  0
   31.8980   28.2340   21.7540 C   0  0  1  0  0  0  0  0  0  0  0  0
   32.6240   28.5150   20.6030 O   0  0  0  0  0  0  0  0  0  0  0  0
   32.1850   28.0470   19.8430 H   0  0  0  0  0  0  0  0  0  0  0  0
   32.8400   27.7060   22.8400 C   0  0  0  0  0  0  0  0  0  0  0  0
   34.1100   28.2560   22.6560 O   0  0  0  0  0  0  0  0  0  0  0  0
   34.0600   29.2500   22.7850 H   0  0  0  0  0  0  0  0  0  0  0  0
   29.8670   25.5550   16.9770 C   0  0  0  0  0  0  0  0  0  0  0  0
   28.3450   25.7220   17.0260 C   0  0  0  0  0  0  0  0  0  0  0  0
   27.6000   24.4080   16.8440 C   0  0  0  0  0  0  0  0  0  0  0  0
   26.4920   24.2420   17.8460 C   0  0  0  0  0  0  0  0  0  0  0  0
   25.1540   24.5480   17.1810 C   0  0  0  0  0  0  0  0  0  0  0  0
   24.3360   23.3170   17.0690 N   0  0  0  0  0  0  0  0  0  0  0  0
  1  4  1  0  0  0  0
  2  1  1  0  0  0  0
  2 31  1  0  0  0  0
  3  2  2  0  0  0  0
  5  1  1  0  0  0  0
  6  5  1  6  0  0  0
  7 27  1  6  0  0  0
  7  6  1  0  0  0  0
  8  7  1  1  0  0  0
  8 11  1  0  0  0  0
  9 14  1  6  0  0  0
  9 16  1  0  0  0  0
 10  9  1  0  0  0  0
 11  9  1  0  0  0  0
 12 20  1  1  0  0  0
 12 10  1  0  0  0  0
 13 22  1  6  0  0  0
 13  8  1  0  0  0  0
 13 12  1  0  0  0  0
 15 14  1  0  0  0  0
 16 18  1  0  0  0  0
 16 17  2  0  0  0  0
 19 18  1  0  0  0  0
 20 21  1  0  0  0  0
 23 26  2  0  0  0  0
 23 22  1  0  0  0  0
 24 22  1  0  0  0  0
 25 23  1  0  0  0  0
 28 27  1  0  0  0  0
 29  6  1  0  0  0  0
 29 30  1  0  0  0  0
 31 32  1  0  0  0  0
 32 33  1  0  0  0  0
 33 34  2  0  0  0  0
 34 36  1  0  0  0  0
 35 33  1  0  0  0  0
 35 37  2  0  0  0  0
 36 38  1  0  0  0  0
 37 36  1  0  0  0  0
 39 38  1  1  0  0  0
 39 42  1  0  0  0  0
 40 39  1  0  0  0  0
 41 40  1  0  0  0  0
 43 44  1  0  0  0  0
 43 42  1  0  0  0  0
 45 46  1  0  0  0  0
 47 46  1  0  0  0  0
 47 48  1  0  0  0  0
 49 48  1  0  0  0  0
 50 49  1  0  0  0  0
M  END
>  <REMARK>
 VINA RESULT:    -4.711      2.259      7.112
 INTER + INTRA:         -14.456
 INTER:                  -8.492
 INTRA:                  -5.964
 UNBOUND:                -5.477
 SMILES CC(=O)N[C@@H]1[C@@H](O)C[C@](O)(C(=O)O)O[C@H]1C(O)[C@H](O)CNC(=O)OCc1cn(CC(O)CO)nn1
 SMILES IDX 21 1 22 2 23 3 20 5 18 6 16 7 15 8 9 9 8 10 14 11 6 12 5 13
 SMILES IDX 10 14 11 16 12 17 13 18 7 20 4 22 2 23 1 25 3 26 17 27 19 29
 SMILES IDX 24 31 25 32 26 33 27 34 35 35 28 36 34 37 29 38 30 39 31 40
 SMILES IDX 32 42 33 43
 H PARENT 21 4 10 15 13 19 7 21 4 24 17 28 19 30 31 41 33 44
 Flexibility Score: inf
  4 active torsions:
  status: ('A' for Active; 'I' for Inactive)
    1  A    between atoms: CA   and  CB  
    2  A    between atoms: CB   and  CG  
    3  A    between atoms: CG   and  CD  
    4  A    between atoms: CD   and  CE  

>  <TORSDO>
F 19

>  <BEGIN_>
RES LYS A 131

$$$$
ligand_50_pose_8_2HRL.pdbqt
 OpenBabel07062320523D

  6  5  0  0  0  0  0  0  0  0999 V2000
   33.1930   34.6630    9.2900 C   0  0  0  0  0  0  0  0  0  0  0  0
   32.0600   35.3600   10.0340 C   0  0  0  0  0  0  0  0  0  0  0  0
   30.7330   34.6570    9.9070 C   0  0  0  0  0  0  0  0  0  0  0  0
   30.3320   34.5280    8.4460 C   0  0  0  0  0  0  0  0  0  0  0  0
   28.8220   34.5480    8.3050 C   0  0  0  0  0  0  0  0  0  0  0  0
   28.1690   33.8060    9.4180 N   0  0  0  0  0  0  0  0  0  0  0  0
  1  2  1  0  0  0  0
  3  2  1  0  0  0  0
  4  3  1  0  0  0  0
  5  4  1  0  0  0  0
  5  6  1  0  0  0  0
M  END
>  <EGIN_R>
ES LYS A 135

>  <REMARK>
  4 active torsions:
  status: ('A' for Active; 'I' for Inactive)
    5  A    between atoms: CA   and  CB  
    6  A    between atoms: CB   and  CG  
    7  A    between atoms: CG   and  CD  
    8  A    between atoms: CD   and  CE  

$$$$
