ligand_36_pose_7_2HRL.pdbqt
 OpenBabel07062320523D

 52 53  0  0  1  0  0  0  0  0999 V2000
   28.2270   30.8020   17.8250 N   0  0  0  0  0  0  0  0  0  0  0  0
   27.2360   31.7460   18.2260 C   0  0  0  0  0  0  0  0  0  0  0  0
   27.5960   32.9400   18.5120 O   0  0  0  0  0  0  0  0  0  0  0  0
   27.9090   29.8420   17.5950 H   0  0  0  0  0  0  0  0  0  0  0  0
   29.5850   31.2010   17.7550 C   0  0  0  0  0  0  0  0  0  0  0  0
   30.2540   31.0670   16.4080 C   0  0  2  0  0  0  0  0  0  0  0  0
   30.9640   32.3310   15.9650 C   0  0  2  0  0  0  0  0  0  0  0  0
   30.0970   33.5400   16.0430 C   0  0  2  0  0  0  0  0  0  0  0  0
   28.3850   34.6310   14.9030 C   0  0  2  0  0  0  0  0  0  0  0  0
   28.4520   35.5570   16.0970 C   0  0  0  0  0  0  0  0  0  0  0  0
   29.0940   33.4790   15.0680 O   0  0  0  0  0  0  0  0  0  0  0  0
   29.8430   35.9160   16.4820 C   0  0  1  0  0  0  0  0  0  0  0  0
   30.7830   34.8590   15.8750 C   0  0  1  0  0  0  0  0  0  0  0  0
   28.7920   35.3530   13.7600 O   0  0  0  0  0  0  0  0  0  0  0  0
   29.7810   35.2290   13.6660 H   0  0  0  0  0  0  0  0  0  0  0  0
   26.9610   34.2810   14.7140 C   0  0  0  0  0  0  0  0  0  0  0  0
   26.4570   34.3500   13.5710 O   0  0  0  0  0  0  0  0  0  0  0  0
   26.1940   33.8810   15.7830 O   0  0  0  0  0  0  0  0  0  0  0  0
   25.3090   33.4100   15.7160 H   0  0  0  0  0  0  0  0  0  0  0  0
   30.2260   37.1900   16.1100 O   0  0  0  0  0  0  0  0  0  0  0  0
   29.4820   37.8100   16.3860 H   0  0  0  0  0  0  0  0  0  0  0  0
   32.0920   34.9680   16.4410 N   0  0  0  0  0  0  0  0  0  0  0  0
   33.1080   35.7710   15.8170 C   0  0  0  0  0  0  0  0  0  0  0  0
   32.3660   34.4750   17.3370 H   0  0  0  0  0  0  0  0  0  0  0  0
   34.4720   35.8760   16.4170 C   0  0  0  0  0  0  0  0  0  0  0  0
   32.8720   36.3980   14.7570 O   0  0  0  0  0  0  0  0  0  0  0  0
   31.5980   32.1340   14.7820 O   0  0  0  0  0  0  0  0  0  0  0  0
   32.3200   31.5040   14.7780 H   0  0  0  0  0  0  0  0  0  0  0  0
   29.1830   30.8040   15.5150 O   0  0  0  0  0  0  0  0  0  0  0  0
   28.6000   30.0950   15.8430 H   0  0  0  0  0  0  0  0  0  0  0  0
   25.8850   31.4690   18.3320 O   0  0  0  0  0  0  0  0  0  0  0  0
   25.3480   30.4020   17.5820 C   0  0  0  0  0  0  0  0  0  0  0  0
   25.1610   30.7630   16.1570 C   0  0  0  0  0  0  0  0  0  0  0  0
   24.0060   31.2040   15.5300 C   0  0  0  0  0  0  0  0  0  0  0  0
   26.1070   30.7250   15.2110 N   0  0  0  0  0  0  0  0  0  0  0  0
   24.2870   31.4180   14.2420 N   0  0  0  0  0  0  0  0  0  0  0  0
   25.5590   31.1200   14.0810 N   0  0  0  0  0  0  0  0  0  0  0  0
   23.3870   31.8900   13.2120 C   0  0  0  0  0  0  0  0  0  0  0  0
   22.3780   30.9100   12.8080 C   0  0  0  0  0  0  0  0  0  0  0  0
   22.7400   29.6080   12.5740 C   0  0  0  0  0  0  0  0  0  0  0  0
   21.0570   31.3000   12.6570 C   0  0  0  0  0  0  0  0  0  0  0  0
   21.7990   28.6730   12.1870 C   0  0  0  0  0  0  0  0  0  0  0  0
   20.0920   30.3800   12.2700 C   0  0  0  0  0  0  0  0  0  0  0  0
   20.4850   29.0600   12.0370 C   0  0  0  0  0  0  0  0  0  0  0  0
   19.5010   28.0990   11.6330 C   0  0  0  0  0  0  0  0  0  0  0  0
   18.7070   27.3000   11.3110 N   0  0  0  0  0  0  0  0  0  0  0  0
   29.8670   25.5550   16.9770 C   0  0  0  0  0  0  0  0  0  0  0  0
   28.3450   25.7220   17.0260 C   0  0  0  0  0  0  0  0  0  0  0  0
   27.6010   24.4010   16.9000 C   0  0  0  0  0  0  0  0  0  0  0  0
   26.5610   24.2320   17.9720 C   0  0  0  0  0  0  0  0  0  0  0  0
   25.2020   23.9780   17.3280 C   0  0  0  0  0  0  0  0  0  0  0  0
   24.8030   22.5610   17.5000 N   0  0  0  0  0  0  0  0  0  0  0  0
  1  2  1  0  0  0  0
  2 31  1  0  0  0  0
  2  3  2  0  0  0  0
  4  1  1  0  0  0  0
  5  1  1  0  0  0  0
  6  5  1  1  0  0  0
  7 27  1  6  0  0  0
  7  6  1  0  0  0  0
  8  7  1  6  0  0  0
  9 14  1  6  0  0  0
  9 11  1  0  0  0  0
  9 10  1  0  0  0  0
 10 12  1  0  0  0  0
 11  8  1  0  0  0  0
 12 20  1  6  0  0  0
 13  8  1  0  0  0  0
 13 22  1  1  0  0  0
 13 12  1  0  0  0  0
 15 14  1  0  0  0  0
 16  9  1  0  0  0  0
 16 18  1  0  0  0  0
 17 16  2  0  0  0  0
 19 18  1  0  0  0  0
 20 21  1  0  0  0  0
 22 24  1  0  0  0  0
 23 25  1  0  0  0  0
 23 22  1  0  0  0  0
 26 23  2  0  0  0  0
 28 27  1  0  0  0  0
 29 30  1  0  0  0  0
 29  6  1  0  0  0  0
 32 31  1  0  0  0  0
 33 32  1  0  0  0  0
 34 33  2  0  0  0  0
 35 33  1  0  0  0  0
 36 34  1  0  0  0  0
 37 36  1  0  0  0  0
 37 35  2  0  0  0  0
 38 36  1  0  0  0  0
 39 38  1  0  0  0  0
 40 39  2  0  0  0  0
 41 39  1  0  0  0  0
 42 40  1  0  0  0  0
 43 41  2  0  0  0  0
 44 42  2  0  0  0  0
 44 43  1  0  0  0  0
 45 44  1  0  0  0  0
 46 45  3  0  0  0  0
 47 48  1  0  0  0  0
 49 48  1  0  0  0  0
 49 50  1  0  0  0  0
 51 52  1  0  0  0  0
 51 50  1  0  0  0  0
M  END
>  <REMARK>
 VINA RESULT:    -4.321      4.147      8.816
 INTER + INTRA:         -14.963
 INTER:                  -8.647
 INTRA:                  -6.316
 UNBOUND:                -6.980
 SMILES CC(=O)N[C@@H]1[C@@H](O)C[C@](O)(C(=O)O)O[C@H]1C(O)[C@H](O)CNC(=O)OCc1cn(Cc2ccc(C#N)cc2)nn1
 SMILES IDX 21 1 22 2 23 3 20 5 18 6 16 7 15 8 9 9 8 10 14 11 6 12 5 13
 SMILES IDX 10 14 11 16 12 17 13 18 7 20 4 22 2 23 1 25 3 26 17 27 19 29
 SMILES IDX 24 31 25 32 26 33 27 34 39 35 28 36 38 37 29 38 30 39 31 40
 SMILES IDX 37 41 32 42 36 43 33 44 34 45 35 46
 H PARENT 21 4 10 15 13 19 7 21 4 24 17 28 19 30
 Flexibility Score: inf
  4 active torsions:
  status: ('A' for Active; 'I' for Inactive)
    1  A    between atoms: CA   and  CB  
    2  A    between atoms: CB   and  CG  
    3  A    between atoms: CG   and  CD  
    4  A    between atoms: CD   and  CE  

>  <TORSDO>
F 17

>  <BEGIN_>
RES LYS A 131

$$$$
ligand_36_pose_7_2HRL.pdbqt
 OpenBabel07062320523D

  6  5  0  0  0  0  0  0  0  0999 V2000
   33.1930   34.6630    9.2900 C   0  0  0  0  0  0  0  0  0  0  0  0
   32.0600   35.3600   10.0340 C   0  0  0  0  0  0  0  0  0  0  0  0
   30.7100   34.7320    9.8010 C   0  0  0  0  0  0  0  0  0  0  0  0
   30.4730   34.5040    8.3160 C   0  0  0  0  0  0  0  0  0  0  0  0
   29.0470   34.8610    7.9430 C   0  0  0  0  0  0  0  0  0  0  0  0
   28.9870   36.1840    7.2620 N   0  0  0  0  0  0  0  0  0  0  0  0
  1  2  1  0  0  0  0
  3  2  1  0  0  0  0
  4  3  1  0  0  0  0
  5  4  1  0  0  0  0
  6  5  1  0  0  0  0
M  END
>  <EGIN_R>
ES LYS A 135

>  <REMARK>
  4 active torsions:
  status: ('A' for Active; 'I' for Inactive)
    5  A    between atoms: CA   and  CB  
    6  A    between atoms: CB   and  CG  
    7  A    between atoms: CG   and  CD  
    8  A    between atoms: CD   and  CE  

$$$$
