ligand_56_pose_5_2HRL.pdbqt
 OpenBabel07062320523D

 49 50  0  0  1  0  0  0  0  0999 V2000
   25.3520   28.2970   20.1900 C   0  0  0  0  0  0  0  0  0  0  0  0
   26.4470   27.8060   21.0700 C   0  0  2  0  0  0  0  0  0  0  0  0
   27.7230   28.6200   20.9270 C   0  0  2  0  0  0  0  0  0  0  0  0
   28.9500   27.8770   21.3130 C   0  0  2  0  0  0  0  0  0  0  0  0
   30.1970   27.0900   23.0880 C   0  0  2  0  0  0  0  0  0  0  0  0
   31.1670   26.6710   22.0120 C   0  0  0  0  0  0  0  0  0  0  0  0
   28.9650   27.4440   22.6100 O   0  0  0  0  0  0  0  0  0  0  0  0
   31.3480   27.7210   20.9510 C   0  0  1  0  0  0  0  0  0  0  0  0
   30.2030   28.7060   21.0850 C   0  0  1  0  0  0  0  0  0  0  0  0
   30.7320   28.0790   23.9130 O   0  0  0  0  0  0  0  0  0  0  0  0
   31.7070   27.9510   24.0610 H   0  0  0  0  0  0  0  0  0  0  0  0
   29.9960   25.8830   23.9650 C   0  0  0  0  0  0  0  0  0  0  0  0
   30.7940   25.5430   24.8520 O   0  0  0  0  0  0  0  0  0  0  0  0
   28.8380   25.1480   23.7240 O   0  0  0  0  0  0  0  0  0  0  0  0
   28.1490   25.4810   23.0560 H   0  0  0  0  0  0  0  0  0  0  0  0
   32.5710   28.3810   21.0720 O   0  0  0  0  0  0  0  0  0  0  0  0
   33.2900   27.8100   20.7090 H   0  0  0  0  0  0  0  0  0  0  0  0
   30.0890   29.5560   19.9240 N   0  0  0  0  0  0  0  0  0  0  0  0
   30.6260   30.8720   19.9280 C   0  0  0  0  0  0  0  0  0  0  0  0
   29.6160   29.2360   19.0590 H   0  0  0  0  0  0  0  0  0  0  0  0
   30.5260   31.7800   18.7410 C   0  0  0  0  0  0  0  0  0  0  0  0
   31.2060   31.2860   20.9640 O   0  0  0  0  0  0  0  0  0  0  0  0
   27.5760   29.8720   21.4660 O   0  0  0  0  0  0  0  0  0  0  0  0
   28.1290   29.9380   22.2910 H   0  0  0  0  0  0  0  0  0  0  0  0
   26.8070   26.4960   20.8120 O   0  0  0  0  0  0  0  0  0  0  0  0
   27.4900   26.1420   21.4250 H   0  0  0  0  0  0  0  0  0  0  0  0
   25.8720   28.8860   18.9890 N   0  0  0  0  0  0  0  0  0  0  0  0
   25.6790   28.4670   17.6670 C   0  0  0  0  0  0  0  0  0  0  0  0
   26.4910   29.7630   19.0970 H   0  0  0  0  0  0  0  0  0  0  0  0
   25.0000   27.4730   17.4110 O   0  0  0  0  0  0  0  0  0  0  0  0
   26.2410   29.1440   16.5680 O   0  0  0  0  0  0  0  0  0  0  0  0
   27.6660   29.2170   16.4460 C   0  0  0  0  0  0  0  0  0  0  0  0
   28.0970   30.5750   16.1000 C   0  0  0  0  0  0  0  0  0  0  0  0
   29.2780   31.0020   15.5360 C   0  0  0  0  0  0  0  0  0  0  0  0
   27.3590   31.6880   16.2910 N   0  0  0  0  0  0  0  0  0  0  0  0
   29.1970   32.3460   15.4140 N   0  0  0  0  0  0  0  0  0  0  0  0
   28.0380   32.7490   15.8710 N   0  0  0  0  0  0  0  0  0  0  0  0
   30.1960   33.2150   14.8770 C   0  0  0  0  0  0  0  0  0  0  0  0
   31.4260   33.2640   15.4880 C   0  0  0  0  0  0  0  0  0  0  0  0
   29.9230   33.9950   13.7590 C   0  0  0  0  0  0  0  0  0  0  0  0
   32.3780   34.1070   14.9570 C   0  0  0  0  0  0  0  0  0  0  0  0
   30.8990   34.8140   13.2710 C   0  0  0  0  0  0  0  0  0  0  0  0
   32.1030   34.8530   13.8790 N   0  0  0  0  0  0  0  0  0  0  0  0
   29.8670   25.5550   16.9770 C   0  0  0  0  0  0  0  0  0  0  0  0
   28.3450   25.7220   17.0260 C   0  0  0  0  0  0  0  0  0  0  0  0
   27.6020   24.3990   16.9280 C   0  0  0  0  0  0  0  0  0  0  0  0
   26.6180   24.2170   18.0500 C   0  0  0  0  0  0  0  0  0  0  0  0
   25.2350   23.9290   17.4730 C   0  0  0  0  0  0  0  0  0  0  0  0
   24.9550   22.4740   17.4980 N   0  0  0  0  0  0  0  0  0  0  0  0
  2  1  1  6  0  0  0
  3  2  1  0  0  0  0
  3 23  1  1  0  0  0
  4  3  1  1  0  0  0
  4  7  1  0  0  0  0
  5 10  1  1  0  0  0
  5 12  1  0  0  0  0
  6  5  1  0  0  0  0
  7  5  1  0  0  0  0
  8 16  1  1  0  0  0
  8  9  1  0  0  0  0
  8  6  1  0  0  0  0
  9 18  1  6  0  0  0
  9  4  1  0  0  0  0
 10 11  1  0  0  0  0
 12 13  2  0  0  0  0
 14 12  1  0  0  0  0
 15 14  1  0  0  0  0
 17 16  1  0  0  0  0
 18 19  1  0  0  0  0
 19 22  2  0  0  0  0
 20 18  1  0  0  0  0
 21 19  1  0  0  0  0
 23 24  1  0  0  0  0
 25  2  1  0  0  0  0
 25 26  1  0  0  0  0
 27 29  1  0  0  0  0
 27  1  1  0  0  0  0
 28 27  1  0  0  0  0
 30 28  2  0  0  0  0
 31 28  1  0  0  0  0
 32 31  1  0  0  0  0
 33 35  1  0  0  0  0
 33 32  1  0  0  0  0
 34 33  2  0  0  0  0
 36 34  1  0  0  0  0
 36 37  1  0  0  0  0
 37 35  2  0  0  0  0
 38 36  1  0  0  0  0
 38 39  2  0  0  0  0
 40 38  1  0  0  0  0
 41 39  1  0  0  0  0
 42 40  2  0  0  0  0
 42 43  1  0  0  0  0
 43 41  2  0  0  0  0
 44 45  1  0  0  0  0
 46 45  1  0  0  0  0
 46 47  1  0  0  0  0
 48 49  1  0  0  0  0
 48 47  1  0  0  0  0
M  END
>  <REMARK>
 VINA RESULT:    -5.086      2.645      3.862
 INTER + INTRA:         -14.074
 INTER:                  -8.495
 INTRA:                  -5.580
 UNBOUND:                -5.272
 SMILES CC(=O)N[C@@H]1[C@@H](O)C[C@](O)(C(=O)O)O[C@H]1C(O)[C@H](O)CNC(=O)OCc1cn(-c2ccncc2)nn1
 SMILES IDX 20 1 18 2 16 3 15 4 9 5 8 6 14 7 6 8 5 9 10 10 11 12 12 13
 SMILES IDX 13 14 7 16 4 18 2 19 1 21 3 22 17 23 19 25 21 27 22 28 23 30
 SMILES IDX 24 31 25 32 26 33 27 34 36 35 28 36 35 37 29 38 30 39 34 40
 SMILES IDX 31 41 33 42 32 43
 H PARENT 10 11 13 15 7 17 4 20 17 24 19 26 21 29
 Flexibility Score: inf
  4 active torsions:
  status: ('A' for Active; 'I' for Inactive)
    1  A    between atoms: CA   and  CB  
    2  A    between atoms: CB   and  CG  
    3  A    between atoms: CG   and  CD  
    4  A    between atoms: CD   and  CE  

>  <TORSDO>
F 15

>  <BEGIN_>
RES LYS A 131

$$$$
ligand_56_pose_5_2HRL.pdbqt
 OpenBabel07062320523D

  6  5  0  0  0  0  0  0  0  0999 V2000
   33.1930   34.6630    9.2900 C   0  0  0  0  0  0  0  0  0  0  0  0
   32.0600   35.3600   10.0340 C   0  0  0  0  0  0  0  0  0  0  0  0
   30.8130   35.5330    9.2060 C   0  0  0  0  0  0  0  0  0  0  0  0
   30.1160   34.1980    9.0000 C   0  0  0  0  0  0  0  0  0  0  0  0
   28.6450   34.4060    8.6910 C   0  0  0  0  0  0  0  0  0  0  0  0
   27.7860   33.6050    9.6070 N   0  0  0  0  0  0  0  0  0  0  0  0
  1  2  1  0  0  0  0
  3  2  1  0  0  0  0
  4  3  1  0  0  0  0
  5  4  1  0  0  0  0
  5  6  1  0  0  0  0
M  END
>  <EGIN_R>
ES LYS A 135

>  <REMARK>
  4 active torsions:
  status: ('A' for Active; 'I' for Inactive)
    5  A    between atoms: CA   and  CB  
    6  A    between atoms: CB   and  CG  
    7  A    between atoms: CG   and  CD  
    8  A    between atoms: CD   and  CE  

$$$$
