ligand_21_pose_13_2HRL.pdbqt
 OpenBabel07062320523D

 54 55  0  0  1  0  0  0  0  0999 V2000
   28.4130   31.9170   16.1220 N   0  0  0  0  0  0  0  0  0  0  0  0
   27.2090   31.8080   16.8800 C   0  0  0  0  0  0  0  0  0  0  0  0
   27.2400   31.1580   17.9460 O   0  0  0  0  0  0  0  0  0  0  0  0
   28.3750   32.4590   15.2370 H   0  0  0  0  0  0  0  0  0  0  0  0
   29.6280   31.2920   16.5700 C   0  0  0  0  0  0  0  0  0  0  0  0
   30.8100   32.0910   16.0100 C   0  0  2  0  0  0  0  0  0  0  0  0
   30.8070   33.4630   16.6250 C   0  0  2  0  0  0  0  0  0  0  0  0
   31.3440   34.4520   15.6250 C   0  0  2  0  0  0  0  0  0  0  0  0
   33.1540   34.7970   14.2070 C   0  0  2  0  0  0  0  0  0  0  0  0
   33.6640   35.9420   15.0490 C   0  0  0  0  0  0  0  0  0  0  0  0
   32.4740   33.9480   15.0640 O   0  0  0  0  0  0  0  0  0  0  0  0
   32.4930   36.6830   15.5960 C   0  0  1  0  0  0  0  0  0  0  0  0
   31.4630   35.7990   16.2430 C   0  0  1  0  0  0  0  0  0  0  0  0
   34.3060   34.0930   13.7930 O   0  0  0  0  0  0  0  0  0  0  0  0
   34.4790   34.2130   12.8320 H   0  0  0  0  0  0  0  0  0  0  0  0
   32.3690   35.2270   13.0330 C   0  0  0  0  0  0  0  0  0  0  0  0
   32.6130   36.2590   12.3640 O   0  0  0  0  0  0  0  0  0  0  0  0
   31.2920   34.4610   12.6280 O   0  0  0  0  0  0  0  0  0  0  0  0
   30.3300   34.8060   12.5930 H   0  0  0  0  0  0  0  0  0  0  0  0
   32.9950   37.6130   16.5340 O   0  0  0  0  0  0  0  0  0  0  0  0
   32.3850   38.4090   16.5410 H   0  0  0  0  0  0  0  0  0  0  0  0
   30.1780   36.4650   16.1530 N   0  0  0  0  0  0  0  0  0  0  0  0
   29.6660   37.2730   17.2140 C   0  0  0  0  0  0  0  0  0  0  0  0
   29.5890   36.3700   15.2990 H   0  0  0  0  0  0  0  0  0  0  0  0
   28.3480   37.9300   17.0680 C   0  0  0  0  0  0  0  0  0  0  0  0
   30.3360   37.4180   18.2580 O   0  0  0  0  0  0  0  0  0  0  0  0
   31.5660   33.5060   17.8010 O   0  0  0  0  0  0  0  0  0  0  0  0
   32.3510   32.9220   17.6900 H   0  0  0  0  0  0  0  0  0  0  0  0
   30.6900   32.0870   14.6380 O   0  0  0  0  0  0  0  0  0  0  0  0
   29.7690   32.1820   14.3160 H   0  0  0  0  0  0  0  0  0  0  0  0
   26.0500   32.4170   16.4280 O   0  0  0  0  0  0  0  0  0  0  0  0
   25.2750   31.8670   15.3880 C   0  0  0  0  0  0  0  0  0  0  0  0
   25.1790   32.8490   14.2970 C   0  0  0  0  0  0  0  0  0  0  0  0
   26.0880   33.8750   14.0180 C   0  0  0  0  0  0  0  0  0  0  0  0
   24.2150   32.9750   13.3500 N   0  0  0  0  0  0  0  0  0  0  0  0
   25.6340   34.5330   12.9580 N   0  0  0  0  0  0  0  0  0  0  0  0
   24.5010   33.9870   12.5550 N   0  0  0  0  0  0  0  0  0  0  0  0
   26.2730   35.6710   12.3290 C   0  0  0  0  0  0  0  0  0  0  0  0
   26.5500   35.2610   10.9110 C   0  0  0  0  0  0  0  0  0  0  0  0
   25.9790   35.9860    9.8980 C   0  0  0  0  0  0  0  0  0  0  0  0
   27.3590   34.1820   10.6600 C   0  0  0  0  0  0  0  0  0  0  0  0
   26.2010   35.6500    8.5880 C   0  0  0  0  0  0  0  0  0  0  0  0
   27.5950   33.8280    9.3270 C   0  0  0  0  0  0  0  0  0  0  0  0
   27.0130   34.5650    8.3320 C   0  0  0  0  0  0  0  0  0  0  0  0
   25.1670   37.0710   10.1930 O   0  0  0  0  0  0  0  0  0  0  0  0
   25.5850   38.3250    9.7520 C   0  0  0  0  0  0  0  0  0  0  0  0
   24.8560   38.9790    8.9700 O   0  0  0  0  0  0  0  0  0  0  0  0
   26.8790   38.8950   10.1970 C   0  0  0  0  0  0  0  0  0  0  0  0
   29.8670   25.5550   16.9770 C   0  0  0  0  0  0  0  0  0  0  0  0
   28.3450   25.7220   17.0260 C   0  0  0  0  0  0  0  0  0  0  0  0
   27.6020   24.3990   16.9280 C   0  0  0  0  0  0  0  0  0  0  0  0
   26.6270   24.2110   18.0560 C   0  0  0  0  0  0  0  0  0  0  0  0
   26.2910   25.5670   18.6690 C   0  0  0  0  0  0  0  0  0  0  0  0
   25.5190   25.3930   19.9220 N   0  0  0  0  0  0  0  0  0  0  0  0
  1  5  1  0  0  0  0
  1  2  1  0  0  0  0
  2  3  2  0  0  0  0
  4  1  1  0  0  0  0
  6  5  1  1  0  0  0
  6  7  1  0  0  0  0
  7 27  1  1  0  0  0
  8 13  1  0  0  0  0
  8  7  1  1  0  0  0
  9 16  1  6  0  0  0
  9 10  1  0  0  0  0
  9 11  1  0  0  0  0
 10 12  1  0  0  0  0
 11  8  1  0  0  0  0
 12 13  1  0  0  0  0
 12 20  1  1  0  0  0
 13 22  1  6  0  0  0
 14  9  1  0  0  0  0
 15 14  1  0  0  0  0
 17 16  2  0  0  0  0
 18 16  1  0  0  0  0
 19 18  1  0  0  0  0
 20 21  1  0  0  0  0
 22 23  1  0  0  0  0
 23 26  2  0  0  0  0
 24 22  1  0  0  0  0
 25 23  1  0  0  0  0
 28 27  1  0  0  0  0
 29  6  1  0  0  0  0
 30 29  1  0  0  0  0
 31  2  1  0  0  0  0
 32 31  1  0  0  0  0
 33 32  1  0  0  0  0
 34 33  2  0  0  0  0
 35 33  1  0  0  0  0
 36 34  1  0  0  0  0
 37 36  1  0  0  0  0
 37 35  2  0  0  0  0
 38 36  1  0  0  0  0
 39 38  1  0  0  0  0
 40 45  1  0  0  0  0
 40 39  2  0  0  0  0
 41 39  1  0  0  0  0
 42 40  1  0  0  0  0
 43 41  2  0  0  0  0
 44 42  2  0  0  0  0
 44 43  1  0  0  0  0
 46 45  1  0  0  0  0
 46 48  1  0  0  0  0
 47 46  2  0  0  0  0
 49 50  1  0  0  0  0
 51 50  1  0  0  0  0
 51 52  1  0  0  0  0
 52 53  1  0  0  0  0
 53 54  1  0  0  0  0
M  END
>  <REMARK>
 VINA RESULT:    -4.611      4.842      9.740
 INTER + INTRA:         -15.063
 INTER:                 -10.487
 INTRA:                  -4.577
 UNBOUND:                -6.275
 SMILES CC(=O)N[C@@H]1[C@@H](O)C[C@](O)(C(=O)O)O[C@H]1C(O)[C@H](O)CNC(=O)OCc1cn(Cc2ccccc2OC(C)=O)nn1
 SMILES IDX 21 1 22 2 23 3 20 5 18 6 16 7 15 8 9 9 8 10 14 11 6 12 5 13
 SMILES IDX 10 14 11 16 12 17 13 18 7 20 4 22 2 23 1 25 3 26 17 27 19 29
 SMILES IDX 24 31 25 32 26 33 27 34 41 35 28 36 40 37 29 38 30 39 35 40
 SMILES IDX 31 41 34 42 32 43 33 44 36 45 37 46 39 47 38 48
 H PARENT 21 4 10 15 13 19 7 21 4 24 17 28 19 30
 Flexibility Score: inf
  4 active torsions:
  status: ('A' for Active; 'I' for Inactive)
    1  A    between atoms: CA   and  CB  
    2  A    between atoms: CB   and  CG  
    3  A    between atoms: CG   and  CD  
    4  A    between atoms: CD   and  CE  

>  <TORSDO>
F 18

>  <BEGIN_>
RES LYS A 131

$$$$
ligand_21_pose_13_2HRL.pdbqt
 OpenBabel07062320523D

  6  5  0  0  0  0  0  0  0  0999 V2000
   33.1930   34.6630    9.2900 C   0  0  0  0  0  0  0  0  0  0  0  0
   32.0600   35.3600   10.0340 C   0  0  0  0  0  0  0  0  0  0  0  0
   30.7490   35.3380    9.2920 C   0  0  0  0  0  0  0  0  0  0  0  0
   30.0530   36.6870    9.3920 C   0  0  0  0  0  0  0  0  0  0  0  0
   31.0560   37.7820    9.7010 C   0  0  0  0  0  0  0  0  0  0  0  0
   30.5420   38.6970   10.7580 N   0  0  0  0  0  0  0  0  0  0  0  0
  1  2  1  0  0  0  0
  3  4  1  0  0  0  0
  3  2  1  0  0  0  0
  4  5  1  0  0  0  0
  5  6  1  0  0  0  0
M  END
>  <EGIN_R>
ES LYS A 135

>  <REMARK>
  4 active torsions:
  status: ('A' for Active; 'I' for Inactive)
    5  A    between atoms: CA   and  CB  
    6  A    between atoms: CB   and  CG  
    7  A    between atoms: CG   and  CD  
    8  A    between atoms: CD   and  CE  

$$$$
