ligand_58_pose_13_2HRL.pdbqt
 OpenBabel07062320523D

 56 58  0  0  1  0  0  0  0  0999 V2000
   26.5840   30.3930   18.4610 N   0  0  0  0  0  0  0  0  0  0  0  0
   26.5150   31.7810   18.2150 C   0  0  0  0  0  0  0  0  0  0  0  0
   26.8710   32.5960   19.0990 O   0  0  0  0  0  0  0  0  0  0  0  0
   26.2790   29.7430   17.7090 H   0  0  0  0  0  0  0  0  0  0  0  0
   27.0580   29.8740   19.7060 C   0  0  0  0  0  0  0  0  0  0  0  0
   27.8870   28.6190   19.4320 C   0  0  2  0  0  0  0  0  0  0  0  0
   29.3230   29.0020   19.7510 C   0  0  2  0  0  0  0  0  0  0  0  0
   29.5590   29.4370   21.1700 C   0  0  2  0  0  0  0  0  0  0  0  0
   31.8820   29.0890   21.3380 C   0  0  2  0  0  0  0  0  0  0  0  0
   31.6680   27.9020   22.2510 C   0  0  0  0  0  0  0  0  0  0  0  0
   30.8410   29.9470   21.2250 O   0  0  0  0  0  0  0  0  0  0  0  0
   30.3190   27.2710   22.0830 C   0  0  1  0  0  0  0  0  0  0  0  0
   29.2980   28.3670   22.1550 C   0  0  1  0  0  0  0  0  0  0  0  0
   32.1480   28.5470   20.0790 O   0  0  0  0  0  0  0  0  0  0  0  0
   33.1140   28.7190   19.8940 H   0  0  0  0  0  0  0  0  0  0  0  0
   33.1420   29.7950   21.7720 C   0  0  0  0  0  0  0  0  0  0  0  0
   33.2270   31.0260   21.7700 O   0  0  0  0  0  0  0  0  0  0  0  0
   34.2100   29.0270   22.1750 O   0  0  0  0  0  0  0  0  0  0  0  0
   34.2040   28.6210   23.1180 H   0  0  0  0  0  0  0  0  0  0  0  0
   30.3130   26.5600   20.9170 O   0  0  0  0  0  0  0  0  0  0  0  0
   29.4970   25.9950   20.8360 H   0  0  0  0  0  0  0  0  0  0  0  0
   29.3360   28.8950   23.5330 N   0  0  0  0  0  0  0  0  0  0  0  0
   28.1680   29.2310   24.2390 C   0  0  0  0  0  0  0  0  0  0  0  0
   30.2680   29.0180   23.9830 H   0  0  0  0  0  0  0  0  0  0  0  0
   28.2500   29.7600   25.6250 C   0  0  0  0  0  0  0  0  0  0  0  0
   27.0340   29.0880   23.7040 O   0  0  0  0  0  0  0  0  0  0  0  0
   29.5780   30.1430   18.9040 O   0  0  0  0  0  0  0  0  0  0  0  0
   30.0550   30.8330   19.3910 H   0  0  0  0  0  0  0  0  0  0  0  0
   27.7000   28.3440   18.0860 O   0  0  0  0  0  0  0  0  0  0  0  0
   27.6320   27.3890   17.8910 H   0  0  0  0  0  0  0  0  0  0  0  0
   26.0590   32.2900   17.0050 O   0  0  0  0  0  0  0  0  0  0  0  0
   26.6140   31.8030   15.8130 C   0  0  0  0  0  0  0  0  0  0  0  0
   28.0910   31.7420   15.9580 C   0  0  0  0  0  0  0  0  0  0  0  0
   28.9370   32.8510   16.0560 C   0  0  0  0  0  0  0  0  0  0  0  0
   28.9200   30.6860   16.0200 N   0  0  0  0  0  0  0  0  0  0  0  0
   30.1970   32.4250   16.1700 N   0  0  0  0  0  0  0  0  0  0  0  0
   30.1690   31.1190   16.1460 N   0  0  0  0  0  0  0  0  0  0  0  0
   31.4050   33.2280   16.2970 C   0  0  0  0  0  0  0  0  0  0  0  0
   31.6840   33.9790   15.0720 C   0  0  0  0  0  0  0  0  0  0  0  0
   32.9580   34.4820   14.7820 C   0  0  0  0  0  0  0  0  0  0  0  0
   30.6790   34.1930   14.1500 C   0  0  0  0  0  0  0  0  0  0  0  0
   33.1960   35.1700   13.6120 C   0  0  0  0  0  0  0  0  0  0  0  0
   30.9440   34.8860   12.9850 C   0  0  0  0  0  0  0  0  0  0  0  0
   32.1940   35.3870   12.6880 C   0  0  0  0  0  0  0  0  0  0  0  0
   31.4770   33.9810   17.5510 C   0  0  0  0  0  0  0  0  0  0  0  0
   31.4170   33.3130   18.7870 C   0  0  0  0  0  0  0  0  0  0  0  0
   31.6120   35.3480   17.5420 C   0  0  0  0  0  0  0  0  0  0  0  0
   31.4920   34.0130   19.9640 C   0  0  0  0  0  0  0  0  0  0  0  0
   31.6870   36.0520   18.7490 C   0  0  0  0  0  0  0  0  0  0  0  0
   31.6280   35.3840   19.9500 C   0  0  0  0  0  0  0  0  0  0  0  0
   29.8670   25.5550   16.9770 C   0  0  0  0  0  0  0  0  0  0  0  0
   28.3450   25.7220   17.0260 C   0  0  0  0  0  0  0  0  0  0  0  0
   27.6020   24.3990   16.9230 C   0  0  0  0  0  0  0  0  0  0  0  0
   26.1480   24.5370   17.2810 C   0  0  0  0  0  0  0  0  0  0  0  0
   26.0000   24.5900   18.7990 C   0  0  0  0  0  0  0  0  0  0  0  0
   25.4630   25.9050   19.2220 N   0  0  0  0  0  0  0  0  0  0  0  0
  1  5  1  0  0  0  0
  2  1  1  0  0  0  0
  2  3  2  0  0  0  0
  4  1  1  0  0  0  0
  6  5  1  6  0  0  0
  6  7  1  0  0  0  0
  7 27  1  6  0  0  0
  8  7  1  6  0  0  0
  8 11  1  0  0  0  0
  8 13  1  0  0  0  0
  9 14  1  6  0  0  0
  9 16  1  0  0  0  0
  9 10  1  0  0  0  0
 11  9  1  0  0  0  0
 12 20  1  6  0  0  0
 12 13  1  0  0  0  0
 12 10  1  0  0  0  0
 13 22  1  1  0  0  0
 15 14  1  0  0  0  0
 16 18  1  0  0  0  0
 17 16  2  0  0  0  0
 18 19  1  0  0  0  0
 21 20  1  0  0  0  0
 22 24  1  0  0  0  0
 22 23  1  0  0  0  0
 23 25  1  0  0  0  0
 26 23  2  0  0  0  0
 27 28  1  0  0  0  0
 29  6  1  0  0  0  0
 30 29  1  0  0  0  0
 31  2  1  0  0  0  0
 32 33  1  0  0  0  0
 32 31  1  0  0  0  0
 33 35  1  0  0  0  0
 33 34  2  0  0  0  0
 34 36  1  0  0  0  0
 35 37  2  0  0  0  0
 36 38  1  0  0  0  0
 37 36  1  0  0  0  0
 38 45  1  0  0  0  0
 39 38  1  0  0  0  0
 40 39  1  0  0  0  0
 41 39  2  0  0  0  0
 42 40  2  0  0  0  0
 43 41  1  0  0  0  0
 44 43  2  0  0  0  0
 44 42  1  0  0  0  0
 45 46  1  0  0  0  0
 46 48  2  0  0  0  0
 47 45  2  0  0  0  0
 47 49  1  0  0  0  0
 49 50  2  0  0  0  0
 50 48  1  0  0  0  0
 51 52  1  0  0  0  0
 53 52  1  0  0  0  0
 53 54  1  0  0  0  0
 54 55  1  0  0  0  0
 55 56  1  0  0  0  0
M  END
>  <REMARK>
 VINA RESULT:    -5.615      3.624      7.728
 INTER + INTRA:         -15.864
 INTER:                  -9.980
 INTRA:                  -5.885
 UNBOUND:                -5.490
 SMILES CC(=O)N[C@@H]1[C@@H](O)C[C@](O)(C(=O)O)O[C@H]1C(O)[C@H](O)CNC(=O)OCc1cn(C(c2ccccc2)c2ccccc2)nn1
 SMILES IDX 21 1 22 2 23 3 20 5 18 6 16 7 15 8 9 9 8 10 14 11 6 12 5 13
 SMILES IDX 10 14 11 16 12 17 13 18 7 20 4 22 2 23 1 25 3 26 17 27 19 29
 SMILES IDX 24 31 25 32 26 33 27 34 43 35 28 36 42 37 29 38 30 39 31 40
 SMILES IDX 35 41 32 42 34 43 33 44 36 45 37 46 41 47 38 48 40 49 39 50
 H PARENT 21 4 10 15 13 19 7 21 4 24 17 28 19 30
 Flexibility Score: inf
  4 active torsions:
  status: ('A' for Active; 'I' for Inactive)
    1  A    between atoms: CA   and  CB  
    2  A    between atoms: CB   and  CG  
    3  A    between atoms: CG   and  CD  
    4  A    between atoms: CD   and  CE  

>  <TORSDO>
F 17

>  <BEGIN_>
RES LYS A 131

$$$$
ligand_58_pose_13_2HRL.pdbqt
 OpenBabel07062320523D

  6  5  0  0  0  0  0  0  0  0999 V2000
   33.1930   34.6630    9.2900 C   0  0  0  0  0  0  0  0  0  0  0  0
   32.0600   35.3600   10.0340 C   0  0  0  0  0  0  0  0  0  0  0  0
   30.7880   35.4660    9.2330 C   0  0  0  0  0  0  0  0  0  0  0  0
   30.1680   34.0920    9.0270 C   0  0  0  0  0  0  0  0  0  0  0  0
   28.7080   34.1010    9.4360 C   0  0  0  0  0  0  0  0  0  0  0  0
   27.8430   34.6010    8.3310 N   0  0  0  0  0  0  0  0  0  0  0  0
  1  2  1  0  0  0  0
  3  2  1  0  0  0  0
  4  3  1  0  0  0  0
  4  5  1  0  0  0  0
  6  5  1  0  0  0  0
M  END
>  <EGIN_R>
ES LYS A 135

>  <REMARK>
  4 active torsions:
  status: ('A' for Active; 'I' for Inactive)
    5  A    between atoms: CA   and  CB  
    6  A    between atoms: CB   and  CG  
    7  A    between atoms: CG   and  CD  
    8  A    between atoms: CD   and  CE  

$$$$
