ligand_69_pose_3_2HRL.pdbqt
 OpenBabel07062320523D

 54 51  0  0  1  0  0  0  0  0999 V2000
   22.3230   35.7210   13.3480 N   0  0  0  0  0  0  0  0  0  0  0  0
   23.0030   36.9330   13.6720 C   0  0  0  0  0  0  0  0  0  0  0  0
   22.4090   38.0350   13.7980 O   0  0  0  0  0  0  0  0  0  0  0  0
   22.8410   34.8210   13.2490 H   0  0  0  0  0  0  0  0  0  0  0  0
   20.8740   35.8270   13.1670 C   0  0  0  0  0  0  0  0  0  0  0  0
   20.5300   34.9930   11.9470 C   0  0  2  0  0  0  0  0  0  0  0  0
   20.9050   35.6750   10.6510 C   0  0  2  0  0  0  0  0  0  0  0  0
   19.7750   35.7000    9.6710 C   0  0  2  0  0  0  0  0  0  0  0  0
   18.5680   34.6070    8.0750 C   0  0  2  0  0  0  0  0  0  0  0  0
   17.7440   35.8700    8.2090 C   0  0  0  0  0  0  0  0  0  0  0  0
   19.5150   34.4900    9.0840 O   0  0  0  0  0  0  0  0  0  0  0  0
   18.6030   37.1150    8.1120 C   0  0  1  0  0  0  0  0  0  0  0  0
   19.9770   36.7260    8.5770 C   0  0  1  0  0  0  0  0  0  0  0  0
   19.1350   34.5050    6.8100 O   0  0  0  0  0  0  0  0  0  0  0  0
   19.6180   33.6450    6.6870 H   0  0  0  0  0  0  0  0  0  0  0  0
   17.6290   33.4710    8.2400 C   0  0  0  0  0  0  0  0  0  0  0  0
   16.9230   33.0320    7.2920 O   0  0  0  0  0  0  0  0  0  0  0  0
   17.5160   32.8640    9.4710 O   0  0  0  0  0  0  0  0  0  0  0  0
   17.3300   31.8760    9.6100 H   0  0  0  0  0  0  0  0  0  0  0  0
   18.5570   37.5520    6.8090 O   0  0  0  0  0  0  0  0  0  0  0  0
   18.1680   38.4820    6.8190 H   0  0  0  0  0  0  0  0  0  0  0  0
   20.8200   37.8010    8.9520 N   0  0  0  0  0  0  0  0  0  0  0  0
   22.1370   38.0250    8.4720 C   0  0  0  0  0  0  0  0  0  0  0  0
   20.4550   38.4940    9.6400 H   0  0  0  0  0  0  0  0  0  0  0  0
   22.9490   39.1930    8.9310 C   0  0  0  0  0  0  0  0  0  0  0  0
   22.5970   37.2100    7.6480 O   0  0  0  0  0  0  0  0  0  0  0  0
   22.0910   35.2000   10.1460 O   0  0  0  0  0  0  0  0  0  0  0  0
   22.0200   35.1530    9.1670 H   0  0  0  0  0  0  0  0  0  0  0  0
   19.1280   34.8170   11.8870 O   0  0  0  0  0  0  0  0  0  0  0  0
   18.6530   35.6440   12.1830 H   0  0  0  0  0  0  0  0  0  0  0  0
   24.3640   36.9150   13.8580 O   0  0  0  0  0  0  0  0  0  0  0  0
   25.2290   35.9290   13.3230 C   0  0  0  0  0  0  0  0  0  0  0  0
   25.3120   36.1200   11.8570 C   0  0  0  0  0  0  0  0  0  0  0  0
   25.8680   37.1570   11.1420 C   0  0  0  0  0  0  0  0  0  0  0  0
   24.8240   35.2510   10.9500 N   0  0  0  0  0  0  0  0  0  0  0  0
   25.7080   36.9000    9.8300 N   0  0  0  0  0  0  0  0  0  0  0  0
   25.0690   35.7300    9.7580 N   0  0  0  0  0  0  0  0  0  0  0  0
   26.1540   37.7440    8.7210 C   0  0  2  0  0  0  0  0  0  0  0  0
   26.7310   36.8500    7.6750 C   0  0  0  0  0  0  0  0  0  0  0  0
   27.2510   37.5510    6.4700 *   0  0  0  0  0  0  0  0  0  0  0  0
   27.1760   36.7530    5.3080 O   0  0  0  0  0  0  0  0  0  0  0  0
   26.2320   36.6570    5.0570 H   0  0  0  0  0  0  0  0  0  0  0  0
   27.1080   38.7480    9.2710 C   0  0  0  0  0  0  0  0  0  0  0  0
   28.5490   38.3430    9.1980 C   0  0  1  0  0  0  0  0  0  0  0  0
   29.1320   38.4620    7.8440 C   0  0  0  0  0  0  0  0  0  0  0  0
   28.5920   38.1300    6.6940 *   0  0  0  0  0  0  0  0  0  0  0  0
   29.3360   38.9940   10.1470 O   0  0  0  0  0  0  0  0  0  0  0  0
   29.7810   39.7910    9.7650 H   0  0  0  0  0  0  0  0  0  0  0  0
   29.8670   25.5550   16.9770 C   0  0  0  0  0  0  0  0  0  0  0  0
   28.3450   25.7220   17.0260 C   0  0  0  0  0  0  0  0  0  0  0  0
   27.6020   24.3980   16.9350 C   0  0  0  0  0  0  0  0  0  0  0  0
   26.1520   24.5350   17.3090 C   0  0  0  0  0  0  0  0  0  0  0  0
   25.9850   24.2690   18.8010 C   0  0  0  0  0  0  0  0  0  0  0  0
   25.7000   25.5310   19.5250 N   0  0  0  0  0  0  0  0  0  0  0  0
  1  2  1  0  0  0  0
  2  3  2  0  0  0  0
  2 31  1  0  0  0  0
  4  1  1  0  0  0  0
  5  1  1  0  0  0  0
  6  5  1  1  0  0  0
  7 27  1  6  0  0  0
  7  6  1  0  0  0  0
  8  7  1  6  0  0  0
  9 14  1  6  0  0  0
  9 10  1  0  0  0  0
  9 16  1  0  0  0  0
  9 11  1  0  0  0  0
 11  8  1  0  0  0  0
 12 20  1  6  0  0  0
 12 10  1  0  0  0  0
 12 13  1  0  0  0  0
 13 22  1  1  0  0  0
 13  8  1  0  0  0  0
 15 14  1  0  0  0  0
 16 18  1  0  0  0  0
 17 16  2  0  0  0  0
 18 19  1  0  0  0  0
 20 21  1  0  0  0  0
 22 24  1  0  0  0  0
 23 25  1  0  0  0  0
 23 22  1  0  0  0  0
 26 23  2  0  0  0  0
 28 27  1  0  0  0  0
 29  6  1  0  0  0  0
 29 30  1  0  0  0  0
 32 31  1  0  0  0  0
 33 32  1  0  0  0  0
 34 33  2  0  0  0  0
 35 33  1  0  0  0  0
 36 34  1  0  0  0  0
 37 36  1  0  0  0  0
 37 35  2  0  0  0  0
 38 39  1  6  0  0  0
 38 43  1  0  0  0  0
 38 36  1  0  0  0  0
 42 41  1  0  0  0  0
 44 45  1  6  0  0  0
 44 43  1  0  0  0  0
 44 47  1  0  0  0  0
 48 47  1  0  0  0  0
 49 50  1  0  0  0  0
 51 50  1  0  0  0  0
 51 52  1  0  0  0  0
 52 53  1  0  0  0  0
 53 54  1  0  0  0  0
M  END
>  <REMARK>
 VINA RESULT:    -7.874      4.783      9.433
 INTER + INTRA:         -13.357
 INTER:                  -8.116
 INTRA:                  -5.240
 UNBOUND:                 3.032
 SMILES CC(=O)N[C@@H]1[C@@H](O)C[C@](O)(C(=O)O)O[C@H]1C(O)[C@H](O)CNC(=O)OCc1cn(C2CC(O)C=C[C@@H](O)C2)nn1
 SMILES IDX 21 1 22 2 23 3 20 5 18 6 16 7 15 8 9 9 8 10 14 11 6 12 5 13
 SMILES IDX 10 14 11 16 12 17 13 18 7 20 4 22 2 23 1 25 3 26 17 27 19 29
 SMILES IDX 24 31 25 32 26 33 27 34 39 35 28 36 38 37 29 38 30 39 31 40
 SMILES IDX 32 42 37 44 35 45 34 46 33 47 36 49
 H PARENT 21 4 10 15 13 19 7 21 4 24 17 28 19 30 32 43 36 50
 Flexibility Score: 90.00
  4 active torsions:
  status: ('A' for Active; 'I' for Inactive)
    1  A    between atoms: CA   and  CB  
    2  A    between atoms: CB   and  CG  
    3  A    between atoms: CG   and  CD  
    4  A    between atoms: CD   and  CE  

>  <TORSDO>
F 17

>  <BEGIN_>
RES LYS A 131

$$$$
ligand_69_pose_3_2HRL.pdbqt
 OpenBabel07062320523D

  6  5  0  0  0  0  0  0  0  0999 V2000
   33.1930   34.6630    9.2900 C   0  0  0  0  0  0  0  0  0  0  0  0
   32.0600   35.3600   10.0340 C   0  0  0  0  0  0  0  0  0  0  0  0
   30.8060   35.5160    9.2130 C   0  0  0  0  0  0  0  0  0  0  0  0
   30.0950   34.1800    9.0600 C   0  0  0  0  0  0  0  0  0  0  0  0
   28.7080   34.2420    9.6700 C   0  0  0  0  0  0  0  0  0  0  0  0
   28.7050   35.0620   10.9130 N   0  0  0  0  0  0  0  0  0  0  0  0
  1  2  1  0  0  0  0
  3  2  1  0  0  0  0
  4  3  1  0  0  0  0
  4  5  1  0  0  0  0
  5  6  1  0  0  0  0
M  END
>  <EGIN_R>
ES LYS A 135

>  <REMARK>
  4 active torsions:
  status: ('A' for Active; 'I' for Inactive)
    5  A    between atoms: CA   and  CB  
    6  A    between atoms: CB   and  CG  
    7  A    between atoms: CG   and  CD  
    8  A    between atoms: CD   and  CE  

$$$$
