ligand_24_pose_14_2HRL.pdbqt
 OpenBabel07062320523D

 52 53  0  0  1  0  0  0  0  0999 V2000
   26.7890   37.0870    9.4420 N   0  0  0  0  0  0  0  0  0  0  0  0
   27.1120   37.4620   10.7640 C   0  0  0  0  0  0  0  0  0  0  0  0
   26.3710   38.1840   11.4750 O   0  0  0  0  0  0  0  0  0  0  0  0
   27.4840   36.4870    8.9400 H   0  0  0  0  0  0  0  0  0  0  0  0
   25.5920   37.4700    8.7640 C   0  0  0  0  0  0  0  0  0  0  0  0
   24.4390   36.5460    8.9530 C   0  0  2  0  0  0  0  0  0  0  0  0
   23.4670   37.0300   10.0060 C   0  0  1  0  0  0  0  0  0  0  0  0
   22.0350   36.8430    9.6520 C   0  0  2  0  0  0  0  0  0  0  0  0
   20.5330   35.4480    8.5770 C   0  0  2  0  0  0  0  0  0  0  0  0
   19.8030   36.6070    7.9580 C   0  0  0  0  0  0  0  0  0  0  0  0
   21.8290   35.6780    8.9170 O   0  0  0  0  0  0  0  0  0  0  0  0
   20.1590   37.9320    8.5990 C   0  0  1  0  0  0  0  0  0  0  0  0
   21.6460   37.9820    8.7030 C   0  0  1  0  0  0  0  0  0  0  0  0
   20.5630   34.4540    7.5640 O   0  0  0  0  0  0  0  0  0  0  0  0
   19.9410   33.7510    7.8730 H   0  0  0  0  0  0  0  0  0  0  0  0
   19.6830   34.9050    9.6620 C   0  0  0  0  0  0  0  0  0  0  0  0
   18.4340   35.1090    9.7120 O   0  0  0  0  0  0  0  0  0  0  0  0
   20.2130   34.1340   10.6940 O   0  0  0  0  0  0  0  0  0  0  0  0
   21.2040   34.0660   10.8290 H   0  0  0  0  0  0  0  0  0  0  0  0
   19.6190   38.9680    7.8620 O   0  0  0  0  0  0  0  0  0  0  0  0
   19.8440   38.8550    6.9260 H   0  0  0  0  0  0  0  0  0  0  0  0
   22.1770   39.2510    9.0850 N   0  0  0  0  0  0  0  0  0  0  0  0
   22.9840   40.0680    8.2800 C   0  0  0  0  0  0  0  0  0  0  0  0
   21.9420   39.6080   10.0500 H   0  0  0  0  0  0  0  0  0  0  0  0
   23.4730   41.3680    8.7950 C   0  0  0  0  0  0  0  0  0  0  0  0
   23.2910   39.7080    7.1390 O   0  0  0  0  0  0  0  0  0  0  0  0
   23.7630   36.4290   11.2100 O   0  0  0  0  0  0  0  0  0  0  0  0
   24.6660   36.6000   11.5580 H   0  0  0  0  0  0  0  0  0  0  0  0
   24.8010   35.2460    9.1450 O   0  0  0  0  0  0  0  0  0  0  0  0
   25.4340   35.2150    9.9250 H   0  0  0  0  0  0  0  0  0  0  0  0
   28.3200   37.0170   11.3350 O   0  0  0  0  0  0  0  0  0  0  0  0
   28.2610   36.0120   12.3210 C   0  0  0  0  0  0  0  0  0  0  0  0
   29.5080   35.9150   13.1000 C   0  0  0  0  0  0  0  0  0  0  0  0
   30.1470   34.7490   13.5300 C   0  0  0  0  0  0  0  0  0  0  0  0
   30.2780   36.9190   13.5560 N   0  0  0  0  0  0  0  0  0  0  0  0
   31.2510   35.0870   14.2110 N   0  0  0  0  0  0  0  0  0  0  0  0
   31.3070   36.4050   14.2120 N   0  0  0  0  0  0  0  0  0  0  0  0
   32.2080   34.2100   14.8320 C   0  0  0  0  0  0  0  0  0  0  0  0
   31.5750   33.3580   15.8610 C   0  0  0  0  0  0  0  0  0  0  0  0
   31.1330   32.0940   15.5450 C   0  0  0  0  0  0  0  0  0  0  0  0
   31.4280   33.8310   17.1390 C   0  0  0  0  0  0  0  0  0  0  0  0
   30.5380   31.2980   16.5210 C   0  0  0  0  0  0  0  0  0  0  0  0
   30.8350   33.0450   18.1260 C   0  0  0  0  0  0  0  0  0  0  0  0
   30.3950   31.7850   17.8110 C   0  0  0  0  0  0  0  0  0  0  0  0
   29.7960   30.9720   18.7750 O   0  0  0  0  0  0  0  0  0  0  0  0
   30.5650   30.5090   19.8720 C   0  0  0  0  0  0  0  0  0  0  0  0
   29.8670   25.5550   16.9770 C   0  0  0  0  0  0  0  0  0  0  0  0
   28.3450   25.7220   17.0260 C   0  0  0  0  0  0  0  0  0  0  0  0
   27.5990   24.4750   16.5760 C   0  0  0  0  0  0  0  0  0  0  0  0
   27.0200   23.7120   17.7340 C   0  0  0  0  0  0  0  0  0  0  0  0
   25.7880   24.4410   18.2600 C   0  0  0  0  0  0  0  0  0  0  0  0
   25.5250   24.0660   19.6690 N   0  0  0  0  0  0  0  0  0  0  0  0
  1  2  1  0  0  0  0
  2 31  1  0  0  0  0
  2  3  2  0  0  0  0
  4  1  1  0  0  0  0
  5  1  1  0  0  0  0
  6  5  1  1  0  0  0
  6 29  1  0  0  0  0
  6  7  1  0  0  0  0
  7 27  1  1  0  0  0
  8  7  1  6  0  0  0
  9 14  1  6  0  0  0
  9 11  1  0  0  0  0
  9 16  1  0  0  0  0
 10  9  1  0  0  0  0
 10 12  1  0  0  0  0
 11  8  1  0  0  0  0
 12 20  1  6  0  0  0
 12 13  1  0  0  0  0
 13 22  1  1  0  0  0
 13  8  1  0  0  0  0
 14 15  1  0  0  0  0
 16 17  2  0  0  0  0
 16 18  1  0  0  0  0
 18 19  1  0  0  0  0
 21 20  1  0  0  0  0
 22 24  1  0  0  0  0
 23 25  1  0  0  0  0
 23 22  1  0  0  0  0
 26 23  2  0  0  0  0
 27 28  1  0  0  0  0
 29 30  1  0  0  0  0
 31 32  1  0  0  0  0
 32 33  1  0  0  0  0
 33 34  2  0  0  0  0
 33 35  1  0  0  0  0
 34 36  1  0  0  0  0
 35 37  2  0  0  0  0
 36 37  1  0  0  0  0
 36 38  1  0  0  0  0
 38 39  1  0  0  0  0
 39 41  1  0  0  0  0
 40 39  2  0  0  0  0
 40 42  1  0  0  0  0
 41 43  2  0  0  0  0
 42 44  2  0  0  0  0
 44 43  1  0  0  0  0
 44 45  1  0  0  0  0
 45 46  1  0  0  0  0
 47 48  1  0  0  0  0
 49 48  1  0  0  0  0
 49 50  1  0  0  0  0
 50 51  1  0  0  0  0
 51 52  1  0  0  0  0
M  END
>  <REMARK>
 VINA RESULT:    -4.933      6.473     11.830
 INTER + INTRA:         -14.391
 INTER:                  -9.808
 INTRA:                  -4.583
 UNBOUND:                -5.276
 SMILES COc1ccc(Cn2cc(COC(=O)NC[C@@H](O)C(O)[C@@H]3O[C@@](O)(C(=O)O)C[C@H](O)[C@H]3NC(C)=O)nn2)cc1
 SMILES IDX 15 1 13 2 14 3 16 5 17 6 19 7 21 8 23 9 28 10 22 11 29 12
 SMILES IDX 31 13 24 14 25 16 26 17 27 18 30 20 32 22 33 23 34 25 35 26
 SMILES IDX 20 27 18 29 12 31 11 32 10 33 9 34 36 35 8 36 37 37 7 38
 SMILES IDX 6 39 5 40 38 41 4 42 39 43 3 44 2 45 1 46
 H PARENT 15 4 24 15 27 19 30 21 32 24 20 28 18 30
 Flexibility Score: inf
  4 active torsions:
  status: ('A' for Active; 'I' for Inactive)
    1  A    between atoms: CA   and  CB  
    2  A    between atoms: CB   and  CG  
    3  A    between atoms: CG   and  CD  
    4  A    between atoms: CD   and  CE  

>  <TORSDO>
F 17

>  <BEGIN_>
RES LYS A 131

$$$$
ligand_24_pose_14_2HRL.pdbqt
 OpenBabel07062320523D

  6  5  0  0  0  0  0  0  0  0999 V2000
   33.1930   34.6630    9.2900 C   0  0  0  0  0  0  0  0  0  0  0  0
   32.0600   35.3600   10.0340 C   0  0  0  0  0  0  0  0  0  0  0  0
   30.7920   35.4760    9.2280 C   0  0  0  0  0  0  0  0  0  0  0  0
   29.8900   34.2760    9.4710 C   0  0  0  0  0  0  0  0  0  0  0  0
   28.6640   34.3420    8.5800 C   0  0  0  0  0  0  0  0  0  0  0  0
   28.8870   35.2580    7.4280 N   0  0  0  0  0  0  0  0  0  0  0  0
  1  2  1  0  0  0  0
  3  4  1  0  0  0  0
  3  2  1  0  0  0  0
  5  4  1  0  0  0  0
  6  5  1  0  0  0  0
M  END
>  <EGIN_R>
ES LYS A 135

>  <REMARK>
  4 active torsions:
  status: ('A' for Active; 'I' for Inactive)
    5  A    between atoms: CA   and  CB  
    6  A    between atoms: CB   and  CG  
    7  A    between atoms: CG   and  CD  
    8  A    between atoms: CD   and  CE  

$$$$
