ligand_45_pose_2_2HRL.pdbqt
 OpenBabel07062320523D

 52 52  0  0  1  0  0  0  0  0999 V2000
   32.9910   35.9330   14.9040 O   0  0  0  0  0  0  0  0  0  0  0  0
   32.2640   35.4380   15.9670 C   0  0  0  0  0  0  0  0  0  0  0  0
   32.1270   34.0330   16.2090 N   0  0  0  0  0  0  0  0  0  0  0  0
   32.6110   33.4150   15.5490 H   0  0  0  0  0  0  0  0  0  0  0  0
   31.7050   36.2470   16.7430 O   0  0  0  0  0  0  0  0  0  0  0  0
   31.3640   33.6020   17.3210 C   0  0  0  0  0  0  0  0  0  0  0  0
   29.9780   33.1260   17.0420 C   0  0  2  0  0  0  0  0  0  0  0  0
   29.8690   31.7660   16.4260 C   0  0  1  0  0  0  0  0  0  0  0  0
   28.6270   31.0050   16.7810 C   0  0  2  0  0  0  0  0  0  0  0  0
   26.3420   31.0420   16.5360 C   0  0  2  0  0  0  0  0  0  0  0  0
   26.5470   29.6340   17.0620 C   0  0  0  0  0  0  0  0  0  0  0  0
   27.5340   31.6840   16.3010 O   0  0  0  0  0  0  0  0  0  0  0  0
   27.3220   29.6550   18.3430 C   0  0  1  0  0  0  0  0  0  0  0  0
   28.4540   30.6790   18.2230 C   0  0  1  0  0  0  0  0  0  0  0  0
   25.6450   31.7540   17.5290 O   0  0  0  0  0  0  0  0  0  0  0  0
   25.7030   32.7090   17.2660 H   0  0  0  0  0  0  0  0  0  0  0  0
   25.5150   31.0050   15.3190 C   0  0  0  0  0  0  0  0  0  0  0  0
   24.9480   29.9330   14.9660 O   0  0  0  0  0  0  0  0  0  0  0  0
   25.3320   32.1240   14.5340 O   0  0  0  0  0  0  0  0  0  0  0  0
   25.2870   32.0580   13.5350 H   0  0  0  0  0  0  0  0  0  0  0  0
   26.4550   30.0070   19.3860 O   0  0  0  0  0  0  0  0  0  0  0  0
   26.4770   29.3110   20.0780 H   0  0  0  0  0  0  0  0  0  0  0  0
   29.6250   29.9850   18.7690 N   0  0  0  0  0  0  0  0  0  0  0  0
   30.3030   30.5020   19.8980 C   0  0  0  0  0  0  0  0  0  0  0  0
   29.9500   29.1030   18.3120 H   0  0  0  0  0  0  0  0  0  0  0  0
   31.5000   29.7850   20.4430 C   0  0  0  0  0  0  0  0  0  0  0  0
   29.9490   31.5660   20.4950 O   0  0  0  0  0  0  0  0  0  0  0  0
   29.9860   31.8890   15.0330 O   0  0  0  0  0  0  0  0  0  0  0  0
   29.1350   31.5520   14.6370 H   0  0  0  0  0  0  0  0  0  0  0  0
   29.3840   34.0860   16.1940 O   0  0  0  0  0  0  0  0  0  0  0  0
   28.9540   33.6820   15.4140 H   0  0  0  0  0  0  0  0  0  0  0  0
   32.7470   35.4150   13.6030 C   0  0  0  0  0  0  0  0  0  0  0  0
   31.2900   35.3030   13.3700 C   0  0  0  0  0  0  0  0  0  0  0  0
   30.3720   36.2730   13.0310 C   0  0  0  0  0  0  0  0  0  0  0  0
   30.5660   34.1670   13.4570 N   0  0  0  0  0  0  0  0  0  0  0  0
   29.1440   35.7280   12.9210 N   0  0  0  0  0  0  0  0  0  0  0  0
   29.3070   34.4490   13.1870 N   0  0  0  0  0  0  0  0  0  0  0  0
   27.9040   36.3530   12.5960 C   0  0  0  0  0  0  0  0  0  0  0  0
   27.1190   35.6450   11.5590 C   0  0  0  0  0  0  0  0  0  0  0  0
   25.7810   36.1510   11.2140 C   0  0  0  0  0  0  0  0  0  0  0  0
   25.3920   36.3160    9.8740 N   0  0  0  0  0  0  0  0  0  0  0  0
   25.5600   35.1860    9.0010 C   0  0  0  0  0  0  0  0  0  0  0  0
   23.9330   36.5450    9.9040 C   0  0  0  0  0  0  0  0  0  0  0  0
   23.1310   35.4700    9.2800 C   0  0  0  0  0  0  0  0  0  0  0  0
   25.9620   37.4690    9.2360 C   0  0  0  0  0  0  0  0  0  0  0  0
   26.0070   37.4120    7.7520 C   0  0  0  0  0  0  0  0  0  0  0  0
   29.8670   25.5550   16.9770 C   0  0  0  0  0  0  0  0  0  0  0  0
   28.3450   25.7220   17.0260 C   0  0  0  0  0  0  0  0  0  0  0  0
   27.5990   24.4250   16.7510 C   0  0  0  0  0  0  0  0  0  0  0  0
   26.9300   23.8840   17.9840 C   0  0  0  0  0  0  0  0  0  0  0  0
   25.5790   23.2830   17.6080 C   0  0  0  0  0  0  0  0  0  0  0  0
   24.7500   24.2790   16.8890 N   0  0  0  0  0  0  0  0  0  0  0  0
  1  2  1  0  0  0  0
  2  3  1  0  0  0  0
  2  5  2  0  0  0  0
  3  6  1  0  0  0  0
  4  3  1  0  0  0  0
  7  6  1  6  0  0  0
  8 28  1  6  0  0  0
  8  7  1  0  0  0  0
  9  8  1  1  0  0  0
  9 14  1  0  0  0  0
 10 17  1  6  0  0  0
 10 11  1  0  0  0  0
 10 15  1  0  0  0  0
 11 13  1  0  0  0  0
 12 10  1  0  0  0  0
 12  9  1  0  0  0  0
 13 21  1  1  0  0  0
 14 13  1  0  0  0  0
 14 23  1  6  0  0  0
 16 15  1  0  0  0  0
 18 17  2  0  0  0  0
 19 17  1  0  0  0  0
 20 19  1  0  0  0  0
 21 22  1  0  0  0  0
 23 24  1  0  0  0  0
 24 26  1  0  0  0  0
 24 27  2  0  0  0  0
 25 23  1  0  0  0  0
 29 28  1  0  0  0  0
 30  7  1  0  0  0  0
 31 30  1  0  0  0  0
 32  1  1  0  0  0  0
 33 35  1  0  0  0  0
 33 32  1  0  0  0  0
 34 33  2  0  0  0  0
 36 34  1  0  0  0  0
 36 37  1  0  0  0  0
 37 35  2  0  0  0  0
 38 36  1  0  0  0  0
 39 38  1  0  0  0  0
 40 39  1  0  0  0  0
 41 43  1  0  0  0  0
 41 40  1  0  0  0  0
 42 41  1  0  0  0  0
 44 43  1  0  0  0  0
 45 41  1  0  0  0  0
 46 45  1  0  0  0  0
 47 48  1  0  0  0  0
 49 48  1  0  0  0  0
 49 50  1  0  0  0  0
 51 50  1  0  0  0  0
 52 51  1  0  0  0  0
M  END
>  <REMARK>
 VINA RESULT:    -4.473      3.285      7.702
 INTER + INTRA:         -14.924
 INTER:                  -8.436
 INTRA:                  -6.488
 UNBOUND:                -5.875
 SMILES CC[N+](C)(CC)CCCn1cc(COC(=O)NC[C@@H](O)C(O)[C@@H]2O[C@@](O)(C(=O)O)C[C@H](O)[C@H]2NC(C)=O)nn1
 SMILES IDX 14 1 15 2 17 3 16 5 18 6 19 7 21 8 23 9 25 10 30 11 24 12
 SMILES IDX 31 13 33 14 26 15 27 17 28 18 29 19 32 21 34 23 35 24 36 26
 SMILES IDX 37 27 22 28 20 30 13 32 12 33 11 34 38 35 10 36 39 37 9 38
 SMILES IDX 8 39 7 40 3 41 4 42 2 43 1 44 5 45 6 46
 H PARENT 17 4 26 16 29 20 32 22 34 25 22 29 20 31
 Flexibility Score: inf
  4 active torsions:
  status: ('A' for Active; 'I' for Inactive)
    1  A    between atoms: CA   and  CB  
    2  A    between atoms: CB   and  CG  
    3  A    between atoms: CG   and  CD  
    4  A    between atoms: CD   and  CE  

>  <TORSDO>
F 20

>  <BEGIN_>
RES LYS A 131

$$$$
ligand_45_pose_2_2HRL.pdbqt
 OpenBabel07062320523D

  6  5  0  0  0  0  0  0  0  0999 V2000
   33.1930   34.6630    9.2900 C   0  0  0  0  0  0  0  0  0  0  0  0
   32.0600   35.3600   10.0340 C   0  0  0  0  0  0  0  0  0  0  0  0
   30.7060   34.7500    9.7780 C   0  0  0  0  0  0  0  0  0  0  0  0
   30.4800   34.5520    8.2870 C   0  0  0  0  0  0  0  0  0  0  0  0
   29.0410   34.8600    7.9210 C   0  0  0  0  0  0  0  0  0  0  0  0
   28.9610   35.5880    6.6240 N   0  0  0  0  0  0  0  0  0  0  0  0
  1  2  1  0  0  0  0
  3  2  1  0  0  0  0
  4  3  1  0  0  0  0
  5  4  1  0  0  0  0
  6  5  1  0  0  0  0
M  END
>  <EGIN_R>
ES LYS A 135

>  <REMARK>
  4 active torsions:
  status: ('A' for Active; 'I' for Inactive)
    5  A    between atoms: CA   and  CB  
    6  A    between atoms: CB   and  CG  
    7  A    between atoms: CG   and  CD  
    8  A    between atoms: CD   and  CE  

$$$$
