ligand_1_pose_3_2HRL.pdbqt
 OpenBabel07062320523D

 47 47  0  0  1  0  0  0  0  0999 V2000
   24.7260   37.9300   11.3420 N   0  0  0  0  0  0  0  0  0  0  0  0
   23.3460   38.0890   11.5020 C   0  0  0  0  0  0  0  0  0  0  0  0
   22.6930   37.2420   12.1050 O   0  0  0  0  0  0  0  0  0  0  0  0
   25.2060   38.7240   10.7980 H   0  0  0  0  0  0  0  0  0  0  0  0
   25.5750   36.8910   11.7840 C   0  0  0  0  0  0  0  0  0  0  0  0
   26.3860   36.1690   10.7550 C   0  0  2  0  0  0  0  0  0  0  0  0
   26.0960   36.6410    9.3630 C   0  0  1  0  0  0  0  0  0  0  0  0
   27.0960   36.4190    8.3100 C   0  0  2  0  0  0  0  0  0  0  0  0
   29.2600   35.8050    7.8110 C   0  0  2  0  0  0  0  0  0  0  0  0
   28.6450   35.5310    6.4550 C   0  0  0  0  0  0  0  0  0  0  0  0
   28.3170   36.0440    8.8100 O   0  0  0  0  0  0  0  0  0  0  0  0
   27.8040   36.7190    6.0070 C   0  0  1  0  0  0  0  0  0  0  0  0
   27.2720   37.4550    7.2530 C   0  0  1  0  0  0  0  0  0  0  0  0
   30.0760   36.9320    7.7590 O   0  0  0  0  0  0  0  0  0  0  0  0
   30.2850   37.2100    6.8380 H   0  0  0  0  0  0  0  0  0  0  0  0
   30.0670   34.6530    8.2730 C   0  0  0  0  0  0  0  0  0  0  0  0
   29.6040   33.7480    9.0130 O   0  0  0  0  0  0  0  0  0  0  0  0
   31.3900   34.5570    7.8800 O   0  0  0  0  0  0  0  0  0  0  0  0
   31.6160   34.3720    6.8920 H   0  0  0  0  0  0  0  0  0  0  0  0
   28.5880   37.5660    5.2360 O   0  0  0  0  0  0  0  0  0  0  0  0
   28.4300   37.3220    4.2870 H   0  0  0  0  0  0  0  0  0  0  0  0
   26.0560   38.1530    6.8870 N   0  0  0  0  0  0  0  0  0  0  0  0
   26.0790   39.5700    6.8220 C   0  0  0  0  0  0  0  0  0  0  0  0
   25.1650   37.6420    6.6720 H   0  0  0  0  0  0  0  0  0  0  0  0
   24.8790   40.3720    6.4570 C   0  0  0  0  0  0  0  0  0  0  0  0
   27.1410   40.1810    7.0780 O   0  0  0  0  0  0  0  0  0  0  0  0
   24.8740   35.9470    9.0280 O   0  0  0  0  0  0  0  0  0  0  0  0
   25.0800   35.2750    8.3560 H   0  0  0  0  0  0  0  0  0  0  0  0
   26.3140   34.8240   10.9030 O   0  0  0  0  0  0  0  0  0  0  0  0
   25.4170   34.4370   10.9130 H   0  0  0  0  0  0  0  0  0  0  0  0
   22.6750   39.1980   10.9910 O   0  0  0  0  0  0  0  0  0  0  0  0
   22.7630   39.5590    9.6290 C   0  0  0  0  0  0  0  0  0  0  0  0
   22.2810   38.4370    8.7870 C   0  0  0  0  0  0  0  0  0  0  0  0
   21.0190   37.8970    8.7590 C   0  0  0  0  0  0  0  0  0  0  0  0
   23.0040   37.7590    7.9070 N   0  0  0  0  0  0  0  0  0  0  0  0
   21.0590   36.9100    7.8470 N   0  0  0  0  0  0  0  0  0  0  0  0
   22.2690   36.8180    7.3220 N   0  0  0  0  0  0  0  0  0  0  0  0
   19.9260   36.0740    7.5030 C   0  0  0  0  0  0  0  0  0  0  0  0
   18.6430   36.8350    7.8270 C   0  0  0  0  0  0  0  0  0  0  0  0
   18.2920   37.6170    6.7070 O   0  0  0  0  0  0  0  0  0  0  0  0
   18.4140   38.5910    6.9230 H   0  0  0  0  0  0  0  0  0  0  0  0
   29.8670   25.5550   16.9770 C   0  0  0  0  0  0  0  0  0  0  0  0
   28.3450   25.7220   17.0260 C   0  0  0  0  0  0  0  0  0  0  0  0
   27.6010   24.4020   16.8960 C   0  0  0  0  0  0  0  0  0  0  0  0
   26.6260   24.1880   18.0200 C   0  0  0  0  0  0  0  0  0  0  0  0
   25.6170   23.1160   17.6220 C   0  0  0  0  0  0  0  0  0  0  0  0
   24.2510   23.5050   18.0470 N   0  0  0  0  0  0  0  0  0  0  0  0
  1  2  1  0  0  0  0
  1  5  1  0  0  0  0
  2  3  2  0  0  0  0
  4  1  1  0  0  0  0
  6 29  1  0  0  0  0
  6  5  1  1  0  0  0
  7 27  1  6  0  0  0
  7  6  1  0  0  0  0
  8 11  1  0  0  0  0
  8  7  1  1  0  0  0
  9 14  1  6  0  0  0
  9 16  1  0  0  0  0
  9 11  1  0  0  0  0
 10  9  1  0  0  0  0
 12 20  1  1  0  0  0
 12 10  1  0  0  0  0
 12 13  1  0  0  0  0
 13 22  1  6  0  0  0
 13  8  1  0  0  0  0
 15 14  1  0  0  0  0
 16 17  2  0  0  0  0
 18 16  1  0  0  0  0
 19 18  1  0  0  0  0
 21 20  1  0  0  0  0
 23 22  1  0  0  0  0
 23 26  2  0  0  0  0
 24 22  1  0  0  0  0
 25 23  1  0  0  0  0
 28 27  1  0  0  0  0
 29 30  1  0  0  0  0
 31  2  1  0  0  0  0
 32 31  1  0  0  0  0
 33 32  1  0  0  0  0
 34 33  2  0  0  0  0
 35 33  1  0  0  0  0
 36 34  1  0  0  0  0
 37 36  1  0  0  0  0
 37 35  2  0  0  0  0
 38 39  1  0  0  0  0
 38 36  1  0  0  0  0
 40 41  1  0  0  0  0
 40 39  1  0  0  0  0
 42 43  1  0  0  0  0
 44 43  1  0  0  0  0
 44 45  1  0  0  0  0
 46 45  1  0  0  0  0
 46 47  1  0  0  0  0
M  END
>  <REMARK>
 VINA RESULT:    -3.347      4.189      7.984
 INTER + INTRA:         -13.658
 INTER:                  -9.135
 INTRA:                  -4.523
 UNBOUND:                -7.572
 SMILES CC(=O)N[C@@H]1[C@@H](O)C[C@](O)(C(=O)O)O[C@H]1C(O)[C@H](O)CNC(=O)OCc1cn(CCO)nn1
 SMILES IDX 21 1 22 2 23 3 20 5 18 6 16 7 15 8 9 9 8 10 14 11 6 12 5 13
 SMILES IDX 10 14 11 16 12 17 13 18 7 20 4 22 2 23 1 25 3 26 17 27 19 29
 SMILES IDX 24 31 25 32 26 33 27 34 33 35 28 36 32 37 29 38 30 39 31 40
 H PARENT 21 4 10 15 13 19 7 21 4 24 17 28 19 30 31 41
 Flexibility Score: inf
  4 active torsions:
  status: ('A' for Active; 'I' for Inactive)
    1  A    between atoms: CA   and  CB  
    2  A    between atoms: CB   and  CG  
    3  A    between atoms: CG   and  CD  
    4  A    between atoms: CD   and  CE  

>  <TORSDO>
F 17

>  <BEGIN_>
RES LYS A 131

$$$$
ligand_1_pose_3_2HRL.pdbqt
 OpenBabel07062320523D

  6  5  0  0  0  0  0  0  0  0999 V2000
   33.1930   34.6630    9.2900 C   0  0  0  0  0  0  0  0  0  0  0  0
   32.0600   35.3600   10.0340 C   0  0  0  0  0  0  0  0  0  0  0  0
   32.4950   36.0110   11.3210 C   0  0  0  0  0  0  0  0  0  0  0  0
   31.5660   35.6220   12.4610 C   0  0  0  0  0  0  0  0  0  0  0  0
   30.1280   35.5670   11.9800 C   0  0  0  0  0  0  0  0  0  0  0  0
   29.3390   34.5760   12.7630 N   0  0  0  0  0  0  0  0  0  0  0  0
  1  2  1  0  0  0  0
  2  3  1  0  0  0  0
  3  4  1  0  0  0  0
  5  4  1  0  0  0  0
  5  6  1  0  0  0  0
M  END
>  <EGIN_R>
ES LYS A 135

>  <REMARK>
  4 active torsions:
  status: ('A' for Active; 'I' for Inactive)
    5  A    between atoms: CA   and  CB  
    6  A    between atoms: CB   and  CG  
    7  A    between atoms: CG   and  CD  
    8  A    between atoms: CD   and  CE  

$$$$
