ligand_60_pose_13_2HRL.pdbqt
 OpenBabel07062320523D

 55 56  0  0  1  0  0  0  0  0999 V2000
   28.9020   39.2710    6.4920 N   0  0  0  0  0  0  0  0  0  0  0  0
   30.1490   39.8840    6.3010 C   0  0  0  0  0  0  0  0  0  0  0  0
   30.9990   39.3790    5.5510 O   0  0  0  0  0  0  0  0  0  0  0  0
   28.2220   39.7530    7.1410 H   0  0  0  0  0  0  0  0  0  0  0  0
   28.5440   38.0540    5.8520 C   0  0  0  0  0  0  0  0  0  0  0  0
   27.3630   37.3540    6.5130 C   0  0  2  0  0  0  0  0  0  0  0  0
   27.0800   38.0350    7.8210 C   0  0  1  0  0  0  0  0  0  0  0  0
   25.6490   38.3180    8.0760 C   0  0  2  0  0  0  0  0  0  0  0  0
   23.5830   37.2490    7.9480 C   0  0  2  0  0  0  0  0  0  0  0  0
   23.2190   38.4780    8.7440 C   0  0  0  0  0  0  0  0  0  0  0  0
   24.9040   37.2070    7.5990 O   0  0  0  0  0  0  0  0  0  0  0  0
   23.7080   39.7500    8.1250 C   0  0  1  0  0  0  0  0  0  0  0  0
   25.0340   39.5100    7.4450 C   0  0  1  0  0  0  0  0  0  0  0  0
   22.7340   37.1020    6.8250 O   0  0  0  0  0  0  0  0  0  0  0  0
   23.0400   37.6740    6.0770 H   0  0  0  0  0  0  0  0  0  0  0  0
   23.2990   36.0730    8.8130 C   0  0  0  0  0  0  0  0  0  0  0  0
   24.1800   35.7190    9.6360 O   0  0  0  0  0  0  0  0  0  0  0  0
   22.1260   35.3430    8.7680 O   0  0  0  0  0  0  0  0  0  0  0  0
   21.3550   35.5540    9.3960 H   0  0  0  0  0  0  0  0  0  0  0  0
   22.7310   40.2190    7.2550 O   0  0  0  0  0  0  0  0  0  0  0  0
   22.5520   39.4850    6.6140 H   0  0  0  0  0  0  0  0  0  0  0  0
   25.8210   40.6750    7.2970 N   0  0  0  0  0  0  0  0  0  0  0  0
   25.8120   41.4560    6.1190 C   0  0  0  0  0  0  0  0  0  0  0  0
   26.4230   41.0040    8.0770 H   0  0  0  0  0  0  0  0  0  0  0  0
   26.6570   42.6930    5.9780 C   0  0  0  0  0  0  0  0  0  0  0  0
   25.0780   41.0900    5.1840 O   0  0  0  0  0  0  0  0  0  0  0  0
   27.8460   37.6340    8.8830 O   0  0  0  0  0  0  0  0  0  0  0  0
   27.2930   37.6260    9.6950 H   0  0  0  0  0  0  0  0  0  0  0  0
   27.6260   36.0120    6.5850 O   0  0  0  0  0  0  0  0  0  0  0  0
   27.0750   35.5890    7.2990 H   0  0  0  0  0  0  0  0  0  0  0  0
   30.5020   41.0840    6.9370 O   0  0  0  0  0  0  0  0  0  0  0  0
   31.4500   41.1050    7.9580 C   0  0  0  0  0  0  0  0  0  0  0  0
   31.0680   40.2380    9.0940 C   0  0  0  0  0  0  0  0  0  0  0  0
   31.8490   39.4760    9.9290 C   0  0  0  0  0  0  0  0  0  0  0  0
   29.7930   40.0500    9.5200 N   0  0  0  0  0  0  0  0  0  0  0  0
   31.0660   38.8510   10.8270 N   0  0  0  0  0  0  0  0  0  0  0  0
   29.8320   39.2210   10.5490 N   0  0  0  0  0  0  0  0  0  0  0  0
   31.4450   37.9650   11.8760 C   0  0  0  0  0  0  0  0  0  0  0  0
   30.9810   38.1250   13.1630 C   0  0  0  0  0  0  0  0  0  0  0  0
   32.3010   36.9040   11.6430 C   0  0  0  0  0  0  0  0  0  0  0  0
   31.3390   37.2770   14.1880 C   0  0  0  0  0  0  0  0  0  0  0  0
   32.6610   36.0530   12.6670 C   0  0  0  0  0  0  0  0  0  0  0  0
   32.2040   36.2020   13.9590 C   0  0  0  0  0  0  0  0  0  0  0  0
   32.6560   35.1300   15.2640 S   0  0  0  0  0  0  0  0  0  0  0  0
   34.1320   35.3030   15.4910 O   0  0  0  0  0  0  0  0  0  0  0  0
   31.9670   35.5930   16.5270 O   0  0  0  0  0  0  0  0  0  0  0  0
   32.2890   33.4900   14.9350 N   0  0  0  0  0  0  0  0  0  0  0  0
   32.0830   32.9150   15.7590 H   0  0  0  0  0  0  0  0  0  0  0  0
   31.5680   33.3880   14.1850 H   0  0  0  0  0  0  0  0  0  0  0  0
   29.8670   25.5550   16.9770 C   0  0  0  0  0  0  0  0  0  0  0  0
   28.3450   25.7220   17.0260 C   0  0  0  0  0  0  0  0  0  0  0  0
   27.6010   24.4010   16.9030 C   0  0  0  0  0  0  0  0  0  0  0  0
   26.1540   24.5280   17.2890 C   0  0  0  0  0  0  0  0  0  0  0  0
   25.7950   23.4310   18.2880 C   0  0  0  0  0  0  0  0  0  0  0  0
   25.0080   22.3640   17.6260 N   0  0  0  0  0  0  0  0  0  0  0  0
  1  4  1  0  0  0  0
  2  1  1  0  0  0  0
  2 31  1  0  0  0  0
  3  2  2  0  0  0  0
  5  1  1  0  0  0  0
  6  5  1  1  0  0  0
  6 29  1  0  0  0  0
  6  7  1  0  0  0  0
  7 27  1  1  0  0  0
  8  7  1  6  0  0  0
  9 14  1  6  0  0  0
  9 10  1  0  0  0  0
  9 16  1  0  0  0  0
 11  9  1  0  0  0  0
 11  8  1  0  0  0  0
 12 20  1  6  0  0  0
 12 10  1  0  0  0  0
 13 22  1  1  0  0  0
 13  8  1  0  0  0  0
 13 12  1  0  0  0  0
 15 14  1  0  0  0  0
 16 17  2  0  0  0  0
 18 16  1  0  0  0  0
 18 19  1  0  0  0  0
 21 20  1  0  0  0  0
 22 24  1  0  0  0  0
 23 22  1  0  0  0  0
 25 23  1  0  0  0  0
 26 23  2  0  0  0  0
 27 28  1  0  0  0  0
 29 30  1  0  0  0  0
 31 32  1  0  0  0  0
 32 33  1  0  0  0  0
 33 35  1  0  0  0  0
 33 34  2  0  0  0  0
 34 36  1  0  0  0  0
 35 37  2  0  0  0  0
 36 38  1  0  0  0  0
 37 36  1  0  0  0  0
 38 39  1  0  0  0  0
 39 41  2  0  0  0  0
 40 38  2  0  0  0  0
 40 42  1  0  0  0  0
 42 43  2  0  0  0  0
 43 41  1  0  0  0  0
 43 44  1  0  0  0  0
 44 45  2  0  0  0  0
 44 46  2  0  0  0  0
 47 44  1  0  0  0  0
 47 48  1  0  0  0  0
 49 47  1  0  0  0  0
 50 51  1  0  0  0  0
 52 51  1  0  0  0  0
 52 53  1  0  0  0  0
 53 54  1  0  0  0  0
 55 54  1  0  0  0  0
M  END
>  <REMARK>
 VINA RESULT:    -4.770      6.586     14.117
 INTER + INTRA:         -14.637
 INTER:                  -8.880
 INTRA:                  -5.757
 UNBOUND:                -5.964
 SMILES CC(=O)N[C@@H]1[C@@H](O)C[C@](O)(C(=O)O)O[C@H]1C(O)[C@H](O)CNC(=O)OCc1cn(-c2ccc(S(N)(=O)=O)cc2)nn1
 SMILES IDX 21 1 22 2 23 3 20 5 18 6 16 7 15 8 9 9 8 10 14 11 6 12 5 13
 SMILES IDX 10 14 11 16 12 17 13 18 7 20 4 22 2 23 1 25 3 26 17 27 19 29
 SMILES IDX 24 31 25 32 26 33 27 34 40 35 28 36 39 37 29 38 30 39 38 40
 SMILES IDX 31 41 37 42 32 43 33 44 35 45 36 46 34 47
 H PARENT 21 4 10 15 13 19 7 21 4 24 17 28 19 30 34 48 34 49
 Flexibility Score: inf
  4 active torsions:
  status: ('A' for Active; 'I' for Inactive)
    1  A    between atoms: CA   and  CB  
    2  A    between atoms: CB   and  CG  
    3  A    between atoms: CG   and  CD  
    4  A    between atoms: CD   and  CE  

>  <TORSDO>
F 17

>  <BEGIN_>
RES LYS A 131

$$$$
ligand_60_pose_13_2HRL.pdbqt
 OpenBabel07062320523D

  6  5  0  0  0  0  0  0  0  0999 V2000
   33.1930   34.6630    9.2900 C   0  0  0  0  0  0  0  0  0  0  0  0
   32.0600   35.3600   10.0340 C   0  0  0  0  0  0  0  0  0  0  0  0
   30.7890   35.4680    9.2310 C   0  0  0  0  0  0  0  0  0  0  0  0
   30.2200   34.0890    8.9390 C   0  0  0  0  0  0  0  0  0  0  0  0
   28.7510   34.0290    9.3120 C   0  0  0  0  0  0  0  0  0  0  0  0
   28.5350   34.4770   10.7150 N   0  0  0  0  0  0  0  0  0  0  0  0
  1  2  1  0  0  0  0
  3  2  1  0  0  0  0
  4  3  1  0  0  0  0
  4  5  1  0  0  0  0
  5  6  1  0  0  0  0
M  END
>  <EGIN_R>
ES LYS A 135

>  <REMARK>
  4 active torsions:
  status: ('A' for Active; 'I' for Inactive)
    5  A    between atoms: CA   and  CB  
    6  A    between atoms: CB   and  CG  
    7  A    between atoms: CG   and  CD  
    8  A    between atoms: CD   and  CE  

$$$$
