ligand_17_pose_1_2HRL.pdbqt
 OpenBabel07062320523D

 50 50  0  0  1  0  0  0  0  0999 V2000
   27.4670   29.1580   19.0310 N   0  0  0  0  0  0  0  0  0  0  0  0
   27.0750   28.6330   17.7620 C   0  0  0  0  0  0  0  0  0  0  0  0
   26.1670   27.7870   17.6910 O   0  0  0  0  0  0  0  0  0  0  0  0
   28.2300   29.8570   19.0150 H   0  0  0  0  0  0  0  0  0  0  0  0
   26.8730   28.7680   20.2720 C   0  0  0  0  0  0  0  0  0  0  0  0
   27.6550   27.7280   21.0240 C   0  0  2  0  0  0  0  0  0  0  0  0
   29.1390   27.9270   20.8080 C   0  0  1  0  0  0  0  0  0  0  0  0
   29.7550   28.7330   21.9150 C   0  0  2  0  0  0  0  0  0  0  0  0
   30.9520   30.2200   20.5410 C   0  0  2  0  0  0  0  0  0  0  0  0
   32.2080   29.3980   20.7990 C   0  0  0  0  0  0  0  0  0  0  0  0
   29.9750   30.0110   21.4690 O   0  0  0  0  0  0  0  0  0  0  0  0
   32.1660   29.0030   22.2790 C   0  0  1  0  0  0  0  0  0  0  0  0
   30.9920   28.1100   22.4610 C   0  0  1  0  0  0  0  0  0  0  0  0
   30.5770   29.9960   19.2180 O   0  0  0  0  0  0  0  0  0  0  0  0
   30.9840   30.6770   18.6120 H   0  0  0  0  0  0  0  0  0  0  0  0
   31.3410   31.6620   20.6510 C   0  0  0  0  0  0  0  0  0  0  0  0
   32.4250   32.0260   21.1540 O   0  0  0  0  0  0  0  0  0  0  0  0
   30.4710   32.6220   20.1790 O   0  0  0  0  0  0  0  0  0  0  0  0
   29.6820   32.4170   19.5730 H   0  0  0  0  0  0  0  0  0  0  0  0
   33.3810   28.3900   22.5840 O   0  0  0  0  0  0  0  0  0  0  0  0
   33.9630   29.1150   22.9770 H   0  0  0  0  0  0  0  0  0  0  0  0
   30.8360   27.6450   23.8270 N   0  0  0  0  0  0  0  0  0  0  0  0
   30.3170   26.3610   24.1590 C   0  0  0  0  0  0  0  0  0  0  0  0
   31.1080   28.2530   24.6500 H   0  0  0  0  0  0  0  0  0  0  0  0
   30.1770   25.9330   25.5870 C   0  0  0  0  0  0  0  0  0  0  0  0
   29.9700   25.5740   23.2580 O   0  0  0  0  0  0  0  0  0  0  0  0
   29.6660   26.6240   20.7520 O   0  0  0  0  0  0  0  0  0  0  0  0
   30.4540   26.6840   20.1490 H   0  0  0  0  0  0  0  0  0  0  0  0
   27.1940   26.4750   20.7350 O   0  0  0  0  0  0  0  0  0  0  0  0
   26.2400   26.4000   20.9900 H   0  0  0  0  0  0  0  0  0  0  0  0
   27.6690   29.0330   16.5770 O   0  0  0  0  0  0  0  0  0  0  0  0
   27.4560   30.3230   16.0210 C   0  0  0  0  0  0  0  0  0  0  0  0
   28.6250   31.1700   16.3700 C   0  0  0  0  0  0  0  0  0  0  0  0
   29.5950   31.5640   15.4490 C   0  0  0  0  0  0  0  0  0  0  0  0
   29.0000   31.7120   17.5350 N   0  0  0  0  0  0  0  0  0  0  0  0
   30.4900   32.3100   16.0900 N   0  0  0  0  0  0  0  0  0  0  0  0
   30.1200   32.3920   17.3500 N   0  0  0  0  0  0  0  0  0  0  0  0
   31.6590   32.9190   15.5160 C   0  0  0  0  0  0  0  0  0  0  0  0
   31.5970   34.4160   15.7600 C   0  0  0  0  0  0  0  0  0  0  0  0
   30.4320   35.0360   15.2170 N   0  0  0  0  0  0  0  0  0  0  0  0
   30.4910   35.3140   13.8210 C   0  0  0  0  0  0  0  0  0  0  0  0
   29.3140   34.5750   13.1670 C   0  0  0  0  0  0  0  0  0  0  0  0
   29.8820   36.0520   16.0490 C   0  0  0  0  0  0  0  0  0  0  0  0
   28.5770   35.6850   16.6850 C   0  0  0  0  0  0  0  0  0  0  0  0
   29.8670   25.5550   16.9770 C   0  0  0  0  0  0  0  0  0  0  0  0
   28.3450   25.7220   17.0260 C   0  0  0  0  0  0  0  0  0  0  0  0
   27.6010   24.4010   16.9000 C   0  0  0  0  0  0  0  0  0  0  0  0
   26.5480   24.2410   17.9620 C   0  0  0  0  0  0  0  0  0  0  0  0
   25.5970   23.1150   17.5690 C   0  0  0  0  0  0  0  0  0  0  0  0
   24.3520   23.6670   16.9850 N   0  0  0  0  0  0  0  0  0  0  0  0
  1  5  1  0  0  0  0
  2  1  1  0  0  0  0
  3  2  2  0  0  0  0
  4  1  1  0  0  0  0
  6  5  1  6  0  0  0
  7 27  1  1  0  0  0
  7  6  1  0  0  0  0
  8  7  1  6  0  0  0
  8 13  1  0  0  0  0
  9 14  1  6  0  0  0
  9 16  1  0  0  0  0
  9 10  1  0  0  0  0
  9 11  1  0  0  0  0
 10 12  1  0  0  0  0
 11  8  1  0  0  0  0
 12 13  1  0  0  0  0
 12 20  1  6  0  0  0
 13 22  1  1  0  0  0
 15 14  1  0  0  0  0
 16 17  2  0  0  0  0
 18 16  1  0  0  0  0
 19 18  1  0  0  0  0
 20 21  1  0  0  0  0
 22 23  1  0  0  0  0
 22 24  1  0  0  0  0
 23 25  1  0  0  0  0
 26 23  2  0  0  0  0
 28 27  1  0  0  0  0
 29 30  1  0  0  0  0
 29  6  1  0  0  0  0
 31  2  1  0  0  0  0
 32 33  1  0  0  0  0
 32 31  1  0  0  0  0
 33 35  1  0  0  0  0
 34 36  1  0  0  0  0
 34 33  2  0  0  0  0
 36 37  1  0  0  0  0
 37 35  2  0  0  0  0
 38 39  1  0  0  0  0
 38 36  1  0  0  0  0
 40 39  1  0  0  0  0
 40 43  1  0  0  0  0
 41 40  1  0  0  0  0
 42 41  1  0  0  0  0
 43 44  1  0  0  0  0
 45 46  1  0  0  0  0
 47 46  1  0  0  0  0
 47 48  1  0  0  0  0
 49 48  1  0  0  0  0
 50 49  1  0  0  0  0
M  END
>  <REMARK>
 VINA RESULT:    -3.995      1.891      3.933
 INTER + INTRA:         -15.007
 INTER:                  -7.971
 INTRA:                  -7.036
 UNBOUND:                -7.158
 SMILES CCN(CC)CCn1cc(COC(=O)NC[C@@H](O)C(O)[C@@H]2O[C@@](O)(C(=O)O)C[C@H](O)[C@H]2NC(C)=O)nn1
 SMILES IDX 15 1 13 2 14 3 16 5 17 6 19 7 21 8 23 9 28 10 22 11 29 12
 SMILES IDX 31 13 24 14 25 16 26 17 27 18 30 20 32 22 33 23 34 25 35 26
 SMILES IDX 20 27 18 29 12 31 11 32 10 33 9 34 36 35 8 36 37 37 7 38
 SMILES IDX 6 39 3 40 2 41 1 42 4 43 5 44
 H PARENT 15 4 24 15 27 19 30 21 32 24 20 28 18 30
 Flexibility Score: inf
  4 active torsions:
  status: ('A' for Active; 'I' for Inactive)
    1  A    between atoms: CA   and  CB  
    2  A    between atoms: CB   and  CG  
    3  A    between atoms: CG   and  CD  
    4  A    between atoms: CD   and  CE  

>  <TORSDO>
F 19

>  <BEGIN_>
RES LYS A 131

$$$$
ligand_17_pose_1_2HRL.pdbqt
 OpenBabel07062320523D

  6  5  0  0  0  0  0  0  0  0999 V2000
   33.1930   34.6630    9.2900 C   0  0  0  0  0  0  0  0  0  0  0  0
   32.0600   35.3600   10.0340 C   0  0  0  0  0  0  0  0  0  0  0  0
   30.7030   34.7630    9.7610 C   0  0  0  0  0  0  0  0  0  0  0  0
   30.4650   34.6340    8.2650 C   0  0  0  0  0  0  0  0  0  0  0  0
   29.0030   34.8700    7.9360 C   0  0  0  0  0  0  0  0  0  0  0  0
   28.8520   35.5450    6.6170 N   0  0  0  0  0  0  0  0  0  0  0  0
  1  2  1  0  0  0  0
  3  2  1  0  0  0  0
  4  3  1  0  0  0  0
  5  4  1  0  0  0  0
  6  5  1  0  0  0  0
M  END
>  <EGIN_R>
ES LYS A 135

>  <REMARK>
  4 active torsions:
  status: ('A' for Active; 'I' for Inactive)
    5  A    between atoms: CA   and  CB  
    6  A    between atoms: CB   and  CG  
    7  A    between atoms: CG   and  CD  
    8  A    between atoms: CD   and  CE  

$$$$
