ligand_68_pose_7_2HRL.pdbqt
 OpenBabel07062320523D

 53 54  0  0  1  0  0  0  0  0999 V2000
   28.8920   30.0130   16.0650 N   0  0  0  0  0  0  0  0  0  0  0  0
   27.9150   29.6680   17.0320 C   0  0  0  0  0  0  0  0  0  0  0  0
   27.8590   30.3280   18.0940 O   0  0  0  0  0  0  0  0  0  0  0  0
   28.8700   29.4040   15.1890 H   0  0  0  0  0  0  0  0  0  0  0  0
   29.8540   31.0810   16.2050 C   0  0  0  0  0  0  0  0  0  0  0  0
   29.2920   32.4170   15.7660 C   0  0  2  0  0  0  0  0  0  0  0  0
   30.3800   33.2530   15.0910 C   0  0  2  0  0  0  0  0  0  0  0  0
   29.9840   33.7910   13.7420 C   0  0  2  0  0  0  0  0  0  0  0  0
   31.4540   35.6120   13.7850 C   0  0  2  0  0  0  0  0  0  0  0  0
   30.4970   36.3160   14.6590 C   0  0  0  0  0  0  0  0  0  0  0  0
   31.0920   34.4460   13.2000 O   0  0  0  0  0  0  0  0  0  0  0  0
   29.0500   35.9550   14.5300 C   0  0  1  0  0  0  0  0  0  0  0  0
   28.7980   34.6570   13.8000 C   0  0  1  0  0  0  0  0  0  0  0  0
   32.5790   35.2970   14.6060 O   0  0  0  0  0  0  0  0  0  0  0  0
   32.7560   36.1130   15.1220 H   0  0  0  0  0  0  0  0  0  0  0  0
   32.0050   36.6010   12.7850 C   0  0  0  0  0  0  0  0  0  0  0  0
   32.9380   36.3080   12.0010 O   0  0  0  0  0  0  0  0  0  0  0  0
   31.4710   37.8850   12.7190 O   0  0  0  0  0  0  0  0  0  0  0  0
   31.8880   38.6860   13.1660 H   0  0  0  0  0  0  0  0  0  0  0  0
   28.4540   35.9140   15.8220 O   0  0  0  0  0  0  0  0  0  0  0  0
   28.3050   34.9720   16.0290 H   0  0  0  0  0  0  0  0  0  0  0  0
   28.2720   35.0300   12.4970 N   0  0  0  0  0  0  0  0  0  0  0  0
   26.9210   34.8570   12.1090 C   0  0  0  0  0  0  0  0  0  0  0  0
   28.9660   35.4470   11.8390 H   0  0  0  0  0  0  0  0  0  0  0  0
   26.4160   35.2490   10.7710 C   0  0  0  0  0  0  0  0  0  0  0  0
   26.1630   34.3460   12.9740 O   0  0  0  0  0  0  0  0  0  0  0  0
   31.3910   32.2500   14.8290 O   0  0  0  0  0  0  0  0  0  0  0  0
   31.1840   31.4180   15.2810 H   0  0  0  0  0  0  0  0  0  0  0  0
   28.7230   33.0410   16.8530 O   0  0  0  0  0  0  0  0  0  0  0  0
   28.0490   32.4300   17.2320 H   0  0  0  0  0  0  0  0  0  0  0  0
   27.0120   28.6300   16.8580 O   0  0  0  0  0  0  0  0  0  0  0  0
   25.7880   28.5600   17.5640 C   0  0  0  0  0  0  0  0  0  0  0  0
   24.6910   28.9370   16.6500 C   0  0  0  0  0  0  0  0  0  0  0  0
   24.6670   30.0320   15.8010 C   0  0  0  0  0  0  0  0  0  0  0  0
   23.5020   28.3230   16.4390 N   0  0  0  0  0  0  0  0  0  0  0  0
   23.5050   30.0510   15.1240 N   0  0  0  0  0  0  0  0  0  0  0  0
   22.8240   29.0070   15.5310 N   0  0  0  0  0  0  0  0  0  0  0  0
   23.1170   31.0610   14.1310 C   0  0  0  0  0  0  0  0  0  0  0  0
   23.0480   30.4070   12.7730 C   0  0  1  0  0  0  0  0  0  0  0  0
   23.7440   29.1810   12.8730 O   0  0  0  0  0  0  0  0  0  0  0  0
   23.1140   28.4770   13.1920 H   0  0  0  0  0  0  0  0  0  0  0  0
   21.6440   30.1010   12.4350 C   0  0  0  0  0  0  0  0  0  0  0  0
   21.2070   28.8220   12.1570 C   0  0  0  0  0  0  0  0  0  0  0  0
   20.7140   31.1490   12.3960 C   0  0  0  0  0  0  0  0  0  0  0  0
   19.8960   28.5580   11.8460 C   0  0  0  0  0  0  0  0  0  0  0  0
   19.4100   30.8880   12.0870 C   0  0  0  0  0  0  0  0  0  0  0  0
   19.0030   29.6030   11.8140 C   0  0  0  0  0  0  0  0  0  0  0  0
   29.8670   25.5550   16.9770 C   0  0  0  0  0  0  0  0  0  0  0  0
   28.3450   25.7220   17.0260 C   0  0  0  0  0  0  0  0  0  0  0  0
   27.5990   24.4350   16.7090 C   0  0  0  0  0  0  0  0  0  0  0  0
   26.6000   24.0820   17.7760 C   0  0  0  0  0  0  0  0  0  0  0  0
   25.1880   24.3160   17.2500 C   0  0  0  0  0  0  0  0  0  0  0  0
   24.3430   23.1210   17.4800 N   0  0  0  0  0  0  0  0  0  0  0  0
  1  5  1  0  0  0  0
  1  2  1  0  0  0  0
  2  3  2  0  0  0  0
  4  1  1  0  0  0  0
  6  5  1  1  0  0  0
  6 29  1  0  0  0  0
  7 27  1  6  0  0  0
  7  6  1  0  0  0  0
  8 13  1  0  0  0  0
  8  7  1  1  0  0  0
  9 16  1  6  0  0  0
  9 14  1  0  0  0  0
  9 10  1  0  0  0  0
 11  8  1  0  0  0  0
 11  9  1  0  0  0  0
 12 10  1  0  0  0  0
 12 20  1  1  0  0  0
 13 22  1  6  0  0  0
 13 12  1  0  0  0  0
 14 15  1  0  0  0  0
 17 16  2  0  0  0  0
 18 16  1  0  0  0  0
 18 19  1  0  0  0  0
 20 21  1  0  0  0  0
 23 22  1  0  0  0  0
 23 26  2  0  0  0  0
 24 22  1  0  0  0  0
 25 23  1  0  0  0  0
 27 28  1  0  0  0  0
 29 30  1  0  0  0  0
 31  2  1  0  0  0  0
 31 32  1  0  0  0  0
 33 32  1  0  0  0  0
 34 33  2  0  0  0  0
 35 33  1  0  0  0  0
 36 37  1  0  0  0  0
 36 34  1  0  0  0  0
 37 35  2  0  0  0  0
 38 36  1  0  0  0  0
 39 40  1  0  0  0  0
 39 38  1  1  0  0  0
 40 41  1  0  0  0  0
 42 39  1  0  0  0  0
 43 42  2  0  0  0  0
 44 42  1  0  0  0  0
 45 43  1  0  0  0  0
 46 44  2  0  0  0  0
 47 45  2  0  0  0  0
 47 46  1  0  0  0  0
 48 49  1  0  0  0  0
 50 49  1  0  0  0  0
 50 51  1  0  0  0  0
 52 53  1  0  0  0  0
 52 51  1  0  0  0  0
M  END
>  <REMARK>
 VINA RESULT:    -5.672      4.579      8.874
 INTER + INTRA:         -15.659
 INTER:                 -10.299
 INTRA:                  -5.359
 UNBOUND:                -5.012
 SMILES CC(=O)N[C@@H]1[C@@H](O)C[C@](O)(C(=O)O)O[C@H]1C(O)[C@H](O)CNC(=O)OCc1cn(CC(O)c2ccccc2)nn1
 SMILES IDX 21 1 22 2 23 3 20 5 18 6 16 7 15 8 9 9 8 10 14 11 6 12 5 13
 SMILES IDX 10 14 11 16 12 17 13 18 7 20 4 22 2 23 1 25 3 26 17 27 19 29
 SMILES IDX 24 31 25 32 26 33 27 34 39 35 28 36 38 37 29 38 30 39 31 40
 SMILES IDX 32 42 33 43 37 44 34 45 36 46 35 47
 H PARENT 21 4 10 15 13 19 7 21 4 24 17 28 19 30 31 41
 Flexibility Score: inf
  4 active torsions:
  status: ('A' for Active; 'I' for Inactive)
    1  A    between atoms: CA   and  CB  
    2  A    between atoms: CB   and  CG  
    3  A    between atoms: CG   and  CD  
    4  A    between atoms: CD   and  CE  

>  <TORSDO>
F 18

>  <BEGIN_>
RES LYS A 131

$$$$
ligand_68_pose_7_2HRL.pdbqt
 OpenBabel07062320523D

  6  5  0  0  0  0  0  0  0  0999 V2000
   33.1930   34.6630    9.2900 C   0  0  0  0  0  0  0  0  0  0  0  0
   32.0600   35.3600   10.0340 C   0  0  0  0  0  0  0  0  0  0  0  0
   30.7080   34.7400    9.7910 C   0  0  0  0  0  0  0  0  0  0  0  0
   30.4660   34.5470    8.3020 C   0  0  0  0  0  0  0  0  0  0  0  0
   29.0200   34.8440    7.9550 C   0  0  0  0  0  0  0  0  0  0  0  0
   28.9170   35.5610    6.6540 N   0  0  0  0  0  0  0  0  0  0  0  0
  1  2  1  0  0  0  0
  3  2  1  0  0  0  0
  4  3  1  0  0  0  0
  5  4  1  0  0  0  0
  6  5  1  0  0  0  0
M  END
>  <EGIN_R>
ES LYS A 135

>  <REMARK>
  4 active torsions:
  status: ('A' for Active; 'I' for Inactive)
    5  A    between atoms: CA   and  CB  
    6  A    between atoms: CB   and  CG  
    7  A    between atoms: CG   and  CD  
    8  A    between atoms: CD   and  CE  

$$$$
