ligand_34_pose_18_2HRL.pdbqt
 OpenBabel07062320523D

 69 73  0  0  1  0  0  0  0  0999 V2000
   28.6960   30.7610   15.9880 N   0  0  0  0  0  0  0  0  0  0  0  0
   29.9580   31.1420   16.5600 C   0  0  0  0  0  0  0  0  0  0  0  0
   30.0740   31.0230   17.8110 O   0  0  0  0  0  0  0  0  0  0  0  0
   28.5450   30.8380   14.9660 H   0  0  0  0  0  0  0  0  0  0  0  0
   27.6200   30.2700   16.8150 C   0  0  0  0  0  0  0  0  0  0  0  0
   26.3180   30.5320   16.1330 C   0  0  2  0  0  0  0  0  0  0  0  0
   25.9490   32.0150   16.1560 C   0  0  2  0  0  0  0  0  0  0  0  0
   24.4700   32.1970   15.8540 C   0  0  2  0  0  0  0  0  0  0  0  0
   23.7120   31.7640   13.6950 C   0  0  2  0  0  0  0  0  0  0  0  0
   22.5080   32.6630   13.8720 C   0  0  0  0  0  0  0  0  0  0  0  0
   24.1170   31.2750   14.9110 O   0  0  0  0  0  0  0  0  0  0  0  0
   22.8000   33.7580   14.8320 C   0  0  1  0  0  0  0  0  0  0  0  0
   24.1240   33.6110   15.5390 C   0  0  1  0  0  0  0  0  0  0  0  0
   24.6690   32.4750   13.0170 O   0  0  0  0  0  0  0  0  0  0  0  0
   25.5720   32.3810   13.3690 H   0  0  0  0  0  0  0  0  0  0  0  0
   23.2710   30.6140   12.8690 C   0  0  0  0  0  0  0  0  0  0  0  0
   24.0620   29.6660   12.6400 O   0  0  0  0  0  0  0  0  0  0  0  0
   22.0020   30.5210   12.3200 O   0  0  0  0  0  0  0  0  0  0  0  0
   21.7640   30.9860   11.4300 H   0  0  0  0  0  0  0  0  0  0  0  0
   22.7780   35.0090   14.2200 O   0  0  0  0  0  0  0  0  0  0  0  0
   22.1000   35.0900   13.5130 H   0  0  0  0  0  0  0  0  0  0  0  0
   24.0040   34.3910   16.7800 N   0  0  0  0  0  0  0  0  0  0  0  0
   24.5370   35.6820   16.9420 C   0  0  0  0  0  0  0  0  0  0  0  0
   23.4890   33.9400   17.5710 H   0  0  0  0  0  0  0  0  0  0  0  0
   24.3740   36.4030   18.2240 C   0  0  0  0  0  0  0  0  0  0  0  0
   25.1520   36.1770   15.9410 O   0  0  0  0  0  0  0  0  0  0  0  0
   26.7390   32.6180   15.1700 O   0  0  0  0  0  0  0  0  0  0  0  0
   26.1680   32.6900   14.3590 H   0  0  0  0  0  0  0  0  0  0  0  0
   25.2870   29.7590   16.6630 O   0  0  0  0  0  0  0  0  0  0  0  0
   25.3560   28.8100   16.4040 H   0  0  0  0  0  0  0  0  0  0  0  0
   31.0030   31.6090   15.8210 O   0  0  0  0  0  0  0  0  0  0  0  0
   31.5320   32.8990   16.0210 C   0  0  0  0  0  0  0  0  0  0  0  0
   30.4980   33.8970   15.6850 C   0  0  0  0  0  0  0  0  0  0  0  0
   29.9190   34.1190   14.4330 C   0  0  0  0  0  0  0  0  0  0  0  0
   29.9190   34.7860   16.5030 N   0  0  0  0  0  0  0  0  0  0  0  0
   29.0250   35.1190   14.5420 N   0  0  0  0  0  0  0  0  0  0  0  0
   29.0480   35.4990   15.8010 N   0  0  0  0  0  0  0  0  0  0  0  0
   28.2540   35.6080   13.4550 C   0  0  0  0  0  0  0  0  0  0  0  0
   27.5560   36.7780   13.4560 C   0  0  0  0  0  0  0  0  0  0  0  0
   28.2020   34.8320   12.2940 C   0  0  0  0  0  0  0  0  0  0  0  0
   26.8110   37.2170   12.3660 C   0  0  0  0  0  0  0  0  0  0  0  0
   27.4770   35.2420   11.2090 C   0  0  0  0  0  0  0  0  0  0  0  0
   26.7750   36.4460   11.2460 C   0  0  0  0  0  0  0  0  0  0  0  0
   26.0750   38.4790   12.4040 C   0  0  0  0  0  0  0  0  0  0  0  0
   26.6390   39.5780   12.1050 O   0  0  0  0  0  0  0  0  0  0  0  0
   24.7550   38.5010   12.7640 O   0  0  0  0  0  0  0  0  0  0  0  0
   26.0340   36.7930   10.0430 C   0  0  0  0  0  0  0  0  0  0  0  0
   24.7390   36.3990    9.7850 C   0  0  0  0  0  0  0  0  0  0  0  0
   26.6630   37.5730    9.0870 C   0  0  0  0  0  0  0  0  0  0  0  0
   24.0790   35.6200   10.7150 C   0  0  0  0  0  0  0  0  0  0  0  0
   24.0830   36.7660    8.6160 C   0  0  0  0  0  0  0  0  0  0  0  0
   25.9340   37.9300    7.8790 C   0  0  0  0  0  0  0  0  0  0  0  0
   27.9560   38.0180    9.2460 C   0  0  0  0  0  0  0  0  0  0  0  0
   22.7740   35.2000   10.5010 C   0  0  0  0  0  0  0  0  0  0  0  0
   22.7900   36.3650    8.3750 C   0  0  0  0  0  0  0  0  0  0  0  0
   24.6840   37.5040    7.7140 O   0  0  0  0  0  0  0  0  0  0  0  0
   26.5440   38.6990    6.9320 C   0  0  0  0  0  0  0  0  0  0  0  0
   28.5230   38.7850    8.2680 C   0  0  0  0  0  0  0  0  0  0  0  0
   22.1490   35.5800    9.3310 C   0  0  0  0  0  0  0  0  0  0  0  0
   27.8390   39.1340    7.1130 C   0  0  0  0  0  0  0  0  0  0  0  0
   28.4060   39.8440    6.2410 O   0  0  0  0  0  0  0  0  0  0  0  0
   20.8470   35.1630    9.1080 O   0  0  0  0  0  0  0  0  0  0  0  0
   20.1750   35.6780    8.5710 H   0  0  0  0  0  0  0  0  0  0  0  0
   29.8670   25.5550   16.9770 C   0  0  0  0  0  0  0  0  0  0  0  0
   28.3450   25.7220   17.0260 C   0  0  0  0  0  0  0  0  0  0  0  0
   27.6020   24.3980   16.9320 C   0  0  0  0  0  0  0  0  0  0  0  0
   26.6240   24.2160   18.0600 C   0  0  0  0  0  0  0  0  0  0  0  0
   25.2040   24.1910   17.5040 C   0  0  0  0  0  0  0  0  0  0  0  0
   24.7330   22.7950   17.3470 N   0  0  0  0  0  0  0  0  0  0  0  0
  1  2  1  0  0  0  0
  1  5  1  0  0  0  0
  2  3  2  0  0  0  0
  4  1  1  0  0  0  0
  6  7  1  0  0  0  0
  6 29  1  0  0  0  0
  6  5  1  1  0  0  0
  7 27  1  6  0  0  0
  8  7  1  6  0  0  0
  9 16  1  6  0  0  0
  9 10  1  0  0  0  0
  9 11  1  0  0  0  0
 10 12  1  0  0  0  0
 11  8  1  0  0  0  0
 12 20  1  6  0  0  0
 12 13  1  0  0  0  0
 13  8  1  0  0  0  0
 13 22  1  1  0  0  0
 14 15  1  0  0  0  0
 14  9  1  0  0  0  0
 17 16  2  0  0  0  0
 18 16  1  0  0  0  0
 19 18  1  0  0  0  0
 21 20  1  0  0  0  0
 22 23  1  0  0  0  0
 22 24  1  0  0  0  0
 23 25  1  0  0  0  0
 26 23  2  0  0  0  0
 28 27  1  0  0  0  0
 30 29  1  0  0  0  0
 31 32  1  0  0  0  0
 31  2  1  0  0  0  0
 33 32  1  0  0  0  0
 33 35  1  0  0  0  0
 34 36  1  0  0  0  0
 34 33  2  0  0  0  0
 36 37  1  0  0  0  0
 37 35  2  0  0  0  0
 38 39  1  0  0  0  0
 38 36  1  0  0  0  0
 40 38  2  0  0  0  0
 41 44  1  0  0  0  0
 41 39  2  0  0  0  0
 42 43  2  0  0  0  0
 42 40  1  0  0  0  0
 43 41  1  0  0  0  0
 44 46  1  0  0  0  0
 45 44  2  0  0  0  0
 47 43  1  0  0  0  0
 48 47  1  0  0  0  0
 48 50  2  0  0  0  0
 49 53  1  0  0  0  0
 49 47  2  0  0  0  0
 51 48  1  0  0  0  0
 52 49  1  0  0  0  0
 54 50  1  0  0  0  0
 55 51  2  0  0  0  0
 55 59  1  0  0  0  0
 56 52  1  0  0  0  0
 56 51  1  0  0  0  0
 57 60  1  0  0  0  0
 57 52  2  0  0  0  0
 58 53  2  0  0  0  0
 59 54  2  0  0  0  0
 60 58  1  0  0  0  0
 61 60  2  0  0  0  0
 62 59  1  0  0  0  0
 63 62  1  0  0  0  0
 64 65  1  0  0  0  0
 66 65  1  0  0  0  0
 66 67  1  0  0  0  0
 68 67  1  0  0  0  0
 69 68  1  0  0  0  0
M  END
>  <REMARK>
 VINA RESULT:    -5.285      3.106      6.610
 INTER + INTRA:         -17.638
 INTER:                  -9.999
 INTRA:                  -7.639
 UNBOUND:                -7.717
 SMILES CC(=O)N[C@@H]1[C@@H](O)C[C@](O)(C(=O)O)O[C@H]1C(O)[C@H](O)CNC(=O)OCc1cn(-c2ccc(-c3c4ccc(=O)cc-4oc4cc(O)ccc34)c(C(=O)[O-])c2)nn1
 SMILES IDX 21 1 22 2 23 3 20 5 18 6 16 7 15 8 9 9 8 10 14 11 6 12 5 13
 SMILES IDX 10 14 11 16 12 17 13 18 7 20 4 22 2 23 1 25 3 26 17 27 19 29
 SMILES IDX 24 31 25 32 26 33 27 34 55 35 28 36 54 37 29 38 53 39 30 40
 SMILES IDX 49 41 31 42 32 43 50 44 51 45 52 46 33 47 48 48 34 49 47 50
 SMILES IDX 42 51 40 52 35 53 46 54 43 55 41 56 39 57 36 58 44 59 37 60
 SMILES IDX 38 61 45 62
 H PARENT 21 4 10 15 13 19 7 21 4 24 17 28 19 30 45 63
 Flexibility Score: inf
  4 active torsions:
  status: ('A' for Active; 'I' for Inactive)
    1  A    between atoms: CA   and  CB  
    2  A    between atoms: CB   and  CG  
    3  A    between atoms: CG   and  CD  
    4  A    between atoms: CD   and  CE  

>  <TORSDO>
F 18

>  <BEGIN_>
RES LYS A 131

$$$$
ligand_34_pose_18_2HRL.pdbqt
 OpenBabel07062320523D

  6  5  0  0  0  0  0  0  0  0999 V2000
   33.1930   34.6630    9.2900 C   0  0  0  0  0  0  0  0  0  0  0  0
   32.0600   35.3600   10.0340 C   0  0  0  0  0  0  0  0  0  0  0  0
   30.6940   34.8230    9.6910 C   0  0  0  0  0  0  0  0  0  0  0  0
   30.4290   34.9460    8.1990 C   0  0  0  0  0  0  0  0  0  0  0  0
   28.9450   34.8220    7.9100 C   0  0  0  0  0  0  0  0  0  0  0  0
   28.5860   35.5100    6.6390 N   0  0  0  0  0  0  0  0  0  0  0  0
  1  2  1  0  0  0  0
  3  2  1  0  0  0  0
  4  3  1  0  0  0  0
  5  4  1  0  0  0  0
  6  5  1  0  0  0  0
M  END
>  <EGIN_R>
ES LYS A 135

>  <REMARK>
  4 active torsions:
  status: ('A' for Active; 'I' for Inactive)
    5  A    between atoms: CA   and  CB  
    6  A    between atoms: CB   and  CG  
    7  A    between atoms: CG   and  CD  
    8  A    between atoms: CD   and  CE  

$$$$
