ligand_30_pose_6_2HRL.pdbqt
 OpenBabel07062320523D

 57 57  0  0  1  0  0  0  0  0999 V2000
   29.0480   31.7320   15.5770 C   0  0  0  0  0  0  0  0  0  0  0  0
   27.8840   30.9660   15.9300 N   0  0  0  0  0  0  0  0  0  0  0  0
   25.8580   30.2730   16.4060 C   0  0  0  0  0  0  0  0  0  0  0  0
   26.5880   31.3740   16.0500 C   0  0  0  0  0  0  0  0  0  0  0  0
   26.7130   29.2310   16.4930 N   0  0  0  0  0  0  0  0  0  0  0  0
   27.9050   29.6770   16.2030 N   0  0  0  0  0  0  0  0  0  0  0  0
   24.3990   30.2610   16.6460 C   0  0  0  0  0  0  0  0  0  0  0  0
   24.0180   29.0970   17.3460 O   0  0  0  0  0  0  0  0  0  0  0  0
   24.6170   28.7690   18.5550 C   0  0  0  0  0  0  0  0  0  0  0  0
   25.3970   27.5910   18.7050 N   0  0  0  0  0  0  0  0  0  0  0  0
   25.5340   26.9430   17.9000 H   0  0  0  0  0  0  0  0  0  0  0  0
   24.4500   29.5610   19.5450 O   0  0  0  0  0  0  0  0  0  0  0  0
   25.9970   27.2910   19.9670 C   0  0  0  0  0  0  0  0  0  0  0  0
   27.4920   27.5290   19.9730 C   0  0  2  0  0  0  0  0  0  0  0  0
   27.7960   28.8730   20.5630 C   0  0  2  0  0  0  0  0  0  0  0  0
   29.1160   28.8260   21.3020 C   0  0  2  0  0  0  0  0  0  0  0  0
   31.4000   28.8730   20.9140 C   0  0  2  0  0  0  0  0  0  0  0  0
   31.4610   28.1870   22.2600 C   0  0  0  0  0  0  0  0  0  0  0  0
   30.1230   28.8690   20.3760 O   0  0  0  0  0  0  0  0  0  0  0  0
   30.5300   27.0060   22.2290 C   0  0  1  0  0  0  0  0  0  0  0  0
   29.1090   27.5860   22.1590 C   0  0  1  0  0  0  0  0  0  0  0  0
   32.2070   28.1350   20.0530 O   0  0  0  0  0  0  0  0  0  0  0  0
   31.6710   27.6570   19.3810 H   0  0  0  0  0  0  0  0  0  0  0  0
   31.9650   30.2140   21.0690 C   0  0  0  0  0  0  0  0  0  0  0  0
   33.1120   30.3460   21.5590 O   0  0  0  0  0  0  0  0  0  0  0  0
   31.3080   31.3820   20.7030 O   0  0  0  0  0  0  0  0  0  0  0  0
   31.5300   32.2500   21.2160 H   0  0  0  0  0  0  0  0  0  0  0  0
   30.8040   26.1820   21.1590 O   0  0  0  0  0  0  0  0  0  0  0  0
   30.1860   25.4090   21.2010 H   0  0  0  0  0  0  0  0  0  0  0  0
   28.7490   27.8950   23.5260 N   0  0  0  0  0  0  0  0  0  0  0  0
   27.5420   27.3660   24.0420 C   0  0  0  0  0  0  0  0  0  0  0  0
   29.3530   28.4960   24.1410 H   0  0  0  0  0  0  0  0  0  0  0  0
   27.1330   27.6620   25.4500 C   0  0  0  0  0  0  0  0  0  0  0  0
   26.8150   26.6510   23.3260 O   0  0  0  0  0  0  0  0  0  0  0  0
   26.7350   29.2240   21.4030 O   0  0  0  0  0  0  0  0  0  0  0  0
   25.9590   28.6440   21.3120 H   0  0  0  0  0  0  0  0  0  0  0  0
   28.0190   27.4940   18.6820 O   0  0  0  0  0  0  0  0  0  0  0  0
   28.4640   26.6440   18.5010 H   0  0  0  0  0  0  0  0  0  0  0  0
   30.2390   31.1830   16.3140 C   0  0  0  0  0  0  0  0  0  0  0  0
   30.7380   32.1050   17.3900 C   0  0  0  0  0  0  0  0  0  0  0  0
   30.8180   33.5390   16.9290 C   0  0  0  0  0  0  0  0  0  0  0  0
   31.2170   34.4310   18.1010 C   0  0  0  0  0  0  0  0  0  0  0  0
   32.4800   35.1680   17.7410 C   0  0  0  0  0  0  0  0  0  0  0  0
   32.7690   35.0860   16.2700 C   0  0  0  0  0  0  0  0  0  0  0  0
   32.8970   36.4520   15.6820 C   0  0  0  0  0  0  0  0  0  0  0  0
   31.7850   36.7200   14.6710 C   0  0  0  0  0  0  0  0  0  0  0  0
   31.5990   35.5730   13.7150 C   0  0  0  0  0  0  0  0  0  0  0  0
   32.6890   35.6880   12.6970 C   0  0  0  0  0  0  0  0  0  0  0  0
   32.7510   36.6090   11.8560 O   0  0  0  0  0  0  0  0  0  0  0  0
   33.6990   34.7240   12.6730 O   0  0  0  0  0  0  0  0  0  0  0  0
   33.5810   33.8830   13.2110 H   0  0  0  0  0  0  0  0  0  0  0  0
   29.8670   25.5550   16.9770 C   0  0  0  0  0  0  0  0  0  0  0  0
   28.3450   25.7220   17.0260 C   0  0  0  0  0  0  0  0  0  0  0  0
   27.6010   24.4000   16.9080 C   0  0  0  0  0  0  0  0  0  0  0  0
   26.1640   24.5190   17.3340 C   0  0  0  0  0  0  0  0  0  0  0  0
   25.9540   23.7500   18.6340 C   0  0  0  0  0  0  0  0  0  0  0  0
   24.8220   22.8020   18.4990 N   0  0  0  0  0  0  0  0  0  0  0  0
  1  2  1  0  0  0  0
  1 39  1  0  0  0  0
  2  4  1  0  0  0  0
  2  6  1  0  0  0  0
  3  5  1  0  0  0  0
  3  7  1  0  0  0  0
  4  3  2  0  0  0  0
  6  5  2  0  0  0  0
  7  8  1  0  0  0  0
  8  9  1  0  0  0  0
  9 10  1  0  0  0  0
  9 12  2  0  0  0  0
 10 13  1  0  0  0  0
 11 10  1  0  0  0  0
 14 13  1  6  0  0  0
 14 15  1  0  0  0  0
 15 35  1  1  0  0  0
 16 15  1  6  0  0  0
 16 21  1  0  0  0  0
 17 22  1  6  0  0  0
 17 24  1  0  0  0  0
 17 18  1  0  0  0  0
 19 17  1  0  0  0  0
 19 16  1  0  0  0  0
 20 28  1  6  0  0  0
 20 18  1  0  0  0  0
 21 20  1  0  0  0  0
 21 30  1  1  0  0  0
 23 22  1  0  0  0  0
 24 25  2  0  0  0  0
 26 24  1  0  0  0  0
 26 27  1  0  0  0  0
 28 29  1  0  0  0  0
 30 31  1  0  0  0  0
 30 32  1  0  0  0  0
 31 33  1  0  0  0  0
 34 31  2  0  0  0  0
 36 35  1  0  0  0  0
 37 14  1  0  0  0  0
 38 37  1  0  0  0  0
 39 40  1  0  0  0  0
 41 40  1  0  0  0  0
 41 42  1  0  0  0  0
 43 42  1  0  0  0  0
 44 43  1  0  0  0  0
 45 44  1  0  0  0  0
 46 45  1  0  0  0  0
 47 46  1  0  0  0  0
 48 47  1  0  0  0  0
 49 48  2  0  0  0  0
 50 48  1  0  0  0  0
 50 51  1  0  0  0  0
 52 53  1  0  0  0  0
 54 53  1  0  0  0  0
 54 55  1  0  0  0  0
 55 56  1  0  0  0  0
 57 56  1  0  0  0  0
M  END
>  <REMARK>
 VINA RESULT:    -3.944      2.410      3.710
 INTER + INTRA:         -17.545
 INTER:                 -10.624
 INTRA:                  -6.921
 UNBOUND:                -8.298
 SMILES CC(=O)N[C@@H]1[C@@H](O)C[C@](O)(C(=O)O)O[C@H]1C(O)[C@H](O)CNC(=O)OCc1cn(CCCCCCCCCCC(=O)O)nn1
 SMILES IDX 29 1 28 2 26 3 27 4 43 5 42 6 25 7 24 8 22 9 21 10 23 12
 SMILES IDX 20 13 18 14 16 15 15 16 9 17 8 18 14 19 6 20 5 21 10 22
 SMILES IDX 11 24 12 25 13 26 7 28 4 30 2 31 1 33 3 34 17 35 19 37 30 39
 SMILES IDX 31 40 32 41 33 42 34 43 35 44 36 45 37 46 38 47 39 48 40 49
 SMILES IDX 41 50
 H PARENT 21 11 10 23 13 27 7 29 4 32 17 36 19 38 41 51
 Flexibility Score: inf
  4 active torsions:
  status: ('A' for Active; 'I' for Inactive)
    1  A    between atoms: CA   and  CB  
    2  A    between atoms: CB   and  CG  
    3  A    between atoms: CG   and  CD  
    4  A    between atoms: CD   and  CE  

>  <TORSDO>
F 26

>  <BEGIN_>
RES LYS A 131

$$$$
ligand_30_pose_6_2HRL.pdbqt
 OpenBabel07062320523D

  6  5  0  0  0  0  0  0  0  0999 V2000
   33.1930   34.6630    9.2900 C   0  0  0  0  0  0  0  0  0  0  0  0
   32.0600   35.3600   10.0340 C   0  0  0  0  0  0  0  0  0  0  0  0
   30.7140   34.7160    9.8220 C   0  0  0  0  0  0  0  0  0  0  0  0
   30.4500   34.4980    8.3410 C   0  0  0  0  0  0  0  0  0  0  0  0
   29.4000   35.4700    7.8380 C   0  0  0  0  0  0  0  0  0  0  0  0
   28.0410   34.8630    7.8840 N   0  0  0  0  0  0  0  0  0  0  0  0
  1  2  1  0  0  0  0
  3  2  1  0  0  0  0
  4  3  1  0  0  0  0
  5  6  1  0  0  0  0
  5  4  1  0  0  0  0
M  END
>  <EGIN_R>
ES LYS A 135

>  <REMARK>
  4 active torsions:
  status: ('A' for Active; 'I' for Inactive)
    5  A    between atoms: CA   and  CB  
    6  A    between atoms: CB   and  CG  
    7  A    between atoms: CG   and  CD  
    8  A    between atoms: CD   and  CE  

$$$$
