ligand_55_pose_4_2HRL.pdbqt
 OpenBabel07062320523D

 51 51  0  0  1  0  0  0  0  0999 V2000
   29.3630   41.2970    6.7550 N   0  0  0  0  0  0  0  0  0  0  0  0
   29.5590   41.4070    5.3630 C   0  0  0  0  0  0  0  0  0  0  0  0
   30.5770   41.0010    4.7810 O   0  0  0  0  0  0  0  0  0  0  0  0
   28.4440   41.6740    7.1390 H   0  0  0  0  0  0  0  0  0  0  0  0
   30.2720   40.7340    7.6810 C   0  0  0  0  0  0  0  0  0  0  0  0
   30.3520   39.2280    7.7360 C   0  0  2  0  0  0  0  0  0  0  0  0
   29.4270   38.7810    8.8250 C   0  0  2  0  0  0  0  0  0  0  0  0
   28.9520   37.3640    8.7780 C   0  0  2  0  0  0  0  0  0  0  0  0
   29.2720   35.4130    7.5180 C   0  0  2  0  0  0  0  0  0  0  0  0
   27.8580   35.0000    7.7480 C   0  0  0  0  0  0  0  0  0  0  0  0
   29.6190   36.6610    7.8600 O   0  0  0  0  0  0  0  0  0  0  0  0
   26.9110   36.1570    7.9110 C   0  0  1  0  0  0  0  0  0  0  0  0
   27.4620   37.2070    8.8150 C   0  0  1  0  0  0  0  0  0  0  0  0
   29.5700   35.2180    6.1640 O   0  0  0  0  0  0  0  0  0  0  0  0
   29.2160   35.9780    5.6530 H   0  0  0  0  0  0  0  0  0  0  0  0
   30.1500   34.4700    8.2680 C   0  0  0  0  0  0  0  0  0  0  0  0
   29.7540   33.7330    9.1900 O   0  0  0  0  0  0  0  0  0  0  0  0
   31.5160   34.3770    7.9440 O   0  0  0  0  0  0  0  0  0  0  0  0
   31.8350   34.4390    6.9850 H   0  0  0  0  0  0  0  0  0  0  0  0
   26.5570   36.6200    6.6500 O   0  0  0  0  0  0  0  0  0  0  0  0
   27.2050   37.3330    6.4150 H   0  0  0  0  0  0  0  0  0  0  0  0
   26.9720   36.9390   10.1540 N   0  0  0  0  0  0  0  0  0  0  0  0
   26.1260   37.8250   10.8730 C   0  0  0  0  0  0  0  0  0  0  0  0
   27.2300   36.0460   10.6730 H   0  0  0  0  0  0  0  0  0  0  0  0
   25.6460   37.5030   12.2580 C   0  0  0  0  0  0  0  0  0  0  0  0
   25.7970   38.8930   10.2940 O   0  0  0  0  0  0  0  0  0  0  0  0
   28.3230   39.6790    8.7430 O   0  0  0  0  0  0  0  0  0  0  0  0
   27.7060   39.4080    8.0310 H   0  0  0  0  0  0  0  0  0  0  0  0
   31.6610   38.8500    7.8610 O   0  0  0  0  0  0  0  0  0  0  0  0
   31.7760   38.0900    8.4450 H   0  0  0  0  0  0  0  0  0  0  0  0
   28.5760   41.9990    4.5770 O   0  0  0  0  0  0  0  0  0  0  0  0
   27.4500   41.3160    4.0850 C   0  0  0  0  0  0  0  0  0  0  0  0
   26.6460   40.7640    5.1910 C   0  0  0  0  0  0  0  0  0  0  0  0
   25.4990   41.2750    5.7660 C   0  0  0  0  0  0  0  0  0  0  0  0
   26.9050   39.6340    5.8430 N   0  0  0  0  0  0  0  0  0  0  0  0
   25.1000   40.4480    6.7420 N   0  0  0  0  0  0  0  0  0  0  0  0
   25.9790   39.4530    6.7640 N   0  0  0  0  0  0  0  0  0  0  0  0
   23.9700   40.5320    7.6300 C   0  0  0  0  0  0  0  0  0  0  0  0
   23.0840   39.3030    7.5470 C   0  0  0  0  0  0  0  0  0  0  0  0
   23.7410   38.2450    8.2840 N   0  0  0  0  0  0  0  0  0  0  0  0
   24.2170   38.5940    9.1280 H   0  0  0  0  0  0  0  0  0  0  0  0
   22.6640   36.9680    8.6920 S   0  0  0  0  0  0  0  0  0  0  0  0
   21.7820   37.4650    9.8080 O   0  0  0  0  0  0  0  0  0  0  0  0
   21.8690   36.5790    7.4870 O   0  0  0  0  0  0  0  0  0  0  0  0
   23.5590   35.5530    9.2900 C   0  0  0  0  0  0  0  0  0  0  0  0
   29.8670   25.5550   16.9770 C   0  0  0  0  0  0  0  0  0  0  0  0
   28.3450   25.7220   17.0260 C   0  0  0  0  0  0  0  0  0  0  0  0
   27.6010   24.4010   16.9060 C   0  0  0  0  0  0  0  0  0  0  0  0
   26.1460   24.5360   17.2560 C   0  0  0  0  0  0  0  0  0  0  0  0
   25.9990   24.7120   18.7640 C   0  0  0  0  0  0  0  0  0  0  0  0
   25.5330   23.4520   19.3910 N   0  0  0  0  0  0  0  0  0  0  0  0
  1  4  1  0  0  0  0
  1  5  1  0  0  0  0
  2  1  1  0  0  0  0
  3  2  2  0  0  0  0
  6  5  1  1  0  0  0
  6 29  1  0  0  0  0
  6  7  1  0  0  0  0
  7 27  1  6  0  0  0
  8 13  1  0  0  0  0
  8  7  1  6  0  0  0
  9 14  1  6  0  0  0
  9 10  1  0  0  0  0
  9 11  1  0  0  0  0
  9 16  1  0  0  0  0
 10 12  1  0  0  0  0
 11  8  1  0  0  0  0
 12 20  1  6  0  0  0
 12 13  1  0  0  0  0
 13 22  1  1  0  0  0
 15 14  1  0  0  0  0
 16 17  2  0  0  0  0
 18 16  1  0  0  0  0
 19 18  1  0  0  0  0
 21 20  1  0  0  0  0
 22 24  1  0  0  0  0
 22 23  1  0  0  0  0
 23 25  1  0  0  0  0
 26 23  2  0  0  0  0
 28 27  1  0  0  0  0
 29 30  1  0  0  0  0
 31  2  1  0  0  0  0
 32 31  1  0  0  0  0
 32 33  1  0  0  0  0
 33 34  2  0  0  0  0
 33 35  1  0  0  0  0
 34 36  1  0  0  0  0
 35 37  2  0  0  0  0
 36 37  1  0  0  0  0
 36 38  1  0  0  0  0
 39 38  1  0  0  0  0
 39 40  1  0  0  0  0
 40 42  1  0  0  0  0
 40 41  1  0  0  0  0
 42 45  1  0  0  0  0
 42 43  2  0  0  0  0
 44 42  2  0  0  0  0
 46 47  1  0  0  0  0
 48 47  1  0  0  0  0
 48 49  1  0  0  0  0
 49 50  1  0  0  0  0
 50 51  1  0  0  0  0
M  END
>  <REMARK>
 VINA RESULT:    -4.596      7.864     13.951
 INTER + INTRA:         -15.037
 INTER:                  -8.857
 INTRA:                  -6.180
 UNBOUND:                -6.277
 SMILES CC(=O)N[C@@H]1[C@@H](O)C[C@](O)(C(=O)O)O[C@H]1C(O)[C@H](O)CNC(=O)OCc1cn(CCNS(C)(=O)=O)nn1
 SMILES IDX 21 1 22 2 23 3 20 5 18 6 16 7 15 8 9 9 8 10 14 11 6 12 5 13
 SMILES IDX 10 14 11 16 12 17 13 18 7 20 4 22 2 23 1 25 3 26 17 27 19 29
 SMILES IDX 24 31 25 32 26 33 27 34 37 35 28 36 36 37 29 38 30 39 31 40
 SMILES IDX 32 42 34 43 35 44 33 45
 H PARENT 21 4 10 15 13 19 7 21 4 24 17 28 19 30 31 41
 Flexibility Score: inf
  4 active torsions:
  status: ('A' for Active; 'I' for Inactive)
    1  A    between atoms: CA   and  CB  
    2  A    between atoms: CB   and  CG  
    3  A    between atoms: CG   and  CD  
    4  A    between atoms: CD   and  CE  

>  <TORSDO>
F 18

>  <BEGIN_>
RES LYS A 131

$$$$
ligand_55_pose_4_2HRL.pdbqt
 OpenBabel07062320523D

  6  5  0  0  0  0  0  0  0  0999 V2000
   33.1930   34.6630    9.2900 C   0  0  0  0  0  0  0  0  0  0  0  0
   32.0600   35.3600   10.0340 C   0  0  0  0  0  0  0  0  0  0  0  0
   32.5090   36.0730   11.2830 C   0  0  0  0  0  0  0  0  0  0  0  0
   31.8990   37.4650   11.3550 C   0  0  0  0  0  0  0  0  0  0  0  0
   31.4130   37.7610   12.7610 C   0  0  0  0  0  0  0  0  0  0  0  0
   32.0020   36.8100   13.7440 N   0  0  0  0  0  0  0  0  0  0  0  0
  1  2  1  0  0  0  0
  2  3  1  0  0  0  0
  3  4  1  0  0  0  0
  4  5  1  0  0  0  0
  5  6  1  0  0  0  0
M  END
>  <EGIN_R>
ES LYS A 135

>  <REMARK>
  4 active torsions:
  status: ('A' for Active; 'I' for Inactive)
    5  A    between atoms: CA   and  CB  
    6  A    between atoms: CB   and  CG  
    7  A    between atoms: CG   and  CD  
    8  A    between atoms: CD   and  CE  

$$$$
