ligand_53_pose_4_2HRL.pdbqt
 OpenBabel07062320523D

 48 48  0  0  1  0  0  0  0  0999 V2000
   28.5350   29.6850   18.5540 N   0  0  0  0  0  0  0  0  0  0  0  0
   28.2270   30.4850   17.4370 C   0  0  0  0  0  0  0  0  0  0  0  0
   27.1470   31.0640   17.3220 O   0  0  0  0  0  0  0  0  0  0  0  0
   29.5060   29.2460   18.5360 H   0  0  0  0  0  0  0  0  0  0  0  0
   27.6820   29.4140   19.6820 C   0  0  0  0  0  0  0  0  0  0  0  0
   27.4320   27.9690   19.9770 C   0  0  2  0  0  0  0  0  0  0  0  0
   27.8310   27.5540   21.3430 C   0  0  1  0  0  0  0  0  0  0  0  0
   29.2550   27.8590   21.7210 C   0  0  2  0  0  0  0  0  0  0  0  0
   31.4270   27.7930   20.8180 C   0  0  2  0  0  0  0  0  0  0  0  0
   32.0260   27.4300   22.1360 C   0  0  0  0  0  0  0  0  0  0  0  0
   30.1050   27.5800   20.6400 O   0  0  0  0  0  0  0  0  0  0  0  0
   31.1000   27.7750   23.2600 C   0  0  1  0  0  0  0  0  0  0  0  0
   29.7650   27.0900   22.9100 C   0  0  1  0  0  0  0  0  0  0  0  0
   32.1840   27.0920   19.8330 O   0  0  0  0  0  0  0  0  0  0  0  0
   31.5240   26.5080   19.3690 H   0  0  0  0  0  0  0  0  0  0  0  0
   31.7380   29.2300   20.5500 C   0  0  0  0  0  0  0  0  0  0  0  0
   31.0250   29.9920   19.8660 O   0  0  0  0  0  0  0  0  0  0  0  0
   32.8890   29.7630   21.0900 O   0  0  0  0  0  0  0  0  0  0  0  0
   33.3070   30.6300   20.7590 H   0  0  0  0  0  0  0  0  0  0  0  0
   31.5620   27.3270   24.4940 O   0  0  0  0  0  0  0  0  0  0  0  0
   31.5800   28.1140   25.0990 H   0  0  0  0  0  0  0  0  0  0  0  0
   28.9400   27.0720   24.0740 N   0  0  0  0  0  0  0  0  0  0  0  0
   28.6100   25.8650   24.7610 C   0  0  0  0  0  0  0  0  0  0  0  0
   28.5650   27.9580   24.4580 H   0  0  0  0  0  0  0  0  0  0  0  0
   27.7560   25.8070   25.9690 C   0  0  0  0  0  0  0  0  0  0  0  0
   29.0750   24.7920   24.3110 O   0  0  0  0  0  0  0  0  0  0  0  0
   26.9070   27.9590   22.2920 O   0  0  0  0  0  0  0  0  0  0  0  0
   26.1510   28.4580   21.8900 H   0  0  0  0  0  0  0  0  0  0  0  0
   28.0790   27.2010   18.9950 O   0  0  0  0  0  0  0  0  0  0  0  0
   29.0210   27.0320   19.2240 H   0  0  0  0  0  0  0  0  0  0  0  0
   29.1470   30.6550   16.4060 O   0  0  0  0  0  0  0  0  0  0  0  0
   30.4460   31.1330   16.5610 C   0  0  0  0  0  0  0  0  0  0  0  0
   30.7690   32.3220   15.7350 C   0  0  0  0  0  0  0  0  0  0  0  0
   31.7950   33.2090   15.8440 C   0  0  0  0  0  0  0  0  0  0  0  0
   30.0450   32.7470   14.6590 N   0  0  0  0  0  0  0  0  0  0  0  0
   31.6780   34.1250   14.8670 N   0  0  0  0  0  0  0  0  0  0  0  0
   30.6190   33.8340   14.1600 N   0  0  0  0  0  0  0  0  0  0  0  0
   32.5800   35.2370   14.6500 C   0  0  0  0  0  0  0  0  0  0  0  0
   33.2920   35.0600   13.3680 C   0  0  0  0  0  0  0  0  0  0  0  0
   32.9890   35.7970   12.3880 O   0  0  0  0  0  0  0  0  0  0  0  0
   34.2760   34.1030   13.2380 O   0  0  0  0  0  0  0  0  0  0  0  0
   35.0900   34.1930   13.8550 H   0  0  0  0  0  0  0  0  0  0  0  0
   29.8670   25.5550   16.9770 C   0  0  0  0  0  0  0  0  0  0  0  0
   28.3450   25.7220   17.0260 C   0  0  0  0  0  0  0  0  0  0  0  0
   27.6020   24.3980   16.9290 C   0  0  0  0  0  0  0  0  0  0  0  0
   26.1550   24.5320   17.3160 C   0  0  0  0  0  0  0  0  0  0  0  0
   25.9830   24.1540   18.7840 C   0  0  0  0  0  0  0  0  0  0  0  0
   25.1970   22.9040   18.9090 N   0  0  0  0  0  0  0  0  0  0  0  0
  1  5  1  0  0  0  0
  2  1  1  0  0  0  0
  3  2  2  0  0  0  0
  4  1  1  0  0  0  0
  6  5  1  6  0  0  0
  6  7  1  0  0  0  0
  7 27  1  1  0  0  0
  8  7  1  6  0  0  0
  8 13  1  0  0  0  0
  9 14  1  6  0  0  0
  9 10  1  0  0  0  0
 10 12  1  0  0  0  0
 11  9  1  0  0  0  0
 11  8  1  0  0  0  0
 12 20  1  1  0  0  0
 13 12  1  0  0  0  0
 13 22  1  1  0  0  0
 15 14  1  0  0  0  0
 16  9  1  0  0  0  0
 16 18  1  0  0  0  0
 17 16  2  0  0  0  0
 19 18  1  0  0  0  0
 20 21  1  0  0  0  0
 22 24  1  0  0  0  0
 22 23  1  0  0  0  0
 23 25  1  0  0  0  0
 26 23  2  0  0  0  0
 28 27  1  0  0  0  0
 29 30  1  0  0  0  0
 29  6  1  0  0  0  0
 31 32  1  0  0  0  0
 31  2  1  0  0  0  0
 33 34  2  0  0  0  0
 33 32  1  0  0  0  0
 35 33  1  0  0  0  0
 36 34  1  0  0  0  0
 37 35  2  0  0  0  0
 37 36  1  0  0  0  0
 38 36  1  0  0  0  0
 39 38  1  0  0  0  0
 40 39  2  0  0  0  0
 41 39  1  0  0  0  0
 41 42  1  0  0  0  0
 43 44  1  0  0  0  0
 45 44  1  0  0  0  0
 45 46  1  0  0  0  0
 46 47  1  0  0  0  0
 47 48  1  0  0  0  0
M  END
>  <REMARK>
 VINA RESULT:    -4.193      3.704      5.524
 INTER + INTRA:         -13.987
 INTER:                  -9.597
 INTRA:                  -4.390
 UNBOUND:                -6.362
 SMILES CC(=O)N[C@@H]1[C@@H](O)C[C@](O)(C(=O)O)O[C@H]1C(O)[C@H](O)CNC(=O)OCc1cn(CC(=O)O)nn1
 SMILES IDX 21 1 22 2 23 3 20 5 18 6 16 7 15 8 9 9 8 10 14 11 6 12 5 13
 SMILES IDX 10 14 11 16 12 17 13 18 7 20 4 22 2 23 1 25 3 26 17 27 19 29
 SMILES IDX 24 31 25 32 26 33 27 34 34 35 28 36 33 37 29 38 30 39 31 40
 SMILES IDX 32 41
 H PARENT 21 4 10 15 13 19 7 21 4 24 17 28 19 30 32 42
 Flexibility Score: inf
  4 active torsions:
  status: ('A' for Active; 'I' for Inactive)
    1  A    between atoms: CA   and  CB  
    2  A    between atoms: CB   and  CG  
    3  A    between atoms: CG   and  CD  
    4  A    between atoms: CD   and  CE  

>  <TORSDO>
F 17

>  <BEGIN_>
RES LYS A 131

$$$$
ligand_53_pose_4_2HRL.pdbqt
 OpenBabel07062320523D

  6  5  0  0  0  0  0  0  0  0999 V2000
   33.1930   34.6630    9.2900 C   0  0  0  0  0  0  0  0  0  0  0  0
   32.0600   35.3600   10.0340 C   0  0  0  0  0  0  0  0  0  0  0  0
   30.7100   34.7320    9.8010 C   0  0  0  0  0  0  0  0  0  0  0  0
   29.8870   35.5710    8.8360 C   0  0  0  0  0  0  0  0  0  0  0  0
   28.8740   34.7060    8.1100 C   0  0  0  0  0  0  0  0  0  0  0  0
   27.9390   34.0550    9.0680 N   0  0  0  0  0  0  0  0  0  0  0  0
  1  2  1  0  0  0  0
  3  2  1  0  0  0  0
  4  3  1  0  0  0  0
  5  4  1  0  0  0  0
  5  6  1  0  0  0  0
M  END
>  <EGIN_R>
ES LYS A 135

>  <REMARK>
  4 active torsions:
  status: ('A' for Active; 'I' for Inactive)
    5  A    between atoms: CA   and  CB  
    6  A    between atoms: CB   and  CG  
    7  A    between atoms: CG   and  CD  
    8  A    between atoms: CD   and  CE  

$$$$
