ligand_80_pose_10_2HRL.pdbqt
 OpenBabel07062320523D

 56 54  0  0  1  0  0  0  0  0999 V2000
   28.2760   43.8860    9.0150 O   0  0  0  0  0  0  0  0  0  0  0  0
   27.6520   42.6620    8.9820 C   0  0  0  0  0  0  0  0  0  0  0  0
   27.7940   41.8130    7.8330 N   0  0  0  0  0  0  0  0  0  0  0  0
   28.3890   42.1860    7.0560 H   0  0  0  0  0  0  0  0  0  0  0  0
   26.9450   42.2440    9.9330 O   0  0  0  0  0  0  0  0  0  0  0  0
   27.1500   40.5150    7.7560 C   0  0  0  0  0  0  0  0  0  0  0  0
   28.2220   39.4530    7.7610 C   0  0  2  0  0  0  0  0  0  0  0  0
   28.4290   38.8440    9.1310 C   0  0  2  0  0  0  0  0  0  0  0  0
   28.2330   37.3210    9.0780 C   0  0  2  0  0  0  0  0  0  0  0  0
   29.2130   35.5600    7.8780 C   0  0  2  0  0  0  0  0  0  0  0  0
   27.8630   34.9140    7.9270 C   0  0  0  0  0  0  0  0  0  0  0  0
   29.2960   36.8010    8.4460 O   0  0  0  0  0  0  0  0  0  0  0  0
   26.8730   35.9670    7.4600 C   0  0  1  0  0  0  0  0  0  0  0  0
   26.8890   37.0850    8.4720 C   0  0  1  0  0  0  0  0  0  0  0  0
   29.5630   35.7330    6.5230 O   0  0  0  0  0  0  0  0  0  0  0  0
   30.4130   35.2340    6.4120 H   0  0  0  0  0  0  0  0  0  0  0  0
   30.2680   34.7110    8.4880 C   0  0  0  0  0  0  0  0  0  0  0  0
   30.0430   34.1450    9.5790 O   0  0  0  0  0  0  0  0  0  0  0  0
   31.5080   34.5190    7.8850 O   0  0  0  0  0  0  0  0  0  0  0  0
   31.5040   34.4280    6.8580 H   0  0  0  0  0  0  0  0  0  0  0  0
   27.3380   36.4590    6.2450 O   0  0  0  0  0  0  0  0  0  0  0  0
   28.2400   36.8300    6.3990 H   0  0  0  0  0  0  0  0  0  0  0  0
   25.9820   36.6990    9.5390 N   0  0  0  0  0  0  0  0  0  0  0  0
   24.8010   37.4160    9.8630 C   0  0  0  0  0  0  0  0  0  0  0  0
   26.2120   35.8310   10.1130 H   0  0  0  0  0  0  0  0  0  0  0  0
   23.9550   36.9250   10.9760 C   0  0  0  0  0  0  0  0  0  0  0  0
   24.5210   38.4440    9.1910 O   0  0  0  0  0  0  0  0  0  0  0  0
   27.4300   39.3750    9.9540 O   0  0  0  0  0  0  0  0  0  0  0  0
   27.4490   39.0220   10.8680 H   0  0  0  0  0  0  0  0  0  0  0  0
   29.4200   39.9410    7.2520 O   0  0  0  0  0  0  0  0  0  0  0  0
   29.3130   40.7890    6.7740 H   0  0  0  0  0  0  0  0  0  0  0  0
   29.6230   44.0250    9.4360 C   0  0  0  0  0  0  0  0  0  0  0  0
   30.5410   43.2410    8.5730 C   0  0  0  0  0  0  0  0  0  0  0  0
   31.6170   42.4830    9.0460 C   0  0  0  0  0  0  0  0  0  0  0  0
   30.5620   43.0820    7.2370 N   0  0  0  0  0  0  0  0  0  0  0  0
   32.2370   41.9090    8.0010 N   0  0  0  0  0  0  0  0  0  0  0  0
   31.5750   42.2910    6.9310 N   0  0  0  0  0  0  0  0  0  0  0  0
   33.4020   41.0520    8.0460 *   0  0  0  0  0  0  0  0  0  0  0  0
   33.1460   39.7530    7.3640 C   0  0  0  0  0  0  0  0  0  0  0  0
   33.9100   38.9940    6.4450 N   0  0  0  0  0  0  0  0  0  0  0  0
   32.0350   39.2600    7.6830 O   0  0  0  0  0  0  0  0  0  0  0  0
   33.4400   38.2430    5.8970 H   0  0  0  0  0  0  0  0  0  0  0  0
   35.3140   39.1320    6.1570 C   0  0  0  0  0  0  0  0  0  0  0  0
   36.1980   40.0300    6.7240 C   0  0  0  0  0  0  0  0  0  0  0  0
   35.7080   38.2160    5.2010 C   0  0  0  0  0  0  0  0  0  0  0  0
   37.4970   40.0030    6.3190 C   0  0  0  0  0  0  0  0  0  0  0  0
   37.0230   38.1910    4.7920 C   0  0  0  0  0  0  0  0  0  0  0  0
   37.9030   39.0860    5.3570 C   0  0  0  0  0  0  0  0  0  0  0  0
   35.8870   41.0540    7.7580 C   0  0  0  0  0  0  0  0  0  0  0  0
   34.5810   41.7790    7.4770 *   0  0  0  0  0  0  0  0  0  0  0  0
   29.8670   25.5550   16.9770 C   0  0  0  0  0  0  0  0  0  0  0  0
   28.3450   25.7220   17.0260 C   0  0  0  0  0  0  0  0  0  0  0  0
   27.6020   24.3990   16.9220 C   0  0  0  0  0  0  0  0  0  0  0  0
   26.1410   24.5430   17.2460 C   0  0  0  0  0  0  0  0  0  0  0  0
   25.9290   24.3440   18.7430 C   0  0  0  0  0  0  0  0  0  0  0  0
   24.8490   23.3600   18.9880 N   0  0  0  0  0  0  0  0  0  0  0  0
  1 32  1  0  0  0  0
  2  1  1  0  0  0  0
  2  5  2  0  0  0  0
  3  2  1  0  0  0  0
  4  3  1  0  0  0  0
  6  3  1  0  0  0  0
  7  6  1  1  0  0  0
  7  8  1  0  0  0  0
  8 28  1  1  0  0  0
  9  8  1  6  0  0  0
 10 15  1  6  0  0  0
 10 11  1  0  0  0  0
 10 12  1  0  0  0  0
 10 17  1  0  0  0  0
 12  9  1  0  0  0  0
 13 21  1  6  0  0  0
 13 11  1  0  0  0  0
 13 14  1  0  0  0  0
 14  9  1  0  0  0  0
 14 23  1  1  0  0  0
 16 15  1  0  0  0  0
 17 18  2  0  0  0  0
 19 17  1  0  0  0  0
 20 19  1  0  0  0  0
 21 22  1  0  0  0  0
 23 24  1  0  0  0  0
 23 25  1  0  0  0  0
 24 26  1  0  0  0  0
 27 24  2  0  0  0  0
 28 29  1  0  0  0  0
 30  7  1  0  0  0  0
 31 30  1  0  0  0  0
 33 34  2  0  0  0  0
 33 32  1  0  0  0  0
 35 33  1  0  0  0  0
 36 34  1  0  0  0  0
 37 35  1  0  0  0  0
 37 36  2  0  0  0  0
 39 41  2  0  0  0  0
 40 39  1  0  0  0  0
 42 40  1  0  0  0  0
 43 40  1  0  0  0  0
 43 44  2  0  0  0  0
 44 49  1  0  0  0  0
 45 43  1  0  0  0  0
 46 44  1  0  0  0  0
 47 45  2  0  0  0  0
 47 48  1  0  0  0  0
 48 46  2  0  0  0  0
 51 52  1  0  0  0  0
 53 52  1  0  0  0  0
 53 54  1  0  0  0  0
 54 55  1  0  0  0  0
 55 56  1  0  0  0  0
M  END
>  <REMARK>
 VINA RESULT:    -9.165      5.983     11.164
 INTER + INTRA:         -13.451
 INTER:                  -9.494
 INTRA:                  -3.957
 UNBOUND:                 4.555
 SMILES CC(=O)N[C@@H]1[C@@H](O)C[C@](O)(C(=O)O)O[C@H]1C(O)[C@H](O)CNC(=O)OCc1cn(C2CCc3ccccc3NC2=O)nn1
 SMILES IDX 24 1 22 2 21 3 23 5 20 6 18 7 16 8 15 9 9 10 8 11 14 12 6 13
 SMILES IDX 5 14 10 15 11 17 12 18 13 19 7 21 4 23 2 24 1 26 3 27 17 28
 SMILES IDX 19 30 25 32 26 33 27 34 42 35 28 36 41 37 29 38 39 40 38 41
 SMILES IDX 40 42 37 44 32 45 36 46 33 47 35 48 34 49 31 50 30 51
 H PARENT 21 4 10 16 13 20 7 22 4 25 17 29 19 31 38 43
 Flexibility Score: 80.00
  4 active torsions:
  status: ('A' for Active; 'I' for Inactive)
    1  A    between atoms: CA   and  CB  
    2  A    between atoms: CB   and  CG  
    3  A    between atoms: CG   and  CD  
    4  A    between atoms: CD   and  CE  

>  <TORSDO>
F 15

>  <BEGIN_>
RES LYS A 131

$$$$
ligand_80_pose_10_2HRL.pdbqt
 OpenBabel07062320523D

  6  5  0  0  0  0  0  0  0  0999 V2000
   33.1930   34.6630    9.2900 C   0  0  0  0  0  0  0  0  0  0  0  0
   32.0600   35.3600   10.0340 C   0  0  0  0  0  0  0  0  0  0  0  0
   32.5360   36.3230   11.0910 C   0  0  0  0  0  0  0  0  0  0  0  0
   31.6560   36.2400   12.3280 C   0  0  0  0  0  0  0  0  0  0  0  0
   30.2450   36.6960   12.0100 C   0  0  0  0  0  0  0  0  0  0  0  0
   29.2440   35.9520   12.8240 N   0  0  0  0  0  0  0  0  0  0  0  0
  1  2  1  0  0  0  0
  2  3  1  0  0  0  0
  3  4  1  0  0  0  0
  5  4  1  0  0  0  0
  5  6  1  0  0  0  0
M  END
>  <EGIN_R>
ES LYS A 135

>  <REMARK>
  4 active torsions:
  status: ('A' for Active; 'I' for Inactive)
    5  A    between atoms: CA   and  CB  
    6  A    between atoms: CB   and  CG  
    7  A    between atoms: CG   and  CD  
    8  A    between atoms: CD   and  CE  

$$$$
