ligand_86_pose_4_2HRL.pdbqt
 OpenBabel07062320523D

 52 54  0  0  1  0  0  0  0  0999 V2000
   30.4060   33.5760   19.3140 C   0  0  0  0  0  0  0  0  0  0  0  0
   30.7670   32.1680   19.6430 C   0  0  2  0  0  0  0  0  0  0  0  0
   29.7250   31.1660   19.2540 C   0  0  2  0  0  0  0  0  0  0  0  0
   29.7050   29.9600   20.1640 C   0  0  2  0  0  0  0  0  0  0  0  0
   31.0200   28.1880   20.8560 C   0  0  2  0  0  0  0  0  0  0  0  0
   29.7230   27.8390   21.5350 C   0  0  0  0  0  0  0  0  0  0  0  0
   30.9800   29.4150   20.2100 O   0  0  0  0  0  0  0  0  0  0  0  0
   28.5360   27.8860   20.6220 C   0  0  1  0  0  0  0  0  0  0  0  0
   28.7950   28.9130   19.5550 C   0  0  1  0  0  0  0  0  0  0  0  0
   31.4570   27.1870   19.9910 O   0  0  0  0  0  0  0  0  0  0  0  0
   30.9770   27.2390   19.1320 H   0  0  0  0  0  0  0  0  0  0  0  0
   32.0560   28.3050   21.9310 C   0  0  0  0  0  0  0  0  0  0  0  0
   32.1450   29.3650   22.6360 O   0  0  0  0  0  0  0  0  0  0  0  0
   32.9530   27.3030   22.2190 O   0  0  0  0  0  0  0  0  0  0  0  0
   33.9470   27.5540   22.2780 H   0  0  0  0  0  0  0  0  0  0  0  0
   28.1590   26.6560   20.1340 O   0  0  0  0  0  0  0  0  0  0  0  0
   27.1740   26.6680   20.0090 H   0  0  0  0  0  0  0  0  0  0  0  0
   27.5900   29.4840   19.0070 N   0  0  0  0  0  0  0  0  0  0  0  0
   26.8910   28.8910   17.9120 C   0  0  0  0  0  0  0  0  0  0  0  0
   27.1860   30.3620   19.4020 H   0  0  0  0  0  0  0  0  0  0  0  0
   25.6610   29.5260   17.3980 C   0  0  0  0  0  0  0  0  0  0  0  0
   27.3590   27.8360   17.4250 O   0  0  0  0  0  0  0  0  0  0  0  0
   29.9850   30.7200   17.9590 O   0  0  0  0  0  0  0  0  0  0  0  0
   30.1180   29.7560   17.9200 H   0  0  0  0  0  0  0  0  0  0  0  0
   31.0170   32.0200   21.0260 O   0  0  0  0  0  0  0  0  0  0  0  0
   31.1910   31.0450   21.1540 H   0  0  0  0  0  0  0  0  0  0  0  0
   29.8600   33.7090   17.9840 N   0  0  0  0  0  0  0  0  0  0  0  0
   30.7000   34.1160   16.9150 C   0  0  0  0  0  0  0  0  0  0  0  0
   28.8550   33.5150   17.7590 H   0  0  0  0  0  0  0  0  0  0  0  0
   31.9250   34.3780   17.0620 O   0  0  0  0  0  0  0  0  0  0  0  0
   30.2260   34.2590   15.6110 O   0  0  0  0  0  0  0  0  0  0  0  0
   29.0140   33.6780   15.1730 C   0  0  0  0  0  0  0  0  0  0  0  0
   28.5580   34.3380   13.9190 C   0  0  0  0  0  0  0  0  0  0  0  0
   29.3340   34.5260   12.7950 C   0  0  0  0  0  0  0  0  0  0  0  0
   27.3600   34.8650   13.6150 N   0  0  0  0  0  0  0  0  0  0  0  0
   28.5950   35.1590   11.8420 N   0  0  0  0  0  0  0  0  0  0  0  0
   27.4070   35.3410   12.3930 N   0  0  0  0  0  0  0  0  0  0  0  0
   29.0300   35.5490   10.5040 C   0  0  2  0  0  0  0  0  0  0  0  0
   28.1310   36.6280   10.0240 C   0  0  0  0  0  0  0  0  0  0  0  0
   29.0650   34.3230    9.6630 C   0  0  0  0  0  0  0  0  0  0  0  0
   27.8780   36.6490    8.5590 C   0  0  1  0  0  0  0  0  0  0  0  0
   28.4520   34.4930    8.2980 C   0  0  2  0  0  0  0  0  0  0  0  0
   28.8090   35.8200    7.8290 N   0  0  0  0  0  0  0  0  0  0  0  0
   26.5550   35.9460    8.3000 C   0  0  0  0  0  0  0  0  0  0  0  0
   26.9520   34.4920    8.4540 C   0  0  0  0  0  0  0  0  0  0  0  0
   28.6010   35.9700    6.4100 C   0  0  0  0  0  0  0  0  0  0  0  0
   29.8670   25.5550   16.9770 C   0  0  0  0  0  0  0  0  0  0  0  0
   28.3450   25.7220   17.0260 C   0  0  0  0  0  0  0  0  0  0  0  0
   27.6010   24.4010   16.9050 C   0  0  0  0  0  0  0  0  0  0  0  0
   26.5400   24.2500   17.9590 C   0  0  0  0  0  0  0  0  0  0  0  0
   25.1640   24.4270   17.3240 C   0  0  0  0  0  0  0  0  0  0  0  0
   24.6130   25.7650   17.6460 N   0  0  0  0  0  0  0  0  0  0  0  0
  2  1  1  1  0  0  0
  2 25  1  0  0  0  0
  3 23  1  6  0  0  0
  3  2  1  0  0  0  0
  4  3  1  6  0  0  0
  4  7  1  0  0  0  0
  5 10  1  6  0  0  0
  5  6  1  0  0  0  0
  5 12  1  0  0  0  0
  7  5  1  0  0  0  0
  8 16  1  6  0  0  0
  8  6  1  0  0  0  0
  9 18  1  1  0  0  0
  9  4  1  0  0  0  0
  9  8  1  0  0  0  0
 11 10  1  0  0  0  0
 12 14  1  0  0  0  0
 12 13  2  0  0  0  0
 14 15  1  0  0  0  0
 17 16  1  0  0  0  0
 18 20  1  0  0  0  0
 19 18  1  0  0  0  0
 21 19  1  0  0  0  0
 22 19  2  0  0  0  0
 24 23  1  0  0  0  0
 25 26  1  0  0  0  0
 27  1  1  0  0  0  0
 28 30  2  0  0  0  0
 28 27  1  0  0  0  0
 29 27  1  0  0  0  0
 31 28  1  0  0  0  0
 32 31  1  0  0  0  0
 33 32  1  0  0  0  0
 34 33  2  0  0  0  0
 35 33  1  0  0  0  0
 36 37  1  0  0  0  0
 36 34  1  0  0  0  0
 37 35  2  0  0  0  0
 38 40  1  6  0  0  0
 38 36  1  0  0  0  0
 39 38  1  0  0  0  0
 41 44  1  1  0  0  0
 41 39  1  0  0  0  0
 42 45  1  1  0  0  0
 42 40  1  0  0  0  0
 43 42  1  0  0  0  0
 43 41  1  0  0  0  0
 44 45  1  0  0  0  0
 46 43  1  0  0  0  0
 47 48  1  0  0  0  0
 49 48  1  0  0  0  0
 49 50  1  0  0  0  0
 51 52  1  0  0  0  0
 51 50  1  0  0  0  0
M  END
>  <REMARK>
 VINA RESULT:    -4.663      2.078      4.493
 INTER + INTRA:         -14.626
 INTER:                 -10.647
 INTRA:                  -3.979
 UNBOUND:                -6.555
 SMILES CC(=O)N[C@@H]1[C@@H](O)C[C@](O)(C(=O)O)O[C@H]1C(O)[C@H](O)CNC(=O)OCc1cn([C@H]2C[C@H]3CC[C@@H](C2)N3C)nn1
 SMILES IDX 20 1 18 2 16 3 15 4 9 5 8 6 14 7 6 8 5 9 10 10 11 12 12 13
 SMILES IDX 13 14 7 16 4 18 2 19 1 21 3 22 17 23 19 25 21 27 22 28 23 30
 SMILES IDX 24 31 25 32 26 33 27 34 39 35 28 36 38 37 29 38 35 39 30 40
 SMILES IDX 34 41 31 42 36 43 33 44 32 45 37 46
 H PARENT 10 11 13 15 7 17 4 20 17 24 19 26 21 29
 Flexibility Score: inf
  4 active torsions:
  status: ('A' for Active; 'I' for Inactive)
    1  A    between atoms: CA   and  CB  
    2  A    between atoms: CB   and  CG  
    3  A    between atoms: CG   and  CD  
    4  A    between atoms: CD   and  CE  

>  <TORSDO>
F 15

>  <BEGIN_>
RES LYS A 131

$$$$
ligand_86_pose_4_2HRL.pdbqt
 OpenBabel07062320523D

  6  5  0  0  0  0  0  0  0  0999 V2000
   33.1930   34.6630    9.2900 C   0  0  0  0  0  0  0  0  0  0  0  0
   32.0600   35.3600   10.0340 C   0  0  0  0  0  0  0  0  0  0  0  0
   32.5020   36.0420   11.3030 C   0  0  0  0  0  0  0  0  0  0  0  0
   31.9340   37.4500   11.3810 C   0  0  0  0  0  0  0  0  0  0  0  0
   31.3620   37.7180   12.7610 C   0  0  0  0  0  0  0  0  0  0  0  0
   31.9850   36.8300   13.7810 N   0  0  0  0  0  0  0  0  0  0  0  0
  1  2  1  0  0  0  0
  2  3  1  0  0  0  0
  3  4  1  0  0  0  0
  4  5  1  0  0  0  0
  5  6  1  0  0  0  0
M  END
>  <EGIN_R>
ES LYS A 135

>  <REMARK>
  4 active torsions:
  status: ('A' for Active; 'I' for Inactive)
    5  A    between atoms: CA   and  CB  
    6  A    between atoms: CB   and  CG  
    7  A    between atoms: CG   and  CD  
    8  A    between atoms: CD   and  CE  

$$$$
