ligand_48_pose_12_2HRL.pdbqt
 OpenBabel07062320523D

 49 50  0  0  1  0  0  0  0  0999 V2000
   26.1580   34.0350   15.9560 C   0  0  0  0  0  0  0  0  0  0  0  0
   27.6090   33.5860   15.8720 C   0  0  2  0  0  0  0  0  0  0  0  0
   28.4540   34.7380   16.3220 C   0  0  1  0  0  0  0  0  0  0  0  0
   29.8370   34.3630   16.8100 C   0  0  2  0  0  0  0  0  0  0  0  0
   31.3650   34.4100   15.0200 C   0  0  2  0  0  0  0  0  0  0  0  0
   31.9070   33.0440   15.4030 C   0  0  0  0  0  0  0  0  0  0  0  0
   30.8320   34.9970   16.1180 O   0  0  0  0  0  0  0  0  0  0  0  0
   30.8300   32.1790   16.0020 C   0  0  1  0  0  0  0  0  0  0  0  0
   30.0420   32.9110   17.0690 C   0  0  1  0  0  0  0  0  0  0  0  0
   30.5190   34.3150   13.9160 O   0  0  0  0  0  0  0  0  0  0  0  0
   31.0870   34.0890   13.1130 H   0  0  0  0  0  0  0  0  0  0  0  0
   32.5580   35.2050   14.6160 C   0  0  0  0  0  0  0  0  0  0  0  0
   33.6230   34.6240   14.3100 O   0  0  0  0  0  0  0  0  0  0  0  0
   32.4860   36.5680   14.5780 O   0  0  0  0  0  0  0  0  0  0  0  0
   33.1680   37.1930   14.9900 H   0  0  0  0  0  0  0  0  0  0  0  0
   30.0030   31.6550   15.0170 O   0  0  0  0  0  0  0  0  0  0  0  0
   30.4090   30.8400   14.6320 H   0  0  0  0  0  0  0  0  0  0  0  0
   30.6800   32.6890   18.3680 N   0  0  0  0  0  0  0  0  0  0  0  0
   30.2870   31.5670   19.1270 C   0  0  0  0  0  0  0  0  0  0  0  0
   31.4070   33.3320   18.7370 H   0  0  0  0  0  0  0  0  0  0  0  0
   30.8810   31.2550   20.4640 C   0  0  0  0  0  0  0  0  0  0  0  0
   29.4030   30.7460   18.7260 O   0  0  0  0  0  0  0  0  0  0  0  0
   28.4030   35.8150   15.4770 O   0  0  0  0  0  0  0  0  0  0  0  0
   28.9790   35.7040   14.6560 H   0  0  0  0  0  0  0  0  0  0  0  0
   27.8410   33.1450   14.5920 O   0  0  0  0  0  0  0  0  0  0  0  0
   28.2840   32.2830   14.6210 H   0  0  0  0  0  0  0  0  0  0  0  0
   25.8400   34.7600   14.7480 N   0  0  0  0  0  0  0  0  0  0  0  0
   25.2470   34.2000   13.5900 C   0  0  0  0  0  0  0  0  0  0  0  0
   26.0500   35.8040   14.6750 H   0  0  0  0  0  0  0  0  0  0  0  0
   24.9630   32.9780   13.5740 O   0  0  0  0  0  0  0  0  0  0  0  0
   24.9710   34.9740   12.4670 O   0  0  0  0  0  0  0  0  0  0  0  0
   25.8110   34.8950   11.3430 C   0  0  0  0  0  0  0  0  0  0  0  0
   27.0710   35.6200   11.6510 C   0  0  0  0  0  0  0  0  0  0  0  0
   27.5120   36.8050   11.0480 C   0  0  0  0  0  0  0  0  0  0  0  0
   28.0450   35.3270   12.5340 N   0  0  0  0  0  0  0  0  0  0  0  0
   28.6940   37.1640   11.5780 N   0  0  0  0  0  0  0  0  0  0  0  0
   28.9930   36.2450   12.4790 N   0  0  0  0  0  0  0  0  0  0  0  0
   29.4880   38.3340   11.2270 C   0  0  0  0  0  0  0  0  0  0  0  0
   30.8590   38.2080   11.8520 C   0  0  0  0  0  0  0  0  0  0  0  0
   29.6600   38.4080    9.7260 C   0  0  0  0  0  0  0  0  0  0  0  0
   31.9080   37.8240   10.8250 C   0  0  0  0  0  0  0  0  0  0  0  0
   30.6860   39.4950    9.4560 C   0  0  0  0  0  0  0  0  0  0  0  0
   32.0440   38.9160    9.7990 C   0  0  0  0  0  0  0  0  0  0  0  0
   29.8670   25.5550   16.9770 C   0  0  0  0  0  0  0  0  0  0  0  0
   28.3450   25.7220   17.0260 C   0  0  0  0  0  0  0  0  0  0  0  0
   27.6010   24.4010   16.9060 C   0  0  0  0  0  0  0  0  0  0  0  0
   26.1580   24.5250   17.3070 C   0  0  0  0  0  0  0  0  0  0  0  0
   25.7980   23.3980   18.2700 C   0  0  0  0  0  0  0  0  0  0  0  0
   24.8920   22.4250   17.6150 N   0  0  0  0  0  0  0  0  0  0  0  0
  2  1  1  6  0  0  0
  2  3  1  0  0  0  0
  3 23  1  6  0  0  0
  4  3  1  6  0  0  0
  4  9  1  0  0  0  0
  5 10  1  6  0  0  0
  5  6  1  0  0  0  0
  5  7  1  0  0  0  0
  6  8  1  0  0  0  0
  7  4  1  0  0  0  0
  8 16  1  6  0  0  0
  8  9  1  0  0  0  0
  9 18  1  1  0  0  0
 11 10  1  0  0  0  0
 12  5  1  0  0  0  0
 13 12  2  0  0  0  0
 14 12  1  0  0  0  0
 14 15  1  0  0  0  0
 17 16  1  0  0  0  0
 18 20  1  0  0  0  0
 18 19  1  0  0  0  0
 19 21  1  0  0  0  0
 22 19  2  0  0  0  0
 24 23  1  0  0  0  0
 25 26  1  0  0  0  0
 25  2  1  0  0  0  0
 27  1  1  0  0  0  0
 28 27  1  0  0  0  0
 29 27  1  0  0  0  0
 30 28  2  0  0  0  0
 31 28  1  0  0  0  0
 32 33  1  0  0  0  0
 32 31  1  0  0  0  0
 33 35  1  0  0  0  0
 34 36  1  0  0  0  0
 34 33  2  0  0  0  0
 36 37  1  0  0  0  0
 37 35  2  0  0  0  0
 38 36  1  0  0  0  0
 38 39  1  0  0  0  0
 40 38  1  0  0  0  0
 41 39  1  0  0  0  0
 42 40  1  0  0  0  0
 42 43  1  0  0  0  0
 43 41  1  0  0  0  0
 44 45  1  0  0  0  0
 46 45  1  0  0  0  0
 46 47  1  0  0  0  0
 47 48  1  0  0  0  0
 49 48  1  0  0  0  0
M  END
>  <REMARK>
 VINA RESULT:    -4.714      3.811      6.864
 INTER + INTRA:         -13.955
 INTER:                  -7.501
 INTRA:                  -6.454
 UNBOUND:                -5.796
 SMILES CC(=O)N[C@@H]1[C@@H](O)C[C@](O)(C(=O)O)O[C@H]1C(O)[C@H](O)CNC(=O)OCc1cn(C2CCCCC2)nn1
 SMILES IDX 20 1 18 2 16 3 15 4 9 5 8 6 14 7 6 8 5 9 10 10 11 12 12 13
 SMILES IDX 13 14 7 16 4 18 2 19 1 21 3 22 17 23 19 25 21 27 22 28 23 30
 SMILES IDX 24 31 25 32 26 33 27 34 36 35 28 36 35 37 29 38 30 39 34 40
 SMILES IDX 31 41 33 42 32 43
 H PARENT 10 11 13 15 7 17 4 20 17 24 19 26 21 29
 Flexibility Score: inf
  4 active torsions:
  status: ('A' for Active; 'I' for Inactive)
    1  A    between atoms: CA   and  CB  
    2  A    between atoms: CB   and  CG  
    3  A    between atoms: CG   and  CD  
    4  A    between atoms: CD   and  CE  

>  <TORSDO>
F 15

>  <BEGIN_>
RES LYS A 131

$$$$
ligand_48_pose_12_2HRL.pdbqt
 OpenBabel07062320523D

  6  5  0  0  0  0  0  0  0  0999 V2000
   33.1930   34.6630    9.2900 C   0  0  0  0  0  0  0  0  0  0  0  0
   32.0600   35.3600   10.0340 C   0  0  0  0  0  0  0  0  0  0  0  0
   30.7110   34.7270    9.8070 C   0  0  0  0  0  0  0  0  0  0  0  0
   30.4060   34.6330    8.3200 C   0  0  0  0  0  0  0  0  0  0  0  0
   29.0230   35.1820    8.0250 C   0  0  0  0  0  0  0  0  0  0  0  0
   28.8660   35.4880    6.5760 N   0  0  0  0  0  0  0  0  0  0  0  0
  1  2  1  0  0  0  0
  3  2  1  0  0  0  0
  4  3  1  0  0  0  0
  5  4  1  0  0  0  0
  6  5  1  0  0  0  0
M  END
>  <EGIN_R>
ES LYS A 135

>  <REMARK>
  4 active torsions:
  status: ('A' for Active; 'I' for Inactive)
    5  A    between atoms: CA   and  CB  
    6  A    between atoms: CB   and  CG  
    7  A    between atoms: CG   and  CD  
    8  A    between atoms: CD   and  CE  

$$$$
