ligand_32_pose_13_2HRL.pdbqt
 OpenBabel07062320523D

 49 49  0  0  1  0  0  0  0  0999 V2000
   23.7810   35.8800   12.6400 N   0  0  0  0  0  0  0  0  0  0  0  0
   24.8390   35.0530   13.0950 C   0  0  0  0  0  0  0  0  0  0  0  0
   24.6460   33.8310   13.3710 O   0  0  0  0  0  0  0  0  0  0  0  0
   23.9790   36.8750   12.4240 H   0  0  0  0  0  0  0  0  0  0  0  0
   22.4400   35.3750   12.4740 C   0  0  0  0  0  0  0  0  0  0  0  0
   22.2030   34.7080   11.1460 C   0  0  2  0  0  0  0  0  0  0  0  0
   21.8340   35.7350   10.0760 C   0  0  1  0  0  0  0  0  0  0  0  0
   23.0170   35.9630    9.1510 C   0  0  2  0  0  0  0  0  0  0  0  0
   25.3380   35.9950    9.4070 C   0  0  2  0  0  0  0  0  0  0  0  0
   25.4660   36.7650    8.1220 C   0  0  0  0  0  0  0  0  0  0  0  0
   24.1460   35.3190    9.5400 O   0  0  0  0  0  0  0  0  0  0  0  0
   24.2210   37.4350    7.6620 C   0  0  1  0  0  0  0  0  0  0  0  0
   23.2310   37.4200    8.8370 C   0  0  1  0  0  0  0  0  0  0  0  0
   25.5870   36.8620   10.4650 O   0  0  0  0  0  0  0  0  0  0  0  0
   24.7260   37.3360   10.6350 H   0  0  0  0  0  0  0  0  0  0  0  0
   26.4120   34.9760    9.3970 C   0  0  0  0  0  0  0  0  0  0  0  0
   26.7260   34.3100    8.3870 O   0  0  0  0  0  0  0  0  0  0  0  0
   27.1190   34.7310   10.5610 O   0  0  0  0  0  0  0  0  0  0  0  0
   27.6650   35.4350   11.0420 H   0  0  0  0  0  0  0  0  0  0  0  0
   24.4290   38.7370    7.2170 O   0  0  0  0  0  0  0  0  0  0  0  0
   25.0260   38.7720    6.4200 H   0  0  0  0  0  0  0  0  0  0  0  0
   21.9940   38.0770    8.4620 N   0  0  0  0  0  0  0  0  0  0  0  0
   21.7500   39.4260    8.8440 C   0  0  0  0  0  0  0  0  0  0  0  0
   21.2480   37.5920    7.9090 H   0  0  0  0  0  0  0  0  0  0  0  0
   20.4840   40.1470    8.4780 C   0  0  0  0  0  0  0  0  0  0  0  0
   22.6190   40.0660    9.5180 O   0  0  0  0  0  0  0  0  0  0  0  0
   20.7710   35.2220    9.3370 O   0  0  0  0  0  0  0  0  0  0  0  0
   20.6900   34.2340    9.4240 H   0  0  0  0  0  0  0  0  0  0  0  0
   21.1590   33.7970   11.3250 O   0  0  0  0  0  0  0  0  0  0  0  0
   21.3280   33.0050   10.7550 H   0  0  0  0  0  0  0  0  0  0  0  0
   26.0980   35.5910   13.2370 O   0  0  0  0  0  0  0  0  0  0  0  0
   26.7940   35.6330   14.4710 C   0  0  0  0  0  0  0  0  0  0  0  0
   28.2570   35.3730   14.2480 C   0  0  0  0  0  0  0  0  0  0  0  0
   29.2950   35.7450   15.0600 C   0  0  0  0  0  0  0  0  0  0  0  0
   28.7770   34.7270   13.1860 N   0  0  0  0  0  0  0  0  0  0  0  0
   30.4360   35.3130   14.4710 N   0  0  0  0  0  0  0  0  0  0  0  0
   30.0900   34.7040   13.3450 N   0  0  0  0  0  0  0  0  0  0  0  0
   31.7590   35.5080   15.0240 C   0  0  0  0  0  0  0  0  0  0  0  0
   32.5320   34.2030   14.8510 C   0  0  0  0  0  0  0  0  0  0  0  0
   31.7850   33.1610   15.6180 C   0  0  0  0  0  0  0  0  0  0  0  0
   31.5860   33.2310   16.8380 O   0  0  0  0  0  0  0  0  0  0  0  0
   31.3060   32.0740   14.8870 O   0  0  0  0  0  0  0  0  0  0  0  0
   31.7600   31.1670   14.9780 H   0  0  0  0  0  0  0  0  0  0  0  0
   29.8670   25.5550   16.9770 C   0  0  0  0  0  0  0  0  0  0  0  0
   28.3450   25.7220   17.0260 C   0  0  0  0  0  0  0  0  0  0  0  0
   27.6010   24.4000   16.9080 C   0  0  0  0  0  0  0  0  0  0  0  0
   26.1640   24.5190   17.3310 C   0  0  0  0  0  0  0  0  0  0  0  0
   25.9670   23.8110   18.6680 C   0  0  0  0  0  0  0  0  0  0  0  0
   25.5390   24.7760   19.7080 N   0  0  0  0  0  0  0  0  0  0  0  0
  1  2  1  0  0  0  0
  2 31  1  0  0  0  0
  2  3  2  0  0  0  0
  4  1  1  0  0  0  0
  5  1  1  0  0  0  0
  6 29  1  0  0  0  0
  6  5  1  1  0  0  0
  7 27  1  6  0  0  0
  7  6  1  0  0  0  0
  8 11  1  0  0  0  0
  8  7  1  1  0  0  0
  9 16  1  1  0  0  0
  9 11  1  0  0  0  0
  9 14  1  0  0  0  0
 10  9  1  0  0  0  0
 12 20  1  1  0  0  0
 12 10  1  0  0  0  0
 12 13  1  0  0  0  0
 13 22  1  6  0  0  0
 13  8  1  0  0  0  0
 14 15  1  0  0  0  0
 16 18  1  0  0  0  0
 17 16  2  0  0  0  0
 18 19  1  0  0  0  0
 21 20  1  0  0  0  0
 22 23  1  0  0  0  0
 23 26  2  0  0  0  0
 24 22  1  0  0  0  0
 25 23  1  0  0  0  0
 27 28  1  0  0  0  0
 30 29  1  0  0  0  0
 31 32  1  0  0  0  0
 33 32  1  0  0  0  0
 33 34  2  0  0  0  0
 35 37  2  0  0  0  0
 35 33  1  0  0  0  0
 36 38  1  0  0  0  0
 36 34  1  0  0  0  0
 37 36  1  0  0  0  0
 39 38  1  0  0  0  0
 39 40  1  0  0  0  0
 40 41  2  0  0  0  0
 42 43  1  0  0  0  0
 42 40  1  0  0  0  0
 44 45  1  0  0  0  0
 46 45  1  0  0  0  0
 46 47  1  0  0  0  0
 47 48  1  0  0  0  0
 48 49  1  0  0  0  0
M  END
>  <REMARK>
 VINA RESULT:    -4.263      6.472     11.869
 INTER + INTRA:         -13.645
 INTER:                  -8.351
 INTRA:                  -5.294
 UNBOUND:                -5.644
 SMILES CC(=O)N[C@@H]1[C@@H](O)C[C@](O)(C(=O)O)O[C@H]1C(O)[C@H](O)CNC(=O)OCc1cn(CCC(=O)O)nn1
 SMILES IDX 21 1 22 2 23 3 20 5 18 6 16 7 15 8 9 9 8 10 14 11 6 12 5 13
 SMILES IDX 10 14 11 16 12 17 13 18 7 20 4 22 2 23 1 25 3 26 17 27 19 29
 SMILES IDX 24 31 25 32 26 33 27 34 35 35 28 36 34 37 29 38 30 39 31 40
 SMILES IDX 32 41 33 42
 H PARENT 21 4 10 15 13 19 7 21 4 24 17 28 19 30 33 43
 Flexibility Score: inf
  4 active torsions:
  status: ('A' for Active; 'I' for Inactive)
    1  A    between atoms: CA   and  CB  
    2  A    between atoms: CB   and  CG  
    3  A    between atoms: CG   and  CD  
    4  A    between atoms: CD   and  CE  

>  <TORSDO>
F 18

>  <BEGIN_>
RES LYS A 131

$$$$
ligand_32_pose_13_2HRL.pdbqt
 OpenBabel07062320523D

  6  5  0  0  0  0  0  0  0  0999 V2000
   33.1930   34.6630    9.2900 C   0  0  0  0  0  0  0  0  0  0  0  0
   32.0600   35.3600   10.0340 C   0  0  0  0  0  0  0  0  0  0  0  0
   30.6990   34.7910    9.7290 C   0  0  0  0  0  0  0  0  0  0  0  0
   30.0880   35.4790    8.5170 C   0  0  0  0  0  0  0  0  0  0  0  0
   30.1390   36.9860    8.6800 C   0  0  0  0  0  0  0  0  0  0  0  0
   28.9950   37.4770    9.4970 N   0  0  0  0  0  0  0  0  0  0  0  0
  1  2  1  0  0  0  0
  3  2  1  0  0  0  0
  4  5  1  0  0  0  0
  4  3  1  0  0  0  0
  5  6  1  0  0  0  0
M  END
>  <EGIN_R>
ES LYS A 135

>  <REMARK>
  4 active torsions:
  status: ('A' for Active; 'I' for Inactive)
    5  A    between atoms: CA   and  CB  
    6  A    between atoms: CB   and  CG  
    7  A    between atoms: CG   and  CD  
    8  A    between atoms: CD   and  CE  

$$$$
