ligand_44_pose_5_2HRL.pdbqt
 OpenBabel07062320523D

 51 52  0  0  1  0  0  0  0  0999 V2000
   26.9450   37.1540   10.4970 N   0  0  0  0  0  0  0  0  0  0  0  0
   28.3020   37.5550   10.4360 C   0  0  0  0  0  0  0  0  0  0  0  0
   28.8490   38.1380    9.4810 O   0  0  0  0  0  0  0  0  0  0  0  0
   26.5800   36.6630   11.3730 H   0  0  0  0  0  0  0  0  0  0  0  0
   26.0710   37.4070    9.3950 C   0  0  0  0  0  0  0  0  0  0  0  0
   25.1470   36.2700    9.0410 C   0  0  2  0  0  0  0  0  0  0  0  0
   23.9290   36.7010    8.3070 C   0  0  1  0  0  0  0  0  0  0  0  0
   22.8060   37.2830    9.0700 C   0  0  2  0  0  0  0  0  0  0  0  0
   20.7910   36.3810    8.4000 C   0  0  2  0  0  0  0  0  0  0  0  0
   19.9510   37.4510    9.0580 C   0  0  0  0  0  0  0  0  0  0  0  0
   21.8910   36.2300    9.2300 O   0  0  0  0  0  0  0  0  0  0  0  0
   20.7430   38.7120    8.9960 C   0  0  1  0  0  0  0  0  0  0  0  0
   22.2050   38.5430    8.6310 C   0  0  1  0  0  0  0  0  0  0  0  0
   21.0850   36.8070    7.1230 O   0  0  0  0  0  0  0  0  0  0  0  0
   22.0260   37.0060    6.9640 H   0  0  0  0  0  0  0  0  0  0  0  0
   20.0080   35.1230    8.4170 C   0  0  0  0  0  0  0  0  0  0  0  0
   19.4680   34.6670    9.4490 O   0  0  0  0  0  0  0  0  0  0  0  0
   19.8860   34.4360    7.2130 O   0  0  0  0  0  0  0  0  0  0  0  0
   20.6760   34.0910    6.6920 H   0  0  0  0  0  0  0  0  0  0  0  0
   20.1700   39.5060    7.9750 O   0  0  0  0  0  0  0  0  0  0  0  0
   19.2090   39.3470    7.8870 H   0  0  0  0  0  0  0  0  0  0  0  0
   22.8260   39.7040    9.3060 N   0  0  0  0  0  0  0  0  0  0  0  0
   23.8310   40.4850    8.7240 C   0  0  0  0  0  0  0  0  0  0  0  0
   22.4480   39.8940   10.2660 H   0  0  0  0  0  0  0  0  0  0  0  0
   24.3980   41.6320    9.4930 C   0  0  0  0  0  0  0  0  0  0  0  0
   24.2490   40.2320    7.5840 O   0  0  0  0  0  0  0  0  0  0  0  0
   24.3000   37.3610    7.1460 O   0  0  0  0  0  0  0  0  0  0  0  0
   23.4920   37.5170    6.5780 H   0  0  0  0  0  0  0  0  0  0  0  0
   24.9110   35.3730   10.0690 O   0  0  0  0  0  0  0  0  0  0  0  0
   24.1660   34.7640    9.8950 H   0  0  0  0  0  0  0  0  0  0  0  0
   29.1150   37.2820   11.5350 O   0  0  0  0  0  0  0  0  0  0  0  0
   28.7070   36.3900   12.5450 C   0  0  0  0  0  0  0  0  0  0  0  0
   29.8180   36.0320   13.4450 C   0  0  0  0  0  0  0  0  0  0  0  0
   30.4730   34.8380   13.6380 C   0  0  0  0  0  0  0  0  0  0  0  0
   30.3810   36.9330   14.2820 N   0  0  0  0  0  0  0  0  0  0  0  0
   31.4150   35.0520   14.5850 N   0  0  0  0  0  0  0  0  0  0  0  0
   31.3260   36.3190   14.9430 N   0  0  0  0  0  0  0  0  0  0  0  0
   32.3300   34.0470   15.0840 C   0  0  0  0  0  0  0  0  0  0  0  0
   31.5790   33.2120   16.0800 C   0  0  0  0  0  0  0  0  0  0  0  0
   31.0730   31.9820   15.6850 C   0  0  0  0  0  0  0  0  0  0  0  0
   31.4060   33.6760   17.3660 C   0  0  0  0  0  0  0  0  0  0  0  0
   30.3910   31.2370   16.6110 C   0  0  0  0  0  0  0  0  0  0  0  0
   30.7110   32.9190   18.3090 C   0  0  0  0  0  0  0  0  0  0  0  0
   30.2210   31.7060   17.8930 C   0  0  0  0  0  0  0  0  0  0  0  0
   29.2650   30.6430   19.1640 Br  0  0  0  0  0  0  0  0  0  0  0  0
   29.8670   25.5550   16.9770 C   0  0  0  0  0  0  0  0  0  0  0  0
   28.3450   25.7220   17.0260 C   0  0  0  0  0  0  0  0  0  0  0  0
   27.6010   24.4030   16.8880 C   0  0  0  0  0  0  0  0  0  0  0  0
   26.5940   24.2030   17.9860 C   0  0  0  0  0  0  0  0  0  0  0  0
   25.2460   24.7690   17.5510 C   0  0  0  0  0  0  0  0  0  0  0  0
   24.3980   23.7010   16.9700 N   0  0  0  0  0  0  0  0  0  0  0  0
  1  4  1  0  0  0  0
  2  1  1  0  0  0  0
  2 31  1  0  0  0  0
  3  2  2  0  0  0  0
  5  1  1  0  0  0  0
  6  5  1  1  0  0  0
  6 29  1  0  0  0  0
  7 27  1  6  0  0  0
  7  6  1  0  0  0  0
  8  7  1  6  0  0  0
  8 11  1  0  0  0  0
  9 14  1  6  0  0  0
  9 16  1  0  0  0  0
  9 10  1  0  0  0  0
  9 11  1  0  0  0  0
 12 20  1  6  0  0  0
 12 10  1  0  0  0  0
 13 12  1  0  0  0  0
 13  8  1  0  0  0  0
 13 22  1  1  0  0  0
 15 14  1  0  0  0  0
 16 17  2  0  0  0  0
 18 16  1  0  0  0  0
 19 18  1  0  0  0  0
 21 20  1  0  0  0  0
 22 24  1  0  0  0  0
 23 22  1  0  0  0  0
 23 25  1  0  0  0  0
 26 23  2  0  0  0  0
 28 27  1  0  0  0  0
 30 29  1  0  0  0  0
 31 32  1  0  0  0  0
 32 33  1  0  0  0  0
 33 34  2  0  0  0  0
 33 35  1  0  0  0  0
 34 36  1  0  0  0  0
 35 37  2  0  0  0  0
 36 37  1  0  0  0  0
 36 38  1  0  0  0  0
 38 39  1  0  0  0  0
 39 41  1  0  0  0  0
 40 39  2  0  0  0  0
 40 42  1  0  0  0  0
 41 43  2  0  0  0  0
 42 44  2  0  0  0  0
 44 43  1  0  0  0  0
 44 45  1  0  0  0  0
 46 47  1  0  0  0  0
 48 47  1  0  0  0  0
 48 49  1  0  0  0  0
 50 49  1  0  0  0  0
 51 50  1  0  0  0  0
M  END
>  <REMARK>
 VINA RESULT:    -4.710      5.086      9.346
 INTER + INTRA:         -14.826
 INTER:                 -10.097
 INTRA:                  -4.729
 UNBOUND:                -6.398
 SMILES CC(=O)N[C@@H]1[C@@H](O)C[C@](O)(C(=O)O)O[C@H]1C(O)[C@H](O)CNC(=O)OCc1cn(Cc2ccc(Br)cc2)nn1
 SMILES IDX 21 1 22 2 23 3 20 5 18 6 16 7 15 8 9 9 8 10 14 11 6 12 5 13
 SMILES IDX 10 14 11 16 12 17 13 18 7 20 4 22 2 23 1 25 3 26 17 27 19 29
 SMILES IDX 24 31 25 32 26 33 27 34 38 35 28 36 37 37 29 38 30 39 31 40
 SMILES IDX 36 41 32 42 35 43 33 44 34 45
 H PARENT 21 4 10 15 13 19 7 21 4 24 17 28 19 30
 Flexibility Score: inf
  4 active torsions:
  status: ('A' for Active; 'I' for Inactive)
    1  A    between atoms: CA   and  CB  
    2  A    between atoms: CB   and  CG  
    3  A    between atoms: CG   and  CD  
    4  A    between atoms: CD   and  CE  

>  <TORSDO>
F 16

>  <BEGIN_>
RES LYS A 131

$$$$
ligand_44_pose_5_2HRL.pdbqt
 OpenBabel07062320523D

  6  5  0  0  0  0  0  0  0  0999 V2000
   33.1930   34.6630    9.2900 C   0  0  0  0  0  0  0  0  0  0  0  0
   32.0600   35.3600   10.0340 C   0  0  0  0  0  0  0  0  0  0  0  0
   30.7190   34.6980    9.8470 C   0  0  0  0  0  0  0  0  0  0  0  0
   30.2600   34.8130    8.4020 C   0  0  0  0  0  0  0  0  0  0  0  0
   28.7710   34.5480    8.2930 C   0  0  0  0  0  0  0  0  0  0  0  0
   28.2370   33.9640    9.5550 N   0  0  0  0  0  0  0  0  0  0  0  0
  1  2  1  0  0  0  0
  3  2  1  0  0  0  0
  4  3  1  0  0  0  0
  5  4  1  0  0  0  0
  5  6  1  0  0  0  0
M  END
>  <EGIN_R>
ES LYS A 135

>  <REMARK>
  4 active torsions:
  status: ('A' for Active; 'I' for Inactive)
    5  A    between atoms: CA   and  CB  
    6  A    between atoms: CB   and  CG  
    7  A    between atoms: CG   and  CD  
    8  A    between atoms: CD   and  CE  

$$$$
