ligand_28_pose_1_2HRL.pdbqt
 OpenBabel07062320523D

 53 55  0  0  1  0  0  0  0  0999 V2000
   28.0040   28.5280   18.4270 N   0  0  0  0  0  0  0  0  0  0  0  0
   27.1550   28.7660   17.3100 C   0  0  0  0  0  0  0  0  0  0  0  0
   26.2180   27.9430   17.0480 O   0  0  0  0  0  0  0  0  0  0  0  0
   28.7520   29.2110   18.6140 H   0  0  0  0  0  0  0  0  0  0  0  0
   27.7490   27.3490   19.2140 C   0  0  0  0  0  0  0  0  0  0  0  0
   27.6770   27.6130   20.6840 C   0  0  2  0  0  0  0  0  0  0  0  0
   29.0390   27.6280   21.3420 C   0  0  2  0  0  0  0  0  0  0  0  0
   29.3670   29.0220   21.8680 C   0  0  2  0  0  0  0  0  0  0  0  0
   29.8470   30.7520   20.3970 C   0  0  2  0  0  0  0  0  0  0  0  0
   30.8820   31.3730   21.3050 C   0  0  0  0  0  0  0  0  0  0  0  0
   28.9050   30.0090   21.0490 O   0  0  0  0  0  0  0  0  0  0  0  0
   31.0570   30.5900   22.5900 C   0  0  1  0  0  0  0  0  0  0  0  0
   30.8190   29.1360   22.2500 C   0  0  1  0  0  0  0  0  0  0  0  0
   30.4690   30.0050   19.3780 O   0  0  0  0  0  0  0  0  0  0  0  0
   30.0150   29.1600   19.2030 H   0  0  0  0  0  0  0  0  0  0  0  0
   29.1500   31.8750   19.7120 C   0  0  0  0  0  0  0  0  0  0  0  0
   29.6260   33.0500   19.7630 O   0  0  0  0  0  0  0  0  0  0  0  0
   27.9740   31.7230   18.9980 O   0  0  0  0  0  0  0  0  0  0  0  0
   27.3690   30.9330   19.2410 H   0  0  0  0  0  0  0  0  0  0  0  0
   32.3080   30.8080   23.1570 O   0  0  0  0  0  0  0  0  0  0  0  0
   32.3030   30.3960   24.0540 H   0  0  0  0  0  0  0  0  0  0  0  0
   31.1280   28.2390   23.3050 N   0  0  0  0  0  0  0  0  0  0  0  0
   32.4130   27.6570   23.4590 C   0  0  0  0  0  0  0  0  0  0  0  0
   30.3510   28.0110   23.9930 H   0  0  0  0  0  0  0  0  0  0  0  0
   32.7070   26.7140   24.5850 C   0  0  0  0  0  0  0  0  0  0  0  0
   33.2810   27.9750   22.6060 O   0  0  0  0  0  0  0  0  0  0  0  0
   29.9850   27.3300   20.3620 O   0  0  0  0  0  0  0  0  0  0  0  0
   29.6240   26.6470   19.7450 H   0  0  0  0  0  0  0  0  0  0  0  0
   26.8870   26.6170   21.2560 O   0  0  0  0  0  0  0  0  0  0  0  0
   27.0370   25.7350   20.8370 H   0  0  0  0  0  0  0  0  0  0  0  0
   27.3010   29.8690   16.4760 O   0  0  0  0  0  0  0  0  0  0  0  0
   28.5470   30.0600   15.8150 C   0  0  0  0  0  0  0  0  0  0  0  0
   29.0640   31.4240   16.0680 C   0  0  0  0  0  0  0  0  0  0  0  0
   30.3840   31.7430   16.2110 C   0  0  0  0  0  0  0  0  0  0  0  0
   28.3840   32.5620   16.2030 N   0  0  0  0  0  0  0  0  0  0  0  0
   30.4650   33.0630   16.4300 N   0  0  0  0  0  0  0  0  0  0  0  0
   29.2460   33.5470   16.4220 N   0  0  0  0  0  0  0  0  0  0  0  0
   31.6920   33.8020   16.6350 C   0  0  0  0  0  0  0  0  0  0  0  0
   31.9090   34.6330   15.4170 C   0  0  0  0  0  0  0  0  0  0  0  0
   32.9220   34.2870   14.5520 C   0  0  0  0  0  0  0  0  0  0  0  0
   31.1330   35.7280   15.1330 C   0  0  0  0  0  0  0  0  0  0  0  0
   33.1420   35.0480   13.4100 C   0  0  0  0  0  0  0  0  0  0  0  0
   31.3550   36.4810   13.9970 C   0  0  0  0  0  0  0  0  0  0  0  0
   32.3580   36.1480   13.1290 C   0  0  0  0  0  0  0  0  0  0  0  0
   30.7070   37.6050   13.5210 O   0  0  0  0  0  0  0  0  0  0  0  0
   32.3740   37.0480   12.0830 O   0  0  0  0  0  0  0  0  0  0  0  0
   31.1950   37.8300   12.2170 C   0  0  0  0  0  0  0  0  0  0  0  0
   29.8670   25.5550   16.9770 C   0  0  0  0  0  0  0  0  0  0  0  0
   28.3450   25.7220   17.0260 C   0  0  0  0  0  0  0  0  0  0  0  0
   27.5990   24.4560   16.6330 C   0  0  0  0  0  0  0  0  0  0  0  0
   26.8160   23.8810   17.7810 C   0  0  0  0  0  0  0  0  0  0  0  0
   25.3520   23.7380   17.3770 C   0  0  0  0  0  0  0  0  0  0  0  0
   24.7870   22.4770   17.9120 N   0  0  0  0  0  0  0  0  0  0  0  0
  1  4  1  0  0  0  0
  1  5  1  0  0  0  0
  2  1  1  0  0  0  0
  3  2  2  0  0  0  0
  6  5  1  6  0  0  0
  6 29  1  0  0  0  0
  6  7  1  0  0  0  0
  7 27  1  6  0  0  0
  8  7  1  6  0  0  0
  8 13  1  0  0  0  0
  9 14  1  6  0  0  0
  9 11  1  0  0  0  0
  9 10  1  0  0  0  0
 10 12  1  0  0  0  0
 11  8  1  0  0  0  0
 12 20  1  6  0  0  0
 13 12  1  0  0  0  0
 13 22  1  1  0  0  0
 15 14  1  0  0  0  0
 16 17  2  0  0  0  0
 16  9  1  0  0  0  0
 18 19  1  0  0  0  0
 18 16  1  0  0  0  0
 20 21  1  0  0  0  0
 22 23  1  0  0  0  0
 22 24  1  0  0  0  0
 23 25  1  0  0  0  0
 26 23  2  0  0  0  0
 28 27  1  0  0  0  0
 30 29  1  0  0  0  0
 31  2  1  0  0  0  0
 32 33  1  0  0  0  0
 32 31  1  0  0  0  0
 33 35  1  0  0  0  0
 33 34  2  0  0  0  0
 34 36  1  0  0  0  0
 35 37  2  0  0  0  0
 36 38  1  0  0  0  0
 37 36  1  0  0  0  0
 39 38  1  0  0  0  0
 40 39  2  0  0  0  0
 41 39  1  0  0  0  0
 42 40  1  0  0  0  0
 43 41  2  0  0  0  0
 44 42  2  0  0  0  0
 44 43  1  0  0  0  0
 45 43  1  0  0  0  0
 46 47  1  0  0  0  0
 46 44  1  0  0  0  0
 47 45  1  0  0  0  0
 48 49  1  0  0  0  0
 50 49  1  0  0  0  0
 50 51  1  0  0  0  0
 52 51  1  0  0  0  0
 52 53  1  0  0  0  0
M  END
>  <REMARK>
 VINA RESULT:    -5.279      4.089     11.629
 INTER + INTRA:         -15.448
 INTER:                  -8.825
 INTRA:                  -6.623
 UNBOUND:                -6.003
 SMILES CC(=O)N[C@@H]1[C@@H](O)C[C@](O)(C(=O)O)O[C@H]1C(O)[C@H](O)CNC(=O)OCc1cn(Cc2ccc3c(c2)OCO3)nn1
 SMILES IDX 21 1 22 2 23 3 20 5 18 6 16 7 15 8 9 9 8 10 14 11 6 12 5 13
 SMILES IDX 10 14 11 16 12 17 13 18 7 20 4 22 2 23 1 25 3 26 17 27 19 29
 SMILES IDX 24 31 25 32 26 33 27 34 40 35 28 36 39 37 29 38 30 39 31 40
 SMILES IDX 35 41 32 42 34 43 33 44 36 45 38 46 37 47
 H PARENT 21 4 10 15 13 19 7 21 4 24 17 28 19 30
 Flexibility Score: inf
  4 active torsions:
  status: ('A' for Active; 'I' for Inactive)
    1  A    between atoms: CA   and  CB  
    2  A    between atoms: CB   and  CG  
    3  A    between atoms: CG   and  CD  
    4  A    between atoms: CD   and  CE  

>  <TORSDO>
F 16

>  <BEGIN_>
RES LYS A 131

$$$$
ligand_28_pose_1_2HRL.pdbqt
 OpenBabel07062320523D

  6  5  0  0  0  0  0  0  0  0999 V2000
   33.1930   34.6630    9.2900 C   0  0  0  0  0  0  0  0  0  0  0  0
   32.0600   35.3600   10.0340 C   0  0  0  0  0  0  0  0  0  0  0  0
   30.7750   35.4260    9.2490 C   0  0  0  0  0  0  0  0  0  0  0  0
   30.1790   34.0380    9.0780 C   0  0  0  0  0  0  0  0  0  0  0  0
   28.6640   34.1040    9.0820 C   0  0  0  0  0  0  0  0  0  0  0  0
   28.1590   34.9250    7.9470 N   0  0  0  0  0  0  0  0  0  0  0  0
  1  2  1  0  0  0  0
  3  2  1  0  0  0  0
  4  5  1  0  0  0  0
  4  3  1  0  0  0  0
  6  5  1  0  0  0  0
M  END
>  <EGIN_R>
ES LYS A 135

>  <REMARK>
  4 active torsions:
  status: ('A' for Active; 'I' for Inactive)
    5  A    between atoms: CA   and  CB  
    6  A    between atoms: CB   and  CG  
    7  A    between atoms: CG   and  CD  
    8  A    between atoms: CD   and  CE  

$$$$
