ligand_37_pose_10_2HRL.pdbqt
 OpenBabel07062320523D

 55 56  0  0  1  0  0  0  0  0999 V2000
   28.6350   36.1780   11.7500 O   0  0  0  0  0  0  0  0  0  0  0  0
   28.3890   35.5140   12.9750 C   0  0  0  0  0  0  0  0  0  0  0  0
   29.2960   34.5470   13.4570 N   0  0  0  0  0  0  0  0  0  0  0  0
   30.1410   34.3590   12.8310 H   0  0  0  0  0  0  0  0  0  0  0  0
   27.3440   35.8460   13.5650 O   0  0  0  0  0  0  0  0  0  0  0  0
   29.1220   33.8500   14.6920 C   0  0  0  0  0  0  0  0  0  0  0  0
   29.7900   32.5160   14.6870 C   0  0  2  0  0  0  0  0  0  0  0  0
   29.4200   31.7420   15.9500 C   0  0  2  0  0  0  0  0  0  0  0  0
   30.4200   31.8890   17.0540 C   0  0  2  0  0  0  0  0  0  0  0  0
   29.1410   30.9830   18.7960 C   0  0  2  0  0  0  0  0  0  0  0  0
   28.8600   32.3710   19.2750 C   0  0  0  0  0  0  0  0  0  0  0  0
   30.2640   30.8730   18.0130 O   0  0  0  0  0  0  0  0  0  0  0  0
   30.1270   33.1940   19.1690 C   0  0  1  0  0  0  0  0  0  0  0  0
   30.4940   33.2360   17.6940 C   0  0  1  0  0  0  0  0  0  0  0  0
   28.0350   30.4600   18.1660 O   0  0  0  0  0  0  0  0  0  0  0  0
   28.2540   30.0050   17.3070 H   0  0  0  0  0  0  0  0  0  0  0  0
   29.4070   30.1220   20.0040 C   0  0  0  0  0  0  0  0  0  0  0  0
   28.9020   30.4070   21.1200 O   0  0  0  0  0  0  0  0  0  0  0  0
   30.2100   28.9920   19.9400 O   0  0  0  0  0  0  0  0  0  0  0  0
   31.1760   28.9900   20.3030 H   0  0  0  0  0  0  0  0  0  0  0  0
   29.9370   34.4580   19.6910 O   0  0  0  0  0  0  0  0  0  0  0  0
   30.7850   34.9380   19.8680 H   0  0  0  0  0  0  0  0  0  0  0  0
   31.8100   33.8660   17.5470 N   0  0  0  0  0  0  0  0  0  0  0  0
   31.9710   35.2300   17.1650 C   0  0  0  0  0  0  0  0  0  0  0  0
   32.6930   33.3180   17.7200 H   0  0  0  0  0  0  0  0  0  0  0  0
   33.3400   35.8150   17.0300 C   0  0  0  0  0  0  0  0  0  0  0  0
   30.9580   35.9340   16.9440 O   0  0  0  0  0  0  0  0  0  0  0  0
   29.3170   30.3830   15.6280 O   0  0  0  0  0  0  0  0  0  0  0  0
   28.8110   29.9180   16.3480 H   0  0  0  0  0  0  0  0  0  0  0  0
   31.1730   32.6820   14.6320 O   0  0  0  0  0  0  0  0  0  0  0  0
   31.4430   33.6450   14.6850 H   0  0  0  0  0  0  0  0  0  0  0  0
   28.2220   37.5220   11.6140 C   0  0  0  0  0  0  0  0  0  0  0  0
   27.3000   37.7070   10.4760 C   0  0  0  0  0  0  0  0  0  0  0  0
   27.5290   38.3280    9.2710 C   0  0  0  0  0  0  0  0  0  0  0  0
   26.0290   37.2780   10.4260 N   0  0  0  0  0  0  0  0  0  0  0  0
   26.4030   38.2650    8.5230 N   0  0  0  0  0  0  0  0  0  0  0  0
   25.5180   37.6290    9.2410 N   0  0  0  0  0  0  0  0  0  0  0  0
   26.2430   38.8030    7.1980 C   0  0  1  0  0  0  0  0  0  0  0  0
   26.2880   40.3140    7.2390 C   0  0  0  0  0  0  0  0  0  0  0  0
   27.2610   38.2260    6.3100 C   0  0  0  0  0  0  0  0  0  0  0  0
   28.1240   38.9840    5.7740 O   0  0  0  0  0  0  0  0  0  0  0  0
   27.3240   36.8780    6.0260 O   0  0  0  0  0  0  0  0  0  0  0  0
   28.4620   36.0740    6.0480 C   0  0  0  0  0  0  0  0  0  0  0  0
   28.4610   35.2620    7.2960 C   0  0  0  0  0  0  0  0  0  0  0  0
   29.6500   34.8960    7.8890 C   0  0  0  0  0  0  0  0  0  0  0  0
   27.2770   34.8760    7.8620 C   0  0  0  0  0  0  0  0  0  0  0  0
   29.6540   34.1500    9.0420 C   0  0  0  0  0  0  0  0  0  0  0  0
   27.2500   34.1330    9.0090 C   0  0  0  0  0  0  0  0  0  0  0  0
   28.4390   33.7710    9.5970 C   0  0  0  0  0  0  0  0  0  0  0  0
   29.8670   25.5550   16.9770 C   0  0  0  0  0  0  0  0  0  0  0  0
   28.3450   25.7220   17.0260 C   0  0  0  0  0  0  0  0  0  0  0  0
   27.6010   24.4020   16.8960 C   0  0  0  0  0  0  0  0  0  0  0  0
   26.5640   24.2280   17.9710 C   0  0  0  0  0  0  0  0  0  0  0  0
   25.6560   23.0550   17.6170 C   0  0  0  0  0  0  0  0  0  0  0  0
   24.3730   23.5420   17.0560 N   0  0  0  0  0  0  0  0  0  0  0  0
  1  2  1  0  0  0  0
  2  3  1  0  0  0  0
  2  5  2  0  0  0  0
  3  6  1  0  0  0  0
  4  3  1  0  0  0  0
  7  6  1  1  0  0  0
  7  8  1  0  0  0  0
  8 28  1  6  0  0  0
  9  8  1  6  0  0  0
  9 14  1  0  0  0  0
  9 12  1  0  0  0  0
 10 15  1  6  0  0  0
 10 11  1  0  0  0  0
 10 17  1  0  0  0  0
 12 10  1  0  0  0  0
 13 11  1  0  0  0  0
 13 21  1  6  0  0  0
 14 23  1  1  0  0  0
 14 13  1  0  0  0  0
 16 15  1  0  0  0  0
 17 18  2  0  0  0  0
 19 17  1  0  0  0  0
 19 20  1  0  0  0  0
 21 22  1  0  0  0  0
 23 25  1  0  0  0  0
 24 23  1  0  0  0  0
 26 24  1  0  0  0  0
 27 24  2  0  0  0  0
 28 29  1  0  0  0  0
 30 31  1  0  0  0  0
 30  7  1  0  0  0  0
 32  1  1  0  0  0  0
 33 32  1  0  0  0  0
 34 33  2  0  0  0  0
 35 33  1  0  0  0  0
 36 37  1  0  0  0  0
 36 34  1  0  0  0  0
 37 35  2  0  0  0  0
 38 39  1  1  0  0  0
 38 36  1  0  0  0  0
 40 38  1  0  0  0  0
 41 40  2  0  0  0  0
 42 43  1  0  0  0  0
 42 40  1  0  0  0  0
 43 44  1  0  0  0  0
 44 46  2  0  0  0  0
 44 45  1  0  0  0  0
 45 47  2  0  0  0  0
 46 48  1  0  0  0  0
 47 49  1  0  0  0  0
 48 49  2  0  0  0  0
 50 51  1  0  0  0  0
 52 51  1  0  0  0  0
 52 53  1  0  0  0  0
 54 53  1  0  0  0  0
 55 54  1  0  0  0  0
M  END
>  <REMARK>
 VINA RESULT:    -5.600      5.174      9.274
 INTER + INTRA:         -16.111
 INTER:                 -12.075
 INTRA:                  -4.036
 UNBOUND:                -5.110
 SMILES CC(=O)N[C@@H]1[C@@H](O)C[C@](O)(C(=O)O)O[C@H]1C(O)[C@H](O)CNC(=O)OCc1cn([C@@H](C)C(=O)OCc2ccccc2)nn1
 SMILES IDX 24 1 22 2 21 3 23 5 20 6 18 7 16 8 15 9 9 10 8 11 14 12 6 13
 SMILES IDX 5 14 10 15 11 17 12 18 13 19 7 21 4 23 2 24 1 26 3 27 17 28
 SMILES IDX 19 30 25 32 26 33 27 34 42 35 28 36 41 37 29 38 30 39 31 40
 SMILES IDX 32 41 33 42 34 43 35 44 36 45 40 46 37 47 39 48 38 49
 H PARENT 21 4 10 16 13 20 7 22 4 25 17 29 19 31
 Flexibility Score: inf
  4 active torsions:
  status: ('A' for Active; 'I' for Inactive)
    1  A    between atoms: CA   and  CB  
    2  A    between atoms: CB   and  CG  
    3  A    between atoms: CG   and  CD  
    4  A    between atoms: CD   and  CE  

>  <TORSDO>
F 19

>  <BEGIN_>
RES LYS A 131

$$$$
ligand_37_pose_10_2HRL.pdbqt
 OpenBabel07062320523D

  6  5  0  0  0  0  0  0  0  0999 V2000
   33.1930   34.6630    9.2900 C   0  0  0  0  0  0  0  0  0  0  0  0
   32.0600   35.3600   10.0340 C   0  0  0  0  0  0  0  0  0  0  0  0
   32.5360   36.3250   11.0890 C   0  0  0  0  0  0  0  0  0  0  0  0
   32.6270   35.6380   12.4430 C   0  0  0  0  0  0  0  0  0  0  0  0
   32.1230   36.5560   13.5400 C   0  0  0  0  0  0  0  0  0  0  0  0
   31.5130   37.7890   12.9710 N   0  0  0  0  0  0  0  0  0  0  0  0
  1  2  1  0  0  0  0
  2  3  1  0  0  0  0
  3  4  1  0  0  0  0
  4  5  1  0  0  0  0
  6  5  1  0  0  0  0
M  END
>  <EGIN_R>
ES LYS A 135

>  <REMARK>
  4 active torsions:
  status: ('A' for Active; 'I' for Inactive)
    5  A    between atoms: CA   and  CB  
    6  A    between atoms: CB   and  CG  
    7  A    between atoms: CG   and  CD  
    8  A    between atoms: CD   and  CE  

$$$$
