ligand_29_pose_6_2HRL.pdbqt
 OpenBabel07062320523D

 54 55  0  0  1  0  0  0  0  0999 V2000
   24.9800   35.8240   12.5740 N   0  0  0  0  0  0  0  0  0  0  0  0
   25.7840   34.6840   12.4380 C   0  0  0  0  0  0  0  0  0  0  0  0
   25.3040   33.5330   12.5370 O   0  0  0  0  0  0  0  0  0  0  0  0
   25.4690   36.7660   12.4860 H   0  0  0  0  0  0  0  0  0  0  0  0
   23.5490   35.8340   12.8220 C   0  0  0  0  0  0  0  0  0  0  0  0
   22.7950   35.4880   11.5880 C   0  0  2  0  0  0  0  0  0  0  0  0
   21.6640   36.4340   11.2630 C   0  0  2  0  0  0  0  0  0  0  0  0
   21.8920   37.2920   10.0640 C   0  0  2  0  0  0  0  0  0  0  0  0
   20.9480   36.1480    8.2640 C   0  0  2  0  0  0  0  0  0  0  0  0
   21.9200   36.6910    7.2270 C   0  0  0  0  0  0  0  0  0  0  0  0
   20.7840   37.1240    9.2100 O   0  0  0  0  0  0  0  0  0  0  0  0
   22.8370   37.6810    7.8850 C   0  0  1  0  0  0  0  0  0  0  0  0
   23.1740   37.2250    9.3530 C   0  0  1  0  0  0  0  0  0  0  0  0
   21.3690   34.9160    8.7530 O   0  0  0  0  0  0  0  0  0  0  0  0
   20.7760   34.5670    9.4680 H   0  0  0  0  0  0  0  0  0  0  0  0
   19.6260   35.9160    7.6130 C   0  0  0  0  0  0  0  0  0  0  0  0
   18.7430   36.8000    7.7040 O   0  0  0  0  0  0  0  0  0  0  0  0
   19.3330   34.7580    6.9090 O   0  0  0  0  0  0  0  0  0  0  0  0
   18.6030   34.1020    7.2140 H   0  0  0  0  0  0  0  0  0  0  0  0
   24.0330   37.8360    7.1930 O   0  0  0  0  0  0  0  0  0  0  0  0
   24.4890   36.9770    7.0640 H   0  0  0  0  0  0  0  0  0  0  0  0
   24.1000   38.2780    9.7950 N   0  0  0  0  0  0  0  0  0  0  0  0
   25.4980   38.0970    9.9280 C   0  0  0  0  0  0  0  0  0  0  0  0
   23.7330   39.2440   10.0360 H   0  0  0  0  0  0  0  0  0  0  0  0
   26.4090   39.1780   10.3810 C   0  0  0  0  0  0  0  0  0  0  0  0
   26.0050   36.9800    9.6560 O   0  0  0  0  0  0  0  0  0  0  0  0
   21.5780   37.3700   12.3720 O   0  0  0  0  0  0  0  0  0  0  0  0
   20.8930   37.0150   12.9890 H   0  0  0  0  0  0  0  0  0  0  0  0
   22.5100   34.1610   11.4010 O   0  0  0  0  0  0  0  0  0  0  0  0
   22.5900   33.6150   12.2060 H   0  0  0  0  0  0  0  0  0  0  0  0
   27.1680   34.7980   12.1840 O   0  0  0  0  0  0  0  0  0  0  0  0
   27.7720   36.0880   12.3630 C   0  0  0  0  0  0  0  0  0  0  0  0
   29.0820   35.9810   13.0020 C   0  0  0  0  0  0  0  0  0  0  0  0
   29.7700   34.8260   13.2680 C   0  0  0  0  0  0  0  0  0  0  0  0
   29.8350   37.0070   13.4270 N   0  0  0  0  0  0  0  0  0  0  0  0
   30.9180   35.1650   13.8470 N   0  0  0  0  0  0  0  0  0  0  0  0
   30.9410   36.4780   13.9340 N   0  0  0  0  0  0  0  0  0  0  0  0
   31.9700   34.2700   14.3140 C   0  0  0  0  0  0  0  0  0  0  0  0
   31.5170   33.6450   15.5950 C   0  0  0  0  0  0  0  0  0  0  0  0
   30.8590   32.4160   15.5580 C   0  0  0  0  0  0  0  0  0  0  0  0
   31.7290   34.2300   16.8250 C   0  0  0  0  0  0  0  0  0  0  0  0
   30.4340   31.8030   16.7120 C   0  0  0  0  0  0  0  0  0  0  0  0
   31.3140   33.6400   18.0020 C   0  0  0  0  0  0  0  0  0  0  0  0
   30.6690   32.4280   17.9230 C   0  0  0  0  0  0  0  0  0  0  0  0
   29.7750   30.5770   16.6900 O   0  0  0  0  0  0  0  0  0  0  0  0
   28.7580   30.3770   15.7240 C   0  0  0  0  0  0  0  0  0  0  0  0
   30.2360   31.8020   19.0820 O   0  0  0  0  0  0  0  0  0  0  0  0
   30.1130   32.4970   20.3090 C   0  0  0  0  0  0  0  0  0  0  0  0
   29.8670   25.5550   16.9770 C   0  0  0  0  0  0  0  0  0  0  0  0
   28.3450   25.7220   17.0260 C   0  0  0  0  0  0  0  0  0  0  0  0
   27.6010   24.4030   16.8880 C   0  0  0  0  0  0  0  0  0  0  0  0
   26.1490   24.5300   17.2570 C   0  0  0  0  0  0  0  0  0  0  0  0
   25.6260   23.1790   17.7360 C   0  0  0  0  0  0  0  0  0  0  0  0
   24.2850   22.9110   17.1650 N   0  0  0  0  0  0  0  0  0  0  0  0
  1  5  1  0  0  0  0
  2  3  2  0  0  0  0
  2  1  1  0  0  0  0
  4  1  1  0  0  0  0
  6  5  1  1  0  0  0
  7  6  1  0  0  0  0
  7 27  1  1  0  0  0
  8  7  1  1  0  0  0
  9 16  1  6  0  0  0
  9 14  1  0  0  0  0
  9 11  1  0  0  0  0
 10 12  1  0  0  0  0
 10  9  1  0  0  0  0
 11  8  1  0  0  0  0
 12 20  1  6  0  0  0
 12 13  1  0  0  0  0
 13 22  1  1  0  0  0
 13  8  1  0  0  0  0
 14 15  1  0  0  0  0
 16 17  2  0  0  0  0
 18 19  1  0  0  0  0
 18 16  1  0  0  0  0
 21 20  1  0  0  0  0
 22 23  1  0  0  0  0
 22 24  1  0  0  0  0
 23 25  1  0  0  0  0
 26 23  2  0  0  0  0
 27 28  1  0  0  0  0
 29  6  1  0  0  0  0
 29 30  1  0  0  0  0
 31 32  1  0  0  0  0
 31  2  1  0  0  0  0
 32 33  1  0  0  0  0
 33 34  2  0  0  0  0
 33 35  1  0  0  0  0
 34 36  1  0  0  0  0
 35 37  2  0  0  0  0
 36 37  1  0  0  0  0
 36 38  1  0  0  0  0
 38 39  1  0  0  0  0
 39 41  1  0  0  0  0
 40 39  2  0  0  0  0
 40 42  1  0  0  0  0
 41 43  2  0  0  0  0
 42 44  2  0  0  0  0
 44 43  1  0  0  0  0
 44 47  1  0  0  0  0
 45 42  1  0  0  0  0
 46 45  1  0  0  0  0
 47 48  1  0  0  0  0
 49 50  1  0  0  0  0
 51 50  1  0  0  0  0
 51 52  1  0  0  0  0
 52 53  1  0  0  0  0
 54 53  1  0  0  0  0
M  END
>  <REMARK>
 VINA RESULT:    -5.164      4.066      8.719
 INTER + INTRA:         -14.961
 INTER:                  -9.657
 INTRA:                  -5.305
 UNBOUND:                -5.118
 SMILES COc1ccc(Cn2cc(COC(=O)NC[C@@H](O)C(O)[C@@H]3O[C@@](O)(C(=O)O)C[C@H](O)[C@H]3NC(C)=O)nn2)cc1OC
 SMILES IDX 15 1 13 2 14 3 16 5 17 6 19 7 21 8 23 9 28 10 22 11 29 12
 SMILES IDX 31 13 24 14 25 16 26 17 27 18 30 20 32 22 33 23 34 25 35 26
 SMILES IDX 20 27 18 29 12 31 11 32 10 33 9 34 36 35 8 36 37 37 7 38
 SMILES IDX 6 39 38 40 5 41 39 42 4 43 3 44 40 45 41 46 2 47 1 48
 H PARENT 15 4 24 15 27 19 30 21 32 24 20 28 18 30
 Flexibility Score: inf
  4 active torsions:
  status: ('A' for Active; 'I' for Inactive)
    1  A    between atoms: CA   and  CB  
    2  A    between atoms: CB   and  CG  
    3  A    between atoms: CG   and  CD  
    4  A    between atoms: CD   and  CE  

>  <TORSDO>
F 18

>  <BEGIN_>
RES LYS A 131

$$$$
ligand_29_pose_6_2HRL.pdbqt
 OpenBabel07062320523D

  6  5  0  0  0  0  0  0  0  0999 V2000
   33.1930   34.6630    9.2900 C   0  0  0  0  0  0  0  0  0  0  0  0
   32.0600   35.3600   10.0340 C   0  0  0  0  0  0  0  0  0  0  0  0
   30.7010   34.7770    9.7450 C   0  0  0  0  0  0  0  0  0  0  0  0
   30.5360   34.5110    8.2570 C   0  0  0  0  0  0  0  0  0  0  0  0
   29.1430   34.8960    7.7980 C   0  0  0  0  0  0  0  0  0  0  0  0
   28.1060   34.3590    8.7220 N   0  0  0  0  0  0  0  0  0  0  0  0
  1  2  1  0  0  0  0
  3  2  1  0  0  0  0
  4  3  1  0  0  0  0
  5  4  1  0  0  0  0
  5  6  1  0  0  0  0
M  END
>  <EGIN_R>
ES LYS A 135

>  <REMARK>
  4 active torsions:
  status: ('A' for Active; 'I' for Inactive)
    5  A    between atoms: CA   and  CB  
    6  A    between atoms: CB   and  CG  
    7  A    between atoms: CG   and  CD  
    8  A    between atoms: CD   and  CE  

$$$$
