ligand_31_pose_14_2HRL.pdbqt
 OpenBabel07062320523D

 57 58  0  0  1  0  0  0  0  0999 V2000
   32.8070   35.6480   18.6110 O   0  0  0  0  0  0  0  0  0  0  0  0
   32.3290   36.1020   17.3870 C   0  0  0  0  0  0  0  0  0  0  0  0
   32.7120   35.5810   16.1430 N   0  0  0  0  0  0  0  0  0  0  0  0
   33.3910   34.8080   16.0950 H   0  0  0  0  0  0  0  0  0  0  0  0
   31.4970   37.0470   17.4070 O   0  0  0  0  0  0  0  0  0  0  0  0
   32.1440   36.1370   14.9100 C   0  0  0  0  0  0  0  0  0  0  0  0
   32.2720   35.1140   13.8130 C   0  0  2  0  0  0  0  0  0  0  0  0
   30.9460   34.7630   13.1970 C   0  0  1  0  0  0  0  0  0  0  0  0
   29.9250   34.3420   14.2140 C   0  0  2  0  0  0  0  0  0  0  0  0
   29.4380   32.4840   15.5440 C   0  0  2  0  0  0  0  0  0  0  0  0
   27.9990   32.8760   15.6330 C   0  0  0  0  0  0  0  0  0  0  0  0
   30.1160   32.9740   14.4740 O   0  0  0  0  0  0  0  0  0  0  0  0
   27.6310   34.1300   14.9500 C   0  0  1  0  0  0  0  0  0  0  0  0
   28.4950   34.4320   13.7400 C   0  0  1  0  0  0  0  0  0  0  0  0
   29.4330   31.0730   15.3960 O   0  0  0  0  0  0  0  0  0  0  0  0
   30.2710   30.7620   14.9720 H   0  0  0  0  0  0  0  0  0  0  0  0
   30.1920   32.7700   16.7880 C   0  0  0  0  0  0  0  0  0  0  0  0
   31.4540   32.8410   16.7950 O   0  0  0  0  0  0  0  0  0  0  0  0
   29.5700   32.9750   18.0140 O   0  0  0  0  0  0  0  0  0  0  0  0
   28.9460   33.7650   18.1400 H   0  0  0  0  0  0  0  0  0  0  0  0
   26.2760   34.0830   14.5610 O   0  0  0  0  0  0  0  0  0  0  0  0
   25.7370   34.7420   15.0450 H   0  0  0  0  0  0  0  0  0  0  0  0
   28.1160   35.6670   13.1440 N   0  0  0  0  0  0  0  0  0  0  0  0
   27.2310   35.6470   12.0220 C   0  0  0  0  0  0  0  0  0  0  0  0
   28.4310   36.6040   13.4720 H   0  0  0  0  0  0  0  0  0  0  0  0
   26.7780   36.8750   11.3340 C   0  0  0  0  0  0  0  0  0  0  0  0
   26.8040   34.5400   11.5810 O   0  0  0  0  0  0  0  0  0  0  0  0
   30.4880   35.7020   12.2900 O   0  0  0  0  0  0  0  0  0  0  0  0
   29.9000   36.3920   12.6900 H   0  0  0  0  0  0  0  0  0  0  0  0
   32.7100   33.9240   14.4540 O   0  0  0  0  0  0  0  0  0  0  0  0
   32.6170   33.2210   13.7400 H   0  0  0  0  0  0  0  0  0  0  0  0
   32.1840   36.0110   19.8250 C   0  0  0  0  0  0  0  0  0  0  0  0
   31.4500   34.8330   20.3390 C   0  0  0  0  0  0  0  0  0  0  0  0
   31.9880   33.6970   20.8790 C   0  0  0  0  0  0  0  0  0  0  0  0
   30.1170   34.6790   20.3620 N   0  0  0  0  0  0  0  0  0  0  0  0
   30.9690   32.8850   21.2160 N   0  0  0  0  0  0  0  0  0  0  0  0
   29.8330   33.4860   20.9000 N   0  0  0  0  0  0  0  0  0  0  0  0
   31.0640   31.5580   21.8280 C   0  0  0  0  0  0  0  0  0  0  0  0
   31.4850   30.5920   20.7520 C   0  0  0  0  0  0  0  0  0  0  0  0
   30.5580   30.6680   19.6520 N   0  0  0  0  0  0  0  0  0  0  0  0
   29.4150   29.8440   19.5140 C   0  0  0  0  0  0  0  0  0  0  0  0
   30.7150   31.3780   18.8820 H   0  0  0  0  0  0  0  0  0  0  0  0
   29.1860   28.9820   20.4150 O   0  0  0  0  0  0  0  0  0  0  0  0
   28.5620   29.9950   18.3900 N   0  0  0  0  0  0  0  0  0  0  0  0
   28.7260   30.6910   17.6400 H   0  0  0  0  0  0  0  0  0  0  0  0
   27.4050   29.1350   18.2830 C   0  0  0  0  0  0  0  0  0  0  0  0
   26.4880   29.7080   17.2740 C   0  0  0  0  0  0  0  0  0  0  0  0
   25.2420   30.2470   17.5760 C   0  0  0  0  0  0  0  0  0  0  0  0
   26.6830   29.7980   15.9960 O   0  0  0  0  0  0  0  0  0  0  0  0
   24.7200   30.6620   16.3700 C   0  0  0  0  0  0  0  0  0  0  0  0
   25.6660   30.3560   15.4140 C   0  0  0  0  0  0  0  0  0  0  0  0
   29.8670   25.5550   16.9770 C   0  0  0  0  0  0  0  0  0  0  0  0
   28.3450   25.7220   17.0260 C   0  0  0  0  0  0  0  0  0  0  0  0
   27.6010   24.4030   16.8850 C   0  0  0  0  0  0  0  0  0  0  0  0
   26.5170   24.2510   17.9160 C   0  0  0  0  0  0  0  0  0  0  0  0
   25.1540   24.3490   17.2390 C   0  0  0  0  0  0  0  0  0  0  0  0
   24.5000   23.0190   17.1950 N   0  0  0  0  0  0  0  0  0  0  0  0
  1 32  1  0  0  0  0
  2  5  2  0  0  0  0
  2  1  1  0  0  0  0
  3  2  1  0  0  0  0
  4  3  1  0  0  0  0
  6  3  1  0  0  0  0
  7 30  1  0  0  0  0
  7  6  1  1  0  0  0
  8 28  1  1  0  0  0
  8  7  1  0  0  0  0
  9  8  1  6  0  0  0
  9 12  1  0  0  0  0
 10 15  1  6  0  0  0
 10 11  1  0  0  0  0
 10 17  1  0  0  0  0
 12 10  1  0  0  0  0
 13 21  1  6  0  0  0
 13 11  1  0  0  0  0
 14 23  1  1  0  0  0
 14  9  1  0  0  0  0
 14 13  1  0  0  0  0
 16 15  1  0  0  0  0
 17 18  2  0  0  0  0
 17 19  1  0  0  0  0
 19 20  1  0  0  0  0
 21 22  1  0  0  0  0
 23 25  1  0  0  0  0
 24 23  1  0  0  0  0
 26 24  1  0  0  0  0
 27 24  2  0  0  0  0
 28 29  1  0  0  0  0
 31 30  1  0  0  0  0
 32 33  1  0  0  0  0
 33 35  1  0  0  0  0
 33 34  2  0  0  0  0
 34 36  1  0  0  0  0
 35 37  2  0  0  0  0
 36 38  1  0  0  0  0
 37 36  1  0  0  0  0
 39 38  1  0  0  0  0
 40 39  1  0  0  0  0
 41 40  1  0  0  0  0
 41 43  2  0  0  0  0
 42 40  1  0  0  0  0
 44 41  1  0  0  0  0
 45 44  1  0  0  0  0
 46 44  1  0  0  0  0
 47 48  2  0  0  0  0
 47 46  1  0  0  0  0
 49 47  1  0  0  0  0
 50 48  1  0  0  0  0
 51 49  1  0  0  0  0
 51 50  2  0  0  0  0
 52 53  1  0  0  0  0
 54 53  1  0  0  0  0
 54 55  1  0  0  0  0
 56 55  1  0  0  0  0
 57 56  1  0  0  0  0
M  END
>  <REMARK>
 VINA RESULT:    -4.922      2.630      6.937
 INTER + INTRA:         -15.579
 INTER:                  -7.560
 INTRA:                  -8.019
 UNBOUND:                -5.909
 SMILES CC(=O)N[C@@H]1[C@@H](O)C[C@](O)(C(=O)O)O[C@H]1C(O)[C@H](O)CNC(=O)OCc1cn(CCNC(=O)NCc2ccco2)nn1
 SMILES IDX 24 1 22 2 21 3 23 5 20 6 18 7 16 8 15 9 9 10 8 11 14 12 6 13
 SMILES IDX 5 14 10 15 11 17 12 18 13 19 7 21 4 23 2 24 1 26 3 27 17 28
 SMILES IDX 19 30 25 32 26 33 27 34 42 35 28 36 41 37 29 38 30 39 31 40
 SMILES IDX 32 41 33 43 34 44 35 46 36 47 37 48 40 49 38 50 39 51
 H PARENT 21 4 10 16 13 20 7 22 4 25 17 29 19 31 31 42 34 45
 Flexibility Score: inf
  4 active torsions:
  status: ('A' for Active; 'I' for Inactive)
    1  A    between atoms: CA   and  CB  
    2  A    between atoms: CB   and  CG  
    3  A    between atoms: CG   and  CD  
    4  A    between atoms: CD   and  CE  

>  <TORSDO>
F 19

>  <BEGIN_>
RES LYS A 131

$$$$
ligand_31_pose_14_2HRL.pdbqt
 OpenBabel07062320523D

  6  5  0  0  0  0  0  0  0  0999 V2000
   33.1930   34.6630    9.2900 C   0  0  0  0  0  0  0  0  0  0  0  0
   32.0600   35.3600   10.0340 C   0  0  0  0  0  0  0  0  0  0  0  0
   30.8780   35.6910    9.1590 C   0  0  0  0  0  0  0  0  0  0  0  0
   30.3610   34.4420    8.4620 C   0  0  0  0  0  0  0  0  0  0  0  0
   28.9740   34.0880    8.9640 C   0  0  0  0  0  0  0  0  0  0  0  0
   27.9210   34.7470    8.1430 N   0  0  0  0  0  0  0  0  0  0  0  0
  1  2  1  0  0  0  0
  3  2  1  0  0  0  0
  4  5  1  0  0  0  0
  4  3  1  0  0  0  0
  6  5  1  0  0  0  0
M  END
>  <EGIN_R>
ES LYS A 135

>  <REMARK>
  4 active torsions:
  status: ('A' for Active; 'I' for Inactive)
    5  A    between atoms: CA   and  CB  
    6  A    between atoms: CB   and  CG  
    7  A    between atoms: CG   and  CD  
    8  A    between atoms: CD   and  CE  

$$$$
