ligand_48_pose_2_2HRL.pdbqt
 OpenBabel07062320523D

 49 50  0  0  1  0  0  0  0  0999 V2000
   26.2940   28.1740   19.8390 C   0  0  0  0  0  0  0  0  0  0  0  0
   27.1940   27.8460   21.0210 C   0  0  2  0  0  0  0  0  0  0  0  0
   28.6090   27.9880   20.5510 C   0  0  1  0  0  0  0  0  0  0  0  0
   29.5090   28.7890   21.4660 C   0  0  2  0  0  0  0  0  0  0  0  0
   30.6120   30.4710   20.2440 C   0  0  2  0  0  0  0  0  0  0  0  0
   31.9490   30.0820   20.8520 C   0  0  0  0  0  0  0  0  0  0  0  0
   29.6190   30.0980   21.0860 O   0  0  0  0  0  0  0  0  0  0  0  0
   32.0120   28.6040   21.1320 C   0  0  1  0  0  0  0  0  0  0  0  0
   30.7750   28.1110   21.8560 C   0  0  1  0  0  0  0  0  0  0  0  0
   30.5070   29.9950   18.9380 O   0  0  0  0  0  0  0  0  0  0  0  0
   29.6060   30.2770   18.5810 H   0  0  0  0  0  0  0  0  0  0  0  0
   30.6250   31.9590   20.1890 C   0  0  0  0  0  0  0  0  0  0  0  0
   30.6140   32.6240   21.2490 O   0  0  0  0  0  0  0  0  0  0  0  0
   30.6500   32.5950   18.9820 O   0  0  0  0  0  0  0  0  0  0  0  0
   29.8340   32.9530   18.5020 H   0  0  0  0  0  0  0  0  0  0  0  0
   32.2500   27.8840   19.9690 O   0  0  0  0  0  0  0  0  0  0  0  0
   31.4990   27.2660   19.7930 H   0  0  0  0  0  0  0  0  0  0  0  0
   31.0030   28.2020   23.3000 N   0  0  0  0  0  0  0  0  0  0  0  0
   30.5780   27.1340   24.1170 C   0  0  0  0  0  0  0  0  0  0  0  0
   31.4650   29.0260   23.7300 H   0  0  0  0  0  0  0  0  0  0  0  0
   30.7650   27.1340   25.6010 C   0  0  0  0  0  0  0  0  0  0  0  0
   30.0070   26.0990   23.6460 O   0  0  0  0  0  0  0  0  0  0  0  0
   29.1450   26.8190   20.0780 O   0  0  0  0  0  0  0  0  0  0  0  0
   28.4750   26.0670   20.0230 H   0  0  0  0  0  0  0  0  0  0  0  0
   26.8450   26.6010   21.4850 O   0  0  0  0  0  0  0  0  0  0  0  0
   26.3070   26.6930   22.2870 H   0  0  0  0  0  0  0  0  0  0  0  0
   27.1250   28.3290   18.6690 N   0  0  0  0  0  0  0  0  0  0  0  0
   27.3470   29.5470   17.9800 C   0  0  0  0  0  0  0  0  0  0  0  0
   27.6340   27.4890   18.2540 H   0  0  0  0  0  0  0  0  0  0  0  0
   26.7910   30.5950   18.3880 O   0  0  0  0  0  0  0  0  0  0  0  0
   28.1680   29.6090   16.8580 O   0  0  0  0  0  0  0  0  0  0  0  0
   27.9310   30.5840   15.8740 C   0  0  0  0  0  0  0  0  0  0  0  0
   29.1240   31.4680   15.7990 C   0  0  0  0  0  0  0  0  0  0  0  0
   29.1740   32.7420   15.2180 C   0  0  0  0  0  0  0  0  0  0  0  0
   30.3790   31.2680   16.2420 N   0  0  0  0  0  0  0  0  0  0  0  0
   30.4170   33.2390   15.3350 N   0  0  0  0  0  0  0  0  0  0  0  0
   31.1290   32.3180   15.9610 N   0  0  0  0  0  0  0  0  0  0  0  0
   30.8860   34.5350   14.8620 C   0  0  0  0  0  0  0  0  0  0  0  0
   32.3310   34.7180   15.2700 C   0  0  0  0  0  0  0  0  0  0  0  0
   30.8140   34.5890   13.3530 C   0  0  0  0  0  0  0  0  0  0  0  0
   33.2720   34.5230   14.0970 C   0  0  0  0  0  0  0  0  0  0  0  0
   31.5360   35.8550   12.9250 C   0  0  0  0  0  0  0  0  0  0  0  0
   33.0220   35.5830   13.0580 C   0  0  0  0  0  0  0  0  0  0  0  0
   29.8670   25.5550   16.9770 C   0  0  0  0  0  0  0  0  0  0  0  0
   28.3450   25.7220   17.0260 C   0  0  0  0  0  0  0  0  0  0  0  0
   27.5990   24.4620   16.6140 C   0  0  0  0  0  0  0  0  0  0  0  0
   27.0320   23.7270   17.7970 C   0  0  0  0  0  0  0  0  0  0  0  0
   26.1390   24.6670   18.6000 C   0  0  0  0  0  0  0  0  0  0  0  0
   25.5310   23.9510   19.7470 N   0  0  0  0  0  0  0  0  0  0  0  0
  2  1  1  6  0  0  0
  2 25  1  0  0  0  0
  3 23  1  1  0  0  0
  3  2  1  0  0  0  0
  4  3  1  6  0  0  0
  4  9  1  0  0  0  0
  5 10  1  6  0  0  0
  5  6  1  0  0  0  0
  5  7  1  0  0  0  0
  6  8  1  0  0  0  0
  7  4  1  0  0  0  0
  8 16  1  6  0  0  0
  8  9  1  0  0  0  0
  9 18  1  1  0  0  0
 11 10  1  0  0  0  0
 12  5  1  0  0  0  0
 12 13  2  0  0  0  0
 14 12  1  0  0  0  0
 15 14  1  0  0  0  0
 17 16  1  0  0  0  0
 18 20  1  0  0  0  0
 18 19  1  0  0  0  0
 19 21  1  0  0  0  0
 22 19  2  0  0  0  0
 24 23  1  0  0  0  0
 25 26  1  0  0  0  0
 27  1  1  0  0  0  0
 28 30  2  0  0  0  0
 28 27  1  0  0  0  0
 29 27  1  0  0  0  0
 31 28  1  0  0  0  0
 32 31  1  0  0  0  0
 33 32  1  0  0  0  0
 33 35  1  0  0  0  0
 34 36  1  0  0  0  0
 34 33  2  0  0  0  0
 36 37  1  0  0  0  0
 37 35  2  0  0  0  0
 38 39  1  0  0  0  0
 38 36  1  0  0  0  0
 40 38  1  0  0  0  0
 41 39  1  0  0  0  0
 42 43  1  0  0  0  0
 42 40  1  0  0  0  0
 43 41  1  0  0  0  0
 44 45  1  0  0  0  0
 46 45  1  0  0  0  0
 46 47  1  0  0  0  0
 47 48  1  0  0  0  0
 48 49  1  0  0  0  0
M  END
>  <REMARK>
 VINA RESULT:    -5.420      1.221      1.740
 INTER + INTRA:         -15.176
 INTER:                  -9.423
 INTRA:                  -5.754
 UNBOUND:                -5.796
 SMILES CC(=O)N[C@@H]1[C@@H](O)C[C@](O)(C(=O)O)O[C@H]1C(O)[C@H](O)CNC(=O)OCc1cn(C2CCCCC2)nn1
 SMILES IDX 20 1 18 2 16 3 15 4 9 5 8 6 14 7 6 8 5 9 10 10 11 12 12 13
 SMILES IDX 13 14 7 16 4 18 2 19 1 21 3 22 17 23 19 25 21 27 22 28 23 30
 SMILES IDX 24 31 25 32 26 33 27 34 36 35 28 36 35 37 29 38 30 39 34 40
 SMILES IDX 31 41 33 42 32 43
 H PARENT 10 11 13 15 7 17 4 20 17 24 19 26 21 29
 Flexibility Score: inf
  4 active torsions:
  status: ('A' for Active; 'I' for Inactive)
    1  A    between atoms: CA   and  CB  
    2  A    between atoms: CB   and  CG  
    3  A    between atoms: CG   and  CD  
    4  A    between atoms: CD   and  CE  

>  <TORSDO>
F 15

>  <BEGIN_>
RES LYS A 131

$$$$
ligand_48_pose_2_2HRL.pdbqt
 OpenBabel07062320523D

  6  5  0  0  0  0  0  0  0  0999 V2000
   33.1930   34.6630    9.2900 C   0  0  0  0  0  0  0  0  0  0  0  0
   32.0600   35.3600   10.0340 C   0  0  0  0  0  0  0  0  0  0  0  0
   30.8100   35.5260    9.2090 C   0  0  0  0  0  0  0  0  0  0  0  0
   29.9490   34.2750    9.2810 C   0  0  0  0  0  0  0  0  0  0  0  0
   28.5040   34.6030    8.9550 C   0  0  0  0  0  0  0  0  0  0  0  0
   27.5780   33.6100    9.5660 N   0  0  0  0  0  0  0  0  0  0  0  0
  1  2  1  0  0  0  0
  3  4  1  0  0  0  0
  3  2  1  0  0  0  0
  5  4  1  0  0  0  0
  5  6  1  0  0  0  0
M  END
>  <EGIN_R>
ES LYS A 135

>  <REMARK>
  4 active torsions:
  status: ('A' for Active; 'I' for Inactive)
    5  A    between atoms: CA   and  CB  
    6  A    between atoms: CB   and  CG  
    7  A    between atoms: CG   and  CD  
    8  A    between atoms: CD   and  CE  

$$$$
