ligand_33_pose_4_2HRL.pdbqt
 OpenBabel07062320523D

 52 52  0  0  1  0  0  0  0  0999 V2000
   29.5080   37.2550   13.4410 C   0  0  0  0  0  0  0  0  0  0  0  0
   30.6340   36.7370   12.7410 O   0  0  0  0  0  0  0  0  0  0  0  0
   31.2000   35.5470   13.2130 C   0  0  0  0  0  0  0  0  0  0  0  0
   31.6290   35.5000   14.5690 N   0  0  0  0  0  0  0  0  0  0  0  0
   31.4940   36.3660   15.1550 H   0  0  0  0  0  0  0  0  0  0  0  0
   31.3030   34.5830   12.4150 O   0  0  0  0  0  0  0  0  0  0  0  0
   32.2160   34.2990   15.0720 C   0  0  0  0  0  0  0  0  0  0  0  0
   31.2250   33.2320   15.4730 C   0  0  2  0  0  0  0  0  0  0  0  0
   31.1890   33.1650   16.9870 C   0  0  2  0  0  0  0  0  0  0  0  0
   29.8520   33.4390   17.5910 C   0  0  2  0  0  0  0  0  0  0  0  0
   29.1880   31.1950   17.4860 C   0  0  2  0  0  0  0  0  0  0  0  0
   28.4010   31.5770   16.2220 C   0  0  0  0  0  0  0  0  0  0  0  0
   29.4260   32.3030   18.2480 O   0  0  0  0  0  0  0  0  0  0  0  0
   27.6980   32.8660   16.5720 C   0  0  1  0  0  0  0  0  0  0  0  0
   28.7910   33.9460   16.6830 C   0  0  1  0  0  0  0  0  0  0  0  0
   30.3180   30.4590   17.1370 O   0  0  0  0  0  0  0  0  0  0  0  0
   31.1630   30.9100   17.4550 H   0  0  0  0  0  0  0  0  0  0  0  0
   28.2940   30.3010   18.2650 C   0  0  0  0  0  0  0  0  0  0  0  0
   27.8320   30.6860   19.3810 O   0  0  0  0  0  0  0  0  0  0  0  0
   27.9790   29.0560   17.7500 O   0  0  0  0  0  0  0  0  0  0  0  0
   27.2170   28.5530   18.2260 H   0  0  0  0  0  0  0  0  0  0  0  0
   26.7580   33.2290   15.6070 O   0  0  0  0  0  0  0  0  0  0  0  0
   27.0440   32.8020   14.7570 H   0  0  0  0  0  0  0  0  0  0  0  0
   28.1910   35.1800   17.1700 N   0  0  0  0  0  0  0  0  0  0  0  0
   28.8700   36.4140   17.1770 C   0  0  0  0  0  0  0  0  0  0  0  0
   27.1950   35.1420   17.5310 H   0  0  0  0  0  0  0  0  0  0  0  0
   28.2210   37.6740   17.6910 C   0  0  0  0  0  0  0  0  0  0  0  0
   30.0610   36.4500   16.7390 O   0  0  0  0  0  0  0  0  0  0  0  0
   32.0110   34.2570   17.3910 O   0  0  0  0  0  0  0  0  0  0  0  0
   32.8910   33.8620   17.5920 H   0  0  0  0  0  0  0  0  0  0  0  0
   31.6050   32.0490   14.8800 O   0  0  0  0  0  0  0  0  0  0  0  0
   31.1760   31.2710   15.3150 H   0  0  0  0  0  0  0  0  0  0  0  0
   28.3830   36.3370   13.1490 C   0  0  0  0  0  0  0  0  0  0  0  0
   28.0440   35.9220   11.8770 C   0  0  0  0  0  0  0  0  0  0  0  0
   27.5320   35.7650   13.9990 N   0  0  0  0  0  0  0  0  0  0  0  0
   26.9810   35.1050   12.0360 N   0  0  0  0  0  0  0  0  0  0  0  0
   26.6800   35.0160   13.3130 N   0  0  0  0  0  0  0  0  0  0  0  0
   26.3270   34.4630   10.8930 C   0  0  0  0  0  0  0  0  0  0  0  0
   27.3780   34.2160    9.8430 C   0  0  0  0  0  0  0  0  0  0  0  0
   26.8410   34.3370    8.4330 C   0  0  0  0  0  0  0  0  0  0  0  0
   27.5060   35.4180    7.6530 C   0  0  0  0  0  0  0  0  0  0  0  0
   26.6240   36.6050    7.3790 C   0  0  0  0  0  0  0  0  0  0  0  0
   27.1770   37.5430    6.3900 C   0  0  0  0  0  0  0  0  0  0  0  0
   27.7380   37.1370    5.3600 O   0  0  0  0  0  0  0  0  0  0  0  0
   27.0840   38.9320    6.5900 O   0  0  0  0  0  0  0  0  0  0  0  0
   27.4980   39.3600    7.4250 H   0  0  0  0  0  0  0  0  0  0  0  0
   29.8670   25.5550   16.9770 C   0  0  0  0  0  0  0  0  0  0  0  0
   28.3450   25.7220   17.0260 C   0  0  0  0  0  0  0  0  0  0  0  0
   27.6010   24.4030   16.8810 C   0  0  0  0  0  0  0  0  0  0  0  0
   26.1470   24.5310   17.2410 C   0  0  0  0  0  0  0  0  0  0  0  0
   25.6210   23.1830   17.7230 C   0  0  0  0  0  0  0  0  0  0  0  0
   24.2890   22.9050   17.1360 N   0  0  0  0  0  0  0  0  0  0  0  0
  2  3  1  0  0  0  0
  2  1  1  0  0  0  0
  3  4  1  0  0  0  0
  4  7  1  0  0  0  0
  4  5  1  0  0  0  0
  6  3  2  0  0  0  0
  8  7  1  1  0  0  0
  8  9  1  0  0  0  0
  9 29  1  1  0  0  0
 10  9  1  6  0  0  0
 10 13  1  0  0  0  0
 11 16  1  6  0  0  0
 11 13  1  0  0  0  0
 11 18  1  0  0  0  0
 12 14  1  0  0  0  0
 12 11  1  0  0  0  0
 14 22  1  6  0  0  0
 14 15  1  0  0  0  0
 15 24  1  1  0  0  0
 15 10  1  0  0  0  0
 16 17  1  0  0  0  0
 18 19  2  0  0  0  0
 20 21  1  0  0  0  0
 20 18  1  0  0  0  0
 23 22  1  0  0  0  0
 24 25  1  0  0  0  0
 24 26  1  0  0  0  0
 25 27  1  0  0  0  0
 28 25  2  0  0  0  0
 29 30  1  0  0  0  0
 31 32  1  0  0  0  0
 31  8  1  0  0  0  0
 33  1  1  0  0  0  0
 33 35  1  0  0  0  0
 34 36  1  0  0  0  0
 34 33  2  0  0  0  0
 36 37  1  0  0  0  0
 37 35  2  0  0  0  0
 38 36  1  0  0  0  0
 39 38  1  0  0  0  0
 40 39  1  0  0  0  0
 41 40  1  0  0  0  0
 42 41  1  0  0  0  0
 43 45  1  0  0  0  0
 43 42  1  0  0  0  0
 44 43  2  0  0  0  0
 45 46  1  0  0  0  0
 47 48  1  0  0  0  0
 49 48  1  0  0  0  0
 49 50  1  0  0  0  0
 50 51  1  0  0  0  0
 52 51  1  0  0  0  0
M  END
>  <REMARK>
 VINA RESULT:    -4.457      5.285      9.048
 INTER + INTRA:         -15.065
 INTER:                  -9.897
 INTRA:                  -5.168
 UNBOUND:                -5.918
 SMILES CC(=O)N[C@@H]1[C@@H](O)C[C@](O)(C(=O)O)O[C@H]1C(O)[C@H](O)CNC(=O)OCc1cn(CCCCCC(=O)O)nn1
 SMILES IDX 25 1 24 2 22 3 21 4 23 6 20 7 18 8 16 9 15 10 9 11 8 12
 SMILES IDX 14 13 6 14 5 15 10 16 11 18 12 19 13 20 7 22 4 24 2 25 1 27
 SMILES IDX 3 28 17 29 19 31 26 33 27 34 38 35 28 36 37 37 29 38 30 39
 SMILES IDX 31 40 32 41 33 42 34 43 35 44 36 45
 H PARENT 21 5 10 17 13 21 7 23 4 26 17 30 19 32 36 46
 Flexibility Score: inf
  4 active torsions:
  status: ('A' for Active; 'I' for Inactive)
    1  A    between atoms: CA   and  CB  
    2  A    between atoms: CB   and  CG  
    3  A    between atoms: CG   and  CD  
    4  A    between atoms: CD   and  CE  

>  <TORSDO>
F 21

>  <BEGIN_>
RES LYS A 131

$$$$
ligand_33_pose_4_2HRL.pdbqt
 OpenBabel07062320523D

  6  5  0  0  0  0  0  0  0  0999 V2000
   33.1930   34.6630    9.2900 C   0  0  0  0  0  0  0  0  0  0  0  0
   32.0600   35.3600   10.0340 C   0  0  0  0  0  0  0  0  0  0  0  0
   30.8950   35.7260    9.1510 C   0  0  0  0  0  0  0  0  0  0  0  0
   30.4720   37.1670    9.3910 C   0  0  0  0  0  0  0  0  0  0  0  0
   30.2670   37.8880    8.0720 C   0  0  0  0  0  0  0  0  0  0  0  0
   30.2790   39.3650    8.2610 N   0  0  0  0  0  0  0  0  0  0  0  0
  1  2  1  0  0  0  0
  3  4  1  0  0  0  0
  3  2  1  0  0  0  0
  5  6  1  0  0  0  0
  5  4  1  0  0  0  0
M  END
>  <EGIN_R>
ES LYS A 135

>  <REMARK>
  4 active torsions:
  status: ('A' for Active; 'I' for Inactive)
    5  A    between atoms: CA   and  CB  
    6  A    between atoms: CB   and  CG  
    7  A    between atoms: CG   and  CD  
    8  A    between atoms: CD   and  CE  

$$$$
