ligand_27_pose_15_2HRL.pdbqt
 OpenBabel07062320523D

 50 51  0  0  1  0  0  0  0  0999 V2000
   22.7430   37.1760    8.6610 C   0  0  0  0  0  0  0  0  0  0  0  0
   23.7420   37.5700    7.6120 C   0  0  2  0  0  0  0  0  0  0  0  0
   25.1110   37.8320    8.1690 C   0  0  2  0  0  0  0  0  0  0  0  0
   25.8390   38.8980    7.3470 C   0  0  2  0  0  0  0  0  0  0  0  0
   28.1660   38.5630    7.3020 C   0  0  2  0  0  0  0  0  0  0  0  0
   28.3580   40.0390    7.6190 C   0  0  0  0  0  0  0  0  0  0  0  0
   26.9280   38.3440    6.8040 O   0  0  0  0  0  0  0  0  0  0  0  0
   27.3840   40.2950    8.7680 C   0  0  1  0  0  0  0  0  0  0  0  0
   26.0030   40.1040    8.2040 C   0  0  1  0  0  0  0  0  0  0  0  0
   28.4440   37.8810    8.4790 O   0  0  0  0  0  0  0  0  0  0  0  0
   28.3250   38.5050    9.2380 H   0  0  0  0  0  0  0  0  0  0  0  0
   29.1570   38.1510    6.2800 C   0  0  0  0  0  0  0  0  0  0  0  0
   28.8610   37.2340    5.4800 O   0  0  0  0  0  0  0  0  0  0  0  0
   30.4080   38.7390    6.1680 O   0  0  0  0  0  0  0  0  0  0  0  0
   31.2270   38.1950    6.4610 H   0  0  0  0  0  0  0  0  0  0  0  0
   27.5580   39.3770    9.7980 O   0  0  0  0  0  0  0  0  0  0  0  0
   27.9710   39.7910   10.6080 H   0  0  0  0  0  0  0  0  0  0  0  0
   25.6790   41.3090    7.4690 N   0  0  0  0  0  0  0  0  0  0  0  0
   24.3920   41.8910    7.6090 C   0  0  0  0  0  0  0  0  0  0  0  0
   26.3840   41.7690    6.8240 H   0  0  0  0  0  0  0  0  0  0  0  0
   24.0670   43.1270    6.8510 C   0  0  0  0  0  0  0  0  0  0  0  0
   23.5430   41.3590    8.3680 O   0  0  0  0  0  0  0  0  0  0  0  0
   25.8140   36.6110    8.0790 O   0  0  0  0  0  0  0  0  0  0  0  0
   25.4990   35.9760    8.7380 H   0  0  0  0  0  0  0  0  0  0  0  0
   23.2860   38.7350    6.9700 O   0  0  0  0  0  0  0  0  0  0  0  0
   23.7430   39.5040    7.3550 H   0  0  0  0  0  0  0  0  0  0  0  0
   23.3750   36.3020    9.6430 N   0  0  0  0  0  0  0  0  0  0  0  0
   23.5150   36.7110   10.9930 C   0  0  0  0  0  0  0  0  0  0  0  0
   23.7190   35.3750    9.3220 H   0  0  0  0  0  0  0  0  0  0  0  0
   23.0850   37.8410   11.3370 O   0  0  0  0  0  0  0  0  0  0  0  0
   24.1090   35.9140   11.9570 O   0  0  0  0  0  0  0  0  0  0  0  0
   25.0680   34.9660   11.5430 C   0  0  0  0  0  0  0  0  0  0  0  0
   26.4250   35.5640   11.6450 C   0  0  0  0  0  0  0  0  0  0  0  0
   27.4400   35.1700   12.4980 C   0  0  0  0  0  0  0  0  0  0  0  0
   26.9410   36.5920   10.9460 N   0  0  0  0  0  0  0  0  0  0  0  0
   28.5270   35.9530   12.2980 N   0  0  0  0  0  0  0  0  0  0  0  0
   28.1850   36.8060   11.3470 N   0  0  0  0  0  0  0  0  0  0  0  0
   29.7740   35.8710   12.9760 C   0  0  0  0  0  0  0  0  0  0  0  0
   30.6490   36.9340   12.9050 C   0  0  0  0  0  0  0  0  0  0  0  0
   30.1650   34.7720   13.7120 C   0  0  0  0  0  0  0  0  0  0  0  0
   31.8750   36.9010   13.5470 C   0  0  0  0  0  0  0  0  0  0  0  0
   31.3780   34.7050   14.3640 C   0  0  0  0  0  0  0  0  0  0  0  0
   32.2310   35.7860   14.2730 C   0  0  0  0  0  0  0  0  0  0  0  0
   31.8410   33.2740   15.2980 Cl  0  0  0  0  0  0  0  0  0  0  0  0
   29.8670   25.5550   16.9770 C   0  0  0  0  0  0  0  0  0  0  0  0
   28.3450   25.7220   17.0260 C   0  0  0  0  0  0  0  0  0  0  0  0
   27.6010   24.4060   16.8630 C   0  0  0  0  0  0  0  0  0  0  0  0
   26.2750   24.4130   17.5720 C   0  0  0  0  0  0  0  0  0  0  0  0
   26.3090   25.4340   18.7040 C   0  0  0  0  0  0  0  0  0  0  0  0
   25.4970   24.9640   19.8520 N   0  0  0  0  0  0  0  0  0  0  0  0
  1 27  1  0  0  0  0
  2  3  1  0  0  0  0
  2  1  1  1  0  0  0
  3 23  1  6  0  0  0
  4  3  1  1  0  0  0
  4  9  1  0  0  0  0
  5 12  1  6  0  0  0
  5  6  1  0  0  0  0
  5 10  1  0  0  0  0
  6  8  1  0  0  0  0
  7  5  1  0  0  0  0
  7  4  1  0  0  0  0
  8 16  1  1  0  0  0
  9 18  1  6  0  0  0
  9  8  1  0  0  0  0
 10 11  1  0  0  0  0
 13 12  2  0  0  0  0
 14 12  1  0  0  0  0
 14 15  1  0  0  0  0
 16 17  1  0  0  0  0
 18 19  1  0  0  0  0
 19 22  2  0  0  0  0
 20 18  1  0  0  0  0
 21 19  1  0  0  0  0
 23 24  1  0  0  0  0
 25 26  1  0  0  0  0
 25  2  1  0  0  0  0
 27 28  1  0  0  0  0
 28 30  2  0  0  0  0
 28 31  1  0  0  0  0
 29 27  1  0  0  0  0
 32 33  1  0  0  0  0
 32 31  1  0  0  0  0
 33 34  2  0  0  0  0
 35 37  2  0  0  0  0
 35 33  1  0  0  0  0
 36 34  1  0  0  0  0
 36 38  1  0  0  0  0
 37 36  1  0  0  0  0
 38 40  1  0  0  0  0
 39 38  2  0  0  0  0
 39 41  1  0  0  0  0
 40 42  2  0  0  0  0
 41 43  2  0  0  0  0
 42 44  1  0  0  0  0
 43 42  1  0  0  0  0
 45 46  1  0  0  0  0
 47 46  1  0  0  0  0
 47 48  1  0  0  0  0
 48 49  1  0  0  0  0
 49 50  1  0  0  0  0
M  END
>  <REMARK>
 VINA RESULT:    -5.423      7.195     12.945
 INTER + INTRA:         -13.883
 INTER:                  -7.637
 INTRA:                  -6.246
 UNBOUND:                -4.497
 SMILES CC(=O)N[C@@H]1[C@@H](O)C[C@](O)(C(=O)O)O[C@H]1C(O)[C@H](O)CNC(=O)OCc1cn(-c2cccc(Cl)c2)nn1
 SMILES IDX 20 1 18 2 16 3 15 4 9 5 8 6 14 7 6 8 5 9 10 10 11 12 12 13
 SMILES IDX 13 14 7 16 4 18 2 19 1 21 3 22 17 23 19 25 21 27 22 28 23 30
 SMILES IDX 24 31 25 32 26 33 27 34 37 35 28 36 36 37 29 38 30 39 35 40
 SMILES IDX 31 41 33 42 32 43 34 44
 H PARENT 10 11 13 15 7 17 4 20 17 24 19 26 21 29
 Flexibility Score: inf
  4 active torsions:
  status: ('A' for Active; 'I' for Inactive)
    1  A    between atoms: CA   and  CB  
    2  A    between atoms: CB   and  CG  
    3  A    between atoms: CG   and  CD  
    4  A    between atoms: CD   and  CE  

>  <TORSDO>
F 15

>  <BEGIN_>
RES LYS A 131

$$$$
ligand_27_pose_15_2HRL.pdbqt
 OpenBabel07062320523D

  6  5  0  0  0  0  0  0  0  0999 V2000
   33.1930   34.6630    9.2900 C   0  0  0  0  0  0  0  0  0  0  0  0
   32.0600   35.3600   10.0340 C   0  0  0  0  0  0  0  0  0  0  0  0
   30.7160   34.7100    9.8310 C   0  0  0  0  0  0  0  0  0  0  0  0
   30.4860   34.4030    8.3590 C   0  0  0  0  0  0  0  0  0  0  0  0
   29.0520   34.7090    7.9690 C   0  0  0  0  0  0  0  0  0  0  0  0
   28.0910   34.0300    8.8820 N   0  0  0  0  0  0  0  0  0  0  0  0
  1  2  1  0  0  0  0
  3  2  1  0  0  0  0
  4  3  1  0  0  0  0
  5  4  1  0  0  0  0
  5  6  1  0  0  0  0
M  END
>  <EGIN_R>
ES LYS A 135

>  <REMARK>
  4 active torsions:
  status: ('A' for Active; 'I' for Inactive)
    5  A    between atoms: CA   and  CB  
    6  A    between atoms: CB   and  CG  
    7  A    between atoms: CG   and  CD  
    8  A    between atoms: CD   and  CE  

$$$$
