ligand_33_pose_7_2HRL.pdbqt
 OpenBabel07062320523D

 52 52  0  0  1  0  0  0  0  0999 V2000
   30.1230   33.3900   23.3660 C   0  0  0  0  0  0  0  0  0  0  0  0
   31.0290   34.4850   23.2980 O   0  0  0  0  0  0  0  0  0  0  0  0
   31.3630   34.9740   22.0290 C   0  0  0  0  0  0  0  0  0  0  0  0
   30.3070   35.2180   21.1060 N   0  0  0  0  0  0  0  0  0  0  0  0
   29.3220   35.0220   21.4270 H   0  0  0  0  0  0  0  0  0  0  0  0
   32.5750   35.1700   21.7700 O   0  0  0  0  0  0  0  0  0  0  0  0
   30.6220   35.7120   19.8030 C   0  0  0  0  0  0  0  0  0  0  0  0
   30.7540   34.6490   18.7400 C   0  0  2  0  0  0  0  0  0  0  0  0
   29.3720   34.0960   18.4510 C   0  0  2  0  0  0  0  0  0  0  0  0
   29.1130   33.7840   17.0150 C   0  0  2  0  0  0  0  0  0  0  0  0
   28.8140   31.4960   17.4170 C   0  0  2  0  0  0  0  0  0  0  0  0
   30.2580   31.3090   16.9240 C   0  0  0  0  0  0  0  0  0  0  0  0
   28.3010   32.6710   16.9450 O   0  0  0  0  0  0  0  0  0  0  0  0
   30.3590   32.1520   15.6770 C   0  0  1  0  0  0  0  0  0  0  0  0
   30.2990   33.6220   16.1340 C   0  0  1  0  0  0  0  0  0  0  0  0
   28.7600   31.3360   18.8000 O   0  0  0  0  0  0  0  0  0  0  0  0
   29.6110   30.9270   19.1560 H   0  0  0  0  0  0  0  0  0  0  0  0
   28.0310   30.3910   16.8080 C   0  0  0  0  0  0  0  0  0  0  0  0
   27.3600   30.5990   15.7530 O   0  0  0  0  0  0  0  0  0  0  0  0
   28.0530   29.1460   17.4090 O   0  0  0  0  0  0  0  0  0  0  0  0
   27.1720   28.8440   17.8490 H   0  0  0  0  0  0  0  0  0  0  0  0
   31.5420   31.9120   14.9770 O   0  0  0  0  0  0  0  0  0  0  0  0
   32.2830   32.0070   15.6310 H   0  0  0  0  0  0  0  0  0  0  0  0
   30.2370   34.4820   14.9600 N   0  0  0  0  0  0  0  0  0  0  0  0
   31.3740   35.0930   14.3960 C   0  0  0  0  0  0  0  0  0  0  0  0
   29.2910   34.6480   14.5130 H   0  0  0  0  0  0  0  0  0  0  0  0
   31.2760   35.9800   13.1810 C   0  0  0  0  0  0  0  0  0  0  0  0
   32.5030   34.8830   14.9350 O   0  0  0  0  0  0  0  0  0  0  0  0
   28.5040   35.1830   18.7590 O   0  0  0  0  0  0  0  0  0  0  0  0
   27.6130   34.9050   18.4410 H   0  0  0  0  0  0  0  0  0  0  0  0
   31.6420   33.6980   19.1910 O   0  0  0  0  0  0  0  0  0  0  0  0
   31.6710   33.6680   20.1790 H   0  0  0  0  0  0  0  0  0  0  0  0
   30.6670   32.3480   22.4640 C   0  0  0  0  0  0  0  0  0  0  0  0
   31.7050   31.5060   22.8060 C   0  0  0  0  0  0  0  0  0  0  0  0
   30.2870   32.0370   21.2250 N   0  0  0  0  0  0  0  0  0  0  0  0
   31.8980   30.7150   21.7280 N   0  0  0  0  0  0  0  0  0  0  0  0
   31.0430   31.0410   20.7840 N   0  0  0  0  0  0  0  0  0  0  0  0
   32.9340   29.6800   21.7090 C   0  0  0  0  0  0  0  0  0  0  0  0
   32.5760   28.6540   22.7520 C   0  0  0  0  0  0  0  0  0  0  0  0
   32.3250   27.2810   22.1670 C   0  0  0  0  0  0  0  0  0  0  0  0
   31.3540   27.3050   21.0380 C   0  0  0  0  0  0  0  0  0  0  0  0
   29.9130   27.2800   21.4710 C   0  0  0  0  0  0  0  0  0  0  0  0
   28.9700   27.7150   20.4290 C   0  0  0  0  0  0  0  0  0  0  0  0
   28.5880   28.8940   20.3580 O   0  0  0  0  0  0  0  0  0  0  0  0
   28.4760   26.8000   19.4830 O   0  0  0  0  0  0  0  0  0  0  0  0
   29.0420   26.5490   18.6660 H   0  0  0  0  0  0  0  0  0  0  0  0
   29.8670   25.5550   16.9770 C   0  0  0  0  0  0  0  0  0  0  0  0
   28.3450   25.7220   17.0260 C   0  0  0  0  0  0  0  0  0  0  0  0
   27.6020   24.3980   16.9380 C   0  0  0  0  0  0  0  0  0  0  0  0
   26.2040   24.4950   17.4820 C   0  0  0  0  0  0  0  0  0  0  0  0
   25.9120   23.2810   18.3570 C   0  0  0  0  0  0  0  0  0  0  0  0
   25.3290   23.7030   19.6520 N   0  0  0  0  0  0  0  0  0  0  0  0
  2  1  1  0  0  0  0
  3  2  1  0  0  0  0
  4  5  1  0  0  0  0
  4  3  1  0  0  0  0
  6  3  2  0  0  0  0
  7  4  1  0  0  0  0
  8 31  1  0  0  0  0
  8  7  1  1  0  0  0
  9  8  1  0  0  0  0
  9 29  1  6  0  0  0
 10  9  1  1  0  0  0
 11 18  1  6  0  0  0
 11 16  1  0  0  0  0
 12 11  1  0  0  0  0
 13 10  1  0  0  0  0
 13 11  1  0  0  0  0
 14 22  1  1  0  0  0
 14 15  1  0  0  0  0
 14 12  1  0  0  0  0
 15 24  1  6  0  0  0
 15 10  1  0  0  0  0
 16 17  1  0  0  0  0
 18 20  1  0  0  0  0
 19 18  2  0  0  0  0
 20 21  1  0  0  0  0
 22 23  1  0  0  0  0
 25 28  2  0  0  0  0
 25 24  1  0  0  0  0
 26 24  1  0  0  0  0
 27 25  1  0  0  0  0
 30 29  1  0  0  0  0
 31 32  1  0  0  0  0
 33 34  2  0  0  0  0
 33  1  1  0  0  0  0
 35 33  1  0  0  0  0
 36 34  1  0  0  0  0
 37 35  2  0  0  0  0
 37 36  1  0  0  0  0
 38 36  1  0  0  0  0
 38 39  1  0  0  0  0
 40 39  1  0  0  0  0
 41 42  1  0  0  0  0
 41 40  1  0  0  0  0
 43 42  1  0  0  0  0
 44 43  2  0  0  0  0
 45 43  1  0  0  0  0
 46 45  1  0  0  0  0
 47 48  1  0  0  0  0
 49 48  1  0  0  0  0
 49 50  1  0  0  0  0
 50 51  1  0  0  0  0
 51 52  1  0  0  0  0
M  END
>  <REMARK>
 VINA RESULT:    -4.396      7.872     12.864
 INTER + INTRA:         -14.940
 INTER:                  -7.797
 INTRA:                  -7.143
 UNBOUND:                -5.918
 SMILES CC(=O)N[C@@H]1[C@@H](O)C[C@](O)(C(=O)O)O[C@H]1C(O)[C@H](O)CNC(=O)OCc1cn(CCCCCC(=O)O)nn1
 SMILES IDX 25 1 24 2 22 3 21 4 23 6 20 7 18 8 16 9 15 10 9 11 8 12
 SMILES IDX 14 13 6 14 5 15 10 16 11 18 12 19 13 20 7 22 4 24 2 25 1 27
 SMILES IDX 3 28 17 29 19 31 26 33 27 34 38 35 28 36 37 37 29 38 30 39
 SMILES IDX 31 40 32 41 33 42 34 43 35 44 36 45
 H PARENT 21 5 10 17 13 21 7 23 4 26 17 30 19 32 36 46
 Flexibility Score: inf
  4 active torsions:
  status: ('A' for Active; 'I' for Inactive)
    1  A    between atoms: CA   and  CB  
    2  A    between atoms: CB   and  CG  
    3  A    between atoms: CG   and  CD  
    4  A    between atoms: CD   and  CE  

>  <TORSDO>
F 21

>  <BEGIN_>
RES LYS A 131

$$$$
ligand_33_pose_7_2HRL.pdbqt
 OpenBabel07062320523D

  6  5  0  0  0  0  0  0  0  0999 V2000
   33.1930   34.6630    9.2900 C   0  0  0  0  0  0  0  0  0  0  0  0
   32.0600   35.3600   10.0340 C   0  0  0  0  0  0  0  0  0  0  0  0
   30.7090   34.7360    9.7950 C   0  0  0  0  0  0  0  0  0  0  0  0
   30.4840   34.4950    8.3110 C   0  0  0  0  0  0  0  0  0  0  0  0
   29.1010   34.9610    7.8980 C   0  0  0  0  0  0  0  0  0  0  0  0
   29.0770   36.4330    7.6720 N   0  0  0  0  0  0  0  0  0  0  0  0
  1  2  1  0  0  0  0
  3  2  1  0  0  0  0
  4  3  1  0  0  0  0
  5  4  1  0  0  0  0
  6  5  1  0  0  0  0
M  END
>  <EGIN_R>
ES LYS A 135

>  <REMARK>
  4 active torsions:
  status: ('A' for Active; 'I' for Inactive)
    5  A    between atoms: CA   and  CB  
    6  A    between atoms: CB   and  CG  
    7  A    between atoms: CG   and  CD  
    8  A    between atoms: CD   and  CE  

$$$$
