ligand_19_pose_3_2HRL.pdbqt
 OpenBabel07062320523D

 49 49  0  0  1  0  0  0  0  0999 V2000
   30.4670   32.1720   18.1120 N   0  0  0  0  0  0  0  0  0  0  0  0
   29.2150   32.4330   18.7140 C   0  0  0  0  0  0  0  0  0  0  0  0
   28.6910   33.5530   18.6180 O   0  0  0  0  0  0  0  0  0  0  0  0
   30.8430   31.1930   18.2460 H   0  0  0  0  0  0  0  0  0  0  0  0
   31.2340   33.1310   17.3470 C   0  0  0  0  0  0  0  0  0  0  0  0
   31.2380   32.8120   15.9000 C   0  0  2  0  0  0  0  0  0  0  0  0
   30.3690   33.6830   15.0200 C   0  0  2  0  0  0  0  0  0  0  0  0
   30.5480   35.1590   15.2140 C   0  0  2  0  0  0  0  0  0  0  0  0
   29.8860   35.6220   13.0320 C   0  0  2  0  0  0  0  0  0  0  0  0
   31.2720   35.3930   12.5680 C   0  0  0  0  0  0  0  0  0  0  0  0
   29.7240   35.8950   14.3640 O   0  0  0  0  0  0  0  0  0  0  0  0
   32.3520   35.5380   13.5790 C   0  0  1  0  0  0  0  0  0  0  0  0
   31.9240   35.7020   14.9960 C   0  0  1  0  0  0  0  0  0  0  0  0
   29.0490   34.5130   12.7530 O   0  0  0  0  0  0  0  0  0  0  0  0
   28.1230   34.7980   12.5730 H   0  0  0  0  0  0  0  0  0  0  0  0
   29.2650   36.7530   12.2870 C   0  0  0  0  0  0  0  0  0  0  0  0
   29.7700   37.9270   12.3320 O   0  0  0  0  0  0  0  0  0  0  0  0
   28.1250   36.6300   11.5080 O   0  0  0  0  0  0  0  0  0  0  0  0
   27.5250   35.8170   11.6820 H   0  0  0  0  0  0  0  0  0  0  0  0
   33.1720   34.4080   13.5020 O   0  0  0  0  0  0  0  0  0  0  0  0
   32.6570   33.6190   13.1480 H   0  0  0  0  0  0  0  0  0  0  0  0
   31.9100   37.0710   15.4570 N   0  0  0  0  0  0  0  0  0  0  0  0
   32.5540   37.4940   16.6240 C   0  0  0  0  0  0  0  0  0  0  0  0
   31.3890   37.7550   14.8780 H   0  0  0  0  0  0  0  0  0  0  0  0
   32.5570   38.8940   17.1200 C   0  0  0  0  0  0  0  0  0  0  0  0
   33.1620   36.6290   17.2840 O   0  0  0  0  0  0  0  0  0  0  0  0
   29.0490   33.4470   15.5640 O   0  0  0  0  0  0  0  0  0  0  0  0
   28.7180   32.6900   14.9900 H   0  0  0  0  0  0  0  0  0  0  0  0
   31.2500   31.5010   15.5280 O   0  0  0  0  0  0  0  0  0  0  0  0
   30.7170   31.3140   14.7410 H   0  0  0  0  0  0  0  0  0  0  0  0
   28.5450   31.4180   19.4320 O   0  0  0  0  0  0  0  0  0  0  0  0
   28.3980   30.1200   18.8560 C   0  0  0  0  0  0  0  0  0  0  0  0
   27.7170   30.2760   17.5560 C   0  0  0  0  0  0  0  0  0  0  0  0
   26.3620   30.1060   17.3240 C   0  0  0  0  0  0  0  0  0  0  0  0
   28.2590   30.5980   16.3740 N   0  0  0  0  0  0  0  0  0  0  0  0
   26.1420   30.3300   16.0200 N   0  0  0  0  0  0  0  0  0  0  0  0
   27.2980   30.6240   15.4720 N   0  0  0  0  0  0  0  0  0  0  0  0
   24.8500   30.2530   15.3770 C   0  0  0  0  0  0  0  0  0  0  0  0
   24.8270   31.2360   14.2310 C   0  0  0  0  0  0  0  0  0  0  0  0
   24.6850   30.5490   13.0210 O   0  0  0  0  0  0  0  0  0  0  0  0
   23.5710   29.8160   12.7390 C   0  0  0  0  0  0  0  0  0  0  0  0
   23.6270   28.5820   12.5840 O   0  0  0  0  0  0  0  0  0  0  0  0
   22.2310   30.4870   12.6080 C   0  0  0  0  0  0  0  0  0  0  0  0
   29.8670   25.5550   16.9770 C   0  0  0  0  0  0  0  0  0  0  0  0
   28.3450   25.7220   17.0260 C   0  0  0  0  0  0  0  0  0  0  0  0
   27.6030   24.3950   16.9830 C   0  0  0  0  0  0  0  0  0  0  0  0
   26.1150   24.5730   17.1060 C   0  0  0  0  0  0  0  0  0  0  0  0
   25.5120   23.3560   17.8000 C   0  0  0  0  0  0  0  0  0  0  0  0
   25.7680   23.4100   19.2590 N   0  0  0  0  0  0  0  0  0  0  0  0
  1  4  1  0  0  0  0
  1  2  1  0  0  0  0
  2 31  1  0  0  0  0
  3  2  2  0  0  0  0
  5  1  1  0  0  0  0
  6  5  1  1  0  0  0
  7 27  1  1  0  0  0
  7  6  1  0  0  0  0
  8  7  1  6  0  0  0
  9 16  1  6  0  0  0
  9 11  1  0  0  0  0
 10  9  1  0  0  0  0
 10 12  1  0  0  0  0
 11  8  1  0  0  0  0
 12 20  1  1  0  0  0
 12 13  1  0  0  0  0
 13  8  1  0  0  0  0
 13 22  1  6  0  0  0
 14  9  1  0  0  0  0
 15 14  1  0  0  0  0
 16 17  2  0  0  0  0
 18 19  1  0  0  0  0
 18 16  1  0  0  0  0
 21 20  1  0  0  0  0
 22 23  1  0  0  0  0
 23 25  1  0  0  0  0
 23 26  2  0  0  0  0
 24 22  1  0  0  0  0
 28 27  1  0  0  0  0
 29  6  1  0  0  0  0
 30 29  1  0  0  0  0
 32 31  1  0  0  0  0
 33 32  1  0  0  0  0
 34 33  2  0  0  0  0
 35 33  1  0  0  0  0
 36 34  1  0  0  0  0
 37 36  1  0  0  0  0
 37 35  2  0  0  0  0
 38 36  1  0  0  0  0
 39 38  1  0  0  0  0
 40 39  1  0  0  0  0
 41 40  1  0  0  0  0
 42 41  2  0  0  0  0
 43 41  1  0  0  0  0
 44 45  1  0  0  0  0
 46 45  1  0  0  0  0
 46 47  1  0  0  0  0
 47 48  1  0  0  0  0
 48 49  1  0  0  0  0
M  END
>  <REMARK>
 VINA RESULT:    -4.335      2.480      6.062
 INTER + INTRA:         -14.321
 INTER:                  -8.362
 INTRA:                  -5.960
 UNBOUND:                -6.059
 SMILES CC(=O)N[C@@H]1[C@@H](O)C[C@](O)(C(=O)O)O[C@H]1C(O)[C@H](O)CNC(=O)OCc1cn(CCOC(C)=O)nn1
 SMILES IDX 21 1 22 2 23 3 20 5 18 6 16 7 15 8 9 9 8 10 14 11 6 12 5 13
 SMILES IDX 10 14 11 16 12 17 13 18 7 20 4 22 2 23 1 25 3 26 17 27 19 29
 SMILES IDX 24 31 25 32 26 33 27 34 36 35 28 36 35 37 29 38 30 39 31 40
 SMILES IDX 32 41 34 42 33 43
 H PARENT 21 4 10 15 13 19 7 21 4 24 17 28 19 30
 Flexibility Score: inf
  4 active torsions:
  status: ('A' for Active; 'I' for Inactive)
    1  A    between atoms: CA   and  CB  
    2  A    between atoms: CB   and  CG  
    3  A    between atoms: CG   and  CD  
    4  A    between atoms: CD   and  CE  

>  <TORSDO>
F 18

>  <BEGIN_>
RES LYS A 131

$$$$
ligand_19_pose_3_2HRL.pdbqt
 OpenBabel07062320523D

  6  5  0  0  0  0  0  0  0  0999 V2000
   33.1930   34.6630    9.2900 C   0  0  0  0  0  0  0  0  0  0  0  0
   32.0600   35.3600   10.0340 C   0  0  0  0  0  0  0  0  0  0  0  0
   30.7980   35.4940    9.2210 C   0  0  0  0  0  0  0  0  0  0  0  0
   30.0870   34.1540    9.1080 C   0  0  0  0  0  0  0  0  0  0  0  0
   28.6310   34.3540    8.7360 C   0  0  0  0  0  0  0  0  0  0  0  0
   27.7330   33.6270    9.6760 N   0  0  0  0  0  0  0  0  0  0  0  0
  1  2  1  0  0  0  0
  3  2  1  0  0  0  0
  4  3  1  0  0  0  0
  5  4  1  0  0  0  0
  5  6  1  0  0  0  0
M  END
>  <EGIN_R>
ES LYS A 135

>  <REMARK>
  4 active torsions:
  status: ('A' for Active; 'I' for Inactive)
    5  A    between atoms: CA   and  CB  
    6  A    between atoms: CB   and  CG  
    7  A    between atoms: CG   and  CD  
    8  A    between atoms: CD   and  CE  

$$$$
