ligand_85_pose_1_2HRL.pdbqt
 OpenBabel07062320523D

 55 56  0  0  1  0  0  0  0  0999 V2000
   32.1960   33.5070   14.8940 N   0  0  0  0  0  0  0  0  0  0  0  0
   31.5190   32.8920   15.9580 C   0  0  0  0  0  0  0  0  0  0  0  0
   31.5170   33.4170   17.0900 O   0  0  0  0  0  0  0  0  0  0  0  0
   32.1880   33.0610   13.9490 H   0  0  0  0  0  0  0  0  0  0  0  0
   32.9140   34.7460   15.0450 C   0  0  0  0  0  0  0  0  0  0  0  0
   33.3190   35.2710   13.6920 C   0  0  2  0  0  0  0  0  0  0  0  0
   32.1350   35.5730   12.8090 C   0  0  2  0  0  0  0  0  0  0  0  0
   31.1680   36.4550   13.5020 C   0  0  2  0  0  0  0  0  0  0  0  0
   29.3740   36.6420   14.9190 C   0  0  2  0  0  0  0  0  0  0  0  0
   29.8150   38.0830   14.8950 C   0  0  0  0  0  0  0  0  0  0  0  0
   30.0720   35.8240   14.0660 O   0  0  0  0  0  0  0  0  0  0  0  0
   30.0440   38.6090   13.5170 C   0  0  1  0  0  0  0  0  0  0  0  0
   30.6110   37.5440   12.5840 C   0  0  1  0  0  0  0  0  0  0  0  0
   28.0330   36.6030   14.4970 O   0  0  0  0  0  0  0  0  0  0  0  0
   27.9840   35.8450   13.8380 H   0  0  0  0  0  0  0  0  0  0  0  0
   29.4550   36.0760   16.2700 C   0  0  0  0  0  0  0  0  0  0  0  0
   30.1120   36.6750   17.1550 O   0  0  0  0  0  0  0  0  0  0  0  0
   28.8410   34.8940   16.6540 O   0  0  0  0  0  0  0  0  0  0  0  0
   29.3410   34.3210   17.3520 H   0  0  0  0  0  0  0  0  0  0  0  0
   28.8180   39.0970   13.0200 O   0  0  0  0  0  0  0  0  0  0  0  0
   28.5890   38.5060   12.2530 H   0  0  0  0  0  0  0  0  0  0  0  0
   31.5990   38.0630   11.7010 N   0  0  0  0  0  0  0  0  0  0  0  0
   31.2160   38.7200   10.5040 C   0  0  0  0  0  0  0  0  0  0  0  0
   32.6120   37.9760   11.9090 H   0  0  0  0  0  0  0  0  0  0  0  0
   32.2960   39.2520    9.6050 C   0  0  0  0  0  0  0  0  0  0  0  0
   30.0360   38.8860   10.1480 O   0  0  0  0  0  0  0  0  0  0  0  0
   31.6240   34.4050   12.3000 O   0  0  0  0  0  0  0  0  0  0  0  0
   32.2480   33.6620   12.5750 H   0  0  0  0  0  0  0  0  0  0  0  0
   34.0700   34.2690   13.0040 O   0  0  0  0  0  0  0  0  0  0  0  0
   33.6990   33.3790   13.1690 H   0  0  0  0  0  0  0  0  0  0  0  0
   30.8240   31.6940   15.8320 O   0  0  0  0  0  0  0  0  0  0  0  0
   30.1210   31.1770   16.9440 C   0  0  0  0  0  0  0  0  0  0  0  0
   28.6690   31.2180   16.7180 C   0  0  0  0  0  0  0  0  0  0  0  0
   27.9600   31.2700   15.5360 C   0  0  0  0  0  0  0  0  0  0  0  0
   27.7380   31.2100   17.6870 N   0  0  0  0  0  0  0  0  0  0  0  0
   26.6290   31.2930   15.8130 N   0  0  0  0  0  0  0  0  0  0  0  0
   26.5430   31.2550   17.1210 N   0  0  0  0  0  0  0  0  0  0  0  0
   25.5450   31.3460   14.8960 C   0  0  0  0  0  0  0  0  0  0  0  0
   25.0530   30.1880   14.3120 C   0  0  0  0  0  0  0  0  0  0  0  0
   24.9840   32.5630   14.5870 C   0  0  0  0  0  0  0  0  0  0  0  0
   24.0080   30.2170   13.4230 C   0  0  0  0  0  0  0  0  0  0  0  0
   23.9280   32.6300   13.6940 C   0  0  0  0  0  0  0  0  0  0  0  0
   23.3740   28.7530   12.6760 Cl  0  0  0  0  0  0  0  0  0  0  0  0
   23.4570   31.4470   13.1250 C   0  0  0  0  0  0  0  0  0  0  0  0
   25.5070   33.7600   15.2030 C   0  0  0  0  0  0  0  0  0  0  0  0
   26.5050   34.3900   14.7510 O   0  0  0  0  0  0  0  0  0  0  0  0
   24.8940   34.2770   16.3670 N   0  0  0  0  0  0  0  0  0  0  0  0
   23.7510   33.5920   16.9180 C   0  0  0  0  0  0  0  0  0  0  0  0
   25.3780   35.4790   17.0290 C   0  0  0  0  0  0  0  0  0  0  0  0
   29.8670   25.5550   16.9770 C   0  0  0  0  0  0  0  0  0  0  0  0
   28.3450   25.7220   17.0260 C   0  0  0  0  0  0  0  0  0  0  0  0
   27.6000   24.4080   16.8430 C   0  0  0  0  0  0  0  0  0  0  0  0
   26.2040   24.4670   17.3990 C   0  0  0  0  0  0  0  0  0  0  0  0
   26.2270   25.1540   18.7600 C   0  0  0  0  0  0  0  0  0  0  0  0
   25.3240   24.4580   19.7080 N   0  0  0  0  0  0  0  0  0  0  0  0
  1  5  1  0  0  0  0
  1  2  1  0  0  0  0
  2  3  2  0  0  0  0
  4  1  1  0  0  0  0
  6  5  1  1  0  0  0
  7 27  1  1  0  0  0
  7  6  1  0  0  0  0
  8  7  1  6  0  0  0
  8 11  1  0  0  0  0
  9 14  1  6  0  0  0
  9 16  1  0  0  0  0
 10  9  1  0  0  0  0
 11  9  1  0  0  0  0
 12 20  1  6  0  0  0
 12 10  1  0  0  0  0
 13 22  1  1  0  0  0
 13  8  1  0  0  0  0
 13 12  1  0  0  0  0
 15 14  1  0  0  0  0
 16 18  1  0  0  0  0
 16 17  2  0  0  0  0
 18 19  1  0  0  0  0
 21 20  1  0  0  0  0
 22 24  1  0  0  0  0
 23 22  1  0  0  0  0
 25 23  1  0  0  0  0
 26 23  2  0  0  0  0
 27 28  1  0  0  0  0
 29 30  1  0  0  0  0
 29  6  1  0  0  0  0
 31  2  1  0  0  0  0
 31 32  1  0  0  0  0
 33 32  1  0  0  0  0
 33 35  1  0  0  0  0
 34 36  1  0  0  0  0
 34 33  2  0  0  0  0
 36 37  1  0  0  0  0
 37 35  2  0  0  0  0
 38 36  1  0  0  0  0
 39 38  2  0  0  0  0
 40 38  1  0  0  0  0
 40 45  1  0  0  0  0
 41 39  1  0  0  0  0
 42 40  2  0  0  0  0
 43 41  1  0  0  0  0
 44 41  2  0  0  0  0
 44 42  1  0  0  0  0
 45 47  1  0  0  0  0
 46 45  2  0  0  0  0
 47 48  1  0  0  0  0
 47 49  1  0  0  0  0
 50 51  1  0  0  0  0
 52 51  1  0  0  0  0
 52 53  1  0  0  0  0
 53 54  1  0  0  0  0
 54 55  1  0  0  0  0
M  END
>  <REMARK>
 VINA RESULT:    -5.153      4.683      7.780
 INTER + INTRA:         -15.406
 INTER:                  -9.140
 INTRA:                  -6.266
 UNBOUND:                -6.187
 SMILES CC(=O)N[C@@H]1[C@@H](O)C[C@](O)(C(=O)O)O[C@H]1C(O)[C@H](O)CNC(=O)OCc1cn(-c2cc(Cl)ccc2C(=O)N(C)C)nn1
 SMILES IDX 21 1 22 2 23 3 20 5 18 6 16 7 15 8 9 9 8 10 14 11 6 12 5 13
 SMILES IDX 10 14 11 16 12 17 13 18 7 20 4 22 2 23 1 25 3 26 17 27 19 29
 SMILES IDX 24 31 25 32 26 33 27 34 42 35 28 36 41 37 29 38 30 39 35 40
 SMILES IDX 31 41 34 42 32 43 33 44 36 45 37 46 38 47 39 48 40 49
 H PARENT 21 4 10 15 13 19 7 21 4 24 17 28 19 30
 Flexibility Score: inf
  4 active torsions:
  status: ('A' for Active; 'I' for Inactive)
    1  A    between atoms: CA   and  CB  
    2  A    between atoms: CB   and  CG  
    3  A    between atoms: CG   and  CD  
    4  A    between atoms: CD   and  CE  

>  <TORSDO>
F 16

>  <BEGIN_>
RES LYS A 131

$$$$
ligand_85_pose_1_2HRL.pdbqt
 OpenBabel07062320523D

  6  5  0  0  0  0  0  0  0  0999 V2000
   33.1930   34.6630    9.2900 C   0  0  0  0  0  0  0  0  0  0  0  0
   32.0600   35.3600   10.0340 C   0  0  0  0  0  0  0  0  0  0  0  0
   30.7890   35.4690    9.2310 C   0  0  0  0  0  0  0  0  0  0  0  0
   30.2090   34.0910    8.9550 C   0  0  0  0  0  0  0  0  0  0  0  0
   28.7380   34.0490    9.3240 C   0  0  0  0  0  0  0  0  0  0  0  0
   28.5240   34.5000   10.7270 N   0  0  0  0  0  0  0  0  0  0  0  0
  1  2  1  0  0  0  0
  3  2  1  0  0  0  0
  4  3  1  0  0  0  0
  4  5  1  0  0  0  0
  5  6  1  0  0  0  0
M  END
>  <EGIN_R>
ES LYS A 135

>  <REMARK>
  4 active torsions:
  status: ('A' for Active; 'I' for Inactive)
    5  A    between atoms: CA   and  CB  
    6  A    between atoms: CB   and  CG  
    7  A    between atoms: CG   and  CD  
    8  A    between atoms: CD   and  CE  

$$$$
