ligand_6_pose_17_2HRL.pdbqt
 OpenBabel07062320523D

 52 53  0  0  1  0  0  0  0  0999 V2000
   27.3060   37.6290   16.7590 N   0  0  0  0  0  0  0  0  0  0  0  0
   26.3300   36.6630   16.4520 C   0  0  0  0  0  0  0  0  0  0  0  0
   26.1060   35.6690   17.1660 O   0  0  0  0  0  0  0  0  0  0  0  0
   27.3830   38.4570   16.0740 H   0  0  0  0  0  0  0  0  0  0  0  0
   28.1700   37.5820   17.8730 C   0  0  0  0  0  0  0  0  0  0  0  0
   29.5440   37.0600   17.7340 C   0  0  2  0  0  0  0  0  0  0  0  0
   29.8660   35.6400   17.8210 C   0  0  2  0  0  0  0  0  0  0  0  0
   30.6460   35.1400   16.6000 C   0  0  2  0  0  0  0  0  0  0  0  0
   30.4200   35.1070   14.2850 C   0  0  2  0  0  0  0  0  0  0  0  0
   31.7310   34.3590   14.3710 C   0  0  0  0  0  0  0  0  0  0  0  0
   30.0560   35.7240   15.4600 O   0  0  0  0  0  0  0  0  0  0  0  0
   31.7340   33.3130   15.4410 C   0  0  1  0  0  0  0  0  0  0  0  0
   30.5910   33.6680   16.4110 C   0  0  1  0  0  0  0  0  0  0  0  0
   29.4670   34.2190   13.8170 O   0  0  0  0  0  0  0  0  0  0  0  0
   28.8340   34.6990   13.2460 H   0  0  0  0  0  0  0  0  0  0  0  0
   30.6070   36.1730   13.2660 C   0  0  0  0  0  0  0  0  0  0  0  0
   31.7500   36.6370   13.0220 O   0  0  0  0  0  0  0  0  0  0  0  0
   29.5310   36.6810   12.5590 O   0  0  0  0  0  0  0  0  0  0  0  0
   28.7110   36.1130   12.3310 H   0  0  0  0  0  0  0  0  0  0  0  0
   31.6140   32.0220   14.9800 O   0  0  0  0  0  0  0  0  0  0  0  0
   31.4880   31.4260   15.7600 H   0  0  0  0  0  0  0  0  0  0  0  0
   30.8480   32.8840   17.6010 N   0  0  0  0  0  0  0  0  0  0  0  0
   30.1260   31.6680   17.8420 C   0  0  0  0  0  0  0  0  0  0  0  0
   31.5490   33.1550   18.3170 H   0  0  0  0  0  0  0  0  0  0  0  0
   30.3370   30.8170   19.0340 C   0  0  0  0  0  0  0  0  0  0  0  0
   29.2800   31.3250   16.9910 O   0  0  0  0  0  0  0  0  0  0  0  0
   28.7520   34.8730   18.0470 O   0  0  0  0  0  0  0  0  0  0  0  0
   27.8840   35.3230   17.9550 H   0  0  0  0  0  0  0  0  0  0  0  0
   30.3350   37.8610   18.6070 O   0  0  0  0  0  0  0  0  0  0  0  0
   31.2340   37.9990   18.2100 H   0  0  0  0  0  0  0  0  0  0  0  0
   25.5800   36.8530   15.2700 O   0  0  0  0  0  0  0  0  0  0  0  0
   25.2420   35.6830   14.5510 C   0  0  0  0  0  0  0  0  0  0  0  0
   25.9560   35.6690   13.2290 C   0  0  0  0  0  0  0  0  0  0  0  0
   25.7780   36.5330   12.1700 C   0  0  0  0  0  0  0  0  0  0  0  0
   26.9150   34.8070   12.8100 N   0  0  0  0  0  0  0  0  0  0  0  0
   26.6070   36.1930   11.1540 N   0  0  0  0  0  0  0  0  0  0  0  0
   27.2700   35.1440   11.5940 N   0  0  0  0  0  0  0  0  0  0  0  0
   26.7210   36.8400    9.8890 C   0  0  0  0  0  0  0  0  0  0  0  0
   27.7240   37.7460    9.6160 C   0  0  0  0  0  0  0  0  0  0  0  0
   25.8200   36.5830    8.8720 C   0  0  0  0  0  0  0  0  0  0  0  0
   27.8160   38.3600    8.3830 C   0  0  0  0  0  0  0  0  0  0  0  0
   25.9110   37.1980    7.6390 C   0  0  0  0  0  0  0  0  0  0  0  0
   26.9140   38.1030    7.3620 C   0  0  0  0  0  0  0  0  0  0  0  0
   27.0010   38.7270    6.0960 N   0  0  0  0  0  0  0  0  0  0  0  0
   26.3880   39.7930    5.9150 O   0  0  0  0  0  0  0  0  0  0  0  0
   27.7260   38.2280    5.0520 O   0  0  0  0  0  0  0  0  0  0  0  0
   29.8670   25.5550   16.9770 C   0  0  0  0  0  0  0  0  0  0  0  0
   28.3450   25.7220   17.0260 C   0  0  0  0  0  0  0  0  0  0  0  0
   27.6010   24.4010   16.9030 C   0  0  0  0  0  0  0  0  0  0  0  0
   26.1470   24.5340   17.2600 C   0  0  0  0  0  0  0  0  0  0  0  0
   25.8610   23.7450   18.5340 C   0  0  0  0  0  0  0  0  0  0  0  0
   25.5780   24.6650   19.6610 N   0  0  0  0  0  0  0  0  0  0  0  0
  1  5  1  0  0  0  0
  2  1  1  0  0  0  0
  2  3  2  0  0  0  0
  4  1  1  0  0  0  0
  6  7  1  0  0  0  0
  6  5  1  1  0  0  0
  6 29  1  0  0  0  0
  7 27  1  6  0  0  0
  8  7  1  1  0  0  0
  9 16  1  6  0  0  0
  9 10  1  0  0  0  0
  9 11  1  0  0  0  0
 10 12  1  0  0  0  0
 11  8  1  0  0  0  0
 12 20  1  6  0  0  0
 12 13  1  0  0  0  0
 13  8  1  0  0  0  0
 13 22  1  1  0  0  0
 14  9  1  0  0  0  0
 15 14  1  0  0  0  0
 17 16  2  0  0  0  0
 18 16  1  0  0  0  0
 19 18  1  0  0  0  0
 20 21  1  0  0  0  0
 22 23  1  0  0  0  0
 22 24  1  0  0  0  0
 23 25  1  0  0  0  0
 26 23  2  0  0  0  0
 28 27  1  0  0  0  0
 30 29  1  0  0  0  0
 31  2  1  0  0  0  0
 32 31  1  0  0  0  0
 33 32  1  0  0  0  0
 34 33  2  0  0  0  0
 35 33  1  0  0  0  0
 36 37  1  0  0  0  0
 36 34  1  0  0  0  0
 37 35  2  0  0  0  0
 38 36  1  0  0  0  0
 39 38  1  0  0  0  0
 40 38  2  0  0  0  0
 41 39  2  0  0  0  0
 42 40  1  0  0  0  0
 43 42  2  0  0  0  0
 43 41  1  0  0  0  0
 44 43  1  0  0  0  0
 45 44  2  0  0  0  0
 46 44  2  0  0  0  0
 47 48  1  0  0  0  0
 49 48  1  0  0  0  0
 49 50  1  0  0  0  0
 50 51  1  0  0  0  0
 51 52  1  0  0  0  0
M  END
>  <REMARK>
 VINA RESULT:    -5.116      4.630      9.018
 INTER + INTRA:         -13.902
 INTER:                  -7.539
 INTRA:                  -6.363
 UNBOUND:                -4.749
 SMILES CC(=O)N[C@@H]1[C@@H](O)C[C@](O)(C(=O)O)O[C@H]1C(O)[C@H](O)CNC(=O)OCc1cn(-c2ccc([N+](=O)[O-])cc2)nn1
 SMILES IDX 21 1 22 2 23 3 20 5 18 6 16 7 15 8 9 9 8 10 14 11 6 12 5 13
 SMILES IDX 10 14 11 16 12 17 13 18 7 20 4 22 2 23 1 25 3 26 17 27 19 29
 SMILES IDX 24 31 25 32 26 33 27 34 39 35 28 36 38 37 29 38 30 39 37 40
 SMILES IDX 31 41 36 42 32 43 33 44 34 45 35 46
 H PARENT 21 4 10 15 13 19 7 21 4 24 17 28 19 30
 Flexibility Score: inf
  4 active torsions:
  status: ('A' for Active; 'I' for Inactive)
    1  A    between atoms: CA   and  CB  
    2  A    between atoms: CB   and  CG  
    3  A    between atoms: CG   and  CD  
    4  A    between atoms: CD   and  CE  

>  <TORSDO>
F 16

>  <BEGIN_>
RES LYS A 131

$$$$
ligand_6_pose_17_2HRL.pdbqt
 OpenBabel07062320523D

  6  5  0  0  0  0  0  0  0  0999 V2000
   33.1930   34.6630    9.2900 C   0  0  0  0  0  0  0  0  0  0  0  0
   32.0600   35.3600   10.0340 C   0  0  0  0  0  0  0  0  0  0  0  0
   30.8240   35.5640    9.1960 C   0  0  0  0  0  0  0  0  0  0  0  0
   30.0810   34.2510    9.0080 C   0  0  0  0  0  0  0  0  0  0  0  0
   28.8140   34.4670    8.2020 C   0  0  0  0  0  0  0  0  0  0  0  0
   29.0830   35.2900    6.9910 N   0  0  0  0  0  0  0  0  0  0  0  0
  1  2  1  0  0  0  0
  3  2  1  0  0  0  0
  4  3  1  0  0  0  0
  5  4  1  0  0  0  0
  6  5  1  0  0  0  0
M  END
>  <EGIN_R>
ES LYS A 135

>  <REMARK>
  4 active torsions:
  status: ('A' for Active; 'I' for Inactive)
    5  A    between atoms: CA   and  CB  
    6  A    between atoms: CB   and  CG  
    7  A    between atoms: CG   and  CD  
    8  A    between atoms: CD   and  CE  

$$$$
