ligand_52_pose_16_2HRL.pdbqt
 OpenBabel07062320523D

 49 50  0  0  1  0  0  0  0  0999 V2000
   29.1330   26.9640   20.6640 C   0  0  0  0  0  0  0  0  0  0  0  0
   30.0340   27.7470   21.5470 C   0  0  2  0  0  0  0  0  0  0  0  0
   31.4750   27.5170   21.2880 C   0  0  2  0  0  0  0  0  0  0  0  0
   32.4700   28.2870   22.0840 C   0  0  2  0  0  0  0  0  0  0  0  0
   33.9030   28.3210   23.8400 C   0  0  2  0  0  0  0  0  0  0  0  0
   34.0960   29.7870   23.6840 C   0  0  0  0  0  0  0  0  0  0  0  0
   32.7370   27.7920   23.3200 O   0  0  0  0  0  0  0  0  0  0  0  0
   33.5170   30.4200   22.4680 C   0  0  1  0  0  0  0  0  0  0  0  0
   32.1470   29.7530   22.1530 C   0  0  1  0  0  0  0  0  0  0  0  0
   33.8100   28.1030   25.2520 O   0  0  0  0  0  0  0  0  0  0  0  0
   32.9900   28.5810   25.5150 H   0  0  0  0  0  0  0  0  0  0  0  0
   35.0750   27.5310   23.3980 C   0  0  0  0  0  0  0  0  0  0  0  0
   36.2000   28.0830   23.3150 O   0  0  0  0  0  0  0  0  0  0  0  0
   35.0380   26.1860   23.0550 O   0  0  0  0  0  0  0  0  0  0  0  0
   34.3070   25.6290   23.5110 H   0  0  0  0  0  0  0  0  0  0  0  0
   33.2170   31.7630   22.6990 O   0  0  0  0  0  0  0  0  0  0  0  0
   32.7860   31.8560   23.5850 H   0  0  0  0  0  0  0  0  0  0  0  0
   31.8020   30.2140   20.8350 N   0  0  0  0  0  0  0  0  0  0  0  0
   30.8500   31.2260   20.5770 C   0  0  0  0  0  0  0  0  0  0  0  0
   32.2810   29.7820   20.0010 H   0  0  0  0  0  0  0  0  0  0  0  0
   30.5630   31.6320   19.1830 C   0  0  0  0  0  0  0  0  0  0  0  0
   30.2550   31.7710   21.5350 O   0  0  0  0  0  0  0  0  0  0  0  0
   31.8000   27.3380   19.9570 O   0  0  0  0  0  0  0  0  0  0  0  0
   32.5190   26.7170   19.7640 H   0  0  0  0  0  0  0  0  0  0  0  0
   29.8130   27.3810   22.8970 O   0  0  0  0  0  0  0  0  0  0  0  0
   29.5530   28.1950   23.3740 H   0  0  0  0  0  0  0  0  0  0  0  0
   28.5440   27.6600   19.5590 N   0  0  0  0  0  0  0  0  0  0  0  0
   27.1980   27.6690   19.2140 C   0  0  0  0  0  0  0  0  0  0  0  0
   29.1920   28.2310   18.9320 H   0  0  0  0  0  0  0  0  0  0  0  0
   26.3560   27.0360   19.8640 O   0  0  0  0  0  0  0  0  0  0  0  0
   26.6960   28.3890   18.1160 O   0  0  0  0  0  0  0  0  0  0  0  0
   27.4090   28.4390   16.9010 C   0  0  0  0  0  0  0  0  0  0  0  0
   27.5810   29.8230   16.4240 C   0  0  0  0  0  0  0  0  0  0  0  0
   28.8190   30.3720   16.1260 C   0  0  0  0  0  0  0  0  0  0  0  0
   26.6960   30.7900   16.1860 N   0  0  0  0  0  0  0  0  0  0  0  0
   28.6400   31.6410   15.7200 N   0  0  0  0  0  0  0  0  0  0  0  0
   27.3550   31.8790   15.7610 N   0  0  0  0  0  0  0  0  0  0  0  0
   29.6520   32.5700   15.3160 C   0  0  0  0  0  0  0  0  0  0  0  0
   30.9850   32.3610   15.6210 C   0  0  0  0  0  0  0  0  0  0  0  0
   29.3030   33.7020   14.6080 C   0  0  0  0  0  0  0  0  0  0  0  0
   31.9360   33.2960   15.2040 C   0  0  0  0  0  0  0  0  0  0  0  0
   30.2510   34.5970   14.2150 N   0  0  0  0  0  0  0  0  0  0  0  0
   31.5540   34.4210   14.4960 C   0  0  0  0  0  0  0  0  0  0  0  0
   29.8670   25.5550   16.9770 C   0  0  0  0  0  0  0  0  0  0  0  0
   28.3450   25.7220   17.0260 C   0  0  0  0  0  0  0  0  0  0  0  0
   27.6020   24.3990   16.9280 C   0  0  0  0  0  0  0  0  0  0  0  0
   26.1680   24.5210   17.3630 C   0  0  0  0  0  0  0  0  0  0  0  0
   25.9570   23.7280   18.6490 C   0  0  0  0  0  0  0  0  0  0  0  0
   24.6520   24.0710   19.2620 N   0  0  0  0  0  0  0  0  0  0  0  0
  2  1  1  6  0  0  0
  2 25  1  0  0  0  0
  3 23  1  6  0  0  0
  3  2  1  0  0  0  0
  4  3  1  1  0  0  0
  4  9  1  0  0  0  0
  4  7  1  0  0  0  0
  5 12  1  6  0  0  0
  5 10  1  0  0  0  0
  6  5  1  0  0  0  0
  7  5  1  0  0  0  0
  8 16  1  1  0  0  0
  8  6  1  0  0  0  0
  9 18  1  6  0  0  0
  9  8  1  0  0  0  0
 10 11  1  0  0  0  0
 13 12  2  0  0  0  0
 14 12  1  0  0  0  0
 14 15  1  0  0  0  0
 16 17  1  0  0  0  0
 19 18  1  0  0  0  0
 19 22  2  0  0  0  0
 20 18  1  0  0  0  0
 21 19  1  0  0  0  0
 24 23  1  0  0  0  0
 25 26  1  0  0  0  0
 27  1  1  0  0  0  0
 28 27  1  0  0  0  0
 28 30  2  0  0  0  0
 29 27  1  0  0  0  0
 31 28  1  0  0  0  0
 32 31  1  0  0  0  0
 33 32  1  0  0  0  0
 34 33  2  0  0  0  0
 35 33  1  0  0  0  0
 36 37  1  0  0  0  0
 36 34  1  0  0  0  0
 37 35  2  0  0  0  0
 38 39  1  0  0  0  0
 38 36  1  0  0  0  0
 40 38  2  0  0  0  0
 41 39  2  0  0  0  0
 42 43  2  0  0  0  0
 42 40  1  0  0  0  0
 43 41  1  0  0  0  0
 44 45  1  0  0  0  0
 46 45  1  0  0  0  0
 46 47  1  0  0  0  0
 47 48  1  0  0  0  0
 48 49  1  0  0  0  0
M  END
>  <REMARK>
 VINA RESULT:    -4.790      1.603      3.673
 INTER + INTRA:         -13.454
 INTER:                  -8.766
 INTRA:                  -4.688
 UNBOUND:                -5.164
 SMILES CC(=O)N[C@@H]1[C@@H](O)C[C@](O)(C(=O)O)O[C@H]1C(O)[C@H](O)CNC(=O)OCc1cn(-c2cccnc2)nn1
 SMILES IDX 20 1 18 2 16 3 15 4 9 5 8 6 14 7 6 8 5 9 10 10 11 12 12 13
 SMILES IDX 13 14 7 16 4 18 2 19 1 21 3 22 17 23 19 25 21 27 22 28 23 30
 SMILES IDX 24 31 25 32 26 33 27 34 36 35 28 36 35 37 29 38 30 39 34 40
 SMILES IDX 31 41 33 42 32 43
 H PARENT 10 11 13 15 7 17 4 20 17 24 19 26 21 29
 Flexibility Score: inf
  4 active torsions:
  status: ('A' for Active; 'I' for Inactive)
    1  A    between atoms: CA   and  CB  
    2  A    between atoms: CB   and  CG  
    3  A    between atoms: CG   and  CD  
    4  A    between atoms: CD   and  CE  

>  <TORSDO>
F 15

>  <BEGIN_>
RES LYS A 131

$$$$
ligand_52_pose_16_2HRL.pdbqt
 OpenBabel07062320523D

  6  5  0  0  0  0  0  0  0  0999 V2000
   33.1930   34.6630    9.2900 C   0  0  0  0  0  0  0  0  0  0  0  0
   32.0600   35.3600   10.0340 C   0  0  0  0  0  0  0  0  0  0  0  0
   30.7950   35.4860    9.2240 C   0  0  0  0  0  0  0  0  0  0  0  0
   30.0000   34.1900    9.2650 C   0  0  0  0  0  0  0  0  0  0  0  0
   28.7490   34.3590   10.1050 C   0  0  0  0  0  0  0  0  0  0  0  0
   27.5680   33.7430    9.4390 N   0  0  0  0  0  0  0  0  0  0  0  0
  1  2  1  0  0  0  0
  3  4  1  0  0  0  0
  3  2  1  0  0  0  0
  4  5  1  0  0  0  0
  6  5  1  0  0  0  0
M  END
>  <EGIN_R>
ES LYS A 135

>  <REMARK>
  4 active torsions:
  status: ('A' for Active; 'I' for Inactive)
    5  A    between atoms: CA   and  CB  
    6  A    between atoms: CB   and  CG  
    7  A    between atoms: CG   and  CD  
    8  A    between atoms: CD   and  CE  

$$$$
