ligand_69_pose_2_2HRL.pdbqt
 OpenBabel07062320523D

 54 51  0  0  1  0  0  0  0  0999 V2000
   23.8290   36.2220   10.1500 N   0  0  0  0  0  0  0  0  0  0  0  0
   24.5040   36.6660   11.3260 C   0  0  0  0  0  0  0  0  0  0  0  0
   24.5140   37.8690   11.6940 O   0  0  0  0  0  0  0  0  0  0  0  0
   23.8390   35.2170    9.8690 H   0  0  0  0  0  0  0  0  0  0  0  0
   23.1370   37.2560    9.3790 C   0  0  0  0  0  0  0  0  0  0  0  0
   23.6740   37.1690    7.9620 C   0  0  2  0  0  0  0  0  0  0  0  0
   24.9910   37.8900    7.7940 C   0  0  2  0  0  0  0  0  0  0  0  0
   26.1360   36.9490    7.5880 C   0  0  2  0  0  0  0  0  0  0  0  0
   27.8400   35.7390    8.4990 C   0  0  2  0  0  0  0  0  0  0  0  0
   27.9040   35.2480    7.0690 C   0  0  0  0  0  0  0  0  0  0  0  0
   26.6900   36.4780    8.7480 O   0  0  0  0  0  0  0  0  0  0  0  0
   27.9320   36.3960    6.0800 C   0  0  1  0  0  0  0  0  0  0  0  0
   27.2380   37.5510    6.7430 C   0  0  1  0  0  0  0  0  0  0  0  0
   28.9940   36.4320    8.8490 O   0  0  0  0  0  0  0  0  0  0  0  0
   29.2450   36.2800    9.7980 H   0  0  0  0  0  0  0  0  0  0  0  0
   27.7630   34.5320    9.3570 C   0  0  0  0  0  0  0  0  0  0  0  0
   28.7040   33.6970    9.4390 O   0  0  0  0  0  0  0  0  0  0  0  0
   26.6250   34.3050   10.0990 O   0  0  0  0  0  0  0  0  0  0  0  0
   25.6820   34.3060    9.7210 H   0  0  0  0  0  0  0  0  0  0  0  0
   29.2480   36.6410    5.7640 O   0  0  0  0  0  0  0  0  0  0  0  0
   29.2870   37.5490    5.3290 H   0  0  0  0  0  0  0  0  0  0  0  0
   26.7950   38.5750    5.8720 N   0  0  0  0  0  0  0  0  0  0  0  0
   27.5970   39.6270    5.3550 C   0  0  0  0  0  0  0  0  0  0  0  0
   25.7950   38.5700    5.5780 H   0  0  0  0  0  0  0  0  0  0  0  0
   27.0330   40.6640    4.4400 C   0  0  0  0  0  0  0  0  0  0  0  0
   28.7970   39.6550    5.6930 O   0  0  0  0  0  0  0  0  0  0  0  0
   25.1910   38.8290    8.7760 O   0  0  0  0  0  0  0  0  0  0  0  0
   24.3170   39.1740    9.0630 H   0  0  0  0  0  0  0  0  0  0  0  0
   22.7740   37.8190    7.0860 O   0  0  0  0  0  0  0  0  0  0  0  0
   22.8700   37.4710    6.1550 H   0  0  0  0  0  0  0  0  0  0  0  0
   25.1770   35.7550   12.1040 O   0  0  0  0  0  0  0  0  0  0  0  0
   24.5500   34.7310   12.8560 C   0  0  0  0  0  0  0  0  0  0  0  0
   25.3770   34.4520   14.0530 C   0  0  0  0  0  0  0  0  0  0  0  0
   26.7040   34.0920   14.1320 C   0  0  0  0  0  0  0  0  0  0  0  0
   24.9230   34.5140   15.3200 N   0  0  0  0  0  0  0  0  0  0  0  0
   27.0250   33.9440   15.4310 N   0  0  0  0  0  0  0  0  0  0  0  0
   25.9130   34.2110   16.1190 N   0  0  0  0  0  0  0  0  0  0  0  0
   28.3360   33.5670   15.9620 C   0  0  2  0  0  0  0  0  0  0  0  0
   29.2870   33.5040   14.8150 C   0  0  0  0  0  0  0  0  0  0  0  0
   30.7260   33.4960   15.1950 *   0  0  0  0  0  0  0  0  0  0  0  0
   31.5660   33.8970   14.1330 O   0  0  0  0  0  0  0  0  0  0  0  0
   31.4420   33.2730   13.3860 H   0  0  0  0  0  0  0  0  0  0  0  0
   28.1730   32.2840   16.7010 C   0  0  0  0  0  0  0  0  0  0  0  0
   28.8980   31.1200   16.0970 C   0  0  1  0  0  0  0  0  0  0  0  0
   30.3710   31.2280   16.1850 C   0  0  0  0  0  0  0  0  0  0  0  0
   31.1380   32.2250   15.8050 *   0  0  0  0  0  0  0  0  0  0  0  0
   28.4510   29.8960   16.5890 O   0  0  0  0  0  0  0  0  0  0  0  0
   29.2040   29.2770   16.7660 H   0  0  0  0  0  0  0  0  0  0  0  0
   29.8670   25.5550   16.9770 C   0  0  0  0  0  0  0  0  0  0  0  0
   28.3450   25.7220   17.0260 C   0  0  0  0  0  0  0  0  0  0  0  0
   27.5990   24.4800   16.5640 C   0  0  0  0  0  0  0  0  0  0  0  0
   26.9690   23.7380   17.7100 C   0  0  0  0  0  0  0  0  0  0  0  0
   25.4880   23.5160   17.4210 C   0  0  0  0  0  0  0  0  0  0  0  0
   24.9560   22.4120   18.2530 N   0  0  0  0  0  0  0  0  0  0  0  0
  1  2  1  0  0  0  0
  2  3  2  0  0  0  0
  2 31  1  0  0  0  0
  4  1  1  0  0  0  0
  5  1  1  0  0  0  0
  6  5  1  1  0  0  0
  7  6  1  0  0  0  0
  7 27  1  1  0  0  0
  8  7  1  1  0  0  0
  8 11  1  0  0  0  0
  9 11  1  0  0  0  0
  9 14  1  1  0  0  0
  9 16  1  0  0  0  0
 10  9  1  0  0  0  0
 12 20  1  1  0  0  0
 12 13  1  0  0  0  0
 12 10  1  0  0  0  0
 13 22  1  6  0  0  0
 13  8  1  0  0  0  0
 14 15  1  0  0  0  0
 16 17  2  0  0  0  0
 16 18  1  0  0  0  0
 19 18  1  0  0  0  0
 21 20  1  0  0  0  0
 23 26  2  0  0  0  0
 23 22  1  0  0  0  0
 24 22  1  0  0  0  0
 25 23  1  0  0  0  0
 27 28  1  0  0  0  0
 29  6  1  0  0  0  0
 30 29  1  0  0  0  0
 31 32  1  0  0  0  0
 32 33  1  0  0  0  0
 33 34  2  0  0  0  0
 33 35  1  0  0  0  0
 34 36  1  0  0  0  0
 35 37  2  0  0  0  0
 36 38  1  0  0  0  0
 36 37  1  0  0  0  0
 38 39  1  6  0  0  0
 38 43  1  0  0  0  0
 42 41  1  0  0  0  0
 44 45  1  1  0  0  0
 44 47  1  0  0  0  0
 44 43  1  0  0  0  0
 47 48  1  0  0  0  0
 49 50  1  0  0  0  0
 51 50  1  0  0  0  0
 51 52  1  0  0  0  0
 53 52  1  0  0  0  0
 53 54  1  0  0  0  0
M  END
>  <REMARK>
 VINA RESULT:    -7.915      3.692      7.773
 INTER + INTRA:         -13.444
 INTER:                  -9.656
 INTRA:                  -3.787
 UNBOUND:                 3.032
 SMILES CC(=O)N[C@@H]1[C@@H](O)C[C@](O)(C(=O)O)O[C@H]1C(O)[C@H](O)CNC(=O)OCc1cn(C2CC(O)C=C[C@@H](O)C2)nn1
 SMILES IDX 21 1 22 2 23 3 20 5 18 6 16 7 15 8 9 9 8 10 14 11 6 12 5 13
 SMILES IDX 10 14 11 16 12 17 13 18 7 20 4 22 2 23 1 25 3 26 17 27 19 29
 SMILES IDX 24 31 25 32 26 33 27 34 39 35 28 36 38 37 29 38 30 39 31 40
 SMILES IDX 32 42 37 44 35 45 34 46 33 47 36 49
 H PARENT 21 4 10 15 13 19 7 21 4 24 17 28 19 30 32 43 36 50
 Flexibility Score: 90.00
  4 active torsions:
  status: ('A' for Active; 'I' for Inactive)
    1  A    between atoms: CA   and  CB  
    2  A    between atoms: CB   and  CG  
    3  A    between atoms: CG   and  CD  
    4  A    between atoms: CD   and  CE  

>  <TORSDO>
F 17

>  <BEGIN_>
RES LYS A 131

$$$$
ligand_69_pose_2_2HRL.pdbqt
 OpenBabel07062320523D

  6  5  0  0  0  0  0  0  0  0999 V2000
   33.1930   34.6630    9.2900 C   0  0  0  0  0  0  0  0  0  0  0  0
   32.0600   35.3600   10.0340 C   0  0  0  0  0  0  0  0  0  0  0  0
   32.4440   35.8290   11.4140 C   0  0  0  0  0  0  0  0  0  0  0  0
   31.9070   37.2280   11.6740 C   0  0  0  0  0  0  0  0  0  0  0  0
   31.8300   38.0180   10.3810 C   0  0  0  0  0  0  0  0  0  0  0  0
   30.6350   38.9060   10.3650 N   0  0  0  0  0  0  0  0  0  0  0  0
  1  2  1  0  0  0  0
  2  3  1  0  0  0  0
  3  4  1  0  0  0  0
  5  4  1  0  0  0  0
  6  5  1  0  0  0  0
M  END
>  <EGIN_R>
ES LYS A 135

>  <REMARK>
  4 active torsions:
  status: ('A' for Active; 'I' for Inactive)
    5  A    between atoms: CA   and  CB  
    6  A    between atoms: CB   and  CG  
    7  A    between atoms: CG   and  CD  
    8  A    between atoms: CD   and  CE  

$$$$
