ligand_26_pose_0_2HRL.pdbqt
 OpenBabel07062320523D

 54 55  0  0  1  0  0  0  0  0999 V2000
   27.7340   28.4970   18.0200 N   0  0  0  0  0  0  0  0  0  0  0  0
   27.3330   29.2110   16.8550 C   0  0  0  0  0  0  0  0  0  0  0  0
   26.1250   29.2340   16.5540 O   0  0  0  0  0  0  0  0  0  0  0  0
   28.7820   28.5280   18.2100 H   0  0  0  0  0  0  0  0  0  0  0  0
   26.8290   27.7830   18.8930 C   0  0  0  0  0  0  0  0  0  0  0  0
   27.3770   27.6610   20.2980 C   0  0  2  0  0  0  0  0  0  0  0  0
   28.8790   27.8520   20.3360 C   0  0  1  0  0  0  0  0  0  0  0  0
   29.3110   28.9250   21.2890 C   0  0  2  0  0  0  0  0  0  0  0  0
   30.2750   30.5940   19.9720 C   0  0  2  0  0  0  0  0  0  0  0  0
   31.6590   30.2940   20.4920 C   0  0  0  0  0  0  0  0  0  0  0  0
   29.2460   30.1900   20.7690 O   0  0  0  0  0  0  0  0  0  0  0  0
   31.8090   28.8860   20.9840 C   0  0  1  0  0  0  0  0  0  0  0  0
   30.6550   28.6170   21.9240 C   0  0  1  0  0  0  0  0  0  0  0  0
   30.1720   30.1430   18.6360 O   0  0  0  0  0  0  0  0  0  0  0  0
   30.9600   29.6420   18.3530 H   0  0  0  0  0  0  0  0  0  0  0  0
   30.1920   32.0980   19.8890 C   0  0  0  0  0  0  0  0  0  0  0  0
   29.6060   32.7990   20.7250 O   0  0  0  0  0  0  0  0  0  0  0  0
   30.8410   32.6610   18.7770 O   0  0  0  0  0  0  0  0  0  0  0  0
   31.4920   32.1200   18.2300 H   0  0  0  0  0  0  0  0  0  0  0  0
   31.8980   27.9640   19.9690 O   0  0  0  0  0  0  0  0  0  0  0  0
   32.3400   28.3680   19.1850 H   0  0  0  0  0  0  0  0  0  0  0  0
   30.8080   29.5890   23.0190 N   0  0  0  0  0  0  0  0  0  0  0  0
   31.2820   29.1380   24.2810 C   0  0  0  0  0  0  0  0  0  0  0  0
   30.5800   30.5940   22.9000 H   0  0  0  0  0  0  0  0  0  0  0  0
   31.4310   30.1330   25.3750 C   0  0  0  0  0  0  0  0  0  0  0  0
   31.5560   27.9270   24.4260 O   0  0  0  0  0  0  0  0  0  0  0  0
   29.4310   26.6150   20.6770 O   0  0  0  0  0  0  0  0  0  0  0  0
   29.7610   26.6590   21.6240 H   0  0  0  0  0  0  0  0  0  0  0  0
   27.0370   26.3920   20.8080 O   0  0  0  0  0  0  0  0  0  0  0  0
   26.2600   26.4380   21.4190 H   0  0  0  0  0  0  0  0  0  0  0  0
   28.2240   29.8800   16.0470 O   0  0  0  0  0  0  0  0  0  0  0  0
   28.1440   31.2400   15.6820 C   0  0  0  0  0  0  0  0  0  0  0  0
   29.4350   31.9280   15.6020 C   0  0  0  0  0  0  0  0  0  0  0  0
   29.6530   33.1980   15.0500 C   0  0  0  0  0  0  0  0  0  0  0  0
   30.6580   31.5170   16.0250 N   0  0  0  0  0  0  0  0  0  0  0  0
   30.9360   33.4830   15.1610 N   0  0  0  0  0  0  0  0  0  0  0  0
   31.5200   32.4750   15.7410 N   0  0  0  0  0  0  0  0  0  0  0  0
   31.5780   34.7520   14.6920 C   0  0  1  0  0  0  0  0  0  0  0  0
   30.8790   35.0600   13.3940 C   0  0  0  0  0  0  0  0  0  0  0  0
   31.3410   35.7490   15.7260 C   0  0  0  0  0  0  0  0  0  0  0  0
   32.0280   35.6840   16.9770 C   0  0  2  0  0  0  0  0  0  0  0  0
   31.2010   35.4340   17.9980 O   0  0  0  0  0  0  0  0  0  0  0  0
   33.3930   35.8270   17.3770 C   0  0  0  0  0  0  0  0  0  0  0  0
   33.7070   35.7260   18.7550 C   0  0  0  0  0  0  0  0  0  0  0  0
   34.4540   36.0390   16.5330 C   0  0  0  0  0  0  0  0  0  0  0  0
   34.9980   35.8370   19.2060 C   0  0  0  0  0  0  0  0  0  0  0  0
   35.7480   36.1460   17.0240 C   0  0  0  0  0  0  0  0  0  0  0  0
   36.0450   36.0510   18.3440 C   0  0  0  0  0  0  0  0  0  0  0  0
   29.8670   25.5550   16.9770 C   0  0  0  0  0  0  0  0  0  0  0  0
   28.3450   25.7220   17.0260 C   0  0  0  0  0  0  0  0  0  0  0  0
   27.6010   24.4030   16.8870 C   0  0  0  0  0  0  0  0  0  0  0  0
   26.6320   24.1770   18.0140 C   0  0  0  0  0  0  0  0  0  0  0  0
   25.2340   24.6050   17.5760 C   0  0  0  0  0  0  0  0  0  0  0  0
   24.2140   24.0830   18.5170 N   0  0  0  0  0  0  0  0  0  0  0  0
  1  4  1  0  0  0  0
  1  5  1  0  0  0  0
  2  1  1  0  0  0  0
  3  2  2  0  0  0  0
  6  5  1  6  0  0  0
  6  7  1  0  0  0  0
  6 29  1  0  0  0  0
  7 27  1  1  0  0  0
  8  7  1  6  0  0  0
  8 13  1  0  0  0  0
  9 14  1  6  0  0  0
  9 10  1  0  0  0  0
  9 11  1  0  0  0  0
 10 12  1  0  0  0  0
 11  8  1  0  0  0  0
 12 20  1  6  0  0  0
 12 13  1  0  0  0  0
 13 22  1  1  0  0  0
 15 14  1  0  0  0  0
 16  9  1  0  0  0  0
 16 17  2  0  0  0  0
 18 16  1  0  0  0  0
 19 18  1  0  0  0  0
 21 20  1  0  0  0  0
 22 23  1  0  0  0  0
 23 26  2  0  0  0  0
 23 25  1  0  0  0  0
 24 22  1  0  0  0  0
 27 28  1  0  0  0  0
 29 30  1  0  0  0  0
 31  2  1  0  0  0  0
 32 31  1  0  0  0  0
 33 32  1  0  0  0  0
 33 35  1  0  0  0  0
 34 36  1  0  0  0  0
 34 33  2  0  0  0  0
 36 37  1  0  0  0  0
 37 35  2  0  0  0  0
 38 39  1  6  0  0  0
 38 36  1  0  0  0  0
 38 40  1  0  0  0  0
 40 41  1  0  0  0  0
 41 43  1  0  0  0  0
 41 42  1  1  0  0  0
 43 44  2  0  0  0  0
 44 46  1  0  0  0  0
 45 47  2  0  0  0  0
 45 43  1  0  0  0  0
 47 48  1  0  0  0  0
 48 46  2  0  0  0  0
 49 50  1  0  0  0  0
 51 50  1  0  0  0  0
 51 52  1  0  0  0  0
 53 52  1  0  0  0  0
 53 54  1  0  0  0  0
M  END
>  <REMARK>
 VINA RESULT:    -5.157      0.000      0.000
 INTER + INTRA:         -16.765
 INTER:                  -9.934
 INTRA:                  -6.830
 UNBOUND:                -6.934
 SMILES CC(=O)N[C@@H]1[C@@H](O)C[C@](O)(C(=O)O)O[C@H]1C(O)[C@H](O)CNC(=O)OCc1cn(C(C)CC(=O)c2ccccc2)nn1
 SMILES IDX 21 1 22 2 23 3 20 5 18 6 16 7 15 8 9 9 8 10 14 11 6 12 5 13
 SMILES IDX 10 14 11 16 12 17 13 18 7 20 4 22 2 23 1 25 3 26 17 27 19 29
 SMILES IDX 24 31 25 32 26 33 27 34 41 35 28 36 40 37 29 38 30 39 31 40
 SMILES IDX 32 41 33 42 34 43 35 44 39 45 36 46 38 47 37 48
 H PARENT 21 4 10 15 13 19 7 21 4 24 17 28 19 30
 Flexibility Score: inf
  4 active torsions:
  status: ('A' for Active; 'I' for Inactive)
    1  A    between atoms: CA   and  CB  
    2  A    between atoms: CB   and  CG  
    3  A    between atoms: CG   and  CD  
    4  A    between atoms: CD   and  CE  

>  <TORSDO>
F 18

>  <BEGIN_>
RES LYS A 131

$$$$
ligand_26_pose_0_2HRL.pdbqt
 OpenBabel07062320523D

  6  5  0  0  0  0  0  0  0  0999 V2000
   33.1930   34.6630    9.2900 C   0  0  0  0  0  0  0  0  0  0  0  0
   32.0600   35.3600   10.0340 C   0  0  0  0  0  0  0  0  0  0  0  0
   30.7090   34.7370    9.7940 C   0  0  0  0  0  0  0  0  0  0  0  0
   30.4670   34.5380    8.3060 C   0  0  0  0  0  0  0  0  0  0  0  0
   29.0200   34.8310    7.9580 C   0  0  0  0  0  0  0  0  0  0  0  0
   28.9160   35.5570    6.6610 N   0  0  0  0  0  0  0  0  0  0  0  0
  1  2  1  0  0  0  0
  3  2  1  0  0  0  0
  4  3  1  0  0  0  0
  5  4  1  0  0  0  0
  6  5  1  0  0  0  0
M  END
>  <EGIN_R>
ES LYS A 135

>  <REMARK>
  4 active torsions:
  status: ('A' for Active; 'I' for Inactive)
    5  A    between atoms: CA   and  CB  
    6  A    between atoms: CB   and  CG  
    7  A    between atoms: CG   and  CD  
    8  A    between atoms: CD   and  CE  

$$$$
