ligand_51_pose_11_2HRL.pdbqt
 OpenBabel07062320523D

 53 56  0  0  1  0  0  0  0  0999 V2000
   25.1370   38.4500    9.8880 C   0  0  0  0  0  0  0  0  0  0  0  0
   24.6670   38.2480    8.4710 C   0  0  2  0  0  0  0  0  0  0  0  0
   25.7530   37.7020    7.5680 C   0  0  1  0  0  0  0  0  0  0  0  0
   26.9780   38.6230    7.5980 C   0  0  2  0  0  0  0  0  0  0  0  0
   27.3030   39.7820    5.5860 C   0  0  2  0  0  0  0  0  0  0  0  0
   27.8790   38.4970    5.0490 C   0  0  0  0  0  0  0  0  0  0  0  0
   26.8200   39.7440    6.8480 O   0  0  0  0  0  0  0  0  0  0  0  0
   28.8360   37.9270    6.0350 C   0  0  1  0  0  0  0  0  0  0  0  0
   28.2550   37.8890    7.4230 C   0  0  1  0  0  0  0  0  0  0  0  0
   26.2140   40.0770    4.7320 O   0  0  0  0  0  0  0  0  0  0  0  0
   26.5440   39.9640    3.8020 H   0  0  0  0  0  0  0  0  0  0  0  0
   28.3190   40.8410    5.3620 C   0  0  0  0  0  0  0  0  0  0  0  0
   28.9280   41.4010    6.3130 O   0  0  0  0  0  0  0  0  0  0  0  0
   28.6220   41.2410    4.0780 O   0  0  0  0  0  0  0  0  0  0  0  0
   29.3790   41.8920    3.8670 H   0  0  0  0  0  0  0  0  0  0  0  0
   29.1970   36.6380    5.5800 O   0  0  0  0  0  0  0  0  0  0  0  0
   28.4030   36.0640    5.5390 H   0  0  0  0  0  0  0  0  0  0  0  0
   29.2260   38.4170    8.3730 N   0  0  0  0  0  0  0  0  0  0  0  0
   29.2260   38.0500    9.7440 C   0  0  0  0  0  0  0  0  0  0  0  0
   29.9660   39.1020    8.0390 H   0  0  0  0  0  0  0  0  0  0  0  0
   30.2440   38.6310   10.6320 C   0  0  0  0  0  0  0  0  0  0  0  0
   28.3440   37.2330   10.1460 O   0  0  0  0  0  0  0  0  0  0  0  0
   26.0690   36.4020    7.8210 O   0  0  0  0  0  0  0  0  0  0  0  0
   25.5720   35.7230    7.3400 H   0  0  0  0  0  0  0  0  0  0  0  0
   24.1710   39.4650    8.0130 O   0  0  0  0  0  0  0  0  0  0  0  0
   23.7720   39.9600    8.7980 H   0  0  0  0  0  0  0  0  0  0  0  0
   25.3990   37.1330   10.4420 N   0  0  0  0  0  0  0  0  0  0  0  0
   24.3730   36.3640   11.0900 C   0  0  0  0  0  0  0  0  0  0  0  0
   26.3380   36.6710   10.4040 H   0  0  0  0  0  0  0  0  0  0  0  0
   23.2280   36.8740   11.1620 O   0  0  0  0  0  0  0  0  0  0  0  0
   24.6050   35.1180   11.6190 O   0  0  0  0  0  0  0  0  0  0  0  0
   24.7880   34.9830   13.0110 C   0  0  0  0  0  0  0  0  0  0  0  0
   26.2550   34.7970   13.2500 C   0  0  0  0  0  0  0  0  0  0  0  0
   26.7860   34.1850   14.3690 C   0  0  0  0  0  0  0  0  0  0  0  0
   27.3010   35.1500   12.5080 N   0  0  0  0  0  0  0  0  0  0  0  0
   28.1060   34.1960   14.2560 N   0  0  0  0  0  0  0  0  0  0  0  0
   28.4070   34.7860   13.1180 N   0  0  0  0  0  0  0  0  0  0  0  0
   29.0290   33.6370   15.2480 C   0  0  2  0  0  0  0  0  0  0  0  0
   30.1970   33.0550   14.4630 C   0  0  0  0  0  0  0  0  0  0  0  0
   28.3610   32.5700   16.0580 C   0  0  0  0  0  0  0  0  0  0  0  0
   29.4960   34.7360   16.1700 C   0  0  0  0  0  0  0  0  0  0  0  0
   31.2100   32.4790   15.4340 C   0  0  1  0  0  0  0  0  0  0  0  0
   29.3910   31.9630   16.9830 C   0  0  1  0  0  0  0  0  0  0  0  0
   30.5180   34.1650   17.1290 C   0  0  2  0  0  0  0  0  0  0  0  0
   31.6760   33.5810   16.3400 C   0  0  0  0  0  0  0  0  0  0  0  0
   30.5290   31.3750   16.2030 C   0  0  0  0  0  0  0  0  0  0  0  0
   29.8610   33.0570   17.9140 C   0  0  0  0  0  0  0  0  0  0  0  0
   29.8670   25.5550   16.9770 C   0  0  0  0  0  0  0  0  0  0  0  0
   28.3450   25.7220   17.0260 C   0  0  0  0  0  0  0  0  0  0  0  0
   27.6010   24.4020   16.8900 C   0  0  0  0  0  0  0  0  0  0  0  0
   26.1450   24.5340   17.2400 C   0  0  0  0  0  0  0  0  0  0  0  0
   25.5770   23.1600   17.5800 C   0  0  0  0  0  0  0  0  0  0  0  0
   24.1690   23.0550   17.1310 N   0  0  0  0  0  0  0  0  0  0  0  0
  1 27  1  0  0  0  0
  2  1  1  1  0  0  0
  3 23  1  1  0  0  0
  3  2  1  0  0  0  0
  4  3  1  6  0  0  0
  5 10  1  6  0  0  0
  5  7  1  0  0  0  0
  6  5  1  0  0  0  0
  6  8  1  0  0  0  0
  7  4  1  0  0  0  0
  8 16  1  6  0  0  0
  8  9  1  0  0  0  0
  9  4  1  0  0  0  0
  9 18  1  1  0  0  0
 11 10  1  0  0  0  0
 12  5  1  0  0  0  0
 12 13  2  0  0  0  0
 14 12  1  0  0  0  0
 15 14  1  0  0  0  0
 17 16  1  0  0  0  0
 18 19  1  0  0  0  0
 19 22  2  0  0  0  0
 19 21  1  0  0  0  0
 20 18  1  0  0  0  0
 24 23  1  0  0  0  0
 25  2  1  0  0  0  0
 25 26  1  0  0  0  0
 27 28  1  0  0  0  0
 28 30  2  0  0  0  0
 28 31  1  0  0  0  0
 29 27  1  0  0  0  0
 31 32  1  0  0  0  0
 32 33  1  0  0  0  0
 33 34  2  0  0  0  0
 35 37  2  0  0  0  0
 35 33  1  0  0  0  0
 36 34  1  0  0  0  0
 37 36  1  0  0  0  0
 38 36  1  6  0  0  0
 38 40  1  0  0  0  0
 38 41  1  0  0  0  0
 39 38  1  0  0  0  0
 42 39  1  6  0  0  0
 42 46  1  0  0  0  0
 42 45  1  0  0  0  0
 43 40  1  6  0  0  0
 43 47  1  0  0  0  0
 44 41  1  6  0  0  0
 44 47  1  0  0  0  0
 45 44  1  0  0  0  0
 46 43  1  0  0  0  0
 48 49  1  0  0  0  0
 50 49  1  0  0  0  0
 50 51  1  0  0  0  0
 51 52  1  0  0  0  0
 53 52  1  0  0  0  0
M  END
>  <REMARK>
 VINA RESULT:    -4.760      7.307     12.767
 INTER + INTRA:         -14.792
 INTER:                  -9.241
 INTRA:                  -5.551
 UNBOUND:                -6.554
 SMILES CC(=O)N[C@@H]1[C@@H](O)C[C@](O)(C(=O)O)O[C@H]1C(O)[C@H](O)CNC(=O)OCc1cn(C23CC4CC(CC(C4)C2)C3)nn1
 SMILES IDX 20 1 18 2 16 3 15 4 9 5 8 6 14 7 6 8 5 9 10 10 11 12 12 13
 SMILES IDX 13 14 7 16 4 18 2 19 1 21 3 22 17 23 19 25 21 27 22 28 23 30
 SMILES IDX 24 31 25 32 26 33 27 34 40 35 28 36 39 37 29 38 38 39 37 40
 SMILES IDX 30 41 33 42 35 43 31 44 32 45 34 46 36 47
 H PARENT 10 11 13 15 7 17 4 20 17 24 19 26 21 29
 Flexibility Score: inf
  4 active torsions:
  status: ('A' for Active; 'I' for Inactive)
    1  A    between atoms: CA   and  CB  
    2  A    between atoms: CB   and  CG  
    3  A    between atoms: CG   and  CD  
    4  A    between atoms: CD   and  CE  

>  <TORSDO>
F 15

>  <BEGIN_>
RES LYS A 131

$$$$
ligand_51_pose_11_2HRL.pdbqt
 OpenBabel07062320523D

  6  5  0  0  0  0  0  0  0  0999 V2000
   33.1930   34.6630    9.2900 C   0  0  0  0  0  0  0  0  0  0  0  0
   32.0600   35.3600   10.0340 C   0  0  0  0  0  0  0  0  0  0  0  0
   30.7290   34.6690    9.8890 C   0  0  0  0  0  0  0  0  0  0  0  0
   30.3140   34.6040    8.4270 C   0  0  0  0  0  0  0  0  0  0  0  0
   28.8160   34.4000    8.3070 C   0  0  0  0  0  0  0  0  0  0  0  0
   28.2660   33.7370    9.5220 N   0  0  0  0  0  0  0  0  0  0  0  0
  1  2  1  0  0  0  0
  3  2  1  0  0  0  0
  4  3  1  0  0  0  0
  5  4  1  0  0  0  0
  5  6  1  0  0  0  0
M  END
>  <EGIN_R>
ES LYS A 135

>  <REMARK>
  4 active torsions:
  status: ('A' for Active; 'I' for Inactive)
    5  A    between atoms: CA   and  CB  
    6  A    between atoms: CB   and  CG  
    7  A    between atoms: CG   and  CD  
    8  A    between atoms: CD   and  CE  

$$$$
