ligand_88_pose_5_2HRL.pdbqt
 OpenBabel07062320523D

 54 55  0  0  1  0  0  0  0  0999 V2000
   28.2440   31.9640   17.0190 N   0  0  0  0  0  0  0  0  0  0  0  0
   27.9380   30.7520   17.7010 C   0  0  0  0  0  0  0  0  0  0  0  0
   27.6720   29.7290   17.0300 O   0  0  0  0  0  0  0  0  0  0  0  0
   28.4600   32.7950   17.5970 H   0  0  0  0  0  0  0  0  0  0  0  0
   28.2570   32.0510   15.5840 C   0  0  0  0  0  0  0  0  0  0  0  0
   28.7000   33.4110   15.1280 C   0  0  2  0  0  0  0  0  0  0  0  0
   30.0390   33.3700   14.4240 C   0  0  1  0  0  0  0  0  0  0  0  0
   30.8240   34.6540   14.7470 C   0  0  2  0  0  0  0  0  0  0  0  0
   32.0700   35.8970   13.1840 C   0  0  2  0  0  0  0  0  0  0  0  0
   32.9840   36.2490   14.3670 C   0  0  0  0  0  0  0  0  0  0  0  0
   30.9020   35.3660   13.6170 O   0  0  0  0  0  0  0  0  0  0  0  0
   33.3260   34.8920   14.9630 C   0  0  1  0  0  0  0  0  0  0  0  0
   32.0430   34.3280   15.5010 C   0  0  1  0  0  0  0  0  0  0  0  0
   32.8190   35.0740   12.3670 O   0  0  0  0  0  0  0  0  0  0  0  0
   32.6770   35.2310   11.4020 H   0  0  0  0  0  0  0  0  0  0  0  0
   31.7550   37.1390   12.4350 C   0  0  0  0  0  0  0  0  0  0  0  0
   32.3240   37.3390   11.3330 O   0  0  0  0  0  0  0  0  0  0  0  0
   30.8540   38.0870   12.9090 O   0  0  0  0  0  0  0  0  0  0  0  0
   30.0510   37.7080   13.4320 H   0  0  0  0  0  0  0  0  0  0  0  0
   33.9090   34.0640   14.0060 O   0  0  0  0  0  0  0  0  0  0  0  0
   33.2280   33.4240   13.7140 H   0  0  0  0  0  0  0  0  0  0  0  0
   31.9690   34.7150   16.9090 N   0  0  0  0  0  0  0  0  0  0  0  0
   31.4700   33.8620   17.9240 C   0  0  0  0  0  0  0  0  0  0  0  0
   32.2960   35.6700   17.2280 H   0  0  0  0  0  0  0  0  0  0  0  0
   31.4130   34.2990   19.3520 C   0  0  0  0  0  0  0  0  0  0  0  0
   31.0620   32.7110   17.6210 O   0  0  0  0  0  0  0  0  0  0  0  0
   30.7680   32.2340   14.6720 O   0  0  0  0  0  0  0  0  0  0  0  0
   31.0840   31.7990   13.8530 H   0  0  0  0  0  0  0  0  0  0  0  0
   28.6410   34.3080   16.1720 O   0  0  0  0  0  0  0  0  0  0  0  0
   28.8340   35.2310   15.9240 H   0  0  0  0  0  0  0  0  0  0  0  0
   27.9330   30.7000   19.0730 O   0  0  0  0  0  0  0  0  0  0  0  0
   28.8630   31.4270   19.8550 C   0  0  0  0  0  0  0  0  0  0  0  0
   29.9810   30.5210   20.2290 C   0  0  0  0  0  0  0  0  0  0  0  0
   29.9210   29.1420   20.3820 C   0  0  0  0  0  0  0  0  0  0  0  0
   31.2660   30.8220   20.4940 N   0  0  0  0  0  0  0  0  0  0  0  0
   31.1330   28.6800   20.7240 N   0  0  0  0  0  0  0  0  0  0  0  0
   31.9540   29.7410   20.7880 N   0  0  0  0  0  0  0  0  0  0  0  0
   31.5210   27.3200   20.9780 C   0  0  0  0  0  0  0  0  0  0  0  0
   31.5150   26.9750   22.4230 C   0  0  0  0  0  0  0  0  0  0  0  0
   30.3720   26.4120   22.9540 C   0  0  0  0  0  0  0  0  0  0  0  0
   32.5890   27.1890   23.2540 C   0  0  0  0  0  0  0  0  0  0  0  0
   30.2570   26.0550   24.2800 C   0  0  0  0  0  0  0  0  0  0  0  0
   32.4990   26.8360   24.6050 C   0  0  0  0  0  0  0  0  0  0  0  0
   28.6710   25.2800   24.9830 Br  0  0  0  0  0  0  0  0  0  0  0  0
   31.3490   26.2770   25.1080 C   0  0  0  0  0  0  0  0  0  0  0  0
   34.0440   27.1690   25.6940 Br  0  0  0  0  0  0  0  0  0  0  0  0
   33.7490   27.7510   22.7540 O   0  0  0  0  0  0  0  0  0  0  0  0
   34.1650   28.5360   23.2360 H   0  0  0  0  0  0  0  0  0  0  0  0
   29.8670   25.5550   16.9770 C   0  0  0  0  0  0  0  0  0  0  0  0
   28.3450   25.7220   17.0260 C   0  0  0  0  0  0  0  0  0  0  0  0
   27.6010   24.4060   16.8580 C   0  0  0  0  0  0  0  0  0  0  0  0
   26.1600   24.5130   17.2760 C   0  0  0  0  0  0  0  0  0  0  0  0
   25.8250   23.3820   18.2420 C   0  0  0  0  0  0  0  0  0  0  0  0
   25.4990   23.9230   19.5820 N   0  0  0  0  0  0  0  0  0  0  0  0
  1  4  1  0  0  0  0
  1  2  1  0  0  0  0
  2 31  1  0  0  0  0
  3  2  2  0  0  0  0
  5  1  1  0  0  0  0
  6  5  1  1  0  0  0
  6 29  1  0  0  0  0
  7 27  1  1  0  0  0
  7  6  1  0  0  0  0
  8  7  1  6  0  0  0
  8 13  1  0  0  0  0
  9 14  1  6  0  0  0
  9 11  1  0  0  0  0
  9 10  1  0  0  0  0
 10 12  1  0  0  0  0
 11  8  1  0  0  0  0
 12 20  1  6  0  0  0
 12 13  1  0  0  0  0
 13 22  1  1  0  0  0
 15 14  1  0  0  0  0
 16 18  1  0  0  0  0
 16  9  1  0  0  0  0
 17 16  2  0  0  0  0
 18 19  1  0  0  0  0
 21 20  1  0  0  0  0
 22 24  1  0  0  0  0
 22 23  1  0  0  0  0
 23 25  1  0  0  0  0
 26 23  2  0  0  0  0
 28 27  1  0  0  0  0
 30 29  1  0  0  0  0
 31 32  1  0  0  0  0
 32 33  1  0  0  0  0
 33 34  2  0  0  0  0
 33 35  1  0  0  0  0
 34 36  1  0  0  0  0
 35 37  2  0  0  0  0
 36 37  1  0  0  0  0
 36 38  1  0  0  0  0
 38 39  1  0  0  0  0
 39 40  2  0  0  0  0
 39 41  1  0  0  0  0
 40 42  1  0  0  0  0
 41 43  2  0  0  0  0
 42 44  1  0  0  0  0
 42 45  2  0  0  0  0
 43 45  1  0  0  0  0
 43 46  1  0  0  0  0
 47 48  1  0  0  0  0
 47 41  1  0  0  0  0
 49 50  1  0  0  0  0
 51 50  1  0  0  0  0
 51 52  1  0  0  0  0
 52 53  1  0  0  0  0
 53 54  1  0  0  0  0
M  END
>  <REMARK>
 VINA RESULT:    -5.239      3.762      8.760
 INTER + INTRA:         -15.322
 INTER:                  -9.592
 INTRA:                  -5.730
 UNBOUND:                -5.794
 SMILES CC(=O)N[C@@H]1[C@@H](O)C[C@](O)(C(=O)O)O[C@H]1C(O)[C@H](O)CNC(=O)OCc1cn(Cc2cc(Br)cc(Br)c2O)nn1
 SMILES IDX 21 1 22 2 23 3 20 5 18 6 16 7 15 8 9 9 8 10 14 11 6 12 5 13
 SMILES IDX 10 14 11 16 12 17 13 18 7 20 4 22 2 23 1 25 3 26 17 27 19 29
 SMILES IDX 24 31 25 32 26 33 27 34 40 35 28 36 39 37 29 38 30 39 31 40
 SMILES IDX 37 41 32 42 35 43 33 44 34 45 36 46 38 47
 H PARENT 21 4 10 15 13 19 7 21 4 24 17 28 19 30 38 48
 Flexibility Score: inf
  4 active torsions:
  status: ('A' for Active; 'I' for Inactive)
    1  A    between atoms: CA   and  CB  
    2  A    between atoms: CB   and  CG  
    3  A    between atoms: CG   and  CD  
    4  A    between atoms: CD   and  CE  

>  <TORSDO>
F 17

>  <BEGIN_>
RES LYS A 131

$$$$
ligand_88_pose_5_2HRL.pdbqt
 OpenBabel07062320523D

  6  5  0  0  0  0  0  0  0  0999 V2000
   33.1930   34.6630    9.2900 C   0  0  0  0  0  0  0  0  0  0  0  0
   32.0600   35.3600   10.0340 C   0  0  0  0  0  0  0  0  0  0  0  0
   30.6970   34.8010    9.7170 C   0  0  0  0  0  0  0  0  0  0  0  0
   30.5860   34.4640    8.2380 C   0  0  0  0  0  0  0  0  0  0  0  0
   29.3400   35.0880    7.6410 C   0  0  0  0  0  0  0  0  0  0  0  0
   28.8240   36.1870    8.5040 N   0  0  0  0  0  0  0  0  0  0  0  0
  1  2  1  0  0  0  0
  3  2  1  0  0  0  0
  4  3  1  0  0  0  0
  5  4  1  0  0  0  0
  5  6  1  0  0  0  0
M  END
>  <EGIN_R>
ES LYS A 135

>  <REMARK>
  4 active torsions:
  status: ('A' for Active; 'I' for Inactive)
    5  A    between atoms: CA   and  CB  
    6  A    between atoms: CB   and  CG  
    7  A    between atoms: CG   and  CD  
    8  A    between atoms: CD   and  CE  

$$$$
