ligand_58_pose_15_2HRL.pdbqt
 OpenBabel07062320523D

 56 58  0  0  1  0  0  0  0  0999 V2000
   24.9230   39.7250    6.3910 N   0  0  0  0  0  0  0  0  0  0  0  0
   25.5980   40.7740    5.7300 C   0  0  0  0  0  0  0  0  0  0  0  0
   25.4930   41.9520    6.1460 O   0  0  0  0  0  0  0  0  0  0  0  0
   25.0280   38.7590    6.0190 H   0  0  0  0  0  0  0  0  0  0  0  0
   24.1110   39.9640    7.5420 C   0  0  0  0  0  0  0  0  0  0  0  0
   24.2840   38.7980    8.5170 C   0  0  2  0  0  0  0  0  0  0  0  0
   23.0540   37.9250    8.3290 C   0  0  2  0  0  0  0  0  0  0  0  0
   23.1680   36.5420    8.9080 C   0  0  2  0  0  0  0  0  0  0  0  0
   20.8940   35.9430    9.0230 C   0  0  2  0  0  0  0  0  0  0  0  0
   20.9120   36.0480   10.5320 C   0  0  0  0  0  0  0  0  0  0  0  0
   22.1000   35.8140    8.4220 O   0  0  0  0  0  0  0  0  0  0  0  0
   21.9930   36.9520   11.0420 C   0  0  1  0  0  0  0  0  0  0  0  0
   23.2740   36.5380   10.3810 C   0  0  1  0  0  0  0  0  0  0  0  0
   20.2990   37.1230    8.5740 O   0  0  0  0  0  0  0  0  0  0  0  0
   20.9970   37.6150    8.0570 H   0  0  0  0  0  0  0  0  0  0  0  0
   19.9590   34.8230    8.6410 C   0  0  0  0  0  0  0  0  0  0  0  0
   19.1870   34.3170    9.4600 O   0  0  0  0  0  0  0  0  0  0  0  0
   19.9830   34.3720    7.3420 O   0  0  0  0  0  0  0  0  0  0  0  0
   20.8330   33.9170    6.9880 H   0  0  0  0  0  0  0  0  0  0  0  0
   21.6240   38.2460   10.8100 O   0  0  0  0  0  0  0  0  0  0  0  0
   20.8470   38.3000   10.1880 H   0  0  0  0  0  0  0  0  0  0  0  0
   23.5960   35.1880   10.8860 N   0  0  0  0  0  0  0  0  0  0  0  0
   24.5000   34.9790   11.9410 C   0  0  0  0  0  0  0  0  0  0  0  0
   23.1310   34.3740   10.4310 H   0  0  0  0  0  0  0  0  0  0  0  0
   24.7960   33.6020   12.4190 C   0  0  0  0  0  0  0  0  0  0  0  0
   25.0710   35.9560   12.4980 O   0  0  0  0  0  0  0  0  0  0  0  0
   22.9390   37.7820    6.8970 O   0  0  0  0  0  0  0  0  0  0  0  0
   22.9920   36.8490    6.6390 H   0  0  0  0  0  0  0  0  0  0  0  0
   24.3340   39.3780    9.7750 O   0  0  0  0  0  0  0  0  0  0  0  0
   24.4080   40.3520    9.7500 H   0  0  0  0  0  0  0  0  0  0  0  0
   26.3920   40.5460    4.6130 O   0  0  0  0  0  0  0  0  0  0  0  0
   27.7860   40.5520    4.7590 C   0  0  0  0  0  0  0  0  0  0  0  0
   28.2200   39.2390    5.3030 C   0  0  0  0  0  0  0  0  0  0  0  0
   28.7780   39.0360    6.5690 C   0  0  0  0  0  0  0  0  0  0  0  0
   28.1890   38.0130    4.7540 N   0  0  0  0  0  0  0  0  0  0  0  0
   29.0500   37.7380    6.7190 N   0  0  0  0  0  0  0  0  0  0  0  0
   28.6890   37.1360    5.6170 N   0  0  0  0  0  0  0  0  0  0  0  0
   29.6380   37.0740    7.8730 C   0  0  0  0  0  0  0  0  0  0  0  0
   30.1430   38.0400    8.8500 C   0  0  0  0  0  0  0  0  0  0  0  0
   31.4140   38.6170    8.7370 C   0  0  0  0  0  0  0  0  0  0  0  0
   29.3510   38.4240    9.9140 C   0  0  0  0  0  0  0  0  0  0  0  0
   31.8560   39.5370    9.6620 C   0  0  0  0  0  0  0  0  0  0  0  0
   29.8180   39.3480   10.8270 C   0  0  0  0  0  0  0  0  0  0  0  0
   31.0680   39.9230   10.7280 C   0  0  0  0  0  0  0  0  0  0  0  0
   28.8160   35.9840    8.4030 C   0  0  0  0  0  0  0  0  0  0  0  0
   29.4200   34.8430    8.9620 C   0  0  0  0  0  0  0  0  0  0  0  0
   27.4440   36.0590    8.3690 C   0  0  0  0  0  0  0  0  0  0  0  0
   28.6540   33.8240    9.4660 C   0  0  0  0  0  0  0  0  0  0  0  0
   26.6740   35.0120    8.8850 C   0  0  0  0  0  0  0  0  0  0  0  0
   27.2800   33.9040    9.4300 C   0  0  0  0  0  0  0  0  0  0  0  0
   29.8670   25.5550   16.9770 C   0  0  0  0  0  0  0  0  0  0  0  0
   28.3450   25.7220   17.0260 C   0  0  0  0  0  0  0  0  0  0  0  0
   27.6010   24.4020   16.8900 C   0  0  0  0  0  0  0  0  0  0  0  0
   26.1630   24.5160   17.3130 C   0  0  0  0  0  0  0  0  0  0  0  0
   25.9870   23.8880   18.6910 C   0  0  0  0  0  0  0  0  0  0  0  0
   25.3810   24.8600   19.6320 N   0  0  0  0  0  0  0  0  0  0  0  0
  1  5  1  0  0  0  0
  2  3  2  0  0  0  0
  2  1  1  0  0  0  0
  4  1  1  0  0  0  0
  6  5  1  6  0  0  0
  6 29  1  0  0  0  0
  7 27  1  6  0  0  0
  7  6  1  0  0  0  0
  8  7  1  1  0  0  0
  8 13  1  0  0  0  0
  9 14  1  6  0  0  0
  9 10  1  0  0  0  0
 10 12  1  0  0  0  0
 11  8  1  0  0  0  0
 11  9  1  0  0  0  0
 12 20  1  6  0  0  0
 13 22  1  1  0  0  0
 13 12  1  0  0  0  0
 15 14  1  0  0  0  0
 16  9  1  0  0  0  0
 16 17  2  0  0  0  0
 18 16  1  0  0  0  0
 19 18  1  0  0  0  0
 21 20  1  0  0  0  0
 22 23  1  0  0  0  0
 23 25  1  0  0  0  0
 23 26  2  0  0  0  0
 24 22  1  0  0  0  0
 28 27  1  0  0  0  0
 30 29  1  0  0  0  0
 31 32  1  0  0  0  0
 31  2  1  0  0  0  0
 32 33  1  0  0  0  0
 33 34  2  0  0  0  0
 34 36  1  0  0  0  0
 35 33  1  0  0  0  0
 35 37  2  0  0  0  0
 36 38  1  0  0  0  0
 37 36  1  0  0  0  0
 38 45  1  0  0  0  0
 38 39  1  0  0  0  0
 39 41  1  0  0  0  0
 40 39  2  0  0  0  0
 40 42  1  0  0  0  0
 41 43  2  0  0  0  0
 42 44  2  0  0  0  0
 44 43  1  0  0  0  0
 45 46  1  0  0  0  0
 46 48  2  0  0  0  0
 47 45  2  0  0  0  0
 47 49  1  0  0  0  0
 49 50  2  0  0  0  0
 50 48  1  0  0  0  0
 51 52  1  0  0  0  0
 53 52  1  0  0  0  0
 53 54  1  0  0  0  0
 54 55  1  0  0  0  0
 55 56  1  0  0  0  0
M  END
>  <REMARK>
 VINA RESULT:    -5.560      4.910      8.800
 INTER + INTRA:         -15.764
 INTER:                 -11.238
 INTRA:                  -4.526
 UNBOUND:                -5.490
 SMILES CC(=O)N[C@@H]1[C@@H](O)C[C@](O)(C(=O)O)O[C@H]1C(O)[C@H](O)CNC(=O)OCc1cn(C(c2ccccc2)c2ccccc2)nn1
 SMILES IDX 21 1 22 2 23 3 20 5 18 6 16 7 15 8 9 9 8 10 14 11 6 12 5 13
 SMILES IDX 10 14 11 16 12 17 13 18 7 20 4 22 2 23 1 25 3 26 17 27 19 29
 SMILES IDX 24 31 25 32 26 33 27 34 43 35 28 36 42 37 29 38 30 39 31 40
 SMILES IDX 35 41 32 42 34 43 33 44 36 45 37 46 41 47 38 48 40 49 39 50
 H PARENT 21 4 10 15 13 19 7 21 4 24 17 28 19 30
 Flexibility Score: inf
  4 active torsions:
  status: ('A' for Active; 'I' for Inactive)
    1  A    between atoms: CA   and  CB  
    2  A    between atoms: CB   and  CG  
    3  A    between atoms: CG   and  CD  
    4  A    between atoms: CD   and  CE  

>  <TORSDO>
F 17

>  <BEGIN_>
RES LYS A 131

$$$$
ligand_58_pose_15_2HRL.pdbqt
 OpenBabel07062320523D

  6  5  0  0  0  0  0  0  0  0999 V2000
   33.1930   34.6630    9.2900 C   0  0  0  0  0  0  0  0  0  0  0  0
   32.0600   35.3600   10.0340 C   0  0  0  0  0  0  0  0  0  0  0  0
   32.2150   35.3300   11.5330 C   0  0  0  0  0  0  0  0  0  0  0  0
   32.2910   36.7410   12.0930 C   0  0  0  0  0  0  0  0  0  0  0  0
   31.2920   36.9220   13.2200 C   0  0  0  0  0  0  0  0  0  0  0  0
   31.9790   37.2470   14.5000 N   0  0  0  0  0  0  0  0  0  0  0  0
  1  2  1  0  0  0  0
  2  3  1  0  0  0  0
  3  4  1  0  0  0  0
  4  5  1  0  0  0  0
  5  6  1  0  0  0  0
M  END
>  <EGIN_R>
ES LYS A 135

>  <REMARK>
  4 active torsions:
  status: ('A' for Active; 'I' for Inactive)
    5  A    between atoms: CA   and  CB  
    6  A    between atoms: CB   and  CG  
    7  A    between atoms: CG   and  CD  
    8  A    between atoms: CD   and  CE  

$$$$
