ligand_2_pose_9_2HRL.pdbqt
 OpenBabel07062320523D

 50 51  0  0  1  0  0  0  0  0999 V2000
   26.9230   39.0100    7.5110 C   0  0  0  0  0  0  0  0  0  0  0  0
   26.0080   37.8260    7.5050 C   0  0  2  0  0  0  0  0  0  0  0  0
   26.1310   37.1300    8.8690 C   0  0  2  0  0  0  0  0  0  0  0  0
   25.0260   36.0920    9.0550 C   0  0  2  0  0  0  0  0  0  0  0  0
   22.8770   37.0360    9.0740 C   0  0  2  0  0  0  0  0  0  0  0  0
   22.2950   36.0740   10.0880 C   0  0  0  0  0  0  0  0  0  0  0  0
   23.9300   36.5680    8.3660 O   0  0  0  0  0  0  0  0  0  0  0  0
   23.3590   35.1360   10.5320 C   0  0  1  0  0  0  0  0  0  0  0  0
   24.6930   35.8540   10.4700 C   0  0  1  0  0  0  0  0  0  0  0  0
   23.1180   38.2240    9.7590 O   0  0  0  0  0  0  0  0  0  0  0  0
   23.7360   37.9960   10.4980 H   0  0  0  0  0  0  0  0  0  0  0  0
   21.7810   37.3100    8.1080 C   0  0  0  0  0  0  0  0  0  0  0  0
   20.8640   38.0840    8.4640 O   0  0  0  0  0  0  0  0  0  0  0  0
   21.7510   36.7460    6.8630 O   0  0  0  0  0  0  0  0  0  0  0  0
   20.8650   36.4030    6.4840 H   0  0  0  0  0  0  0  0  0  0  0  0
   23.1220   34.5800   11.7830 O   0  0  0  0  0  0  0  0  0  0  0  0
   22.9530   35.2770   12.4480 H   0  0  0  0  0  0  0  0  0  0  0  0
   25.6170   35.1100   11.2560 N   0  0  0  0  0  0  0  0  0  0  0  0
   26.3680   35.6720   12.3160 C   0  0  0  0  0  0  0  0  0  0  0  0
   25.7160   34.0920   11.0000 H   0  0  0  0  0  0  0  0  0  0  0  0
   27.3180   34.8670   13.1100 C   0  0  0  0  0  0  0  0  0  0  0  0
   26.1550   36.8990   12.5170 O   0  0  0  0  0  0  0  0  0  0  0  0
   26.0640   38.0820    9.8910 O   0  0  0  0  0  0  0  0  0  0  0  0
   25.4770   38.8490    9.6390 H   0  0  0  0  0  0  0  0  0  0  0  0
   26.2590   36.9490    6.4750 O   0  0  0  0  0  0  0  0  0  0  0  0
   25.4850   36.5680    6.0260 H   0  0  0  0  0  0  0  0  0  0  0  0
   28.2170   38.8090    8.0720 N   0  0  0  0  0  0  0  0  0  0  0  0
   29.3100   38.2040    7.4030 C   0  0  0  0  0  0  0  0  0  0  0  0
   28.3980   39.1280    9.0640 H   0  0  0  0  0  0  0  0  0  0  0  0
   29.2170   37.7980    6.2330 O   0  0  0  0  0  0  0  0  0  0  0  0
   30.5430   38.0490    8.0640 O   0  0  0  0  0  0  0  0  0  0  0  0
   30.9610   38.9880    9.0520 C   0  0  0  0  0  0  0  0  0  0  0  0
   30.7000   38.3650   10.3720 C   0  0  0  0  0  0  0  0  0  0  0  0
   31.6310   38.0960   11.3310 C   0  0  0  0  0  0  0  0  0  0  0  0
   29.5270   37.9660   10.8420 N   0  0  0  0  0  0  0  0  0  0  0  0
   30.9790   37.5320   12.3690 N   0  0  0  0  0  0  0  0  0  0  0  0
   29.6980   37.4600   12.0560 N   0  0  0  0  0  0  0  0  0  0  0  0
   31.6340   37.1120   13.5690 C   0  0  0  0  0  0  0  0  0  0  0  0
   31.4920   37.8580   14.7140 C   0  0  0  0  0  0  0  0  0  0  0  0
   32.3850   35.9650   13.5210 C   0  0  0  0  0  0  0  0  0  0  0  0
   32.1420   37.4160   15.8500 C   0  0  0  0  0  0  0  0  0  0  0  0
   33.0210   35.5500   14.6740 C   0  0  0  0  0  0  0  0  0  0  0  0
   32.9110   36.2610   15.8430 C   0  0  0  0  0  0  0  0  0  0  0  0
   33.7390   35.6850   17.2640 Cl  0  0  0  0  0  0  0  0  0  0  0  0
   29.8670   25.5550   16.9770 C   0  0  0  0  0  0  0  0  0  0  0  0
   28.3450   25.7220   17.0260 C   0  0  0  0  0  0  0  0  0  0  0  0
   27.6020   24.3990   16.9230 C   0  0  0  0  0  0  0  0  0  0  0  0
   26.5580   24.2510   17.9950 C   0  0  0  0  0  0  0  0  0  0  0  0
   26.3490   25.5920   18.6910 C   0  0  0  0  0  0  0  0  0  0  0  0
   24.9890   26.1120   18.4150 N   0  0  0  0  0  0  0  0  0  0  0  0
  1 27  1  0  0  0  0
  2  1  1  1  0  0  0
  2  3  1  0  0  0  0
  3 23  1  1  0  0  0
  4  3  1  1  0  0  0
  4  9  1  0  0  0  0
  5 12  1  6  0  0  0
  5 10  1  0  0  0  0
  5  6  1  0  0  0  0
  6  8  1  0  0  0  0
  7  4  1  0  0  0  0
  7  5  1  0  0  0  0
  8 16  1  1  0  0  0
  9  8  1  0  0  0  0
  9 18  1  6  0  0  0
 10 11  1  0  0  0  0
 12 13  2  0  0  0  0
 14 12  1  0  0  0  0
 15 14  1  0  0  0  0
 16 17  1  0  0  0  0
 18 19  1  0  0  0  0
 19 22  2  0  0  0  0
 19 21  1  0  0  0  0
 20 18  1  0  0  0  0
 24 23  1  0  0  0  0
 25  2  1  0  0  0  0
 26 25  1  0  0  0  0
 27 29  1  0  0  0  0
 28 31  1  0  0  0  0
 28 27  1  0  0  0  0
 30 28  2  0  0  0  0
 31 32  1  0  0  0  0
 32 33  1  0  0  0  0
 33 35  1  0  0  0  0
 33 34  2  0  0  0  0
 34 36  1  0  0  0  0
 35 37  2  0  0  0  0
 36 38  1  0  0  0  0
 37 36  1  0  0  0  0
 38 39  1  0  0  0  0
 39 41  2  0  0  0  0
 40 38  2  0  0  0  0
 40 42  1  0  0  0  0
 42 43  2  0  0  0  0
 43 41  1  0  0  0  0
 43 44  1  0  0  0  0
 45 46  1  0  0  0  0
 47 46  1  0  0  0  0
 47 48  1  0  0  0  0
 48 49  1  0  0  0  0
 50 49  1  0  0  0  0
M  END
>  <REMARK>
 VINA RESULT:    -4.216      8.480     13.572
 INTER + INTRA:         -14.305
 INTER:                  -8.259
 INTRA:                  -6.046
 UNBOUND:                -7.007
 SMILES CC(=O)N[C@@H]1[C@@H](O)C[C@](O)(C(=O)O)O[C@H]1C(O)[C@H](O)CNC(=O)OCc1cn(-c2ccc(Cl)cc2)nn1
 SMILES IDX 20 1 18 2 16 3 15 4 9 5 8 6 14 7 6 8 5 9 10 10 11 12 12 13
 SMILES IDX 13 14 7 16 4 18 2 19 1 21 3 22 17 23 19 25 21 27 22 28 23 30
 SMILES IDX 24 31 25 32 26 33 27 34 37 35 28 36 36 37 29 38 30 39 35 40
 SMILES IDX 31 41 34 42 32 43 33 44
 H PARENT 10 11 13 15 7 17 4 20 17 24 19 26 21 29
 Flexibility Score: inf
  4 active torsions:
  status: ('A' for Active; 'I' for Inactive)
    1  A    between atoms: CA   and  CB  
    2  A    between atoms: CB   and  CG  
    3  A    between atoms: CG   and  CD  
    4  A    between atoms: CD   and  CE  

>  <TORSDO>
F 15

>  <BEGIN_>
RES LYS A 131

$$$$
ligand_2_pose_9_2HRL.pdbqt
 OpenBabel07062320523D

  6  5  0  0  0  0  0  0  0  0999 V2000
   33.1930   34.6630    9.2900 C   0  0  0  0  0  0  0  0  0  0  0  0
   32.0600   35.3600   10.0340 C   0  0  0  0  0  0  0  0  0  0  0  0
   30.7300   34.6660    9.8940 C   0  0  0  0  0  0  0  0  0  0  0  0
   30.3250   34.5730    8.4310 C   0  0  0  0  0  0  0  0  0  0  0  0
   28.8140   34.5540    8.2960 C   0  0  0  0  0  0  0  0  0  0  0  0
   28.1860   33.8020    9.4180 N   0  0  0  0  0  0  0  0  0  0  0  0
  1  2  1  0  0  0  0
  3  2  1  0  0  0  0
  4  3  1  0  0  0  0
  5  4  1  0  0  0  0
  5  6  1  0  0  0  0
M  END
>  <EGIN_R>
ES LYS A 135

>  <REMARK>
  4 active torsions:
  status: ('A' for Active; 'I' for Inactive)
    5  A    between atoms: CA   and  CB  
    6  A    between atoms: CB   and  CG  
    7  A    between atoms: CG   and  CD  
    8  A    between atoms: CD   and  CE  

$$$$
