ligand_93_pose_3_2HRL.pdbqt
 OpenBabel07062320523D

 50 51  0  0  1  0  0  0  0  0999 V2000
   29.9410   31.0150   19.4910 C   0  0  0  0  0  0  0  0  0  0  0  0
   30.3800   31.6780   18.2060 C   0  0  2  0  0  0  0  0  0  0  0  0
   29.4600   32.7890   17.8430 C   0  0  1  0  0  0  0  0  0  0  0  0
   30.0290   33.8420   16.9270 C   0  0  2  0  0  0  0  0  0  0  0  0
   28.5810   34.3010   15.1250 C   0  0  2  0  0  0  0  0  0  0  0  0
   29.6920   34.0370   14.1290 C   0  0  0  0  0  0  0  0  0  0  0  0
   28.9860   34.5220   16.3920 O   0  0  0  0  0  0  0  0  0  0  0  0
   30.5430   32.9340   14.7030 C   0  0  1  0  0  0  0  0  0  0  0  0
   31.1090   33.4160   16.0150 C   0  0  1  0  0  0  0  0  0  0  0  0
   27.7790   33.1600   15.1060 O   0  0  0  0  0  0  0  0  0  0  0  0
   28.2740   32.4750   14.5630 H   0  0  0  0  0  0  0  0  0  0  0  0
   27.7630   35.4250   14.5700 C   0  0  0  0  0  0  0  0  0  0  0  0
   27.0960   36.2040   15.2850 O   0  0  0  0  0  0  0  0  0  0  0  0
   27.7440   35.6050   13.2030 O   0  0  0  0  0  0  0  0  0  0  0  0
   26.8830   35.7470   12.6720 H   0  0  0  0  0  0  0  0  0  0  0  0
   29.7120   31.8210   14.8480 O   0  0  0  0  0  0  0  0  0  0  0  0
   29.0450   31.7560   14.1210 H   0  0  0  0  0  0  0  0  0  0  0  0
   31.9800   34.5620   15.6950 N   0  0  0  0  0  0  0  0  0  0  0  0
   32.7290   35.2340   16.6920 C   0  0  0  0  0  0  0  0  0  0  0  0
   32.0550   34.8990   14.7150 H   0  0  0  0  0  0  0  0  0  0  0  0
   33.5810   36.3760   16.2900 C   0  0  0  0  0  0  0  0  0  0  0  0
   32.6780   34.8720   17.9060 O   0  0  0  0  0  0  0  0  0  0  0  0
   28.1950   32.3470   17.4790 O   0  0  0  0  0  0  0  0  0  0  0  0
   27.5120   32.5770   18.1690 H   0  0  0  0  0  0  0  0  0  0  0  0
   30.3580   30.6490   17.2280 O   0  0  0  0  0  0  0  0  0  0  0  0
   31.1670   30.0790   17.3400 H   0  0  0  0  0  0  0  0  0  0  0  0
   29.1540   29.8200   19.2920 N   0  0  0  0  0  0  0  0  0  0  0  0
   27.7520   29.8610   19.5770 C   0  0  0  0  0  0  0  0  0  0  0  0
   29.6240   28.9670   18.9430 H   0  0  0  0  0  0  0  0  0  0  0  0
   27.2630   30.9270   19.9870 O   0  0  0  0  0  0  0  0  0  0  0  0
   27.0210   28.7010   19.3780 O   0  0  0  0  0  0  0  0  0  0  0  0
   27.1480   28.0220   18.1560 C   0  0  0  0  0  0  0  0  0  0  0  0
   26.8450   28.9780   17.0630 C   0  0  0  0  0  0  0  0  0  0  0  0
   25.5590   29.2200   16.5670 C   0  0  0  0  0  0  0  0  0  0  0  0
   27.6640   29.7650   16.3550 N   0  0  0  0  0  0  0  0  0  0  0  0
   25.7170   30.1330   15.6030 N   0  0  0  0  0  0  0  0  0  0  0  0
   26.9850   30.4690   15.4660 N   0  0  0  0  0  0  0  0  0  0  0  0
   24.6650   30.6760   14.8240 C   0  0  0  0  0  0  0  0  0  0  0  0
   24.3460   30.0710   13.6090 C   0  0  0  0  0  0  0  0  0  0  0  0
   23.9900   31.7750   15.2790 C   0  0  0  0  0  0  0  0  0  0  0  0
   23.3230   30.5920   12.8450 C   0  0  0  0  0  0  0  0  0  0  0  0
   22.9680   32.2820   14.4970 C   0  0  0  0  0  0  0  0  0  0  0  0
   24.4360   32.7220   17.1060 I   0  0  0  0  0  0  0  0  0  0  0  0
   22.6330   31.6990   13.2880 C   0  0  0  0  0  0  0  0  0  0  0  0
   29.8670   25.5550   16.9770 C   0  0  0  0  0  0  0  0  0  0  0  0
   28.3450   25.7220   17.0260 C   0  0  0  0  0  0  0  0  0  0  0  0
   27.6010   24.4020   16.8960 C   0  0  0  0  0  0  0  0  0  0  0  0
   26.5540   24.2340   17.9610 C   0  0  0  0  0  0  0  0  0  0  0  0
   25.2770   23.6810   17.3370 C   0  0  0  0  0  0  0  0  0  0  0  0
   24.3990   24.7870   16.8860 N   0  0  0  0  0  0  0  0  0  0  0  0
  2  1  1  1  0  0  0
  3 23  1  6  0  0  0
  3  2  1  0  0  0  0
  4  3  1  6  0  0  0
  5 12  1  6  0  0  0
  5  7  1  0  0  0  0
  6  8  1  0  0  0  0
  6  5  1  0  0  0  0
  7  4  1  0  0  0  0
  8 16  1  1  0  0  0
  8  9  1  0  0  0  0
  9 18  1  6  0  0  0
  9  4  1  0  0  0  0
 10  5  1  0  0  0  0
 11 10  1  0  0  0  0
 12 13  2  0  0  0  0
 14 12  1  0  0  0  0
 15 14  1  0  0  0  0
 17 16  1  0  0  0  0
 18 19  1  0  0  0  0
 19 22  2  0  0  0  0
 20 18  1  0  0  0  0
 21 19  1  0  0  0  0
 23 24  1  0  0  0  0
 25 26  1  0  0  0  0
 25  2  1  0  0  0  0
 27  1  1  0  0  0  0
 27 28  1  0  0  0  0
 28 30  2  0  0  0  0
 29 27  1  0  0  0  0
 31 28  1  0  0  0  0
 32 31  1  0  0  0  0
 33 32  1  0  0  0  0
 34 33  2  0  0  0  0
 35 33  1  0  0  0  0
 36 34  1  0  0  0  0
 37 36  1  0  0  0  0
 37 35  2  0  0  0  0
 38 40  1  0  0  0  0
 38 36  1  0  0  0  0
 39 38  2  0  0  0  0
 40 43  1  0  0  0  0
 41 44  2  0  0  0  0
 41 39  1  0  0  0  0
 42 40  2  0  0  0  0
 44 42  1  0  0  0  0
 45 46  1  0  0  0  0
 47 46  1  0  0  0  0
 47 48  1  0  0  0  0
 49 48  1  0  0  0  0
 50 49  1  0  0  0  0
M  END
>  <REMARK>
 VINA RESULT:    -4.782      2.020      4.738
 INTER + INTRA:         -14.562
 INTER:                  -8.083
 INTRA:                  -6.479
 UNBOUND:                -6.285
 SMILES CC(=O)N[C@@H]1[C@@H](O)C[C@](O)(C(=O)O)O[C@H]1C(O)[C@H](O)CNC(=O)OCc1cn(-c2ccccc2I)nn1
 SMILES IDX 20 1 18 2 16 3 15 4 9 5 8 6 14 7 6 8 5 9 10 10 11 12 12 13
 SMILES IDX 13 14 7 16 4 18 2 19 1 21 3 22 17 23 19 25 21 27 22 28 23 30
 SMILES IDX 24 31 25 32 26 33 27 34 37 35 28 36 36 37 29 38 30 39 34 40
 SMILES IDX 31 41 33 42 35 43 32 44
 H PARENT 10 11 13 15 7 17 4 20 17 24 19 26 21 29
 Flexibility Score: inf
  4 active torsions:
  status: ('A' for Active; 'I' for Inactive)
    1  A    between atoms: CA   and  CB  
    2  A    between atoms: CB   and  CG  
    3  A    between atoms: CG   and  CD  
    4  A    between atoms: CD   and  CE  

>  <TORSDO>
F 15

>  <BEGIN_>
RES LYS A 131

$$$$
ligand_93_pose_3_2HRL.pdbqt
 OpenBabel07062320523D

  6  5  0  0  0  0  0  0  0  0999 V2000
   33.1930   34.6630    9.2900 C   0  0  0  0  0  0  0  0  0  0  0  0
   32.0600   35.3600   10.0340 C   0  0  0  0  0  0  0  0  0  0  0  0
   30.7990   35.4960    9.2200 C   0  0  0  0  0  0  0  0  0  0  0  0
   30.1880   34.1310    8.9450 C   0  0  0  0  0  0  0  0  0  0  0  0
   28.6830   34.2430    8.7890 C   0  0  0  0  0  0  0  0  0  0  0  0
   27.9930   34.0680   10.0970 N   0  0  0  0  0  0  0  0  0  0  0  0
  1  2  1  0  0  0  0
  3  2  1  0  0  0  0
  4  3  1  0  0  0  0
  5  4  1  0  0  0  0
  5  6  1  0  0  0  0
M  END
>  <EGIN_R>
ES LYS A 135

>  <REMARK>
  4 active torsions:
  status: ('A' for Active; 'I' for Inactive)
    5  A    between atoms: CA   and  CB  
    6  A    between atoms: CB   and  CG  
    7  A    between atoms: CG   and  CD  
    8  A    between atoms: CD   and  CE  

$$$$
