ligand_35_pose_6_2HRL.pdbqt
 OpenBabel07062320523D

 49 49  0  0  1  0  0  0  0  0999 V2000
   31.7090   39.0990   10.4420 N   0  0  0  0  0  0  0  0  0  0  0  0
   31.3320   38.3030   11.5480 C   0  0  0  0  0  0  0  0  0  0  0  0
   30.1380   38.2270   11.9320 O   0  0  0  0  0  0  0  0  0  0  0  0
   32.7090   39.1280   10.1660 H   0  0  0  0  0  0  0  0  0  0  0  0
   30.7540   39.8640    9.6950 C   0  0  0  0  0  0  0  0  0  0  0  0
   30.3890   39.2150    8.3550 C   0  0  2  0  0  0  0  0  0  0  0  0
   29.0850   38.5200    8.5410 C   0  0  2  0  0  0  0  0  0  0  0  0
   28.0340   38.7870    7.5180 C   0  0  2  0  0  0  0  0  0  0  0  0
   26.4310   37.2500    8.2410 C   0  0  2  0  0  0  0  0  0  0  0  0
   27.1820   36.2360    7.4750 C   0  0  0  0  0  0  0  0  0  0  0  0
   26.8040   38.5620    8.1190 O   0  0  0  0  0  0  0  0  0  0  0  0
   27.8180   36.6710    6.2020 C   0  0  1  0  0  0  0  0  0  0  0  0
   28.1750   38.1300    6.1990 C   0  0  1  0  0  0  0  0  0  0  0  0
   26.6270   36.9340    9.6110 O   0  0  0  0  0  0  0  0  0  0  0  0
   25.9510   37.4310   10.1190 H   0  0  0  0  0  0  0  0  0  0  0  0
   24.9740   37.0810    7.9870 C   0  0  0  0  0  0  0  0  0  0  0  0
   24.2760   36.2500    8.6290 O   0  0  0  0  0  0  0  0  0  0  0  0
   24.3270   37.8410    7.0270 O   0  0  0  0  0  0  0  0  0  0  0  0
   23.3730   38.1710    7.1230 H   0  0  0  0  0  0  0  0  0  0  0  0
   28.9520   35.8610    6.0030 O   0  0  0  0  0  0  0  0  0  0  0  0
   29.7180   36.3720    6.3610 H   0  0  0  0  0  0  0  0  0  0  0  0
   27.2500   38.8310    5.2860 N   0  0  0  0  0  0  0  0  0  0  0  0
   27.6660   39.9620    4.5500 C   0  0  0  0  0  0  0  0  0  0  0  0
   26.2690   38.5240    5.1540 H   0  0  0  0  0  0  0  0  0  0  0  0
   26.7780   40.6940    3.6270 C   0  0  0  0  0  0  0  0  0  0  0  0
   28.8620   40.3900    4.6690 O   0  0  0  0  0  0  0  0  0  0  0  0
   28.5500   39.0610    9.7550 O   0  0  0  0  0  0  0  0  0  0  0  0
   28.7120   38.3530   10.4280 H   0  0  0  0  0  0  0  0  0  0  0  0
   31.4190   38.3220    8.0920 O   0  0  0  0  0  0  0  0  0  0  0  0
   32.1630   38.5440    8.7080 H   0  0  0  0  0  0  0  0  0  0  0  0
   32.2910   37.5600   12.2640 O   0  0  0  0  0  0  0  0  0  0  0  0
   32.4270   36.1660   12.0560 C   0  0  0  0  0  0  0  0  0  0  0  0
   32.1560   35.4080   13.3030 C   0  0  0  0  0  0  0  0  0  0  0  0
   30.9030   34.9960   13.7630 C   0  0  0  0  0  0  0  0  0  0  0  0
   33.0240   34.9620   14.2380 N   0  0  0  0  0  0  0  0  0  0  0  0
   31.0600   34.3410   14.9170 N   0  0  0  0  0  0  0  0  0  0  0  0
   32.3380   34.3240   15.1970 N   0  0  0  0  0  0  0  0  0  0  0  0
   30.0030   33.7410   15.7390 C   0  0  1  0  0  0  0  0  0  0  0  0
   28.6720   34.4040   15.4290 C   0  0  0  0  0  0  0  0  0  0  0  0
   29.9130   32.2950   15.5430 C   0  0  0  0  0  0  0  0  0  0  0  0
   28.7930   31.7350   15.5200 O   0  0  0  0  0  0  0  0  0  0  0  0
   31.0200   31.4650   15.3760 O   0  0  0  0  0  0  0  0  0  0  0  0
   31.9470   31.7660   15.6570 H   0  0  0  0  0  0  0  0  0  0  0  0
   29.8670   25.5550   16.9770 C   0  0  0  0  0  0  0  0  0  0  0  0
   28.3450   25.7220   17.0260 C   0  0  0  0  0  0  0  0  0  0  0  0
   27.6010   24.4020   16.8930 C   0  0  0  0  0  0  0  0  0  0  0  0
   26.1480   24.5310   17.2580 C   0  0  0  0  0  0  0  0  0  0  0  0
   26.0030   24.5280   18.7760 C   0  0  0  0  0  0  0  0  0  0  0  0
   25.5330   23.2050   19.2500 N   0  0  0  0  0  0  0  0  0  0  0  0
  1  2  1  0  0  0  0
  2  3  2  0  0  0  0
  2 31  1  0  0  0  0
  4  1  1  0  0  0  0
  5  1  1  0  0  0  0
  6  7  1  0  0  0  0
  6  5  1  1  0  0  0
  7 27  1  1  0  0  0
  8 11  1  0  0  0  0
  8  7  1  1  0  0  0
  9 16  1  6  0  0  0
  9 14  1  0  0  0  0
 10  9  1  0  0  0  0
 11  9  1  0  0  0  0
 12 20  1  1  0  0  0
 12 10  1  0  0  0  0
 13 22  1  6  0  0  0
 13 12  1  0  0  0  0
 13  8  1  0  0  0  0
 14 15  1  0  0  0  0
 16 17  2  0  0  0  0
 18 19  1  0  0  0  0
 18 16  1  0  0  0  0
 20 21  1  0  0  0  0
 23 26  2  0  0  0  0
 23 22  1  0  0  0  0
 24 22  1  0  0  0  0
 25 23  1  0  0  0  0
 27 28  1  0  0  0  0
 29  6  1  0  0  0  0
 29 30  1  0  0  0  0
 32 31  1  0  0  0  0
 32 33  1  0  0  0  0
 33 34  2  0  0  0  0
 33 35  1  0  0  0  0
 34 36  1  0  0  0  0
 35 37  2  0  0  0  0
 36 37  1  0  0  0  0
 36 38  1  0  0  0  0
 38 39  1  6  0  0  0
 40 38  1  0  0  0  0
 41 40  2  0  0  0  0
 42 40  1  0  0  0  0
 42 43  1  0  0  0  0
 44 45  1  0  0  0  0
 46 45  1  0  0  0  0
 46 47  1  0  0  0  0
 47 48  1  0  0  0  0
 48 49  1  0  0  0  0
M  END
>  <REMARK>
 VINA RESULT:    -5.056      4.313      9.081
 INTER + INTRA:         -13.918
 INTER:                  -9.022
 INTRA:                  -4.896
 UNBOUND:                -4.724
 SMILES CC(=O)N[C@@H]1[C@@H](O)C[C@](O)(C(=O)O)O[C@H]1C(O)[C@H](O)CNC(=O)OCc1cn([C@@H](C)C(=O)O)nn1
 SMILES IDX 21 1 22 2 23 3 20 5 18 6 16 7 15 8 9 9 8 10 14 11 6 12 5 13
 SMILES IDX 10 14 11 16 12 17 13 18 7 20 4 22 2 23 1 25 3 26 17 27 19 29
 SMILES IDX 24 31 25 32 26 33 27 34 35 35 28 36 34 37 29 38 30 39 31 40
 SMILES IDX 32 41 33 42
 H PARENT 21 4 10 15 13 19 7 21 4 24 17 28 19 30 33 43
 Flexibility Score: inf
  4 active torsions:
  status: ('A' for Active; 'I' for Inactive)
    1  A    between atoms: CA   and  CB  
    2  A    between atoms: CB   and  CG  
    3  A    between atoms: CG   and  CD  
    4  A    between atoms: CD   and  CE  

>  <TORSDO>
F 17

>  <BEGIN_>
RES LYS A 131

$$$$
ligand_35_pose_6_2HRL.pdbqt
 OpenBabel07062320523D

  6  5  0  0  0  0  0  0  0  0999 V2000
   33.1930   34.6630    9.2900 C   0  0  0  0  0  0  0  0  0  0  0  0
   32.0600   35.3600   10.0340 C   0  0  0  0  0  0  0  0  0  0  0  0
   30.7610   35.3820    9.2700 C   0  0  0  0  0  0  0  0  0  0  0  0
   30.2300   33.9710    9.0740 C   0  0  0  0  0  0  0  0  0  0  0  0
   28.7820   33.8800    9.5180 C   0  0  0  0  0  0  0  0  0  0  0  0
   28.5950   34.4880   10.8640 N   0  0  0  0  0  0  0  0  0  0  0  0
  1  2  1  0  0  0  0
  3  2  1  0  0  0  0
  4  3  1  0  0  0  0
  4  5  1  0  0  0  0
  5  6  1  0  0  0  0
M  END
>  <EGIN_R>
ES LYS A 135

>  <REMARK>
  4 active torsions:
  status: ('A' for Active; 'I' for Inactive)
    5  A    between atoms: CA   and  CB  
    6  A    between atoms: CB   and  CG  
    7  A    between atoms: CG   and  CD  
    8  A    between atoms: CD   and  CE  

$$$$
