ligand_40_pose_13_2HRL.pdbqt
 OpenBabel07062320523D

 50 51  0  0  1  0  0  0  0  0999 V2000
   30.7470   30.2570   20.2620 C   0  0  0  0  0  0  0  0  0  0  0  0
   30.3760   28.9720   20.8790 C   0  0  2  0  0  0  0  0  0  0  0  0
   29.0960   28.3070   20.4840 C   0  0  2  0  0  0  0  0  0  0  0  0
   28.0570   28.1580   21.5490 C   0  0  2  0  0  0  0  0  0  0  0  0
   26.2470   27.3120   20.3250 C   0  0  2  0  0  0  0  0  0  0  0  0
   25.3280   28.4540   20.7230 C   0  0  0  0  0  0  0  0  0  0  0  0
   27.2430   27.0650   21.2160 O   0  0  0  0  0  0  0  0  0  0  0  0
   26.1750   29.6670   21.0770 C   0  0  1  0  0  0  0  0  0  0  0  0
   27.2870   29.3250   22.0140 C   0  0  1  0  0  0  0  0  0  0  0  0
   26.6570   27.5610   19.0380 O   0  0  0  0  0  0  0  0  0  0  0  0
   25.9220   27.7620   18.4020 H   0  0  0  0  0  0  0  0  0  0  0  0
   25.3720   26.0970   20.3050 C   0  0  0  0  0  0  0  0  0  0  0  0
   24.2060   26.1190   19.8100 O   0  0  0  0  0  0  0  0  0  0  0  0
   25.8290   24.9090   20.8380 O   0  0  0  0  0  0  0  0  0  0  0  0
   25.1550   24.2490   21.2330 H   0  0  0  0  0  0  0  0  0  0  0  0
   26.7460   30.0520   19.8630 O   0  0  0  0  0  0  0  0  0  0  0  0
   26.0600   30.1770   19.1580 H   0  0  0  0  0  0  0  0  0  0  0  0
   26.8430   29.0230   23.3610 N   0  0  0  0  0  0  0  0  0  0  0  0
   27.5870   29.3370   24.5110 C   0  0  0  0  0  0  0  0  0  0  0  0
   25.9190   28.5500   23.4310 H   0  0  0  0  0  0  0  0  0  0  0  0
   27.1630   29.0430   25.8930 C   0  0  0  0  0  0  0  0  0  0  0  0
   28.6800   29.9020   24.3180 O   0  0  0  0  0  0  0  0  0  0  0  0
   29.4830   26.8980   20.3110 O   0  0  0  0  0  0  0  0  0  0  0  0
   30.0520   26.6690   21.0930 H   0  0  0  0  0  0  0  0  0  0  0  0
   30.6220   28.9500   22.2430 O   0  0  0  0  0  0  0  0  0  0  0  0
   31.5930   28.7750   22.4420 H   0  0  0  0  0  0  0  0  0  0  0  0
   30.4400   30.3680   18.8350 N   0  0  0  0  0  0  0  0  0  0  0  0
   29.4810   31.2850   18.3480 C   0  0  0  0  0  0  0  0  0  0  0  0
   30.9120   29.7650   18.1110 H   0  0  0  0  0  0  0  0  0  0  0  0
   28.8760   32.0190   19.1370 O   0  0  0  0  0  0  0  0  0  0  0  0
   29.1730   31.4090   16.9920 O   0  0  0  0  0  0  0  0  0  0  0  0
   27.9380   31.9700   16.6140 C   0  0  0  0  0  0  0  0  0  0  0  0
   26.8960   30.9660   16.3780 C   0  0  0  0  0  0  0  0  0  0  0  0
   25.9400   31.0720   15.3890 C   0  0  0  0  0  0  0  0  0  0  0  0
   26.6230   29.8010   16.9990 N   0  0  0  0  0  0  0  0  0  0  0  0
   25.1240   29.9980   15.4240 N   0  0  0  0  0  0  0  0  0  0  0  0
   25.5680   29.2490   16.4110 N   0  0  0  0  0  0  0  0  0  0  0  0
   24.0060   29.6880   14.5940 C   0  0  0  0  0  0  0  0  0  0  0  0
   22.8910   29.0590   15.1090 C   0  0  0  0  0  0  0  0  0  0  0  0
   23.9830   29.9970   13.2500 C   0  0  0  0  0  0  0  0  0  0  0  0
   21.8010   28.7520   14.3180 C   0  0  0  0  0  0  0  0  0  0  0  0
   22.8980   29.6930   12.4540 C   0  0  0  0  0  0  0  0  0  0  0  0
   21.7870   29.0660   12.9750 C   0  0  0  0  0  0  0  0  0  0  0  0
   20.6390   28.7550   12.0840 C   0  0  0  0  0  0  0  0  0  0  0  0
   29.8670   25.5550   16.9770 C   0  0  0  0  0  0  0  0  0  0  0  0
   28.3450   25.7220   17.0260 C   0  0  0  0  0  0  0  0  0  0  0  0
   27.5990   24.4680   16.5960 C   0  0  0  0  0  0  0  0  0  0  0  0
   26.9370   23.7780   17.7560 C   0  0  0  0  0  0  0  0  0  0  0  0
   25.4320   23.7110   17.5170 C   0  0  0  0  0  0  0  0  0  0  0  0
   24.9640   22.3050   17.5440 N   0  0  0  0  0  0  0  0  0  0  0  0
  2  1  1  1  0  0  0
  2 25  1  0  0  0  0
  3 23  1  1  0  0  0
  3  2  1  0  0  0  0
  4  3  1  6  0  0  0
  4  9  1  0  0  0  0
  5 10  1  6  0  0  0
  5  6  1  0  0  0  0
  5  7  1  0  0  0  0
  6  8  1  0  0  0  0
  7  4  1  0  0  0  0
  8 16  1  6  0  0  0
  8  9  1  0  0  0  0
  9 18  1  1  0  0  0
 11 10  1  0  0  0  0
 12  5  1  0  0  0  0
 12 14  1  0  0  0  0
 13 12  2  0  0  0  0
 14 15  1  0  0  0  0
 17 16  1  0  0  0  0
 18 20  1  0  0  0  0
 18 19  1  0  0  0  0
 19 21  1  0  0  0  0
 22 19  2  0  0  0  0
 23 24  1  0  0  0  0
 25 26  1  0  0  0  0
 27  1  1  0  0  0  0
 28 27  1  0  0  0  0
 28 30  2  0  0  0  0
 29 27  1  0  0  0  0
 31 28  1  0  0  0  0
 32 31  1  0  0  0  0
 33 32  1  0  0  0  0
 33 35  1  0  0  0  0
 34 36  1  0  0  0  0
 34 33  2  0  0  0  0
 36 37  1  0  0  0  0
 37 35  2  0  0  0  0
 38 39  1  0  0  0  0
 38 36  1  0  0  0  0
 40 38  2  0  0  0  0
 41 39  2  0  0  0  0
 42 43  2  0  0  0  0
 42 40  1  0  0  0  0
 43 41  1  0  0  0  0
 44 43  1  0  0  0  0
 45 46  1  0  0  0  0
 47 46  1  0  0  0  0
 47 48  1  0  0  0  0
 49 50  1  0  0  0  0
 49 48  1  0  0  0  0
M  END
>  <REMARK>
 VINA RESULT:    -5.165      2.932      4.617
 INTER + INTRA:         -13.952
 INTER:                  -7.964
 INTRA:                  -5.988
 UNBOUND:                -5.012
 SMILES CC(=O)N[C@@H]1[C@@H](O)C[C@](O)(C(=O)O)O[C@H]1C(O)[C@H](O)CNC(=O)OCc1cn(-c2ccc(C)cc2)nn1
 SMILES IDX 20 1 18 2 16 3 15 4 9 5 8 6 14 7 6 8 5 9 10 10 11 12 12 13
 SMILES IDX 13 14 7 16 4 18 2 19 1 21 3 22 17 23 19 25 21 27 22 28 23 30
 SMILES IDX 24 31 25 32 26 33 27 34 37 35 28 36 36 37 29 38 30 39 35 40
 SMILES IDX 31 41 34 42 32 43 33 44
 H PARENT 10 11 13 15 7 17 4 20 17 24 19 26 21 29
 Flexibility Score: inf
  4 active torsions:
  status: ('A' for Active; 'I' for Inactive)
    1  A    between atoms: CA   and  CB  
    2  A    between atoms: CB   and  CG  
    3  A    between atoms: CG   and  CD  
    4  A    between atoms: CD   and  CE  

>  <TORSDO>
F 15

>  <BEGIN_>
RES LYS A 131

$$$$
ligand_40_pose_13_2HRL.pdbqt
 OpenBabel07062320523D

  6  5  0  0  0  0  0  0  0  0999 V2000
   33.1930   34.6630    9.2900 C   0  0  0  0  0  0  0  0  0  0  0  0
   32.0600   35.3600   10.0340 C   0  0  0  0  0  0  0  0  0  0  0  0
   30.8040   35.5110    9.2150 C   0  0  0  0  0  0  0  0  0  0  0  0
   30.1410   34.1600    8.9950 C   0  0  0  0  0  0  0  0  0  0  0  0
   28.6810   34.3380    8.6230 C   0  0  0  0  0  0  0  0  0  0  0  0
   27.7880   33.7720    9.6720 N   0  0  0  0  0  0  0  0  0  0  0  0
  1  2  1  0  0  0  0
  3  2  1  0  0  0  0
  4  3  1  0  0  0  0
  5  4  1  0  0  0  0
  5  6  1  0  0  0  0
M  END
>  <EGIN_R>
ES LYS A 135

>  <REMARK>
  4 active torsions:
  status: ('A' for Active; 'I' for Inactive)
    5  A    between atoms: CA   and  CB  
    6  A    between atoms: CB   and  CG  
    7  A    between atoms: CG   and  CD  
    8  A    between atoms: CD   and  CE  

$$$$
