ligand_34_pose_2_2HRL.pdbqt
 OpenBabel07062320523D

 69 73  0  0  1  0  0  0  0  0999 V2000
   33.3830   41.1670    7.6050 N   0  0  0  0  0  0  0  0  0  0  0  0
   32.8350   42.0440    8.6030 C   0  0  0  0  0  0  0  0  0  0  0  0
   32.0130   42.9130    8.2040 O   0  0  0  0  0  0  0  0  0  0  0  0
   34.0640   40.4340    7.8770 H   0  0  0  0  0  0  0  0  0  0  0  0
   33.0040   41.2850    6.2180 C   0  0  0  0  0  0  0  0  0  0  0  0
   31.9360   40.2860    5.9140 C   0  0  2  0  0  0  0  0  0  0  0  0
   30.5490   40.9260    5.8770 C   0  0  2  0  0  0  0  0  0  0  0  0
   29.6410   40.2850    6.9150 C   0  0  2  0  0  0  0  0  0  0  0  0
   28.0030   38.7950    6.1920 C   0  0  2  0  0  0  0  0  0  0  0  0
   27.1560   39.0350    7.4230 C   0  0  0  0  0  0  0  0  0  0  0  0
   29.3240   39.0310    6.4760 O   0  0  0  0  0  0  0  0  0  0  0  0
   27.3650   40.4070    7.9520 C   0  0  1  0  0  0  0  0  0  0  0  0
   28.4890   41.1550    7.2790 C   0  0  1  0  0  0  0  0  0  0  0  0
   27.4910   39.5620    5.1770 O   0  0  0  0  0  0  0  0  0  0  0  0
   26.5500   39.7940    5.2760 H   0  0  0  0  0  0  0  0  0  0  0  0
   27.8630   37.3590    5.8490 C   0  0  0  0  0  0  0  0  0  0  0  0
   28.8860   36.6400    5.7310 O   0  0  0  0  0  0  0  0  0  0  0  0
   26.6370   36.7480    5.6440 O   0  0  0  0  0  0  0  0  0  0  0  0
   25.7530   37.2070    5.9130 H   0  0  0  0  0  0  0  0  0  0  0  0
   26.2150   41.1850    7.8560 O   0  0  0  0  0  0  0  0  0  0  0  0
   25.8750   41.4950    8.7250 H   0  0  0  0  0  0  0  0  0  0  0  0
   28.9160   42.1850    8.2370 N   0  0  0  0  0  0  0  0  0  0  0  0
   28.5080   43.5290    8.1660 C   0  0  0  0  0  0  0  0  0  0  0  0
   29.5560   41.8780    9.0040 H   0  0  0  0  0  0  0  0  0  0  0  0
   28.9810   44.5080    9.1700 C   0  0  0  0  0  0  0  0  0  0  0  0
   27.7250   43.8410    7.2090 O   0  0  0  0  0  0  0  0  0  0  0  0
   30.0630   40.7070    4.5830 O   0  0  0  0  0  0  0  0  0  0  0  0
   29.9160   41.6050    4.1820 H   0  0  0  0  0  0  0  0  0  0  0  0
   31.9600   39.2120    6.8000 O   0  0  0  0  0  0  0  0  0  0  0  0
   32.8700   38.8560    6.9380 H   0  0  0  0  0  0  0  0  0  0  0  0
   33.1610   41.9710    9.9240 O   0  0  0  0  0  0  0  0  0  0  0  0
   32.2260   41.5670   10.8960 C   0  0  0  0  0  0  0  0  0  0  0  0
   31.6320   40.2810   10.4820 C   0  0  0  0  0  0  0  0  0  0  0  0
   30.3230   39.8480   10.7050 C   0  0  0  0  0  0  0  0  0  0  0  0
   32.2280   39.2760    9.8230 N   0  0  0  0  0  0  0  0  0  0  0  0
   30.1790   38.6180   10.1790 N   0  0  0  0  0  0  0  0  0  0  0  0
   31.3440   38.3010    9.6550 N   0  0  0  0  0  0  0  0  0  0  0  0
   28.9700   37.8760   10.2310 C   0  0  0  0  0  0  0  0  0  0  0  0
   28.7570   36.6840    9.6060 C   0  0  0  0  0  0  0  0  0  0  0  0
   27.9140   38.4060   10.9770 C   0  0  0  0  0  0  0  0  0  0  0  0
   27.5520   35.9920    9.6840 C   0  0  0  0  0  0  0  0  0  0  0  0
   26.7200   37.7450   11.0690 C   0  0  0  0  0  0  0  0  0  0  0  0
   26.5370   36.5260   10.4160 C   0  0  0  0  0  0  0  0  0  0  0  0
   27.3610   34.7150    9.0000 C   0  0  0  0  0  0  0  0  0  0  0  0
   26.8940   34.6650    7.8180 O   0  0  0  0  0  0  0  0  0  0  0  0
   27.6840   33.5400    9.6230 O   0  0  0  0  0  0  0  0  0  0  0  0
   25.2330   35.9030   10.5740 C   0  0  0  0  0  0  0  0  0  0  0  0
   24.1690   36.0970    9.7210 C   0  0  0  0  0  0  0  0  0  0  0  0
   25.0370   35.0540   11.6510 C   0  0  0  0  0  0  0  0  0  0  0  0
   24.3250   36.9380    8.6360 C   0  0  0  0  0  0  0  0  0  0  0  0
   22.9450   35.4700    9.9250 C   0  0  0  0  0  0  0  0  0  0  0  0
   23.7380   34.4210   11.8210 C   0  0  0  0  0  0  0  0  0  0  0  0
   26.0350   34.7930   12.5620 C   0  0  0  0  0  0  0  0  0  0  0  0
   23.2830   37.1640    7.7480 C   0  0  0  0  0  0  0  0  0  0  0  0
   21.8930   35.6740    9.0620 C   0  0  0  0  0  0  0  0  0  0  0  0
   22.7660   34.6670   10.9460 O   0  0  0  0  0  0  0  0  0  0  0  0
   23.5350   33.5830   12.8770 C   0  0  0  0  0  0  0  0  0  0  0  0
   25.7820   33.9460   13.6040 C   0  0  0  0  0  0  0  0  0  0  0  0
   22.0800   36.5270    7.9770 C   0  0  0  0  0  0  0  0  0  0  0  0
   24.5490   33.3360   13.7770 C   0  0  0  0  0  0  0  0  0  0  0  0
   24.3670   32.5620   14.7540 O   0  0  0  0  0  0  0  0  0  0  0  0
   21.0340   36.7480    7.0970 O   0  0  0  0  0  0  0  0  0  0  0  0
   20.0790   36.5080    7.2850 H   0  0  0  0  0  0  0  0  0  0  0  0
   29.8670   25.5550   16.9770 C   0  0  0  0  0  0  0  0  0  0  0  0
   28.3450   25.7220   17.0260 C   0  0  0  0  0  0  0  0  0  0  0  0
   27.6010   24.4040   16.8780 C   0  0  0  0  0  0  0  0  0  0  0  0
   26.1930   24.4870   17.3980 C   0  0  0  0  0  0  0  0  0  0  0  0
   26.1670   25.3370   18.6640 C   0  0  0  0  0  0  0  0  0  0  0  0
   24.7990   25.8460   18.9190 N   0  0  0  0  0  0  0  0  0  0  0  0
  1  4  1  0  0  0  0
  1  2  1  0  0  0  0
  2 31  1  0  0  0  0
  3  2  2  0  0  0  0
  5  1  1  0  0  0  0
  6  5  1  1  0  0  0
  6 29  1  0  0  0  0
  7 27  1  6  0  0  0
  7  6  1  0  0  0  0
  8  7  1  6  0  0  0
  8 13  1  0  0  0  0
  9 14  1  6  0  0  0
  9 11  1  0  0  0  0
  9 10  1  0  0  0  0
 10 12  1  0  0  0  0
 11  8  1  0  0  0  0
 12 20  1  6  0  0  0
 13 12  1  0  0  0  0
 13 22  1  1  0  0  0
 14 15  1  0  0  0  0
 16  9  1  0  0  0  0
 17 16  2  0  0  0  0
 18 16  1  0  0  0  0
 18 19  1  0  0  0  0
 20 21  1  0  0  0  0
 22 24  1  0  0  0  0
 23 22  1  0  0  0  0
 23 25  1  0  0  0  0
 26 23  2  0  0  0  0
 28 27  1  0  0  0  0
 29 30  1  0  0  0  0
 31 32  1  0  0  0  0
 33 34  2  0  0  0  0
 33 32  1  0  0  0  0
 35 33  1  0  0  0  0
 36 38  1  0  0  0  0
 36 34  1  0  0  0  0
 37 35  2  0  0  0  0
 37 36  1  0  0  0  0
 38 40  2  0  0  0  0
 39 41  2  0  0  0  0
 39 38  1  0  0  0  0
 40 42  1  0  0  0  0
 41 43  1  0  0  0  0
 43 47  1  0  0  0  0
 43 42  2  0  0  0  0
 44 46  1  0  0  0  0
 44 41  1  0  0  0  0
 45 44  2  0  0  0  0
 47 49  2  0  0  0  0
 48 51  1  0  0  0  0
 48 47  1  0  0  0  0
 49 52  1  0  0  0  0
 49 53  1  0  0  0  0
 50 48  2  0  0  0  0
 51 56  1  0  0  0  0
 52 57  2  0  0  0  0
 53 58  2  0  0  0  0
 54 59  2  0  0  0  0
 54 50  1  0  0  0  0
 55 51  2  0  0  0  0
 56 52  1  0  0  0  0
 57 60  1  0  0  0  0
 58 60  1  0  0  0  0
 59 55  1  0  0  0  0
 60 61  2  0  0  0  0
 62 63  1  0  0  0  0
 62 59  1  0  0  0  0
 64 65  1  0  0  0  0
 66 65  1  0  0  0  0
 66 67  1  0  0  0  0
 67 68  1  0  0  0  0
 68 69  1  0  0  0  0
M  END
>  <REMARK>
 VINA RESULT:    -5.593      5.431      8.632
 INTER + INTRA:         -18.215
 INTER:                 -10.823
 INTRA:                  -7.392
 UNBOUND:                -7.717
 SMILES CC(=O)N[C@@H]1[C@@H](O)C[C@](O)(C(=O)O)O[C@H]1C(O)[C@H](O)CNC(=O)OCc1cn(-c2ccc(-c3c4ccc(=O)cc-4oc4cc(O)ccc34)c(C(=O)[O-])c2)nn1
 SMILES IDX 21 1 22 2 23 3 20 5 18 6 16 7 15 8 9 9 8 10 14 11 6 12 5 13
 SMILES IDX 10 14 11 16 12 17 13 18 7 20 4 22 2 23 1 25 3 26 17 27 19 29
 SMILES IDX 24 31 25 32 26 33 27 34 55 35 28 36 54 37 29 38 53 39 30 40
 SMILES IDX 49 41 31 42 32 43 50 44 51 45 52 46 33 47 48 48 34 49 47 50
 SMILES IDX 42 51 40 52 35 53 46 54 43 55 41 56 39 57 36 58 44 59 37 60
 SMILES IDX 38 61 45 62
 H PARENT 21 4 10 15 13 19 7 21 4 24 17 28 19 30 45 63
 Flexibility Score: inf
  4 active torsions:
  status: ('A' for Active; 'I' for Inactive)
    1  A    between atoms: CA   and  CB  
    2  A    between atoms: CB   and  CG  
    3  A    between atoms: CG   and  CD  
    4  A    between atoms: CD   and  CE  

>  <TORSDO>
F 18

>  <BEGIN_>
RES LYS A 131

$$$$
ligand_34_pose_2_2HRL.pdbqt
 OpenBabel07062320523D

  6  5  0  0  0  0  0  0  0  0999 V2000
   33.1930   34.6630    9.2900 C   0  0  0  0  0  0  0  0  0  0  0  0
   32.0600   35.3600   10.0340 C   0  0  0  0  0  0  0  0  0  0  0  0
   31.1440   34.4110   10.7620 C   0  0  0  0  0  0  0  0  0  0  0  0
   31.0560   34.7750   12.2370 C   0  0  0  0  0  0  0  0  0  0  0  0
   29.6120   34.7750   12.7000 C   0  0  0  0  0  0  0  0  0  0  0  0
   29.2680   36.0530   13.3840 N   0  0  0  0  0  0  0  0  0  0  0  0
  1  2  1  0  0  0  0
  2  3  1  0  0  0  0
  3  4  1  0  0  0  0
  4  5  1  0  0  0  0
  5  6  1  0  0  0  0
M  END
>  <EGIN_R>
ES LYS A 135

>  <REMARK>
  4 active torsions:
  status: ('A' for Active; 'I' for Inactive)
    5  A    between atoms: CA   and  CB  
    6  A    between atoms: CB   and  CG  
    7  A    between atoms: CG   and  CD  
    8  A    between atoms: CD   and  CE  

$$$$
