ligand_53_pose_15_2HRL.pdbqt
 OpenBabel07062320523D

 48 48  0  0  1  0  0  0  0  0999 V2000
   26.7730   36.9360   10.5150 N   0  0  0  0  0  0  0  0  0  0  0  0
   25.7850   36.6200    9.5630 C   0  0  0  0  0  0  0  0  0  0  0  0
   24.9350   35.7520    9.7610 O   0  0  0  0  0  0  0  0  0  0  0  0
   27.4430   37.7110   10.2240 H   0  0  0  0  0  0  0  0  0  0  0  0
   26.9540   36.3230   11.8050 C   0  0  0  0  0  0  0  0  0  0  0  0
   28.3480   35.8880   12.1290 C   0  0  2  0  0  0  0  0  0  0  0  0
   28.4270   34.8630   13.1970 C   0  0  1  0  0  0  0  0  0  0  0  0
   29.6780   34.8950   14.0320 C   0  0  2  0  0  0  0  0  0  0  0  0
   32.0120   35.0890   13.7990 C   0  0  2  0  0  0  0  0  0  0  0  0
   32.2610   34.1690   14.9490 C   0  0  0  0  0  0  0  0  0  0  0  0
   30.8000   35.0490   13.2040 O   0  0  0  0  0  0  0  0  0  0  0  0
   31.0500   34.0620   15.8220 C   0  0  1  0  0  0  0  0  0  0  0  0
   29.9010   33.6680   14.8760 C   0  0  1  0  0  0  0  0  0  0  0  0
   33.0450   34.8250   12.8520 O   0  0  0  0  0  0  0  0  0  0  0  0
   33.8780   34.7540   13.3920 H   0  0  0  0  0  0  0  0  0  0  0  0
   32.2940   36.4840   14.2540 C   0  0  0  0  0  0  0  0  0  0  0  0
   32.8650   36.7780   15.3250 O   0  0  0  0  0  0  0  0  0  0  0  0
   31.9030   37.5290   13.4440 O   0  0  0  0  0  0  0  0  0  0  0  0
   32.5440   38.0210   12.8260 H   0  0  0  0  0  0  0  0  0  0  0  0
   31.1950   33.1100   16.8260 O   0  0  0  0  0  0  0  0  0  0  0  0
   32.0830   33.2610   17.2420 H   0  0  0  0  0  0  0  0  0  0  0  0
   28.7990   33.2100   15.6570 N   0  0  0  0  0  0  0  0  0  0  0  0
   28.5730   31.8270   15.9270 C   0  0  0  0  0  0  0  0  0  0  0  0
   28.1320   33.8910   16.0640 H   0  0  0  0  0  0  0  0  0  0  0  0
   27.4410   31.3140   16.7320 C   0  0  0  0  0  0  0  0  0  0  0  0
   29.3850   31.0000   15.4520 O   0  0  0  0  0  0  0  0  0  0  0  0
   27.2630   34.8110   13.9470 O   0  0  0  0  0  0  0  0  0  0  0  0
   26.5160   35.2950   13.5100 H   0  0  0  0  0  0  0  0  0  0  0  0
   29.1020   37.0270   12.4510 O   0  0  0  0  0  0  0  0  0  0  0  0
   28.7840   37.8250   11.9720 H   0  0  0  0  0  0  0  0  0  0  0  0
   25.7300   37.2880    8.3430 O   0  0  0  0  0  0  0  0  0  0  0  0
   26.3460   36.8640    7.1680 C   0  0  0  0  0  0  0  0  0  0  0  0
   27.5760   37.6130    6.8100 C   0  0  0  0  0  0  0  0  0  0  0  0
   28.1340   38.7060    7.3960 C   0  0  0  0  0  0  0  0  0  0  0  0
   28.4030   37.3070    5.7680 N   0  0  0  0  0  0  0  0  0  0  0  0
   29.2510   39.0330    6.7220 N   0  0  0  0  0  0  0  0  0  0  0  0
   29.4010   38.1800    5.7440 N   0  0  0  0  0  0  0  0  0  0  0  0
   30.1260   40.1420    7.0400 C   0  0  0  0  0  0  0  0  0  0  0  0
   31.5290   39.6820    7.0570 C   0  0  0  0  0  0  0  0  0  0  0  0
   32.4040   40.3480    6.4330 O   0  0  0  0  0  0  0  0  0  0  0  0
   31.8860   38.5420    7.7440 O   0  0  0  0  0  0  0  0  0  0  0  0
   31.9840   38.6280    8.7610 H   0  0  0  0  0  0  0  0  0  0  0  0
   29.8670   25.5550   16.9770 C   0  0  0  0  0  0  0  0  0  0  0  0
   28.3450   25.7220   17.0260 C   0  0  0  0  0  0  0  0  0  0  0  0
   27.6030   24.3960   16.9540 C   0  0  0  0  0  0  0  0  0  0  0  0
   26.1240   24.5630   17.1700 C   0  0  0  0  0  0  0  0  0  0  0  0
   25.5480   23.2800   17.7600 C   0  0  0  0  0  0  0  0  0  0  0  0
   25.6750   23.2860   19.2370 N   0  0  0  0  0  0  0  0  0  0  0  0
  1  5  1  0  0  0  0
  2  3  2  0  0  0  0
  2  1  1  0  0  0  0
  4  1  1  0  0  0  0
  6  5  1  1  0  0  0
  6 29  1  0  0  0  0
  6  7  1  0  0  0  0
  7 27  1  1  0  0  0
  8  7  1  6  0  0  0
  8 13  1  0  0  0  0
  9 14  1  6  0  0  0
  9 16  1  0  0  0  0
  9 10  1  0  0  0  0
 10 12  1  0  0  0  0
 11  9  1  0  0  0  0
 11  8  1  0  0  0  0
 12 20  1  1  0  0  0
 13 22  1  1  0  0  0
 13 12  1  0  0  0  0
 14 15  1  0  0  0  0
 16 17  2  0  0  0  0
 18 16  1  0  0  0  0
 19 18  1  0  0  0  0
 20 21  1  0  0  0  0
 22 23  1  0  0  0  0
 22 24  1  0  0  0  0
 23 25  1  0  0  0  0
 26 23  2  0  0  0  0
 28 27  1  0  0  0  0
 30 29  1  0  0  0  0
 31  2  1  0  0  0  0
 32 31  1  0  0  0  0
 33 32  1  0  0  0  0
 33 34  2  0  0  0  0
 35 33  1  0  0  0  0
 36 38  1  0  0  0  0
 36 34  1  0  0  0  0
 37 35  2  0  0  0  0
 37 36  1  0  0  0  0
 38 39  1  0  0  0  0
 39 41  1  0  0  0  0
 40 39  2  0  0  0  0
 41 42  1  0  0  0  0
 43 44  1  0  0  0  0
 45 44  1  0  0  0  0
 45 46  1  0  0  0  0
 46 47  1  0  0  0  0
 47 48  1  0  0  0  0
M  END
>  <REMARK>
 VINA RESULT:    -3.922      3.235      5.019
 INTER + INTRA:         -13.495
 INTER:                  -8.427
 INTRA:                  -5.068
 UNBOUND:                -6.362
 SMILES CC(=O)N[C@@H]1[C@@H](O)C[C@](O)(C(=O)O)O[C@H]1C(O)[C@H](O)CNC(=O)OCc1cn(CC(=O)O)nn1
 SMILES IDX 21 1 22 2 23 3 20 5 18 6 16 7 15 8 9 9 8 10 14 11 6 12 5 13
 SMILES IDX 10 14 11 16 12 17 13 18 7 20 4 22 2 23 1 25 3 26 17 27 19 29
 SMILES IDX 24 31 25 32 26 33 27 34 34 35 28 36 33 37 29 38 30 39 31 40
 SMILES IDX 32 41
 H PARENT 21 4 10 15 13 19 7 21 4 24 17 28 19 30 32 42
 Flexibility Score: inf
  4 active torsions:
  status: ('A' for Active; 'I' for Inactive)
    1  A    between atoms: CA   and  CB  
    2  A    between atoms: CB   and  CG  
    3  A    between atoms: CG   and  CD  
    4  A    between atoms: CD   and  CE  

>  <TORSDO>
F 17

>  <BEGIN_>
RES LYS A 131

$$$$
ligand_53_pose_15_2HRL.pdbqt
 OpenBabel07062320523D

  6  5  0  0  0  0  0  0  0  0999 V2000
   33.1930   34.6630    9.2900 C   0  0  0  0  0  0  0  0  0  0  0  0
   32.0600   35.3600   10.0340 C   0  0  0  0  0  0  0  0  0  0  0  0
   30.8040   35.5090    9.2150 C   0  0  0  0  0  0  0  0  0  0  0  0
   30.1210   34.1630    9.0290 C   0  0  0  0  0  0  0  0  0  0  0  0
   28.6660   34.3530    8.6440 C   0  0  0  0  0  0  0  0  0  0  0  0
   27.7680   33.5810    9.5470 N   0  0  0  0  0  0  0  0  0  0  0  0
  1  2  1  0  0  0  0
  3  2  1  0  0  0  0
  4  3  1  0  0  0  0
  5  4  1  0  0  0  0
  5  6  1  0  0  0  0
M  END
>  <EGIN_R>
ES LYS A 135

>  <REMARK>
  4 active torsions:
  status: ('A' for Active; 'I' for Inactive)
    5  A    between atoms: CA   and  CB  
    6  A    between atoms: CB   and  CG  
    7  A    between atoms: CG   and  CD  
    8  A    between atoms: CD   and  CE  

$$$$
