ligand_87_pose_9_2HRL.pdbqt
 OpenBabel07062320523D

 52 54  0  0  1  0  0  0  0  0999 V2000
   26.5570   32.6920   15.6230 C   0  0  0  0  0  0  0  0  0  0  0  0
   27.5690   33.6860   15.1340 C   0  0  2  0  0  0  0  0  0  0  0  0
   28.1260   34.5030   16.2930 C   0  0  2  0  0  0  0  0  0  0  0  0
   29.6500   34.4800   16.1870 C   0  0  2  0  0  0  0  0  0  0  0  0
   31.2210   34.2930   14.4640 C   0  0  2  0  0  0  0  0  0  0  0  0
   31.8430   33.0500   15.0190 C   0  0  0  0  0  0  0  0  0  0  0  0
   29.9640   34.5690   14.8900 O   0  0  0  0  0  0  0  0  0  0  0  0
   31.1070   32.4310   16.1580 C   0  0  1  0  0  0  0  0  0  0  0  0
   30.2630   33.3540   16.9710 C   0  0  1  0  0  0  0  0  0  0  0  0
   31.1420   34.1490   13.0750 O   0  0  0  0  0  0  0  0  0  0  0  0
   30.2220   34.2590   12.7330 H   0  0  0  0  0  0  0  0  0  0  0  0
   32.0530   35.4910   14.7020 C   0  0  0  0  0  0  0  0  0  0  0  0
   32.9720   35.4500   15.5460 O   0  0  0  0  0  0  0  0  0  0  0  0
   31.8820   36.6990   14.0340 O   0  0  0  0  0  0  0  0  0  0  0  0
   31.2530   36.7550   13.2180 H   0  0  0  0  0  0  0  0  0  0  0  0
   30.3390   31.3810   15.6340 O   0  0  0  0  0  0  0  0  0  0  0  0
   30.5160   31.2810   14.6690 H   0  0  0  0  0  0  0  0  0  0  0  0
   30.8730   33.8210   18.1860 N   0  0  0  0  0  0  0  0  0  0  0  0
   30.4470   33.4470   19.4820 C   0  0  0  0  0  0  0  0  0  0  0  0
   31.6920   34.4850   18.1380 H   0  0  0  0  0  0  0  0  0  0  0  0
   31.0580   33.9150   20.7440 C   0  0  0  0  0  0  0  0  0  0  0  0
   29.4740   32.6550   19.5190 O   0  0  0  0  0  0  0  0  0  0  0  0
   27.7070   34.0230   17.5230 O   0  0  0  0  0  0  0  0  0  0  0  0
   26.9360   33.4190   17.3670 H   0  0  0  0  0  0  0  0  0  0  0  0
   27.0660   34.5550   14.2080 O   0  0  0  0  0  0  0  0  0  0  0  0
   26.1040   34.3470   14.0240 H   0  0  0  0  0  0  0  0  0  0  0  0
   27.1470   31.5070   16.1440 N   0  0  0  0  0  0  0  0  0  0  0  0
   26.5800   30.2220   16.0850 C   0  0  0  0  0  0  0  0  0  0  0  0
   28.1000   31.5780   16.6240 H   0  0  0  0  0  0  0  0  0  0  0  0
   25.4720   29.9990   15.5630 O   0  0  0  0  0  0  0  0  0  0  0  0
   27.2850   29.1350   16.6360 O   0  0  0  0  0  0  0  0  0  0  0  0
   26.7000   28.4280   17.7110 C   0  0  0  0  0  0  0  0  0  0  0  0
   27.6470   28.2930   18.8170 C   0  0  0  0  0  0  0  0  0  0  0  0
   28.5260   29.2780   19.2520 C   0  0  0  0  0  0  0  0  0  0  0  0
   27.8430   27.2290   19.5940 N   0  0  0  0  0  0  0  0  0  0  0  0
   29.2220   28.7730   20.2780 N   0  0  0  0  0  0  0  0  0  0  0  0
   28.7900   27.5430   20.4600 N   0  0  0  0  0  0  0  0  0  0  0  0
   30.2480   29.4190   21.0570 C   0  0  1  0  0  0  0  0  0  0  0  0
   30.1650   28.9110   22.4950 C   0  0  0  0  0  0  0  0  0  0  0  0
   31.5790   28.9780   20.4880 C   0  0  0  0  0  0  0  0  0  0  0  0
   31.3800   29.3890   23.2420 C   0  0  1  0  0  0  0  0  0  0  0  0
   32.6930   29.3220   21.4210 C   0  0  2  0  0  0  0  0  0  0  0  0
   32.5680   28.7400   22.7200 N   0  0  0  0  0  0  0  0  0  0  0  0
   31.6550   30.8450   22.9150 C   0  0  0  0  0  0  0  0  0  0  0  0
   32.5710   30.8200   21.7300 C   0  0  0  0  0  0  0  0  0  0  0  0
   32.4690   27.3090   22.7130 C   0  0  0  0  0  0  0  0  0  0  0  0
   29.8670   25.5550   16.9770 C   0  0  0  0  0  0  0  0  0  0  0  0
   28.3450   25.7220   17.0260 C   0  0  0  0  0  0  0  0  0  0  0  0
   27.5990   24.4580   16.6260 C   0  0  0  0  0  0  0  0  0  0  0  0
   27.0190   23.7430   17.8140 C   0  0  0  0  0  0  0  0  0  0  0  0
   25.6910   24.3890   18.1990 C   0  0  0  0  0  0  0  0  0  0  0  0
   25.5670   24.4800   19.6730 N   0  0  0  0  0  0  0  0  0  0  0  0
  1 27  1  0  0  0  0
  2  1  1  1  0  0  0
  2  3  1  0  0  0  0
  3 23  1  1  0  0  0
  4  3  1  6  0  0  0
  4  9  1  0  0  0  0
  5 10  1  6  0  0  0
  5 12  1  0  0  0  0
  5  7  1  0  0  0  0
  5  6  1  0  0  0  0
  6  8  1  0  0  0  0
  7  4  1  0  0  0  0
  8 16  1  6  0  0  0
  8  9  1  0  0  0  0
  9 18  1  1  0  0  0
 11 10  1  0  0  0  0
 12 13  2  0  0  0  0
 14 12  1  0  0  0  0
 15 14  1  0  0  0  0
 17 16  1  0  0  0  0
 18 19  1  0  0  0  0
 19 22  2  0  0  0  0
 19 21  1  0  0  0  0
 20 18  1  0  0  0  0
 24 23  1  0  0  0  0
 25  2  1  0  0  0  0
 26 25  1  0  0  0  0
 27 29  1  0  0  0  0
 28 27  1  0  0  0  0
 28 31  1  0  0  0  0
 30 28  2  0  0  0  0
 31 32  1  0  0  0  0
 32 33  1  0  0  0  0
 33 34  2  0  0  0  0
 33 35  1  0  0  0  0
 34 36  1  0  0  0  0
 35 37  2  0  0  0  0
 36 37  1  0  0  0  0
 38 36  1  6  0  0  0
 38 39  1  0  0  0  0
 40 38  1  0  0  0  0
 41 39  1  6  0  0  0
 42 40  1  6  0  0  0
 42 45  1  0  0  0  0
 42 43  1  0  0  0  0
 43 41  1  0  0  0  0
 44 41  1  0  0  0  0
 45 44  1  0  0  0  0
 46 43  1  0  0  0  0
 47 48  1  0  0  0  0
 49 48  1  0  0  0  0
 49 50  1  0  0  0  0
 50 51  1  0  0  0  0
 51 52  1  0  0  0  0
M  END
>  <REMARK>
 VINA RESULT:    -5.344      2.867      7.141
 INTER + INTRA:         -14.752
 INTER:                  -8.333
 INTRA:                  -6.418
 UNBOUND:                -5.502
 SMILES CC(=O)N[C@@H]1[C@@H](O)C[C@](O)(C(=O)O)O[C@H]1C(O)[C@H](O)CNC(=O)OCc1cn([C@@H]2C[C@H]3CC[C@@H](C2)N3C)nn1
 SMILES IDX 20 1 18 2 16 3 15 4 9 5 8 6 14 7 6 8 5 9 10 10 11 12 12 13
 SMILES IDX 13 14 7 16 4 18 2 19 1 21 3 22 17 23 19 25 21 27 22 28 23 30
 SMILES IDX 24 31 25 32 26 33 27 34 39 35 28 36 38 37 29 38 35 39 30 40
 SMILES IDX 34 41 31 42 36 43 33 44 32 45 37 46
 H PARENT 10 11 13 15 7 17 4 20 17 24 19 26 21 29
 Flexibility Score: inf
  4 active torsions:
  status: ('A' for Active; 'I' for Inactive)
    1  A    between atoms: CA   and  CB  
    2  A    between atoms: CB   and  CG  
    3  A    between atoms: CG   and  CD  
    4  A    between atoms: CD   and  CE  

>  <TORSDO>
F 15

>  <BEGIN_>
RES LYS A 131

$$$$
ligand_87_pose_9_2HRL.pdbqt
 OpenBabel07062320523D

  6  5  0  0  0  0  0  0  0  0999 V2000
   33.1930   34.6630    9.2900 C   0  0  0  0  0  0  0  0  0  0  0  0
   32.0600   35.3600   10.0340 C   0  0  0  0  0  0  0  0  0  0  0  0
   30.8000   35.4980    9.2200 C   0  0  0  0  0  0  0  0  0  0  0  0
   30.1380   34.1430    9.0210 C   0  0  0  0  0  0  0  0  0  0  0  0
   28.6740   34.3130    8.6610 C   0  0  0  0  0  0  0  0  0  0  0  0
   27.7930   33.7330    9.7120 N   0  0  0  0  0  0  0  0  0  0  0  0
  1  2  1  0  0  0  0
  3  2  1  0  0  0  0
  4  3  1  0  0  0  0
  5  4  1  0  0  0  0
  5  6  1  0  0  0  0
M  END
>  <EGIN_R>
ES LYS A 135

>  <REMARK>
  4 active torsions:
  status: ('A' for Active; 'I' for Inactive)
    5  A    between atoms: CA   and  CB  
    6  A    between atoms: CB   and  CG  
    7  A    between atoms: CG   and  CD  
    8  A    between atoms: CD   and  CE  

$$$$
