ligand_91_pose_9_2HRL.pdbqt
 OpenBabel07062320523D

 57 60  0  0  1  0  0  0  0  0999 V2000
   28.1870   36.7770   16.3250 C   0  0  0  0  0  0  0  0  0  0  0  0
   27.5700   35.4800   15.8760 C   0  0  2  0  0  0  0  0  0  0  0  0
   28.5070   34.8700   14.8810 C   0  0  2  0  0  0  0  0  0  0  0  0
   29.9780   35.0870   15.2050 C   0  0  2  0  0  0  0  0  0  0  0  0
   31.9370   35.4510   14.1260 C   0  0  2  0  0  0  0  0  0  0  0  0
   32.7050   34.3430   14.7960 C   0  0  0  0  0  0  0  0  0  0  0  0
   30.6140   35.1760   13.9980 O   0  0  0  0  0  0  0  0  0  0  0  0
   31.8200   33.3900   15.5450 C   0  0  1  0  0  0  0  0  0  0  0  0
   30.5440   33.9920   16.0300 C   0  0  1  0  0  0  0  0  0  0  0  0
   32.4210   35.5660   12.7800 O   0  0  0  0  0  0  0  0  0  0  0  0
   31.7840   36.1030   12.2490 H   0  0  0  0  0  0  0  0  0  0  0  0
   32.2740   36.7590   14.7400 C   0  0  0  0  0  0  0  0  0  0  0  0
   32.9590   36.8440   15.7940 O   0  0  0  0  0  0  0  0  0  0  0  0
   31.8550   37.9810   14.1900 O   0  0  0  0  0  0  0  0  0  0  0  0
   31.7880   38.0720   13.1880 H   0  0  0  0  0  0  0  0  0  0  0  0
   31.5760   32.2780   14.7320 O   0  0  0  0  0  0  0  0  0  0  0  0
   32.0770   32.3380   13.8800 H   0  0  0  0  0  0  0  0  0  0  0  0
   30.6980   34.3370   17.4480 N   0  0  0  0  0  0  0  0  0  0  0  0
   30.6020   33.3700   18.4870 C   0  0  0  0  0  0  0  0  0  0  0  0
   30.8880   35.3160   17.7550 H   0  0  0  0  0  0  0  0  0  0  0  0
   30.7650   33.7410   19.9260 C   0  0  0  0  0  0  0  0  0  0  0  0
   30.3740   32.1660   18.2040 O   0  0  0  0  0  0  0  0  0  0  0  0
   28.2600   35.4130   13.6300 O   0  0  0  0  0  0  0  0  0  0  0  0
   28.0100   34.6720   13.0250 H   0  0  0  0  0  0  0  0  0  0  0  0
   26.3070   35.6980   15.3770 O   0  0  0  0  0  0  0  0  0  0  0  0
   26.3220   35.4660   14.4000 H   0  0  0  0  0  0  0  0  0  0  0  0
   27.9210   37.9180   15.5180 N   0  0  0  0  0  0  0  0  0  0  0  0
   28.7740   39.0330   15.3940 C   0  0  0  0  0  0  0  0  0  0  0  0
   27.0130   37.9920   14.9350 H   0  0  0  0  0  0  0  0  0  0  0  0
   29.8560   39.1050   16.0130 O   0  0  0  0  0  0  0  0  0  0  0  0
   28.4560   40.1220   14.5670 O   0  0  0  0  0  0  0  0  0  0  0  0
   29.1880   40.3540   13.3640 C   0  0  0  0  0  0  0  0  0  0  0  0
   28.9380   39.2070   12.4590 C   0  0  0  0  0  0  0  0  0  0  0  0
   28.0270   39.1600   11.4240 C   0  0  0  0  0  0  0  0  0  0  0  0
   29.5250   37.9860   12.4440 N   0  0  0  0  0  0  0  0  0  0  0  0
   28.0800   37.9590   10.8240 N   0  0  0  0  0  0  0  0  0  0  0  0
   28.9950   37.2600   11.4580 N   0  0  0  0  0  0  0  0  0  0  0  0
   27.3140   37.5110    9.7250 C   0  0  0  0  0  0  0  0  0  0  0  0
   27.7610   37.7280    8.4190 C   0  0  0  0  0  0  0  0  0  0  0  0
   26.1130   36.8440    9.8910 C   0  0  0  0  0  0  0  0  0  0  0  0
   28.9500   38.3860    8.1870 C   0  0  0  0  0  0  0  0  0  0  0  0
   27.0490   37.3030    7.3410 C   0  0  0  0  0  0  0  0  0  0  0  0
   25.4060   36.4210    8.7860 C   0  0  0  0  0  0  0  0  0  0  0  0
   25.6740   36.6330   11.1740 C   0  0  0  0  0  0  0  0  0  0  0  0
   29.4340   38.6250    6.9180 C   0  0  0  0  0  0  0  0  0  0  0  0
   27.5250   37.5370    6.0550 C   0  0  0  0  0  0  0  0  0  0  0  0
   25.8840   36.6570    7.5450 N   0  0  0  0  0  0  0  0  0  0  0  0
   24.2180   35.7650    8.9990 C   0  0  0  0  0  0  0  0  0  0  0  0
   24.4620   35.9630   11.3580 C   0  0  0  0  0  0  0  0  0  0  0  0
   28.7090   38.1920    5.8030 C   0  0  0  0  0  0  0  0  0  0  0  0
   23.7240   35.5240   10.2810 C   0  0  0  0  0  0  0  0  0  0  0  0
   29.8670   25.5550   16.9770 C   0  0  0  0  0  0  0  0  0  0  0  0
   28.3450   25.7220   17.0260 C   0  0  0  0  0  0  0  0  0  0  0  0
   27.6020   24.4000   16.9150 C   0  0  0  0  0  0  0  0  0  0  0  0
   26.1450   24.5380   17.2600 C   0  0  0  0  0  0  0  0  0  0  0  0
   25.7820   23.5320   18.3470 C   0  0  0  0  0  0  0  0  0  0  0  0
   24.9510   22.4400   17.7870 N   0  0  0  0  0  0  0  0  0  0  0  0
  2  1  1  6  0  0  0
  3 23  1  6  0  0  0
  3  2  1  0  0  0  0
  4  3  1  6  0  0  0
  4  9  1  0  0  0  0
  5 10  1  6  0  0  0
  5 12  1  0  0  0  0
  5  6  1  0  0  0  0
  6  8  1  0  0  0  0
  7  5  1  0  0  0  0
  7  4  1  0  0  0  0
  8 16  1  6  0  0  0
  8  9  1  0  0  0  0
  9 18  1  1  0  0  0
 11 10  1  0  0  0  0
 12 13  2  0  0  0  0
 14 12  1  0  0  0  0
 15 14  1  0  0  0  0
 17 16  1  0  0  0  0
 18 20  1  0  0  0  0
 18 19  1  0  0  0  0
 19 21  1  0  0  0  0
 22 19  2  0  0  0  0
 24 23  1  0  0  0  0
 25  2  1  0  0  0  0
 26 25  1  0  0  0  0
 27  1  1  0  0  0  0
 28 27  1  0  0  0  0
 28 30  2  0  0  0  0
 29 27  1  0  0  0  0
 31 28  1  0  0  0  0
 32 31  1  0  0  0  0
 33 32  1  0  0  0  0
 34 33  2  0  0  0  0
 35 33  1  0  0  0  0
 36 34  1  0  0  0  0
 36 37  1  0  0  0  0
 37 35  2  0  0  0  0
 38 40  1  0  0  0  0
 38 36  1  0  0  0  0
 39 38  2  0  0  0  0
 40 44  2  0  0  0  0
 41 39  1  0  0  0  0
 42 47  2  0  0  0  0
 42 39  1  0  0  0  0
 43 48  2  0  0  0  0
 43 40  1  0  0  0  0
 44 49  1  0  0  0  0
 45 41  2  0  0  0  0
 46 42  1  0  0  0  0
 47 43  1  0  0  0  0
 48 51  1  0  0  0  0
 50 46  2  0  0  0  0
 50 45  1  0  0  0  0
 51 49  2  0  0  0  0
 52 53  1  0  0  0  0
 54 53  1  0  0  0  0
 54 55  1  0  0  0  0
 55 56  1  0  0  0  0
 57 56  1  0  0  0  0
M  END
>  <REMARK>
 VINA RESULT:    -5.378      3.440      7.658
 INTER + INTRA:         -15.391
 INTER:                  -8.995
 INTRA:                  -6.396
 UNBOUND:                -6.084
 SMILES CC(=O)N[C@@H]1[C@@H](O)C[C@](O)(C(=O)O)O[C@H]1C(O)[C@H](O)CNC(=O)OCc1cn(-c2c3ccccc3nc3ccccc23)nn1
 SMILES IDX 20 1 18 2 16 3 15 4 9 5 8 6 14 7 6 8 5 9 10 10 11 12 12 13
 SMILES IDX 13 14 7 16 4 18 2 19 1 21 3 22 17 23 19 25 21 27 22 28 23 30
 SMILES IDX 24 31 25 32 26 33 27 34 44 35 28 36 43 37 29 38 30 39 42 40
 SMILES IDX 31 41 35 42 37 43 41 44 32 45 34 46 36 47 38 48 40 49 33 50
 SMILES IDX 39 51
 H PARENT 10 11 13 15 7 17 4 20 17 24 19 26 21 29
 Flexibility Score: inf
  4 active torsions:
  status: ('A' for Active; 'I' for Inactive)
    1  A    between atoms: CA   and  CB  
    2  A    between atoms: CB   and  CG  
    3  A    between atoms: CG   and  CD  
    4  A    between atoms: CD   and  CE  

>  <TORSDO>
F 15

>  <BEGIN_>
RES LYS A 131

$$$$
ligand_91_pose_9_2HRL.pdbqt
 OpenBabel07062320523D

  6  5  0  0  0  0  0  0  0  0999 V2000
   33.1930   34.6630    9.2900 C   0  0  0  0  0  0  0  0  0  0  0  0
   32.0600   35.3600   10.0340 C   0  0  0  0  0  0  0  0  0  0  0  0
   30.7790   35.4380    9.2440 C   0  0  0  0  0  0  0  0  0  0  0  0
   30.0650   34.0950    9.2460 C   0  0  0  0  0  0  0  0  0  0  0  0
   28.6600   34.2380    8.6940 C   0  0  0  0  0  0  0  0  0  0  0  0
   27.6570   33.6420    9.6200 N   0  0  0  0  0  0  0  0  0  0  0  0
  1  2  1  0  0  0  0
  3  4  1  0  0  0  0
  3  2  1  0  0  0  0
  5  4  1  0  0  0  0
  5  6  1  0  0  0  0
M  END
>  <EGIN_R>
ES LYS A 135

>  <REMARK>
  4 active torsions:
  status: ('A' for Active; 'I' for Inactive)
    5  A    between atoms: CA   and  CB  
    6  A    between atoms: CB   and  CG  
    7  A    between atoms: CG   and  CD  
    8  A    between atoms: CD   and  CE  

$$$$
