ligand_75_pose_7_2HRL.pdbqt
 OpenBabel07062320523D

 55 56  0  0  1  0  0  0  0  0999 V2000
   23.5750   36.9740   10.3460 N   0  0  0  0  0  0  0  0  0  0  0  0
   23.0500   35.8130   10.9590 C   0  0  0  0  0  0  0  0  0  0  0  0
   21.9990   35.2610   10.5710 O   0  0  0  0  0  0  0  0  0  0  0  0
   24.4830   37.3580   10.7810 H   0  0  0  0  0  0  0  0  0  0  0  0
   23.0160   37.6650    9.2200 C   0  0  0  0  0  0  0  0  0  0  0  0
   23.6720   37.2400    7.9450 C   0  0  2  0  0  0  0  0  0  0  0  0
   25.0180   37.8920    7.6970 C   0  0  2  0  0  0  0  0  0  0  0  0
   26.1080   36.8840    7.7000 C   0  0  2  0  0  0  0  0  0  0  0  0
   27.6210   35.5770    8.8560 C   0  0  2  0  0  0  0  0  0  0  0  0
   27.8880   35.0360    7.4790 C   0  0  0  0  0  0  0  0  0  0  0  0
   26.5390   36.4350    8.9080 O   0  0  0  0  0  0  0  0  0  0  0  0
   27.9850   36.0530    6.4020 C   0  0  1  0  0  0  0  0  0  0  0  0
   27.2930   37.3210    6.8400 C   0  0  1  0  0  0  0  0  0  0  0  0
   28.7890   36.1430    9.3640 O   0  0  0  0  0  0  0  0  0  0  0  0
   28.7960   36.1790   10.3440 H   0  0  0  0  0  0  0  0  0  0  0  0
   27.2920   34.4130    9.7250 C   0  0  0  0  0  0  0  0  0  0  0  0
   28.0150   33.3620    9.6610 O   0  0  0  0  0  0  0  0  0  0  0  0
   26.2210   34.4260   10.6080 O   0  0  0  0  0  0  0  0  0  0  0  0
   25.6130   33.6430   10.7380 H   0  0  0  0  0  0  0  0  0  0  0  0
   29.2890   36.2970    5.9810 O   0  0  0  0  0  0  0  0  0  0  0  0
   29.8530   35.5380    6.2020 H   0  0  0  0  0  0  0  0  0  0  0  0
   26.9040   38.1510    5.7430 N   0  0  0  0  0  0  0  0  0  0  0  0
   27.7590   39.1410    5.1930 C   0  0  0  0  0  0  0  0  0  0  0  0
   25.9470   38.0580    5.2900 H   0  0  0  0  0  0  0  0  0  0  0  0
   27.3150   39.9750    4.0600 C   0  0  0  0  0  0  0  0  0  0  0  0
   28.9100   39.3270    5.6610 O   0  0  0  0  0  0  0  0  0  0  0  0
   25.2320   38.9890    8.5250 O   0  0  0  0  0  0  0  0  0  0  0  0
   25.6810   38.6710    9.3380 H   0  0  0  0  0  0  0  0  0  0  0  0
   22.8550   37.4750    6.8370 O   0  0  0  0  0  0  0  0  0  0  0  0
   23.4370   37.7010    6.0600 H   0  0  0  0  0  0  0  0  0  0  0  0
   23.7030   35.2160   12.0580 O   0  0  0  0  0  0  0  0  0  0  0  0
   24.1600   36.0280   13.0920 C   0  0  0  0  0  0  0  0  0  0  0  0
   25.6340   36.1850   13.0930 C   0  0  0  0  0  0  0  0  0  0  0  0
   26.4120   37.2860   12.8230 C   0  0  0  0  0  0  0  0  0  0  0  0
   26.5040   35.2020   13.3810 N   0  0  0  0  0  0  0  0  0  0  0  0
   27.7220   36.9580   12.9490 N   0  0  0  0  0  0  0  0  0  0  0  0
   27.7440   35.6830   13.2890 N   0  0  0  0  0  0  0  0  0  0  0  0
   28.8190   37.8510   12.7430 C   0  0  0  0  0  0  0  0  0  0  0  0
   28.9710   38.5290   11.5620 C   0  0  0  0  0  0  0  0  0  0  0  0
   29.7500   38.0430   13.7360 C   0  0  0  0  0  0  0  0  0  0  0  0
   30.0600   39.4190   11.3480 C   0  0  0  0  0  0  0  0  0  0  0  0
   30.8160   38.8810   13.5940 C   0  0  0  0  0  0  0  0  0  0  0  0
   30.9530   39.5690   12.3760 C   0  0  0  0  0  0  0  0  0  0  0  0
   30.1390   40.1250   10.1180 C   0  0  0  0  0  0  0  0  0  0  0  0
   30.5840   39.9550    8.9340 C   0  0  0  0  0  0  0  0  0  0  0  0
   31.2420   38.9250    8.2350 C   0  0  0  0  0  0  0  0  0  0  0  0
   32.2440   39.2640    7.4250 O   0  0  0  0  0  0  0  0  0  0  0  0
   31.0590   37.5650    8.2060 O   0  0  0  0  0  0  0  0  0  0  0  0
   31.6370   36.9140    8.7130 H   0  0  0  0  0  0  0  0  0  0  0  0
   29.8670   25.5550   16.9770 C   0  0  0  0  0  0  0  0  0  0  0  0
   28.3450   25.7220   17.0260 C   0  0  0  0  0  0  0  0  0  0  0  0
   27.5990   24.4760   16.5740 C   0  0  0  0  0  0  0  0  0  0  0  0
   27.0850   23.6710   17.7360 C   0  0  0  0  0  0  0  0  0  0  0  0
   25.7160   24.1970   18.1540 C   0  0  0  0  0  0  0  0  0  0  0  0
   24.8630   24.4280   16.9640 N   0  0  0  0  0  0  0  0  0  0  0  0
  1  4  1  0  0  0  0
  1  2  1  0  0  0  0
  2 31  1  0  0  0  0
  3  2  2  0  0  0  0
  5  1  1  0  0  0  0
  6  5  1  1  0  0  0
  7  6  1  0  0  0  0
  7 27  1  1  0  0  0
  8  7  1  1  0  0  0
  8 11  1  0  0  0  0
  9 11  1  0  0  0  0
  9 14  1  1  0  0  0
  9 16  1  0  0  0  0
 10  9  1  0  0  0  0
 12 20  1  1  0  0  0
 12 13  1  0  0  0  0
 12 10  1  0  0  0  0
 13 22  1  6  0  0  0
 13  8  1  0  0  0  0
 14 15  1  0  0  0  0
 16 18  1  0  0  0  0
 17 16  2  0  0  0  0
 18 19  1  0  0  0  0
 20 21  1  0  0  0  0
 23 26  2  0  0  0  0
 23 22  1  0  0  0  0
 24 22  1  0  0  0  0
 25 23  1  0  0  0  0
 27 28  1  0  0  0  0
 29  6  1  0  0  0  0
 30 29  1  0  0  0  0
 31 32  1  0  0  0  0
 32 33  1  0  0  0  0
 33 35  1  0  0  0  0
 34 36  1  0  0  0  0
 34 33  2  0  0  0  0
 36 37  1  0  0  0  0
 37 35  2  0  0  0  0
 38 36  1  0  0  0  0
 38 40  2  0  0  0  0
 39 38  1  0  0  0  0
 41 39  2  0  0  0  0
 41 43  1  0  0  0  0
 42 40  1  0  0  0  0
 43 42  2  0  0  0  0
 44 41  1  0  0  0  0
 45 44  2  0  0  0  0
 46 45  1  0  0  0  0
 47 46  2  0  0  0  0
 48 46  1  0  0  0  0
 48 49  1  0  0  0  0
 50 51  1  0  0  0  0
 52 51  1  0  0  0  0
 52 53  1  0  0  0  0
 53 54  1  0  0  0  0
 55 54  1  0  0  0  0
M  END
>  <REMARK>
 VINA RESULT:    -5.056      3.328      6.467
 INTER + INTRA:         -15.808
 INTER:                  -9.768
 INTRA:                  -6.040
 UNBOUND:                -6.317
 SMILES CC(=O)N[C@@H]1[C@@H](O)C[C@](O)(C(=O)O)O[C@H]1C(O)[C@H](O)CNC(=O)OCc1cn(-c2cccc(C=CC(=O)O)c2)nn1
 SMILES IDX 21 1 22 2 23 3 20 5 18 6 16 7 15 8 9 9 8 10 14 11 6 12 5 13
 SMILES IDX 10 14 11 16 12 17 13 18 7 20 4 22 2 23 1 25 3 26 17 27 19 29
 SMILES IDX 24 31 25 32 26 33 27 34 41 35 28 36 40 37 29 38 39 39 30 40
 SMILES IDX 33 41 31 42 32 43 34 44 35 45 36 46 37 47 38 48
 H PARENT 21 4 10 15 13 19 7 21 4 24 17 28 19 30 38 49
 Flexibility Score: inf
  4 active torsions:
  status: ('A' for Active; 'I' for Inactive)
    1  A    between atoms: CA   and  CB  
    2  A    between atoms: CB   and  CG  
    3  A    between atoms: CG   and  CD  
    4  A    between atoms: CD   and  CE  

>  <TORSDO>
F 18

>  <BEGIN_>
RES LYS A 131

$$$$
ligand_75_pose_7_2HRL.pdbqt
 OpenBabel07062320523D

  6  5  0  0  0  0  0  0  0  0999 V2000
   33.1930   34.6630    9.2900 C   0  0  0  0  0  0  0  0  0  0  0  0
   32.0600   35.3600   10.0340 C   0  0  0  0  0  0  0  0  0  0  0  0
   32.5180   36.1270   11.2480 C   0  0  0  0  0  0  0  0  0  0  0  0
   31.9340   35.5230   12.5160 C   0  0  0  0  0  0  0  0  0  0  0  0
   33.0230   35.2970   13.5480 C   0  0  0  0  0  0  0  0  0  0  0  0
   32.6960   35.9790   14.8310 N   0  0  0  0  0  0  0  0  0  0  0  0
  1  2  1  0  0  0  0
  2  3  1  0  0  0  0
  3  4  1  0  0  0  0
  4  5  1  0  0  0  0
  5  6  1  0  0  0  0
M  END
>  <EGIN_R>
ES LYS A 135

>  <REMARK>
  4 active torsions:
  status: ('A' for Active; 'I' for Inactive)
    5  A    between atoms: CA   and  CB  
    6  A    between atoms: CB   and  CG  
    7  A    between atoms: CG   and  CD  
    8  A    between atoms: CD   and  CE  

$$$$
