ligand_22_pose_11_2HRL.pdbqt
 OpenBabel07062320523D

 50 50  0  0  1  0  0  0  0  0999 V2000
   25.4410   33.7480   14.8010 N   0  0  0  0  0  0  0  0  0  0  0  0
   25.5950   35.1480   14.9260 C   0  0  0  0  0  0  0  0  0  0  0  0
   25.2350   35.7510   15.9950 O   0  0  0  0  0  0  0  0  0  0  0  0
   25.7380   33.2680   13.9310 H   0  0  0  0  0  0  0  0  0  0  0  0
   24.8700   33.0290   15.9110 C   0  0  0  0  0  0  0  0  0  0  0  0
   25.8010   32.1130   16.6230 C   0  0  2  0  0  0  0  0  0  0  0  0
   26.5000   32.7550   17.7950 C   0  0  1  0  0  0  0  0  0  0  0  0
   27.9940   32.8430   17.4590 C   0  0  2  0  0  0  0  0  0  0  0  0
   29.8830   31.4920   17.5940 C   0  0  2  0  0  0  0  0  0  0  0  0
   30.6810   32.6200   18.2100 C   0  0  0  0  0  0  0  0  0  0  0  0
   28.5280   31.6040   17.7950 O   0  0  0  0  0  0  0  0  0  0  0  0
   29.7940   33.4630   19.0790 C   0  0  1  0  0  0  0  0  0  0  0  0
   28.6260   33.9660   18.2530 C   0  0  1  0  0  0  0  0  0  0  0  0
   30.2860   30.3240   18.2590 O   0  0  0  0  0  0  0  0  0  0  0  0
   31.1830   30.4390   18.6220 H   0  0  0  0  0  0  0  0  0  0  0  0
   30.2180   31.3380   16.1620 C   0  0  0  0  0  0  0  0  0  0  0  0
   29.4790   30.6640   15.4160 O   0  0  0  0  0  0  0  0  0  0  0  0
   31.3430   31.9240   15.6020 O   0  0  0  0  0  0  0  0  0  0  0  0
   32.0750   32.3350   16.1640 H   0  0  0  0  0  0  0  0  0  0  0  0
   29.3910   32.8250   20.2270 O   0  0  0  0  0  0  0  0  0  0  0  0
   28.7410   33.3230   20.7690 H   0  0  0  0  0  0  0  0  0  0  0  0
   29.1590   34.9960   17.3630 N   0  0  0  0  0  0  0  0  0  0  0  0
   28.6060   36.3050   17.3340 C   0  0  0  0  0  0  0  0  0  0  0  0
   29.9590   34.7780   16.7330 H   0  0  0  0  0  0  0  0  0  0  0  0
   29.1380   37.3690   16.4310 C   0  0  0  0  0  0  0  0  0  0  0  0
   27.6310   36.5190   18.1220 O   0  0  0  0  0  0  0  0  0  0  0  0
   26.0010   33.9670   18.1790 O   0  0  0  0  0  0  0  0  0  0  0  0
   25.0880   34.0900   17.8530 H   0  0  0  0  0  0  0  0  0  0  0  0
   26.7770   31.7310   15.6670 O   0  0  0  0  0  0  0  0  0  0  0  0
   26.4740   30.8800   15.2350 H   0  0  0  0  0  0  0  0  0  0  0  0
   26.1260   35.9530   13.9390 O   0  0  0  0  0  0  0  0  0  0  0  0
   26.9170   35.4050   12.8700 C   0  0  0  0  0  0  0  0  0  0  0  0
   28.2690   35.1160   13.4150 C   0  0  0  0  0  0  0  0  0  0  0  0
   29.4060   35.8770   13.1940 C   0  0  0  0  0  0  0  0  0  0  0  0
   28.6810   34.1050   14.2040 N   0  0  0  0  0  0  0  0  0  0  0  0
   30.4550   35.3200   13.8410 N   0  0  0  0  0  0  0  0  0  0  0  0
   29.9770   34.2470   14.4430 N   0  0  0  0  0  0  0  0  0  0  0  0
   31.8110   35.8280   13.8490 C   0  0  0  0  0  0  0  0  0  0  0  0
   32.4920   35.5230   12.5310 C   0  0  0  0  0  0  0  0  0  0  0  0
   31.7850   37.3250   14.0770 C   0  0  0  0  0  0  0  0  0  0  0  0
   32.6210   35.1720   14.9170 C   0  0  0  0  0  0  0  0  0  0  0  0
   33.8000   34.8450   14.6300 O   0  0  0  0  0  0  0  0  0  0  0  0
   32.1170   34.9240   16.1790 O   0  0  0  0  0  0  0  0  0  0  0  0
   31.9220   35.7280   16.7690 H   0  0  0  0  0  0  0  0  0  0  0  0
   29.8670   25.5550   16.9770 C   0  0  0  0  0  0  0  0  0  0  0  0
   28.3450   25.7220   17.0260 C   0  0  0  0  0  0  0  0  0  0  0  0
   27.6010   24.4010   16.9070 C   0  0  0  0  0  0  0  0  0  0  0  0
   26.5240   24.2610   17.9460 C   0  0  0  0  0  0  0  0  0  0  0  0
   25.1870   23.9980   17.2600 C   0  0  0  0  0  0  0  0  0  0  0  0
   24.7530   22.6000   17.4880 N   0  0  0  0  0  0  0  0  0  0  0  0
  1  2  1  0  0  0  0
  1  5  1  0  0  0  0
  2  3  2  0  0  0  0
  4  1  1  0  0  0  0
  6  5  1  6  0  0  0
  6  7  1  0  0  0  0
  7 27  1  6  0  0  0
  8  7  1  1  0  0  0
  8 11  1  0  0  0  0
  8 13  1  0  0  0  0
  9 16  1  6  0  0  0
  9 11  1  0  0  0  0
  9 10  1  0  0  0  0
  9 14  1  0  0  0  0
 10 12  1  0  0  0  0
 12 20  1  1  0  0  0
 13 22  1  6  0  0  0
 13 12  1  0  0  0  0
 14 15  1  0  0  0  0
 17 16  2  0  0  0  0
 18 16  1  0  0  0  0
 18 19  1  0  0  0  0
 20 21  1  0  0  0  0
 23 22  1  0  0  0  0
 23 26  2  0  0  0  0
 24 22  1  0  0  0  0
 25 23  1  0  0  0  0
 28 27  1  0  0  0  0
 29  6  1  0  0  0  0
 30 29  1  0  0  0  0
 31  2  1  0  0  0  0
 32 33  1  0  0  0  0
 32 31  1  0  0  0  0
 33 35  1  0  0  0  0
 34 33  2  0  0  0  0
 34 36  1  0  0  0  0
 35 37  2  0  0  0  0
 36 38  1  0  0  0  0
 36 37  1  0  0  0  0
 38 40  1  0  0  0  0
 38 41  1  0  0  0  0
 39 38  1  0  0  0  0
 41 43  1  0  0  0  0
 42 41  2  0  0  0  0
 43 44  1  0  0  0  0
 45 46  1  0  0  0  0
 47 46  1  0  0  0  0
 47 48  1  0  0  0  0
 49 50  1  0  0  0  0
 49 48  1  0  0  0  0
M  END
>  <REMARK>
 VINA RESULT:    -4.853      2.338      5.216
 INTER + INTRA:         -14.404
 INTER:                  -6.336
 INTRA:                  -8.068
 UNBOUND:                -5.578
 SMILES CC(=O)N[C@@H]1[C@@H](O)C[C@](O)(C(=O)O)O[C@H]1C(O)[C@H](O)CNC(=O)OCc1cn(C(C)(C)C(=O)O)nn1
 SMILES IDX 21 1 22 2 23 3 20 5 18 6 16 7 15 8 9 9 8 10 14 11 6 12 5 13
 SMILES IDX 10 14 11 16 12 17 13 18 7 20 4 22 2 23 1 25 3 26 17 27 19 29
 SMILES IDX 24 31 25 32 26 33 27 34 36 35 28 36 35 37 29 38 30 39 31 40
 SMILES IDX 32 41 33 42 34 43
 H PARENT 21 4 10 15 13 19 7 21 4 24 17 28 19 30 34 44
 Flexibility Score: inf
  4 active torsions:
  status: ('A' for Active; 'I' for Inactive)
    1  A    between atoms: CA   and  CB  
    2  A    between atoms: CB   and  CG  
    3  A    between atoms: CG   and  CD  
    4  A    between atoms: CD   and  CE  

>  <TORSDO>
F 17

>  <BEGIN_>
RES LYS A 131

$$$$
ligand_22_pose_11_2HRL.pdbqt
 OpenBabel07062320523D

  6  5  0  0  0  0  0  0  0  0999 V2000
   33.1930   34.6630    9.2900 C   0  0  0  0  0  0  0  0  0  0  0  0
   32.0600   35.3600   10.0340 C   0  0  0  0  0  0  0  0  0  0  0  0
   30.7630   35.3870    9.2680 C   0  0  0  0  0  0  0  0  0  0  0  0
   29.7410   34.4610    9.9100 C   0  0  0  0  0  0  0  0  0  0  0  0
   28.6310   34.1320    8.9300 C   0  0  0  0  0  0  0  0  0  0  0  0
   27.3820   33.7450    9.6450 N   0  0  0  0  0  0  0  0  0  0  0  0
  1  2  1  0  0  0  0
  3  4  1  0  0  0  0
  3  2  1  0  0  0  0
  5  6  1  0  0  0  0
  5  4  1  0  0  0  0
M  END
>  <EGIN_R>
ES LYS A 135

>  <REMARK>
  4 active torsions:
  status: ('A' for Active; 'I' for Inactive)
    5  A    between atoms: CA   and  CB  
    6  A    between atoms: CB   and  CG  
    7  A    between atoms: CG   and  CD  
    8  A    between atoms: CD   and  CE  

$$$$
