ligand_68_pose_5_2HRL.pdbqt
 OpenBabel07062320523D

 53 54  0  0  1  0  0  0  0  0999 V2000
   27.5720   27.7060   18.5730 N   0  0  0  0  0  0  0  0  0  0  0  0
   26.2580   28.1090   18.2260 C   0  0  0  0  0  0  0  0  0  0  0  0
   25.3870   28.1600   19.1240 O   0  0  0  0  0  0  0  0  0  0  0  0
   28.2520   27.6930   17.7510 H   0  0  0  0  0  0  0  0  0  0  0  0
   28.0010   27.3380   19.9020 C   0  0  0  0  0  0  0  0  0  0  0  0
   28.5370   28.5220   20.6780 C   0  0  2  0  0  0  0  0  0  0  0  0
   30.0090   28.3010   21.0290 C   0  0  2  0  0  0  0  0  0  0  0  0
   30.9080   29.4390   20.6270 C   0  0  2  0  0  0  0  0  0  0  0  0
   32.5450   29.0180   22.2460 C   0  0  2  0  0  0  0  0  0  0  0  0
   31.6790   29.6830   23.2390 C   0  0  0  0  0  0  0  0  0  0  0  0
   32.2210   29.0770   20.9330 O   0  0  0  0  0  0  0  0  0  0  0  0
   30.7390   30.7360   22.7400 C   0  0  1  0  0  0  0  0  0  0  0  0
   30.5230   30.7150   21.2460 C   0  0  1  0  0  0  0  0  0  0  0  0
   32.5360   27.6310   22.5830 O   0  0  0  0  0  0  0  0  0  0  0  0
   33.4770   27.4000   22.7420 H   0  0  0  0  0  0  0  0  0  0  0  0
   33.9730   29.4410   22.4990 C   0  0  0  0  0  0  0  0  0  0  0  0
   34.3240   30.6440   22.4930 O   0  0  0  0  0  0  0  0  0  0  0  0
   34.9440   28.4760   22.7470 O   0  0  0  0  0  0  0  0  0  0  0  0
   35.9210   28.5990   22.5310 H   0  0  0  0  0  0  0  0  0  0  0  0
   29.4920   30.6170   23.4170 O   0  0  0  0  0  0  0  0  0  0  0  0
   29.2490   29.6720   23.3860 H   0  0  0  0  0  0  0  0  0  0  0  0
   31.2420   31.8670   20.7260 N   0  0  0  0  0  0  0  0  0  0  0  0
   30.8110   32.6360   19.6170 C   0  0  0  0  0  0  0  0  0  0  0  0
   32.1230   32.1080   21.2290 H   0  0  0  0  0  0  0  0  0  0  0  0
   31.5680   33.8060   19.1110 C   0  0  0  0  0  0  0  0  0  0  0  0
   29.7360   32.2660   19.0770 O   0  0  0  0  0  0  0  0  0  0  0  0
   30.3530   27.2030   20.1500 O   0  0  0  0  0  0  0  0  0  0  0  0
   31.2110   26.8210   20.3870 H   0  0  0  0  0  0  0  0  0  0  0  0
   27.7410   28.7320   21.7800 O   0  0  0  0  0  0  0  0  0  0  0  0
   27.2540   29.5780   21.6440 H   0  0  0  0  0  0  0  0  0  0  0  0
   25.8870   28.4520   16.9350 O   0  0  0  0  0  0  0  0  0  0  0  0
   25.7380   29.7940   16.5160 C   0  0  0  0  0  0  0  0  0  0  0  0
   27.0710   30.3380   16.1830 C   0  0  0  0  0  0  0  0  0  0  0  0
   27.3560   31.6430   15.8110 C   0  0  0  0  0  0  0  0  0  0  0  0
   28.2710   29.7140   16.1650 N   0  0  0  0  0  0  0  0  0  0  0  0
   28.6770   31.7660   15.5860 N   0  0  0  0  0  0  0  0  0  0  0  0
   29.2010   30.5860   15.8070 N   0  0  0  0  0  0  0  0  0  0  0  0
   29.3560   33.0030   15.1750 C   0  0  0  0  0  0  0  0  0  0  0  0
   30.7770   32.9690   15.6810 C   0  0  1  0  0  0  0  0  0  0  0  0
   31.4980   32.1100   14.8210 O   0  0  0  0  0  0  0  0  0  0  0  0
   31.7260   32.6060   13.9870 H   0  0  0  0  0  0  0  0  0  0  0  0
   31.3760   34.3150   15.5790 C   0  0  0  0  0  0  0  0  0  0  0  0
   30.6230   35.4700   15.6230 C   0  0  0  0  0  0  0  0  0  0  0  0
   32.7650   34.4260   15.4340 C   0  0  0  0  0  0  0  0  0  0  0  0
   31.2000   36.7120   15.5280 C   0  0  0  0  0  0  0  0  0  0  0  0
   33.3420   35.6600   15.3400 C   0  0  0  0  0  0  0  0  0  0  0  0
   32.5650   36.7960   15.3860 C   0  0  0  0  0  0  0  0  0  0  0  0
   29.8670   25.5550   16.9770 C   0  0  0  0  0  0  0  0  0  0  0  0
   28.3450   25.7220   17.0260 C   0  0  0  0  0  0  0  0  0  0  0  0
   27.6000   24.4070   16.8520 C   0  0  0  0  0  0  0  0  0  0  0  0
   26.7310   24.0880   18.0370 C   0  0  0  0  0  0  0  0  0  0  0  0
   25.3220   23.7530   17.5580 C   0  0  0  0  0  0  0  0  0  0  0  0
   24.6080   24.9840   17.1440 N   0  0  0  0  0  0  0  0  0  0  0  0
  1  5  1  0  0  0  0
  2  1  1  0  0  0  0
  2  3  2  0  0  0  0
  4  1  1  0  0  0  0
  6  5  1  1  0  0  0
  6  7  1  0  0  0  0
  6 29  1  0  0  0  0
  7 27  1  6  0  0  0
  8 11  1  0  0  0  0
  8  7  1  1  0  0  0
  8 13  1  0  0  0  0
  9 16  1  1  0  0  0
  9 14  1  0  0  0  0
  9 10  1  0  0  0  0
 11  9  1  0  0  0  0
 12 10  1  0  0  0  0
 12 20  1  1  0  0  0
 13 22  1  6  0  0  0
 13 12  1  0  0  0  0
 14 15  1  0  0  0  0
 16 18  1  0  0  0  0
 17 16  2  0  0  0  0
 19 18  1  0  0  0  0
 21 20  1  0  0  0  0
 22 24  1  0  0  0  0
 23 22  1  0  0  0  0
 25 23  1  0  0  0  0
 26 23  2  0  0  0  0
 27 28  1  0  0  0  0
 30 29  1  0  0  0  0
 31  2  1  0  0  0  0
 32 31  1  0  0  0  0
 33 32  1  0  0  0  0
 34 33  2  0  0  0  0
 35 33  1  0  0  0  0
 36 37  1  0  0  0  0
 36 34  1  0  0  0  0
 37 35  2  0  0  0  0
 38 36  1  0  0  0  0
 39 38  1  6  0  0  0
 40 39  1  0  0  0  0
 41 40  1  0  0  0  0
 42 43  1  0  0  0  0
 42 39  1  0  0  0  0
 44 42  2  0  0  0  0
 45 43  2  0  0  0  0
 46 47  2  0  0  0  0
 46 44  1  0  0  0  0
 47 45  1  0  0  0  0
 48 49  1  0  0  0  0
 50 49  1  0  0  0  0
 50 51  1  0  0  0  0
 52 51  1  0  0  0  0
 53 52  1  0  0  0  0
M  END
>  <REMARK>
 VINA RESULT:    -5.709      2.017      3.410
 INTER + INTRA:         -15.728
 INTER:                  -9.619
 INTRA:                  -6.109
 UNBOUND:                -5.012
 SMILES CC(=O)N[C@@H]1[C@@H](O)C[C@](O)(C(=O)O)O[C@H]1C(O)[C@H](O)CNC(=O)OCc1cn(CC(O)c2ccccc2)nn1
 SMILES IDX 21 1 22 2 23 3 20 5 18 6 16 7 15 8 9 9 8 10 14 11 6 12 5 13
 SMILES IDX 10 14 11 16 12 17 13 18 7 20 4 22 2 23 1 25 3 26 17 27 19 29
 SMILES IDX 24 31 25 32 26 33 27 34 39 35 28 36 38 37 29 38 30 39 31 40
 SMILES IDX 32 42 33 43 37 44 34 45 36 46 35 47
 H PARENT 21 4 10 15 13 19 7 21 4 24 17 28 19 30 31 41
 Flexibility Score: inf
  4 active torsions:
  status: ('A' for Active; 'I' for Inactive)
    1  A    between atoms: CA   and  CB  
    2  A    between atoms: CB   and  CG  
    3  A    between atoms: CG   and  CD  
    4  A    between atoms: CD   and  CE  

>  <TORSDO>
F 18

>  <BEGIN_>
RES LYS A 131

$$$$
ligand_68_pose_5_2HRL.pdbqt
 OpenBabel07062320523D

  6  5  0  0  0  0  0  0  0  0999 V2000
   33.1930   34.6630    9.2900 C   0  0  0  0  0  0  0  0  0  0  0  0
   32.0600   35.3600   10.0340 C   0  0  0  0  0  0  0  0  0  0  0  0
   30.8070   35.5190    9.2120 C   0  0  0  0  0  0  0  0  0  0  0  0
   30.0840   34.1880    9.0720 C   0  0  0  0  0  0  0  0  0  0  0  0
   28.6960   34.3940    8.4960 C   0  0  0  0  0  0  0  0  0  0  0  0
   28.7440   35.2450    7.2740 N   0  0  0  0  0  0  0  0  0  0  0  0
  1  2  1  0  0  0  0
  3  2  1  0  0  0  0
  4  3  1  0  0  0  0
  5  4  1  0  0  0  0
  6  5  1  0  0  0  0
M  END
>  <EGIN_R>
ES LYS A 135

>  <REMARK>
  4 active torsions:
  status: ('A' for Active; 'I' for Inactive)
    5  A    between atoms: CA   and  CB  
    6  A    between atoms: CB   and  CG  
    7  A    between atoms: CG   and  CD  
    8  A    between atoms: CD   and  CE  

$$$$
