ligand_21_pose_9_2HRL.pdbqt
 OpenBabel07062320523D

 54 55  0  0  1  0  0  0  0  0999 V2000
   29.4290   27.0750   20.1790 N   0  0  0  0  0  0  0  0  0  0  0  0
   28.1590   27.6440   19.8660 C   0  0  0  0  0  0  0  0  0  0  0  0
   27.6520   28.4420   20.6830 O   0  0  0  0  0  0  0  0  0  0  0  0
   29.8400   26.4120   19.4930 H   0  0  0  0  0  0  0  0  0  0  0  0
   30.1070   27.4070   21.4030 C   0  0  0  0  0  0  0  0  0  0  0  0
   31.5340   27.8420   21.0550 C   0  0  2  0  0  0  0  0  0  0  0  0
   31.5630   29.3370   20.8910 C   0  0  2  0  0  0  0  0  0  0  0  0
   32.5760   29.9170   21.8410 C   0  0  2  0  0  0  0  0  0  0  0  0
   34.5680   29.3840   22.9170 C   0  0  2  0  0  0  0  0  0  0  0  0
   33.8880   29.3350   24.2650 C   0  0  0  0  0  0  0  0  0  0  0  0
   33.6080   29.0440   21.9780 O   0  0  0  0  0  0  0  0  0  0  0  0
   32.8250   30.3790   24.2960 C   0  0  1  0  0  0  0  0  0  0  0  0
   31.9150   30.3540   23.0990 C   0  0  1  0  0  0  0  0  0  0  0  0
   35.4980   28.3220   22.9260 O   0  0  0  0  0  0  0  0  0  0  0  0
   35.5230   27.8700   23.8000 H   0  0  0  0  0  0  0  0  0  0  0  0
   35.2540   30.6620   22.6430 C   0  0  0  0  0  0  0  0  0  0  0  0
   35.0570   31.3600   21.6190 O   0  0  0  0  0  0  0  0  0  0  0  0
   36.1730   31.1410   23.5580 O   0  0  0  0  0  0  0  0  0  0  0  0
   37.1320   30.7940   23.6350 H   0  0  0  0  0  0  0  0  0  0  0  0
   32.0810   30.1750   25.4790 O   0  0  0  0  0  0  0  0  0  0  0  0
   32.7120   30.2180   26.2560 H   0  0  0  0  0  0  0  0  0  0  0  0
   31.3880   31.6910   22.9060 N   0  0  0  0  0  0  0  0  0  0  0  0
   30.1000   32.0760   23.3880 C   0  0  0  0  0  0  0  0  0  0  0  0
   31.9470   32.4140   22.4040 H   0  0  0  0  0  0  0  0  0  0  0  0
   29.6130   33.4560   23.1620 C   0  0  0  0  0  0  0  0  0  0  0  0
   29.3940   31.2450   23.9960 O   0  0  0  0  0  0  0  0  0  0  0  0
   30.3050   29.9080   21.1200 O   0  0  0  0  0  0  0  0  0  0  0  0
   30.4170   30.6840   21.7160 H   0  0  0  0  0  0  0  0  0  0  0  0
   31.9090   27.1450   19.9280 O   0  0  0  0  0  0  0  0  0  0  0  0
   31.5370   27.5010   19.0940 H   0  0  0  0  0  0  0  0  0  0  0  0
   27.5230   27.3090   18.6820 O   0  0  0  0  0  0  0  0  0  0  0  0
   26.4560   28.0710   18.1660 C   0  0  0  0  0  0  0  0  0  0  0  0
   27.0060   29.1950   17.3920 C   0  0  0  0  0  0  0  0  0  0  0  0
   26.9160   30.5510   17.7170 C   0  0  0  0  0  0  0  0  0  0  0  0
   27.6980   29.1630   16.2240 N   0  0  0  0  0  0  0  0  0  0  0  0
   27.5370   31.2330   16.7610 N   0  0  0  0  0  0  0  0  0  0  0  0
   28.0090   30.3910   15.8590 N   0  0  0  0  0  0  0  0  0  0  0  0
   27.6850   32.6730   16.7050 C   0  0  0  0  0  0  0  0  0  0  0  0
   29.0650   32.9290   16.1710 C   0  0  0  0  0  0  0  0  0  0  0  0
   30.1350   32.7370   17.0050 C   0  0  0  0  0  0  0  0  0  0  0  0
   29.2260   33.3460   14.8740 C   0  0  0  0  0  0  0  0  0  0  0  0
   31.4140   32.9590   16.5640 C   0  0  0  0  0  0  0  0  0  0  0  0
   30.5250   33.5760   14.4090 C   0  0  0  0  0  0  0  0  0  0  0  0
   31.5790   33.3780   15.2600 C   0  0  0  0  0  0  0  0  0  0  0  0
   29.9300   32.3150   18.3100 O   0  0  0  0  0  0  0  0  0  0  0  0
   30.3930   33.1410   19.3330 C   0  0  0  0  0  0  0  0  0  0  0  0
   31.2890   32.7250   20.1050 O   0  0  0  0  0  0  0  0  0  0  0  0
   29.8400   34.5040   19.5190 C   0  0  0  0  0  0  0  0  0  0  0  0
   29.8670   25.5550   16.9770 C   0  0  0  0  0  0  0  0  0  0  0  0
   28.3450   25.7220   17.0260 C   0  0  0  0  0  0  0  0  0  0  0  0
   27.5990   24.4330   16.7180 C   0  0  0  0  0  0  0  0  0  0  0  0
   26.7350   23.9910   17.8670 C   0  0  0  0  0  0  0  0  0  0  0  0
   25.3130   23.7470   17.3700 C   0  0  0  0  0  0  0  0  0  0  0  0
   24.6030   25.0340   17.1780 N   0  0  0  0  0  0  0  0  0  0  0  0
  1  5  1  0  0  0  0
  2  1  1  0  0  0  0
  2  3  2  0  0  0  0
  4  1  1  0  0  0  0
  6  5  1  6  0  0  0
  7  6  1  0  0  0  0
  7 27  1  1  0  0  0
  8  7  1  6  0  0  0
  8 11  1  0  0  0  0
  8 13  1  0  0  0  0
  9 16  1  6  0  0  0
  9 14  1  0  0  0  0
  9 10  1  0  0  0  0
 10 12  1  0  0  0  0
 11  9  1  0  0  0  0
 12 20  1  1  0  0  0
 13 22  1  6  0  0  0
 13 12  1  0  0  0  0
 14 15  1  0  0  0  0
 16 18  1  0  0  0  0
 17 16  2  0  0  0  0
 18 19  1  0  0  0  0
 20 21  1  0  0  0  0
 22 23  1  0  0  0  0
 23 26  2  0  0  0  0
 24 22  1  0  0  0  0
 25 23  1  0  0  0  0
 27 28  1  0  0  0  0
 29  6  1  0  0  0  0
 30 29  1  0  0  0  0
 31  2  1  0  0  0  0
 32 31  1  0  0  0  0
 33 34  2  0  0  0  0
 33 32  1  0  0  0  0
 35 33  1  0  0  0  0
 36 34  1  0  0  0  0
 37 35  2  0  0  0  0
 37 36  1  0  0  0  0
 38 36  1  0  0  0  0
 39 38  1  0  0  0  0
 39 40  2  0  0  0  0
 40 45  1  0  0  0  0
 41 39  1  0  0  0  0
 42 40  1  0  0  0  0
 43 41  2  0  0  0  0
 43 44  1  0  0  0  0
 44 42  2  0  0  0  0
 45 46  1  0  0  0  0
 46 48  1  0  0  0  0
 46 47  2  0  0  0  0
 49 50  1  0  0  0  0
 51 50  1  0  0  0  0
 51 52  1  0  0  0  0
 53 52  1  0  0  0  0
 54 53  1  0  0  0  0
M  END
>  <REMARK>
 VINA RESULT:    -4.678      9.321     15.040
 INTER + INTRA:         -15.193
 INTER:                  -9.285
 INTRA:                  -5.908
 UNBOUND:                -6.275
 SMILES CC(=O)N[C@@H]1[C@@H](O)C[C@](O)(C(=O)O)O[C@H]1C(O)[C@H](O)CNC(=O)OCc1cn(Cc2ccccc2OC(C)=O)nn1
 SMILES IDX 21 1 22 2 23 3 20 5 18 6 16 7 15 8 9 9 8 10 14 11 6 12 5 13
 SMILES IDX 10 14 11 16 12 17 13 18 7 20 4 22 2 23 1 25 3 26 17 27 19 29
 SMILES IDX 24 31 25 32 26 33 27 34 41 35 28 36 40 37 29 38 30 39 35 40
 SMILES IDX 31 41 34 42 32 43 33 44 36 45 37 46 39 47 38 48
 H PARENT 21 4 10 15 13 19 7 21 4 24 17 28 19 30
 Flexibility Score: inf
  4 active torsions:
  status: ('A' for Active; 'I' for Inactive)
    1  A    between atoms: CA   and  CB  
    2  A    between atoms: CB   and  CG  
    3  A    between atoms: CG   and  CD  
    4  A    between atoms: CD   and  CE  

>  <TORSDO>
F 18

>  <BEGIN_>
RES LYS A 131

$$$$
ligand_21_pose_9_2HRL.pdbqt
 OpenBabel07062320523D

  6  5  0  0  0  0  0  0  0  0999 V2000
   33.1930   34.6630    9.2900 C   0  0  0  0  0  0  0  0  0  0  0  0
   32.0600   35.3600   10.0340 C   0  0  0  0  0  0  0  0  0  0  0  0
   30.7000   34.7820    9.7390 C   0  0  0  0  0  0  0  0  0  0  0  0
   29.7920   34.8980   10.9540 C   0  0  0  0  0  0  0  0  0  0  0  0
   28.3780   34.4780   10.6040 C   0  0  0  0  0  0  0  0  0  0  0  0
   28.3100   33.9160    9.2270 N   0  0  0  0  0  0  0  0  0  0  0  0
  1  2  1  0  0  0  0
  3  2  1  0  0  0  0
  3  4  1  0  0  0  0
  5  4  1  0  0  0  0
  6  5  1  0  0  0  0
M  END
>  <EGIN_R>
ES LYS A 135

>  <REMARK>
  4 active torsions:
  status: ('A' for Active; 'I' for Inactive)
    5  A    between atoms: CA   and  CB  
    6  A    between atoms: CB   and  CG  
    7  A    between atoms: CG   and  CD  
    8  A    between atoms: CD   and  CE  

$$$$
