ligand_92_pose_10_2HRL.pdbqt
 OpenBabel07062320523D

 59 61  0  0  1  0  0  0  0  0999 V2000
   26.6600   33.3480   14.6130 N   0  0  0  0  0  0  0  0  0  0  0  0
   25.5400   33.0300   15.4120 C   0  0  0  0  0  0  0  0  0  0  0  0
   24.7870   33.9820   15.8130 O   0  0  0  0  0  0  0  0  0  0  0  0
   27.2740   32.5840   14.2840 H   0  0  0  0  0  0  0  0  0  0  0  0
   26.9680   34.7040   14.2440 C   0  0  0  0  0  0  0  0  0  0  0  0
   27.9820   35.3420   15.1600 C   0  0  2  0  0  0  0  0  0  0  0  0
   28.9320   34.3360   15.7420 C   0  0  1  0  0  0  0  0  0  0  0  0
   30.2760   34.9980   16.0970 C   0  0  2  0  0  0  0  0  0  0  0  0
   31.5000   34.8520   14.0850 C   0  0  2  0  0  0  0  0  0  0  0  0
   32.5910   34.1000   14.8240 C   0  0  0  0  0  0  0  0  0  0  0  0
   30.7530   35.5650   14.9550 O   0  0  0  0  0  0  0  0  0  0  0  0
   31.8760   33.1650   15.7680 C   0  0  1  0  0  0  0  0  0  0  0  0
   31.1330   34.0050   16.7780 C   0  0  1  0  0  0  0  0  0  0  0  0
   30.7040   33.8670   13.4850 O   0  0  0  0  0  0  0  0  0  0  0  0
   29.8170   33.7960   13.8840 H   0  0  0  0  0  0  0  0  0  0  0  0
   32.0720   35.6780   12.9900 C   0  0  0  0  0  0  0  0  0  0  0  0
   31.5440   36.7610   12.7010 O   0  0  0  0  0  0  0  0  0  0  0  0
   33.1840   35.2530   12.2900 O   0  0  0  0  0  0  0  0  0  0  0  0
   33.9900   34.8540   12.7940 H   0  0  0  0  0  0  0  0  0  0  0  0
   31.0460   32.3100   15.0520 O   0  0  0  0  0  0  0  0  0  0  0  0
   31.3320   32.3540   14.0930 H   0  0  0  0  0  0  0  0  0  0  0  0
   32.0940   34.5320   17.6910 N   0  0  0  0  0  0  0  0  0  0  0  0
   31.9150   34.3830   19.0840 C   0  0  0  0  0  0  0  0  0  0  0  0
   32.9300   35.0300   17.3420 H   0  0  0  0  0  0  0  0  0  0  0  0
   32.8620   34.8990   20.1040 C   0  0  0  0  0  0  0  0  0  0  0  0
   30.9050   33.7850   19.4760 O   0  0  0  0  0  0  0  0  0  0  0  0
   28.4070   33.7070   16.8940 O   0  0  0  0  0  0  0  0  0  0  0  0
   29.1000   33.1200   17.2480 H   0  0  0  0  0  0  0  0  0  0  0  0
   27.2260   35.9780   16.1680 O   0  0  0  0  0  0  0  0  0  0  0  0
   27.8380   36.6220   16.6040 H   0  0  0  0  0  0  0  0  0  0  0  0
   25.2060   31.7470   15.7920 O   0  0  0  0  0  0  0  0  0  0  0  0
   25.9680   30.6080   15.3660 C   0  0  0  0  0  0  0  0  0  0  0  0
   27.2080   30.6040   16.1960 C   0  0  0  0  0  0  0  0  0  0  0  0
   27.3050   30.2960   17.5550 C   0  0  0  0  0  0  0  0  0  0  0  0
   28.4750   30.8890   15.8280 N   0  0  0  0  0  0  0  0  0  0  0  0
   28.5850   30.4040   17.9460 N   0  0  0  0  0  0  0  0  0  0  0  0
   29.2580   30.7630   16.8710 N   0  0  0  0  0  0  0  0  0  0  0  0
   29.0630   30.1650   19.2630 C   0  0  0  0  0  0  0  0  0  0  0  0
   28.2490   29.7180   20.2780 C   0  0  0  0  0  0  0  0  0  0  0  0
   30.3910   30.3850   19.5570 C   0  0  0  0  0  0  0  0  0  0  0  0
   28.7370   29.4920   21.5640 C   0  0  0  0  0  0  0  0  0  0  0  0
   30.8770   30.1620   20.8250 C   0  0  0  0  0  0  0  0  0  0  0  0
   30.0610   29.7070   21.8680 C   0  0  0  0  0  0  0  0  0  0  0  0
   30.7190   29.4270   23.4530 S   0  0  0  0  0  0  0  0  0  0  0  0
   29.5730   28.9280   24.3240 O   0  0  0  0  0  0  0  0  0  0  0  0
   31.1310   30.7440   24.0150 O   0  0  0  0  0  0  0  0  0  0  0  0
   31.9880   28.2990   23.5010 N   0  0  0  0  0  0  0  0  0  0  0  0
   31.7340   27.2860   23.6620 H   0  0  0  0  0  0  0  0  0  0  0  0
   33.3600   28.5570   23.3530 C   0  0  0  0  0  0  0  0  0  0  0  0
   34.1430   29.4040   22.9540 N   0  0  0  0  0  0  0  0  0  0  0  0
   34.6050   27.2520   23.9170 S   0  0  0  0  0  0  0  0  0  0  0  0
   35.4370   29.3710   22.9430 C   0  0  0  0  0  0  0  0  0  0  0  0
   36.0740   28.2790   23.4240 C   0  0  0  0  0  0  0  0  0  0  0  0
   29.8670   25.5550   16.9770 C   0  0  0  0  0  0  0  0  0  0  0  0
   28.3450   25.7220   17.0260 C   0  0  0  0  0  0  0  0  0  0  0  0
   27.6020   24.3990   16.9280 C   0  0  0  0  0  0  0  0  0  0  0  0
   26.6260   24.2120   18.0560 C   0  0  0  0  0  0  0  0  0  0  0  0
   26.2900   25.5680   18.6690 C   0  0  0  0  0  0  0  0  0  0  0  0
   25.5050   25.3950   19.9130 N   0  0  0  0  0  0  0  0  0  0  0  0
  1  2  1  0  0  0  0
  2 31  1  0  0  0  0
  2  3  2  0  0  0  0
  4  1  1  0  0  0  0
  5  1  1  0  0  0  0
  6  5  1  6  0  0  0
  6  7  1  0  0  0  0
  6 29  1  0  0  0  0
  7 27  1  1  0  0  0
  8  7  1  6  0  0  0
  8 13  1  0  0  0  0
  9 16  1  6  0  0  0
  9 10  1  0  0  0  0
  9 11  1  0  0  0  0
 10 12  1  0  0  0  0
 11  8  1  0  0  0  0
 12 20  1  6  0  0  0
 12 13  1  0  0  0  0
 13 22  1  1  0  0  0
 14 15  1  0  0  0  0
 14  9  1  0  0  0  0
 17 16  2  0  0  0  0
 18 19  1  0  0  0  0
 18 16  1  0  0  0  0
 21 20  1  0  0  0  0
 22 23  1  0  0  0  0
 23 26  2  0  0  0  0
 23 25  1  0  0  0  0
 24 22  1  0  0  0  0
 27 28  1  0  0  0  0
 29 30  1  0  0  0  0
 32 31  1  0  0  0  0
 32 33  1  0  0  0  0
 33 34  2  0  0  0  0
 34 36  1  0  0  0  0
 35 33  1  0  0  0  0
 35 37  2  0  0  0  0
 36 38  1  0  0  0  0
 37 36  1  0  0  0  0
 38 40  2  0  0  0  0
 38 39  1  0  0  0  0
 39 41  2  0  0  0  0
 40 42  1  0  0  0  0
 41 43  1  0  0  0  0
 42 43  2  0  0  0  0
 43 44  1  0  0  0  0
 44 47  1  0  0  0  0
 44 46  2  0  0  0  0
 44 45  2  0  0  0  0
 47 48  1  0  0  0  0
 49 47  1  0  0  0  0
 49 51  1  0  0  0  0
 50 49  2  0  0  0  0
 52 50  1  0  0  0  0
 52 53  2  0  0  0  0
 53 51  1  0  0  0  0
 54 55  1  0  0  0  0
 56 55  1  0  0  0  0
 56 57  1  0  0  0  0
 57 58  1  0  0  0  0
 58 59  1  0  0  0  0
M  END
>  <REMARK>
 VINA RESULT:    -4.969      3.614      8.719
 INTER + INTRA:         -15.880
 INTER:                  -8.919
 INTRA:                  -6.960
 UNBOUND:                -6.408
 SMILES CC(=O)N[C@@H]1[C@@H](O)C[C@](O)(C(=O)O)O[C@H]1C(O)[C@H](O)CNC(=O)OCc1cn(-c2ccc(S(=O)(=O)Nc3nccs3)cc2)nn1
 SMILES IDX 21 1 22 2 23 3 20 5 18 6 16 7 15 8 9 9 8 10 14 11 6 12 5 13
 SMILES IDX 10 14 11 16 12 17 13 18 7 20 4 22 2 23 1 25 3 26 17 27 19 29
 SMILES IDX 24 31 25 32 26 33 27 34 45 35 28 36 44 37 29 38 30 39 43 40
 SMILES IDX 31 41 42 42 32 43 33 44 34 45 35 46 36 47 37 49 38 50 41 51
 SMILES IDX 39 52 40 53
 H PARENT 21 4 10 15 13 19 7 21 4 24 17 28 19 30 36 48
 Flexibility Score: inf
  4 active torsions:
  status: ('A' for Active; 'I' for Inactive)
    1  A    between atoms: CA   and  CB  
    2  A    between atoms: CB   and  CG  
    3  A    between atoms: CG   and  CD  
    4  A    between atoms: CD   and  CE  

>  <TORSDO>
F 18

>  <BEGIN_>
RES LYS A 131

$$$$
ligand_92_pose_10_2HRL.pdbqt
 OpenBabel07062320523D

  6  5  0  0  0  0  0  0  0  0999 V2000
   33.1930   34.6630    9.2900 C   0  0  0  0  0  0  0  0  0  0  0  0
   32.0600   35.3600   10.0340 C   0  0  0  0  0  0  0  0  0  0  0  0
   30.7100   34.7330    9.7990 C   0  0  0  0  0  0  0  0  0  0  0  0
   30.4670   34.5230    8.3120 C   0  0  0  0  0  0  0  0  0  0  0  0
   29.0290   34.8460    7.9570 C   0  0  0  0  0  0  0  0  0  0  0  0
   28.9500   35.6030    6.6760 N   0  0  0  0  0  0  0  0  0  0  0  0
  1  2  1  0  0  0  0
  3  2  1  0  0  0  0
  4  3  1  0  0  0  0
  5  4  1  0  0  0  0
  6  5  1  0  0  0  0
M  END
>  <EGIN_R>
ES LYS A 135

>  <REMARK>
  4 active torsions:
  status: ('A' for Active; 'I' for Inactive)
    5  A    between atoms: CA   and  CB  
    6  A    between atoms: CB   and  CG  
    7  A    between atoms: CG   and  CD  
    8  A    between atoms: CD   and  CE  

$$$$
