ligand_52_pose_19_2HRL.pdbqt
 OpenBabel07062320523D

 49 50  0  0  1  0  0  0  0  0999 V2000
   27.8890   34.8030   15.1190 C   0  0  0  0  0  0  0  0  0  0  0  0
   28.2570   36.0970   15.7480 C   0  0  2  0  0  0  0  0  0  0  0  0
   29.3320   36.8250   15.0350 C   0  0  2  0  0  0  0  0  0  0  0  0
   30.5900   36.0960   14.7120 C   0  0  2  0  0  0  0  0  0  0  0  0
   32.3620   34.9060   15.4750 C   0  0  2  0  0  0  0  0  0  0  0  0
   33.0180   34.9860   14.1430 C   0  0  0  0  0  0  0  0  0  0  0  0
   31.4240   35.8800   15.7610 O   0  0  0  0  0  0  0  0  0  0  0  0
   32.2090   35.5350   13.0210 C   0  0  1  0  0  0  0  0  0  0  0  0
   31.3310   36.7040   13.5550 C   0  0  1  0  0  0  0  0  0  0  0  0
   33.4130   35.1140   16.4240 O   0  0  0  0  0  0  0  0  0  0  0  0
   32.9610   35.5280   17.1950 H   0  0  0  0  0  0  0  0  0  0  0  0
   31.8230   33.5600   15.7760 C   0  0  0  0  0  0  0  0  0  0  0  0
   31.4880   33.2730   16.9520 O   0  0  0  0  0  0  0  0  0  0  0  0
   31.6480   32.5500   14.8380 O   0  0  0  0  0  0  0  0  0  0  0  0
   31.4850   32.8600   13.8740 H   0  0  0  0  0  0  0  0  0  0  0  0
   33.0280   36.1160   12.0520 O   0  0  0  0  0  0  0  0  0  0  0  0
   32.7440   35.8090   11.1550 H   0  0  0  0  0  0  0  0  0  0  0  0
   30.3960   36.9810   12.4980 N   0  0  0  0  0  0  0  0  0  0  0  0
   30.4970   38.0860   11.6230 C   0  0  0  0  0  0  0  0  0  0  0  0
   29.5800   36.3270   12.3540 H   0  0  0  0  0  0  0  0  0  0  0  0
   29.4810   38.2840   10.5640 C   0  0  0  0  0  0  0  0  0  0  0  0
   31.4490   38.8880   11.7520 O   0  0  0  0  0  0  0  0  0  0  0  0
   29.5010   38.1380   15.4340 O   0  0  0  0  0  0  0  0  0  0  0  0
   28.6960   38.6650   15.5510 H   0  0  0  0  0  0  0  0  0  0  0  0
   28.7400   35.8680   17.0600 O   0  0  0  0  0  0  0  0  0  0  0  0
   29.6430   36.2430   17.1000 H   0  0  0  0  0  0  0  0  0  0  0  0
   26.9550   34.8530   14.0340 N   0  0  0  0  0  0  0  0  0  0  0  0
   27.2630   34.7990   12.6800 C   0  0  0  0  0  0  0  0  0  0  0  0
   25.9200   34.9380   14.2760 H   0  0  0  0  0  0  0  0  0  0  0  0
   28.4320   34.7080   12.2820 O   0  0  0  0  0  0  0  0  0  0  0  0
   26.2840   34.8430   11.6720 O   0  0  0  0  0  0  0  0  0  0  0  0
   26.6360   35.1390   10.3400 C   0  0  0  0  0  0  0  0  0  0  0  0
   25.5160   35.7520    9.6010 C   0  0  0  0  0  0  0  0  0  0  0  0
   24.1930   35.3900    9.7970 C   0  0  0  0  0  0  0  0  0  0  0  0
   25.4920   36.6990    8.6640 N   0  0  0  0  0  0  0  0  0  0  0  0
   23.4200   36.1250    8.9790 N   0  0  0  0  0  0  0  0  0  0  0  0
   24.2180   36.9110    8.3020 N   0  0  0  0  0  0  0  0  0  0  0  0
   21.9950   36.0740    8.8580 C   0  0  0  0  0  0  0  0  0  0  0  0
   21.3630   36.3470    7.6570 C   0  0  0  0  0  0  0  0  0  0  0  0
   21.2230   35.7460    9.9530 C   0  0  0  0  0  0  0  0  0  0  0  0
   19.9700   36.2830    7.5880 C   0  0  0  0  0  0  0  0  0  0  0  0
   19.8650   35.6930    9.8580 N   0  0  0  0  0  0  0  0  0  0  0  0
   19.2240   35.9520    8.7040 C   0  0  0  0  0  0  0  0  0  0  0  0
   29.8670   25.5550   16.9770 C   0  0  0  0  0  0  0  0  0  0  0  0
   28.3450   25.7220   17.0260 C   0  0  0  0  0  0  0  0  0  0  0  0
   27.6010   24.4040   16.8780 C   0  0  0  0  0  0  0  0  0  0  0  0
   26.1550   24.5220   17.2750 C   0  0  0  0  0  0  0  0  0  0  0  0
   25.7480   23.2950   18.0860 C   0  0  0  0  0  0  0  0  0  0  0  0
   25.5080   23.6650   19.5010 N   0  0  0  0  0  0  0  0  0  0  0  0
  2  1  1  6  0  0  0
  2 25  1  0  0  0  0
  3 23  1  1  0  0  0
  3  2  1  0  0  0  0
  4  3  1  1  0  0  0
  4  7  1  0  0  0  0
  5  7  1  0  0  0  0
  5 12  1  1  0  0  0
  5 10  1  0  0  0  0
  6  5  1  0  0  0  0
  8 16  1  6  0  0  0
  8  9  1  0  0  0  0
  8  6  1  0  0  0  0
  9 18  1  6  0  0  0
  9  4  1  0  0  0  0
 10 11  1  0  0  0  0
 12 13  2  0  0  0  0
 14 12  1  0  0  0  0
 15 14  1  0  0  0  0
 17 16  1  0  0  0  0
 19 22  2  0  0  0  0
 19 18  1  0  0  0  0
 20 18  1  0  0  0  0
 21 19  1  0  0  0  0
 23 24  1  0  0  0  0
 25 26  1  0  0  0  0
 27 29  1  0  0  0  0
 27  1  1  0  0  0  0
 28 27  1  0  0  0  0
 30 28  2  0  0  0  0
 31 28  1  0  0  0  0
 32 31  1  0  0  0  0
 33 34  2  0  0  0  0
 33 32  1  0  0  0  0
 35 33  1  0  0  0  0
 36 34  1  0  0  0  0
 37 35  2  0  0  0  0
 37 36  1  0  0  0  0
 38 36  1  0  0  0  0
 38 40  2  0  0  0  0
 39 38  1  0  0  0  0
 41 39  2  0  0  0  0
 41 43  1  0  0  0  0
 42 40  1  0  0  0  0
 43 42  2  0  0  0  0
 44 45  1  0  0  0  0
 46 45  1  0  0  0  0
 46 47  1  0  0  0  0
 47 48  1  0  0  0  0
 48 49  1  0  0  0  0
M  END
>  <REMARK>
 VINA RESULT:    -4.694      5.157      9.369
 INTER + INTRA:         -13.288
 INTER:                  -8.124
 INTRA:                  -5.164
 UNBOUND:                -5.164
 SMILES CC(=O)N[C@@H]1[C@@H](O)C[C@](O)(C(=O)O)O[C@H]1C(O)[C@H](O)CNC(=O)OCc1cn(-c2cccnc2)nn1
 SMILES IDX 20 1 18 2 16 3 15 4 9 5 8 6 14 7 6 8 5 9 10 10 11 12 12 13
 SMILES IDX 13 14 7 16 4 18 2 19 1 21 3 22 17 23 19 25 21 27 22 28 23 30
 SMILES IDX 24 31 25 32 26 33 27 34 36 35 28 36 35 37 29 38 30 39 34 40
 SMILES IDX 31 41 33 42 32 43
 H PARENT 10 11 13 15 7 17 4 20 17 24 19 26 21 29
 Flexibility Score: inf
  4 active torsions:
  status: ('A' for Active; 'I' for Inactive)
    1  A    between atoms: CA   and  CB  
    2  A    between atoms: CB   and  CG  
    3  A    between atoms: CG   and  CD  
    4  A    between atoms: CD   and  CE  

>  <TORSDO>
F 15

>  <BEGIN_>
RES LYS A 131

$$$$
ligand_52_pose_19_2HRL.pdbqt
 OpenBabel07062320523D

  6  5  0  0  0  0  0  0  0  0999 V2000
   33.1930   34.6630    9.2900 C   0  0  0  0  0  0  0  0  0  0  0  0
   32.0600   35.3600   10.0340 C   0  0  0  0  0  0  0  0  0  0  0  0
   30.7000   34.7830    9.7380 C   0  0  0  0  0  0  0  0  0  0  0  0
   30.4340   34.7770    8.2410 C   0  0  0  0  0  0  0  0  0  0  0  0
   29.4070   35.8330    7.8780 C   0  0  0  0  0  0  0  0  0  0  0  0
   28.3030   35.2510    7.0660 N   0  0  0  0  0  0  0  0  0  0  0  0
  1  2  1  0  0  0  0
  3  2  1  0  0  0  0
  4  3  1  0  0  0  0
  5  4  1  0  0  0  0
  6  5  1  0  0  0  0
M  END
>  <EGIN_R>
ES LYS A 135

>  <REMARK>
  4 active torsions:
  status: ('A' for Active; 'I' for Inactive)
    5  A    between atoms: CA   and  CB  
    6  A    between atoms: CB   and  CG  
    7  A    between atoms: CG   and  CD  
    8  A    between atoms: CD   and  CE  

$$$$
