ligand_47_pose_11_2HRL.pdbqt
 OpenBabel07062320523D

 62 64  0  0  1  0  0  0  0  0999 V2000
   30.6090   32.1020   15.0410 N   0  0  0  0  0  0  0  0  0  0  0  0
   30.8540   33.4600   15.3730 C   0  0  0  0  0  0  0  0  0  0  0  0
   30.6600   33.8600   16.5590 O   0  0  0  0  0  0  0  0  0  0  0  0
   30.7970   31.8480   14.0270 H   0  0  0  0  0  0  0  0  0  0  0  0
   30.1420   31.1210   15.9910 C   0  0  0  0  0  0  0  0  0  0  0  0
   28.7210   30.6440   15.6890 C   0  0  2  0  0  0  0  0  0  0  0  0
   27.8650   31.1380   16.8160 C   0  0  2  0  0  0  0  0  0  0  0  0
   28.4320   30.8380   18.1740 C   0  0  2  0  0  0  0  0  0  0  0  0
   28.0020   29.4990   20.0170 C   0  0  2  0  0  0  0  0  0  0  0  0
   29.1360   30.2400   20.6780 C   0  0  0  0  0  0  0  0  0  0  0  0
   27.9130   29.6720   18.6630 O   0  0  0  0  0  0  0  0  0  0  0  0
   29.1860   31.6860   20.3190 C   0  0  1  0  0  0  0  0  0  0  0  0
   28.2150   31.9530   19.1700 C   0  0  1  0  0  0  0  0  0  0  0  0
   26.8170   29.8830   20.6530 O   0  0  0  0  0  0  0  0  0  0  0  0
   26.9820   30.6240   21.2970 H   0  0  0  0  0  0  0  0  0  0  0  0
   28.2130   28.0560   20.2850 C   0  0  0  0  0  0  0  0  0  0  0  0
   28.1250   27.6310   21.4620 O   0  0  0  0  0  0  0  0  0  0  0  0
   28.5040   27.1630   19.2760 O   0  0  0  0  0  0  0  0  0  0  0  0
   27.7370   26.7100   18.7600 H   0  0  0  0  0  0  0  0  0  0  0  0
   29.0100   32.5540   21.3680 O   0  0  0  0  0  0  0  0  0  0  0  0
   28.9690   33.4930   21.0490 H   0  0  0  0  0  0  0  0  0  0  0  0
   28.5000   33.2510   18.5760 N   0  0  0  0  0  0  0  0  0  0  0  0
   27.4440   34.1870   18.4600 C   0  0  0  0  0  0  0  0  0  0  0  0
   29.4590   33.4580   18.2560 H   0  0  0  0  0  0  0  0  0  0  0  0
   27.6760   35.5210   17.8660 C   0  0  0  0  0  0  0  0  0  0  0  0
   26.2900   33.8980   18.8610 O   0  0  0  0  0  0  0  0  0  0  0  0
   26.5610   30.7160   16.6550 O   0  0  0  0  0  0  0  0  0  0  0  0
   26.1720   30.3260   17.4880 H   0  0  0  0  0  0  0  0  0  0  0  0
   28.7830   29.2390   15.6810 O   0  0  0  0  0  0  0  0  0  0  0  0
   28.5120   28.9750   16.6100 H   0  0  0  0  0  0  0  0  0  0  0  0
   31.3020   34.3620   14.4290 O   0  0  0  0  0  0  0  0  0  0  0  0
   30.5200   34.6860   13.2730 C   0  0  0  0  0  0  0  0  0  0  0  0
   29.2680   35.3710   13.6620 C   0  0  0  0  0  0  0  0  0  0  0  0
   27.9740   34.8660   13.4620 C   0  0  0  0  0  0  0  0  0  0  0  0
   29.0710   36.5530   14.2570 N   0  0  0  0  0  0  0  0  0  0  0  0
   27.0690   35.7270   13.9270 N   0  0  0  0  0  0  0  0  0  0  0  0
   27.7770   36.7690   14.4170 N   0  0  0  0  0  0  0  0  0  0  0  0
   25.6350   35.7100   13.9970 C   0  0  0  0  0  0  0  0  0  0  0  0
   24.9940   34.3860   14.2460 C   0  0  1  0  0  0  0  0  0  0  0  0
   24.6010   34.2370   15.6480 C   0  0  0  0  0  0  0  0  0  0  0  0
   23.9800   35.0720   16.3270 O   0  0  0  0  0  0  0  0  0  0  0  0
   24.9360   33.0510   16.3370 O   0  0  0  0  0  0  0  0  0  0  0  0
   24.2560   32.2860   16.3560 H   0  0  0  0  0  0  0  0  0  0  0  0
   23.8400   34.1270   13.2940 C   0  0  0  0  0  0  0  0  0  0  0  0
   23.6010   32.6760   13.1100 C   0  0  0  0  0  0  0  0  0  0  0  0
   22.3370   32.1840   12.7630 C   0  0  0  0  0  0  0  0  0  0  0  0
   24.6070   31.7420   13.2680 C   0  0  0  0  0  0  0  0  0  0  0  0
   22.1150   30.8360   12.5900 C   0  0  0  0  0  0  0  0  0  0  0  0
   24.4020   30.3970   13.1000 C   0  0  0  0  0  0  0  0  0  0  0  0
   23.1590   29.9260   12.7600 C   0  0  0  0  0  0  0  0  0  0  0  0
   24.0080   34.7470   11.9760 C   0  0  0  0  0  0  0  0  0  0  0  0
   22.9460   35.5130   11.4790 C   0  0  0  0  0  0  0  0  0  0  0  0
   25.1440   34.6190   11.2060 C   0  0  0  0  0  0  0  0  0  0  0  0
   23.0660   36.1120   10.2470 C   0  0  0  0  0  0  0  0  0  0  0  0
   25.2670   35.2180    9.9720 C   0  0  0  0  0  0  0  0  0  0  0  0
   24.2170   35.9800    9.4710 C   0  0  0  0  0  0  0  0  0  0  0  0
   29.8670   25.5550   16.9770 C   0  0  0  0  0  0  0  0  0  0  0  0
   28.3450   25.7220   17.0260 C   0  0  0  0  0  0  0  0  0  0  0  0
   27.6020   24.3990   16.9260 C   0  0  0  0  0  0  0  0  0  0  0  0
   26.6790   24.1780   18.0910 C   0  0  0  0  0  0  0  0  0  0  0  0
   25.6640   25.3140   18.1600 C   0  0  0  0  0  0  0  0  0  0  0  0
   25.3760   25.6690   19.5690 N   0  0  0  0  0  0  0  0  0  0  0  0
  1  2  1  0  0  0  0
  1  5  1  0  0  0  0
  2  3  2  0  0  0  0
  4  1  1  0  0  0  0
  6  5  1  1  0  0  0
  6  7  1  0  0  0  0
  7 27  1  1  0  0  0
  8  7  1  6  0  0  0
  8 11  1  0  0  0  0
  8 13  1  0  0  0  0
  9 16  1  1  0  0  0
  9 14  1  0  0  0  0
  9 10  1  0  0  0  0
 11  9  1  0  0  0  0
 12 10  1  0  0  0  0
 12 20  1  1  0  0  0
 13 22  1  6  0  0  0
 13 12  1  0  0  0  0
 14 15  1  0  0  0  0
 16 17  2  0  0  0  0
 18 16  1  0  0  0  0
 19 18  1  0  0  0  0
 21 20  1  0  0  0  0
 23 22  1  0  0  0  0
 23 26  2  0  0  0  0
 24 22  1  0  0  0  0
 25 23  1  0  0  0  0
 27 28  1  0  0  0  0
 29  6  1  0  0  0  0
 29 30  1  0  0  0  0
 31  2  1  0  0  0  0
 32 33  1  0  0  0  0
 32 31  1  0  0  0  0
 33 35  1  0  0  0  0
 34 33  2  0  0  0  0
 34 36  1  0  0  0  0
 35 37  2  0  0  0  0
 36 38  1  0  0  0  0
 36 37  1  0  0  0  0
 39 38  1  1  0  0  0
 39 40  1  0  0  0  0
 40 41  2  0  0  0  0
 40 42  1  0  0  0  0
 42 43  1  0  0  0  0
 44 39  1  0  0  0  0
 45 47  1  0  0  0  0
 45 44  1  0  0  0  0
 46 45  2  0  0  0  0
 48 50  2  0  0  0  0
 48 46  1  0  0  0  0
 49 47  2  0  0  0  0
 50 49  1  0  0  0  0
 51 44  1  0  0  0  0
 52 51  1  0  0  0  0
 53 51  2  0  0  0  0
 54 52  2  0  0  0  0
 55 53  1  0  0  0  0
 56 55  2  0  0  0  0
 56 54  1  0  0  0  0
 57 58  1  0  0  0  0
 59 58  1  0  0  0  0
 59 60  1  0  0  0  0
 60 61  1  0  0  0  0
 61 62  1  0  0  0  0
M  END
>  <REMARK>
 VINA RESULT:    -5.344      1.942      3.540
 INTER + INTRA:         -17.266
 INTER:                  -9.928
 INTRA:                  -7.338
 UNBOUND:                -6.299
 SMILES CC(=O)N[C@@H]1[C@@H](O)C[C@](O)(C(=O)O)O[C@H]1C(O)[C@H](O)CNC(=O)OCc1cn(C[C@@H](C(=O)O)C(c2ccccc2)c2ccccc2)nn1
 SMILES IDX 21 1 22 2 23 3 20 5 18 6 16 7 15 8 9 9 8 10 14 11 6 12 5 13
 SMILES IDX 10 14 11 16 12 17 13 18 7 20 4 22 2 23 1 25 3 26 17 27 19 29
 SMILES IDX 24 31 25 32 26 33 27 34 48 35 28 36 47 37 29 38 30 39 31 40
 SMILES IDX 32 41 33 42 34 44 35 45 36 46 40 47 37 48 39 49 38 50 41 51
 SMILES IDX 42 52 46 53 43 54 45 55 44 56
 H PARENT 21 4 10 15 13 19 7 21 4 24 17 28 19 30 33 43
 Flexibility Score: inf
  4 active torsions:
  status: ('A' for Active; 'I' for Inactive)
    1  A    between atoms: CA   and  CB  
    2  A    between atoms: CB   and  CG  
    3  A    between atoms: CG   and  CD  
    4  A    between atoms: CD   and  CE  

>  <TORSDO>
F 21

>  <BEGIN_>
RES LYS A 131

$$$$
ligand_47_pose_11_2HRL.pdbqt
 OpenBabel07062320523D

  6  5  0  0  0  0  0  0  0  0999 V2000
   33.1930   34.6630    9.2900 C   0  0  0  0  0  0  0  0  0  0  0  0
   32.0600   35.3600   10.0340 C   0  0  0  0  0  0  0  0  0  0  0  0
   30.8860   35.7060    9.1560 C   0  0  0  0  0  0  0  0  0  0  0  0
   30.4060   34.4810    8.3930 C   0  0  0  0  0  0  0  0  0  0  0  0
   28.8910   34.4130    8.3920 C   0  0  0  0  0  0  0  0  0  0  0  0
   28.3870   33.6770    9.5850 N   0  0  0  0  0  0  0  0  0  0  0  0
  1  2  1  0  0  0  0
  3  2  1  0  0  0  0
  4  3  1  0  0  0  0
  5  4  1  0  0  0  0
  5  6  1  0  0  0  0
M  END
>  <EGIN_R>
ES LYS A 135

>  <REMARK>
  4 active torsions:
  status: ('A' for Active; 'I' for Inactive)
    5  A    between atoms: CA   and  CB  
    6  A    between atoms: CB   and  CG  
    7  A    between atoms: CG   and  CD  
    8  A    between atoms: CD   and  CE  

$$$$
