ligand_73_pose_17_2HRL.pdbqt
 OpenBabel07062320523D

 54 55  0  0  1  0  0  0  0  0999 V2000
   28.8670   41.2500    9.5680 N   0  0  0  0  0  0  0  0  0  0  0  0
   28.5020   41.4440   10.9270 C   0  0  0  0  0  0  0  0  0  0  0  0
   29.3770   41.6270   11.8380 O   0  0  0  0  0  0  0  0  0  0  0  0
   28.1280   41.1120    8.8610 H   0  0  0  0  0  0  0  0  0  0  0  0
   30.2540   41.2610    9.2080 C   0  0  0  0  0  0  0  0  0  0  0  0
   30.6380   40.4670    8.0110 C   0  0  2  0  0  0  0  0  0  0  0  0
   30.3130   38.9970    8.0750 C   0  0  1  0  0  0  0  0  0  0  0  0
   29.2700   38.5470    7.1000 C   0  0  2  0  0  0  0  0  0  0  0  0
   27.6280   39.2270    5.6460 C   0  0  2  0  0  0  0  0  0  0  0  0
   27.8240   37.8000    5.1880 C   0  0  0  0  0  0  0  0  0  0  0  0
   28.4710   39.5970    6.6790 O   0  0  0  0  0  0  0  0  0  0  0  0
   27.6350   36.8790    6.3470 C   0  0  1  0  0  0  0  0  0  0  0  0
   28.5540   37.3090    7.4970 C   0  0  1  0  0  0  0  0  0  0  0  0
   26.3120   39.3390    6.0720 O   0  0  0  0  0  0  0  0  0  0  0  0
   25.7990   39.7470    5.3220 H   0  0  0  0  0  0  0  0  0  0  0  0
   27.8120   40.1000    4.4600 C   0  0  0  0  0  0  0  0  0  0  0  0
   26.9750   40.1080    3.5190 O   0  0  0  0  0  0  0  0  0  0  0  0
   28.9130   40.9280    4.3640 O   0  0  0  0  0  0  0  0  0  0  0  0
   29.7930   40.7390    4.8060 H   0  0  0  0  0  0  0  0  0  0  0  0
   26.2810   36.9600    6.7230 O   0  0  0  0  0  0  0  0  0  0  0  0
   25.8900   37.7040    6.1720 H   0  0  0  0  0  0  0  0  0  0  0  0
   29.5730   36.2580    7.6440 N   0  0  0  0  0  0  0  0  0  0  0  0
   29.4160   35.1590    8.5140 C   0  0  0  0  0  0  0  0  0  0  0  0
   30.4500   36.3330    7.0770 H   0  0  0  0  0  0  0  0  0  0  0  0
   30.4680   34.1210    8.6350 C   0  0  0  0  0  0  0  0  0  0  0  0
   28.3850   35.0560    9.1910 O   0  0  0  0  0  0  0  0  0  0  0  0
   31.4520   38.2180    7.8760 O   0  0  0  0  0  0  0  0  0  0  0  0
   32.2510   38.5770    8.2970 H   0  0  0  0  0  0  0  0  0  0  0  0
   32.0200   40.6390    7.8430 O   0  0  0  0  0  0  0  0  0  0  0  0
   32.3100   41.3410    8.4930 H   0  0  0  0  0  0  0  0  0  0  0  0
   27.1650   41.4280   11.2490 O   0  0  0  0  0  0  0  0  0  0  0  0
   26.5730   40.2480   11.6960 C   0  0  0  0  0  0  0  0  0  0  0  0
   25.8410   39.5110   10.6310 C   0  0  0  0  0  0  0  0  0  0  0  0
   24.7360   38.6830   10.7650 C   0  0  0  0  0  0  0  0  0  0  0  0
   26.1100   39.5020    9.3130 N   0  0  0  0  0  0  0  0  0  0  0  0
   24.3710   38.2060    9.5660 N   0  0  0  0  0  0  0  0  0  0  0  0
   25.2240   38.7190    8.6950 N   0  0  0  0  0  0  0  0  0  0  0  0
   23.3000   37.3280    9.2400 C   0  0  0  0  0  0  0  0  0  0  0  0
   22.8710   37.2140    7.9340 C   0  0  0  0  0  0  0  0  0  0  0  0
   22.6470   36.5630   10.1840 C   0  0  0  0  0  0  0  0  0  0  0  0
   21.8290   36.3650    7.5950 C   0  0  0  0  0  0  0  0  0  0  0  0
   21.6020   35.7020    9.8930 C   0  0  0  0  0  0  0  0  0  0  0  0
   21.2020   35.6180    8.5630 C   0  0  0  0  0  0  0  0  0  0  0  0
   20.9450   34.9280   10.8710 N   0  0  0  0  0  0  0  0  0  0  0  0
   19.7160   34.9500   10.9400 O   0  0  0  0  0  0  0  0  0  0  0  0
   21.6690   34.1620   11.7300 O   0  0  0  0  0  0  0  0  0  0  0  0
   20.1500   34.7520    8.2720 O   0  0  0  0  0  0  0  0  0  0  0  0
   19.2800   34.8520    8.8130 H   0  0  0  0  0  0  0  0  0  0  0  0
   29.8670   25.5550   16.9770 C   0  0  0  0  0  0  0  0  0  0  0  0
   28.3450   25.7220   17.0260 C   0  0  0  0  0  0  0  0  0  0  0  0
   27.6010   24.4060   16.8570 C   0  0  0  0  0  0  0  0  0  0  0  0
   26.1500   24.5240   17.2330 C   0  0  0  0  0  0  0  0  0  0  0  0
   26.0280   24.7120   18.7420 C   0  0  0  0  0  0  0  0  0  0  0  0
   25.5110   23.4770   19.3790 N   0  0  0  0  0  0  0  0  0  0  0  0
  1  2  1  0  0  0  0
  2 31  1  0  0  0  0
  2  3  2  0  0  0  0
  4  1  1  0  0  0  0
  5  1  1  0  0  0  0
  6  7  1  0  0  0  0
  6  5  1  1  0  0  0
  7 27  1  6  0  0  0
  8 13  1  0  0  0  0
  8  7  1  1  0  0  0
  9 16  1  6  0  0  0
  9 14  1  0  0  0  0
  9 11  1  0  0  0  0
 10  9  1  0  0  0  0
 10 12  1  0  0  0  0
 11  8  1  0  0  0  0
 12 20  1  1  0  0  0
 12 13  1  0  0  0  0
 13 22  1  6  0  0  0
 15 14  1  0  0  0  0
 17 16  2  0  0  0  0
 18 16  1  0  0  0  0
 18 19  1  0  0  0  0
 21 20  1  0  0  0  0
 22 23  1  0  0  0  0
 23 25  1  0  0  0  0
 23 26  2  0  0  0  0
 24 22  1  0  0  0  0
 27 28  1  0  0  0  0
 29  6  1  0  0  0  0
 29 30  1  0  0  0  0
 31 32  1  0  0  0  0
 33 34  2  0  0  0  0
 33 32  1  0  0  0  0
 35 33  1  0  0  0  0
 36 34  1  0  0  0  0
 37 35  2  0  0  0  0
 37 36  1  0  0  0  0
 38 36  1  0  0  0  0
 38 40  2  0  0  0  0
 39 38  1  0  0  0  0
 41 39  2  0  0  0  0
 41 43  1  0  0  0  0
 42 40  1  0  0  0  0
 42 44  1  0  0  0  0
 43 42  2  0  0  0  0
 44 45  2  0  0  0  0
 44 46  2  0  0  0  0
 47 43  1  0  0  0  0
 47 48  1  0  0  0  0
 49 50  1  0  0  0  0
 51 50  1  0  0  0  0
 51 52  1  0  0  0  0
 52 53  1  0  0  0  0
 53 54  1  0  0  0  0
M  END
>  <REMARK>
 VINA RESULT:    -3.881      6.540     11.932
 INTER + INTRA:         -14.368
 INTER:                  -9.371
 INTRA:                  -4.997
 UNBOUND:                -7.311
 SMILES CC(=O)N[C@@H]1[C@@H](O)C[C@](O)(C(=O)O)O[C@H]1C(O)[C@H](O)CNC(=O)OCc1cn(-c2ccc(O)c([N+](=O)[O-])c2)nn1
 SMILES IDX 21 1 22 2 23 3 20 5 18 6 16 7 15 8 9 9 8 10 14 11 6 12 5 13
 SMILES IDX 10 14 11 16 12 17 13 18 7 20 4 22 2 23 1 25 3 26 17 27 19 29
 SMILES IDX 24 31 25 32 26 33 27 34 40 35 28 36 39 37 29 38 30 39 38 40
 SMILES IDX 31 41 34 42 32 43 35 44 36 45 37 46 33 47
 H PARENT 21 4 10 15 13 19 7 21 4 24 17 28 19 30 33 48
 Flexibility Score: inf
  4 active torsions:
  status: ('A' for Active; 'I' for Inactive)
    1  A    between atoms: CA   and  CB  
    2  A    between atoms: CB   and  CG  
    3  A    between atoms: CG   and  CD  
    4  A    between atoms: CD   and  CE  

>  <TORSDO>
F 17

>  <BEGIN_>
RES LYS A 131

$$$$
ligand_73_pose_17_2HRL.pdbqt
 OpenBabel07062320523D

  6  5  0  0  0  0  0  0  0  0999 V2000
   33.1930   34.6630    9.2900 C   0  0  0  0  0  0  0  0  0  0  0  0
   32.0600   35.3600   10.0340 C   0  0  0  0  0  0  0  0  0  0  0  0
   32.5130   36.0940   11.2700 C   0  0  0  0  0  0  0  0  0  0  0  0
   31.6100   37.2870   11.5460 C   0  0  0  0  0  0  0  0  0  0  0  0
   30.1770   36.8350   11.7500 C   0  0  0  0  0  0  0  0  0  0  0  0
   29.2190   37.7960   11.1380 N   0  0  0  0  0  0  0  0  0  0  0  0
  1  2  1  0  0  0  0
  2  3  1  0  0  0  0
  3  4  1  0  0  0  0
  4  5  1  0  0  0  0
  6  5  1  0  0  0  0
M  END
>  <EGIN_R>
ES LYS A 135

>  <REMARK>
  4 active torsions:
  status: ('A' for Active; 'I' for Inactive)
    5  A    between atoms: CA   and  CB  
    6  A    between atoms: CB   and  CG  
    7  A    between atoms: CG   and  CD  
    8  A    between atoms: CD   and  CE  

$$$$
