ligand_35_pose_3_2HRL.pdbqt
 OpenBabel07062320523D

 49 49  0  0  1  0  0  0  0  0999 V2000
   27.5100   30.1040   17.2960 N   0  0  0  0  0  0  0  0  0  0  0  0
   27.1990   28.9330   18.0240 C   0  0  0  0  0  0  0  0  0  0  0  0
   27.4120   27.7860   17.5540 O   0  0  0  0  0  0  0  0  0  0  0  0
   27.3130   31.0260   17.7280 H   0  0  0  0  0  0  0  0  0  0  0  0
   28.0870   30.0540   15.9850 C   0  0  0  0  0  0  0  0  0  0  0  0
   28.5750   31.4220   15.4960 C   0  0  2  0  0  0  0  0  0  0  0  0
   29.6980   31.8340   16.3830 C   0  0  2  0  0  0  0  0  0  0  0  0
   30.7720   32.6600   15.7620 C   0  0  2  0  0  0  0  0  0  0  0  0
   31.1860   34.1120   17.5430 C   0  0  2  0  0  0  0  0  0  0  0  0
   30.0390   34.9020   17.0540 C   0  0  0  0  0  0  0  0  0  0  0  0
   31.6250   33.0640   16.7780 O   0  0  0  0  0  0  0  0  0  0  0  0
   29.8310   34.9700   15.5830 C   0  0  1  0  0  0  0  0  0  0  0  0
   30.3600   33.7620   14.8640 C   0  0  1  0  0  0  0  0  0  0  0  0
   30.7690   33.5270   18.7680 O   0  0  0  0  0  0  0  0  0  0  0  0
   29.7880   33.5540   18.7790 H   0  0  0  0  0  0  0  0  0  0  0  0
   32.3060   35.0290   17.8880 C   0  0  0  0  0  0  0  0  0  0  0  0
   33.0940   35.4800   17.0130 O   0  0  0  0  0  0  0  0  0  0  0  0
   32.5220   35.4250   19.1970 O   0  0  0  0  0  0  0  0  0  0  0  0
   32.6770   36.3890   19.4730 H   0  0  0  0  0  0  0  0  0  0  0  0
   28.4520   35.1410   15.3620 O   0  0  0  0  0  0  0  0  0  0  0  0
   28.0240   34.2970   15.6480 H   0  0  0  0  0  0  0  0  0  0  0  0
   31.5690   34.1600   14.1150 N   0  0  0  0  0  0  0  0  0  0  0  0
   31.5150   35.1580   13.1170 C   0  0  0  0  0  0  0  0  0  0  0  0
   32.4930   33.7260   14.2920 H   0  0  0  0  0  0  0  0  0  0  0  0
   32.6960   35.5880   12.3440 C   0  0  0  0  0  0  0  0  0  0  0  0
   30.4070   35.7300   12.8520 O   0  0  0  0  0  0  0  0  0  0  0  0
   30.3490   30.6100   16.7440 O   0  0  0  0  0  0  0  0  0  0  0  0
   30.9060   30.8540   17.5260 H   0  0  0  0  0  0  0  0  0  0  0  0
   27.4780   32.2650   15.6230 O   0  0  0  0  0  0  0  0  0  0  0  0
   27.3820   32.7510   14.7650 H   0  0  0  0  0  0  0  0  0  0  0  0
   26.6340   29.0090   19.3110 O   0  0  0  0  0  0  0  0  0  0  0  0
   27.0520   30.0070   20.2250 C   0  0  0  0  0  0  0  0  0  0  0  0
   28.5250   30.1840   20.1890 C   0  0  0  0  0  0  0  0  0  0  0  0
   29.4730   29.3340   20.7640 C   0  0  0  0  0  0  0  0  0  0  0  0
   29.2540   31.1670   19.6160 N   0  0  0  0  0  0  0  0  0  0  0  0
   30.6940   29.8210   20.5230 N   0  0  0  0  0  0  0  0  0  0  0  0
   30.5550   30.9240   19.8320 N   0  0  0  0  0  0  0  0  0  0  0  0
   31.9730   29.2410   20.9470 C   0  0  1  0  0  0  0  0  0  0  0  0
   32.3280   29.7420   22.3370 C   0  0  0  0  0  0  0  0  0  0  0  0
   31.9460   27.7800   20.9200 C   0  0  0  0  0  0  0  0  0  0  0  0
   31.8440   27.1370   21.9890 O   0  0  0  0  0  0  0  0  0  0  0  0
   32.0320   27.0250   19.7520 O   0  0  0  0  0  0  0  0  0  0  0  0
   32.3380   27.4420   18.8800 H   0  0  0  0  0  0  0  0  0  0  0  0
   29.8670   25.5550   16.9770 C   0  0  0  0  0  0  0  0  0  0  0  0
   28.3450   25.7220   17.0260 C   0  0  0  0  0  0  0  0  0  0  0  0
   27.5990   24.4440   16.6750 C   0  0  0  0  0  0  0  0  0  0  0  0
   27.0450   23.7590   17.8940 C   0  0  0  0  0  0  0  0  0  0  0  0
   26.0100   24.6610   18.5580 C   0  0  0  0  0  0  0  0  0  0  0  0
   24.8840   24.9290   17.6320 N   0  0  0  0  0  0  0  0  0  0  0  0
  1  4  1  0  0  0  0
  1  2  1  0  0  0  0
  2 31  1  0  0  0  0
  3  2  2  0  0  0  0
  5  1  1  0  0  0  0
  6 29  1  0  0  0  0
  6  5  1  1  0  0  0
  6  7  1  0  0  0  0
  7 27  1  6  0  0  0
  8  7  1  1  0  0  0
  8 11  1  0  0  0  0
  9 16  1  1  0  0  0
  9 14  1  0  0  0  0
 10  9  1  0  0  0  0
 11  9  1  0  0  0  0
 12 20  1  1  0  0  0
 12 10  1  0  0  0  0
 13 22  1  1  0  0  0
 13 12  1  0  0  0  0
 13  8  1  0  0  0  0
 14 15  1  0  0  0  0
 16 18  1  0  0  0  0
 17 16  2  0  0  0  0
 18 19  1  0  0  0  0
 20 21  1  0  0  0  0
 22 24  1  0  0  0  0
 23 22  1  0  0  0  0
 25 23  1  0  0  0  0
 26 23  2  0  0  0  0
 27 28  1  0  0  0  0
 30 29  1  0  0  0  0
 31 32  1  0  0  0  0
 33 32  1  0  0  0  0
 33 34  2  0  0  0  0
 35 37  2  0  0  0  0
 35 33  1  0  0  0  0
 36 34  1  0  0  0  0
 36 38  1  0  0  0  0
 37 36  1  0  0  0  0
 38 39  1  1  0  0  0
 40 38  1  0  0  0  0
 40 41  2  0  0  0  0
 42 40  1  0  0  0  0
 43 42  1  0  0  0  0
 44 45  1  0  0  0  0
 46 45  1  0  0  0  0
 46 47  1  0  0  0  0
 47 48  1  0  0  0  0
 49 48  1  0  0  0  0
M  END
>  <REMARK>
 VINA RESULT:    -5.108      2.150      5.057
 INTER + INTRA:         -14.013
 INTER:                  -8.242
 INTRA:                  -5.771
 UNBOUND:                -4.724
 SMILES CC(=O)N[C@@H]1[C@@H](O)C[C@](O)(C(=O)O)O[C@H]1C(O)[C@H](O)CNC(=O)OCc1cn([C@@H](C)C(=O)O)nn1
 SMILES IDX 21 1 22 2 23 3 20 5 18 6 16 7 15 8 9 9 8 10 14 11 6 12 5 13
 SMILES IDX 10 14 11 16 12 17 13 18 7 20 4 22 2 23 1 25 3 26 17 27 19 29
 SMILES IDX 24 31 25 32 26 33 27 34 35 35 28 36 34 37 29 38 30 39 31 40
 SMILES IDX 32 41 33 42
 H PARENT 21 4 10 15 13 19 7 21 4 24 17 28 19 30 33 43
 Flexibility Score: inf
  4 active torsions:
  status: ('A' for Active; 'I' for Inactive)
    1  A    between atoms: CA   and  CB  
    2  A    between atoms: CB   and  CG  
    3  A    between atoms: CG   and  CD  
    4  A    between atoms: CD   and  CE  

>  <TORSDO>
F 17

>  <BEGIN_>
RES LYS A 131

$$$$
ligand_35_pose_3_2HRL.pdbqt
 OpenBabel07062320523D

  6  5  0  0  0  0  0  0  0  0999 V2000
   33.1930   34.6630    9.2900 C   0  0  0  0  0  0  0  0  0  0  0  0
   32.0600   35.3600   10.0340 C   0  0  0  0  0  0  0  0  0  0  0  0
   30.7790   35.4380    9.2440 C   0  0  0  0  0  0  0  0  0  0  0  0
   30.1780   34.0530    9.0580 C   0  0  0  0  0  0  0  0  0  0  0  0
   28.6640   34.1180    9.1100 C   0  0  0  0  0  0  0  0  0  0  0  0
   28.1200   34.8900    7.9580 N   0  0  0  0  0  0  0  0  0  0  0  0
  1  2  1  0  0  0  0
  3  2  1  0  0  0  0
  4  5  1  0  0  0  0
  4  3  1  0  0  0  0
  6  5  1  0  0  0  0
M  END
>  <EGIN_R>
ES LYS A 135

>  <REMARK>
  4 active torsions:
  status: ('A' for Active; 'I' for Inactive)
    5  A    between atoms: CA   and  CB  
    6  A    between atoms: CB   and  CG  
    7  A    between atoms: CG   and  CD  
    8  A    between atoms: CD   and  CE  

$$$$
