ligand_37_pose_18_2HRL.pdbqt
 OpenBabel07062320523D

 55 56  0  0  1  0  0  0  0  0999 V2000
   29.3170   39.5550   12.9280 O   0  0  0  0  0  0  0  0  0  0  0  0
   30.3180   38.6340   13.3180 C   0  0  0  0  0  0  0  0  0  0  0  0
   30.9010   37.7680   12.3690 N   0  0  0  0  0  0  0  0  0  0  0  0
   30.5210   37.8560   11.3740 H   0  0  0  0  0  0  0  0  0  0  0  0
   30.6260   38.6560   14.5240 O   0  0  0  0  0  0  0  0  0  0  0  0
   31.9270   36.8270   12.6870 C   0  0  0  0  0  0  0  0  0  0  0  0
   31.3750   35.5460   13.2160 C   0  0  2  0  0  0  0  0  0  0  0  0
   31.8490   35.3250   14.6500 C   0  0  2  0  0  0  0  0  0  0  0  0
   30.7300   35.1490   15.6290 C   0  0  2  0  0  0  0  0  0  0  0  0
   30.6950   32.8080   15.6910 C   0  0  2  0  0  0  0  0  0  0  0  0
   29.5010   32.8280   14.7910 C   0  0  0  0  0  0  0  0  0  0  0  0
   30.9000   33.9760   16.3830 O   0  0  0  0  0  0  0  0  0  0  0  0
   28.5740   33.9430   15.2290 C   0  0  1  0  0  0  0  0  0  0  0  0
   29.3500   35.2410   15.0650 C   0  0  1  0  0  0  0  0  0  0  0  0
   31.8180   32.4340   14.9900 O   0  0  0  0  0  0  0  0  0  0  0  0
   31.6830   31.6050   14.4510 H   0  0  0  0  0  0  0  0  0  0  0  0
   30.4620   31.7530   16.7440 C   0  0  0  0  0  0  0  0  0  0  0  0
   30.7080   31.9890   17.9540 O   0  0  0  0  0  0  0  0  0  0  0  0
   29.9740   30.4940   16.4270 O   0  0  0  0  0  0  0  0  0  0  0  0
   29.1580   30.3670   15.8090 H   0  0  0  0  0  0  0  0  0  0  0  0
   27.4120   33.9370   14.4830 O   0  0  0  0  0  0  0  0  0  0  0  0
   27.4460   33.3130   13.7150 H   0  0  0  0  0  0  0  0  0  0  0  0
   28.5700   36.3400   15.6430 N   0  0  0  0  0  0  0  0  0  0  0  0
   27.5830   37.0550   14.9030 C   0  0  0  0  0  0  0  0  0  0  0  0
   28.7190   36.6410   16.6420 H   0  0  0  0  0  0  0  0  0  0  0  0
   26.8210   38.1670   15.5480 C   0  0  0  0  0  0  0  0  0  0  0  0
   27.3590   36.7430   13.7100 O   0  0  0  0  0  0  0  0  0  0  0  0
   32.6100   36.4320   15.0460 O   0  0  0  0  0  0  0  0  0  0  0  0
   33.1810   36.1720   15.8190 H   0  0  0  0  0  0  0  0  0  0  0  0
   31.8010   34.4850   12.4180 O   0  0  0  0  0  0  0  0  0  0  0  0
   32.3940   33.8490   12.9150 H   0  0  0  0  0  0  0  0  0  0  0  0
   29.2090   39.8980   11.5620 C   0  0  0  0  0  0  0  0  0  0  0  0
   27.8100   39.8930   11.0960 C   0  0  0  0  0  0  0  0  0  0  0  0
   26.7550   39.1280   11.5360 C   0  0  0  0  0  0  0  0  0  0  0  0
   27.3090   40.6730   10.1240 N   0  0  0  0  0  0  0  0  0  0  0  0
   25.6480   39.4550   10.8270 N   0  0  0  0  0  0  0  0  0  0  0  0
   26.0110   40.3850    9.9870 N   0  0  0  0  0  0  0  0  0  0  0  0
   24.3430   38.8730   10.9920 C   0  0  1  0  0  0  0  0  0  0  0  0
   23.3960   39.4120    9.9430 C   0  0  0  0  0  0  0  0  0  0  0  0
   24.4530   37.4090   10.9620 C   0  0  0  0  0  0  0  0  0  0  0  0
   24.3890   36.7560   12.0460 O   0  0  0  0  0  0  0  0  0  0  0  0
   24.6250   36.6980    9.7930 O   0  0  0  0  0  0  0  0  0  0  0  0
   25.4980   35.6330    9.5870 C   0  0  0  0  0  0  0  0  0  0  0  0
   26.3360   35.9130    8.3880 C   0  0  0  0  0  0  0  0  0  0  0  0
   26.2310   37.1190    7.7320 C   0  0  0  0  0  0  0  0  0  0  0  0
   27.2200   34.9720    7.9350 C   0  0  0  0  0  0  0  0  0  0  0  0
   27.0050   37.3830    6.6280 C   0  0  0  0  0  0  0  0  0  0  0  0
   28.0030   35.2070    6.8390 C   0  0  0  0  0  0  0  0  0  0  0  0
   27.8940   36.4120    6.1880 C   0  0  0  0  0  0  0  0  0  0  0  0
   29.8670   25.5550   16.9770 C   0  0  0  0  0  0  0  0  0  0  0  0
   28.3450   25.7220   17.0260 C   0  0  0  0  0  0  0  0  0  0  0  0
   27.6000   24.4080   16.8490 C   0  0  0  0  0  0  0  0  0  0  0  0
   26.1510   24.5220   17.2310 C   0  0  0  0  0  0  0  0  0  0  0  0
   25.6300   23.1560   17.6660 C   0  0  0  0  0  0  0  0  0  0  0  0
   25.5130   23.0910   19.1420 N   0  0  0  0  0  0  0  0  0  0  0  0
  1  2  1  0  0  0  0
  2  5  2  0  0  0  0
  3  6  1  0  0  0  0
  3  2  1  0  0  0  0
  4  3  1  0  0  0  0
  7  6  1  6  0  0  0
  7  8  1  0  0  0  0
  8 28  1  1  0  0  0
  9  8  1  6  0  0  0
  9 12  1  0  0  0  0
 10 15  1  6  0  0  0
 10 12  1  0  0  0  0
 10 17  1  0  0  0  0
 11 13  1  0  0  0  0
 11 10  1  0  0  0  0
 13 21  1  6  0  0  0
 14 13  1  0  0  0  0
 14  9  1  0  0  0  0
 14 23  1  1  0  0  0
 16 15  1  0  0  0  0
 17 18  2  0  0  0  0
 19 17  1  0  0  0  0
 20 19  1  0  0  0  0
 22 21  1  0  0  0  0
 23 25  1  0  0  0  0
 24 26  1  0  0  0  0
 24 23  1  0  0  0  0
 27 24  2  0  0  0  0
 28 29  1  0  0  0  0
 30 31  1  0  0  0  0
 30  7  1  0  0  0  0
 32  1  1  0  0  0  0
 33 34  2  0  0  0  0
 33 32  1  0  0  0  0
 35 33  1  0  0  0  0
 36 38  1  0  0  0  0
 36 34  1  0  0  0  0
 37 35  2  0  0  0  0
 37 36  1  0  0  0  0
 38 39  1  6  0  0  0
 40 38  1  0  0  0  0
 40 41  2  0  0  0  0
 42 40  1  0  0  0  0
 43 42  1  0  0  0  0
 44 43  1  0  0  0  0
 45 44  2  0  0  0  0
 46 44  1  0  0  0  0
 47 45  1  0  0  0  0
 48 46  2  0  0  0  0
 49 47  2  0  0  0  0
 49 48  1  0  0  0  0
 50 51  1  0  0  0  0
 52 51  1  0  0  0  0
 52 53  1  0  0  0  0
 53 54  1  0  0  0  0
 54 55  1  0  0  0  0
M  END
>  <REMARK>
 VINA RESULT:    -5.348      4.077      8.489
 INTER + INTRA:         -15.616
 INTER:                  -9.803
 INTRA:                  -5.813
 UNBOUND:                -5.110
 SMILES CC(=O)N[C@@H]1[C@@H](O)C[C@](O)(C(=O)O)O[C@H]1C(O)[C@H](O)CNC(=O)OCc1cn([C@@H](C)C(=O)OCc2ccccc2)nn1
 SMILES IDX 24 1 22 2 21 3 23 5 20 6 18 7 16 8 15 9 9 10 8 11 14 12 6 13
 SMILES IDX 5 14 10 15 11 17 12 18 13 19 7 21 4 23 2 24 1 26 3 27 17 28
 SMILES IDX 19 30 25 32 26 33 27 34 42 35 28 36 41 37 29 38 30 39 31 40
 SMILES IDX 32 41 33 42 34 43 35 44 36 45 40 46 37 47 39 48 38 49
 H PARENT 21 4 10 16 13 20 7 22 4 25 17 29 19 31
 Flexibility Score: inf
  4 active torsions:
  status: ('A' for Active; 'I' for Inactive)
    1  A    between atoms: CA   and  CB  
    2  A    between atoms: CB   and  CG  
    3  A    between atoms: CG   and  CD  
    4  A    between atoms: CD   and  CE  

>  <TORSDO>
F 19

>  <BEGIN_>
RES LYS A 131

$$$$
ligand_37_pose_18_2HRL.pdbqt
 OpenBabel07062320523D

  6  5  0  0  0  0  0  0  0  0999 V2000
   33.1930   34.6630    9.2900 C   0  0  0  0  0  0  0  0  0  0  0  0
   32.0600   35.3600   10.0340 C   0  0  0  0  0  0  0  0  0  0  0  0
   30.7750   35.4270    9.2490 C   0  0  0  0  0  0  0  0  0  0  0  0
   30.0780   36.7600    9.4730 C   0  0  0  0  0  0  0  0  0  0  0  0
   30.8040   37.8700    8.7390 C   0  0  0  0  0  0  0  0  0  0  0  0
   29.8420   38.8400    8.1460 N   0  0  0  0  0  0  0  0  0  0  0  0
  1  2  1  0  0  0  0
  3  4  1  0  0  0  0
  3  2  1  0  0  0  0
  5  4  1  0  0  0  0
  6  5  1  0  0  0  0
M  END
>  <EGIN_R>
ES LYS A 135

>  <REMARK>
  4 active torsions:
  status: ('A' for Active; 'I' for Inactive)
    5  A    between atoms: CA   and  CB  
    6  A    between atoms: CB   and  CG  
    7  A    between atoms: CG   and  CD  
    8  A    between atoms: CD   and  CE  

$$$$
