ligand_80_pose_5_2HRL.pdbqt
 OpenBabel07062320523D

 56 54  0  0  1  0  0  0  0  0999 V2000
   26.1700   34.0800   15.4530 O   0  0  0  0  0  0  0  0  0  0  0  0
   26.7570   32.9000   15.8380 C   0  0  0  0  0  0  0  0  0  0  0  0
   28.0920   32.5880   15.4140 N   0  0  0  0  0  0  0  0  0  0  0  0
   28.5630   33.3050   14.8140 H   0  0  0  0  0  0  0  0  0  0  0  0
   26.1640   32.0600   16.5610 O   0  0  0  0  0  0  0  0  0  0  0  0
   28.7490   31.3520   15.7970 C   0  0  0  0  0  0  0  0  0  0  0  0
   29.8800   31.6870   16.7380 C   0  0  2  0  0  0  0  0  0  0  0  0
   31.1280   32.1370   16.0080 C   0  0  2  0  0  0  0  0  0  0  0  0
   31.5240   33.5550   16.4470 C   0  0  2  0  0  0  0  0  0  0  0  0
   31.0080   34.9370   18.2710 C   0  0  2  0  0  0  0  0  0  0  0  0
   31.1340   36.0770   17.3090 C   0  0  0  0  0  0  0  0  0  0  0  0
   31.1760   33.6900   17.7350 O   0  0  0  0  0  0  0  0  0  0  0  0
   30.2840   35.7100   16.1040 C   0  0  1  0  0  0  0  0  0  0  0  0
   30.9050   34.4940   15.4650 C   0  0  1  0  0  0  0  0  0  0  0  0
   29.7010   34.9560   18.7990 O   0  0  0  0  0  0  0  0  0  0  0  0
   29.1610   35.4530   18.1320 H   0  0  0  0  0  0  0  0  0  0  0  0
   31.9370   35.0640   19.4220 C   0  0  0  0  0  0  0  0  0  0  0  0
   32.9360   35.8080   19.3240 O   0  0  0  0  0  0  0  0  0  0  0  0
   31.7350   34.3810   20.6190 O   0  0  0  0  0  0  0  0  0  0  0  0
   30.7620   34.1120   20.8280 H   0  0  0  0  0  0  0  0  0  0  0  0
   29.0220   35.3700   16.5800 O   0  0  0  0  0  0  0  0  0  0  0  0
   29.0470   34.4160   16.8350 H   0  0  0  0  0  0  0  0  0  0  0  0
   31.9560   34.9730   14.5840 N   0  0  0  0  0  0  0  0  0  0  0  0
   31.7920   35.1310   13.1820 C   0  0  0  0  0  0  0  0  0  0  0  0
   32.9020   35.2200   15.0070 H   0  0  0  0  0  0  0  0  0  0  0  0
   32.9400   35.6270   12.3870 C   0  0  0  0  0  0  0  0  0  0  0  0
   30.6780   34.8420   12.6720 O   0  0  0  0  0  0  0  0  0  0  0  0
   30.7940   32.1870   14.6510 O   0  0  0  0  0  0  0  0  0  0  0  0
   31.1250   31.4170   14.1400 H   0  0  0  0  0  0  0  0  0  0  0  0
   30.1630   30.6230   17.5870 O   0  0  0  0  0  0  0  0  0  0  0  0
   31.1220   30.5140   17.7520 H   0  0  0  0  0  0  0  0  0  0  0  0
   25.0470   34.1070   14.5870 C   0  0  0  0  0  0  0  0  0  0  0  0
   25.3090   34.9490   13.3930 C   0  0  0  0  0  0  0  0  0  0  0  0
   24.4410   35.0670   12.3020 C   0  0  0  0  0  0  0  0  0  0  0  0
   26.3580   35.7350   13.0900 N   0  0  0  0  0  0  0  0  0  0  0  0
   24.9860   35.9000   11.4010 N   0  0  0  0  0  0  0  0  0  0  0  0
   26.1370   36.2820   11.9080 N   0  0  0  0  0  0  0  0  0  0  0  0
   24.4230   36.2880   10.1260 *   0  0  0  0  0  0  0  0  0  0  0  0
   24.9200   37.6260    9.6990 C   0  0  0  0  0  0  0  0  0  0  0  0
   26.0180   38.0210    8.8980 N   0  0  0  0  0  0  0  0  0  0  0  0
   24.2120   38.5610   10.1490 O   0  0  0  0  0  0  0  0  0  0  0  0
   26.3360   39.0130    8.9320 H   0  0  0  0  0  0  0  0  0  0  0  0
   26.7860   37.1960    8.0030 C   0  0  0  0  0  0  0  0  0  0  0  0
   26.8650   35.8150    8.0020 C   0  0  0  0  0  0  0  0  0  0  0  0
   27.4720   37.9720    7.0900 C   0  0  0  0  0  0  0  0  0  0  0  0
   27.6500   35.2140    7.0670 C   0  0  0  0  0  0  0  0  0  0  0  0
   28.2650   37.3600    6.1440 C   0  0  0  0  0  0  0  0  0  0  0  0
   28.3440   35.9860    6.1440 C   0  0  0  0  0  0  0  0  0  0  0  0
   26.1730   34.8830    8.9320 C   0  0  0  0  0  0  0  0  0  0  0  0
   24.6990   35.2170    9.0920 *   0  0  0  0  0  0  0  0  0  0  0  0
   29.8670   25.5550   16.9770 C   0  0  0  0  0  0  0  0  0  0  0  0
   28.3450   25.7220   17.0260 C   0  0  0  0  0  0  0  0  0  0  0  0
   27.6250   24.4520   17.4540 C   0  0  0  0  0  0  0  0  0  0  0  0
   26.1580   24.6850   17.6880 C   0  0  0  0  0  0  0  0  0  0  0  0
   25.5420   23.4460   18.3300 C   0  0  0  0  0  0  0  0  0  0  0  0
   24.7760   22.6690   17.3270 N   0  0  0  0  0  0  0  0  0  0  0  0
  1  2  1  0  0  0  0
  2  5  2  0  0  0  0
  3  6  1  0  0  0  0
  3  2  1  0  0  0  0
  4  3  1  0  0  0  0
  7  6  1  6  0  0  0
  7 30  1  0  0  0  0
  8 28  1  6  0  0  0
  8  7  1  0  0  0  0
  9  8  1  6  0  0  0
  9 12  1  0  0  0  0
 10 15  1  1  0  0  0
 10 17  1  0  0  0  0
 11 10  1  0  0  0  0
 12 10  1  0  0  0  0
 13 21  1  1  0  0  0
 13 11  1  0  0  0  0
 14 23  1  6  0  0  0
 14 13  1  0  0  0  0
 14  9  1  0  0  0  0
 16 15  1  0  0  0  0
 17 19  1  0  0  0  0
 18 17  2  0  0  0  0
 19 20  1  0  0  0  0
 21 22  1  0  0  0  0
 23 25  1  0  0  0  0
 24 23  1  0  0  0  0
 26 24  1  0  0  0  0
 27 24  2  0  0  0  0
 29 28  1  0  0  0  0
 30 31  1  0  0  0  0
 32  1  1  0  0  0  0
 33 32  1  0  0  0  0
 34 33  2  0  0  0  0
 35 33  1  0  0  0  0
 36 37  2  0  0  0  0
 36 34  1  0  0  0  0
 37 35  1  0  0  0  0
 39 41  2  0  0  0  0
 40 42  1  0  0  0  0
 40 39  1  0  0  0  0
 43 40  1  0  0  0  0
 44 43  1  0  0  0  0
 44 49  1  0  0  0  0
 45 43  2  0  0  0  0
 46 44  2  0  0  0  0
 47 45  1  0  0  0  0
 48 47  2  0  0  0  0
 48 46  1  0  0  0  0
 51 52  1  0  0  0  0
 52 53  1  0  0  0  0
 53 54  1  0  0  0  0
 54 55  1  0  0  0  0
 56 55  1  0  0  0  0
M  END
>  <REMARK>
 VINA RESULT:    -9.224      2.910      5.429
 INTER + INTRA:         -13.567
 INTER:                  -9.782
 INTRA:                  -3.784
 UNBOUND:                 4.555
 SMILES CC(=O)N[C@@H]1[C@@H](O)C[C@](O)(C(=O)O)O[C@H]1C(O)[C@H](O)CNC(=O)OCc1cn(C2CCc3ccccc3NC2=O)nn1
 SMILES IDX 24 1 22 2 21 3 23 5 20 6 18 7 16 8 15 9 9 10 8 11 14 12 6 13
 SMILES IDX 5 14 10 15 11 17 12 18 13 19 7 21 4 23 2 24 1 26 3 27 17 28
 SMILES IDX 19 30 25 32 26 33 27 34 42 35 28 36 41 37 29 38 39 40 38 41
 SMILES IDX 40 42 37 44 32 45 36 46 33 47 35 48 34 49 31 50 30 51
 H PARENT 21 4 10 16 13 20 7 22 4 25 17 29 19 31 38 43
 Flexibility Score: 80.00
  4 active torsions:
  status: ('A' for Active; 'I' for Inactive)
    1  A    between atoms: CA   and  CB  
    2  A    between atoms: CB   and  CG  
    3  A    between atoms: CG   and  CD  
    4  A    between atoms: CD   and  CE  

>  <TORSDO>
F 15

>  <BEGIN_>
RES LYS A 131

$$$$
ligand_80_pose_5_2HRL.pdbqt
 OpenBabel07062320523D

  6  5  0  0  0  0  0  0  0  0999 V2000
   33.1930   34.6630    9.2900 C   0  0  0  0  0  0  0  0  0  0  0  0
   32.0600   35.3600   10.0340 C   0  0  0  0  0  0  0  0  0  0  0  0
   30.7880   35.4660    9.2320 C   0  0  0  0  0  0  0  0  0  0  0  0
   30.2000   36.8640    9.3420 C   0  0  0  0  0  0  0  0  0  0  0  0
   31.1630   37.7930   10.0580 C   0  0  0  0  0  0  0  0  0  0  0  0
   30.5420   38.3700   11.2820 N   0  0  0  0  0  0  0  0  0  0  0  0
  1  2  1  0  0  0  0
  3  4  1  0  0  0  0
  3  2  1  0  0  0  0
  4  5  1  0  0  0  0
  5  6  1  0  0  0  0
M  END
>  <EGIN_R>
ES LYS A 135

>  <REMARK>
  4 active torsions:
  status: ('A' for Active; 'I' for Inactive)
    5  A    between atoms: CA   and  CB  
    6  A    between atoms: CB   and  CG  
    7  A    between atoms: CG   and  CD  
    8  A    between atoms: CD   and  CE  

$$$$
