ligand_91_pose_8_2HRL.pdbqt
 OpenBabel07062320523D

 57 60  0  0  1  0  0  0  0  0999 V2000
   18.7630   39.5930    9.8510 C   0  0  0  0  0  0  0  0  0  0  0  0
   18.4370   39.5450    8.3830 C   0  0  2  0  0  0  0  0  0  0  0  0
   18.0030   38.1450    8.0760 C   0  0  2  0  0  0  0  0  0  0  0  0
   18.9180   37.0750    8.6540 C   0  0  2  0  0  0  0  0  0  0  0  0
   21.0440   36.3260    8.4190 C   0  0  2  0  0  0  0  0  0  0  0  0
   20.6890   34.8770    8.2140 C   0  0  0  0  0  0  0  0  0  0  0  0
   20.0910   37.1750    7.9590 O   0  0  0  0  0  0  0  0  0  0  0  0
   19.2270   34.6670    7.9470 C   0  0  1  0  0  0  0  0  0  0  0  0
   18.3410   35.7130    8.5370 C   0  0  1  0  0  0  0  0  0  0  0  0
   22.2040   36.6090    7.6250 O   0  0  0  0  0  0  0  0  0  0  0  0
   21.9220   36.8590    6.7120 H   0  0  0  0  0  0  0  0  0  0  0  0
   21.5010   36.5530    9.8120 C   0  0  0  0  0  0  0  0  0  0  0  0
   21.2110   35.7600   10.7470 O   0  0  0  0  0  0  0  0  0  0  0  0
   22.2810   37.6610   10.1790 O   0  0  0  0  0  0  0  0  0  0  0  0
   22.6120   38.2890    9.4630 H   0  0  0  0  0  0  0  0  0  0  0  0
   19.0360   34.5670    6.5650 O   0  0  0  0  0  0  0  0  0  0  0  0
   18.3630   35.2180    6.2460 H   0  0  0  0  0  0  0  0  0  0  0  0
   17.7790   35.1990    9.7910 N   0  0  0  0  0  0  0  0  0  0  0  0
   16.3800   35.0740   10.0100 C   0  0  0  0  0  0  0  0  0  0  0  0
   18.3910   34.9000   10.5830 H   0  0  0  0  0  0  0  0  0  0  0  0
   15.8260   34.5440   11.2940 C   0  0  0  0  0  0  0  0  0  0  0  0
   15.5700   35.4130    9.1080 O   0  0  0  0  0  0  0  0  0  0  0  0
   17.9590   37.9730    6.7020 O   0  0  0  0  0  0  0  0  0  0  0  0
   18.5630   38.6420    6.2950 H   0  0  0  0  0  0  0  0  0  0  0  0
   19.5160   39.9600    7.6390 O   0  0  0  0  0  0  0  0  0  0  0  0
   19.1640   40.3440    6.7810 H   0  0  0  0  0  0  0  0  0  0  0  0
   20.1420   39.6540   10.1920 N   0  0  0  0  0  0  0  0  0  0  0  0
   20.7510   40.7100   10.9000 C   0  0  0  0  0  0  0  0  0  0  0  0
   20.8240   38.8610    9.9140 H   0  0  0  0  0  0  0  0  0  0  0  0
   20.1020   41.7050   11.2820 O   0  0  0  0  0  0  0  0  0  0  0  0
   22.1190   40.7000   11.2170 O   0  0  0  0  0  0  0  0  0  0  0  0
   23.0570   41.3850   10.3870 C   0  0  0  0  0  0  0  0  0  0  0  0
   23.4410   40.4650    9.2900 C   0  0  0  0  0  0  0  0  0  0  0  0
   24.7100   40.0010    9.0120 C   0  0  0  0  0  0  0  0  0  0  0  0
   22.6600   39.8900    8.3440 N   0  0  0  0  0  0  0  0  0  0  0  0
   24.6750   39.1860    7.9450 N   0  0  0  0  0  0  0  0  0  0  0  0
   23.4210   39.1320    7.5530 N   0  0  0  0  0  0  0  0  0  0  0  0
   25.7560   38.5060    7.3440 C   0  0  0  0  0  0  0  0  0  0  0  0
   26.0580   37.1920    7.7140 C   0  0  0  0  0  0  0  0  0  0  0  0
   26.5480   39.0990    6.3750 C   0  0  0  0  0  0  0  0  0  0  0  0
   25.3070   36.5470    8.6740 C   0  0  0  0  0  0  0  0  0  0  0  0
   27.0890   36.5100    7.1490 C   0  0  0  0  0  0  0  0  0  0  0  0
   27.5880   38.3900    5.8140 C   0  0  0  0  0  0  0  0  0  0  0  0
   26.2530   40.3890    6.0130 C   0  0  0  0  0  0  0  0  0  0  0  0
   25.5630   35.2530    9.0740 C   0  0  0  0  0  0  0  0  0  0  0  0
   27.3600   35.2040    7.5430 C   0  0  0  0  0  0  0  0  0  0  0  0
   27.8360   37.1230    6.2090 N   0  0  0  0  0  0  0  0  0  0  0  0
   28.3480   39.0190    4.8570 C   0  0  0  0  0  0  0  0  0  0  0  0
   27.0440   41.0010    5.0380 C   0  0  0  0  0  0  0  0  0  0  0  0
   26.6220   34.5420    8.4980 C   0  0  0  0  0  0  0  0  0  0  0  0
   28.0940   40.3290    4.4530 C   0  0  0  0  0  0  0  0  0  0  0  0
   29.8670   25.5550   16.9770 C   0  0  0  0  0  0  0  0  0  0  0  0
   28.3450   25.7220   17.0260 C   0  0  0  0  0  0  0  0  0  0  0  0
   27.5990   24.4560   16.6350 C   0  0  0  0  0  0  0  0  0  0  0  0
   27.0120   23.7530   17.8280 C   0  0  0  0  0  0  0  0  0  0  0  0
   25.5230   24.0720   17.9250 C   0  0  0  0  0  0  0  0  0  0  0  0
   24.7150   22.9360   17.4230 N   0  0  0  0  0  0  0  0  0  0  0  0
  1 27  1  0  0  0  0
  2  1  1  1  0  0  0
  3 23  1  6  0  0  0
  3  2  1  0  0  0  0
  4  3  1  6  0  0  0
  5 10  1  6  0  0  0
  5 12  1  0  0  0  0
  6  5  1  0  0  0  0
  7  5  1  0  0  0  0
  7  4  1  0  0  0  0
  8 16  1  6  0  0  0
  8  6  1  0  0  0  0
  8  9  1  0  0  0  0
  9  4  1  0  0  0  0
  9 18  1  1  0  0  0
 11 10  1  0  0  0  0
 12 14  1  0  0  0  0
 12 13  2  0  0  0  0
 15 14  1  0  0  0  0
 17 16  1  0  0  0  0
 18 19  1  0  0  0  0
 18 20  1  0  0  0  0
 19 21  1  0  0  0  0
 22 19  2  0  0  0  0
 24 23  1  0  0  0  0
 25  2  1  0  0  0  0
 26 25  1  0  0  0  0
 27 28  1  0  0  0  0
 28 31  1  0  0  0  0
 28 30  2  0  0  0  0
 29 27  1  0  0  0  0
 32 31  1  0  0  0  0
 33 32  1  0  0  0  0
 34 33  2  0  0  0  0
 35 33  1  0  0  0  0
 36 34  1  0  0  0  0
 37 36  1  0  0  0  0
 37 35  2  0  0  0  0
 38 39  1  0  0  0  0
 38 36  1  0  0  0  0
 39 41  2  0  0  0  0
 40 38  2  0  0  0  0
 41 45  1  0  0  0  0
 42 46  2  0  0  0  0
 42 39  1  0  0  0  0
 43 47  2  0  0  0  0
 43 40  1  0  0  0  0
 44 40  1  0  0  0  0
 46 50  1  0  0  0  0
 47 42  1  0  0  0  0
 48 43  1  0  0  0  0
 49 44  2  0  0  0  0
 50 45  2  0  0  0  0
 51 48  2  0  0  0  0
 51 49  1  0  0  0  0
 52 53  1  0  0  0  0
 54 53  1  0  0  0  0
 54 55  1  0  0  0  0
 55 56  1  0  0  0  0
 57 56  1  0  0  0  0
M  END
>  <REMARK>
 VINA RESULT:    -5.399      4.341      8.620
 INTER + INTRA:         -15.428
 INTER:                  -9.546
 INTRA:                  -5.883
 UNBOUND:                -6.084
 SMILES CC(=O)N[C@@H]1[C@@H](O)C[C@](O)(C(=O)O)O[C@H]1C(O)[C@H](O)CNC(=O)OCc1cn(-c2c3ccccc3nc3ccccc23)nn1
 SMILES IDX 20 1 18 2 16 3 15 4 9 5 8 6 14 7 6 8 5 9 10 10 11 12 12 13
 SMILES IDX 13 14 7 16 4 18 2 19 1 21 3 22 17 23 19 25 21 27 22 28 23 30
 SMILES IDX 24 31 25 32 26 33 27 34 44 35 28 36 43 37 29 38 30 39 42 40
 SMILES IDX 31 41 35 42 37 43 41 44 32 45 34 46 36 47 38 48 40 49 33 50
 SMILES IDX 39 51
 H PARENT 10 11 13 15 7 17 4 20 17 24 19 26 21 29
 Flexibility Score: inf
  4 active torsions:
  status: ('A' for Active; 'I' for Inactive)
    1  A    between atoms: CA   and  CB  
    2  A    between atoms: CB   and  CG  
    3  A    between atoms: CG   and  CD  
    4  A    between atoms: CD   and  CE  

>  <TORSDO>
F 15

>  <BEGIN_>
RES LYS A 131

$$$$
ligand_91_pose_8_2HRL.pdbqt
 OpenBabel07062320523D

  6  5  0  0  0  0  0  0  0  0999 V2000
   33.1930   34.6630    9.2900 C   0  0  0  0  0  0  0  0  0  0  0  0
   32.0600   35.3600   10.0340 C   0  0  0  0  0  0  0  0  0  0  0  0
   30.6880   34.9490    9.5650 C   0  0  0  0  0  0  0  0  0  0  0  0
   29.6120   35.7220   10.3110 C   0  0  0  0  0  0  0  0  0  0  0  0
   28.9850   34.8580   11.3880 C   0  0  0  0  0  0  0  0  0  0  0  0
   27.7550   35.4930   11.9370 N   0  0  0  0  0  0  0  0  0  0  0  0
  1  2  1  0  0  0  0
  3  2  1  0  0  0  0
  3  4  1  0  0  0  0
  4  5  1  0  0  0  0
  5  6  1  0  0  0  0
M  END
>  <EGIN_R>
ES LYS A 135

>  <REMARK>
  4 active torsions:
  status: ('A' for Active; 'I' for Inactive)
    5  A    between atoms: CA   and  CB  
    6  A    between atoms: CB   and  CG  
    7  A    between atoms: CG   and  CD  
    8  A    between atoms: CD   and  CE  

$$$$
