ligand_48_pose_18_2HRL.pdbqt
 OpenBabel07062320523D

 49 50  0  0  1  0  0  0  0  0999 V2000
   25.6930   30.1430   15.8470 C   0  0  0  0  0  0  0  0  0  0  0  0
   26.8550   29.8590   16.7860 C   0  0  2  0  0  0  0  0  0  0  0  0
   28.0650   30.5230   16.2050 C   0  0  1  0  0  0  0  0  0  0  0  0
   28.6990   31.5780   17.0860 C   0  0  2  0  0  0  0  0  0  0  0  0
   28.8190   33.6270   15.9320 C   0  0  2  0  0  0  0  0  0  0  0  0
   30.2770   33.7990   16.3220 C   0  0  0  0  0  0  0  0  0  0  0  0
   28.2090   32.8320   16.8440 O   0  0  0  0  0  0  0  0  0  0  0  0
   30.9750   32.4680   16.4230 C   0  0  1  0  0  0  0  0  0  0  0  0
   30.1760   31.4690   17.2360 C   0  0  1  0  0  0  0  0  0  0  0  0
   28.7060   33.2170   14.6050 O   0  0  0  0  0  0  0  0  0  0  0  0
   28.7070   34.0450   14.0280 H   0  0  0  0  0  0  0  0  0  0  0  0
   28.2210   34.9860   16.0450 C   0  0  0  0  0  0  0  0  0  0  0  0
   27.4460   35.2530   16.9910 O   0  0  0  0  0  0  0  0  0  0  0  0
   28.5200   35.9400   15.1150 O   0  0  0  0  0  0  0  0  0  0  0  0
   28.0480   36.8320   15.0320 H   0  0  0  0  0  0  0  0  0  0  0  0
   31.2930   31.9730   15.1650 O   0  0  0  0  0  0  0  0  0  0  0  0
   32.2490   31.7240   15.1310 H   0  0  0  0  0  0  0  0  0  0  0  0
   30.5760   31.5730   18.6410 N   0  0  0  0  0  0  0  0  0  0  0  0
   30.1030   30.6010   19.5470 C   0  0  0  0  0  0  0  0  0  0  0  0
   31.1910   32.3370   18.9790 H   0  0  0  0  0  0  0  0  0  0  0  0
   30.4550   30.6210   21.0010 C   0  0  0  0  0  0  0  0  0  0  0  0
   29.3470   29.6430   19.1900 O   0  0  0  0  0  0  0  0  0  0  0  0
   28.9390   29.6460   15.6190 O   0  0  0  0  0  0  0  0  0  0  0  0
   28.5460   28.7290   15.4740 H   0  0  0  0  0  0  0  0  0  0  0  0
   26.9450   28.4970   16.9470 O   0  0  0  0  0  0  0  0  0  0  0  0
   27.6270   28.1450   16.3540 H   0  0  0  0  0  0  0  0  0  0  0  0
   26.0070   31.3300   15.0870 N   0  0  0  0  0  0  0  0  0  0  0  0
   25.1920   32.4850   15.0020 C   0  0  0  0  0  0  0  0  0  0  0  0
   26.9140   31.3880   14.5290 H   0  0  0  0  0  0  0  0  0  0  0  0
   24.1010   32.5160   15.6200 O   0  0  0  0  0  0  0  0  0  0  0  0
   25.5730   33.5900   14.2460 O   0  0  0  0  0  0  0  0  0  0  0  0
   25.1480   33.7010   12.9110 C   0  0  0  0  0  0  0  0  0  0  0  0
   26.1960   34.4290   12.1480 C   0  0  0  0  0  0  0  0  0  0  0  0
   26.1220   34.8170   10.8040 C   0  0  0  0  0  0  0  0  0  0  0  0
   27.4070   34.8670   12.5420 N   0  0  0  0  0  0  0  0  0  0  0  0
   27.2550   35.4510   10.4570 N   0  0  0  0  0  0  0  0  0  0  0  0
   28.0190   35.4650   11.5350 N   0  0  0  0  0  0  0  0  0  0  0  0
   27.5760   36.0100    9.1510 C   0  0  0  0  0  0  0  0  0  0  0  0
   29.0710   36.2200    9.0560 C   0  0  0  0  0  0  0  0  0  0  0  0
   27.1680   35.0440    8.0620 C   0  0  0  0  0  0  0  0  0  0  0  0
   29.7300   35.1590    8.1950 C   0  0  0  0  0  0  0  0  0  0  0  0
   27.7470   35.5770    6.7630 C   0  0  0  0  0  0  0  0  0  0  0  0
   29.2300   35.2650    6.7800 C   0  0  0  0  0  0  0  0  0  0  0  0
   29.8670   25.5550   16.9770 C   0  0  0  0  0  0  0  0  0  0  0  0
   28.3450   25.7220   17.0260 C   0  0  0  0  0  0  0  0  0  0  0  0
   27.6000   24.4070   16.8540 C   0  0  0  0  0  0  0  0  0  0  0  0
   26.5080   24.2370   17.8730 C   0  0  0  0  0  0  0  0  0  0  0  0
   25.1500   24.3660   17.1890 C   0  0  0  0  0  0  0  0  0  0  0  0
   24.4590   23.0550   17.1570 N   0  0  0  0  0  0  0  0  0  0  0  0
  2  1  1  6  0  0  0
  2 25  1  0  0  0  0
  3 23  1  1  0  0  0
  3  2  1  0  0  0  0
  4  3  1  6  0  0  0
  4  9  1  0  0  0  0
  5 10  1  6  0  0  0
  5 12  1  0  0  0  0
  5  6  1  0  0  0  0
  5  7  1  0  0  0  0
  6  8  1  0  0  0  0
  7  4  1  0  0  0  0
  8 16  1  6  0  0  0
  8  9  1  0  0  0  0
  9 18  1  1  0  0  0
 11 10  1  0  0  0  0
 12 13  2  0  0  0  0
 14 12  1  0  0  0  0
 15 14  1  0  0  0  0
 17 16  1  0  0  0  0
 18 20  1  0  0  0  0
 18 19  1  0  0  0  0
 19 21  1  0  0  0  0
 22 19  2  0  0  0  0
 24 23  1  0  0  0  0
 26 25  1  0  0  0  0
 27  1  1  0  0  0  0
 28 27  1  0  0  0  0
 28 30  2  0  0  0  0
 29 27  1  0  0  0  0
 31 28  1  0  0  0  0
 32 31  1  0  0  0  0
 33 35  1  0  0  0  0
 33 32  1  0  0  0  0
 34 33  2  0  0  0  0
 36 34  1  0  0  0  0
 36 37  1  0  0  0  0
 37 35  2  0  0  0  0
 38 36  1  0  0  0  0
 39 38  1  0  0  0  0
 40 38  1  0  0  0  0
 41 39  1  0  0  0  0
 42 43  1  0  0  0  0
 42 40  1  0  0  0  0
 43 41  1  0  0  0  0
 44 45  1  0  0  0  0
 46 45  1  0  0  0  0
 46 47  1  0  0  0  0
 48 47  1  0  0  0  0
 49 48  1  0  0  0  0
M  END
>  <REMARK>
 VINA RESULT:    -4.639      3.079      6.187
 INTER + INTRA:         -13.824
 INTER:                  -9.548
 INTRA:                  -4.277
 UNBOUND:                -5.796
 SMILES CC(=O)N[C@@H]1[C@@H](O)C[C@](O)(C(=O)O)O[C@H]1C(O)[C@H](O)CNC(=O)OCc1cn(C2CCCCC2)nn1
 SMILES IDX 20 1 18 2 16 3 15 4 9 5 8 6 14 7 6 8 5 9 10 10 11 12 12 13
 SMILES IDX 13 14 7 16 4 18 2 19 1 21 3 22 17 23 19 25 21 27 22 28 23 30
 SMILES IDX 24 31 25 32 26 33 27 34 36 35 28 36 35 37 29 38 30 39 34 40
 SMILES IDX 31 41 33 42 32 43
 H PARENT 10 11 13 15 7 17 4 20 17 24 19 26 21 29
 Flexibility Score: inf
  4 active torsions:
  status: ('A' for Active; 'I' for Inactive)
    1  A    between atoms: CA   and  CB  
    2  A    between atoms: CB   and  CG  
    3  A    between atoms: CG   and  CD  
    4  A    between atoms: CD   and  CE  

>  <TORSDO>
F 15

>  <BEGIN_>
RES LYS A 131

$$$$
ligand_48_pose_18_2HRL.pdbqt
 OpenBabel07062320523D

  6  5  0  0  0  0  0  0  0  0999 V2000
   33.1930   34.6630    9.2900 C   0  0  0  0  0  0  0  0  0  0  0  0
   32.0600   35.3600   10.0340 C   0  0  0  0  0  0  0  0  0  0  0  0
   32.5070   36.0670   11.2870 C   0  0  0  0  0  0  0  0  0  0  0  0
   31.3480   36.2210   12.2600 C   0  0  0  0  0  0  0  0  0  0  0  0
   31.6150   35.4420   13.5340 C   0  0  0  0  0  0  0  0  0  0  0  0
   33.0700   35.1730   13.7030 N   0  0  0  0  0  0  0  0  0  0  0  0
  1  2  1  0  0  0  0
  2  3  1  0  0  0  0
  3  4  1  0  0  0  0
  4  5  1  0  0  0  0
  5  6  1  0  0  0  0
M  END
>  <EGIN_R>
ES LYS A 135

>  <REMARK>
  4 active torsions:
  status: ('A' for Active; 'I' for Inactive)
    5  A    between atoms: CA   and  CB  
    6  A    between atoms: CB   and  CG  
    7  A    between atoms: CG   and  CD  
    8  A    between atoms: CD   and  CE  

$$$$
