ligand_36_pose_3_2HRL.pdbqt
 OpenBabel07062320523D

 52 53  0  0  1  0  0  0  0  0999 V2000
   30.7540   33.0270   14.3160 N   0  0  0  0  0  0  0  0  0  0  0  0
   30.5840   34.4420   14.2660 C   0  0  0  0  0  0  0  0  0  0  0  0
   31.1530   35.1670   15.1540 O   0  0  0  0  0  0  0  0  0  0  0  0
   30.2860   32.4620   13.5830 H   0  0  0  0  0  0  0  0  0  0  0  0
   31.5420   32.4520   15.3440 C   0  0  0  0  0  0  0  0  0  0  0  0
   30.7960   31.9260   16.5470 C   0  0  2  0  0  0  0  0  0  0  0  0
   29.3430   31.6070   16.2560 C   0  0  2  0  0  0  0  0  0  0  0  0
   28.5570   31.3140   17.4880 C   0  0  2  0  0  0  0  0  0  0  0  0
   28.5040   29.8750   19.3170 C   0  0  2  0  0  0  0  0  0  0  0  0
   27.3380   30.7510   19.7180 C   0  0  0  0  0  0  0  0  0  0  0  0
   29.2330   30.3800   18.2820 O   0  0  0  0  0  0  0  0  0  0  0  0
   26.4100   31.0420   18.5920 C   0  0  1  0  0  0  0  0  0  0  0  0
   27.1730   30.7850   17.2810 C   0  0  1  0  0  0  0  0  0  0  0  0
   28.0120   28.5800   19.0460 O   0  0  0  0  0  0  0  0  0  0  0  0
   27.2890   28.3900   19.7140 H   0  0  0  0  0  0  0  0  0  0  0  0
   29.3840   29.7680   20.5000 C   0  0  0  0  0  0  0  0  0  0  0  0
   30.4700   30.3900   20.5170 O   0  0  0  0  0  0  0  0  0  0  0  0
   29.0150   28.9950   21.5760 O   0  0  0  0  0  0  0  0  0  0  0  0
   29.6190   28.7340   22.3350 H   0  0  0  0  0  0  0  0  0  0  0  0
   25.2310   30.3250   18.6270 O   0  0  0  0  0  0  0  0  0  0  0  0
   24.4820   30.9970   18.6470 H   0  0  0  0  0  0  0  0  0  0  0  0
   26.4520   31.3200   16.1670 N   0  0  0  0  0  0  0  0  0  0  0  0
   25.4830   30.5300   15.4590 C   0  0  0  0  0  0  0  0  0  0  0  0
   26.5900   32.3120   15.8240 H   0  0  0  0  0  0  0  0  0  0  0  0
   24.7350   31.0990   14.2980 C   0  0  0  0  0  0  0  0  0  0  0  0
   25.2440   29.3460   15.8000 O   0  0  0  0  0  0  0  0  0  0  0  0
   29.2440   30.6900   15.2610 O   0  0  0  0  0  0  0  0  0  0  0  0
   29.6770   29.8470   15.4070 H   0  0  0  0  0  0  0  0  0  0  0  0
   30.8560   32.9910   17.4820 O   0  0  0  0  0  0  0  0  0  0  0  0
   29.9730   33.3570   17.6760 H   0  0  0  0  0  0  0  0  0  0  0  0
   29.8380   35.1100   13.3130 O   0  0  0  0  0  0  0  0  0  0  0  0
   28.4630   35.3190   13.5480 C   0  0  0  0  0  0  0  0  0  0  0  0
   27.6420   35.0180   12.3520 C   0  0  0  0  0  0  0  0  0  0  0  0
   28.0740   34.6650   11.0830 C   0  0  0  0  0  0  0  0  0  0  0  0
   26.3040   35.0340   12.2990 N   0  0  0  0  0  0  0  0  0  0  0  0
   26.9990   34.4810   10.3130 N   0  0  0  0  0  0  0  0  0  0  0  0
   25.9490   34.7110   11.0730 N   0  0  0  0  0  0  0  0  0  0  0  0
   26.9710   34.0970    8.9180 C   0  0  0  0  0  0  0  0  0  0  0  0
   27.1420   35.2140    7.9900 C   0  0  0  0  0  0  0  0  0  0  0  0
   26.3110   36.3020    8.0630 C   0  0  0  0  0  0  0  0  0  0  0  0
   28.1440   35.1700    7.0320 C   0  0  0  0  0  0  0  0  0  0  0  0
   26.4570   37.3630    7.1890 C   0  0  0  0  0  0  0  0  0  0  0  0
   28.3120   36.2230    6.1430 C   0  0  0  0  0  0  0  0  0  0  0  0
   27.4530   37.3190    6.2360 C   0  0  0  0  0  0  0  0  0  0  0  0
   27.6130   38.4130    5.3230 C   0  0  0  0  0  0  0  0  0  0  0  0
   27.7600   39.3070    4.5810 N   0  0  0  0  0  0  0  0  0  0  0  0
   29.8670   25.5550   16.9770 C   0  0  0  0  0  0  0  0  0  0  0  0
   28.3450   25.7220   17.0260 C   0  0  0  0  0  0  0  0  0  0  0  0
   27.6010   24.4020   16.8910 C   0  0  0  0  0  0  0  0  0  0  0  0
   26.1510   24.5280   17.2660 C   0  0  0  0  0  0  0  0  0  0  0  0
   25.9920   24.3030   18.7660 C   0  0  0  0  0  0  0  0  0  0  0  0
   25.5560   25.5510   19.4360 N   0  0  0  0  0  0  0  0  0  0  0  0
  1  5  1  0  0  0  0
  2  1  1  0  0  0  0
  2  3  2  0  0  0  0
  4  1  1  0  0  0  0
  6  5  1  6  0  0  0
  6 29  1  0  0  0  0
  7 27  1  6  0  0  0
  7  6  1  0  0  0  0
  8  7  1  6  0  0  0
  8 11  1  0  0  0  0
  9 14  1  6  0  0  0
  9 10  1  0  0  0  0
  9 16  1  0  0  0  0
 11  9  1  0  0  0  0
 12 20  1  1  0  0  0
 12 10  1  0  0  0  0
 13 22  1  6  0  0  0
 13  8  1  0  0  0  0
 13 12  1  0  0  0  0
 14 15  1  0  0  0  0
 16 17  2  0  0  0  0
 16 18  1  0  0  0  0
 18 19  1  0  0  0  0
 20 21  1  0  0  0  0
 23 26  2  0  0  0  0
 23 22  1  0  0  0  0
 24 22  1  0  0  0  0
 25 23  1  0  0  0  0
 27 28  1  0  0  0  0
 29 30  1  0  0  0  0
 31 32  1  0  0  0  0
 31  2  1  0  0  0  0
 33 32  1  0  0  0  0
 34 33  2  0  0  0  0
 35 33  1  0  0  0  0
 36 37  1  0  0  0  0
 36 34  1  0  0  0  0
 37 35  2  0  0  0  0
 38 36  1  0  0  0  0
 39 40  1  0  0  0  0
 39 38  1  0  0  0  0
 41 39  2  0  0  0  0
 42 40  2  0  0  0  0
 43 44  2  0  0  0  0
 43 41  1  0  0  0  0
 44 42  1  0  0  0  0
 45 44  1  0  0  0  0
 46 45  3  0  0  0  0
 47 48  1  0  0  0  0
 49 48  1  0  0  0  0
 49 50  1  0  0  0  0
 50 51  1  0  0  0  0
 51 52  1  0  0  0  0
M  END
>  <REMARK>
 VINA RESULT:    -4.473      3.126      7.141
 INTER + INTRA:         -15.245
 INTER:                 -11.047
 INTRA:                  -4.197
 UNBOUND:                -6.980
 SMILES CC(=O)N[C@@H]1[C@@H](O)C[C@](O)(C(=O)O)O[C@H]1C(O)[C@H](O)CNC(=O)OCc1cn(Cc2ccc(C#N)cc2)nn1
 SMILES IDX 21 1 22 2 23 3 20 5 18 6 16 7 15 8 9 9 8 10 14 11 6 12 5 13
 SMILES IDX 10 14 11 16 12 17 13 18 7 20 4 22 2 23 1 25 3 26 17 27 19 29
 SMILES IDX 24 31 25 32 26 33 27 34 39 35 28 36 38 37 29 38 30 39 31 40
 SMILES IDX 37 41 32 42 36 43 33 44 34 45 35 46
 H PARENT 21 4 10 15 13 19 7 21 4 24 17 28 19 30
 Flexibility Score: inf
  4 active torsions:
  status: ('A' for Active; 'I' for Inactive)
    1  A    between atoms: CA   and  CB  
    2  A    between atoms: CB   and  CG  
    3  A    between atoms: CG   and  CD  
    4  A    between atoms: CD   and  CE  

>  <TORSDO>
F 17

>  <BEGIN_>
RES LYS A 131

$$$$
ligand_36_pose_3_2HRL.pdbqt
 OpenBabel07062320523D

  6  5  0  0  0  0  0  0  0  0999 V2000
   33.1930   34.6630    9.2900 C   0  0  0  0  0  0  0  0  0  0  0  0
   32.0600   35.3600   10.0340 C   0  0  0  0  0  0  0  0  0  0  0  0
   30.8740   35.6820    9.1610 C   0  0  0  0  0  0  0  0  0  0  0  0
   30.7250   37.1860    8.9930 C   0  0  0  0  0  0  0  0  0  0  0  0
   29.4380   37.6690    9.6340 C   0  0  0  0  0  0  0  0  0  0  0  0
   29.6440   37.9950   11.0720 N   0  0  0  0  0  0  0  0  0  0  0  0
  1  2  1  0  0  0  0
  3  2  1  0  0  0  0
  4  3  1  0  0  0  0
  4  5  1  0  0  0  0
  5  6  1  0  0  0  0
M  END
>  <EGIN_R>
ES LYS A 135

>  <REMARK>
  4 active torsions:
  status: ('A' for Active; 'I' for Inactive)
    5  A    between atoms: CA   and  CB  
    6  A    between atoms: CB   and  CG  
    7  A    between atoms: CG   and  CD  
    8  A    between atoms: CD   and  CE  

$$$$
