ligand_54_pose_11_2HRL.pdbqt
 OpenBabel07062320523D

 52 52  0  0  1  0  0  0  0  0999 V2000
   26.2070   29.8340   16.8800 O   0  0  0  0  0  0  0  0  0  0  0  0
   26.4800   28.6950   17.6500 C   0  0  0  0  0  0  0  0  0  0  0  0
   26.1490   28.6270   19.0200 N   0  0  0  0  0  0  0  0  0  0  0  0
   25.6670   29.4970   19.4140 H   0  0  0  0  0  0  0  0  0  0  0  0
   27.0280   27.7430   17.0880 O   0  0  0  0  0  0  0  0  0  0  0  0
   26.3800   27.5430   19.9210 C   0  0  0  0  0  0  0  0  0  0  0  0
   27.7740   27.5800   20.4790 C   0  0  2  0  0  0  0  0  0  0  0  0
   28.1570   29.0560   20.5560 C   0  0  2  0  0  0  0  0  0  0  0  0
   29.6370   29.2440   20.6790 C   0  0  2  0  0  0  0  0  0  0  0  0
   31.3320   28.8800   22.2200 C   0  0  2  0  0  0  0  0  0  0  0  0
   32.1720   29.8440   21.4470 C   0  0  0  0  0  0  0  0  0  0  0  0
   30.2480   28.3650   21.5240 O   0  0  0  0  0  0  0  0  0  0  0  0
   31.4040   30.8930   20.6980 C   0  0  1  0  0  0  0  0  0  0  0  0
   29.9390   30.6990   21.0180 C   0  0  1  0  0  0  0  0  0  0  0  0
   30.9470   29.4360   23.4430 O   0  0  0  0  0  0  0  0  0  0  0  0
   31.1390   30.4190   23.3830 H   0  0  0  0  0  0  0  0  0  0  0  0
   32.2050   27.7130   22.5310 C   0  0  0  0  0  0  0  0  0  0  0  0
   32.7320   27.5830   23.6560 O   0  0  0  0  0  0  0  0  0  0  0  0
   32.4310   26.7510   21.5280 O   0  0  0  0  0  0  0  0  0  0  0  0
   33.3050   26.2340   21.6070 H   0  0  0  0  0  0  0  0  0  0  0  0
   31.8410   32.1870   20.9580 O   0  0  0  0  0  0  0  0  0  0  0  0
   31.2380   32.5500   21.6560 H   0  0  0  0  0  0  0  0  0  0  0  0
   29.0840   31.5260   20.1920 N   0  0  0  0  0  0  0  0  0  0  0  0
   28.6840   32.8050   20.6650 C   0  0  0  0  0  0  0  0  0  0  0  0
   28.7370   31.2450   19.2590 H   0  0  0  0  0  0  0  0  0  0  0  0
   27.8160   33.7150   19.8910 C   0  0  0  0  0  0  0  0  0  0  0  0
   29.0900   33.1810   21.7990 O   0  0  0  0  0  0  0  0  0  0  0  0
   27.4610   29.6360   21.6040 O   0  0  0  0  0  0  0  0  0  0  0  0
   27.6720   30.6020   21.7190 H   0  0  0  0  0  0  0  0  0  0  0  0
   28.6610   26.9820   19.6210 O   0  0  0  0  0  0  0  0  0  0  0  0
   29.5440   26.8010   20.0350 H   0  0  0  0  0  0  0  0  0  0  0  0
   26.6790   31.1130   17.2950 C   0  0  0  0  0  0  0  0  0  0  0  0
   28.0900   31.2650   16.8940 C   0  0  0  0  0  0  0  0  0  0  0  0
   28.4870   32.1690   15.9040 C   0  0  0  0  0  0  0  0  0  0  0  0
   29.2090   30.6790   17.2970 N   0  0  0  0  0  0  0  0  0  0  0  0
   29.8250   32.0830   15.7590 N   0  0  0  0  0  0  0  0  0  0  0  0
   30.2380   31.1840   16.6050 N   0  0  0  0  0  0  0  0  0  0  0  0
   30.5800   32.8670   14.8220 C   0  0  0  0  0  0  0  0  0  0  0  0
   31.8550   33.4260   15.4100 C   0  0  0  0  0  0  0  0  0  0  0  0
   31.7150   34.8420   15.8740 C   0  0  0  0  0  0  0  0  0  0  0  0
   32.9850   35.3400   16.1420 O   0  0  0  0  0  0  0  0  0  0  0  0
   33.0270   36.7170   15.8940 C   0  0  0  0  0  0  0  0  0  0  0  0
   33.7870   37.4520   16.9680 C   0  0  0  0  0  0  0  0  0  0  0  0
   30.9430   34.9590   17.0010 O   0  0  0  0  0  0  0  0  0  0  0  0
   31.4970   34.2950   18.0950 C   0  0  0  0  0  0  0  0  0  0  0  0
   31.4400   35.2180   19.3070 C   0  0  0  0  0  0  0  0  0  0  0  0
   29.8670   25.5550   16.9770 C   0  0  0  0  0  0  0  0  0  0  0  0
   28.3450   25.7220   17.0260 C   0  0  0  0  0  0  0  0  0  0  0  0
   27.6030   24.3960   16.9610 C   0  0  0  0  0  0  0  0  0  0  0  0
   26.5410   24.2890   18.0200 C   0  0  0  0  0  0  0  0  0  0  0  0
   25.1790   24.1060   17.3590 C   0  0  0  0  0  0  0  0  0  0  0  0
   24.7470   22.6910   17.4430 N   0  0  0  0  0  0  0  0  0  0  0  0
  1 32  1  0  0  0  0
  1  2  1  0  0  0  0
  2  3  1  0  0  0  0
  3  4  1  0  0  0  0
  3  6  1  0  0  0  0
  5  2  2  0  0  0  0
  7  6  1  6  0  0  0
  7  8  1  0  0  0  0
  8 28  1  1  0  0  0
  9  8  1  1  0  0  0
  9 14  1  0  0  0  0
  9 12  1  0  0  0  0
 10 17  1  1  0  0  0
 10 15  1  0  0  0  0
 11 10  1  0  0  0  0
 12 10  1  0  0  0  0
 13 21  1  1  0  0  0
 13 14  1  0  0  0  0
 13 11  1  0  0  0  0
 14 23  1  6  0  0  0
 16 15  1  0  0  0  0
 17 18  2  0  0  0  0
 19 20  1  0  0  0  0
 19 17  1  0  0  0  0
 21 22  1  0  0  0  0
 23 24  1  0  0  0  0
 24 27  2  0  0  0  0
 25 23  1  0  0  0  0
 26 24  1  0  0  0  0
 28 29  1  0  0  0  0
 30 31  1  0  0  0  0
 30  7  1  0  0  0  0
 33 32  1  0  0  0  0
 33 35  1  0  0  0  0
 34 33  2  0  0  0  0
 36 34  1  0  0  0  0
 36 37  1  0  0  0  0
 37 35  2  0  0  0  0
 38 39  1  0  0  0  0
 38 36  1  0  0  0  0
 39 40  1  0  0  0  0
 40 41  1  0  0  0  0
 40 44  1  0  0  0  0
 42 41  1  0  0  0  0
 42 43  1  0  0  0  0
 44 45  1  0  0  0  0
 45 46  1  0  0  0  0
 47 48  1  0  0  0  0
 49 48  1  0  0  0  0
 49 50  1  0  0  0  0
 51 52  1  0  0  0  0
 51 50  1  0  0  0  0
M  END
>  <REMARK>
 VINA RESULT:    -4.202      1.863      3.540
 INTER + INTRA:         -14.685
 INTER:                  -7.727
 INTRA:                  -6.958
 UNBOUND:                -5.938
 SMILES CCOC(CCn1cc(COC(=O)NC[C@@H](O)C(O)[C@@H]2O[C@@](O)(C(=O)O)C[C@H](O)[C@H]2NC(C)=O)nn1)OCC
 SMILES IDX 11 1 12 2 14 3 13 5 15 6 16 7 18 8 20 9 22 10 27 11 21 12
 SMILES IDX 28 13 30 14 23 15 24 17 25 18 26 19 29 21 31 23 32 24 33 26
 SMILES IDX 34 27 19 28 17 30 10 32 9 33 8 34 35 35 7 36 36 37 6 38 5 39
 SMILES IDX 4 40 3 41 2 42 1 43 37 44 38 45 39 46
 H PARENT 14 4 23 16 26 20 29 22 31 25 19 29 17 31
 Flexibility Score: inf
  4 active torsions:
  status: ('A' for Active; 'I' for Inactive)
    1  A    between atoms: CA   and  CB  
    2  A    between atoms: CB   and  CG  
    3  A    between atoms: CG   and  CD  
    4  A    between atoms: CD   and  CE  

>  <TORSDO>
F 21

>  <BEGIN_>
RES LYS A 131

$$$$
ligand_54_pose_11_2HRL.pdbqt
 OpenBabel07062320523D

  6  5  0  0  0  0  0  0  0  0999 V2000
   33.1930   34.6630    9.2900 C   0  0  0  0  0  0  0  0  0  0  0  0
   32.0600   35.3600   10.0340 C   0  0  0  0  0  0  0  0  0  0  0  0
   30.8240   35.5630    9.1960 C   0  0  0  0  0  0  0  0  0  0  0  0
   30.0860   34.2480    9.0010 C   0  0  0  0  0  0  0  0  0  0  0  0
   28.6040   34.4950    8.7910 C   0  0  0  0  0  0  0  0  0  0  0  0
   27.7840   33.5880    9.6410 N   0  0  0  0  0  0  0  0  0  0  0  0
  1  2  1  0  0  0  0
  3  2  1  0  0  0  0
  4  3  1  0  0  0  0
  5  4  1  0  0  0  0
  5  6  1  0  0  0  0
M  END
>  <EGIN_R>
ES LYS A 135

>  <REMARK>
  4 active torsions:
  status: ('A' for Active; 'I' for Inactive)
    5  A    between atoms: CA   and  CB  
    6  A    between atoms: CB   and  CG  
    7  A    between atoms: CG   and  CD  
    8  A    between atoms: CD   and  CE  

$$$$
