ligand_6_pose_11_2HRL.pdbqt
 OpenBabel07062320523D

 52 53  0  0  1  0  0  0  0  0999 V2000
   29.4860   34.0260   16.9960 N   0  0  0  0  0  0  0  0  0  0  0  0
   30.7310   34.6800   16.9360 C   0  0  0  0  0  0  0  0  0  0  0  0
   31.8070   34.1260   17.2220 O   0  0  0  0  0  0  0  0  0  0  0  0
   28.6300   34.6080   16.6960 H   0  0  0  0  0  0  0  0  0  0  0  0
   29.2910   32.6930   17.4140 C   0  0  0  0  0  0  0  0  0  0  0  0
   29.5310   31.5730   16.4840 C   0  0  2  0  0  0  0  0  0  0  0  0
   28.4550   30.7740   15.9090 C   0  0  2  0  0  0  0  0  0  0  0  0
   27.4010   30.3760   16.9490 C   0  0  2  0  0  0  0  0  0  0  0  0
   26.8320   28.5160   18.2240 C   0  0  2  0  0  0  0  0  0  0  0  0
   25.7160   29.4260   18.6850 C   0  0  0  0  0  0  0  0  0  0  0  0
   27.8290   29.1670   17.5340 O   0  0  0  0  0  0  0  0  0  0  0  0
   25.0670   30.1650   17.5580 C   0  0  1  0  0  0  0  0  0  0  0  0
   26.0530   30.1280   16.3760 C   0  0  1  0  0  0  0  0  0  0  0  0
   26.2530   27.4850   17.5040 O   0  0  0  0  0  0  0  0  0  0  0  0
   26.9540   26.8740   17.1990 H   0  0  0  0  0  0  0  0  0  0  0  0
   27.4450   27.9430   19.4510 C   0  0  0  0  0  0  0  0  0  0  0  0
   27.2510   28.4740   20.5750 O   0  0  0  0  0  0  0  0  0  0  0  0
   28.2420   26.8130   19.3900 O   0  0  0  0  0  0  0  0  0  0  0  0
   27.8500   25.8760   19.2650 H   0  0  0  0  0  0  0  0  0  0  0  0
   23.8310   29.6810   17.1920 O   0  0  0  0  0  0  0  0  0  0  0  0
   23.4060   29.2830   17.9920 H   0  0  0  0  0  0  0  0  0  0  0  0
   25.5790   31.1390   15.4550 N   0  0  0  0  0  0  0  0  0  0  0  0
   24.7220   30.7840   14.3600 C   0  0  0  0  0  0  0  0  0  0  0  0
   25.8270   32.1430   15.5400 H   0  0  0  0  0  0  0  0  0  0  0  0
   24.2000   31.7630   13.3830 C   0  0  0  0  0  0  0  0  0  0  0  0
   24.4120   29.5800   14.2420 O   0  0  0  0  0  0  0  0  0  0  0  0
   28.9290   29.6770   15.2380 O   0  0  0  0  0  0  0  0  0  0  0  0
   29.5870   29.1240   15.7130 H   0  0  0  0  0  0  0  0  0  0  0  0
   30.5370   30.7800   17.1080 O   0  0  0  0  0  0  0  0  0  0  0  0
   31.1300   30.3860   16.4170 H   0  0  0  0  0  0  0  0  0  0  0  0
   30.7320   36.0330   16.5290 O   0  0  0  0  0  0  0  0  0  0  0  0
   31.4830   36.3340   15.3690 C   0  0  0  0  0  0  0  0  0  0  0  0
   30.7880   35.7920   14.1520 C   0  0  0  0  0  0  0  0  0  0  0  0
   29.6270   36.2570   13.5730 C   0  0  0  0  0  0  0  0  0  0  0  0
   31.1590   34.7420   13.3800 N   0  0  0  0  0  0  0  0  0  0  0  0
   29.3190   35.5040   12.4900 N   0  0  0  0  0  0  0  0  0  0  0  0
   30.2770   34.6040   12.4200 N   0  0  0  0  0  0  0  0  0  0  0  0
   28.1960   35.6640   11.6260 C   0  0  0  0  0  0  0  0  0  0  0  0
   27.8600   36.8840   11.0780 C   0  0  0  0  0  0  0  0  0  0  0  0
   27.3900   34.5900   11.2980 C   0  0  0  0  0  0  0  0  0  0  0  0
   26.7690   37.0160   10.2440 C   0  0  0  0  0  0  0  0  0  0  0  0
   26.2970   34.7220   10.4630 C   0  0  0  0  0  0  0  0  0  0  0  0
   25.9590   35.9400    9.9130 C   0  0  0  0  0  0  0  0  0  0  0  0
   24.8400   36.0660    9.0580 N   0  0  0  0  0  0  0  0  0  0  0  0
   24.9340   36.7990    8.0580 O   0  0  0  0  0  0  0  0  0  0  0  0
   23.6510   35.4250    9.2640 O   0  0  0  0  0  0  0  0  0  0  0  0
   29.8670   25.5550   16.9770 C   0  0  0  0  0  0  0  0  0  0  0  0
   28.3450   25.7220   17.0260 C   0  0  0  0  0  0  0  0  0  0  0  0
   27.5990   24.4360   16.7060 C   0  0  0  0  0  0  0  0  0  0  0  0
   26.9830   23.8190   17.9320 C   0  0  0  0  0  0  0  0  0  0  0  0
   25.5890   23.2990   17.5940 C   0  0  0  0  0  0  0  0  0  0  0  0
   24.7910   24.3530   16.9250 N   0  0  0  0  0  0  0  0  0  0  0  0
  1  5  1  0  0  0  0
  2  1  1  0  0  0  0
  2  3  2  0  0  0  0
  4  1  1  0  0  0  0
  6 29  1  0  0  0  0
  6  5  1  1  0  0  0
  7 27  1  1  0  0  0
  7  6  1  0  0  0  0
  8  7  1  6  0  0  0
  8 11  1  0  0  0  0
  9 14  1  6  0  0  0
  9 10  1  0  0  0  0
  9 16  1  0  0  0  0
 11  9  1  0  0  0  0
 12 20  1  6  0  0  0
 12 10  1  0  0  0  0
 13 22  1  6  0  0  0
 13  8  1  0  0  0  0
 13 12  1  0  0  0  0
 15 14  1  0  0  0  0
 16 17  2  0  0  0  0
 18 16  1  0  0  0  0
 19 18  1  0  0  0  0
 20 21  1  0  0  0  0
 22 24  1  0  0  0  0
 23 22  1  0  0  0  0
 25 23  1  0  0  0  0
 26 23  2  0  0  0  0
 27 28  1  0  0  0  0
 30 29  1  0  0  0  0
 31  2  1  0  0  0  0
 32 31  1  0  0  0  0
 33 32  1  0  0  0  0
 34 33  2  0  0  0  0
 35 33  1  0  0  0  0
 36 34  1  0  0  0  0
 37 36  1  0  0  0  0
 37 35  2  0  0  0  0
 38 36  1  0  0  0  0
 39 38  2  0  0  0  0
 40 38  1  0  0  0  0
 41 39  1  0  0  0  0
 42 40  2  0  0  0  0
 43 41  2  0  0  0  0
 43 42  1  0  0  0  0
 44 46  2  0  0  0  0
 44 43  1  0  0  0  0
 45 44  2  0  0  0  0
 47 48  1  0  0  0  0
 49 48  1  0  0  0  0
 49 50  1  0  0  0  0
 51 50  1  0  0  0  0
 52 51  1  0  0  0  0
M  END
>  <REMARK>
 VINA RESULT:    -5.339      4.598      8.100
 INTER + INTRA:         -14.301
 INTER:                  -9.236
 INTRA:                  -5.065
 UNBOUND:                -4.749
 SMILES CC(=O)N[C@@H]1[C@@H](O)C[C@](O)(C(=O)O)O[C@H]1C(O)[C@H](O)CNC(=O)OCc1cn(-c2ccc([N+](=O)[O-])cc2)nn1
 SMILES IDX 21 1 22 2 23 3 20 5 18 6 16 7 15 8 9 9 8 10 14 11 6 12 5 13
 SMILES IDX 10 14 11 16 12 17 13 18 7 20 4 22 2 23 1 25 3 26 17 27 19 29
 SMILES IDX 24 31 25 32 26 33 27 34 39 35 28 36 38 37 29 38 30 39 37 40
 SMILES IDX 31 41 36 42 32 43 33 44 34 45 35 46
 H PARENT 21 4 10 15 13 19 7 21 4 24 17 28 19 30
 Flexibility Score: inf
  4 active torsions:
  status: ('A' for Active; 'I' for Inactive)
    1  A    between atoms: CA   and  CB  
    2  A    between atoms: CB   and  CG  
    3  A    between atoms: CG   and  CD  
    4  A    between atoms: CD   and  CE  

>  <TORSDO>
F 16

>  <BEGIN_>
RES LYS A 131

$$$$
ligand_6_pose_11_2HRL.pdbqt
 OpenBabel07062320523D

  6  5  0  0  0  0  0  0  0  0999 V2000
   33.1930   34.6630    9.2900 C   0  0  0  0  0  0  0  0  0  0  0  0
   32.0600   35.3600   10.0340 C   0  0  0  0  0  0  0  0  0  0  0  0
   30.9310   35.7980    9.1380 C   0  0  0  0  0  0  0  0  0  0  0  0
   30.4100   34.6270    8.3180 C   0  0  0  0  0  0  0  0  0  0  0  0
   28.9640   34.8550    7.9230 C   0  0  0  0  0  0  0  0  0  0  0  0
   28.8700   35.5250    6.5970 N   0  0  0  0  0  0  0  0  0  0  0  0
  1  2  1  0  0  0  0
  3  2  1  0  0  0  0
  4  3  1  0  0  0  0
  5  4  1  0  0  0  0
  6  5  1  0  0  0  0
M  END
>  <EGIN_R>
ES LYS A 135

>  <REMARK>
  4 active torsions:
  status: ('A' for Active; 'I' for Inactive)
    5  A    between atoms: CA   and  CB  
    6  A    between atoms: CB   and  CG  
    7  A    between atoms: CG   and  CD  
    8  A    between atoms: CD   and  CE  

$$$$
