ligand_73_pose_18_2HRL.pdbqt
 OpenBabel07062320523D

 54 55  0  0  1  0  0  0  0  0999 V2000
   30.3850   34.4460   21.8180 N   0  0  0  0  0  0  0  0  0  0  0  0
   31.7770   34.7060   21.7070 C   0  0  0  0  0  0  0  0  0  0  0  0
   32.6180   33.7740   21.4780 O   0  0  0  0  0  0  0  0  0  0  0  0
   29.7370   35.2290   21.9970 H   0  0  0  0  0  0  0  0  0  0  0  0
   29.9110   33.1010   21.6690 C   0  0  0  0  0  0  0  0  0  0  0  0
   29.2750   32.7600   20.3690 C   0  0  2  0  0  0  0  0  0  0  0  0
   30.2060   32.2310   19.3090 C   0  0  1  0  0  0  0  0  0  0  0  0
   29.5270   31.7770   18.0540 C   0  0  2  0  0  0  0  0  0  0  0  0
   28.7190   32.4270   16.0060 C   0  0  2  0  0  0  0  0  0  0  0  0
   28.7660   30.9280   15.8180 C   0  0  0  0  0  0  0  0  0  0  0  0
   29.1780   32.8430   17.2430 O   0  0  0  0  0  0  0  0  0  0  0  0
   27.9760   30.2690   16.8980 C   0  0  1  0  0  0  0  0  0  0  0  0
   28.4740   30.7530   18.2650 C   0  0  1  0  0  0  0  0  0  0  0  0
   27.3930   32.8110   15.8620 O   0  0  0  0  0  0  0  0  0  0  0  0
   27.3520   33.4230   15.0780 H   0  0  0  0  0  0  0  0  0  0  0  0
   29.5040   33.0360   14.9040 C   0  0  0  0  0  0  0  0  0  0  0  0
   30.7000   32.7040   14.6930 O   0  0  0  0  0  0  0  0  0  0  0  0
   28.9330   33.9860   14.0790 O   0  0  0  0  0  0  0  0  0  0  0  0
   28.0850   34.4750   14.2970 H   0  0  0  0  0  0  0  0  0  0  0  0
   26.6280   30.6190   16.6960 O   0  0  0  0  0  0  0  0  0  0  0  0
   26.4550   30.4820   15.7150 H   0  0  0  0  0  0  0  0  0  0  0  0
   29.1230   29.6030   18.9140 N   0  0  0  0  0  0  0  0  0  0  0  0
   28.5560   28.9270   20.0140 C   0  0  0  0  0  0  0  0  0  0  0  0
   30.0450   29.2770   18.5400 H   0  0  0  0  0  0  0  0  0  0  0  0
   29.2430   27.7730   20.6410 C   0  0  0  0  0  0  0  0  0  0  0  0
   27.4660   29.3010   20.4670 O   0  0  0  0  0  0  0  0  0  0  0  0
   31.1650   33.1810   18.9590 O   0  0  0  0  0  0  0  0  0  0  0  0
   31.5010   33.6940   19.7130 H   0  0  0  0  0  0  0  0  0  0  0  0
   28.6500   33.9290   19.9100 O   0  0  0  0  0  0  0  0  0  0  0  0
   29.3550   34.4880   19.4740 H   0  0  0  0  0  0  0  0  0  0  0  0
   32.2080   36.0030   21.8540 O   0  0  0  0  0  0  0  0  0  0  0  0
   31.6110   37.0220   21.1130 C   0  0  0  0  0  0  0  0  0  0  0  0
   31.2610   36.6170   19.7250 C   0  0  0  0  0  0  0  0  0  0  0  0
   32.0990   36.5150   18.6240 C   0  0  0  0  0  0  0  0  0  0  0  0
   30.0490   36.2660   19.2570 N   0  0  0  0  0  0  0  0  0  0  0  0
   31.4010   36.1180   17.5500 N   0  0  0  0  0  0  0  0  0  0  0  0
   30.1520   35.9730   17.9600 N   0  0  0  0  0  0  0  0  0  0  0  0
   31.8560   35.8860   16.2220 C   0  0  0  0  0  0  0  0  0  0  0  0
   32.9720   35.1060   15.9990 C   0  0  0  0  0  0  0  0  0  0  0  0
   31.2270   36.4130   15.1130 C   0  0  0  0  0  0  0  0  0  0  0  0
   33.4330   34.8670   14.7140 C   0  0  0  0  0  0  0  0  0  0  0  0
   31.6510   36.2030   13.8110 C   0  0  0  0  0  0  0  0  0  0  0  0
   32.7800   35.4090   13.6330 C   0  0  0  0  0  0  0  0  0  0  0  0
   30.9960   36.7500   12.6890 N   0  0  0  0  0  0  0  0  0  0  0  0
   31.5660   37.6040   12.0090 O   0  0  0  0  0  0  0  0  0  0  0  0
   29.7430   36.3340   12.3630 O   0  0  0  0  0  0  0  0  0  0  0  0
   33.2050   35.2000   12.3220 O   0  0  0  0  0  0  0  0  0  0  0  0
   33.5320   36.0150   11.7850 H   0  0  0  0  0  0  0  0  0  0  0  0
   29.8670   25.5550   16.9770 C   0  0  0  0  0  0  0  0  0  0  0  0
   28.3450   25.7220   17.0260 C   0  0  0  0  0  0  0  0  0  0  0  0
   27.6020   24.4000   16.9130 C   0  0  0  0  0  0  0  0  0  0  0  0
   26.1640   24.5200   17.3380 C   0  0  0  0  0  0  0  0  0  0  0  0
   25.9050   23.5990   18.5250 C   0  0  0  0  0  0  0  0  0  0  0  0
   24.5310   23.0460   18.4630 N   0  0  0  0  0  0  0  0  0  0  0  0
  1  4  1  0  0  0  0
  2  1  1  0  0  0  0
  2 31  1  0  0  0  0
  3  2  2  0  0  0  0
  5  1  1  0  0  0  0
  6  5  1  1  0  0  0
  7 27  1  6  0  0  0
  7  6  1  0  0  0  0
  8 13  1  0  0  0  0
  8  7  1  1  0  0  0
  9 16  1  6  0  0  0
  9 11  1  0  0  0  0
 10  9  1  0  0  0  0
 10 12  1  0  0  0  0
 11  8  1  0  0  0  0
 12 20  1  6  0  0  0
 12 13  1  0  0  0  0
 13 22  1  6  0  0  0
 14  9  1  0  0  0  0
 15 14  1  0  0  0  0
 17 16  2  0  0  0  0
 18 19  1  0  0  0  0
 18 16  1  0  0  0  0
 21 20  1  0  0  0  0
 22 23  1  0  0  0  0
 23 26  2  0  0  0  0
 23 25  1  0  0  0  0
 24 22  1  0  0  0  0
 27 28  1  0  0  0  0
 29  6  1  0  0  0  0
 30 29  1  0  0  0  0
 32 31  1  0  0  0  0
 33 32  1  0  0  0  0
 34 33  2  0  0  0  0
 35 33  1  0  0  0  0
 36 37  1  0  0  0  0
 36 34  1  0  0  0  0
 37 35  2  0  0  0  0
 38 36  1  0  0  0  0
 39 38  1  0  0  0  0
 40 38  2  0  0  0  0
 41 39  2  0  0  0  0
 42 40  1  0  0  0  0
 43 42  2  0  0  0  0
 43 41  1  0  0  0  0
 44 42  1  0  0  0  0
 45 44  2  0  0  0  0
 46 44  2  0  0  0  0
 47 43  1  0  0  0  0
 48 47  1  0  0  0  0
 49 50  1  0  0  0  0
 51 50  1  0  0  0  0
 51 52  1  0  0  0  0
 52 53  1  0  0  0  0
 54 53  1  0  0  0  0
M  END
>  <REMARK>
 VINA RESULT:    -3.873      2.681      5.058
 INTER + INTRA:         -14.354
 INTER:                  -7.043
 INTRA:                  -7.311
 UNBOUND:                -7.311
 SMILES CC(=O)N[C@@H]1[C@@H](O)C[C@](O)(C(=O)O)O[C@H]1C(O)[C@H](O)CNC(=O)OCc1cn(-c2ccc(O)c([N+](=O)[O-])c2)nn1
 SMILES IDX 21 1 22 2 23 3 20 5 18 6 16 7 15 8 9 9 8 10 14 11 6 12 5 13
 SMILES IDX 10 14 11 16 12 17 13 18 7 20 4 22 2 23 1 25 3 26 17 27 19 29
 SMILES IDX 24 31 25 32 26 33 27 34 40 35 28 36 39 37 29 38 30 39 38 40
 SMILES IDX 31 41 34 42 32 43 35 44 36 45 37 46 33 47
 H PARENT 21 4 10 15 13 19 7 21 4 24 17 28 19 30 33 48
 Flexibility Score: inf
  4 active torsions:
  status: ('A' for Active; 'I' for Inactive)
    1  A    between atoms: CA   and  CB  
    2  A    between atoms: CB   and  CG  
    3  A    between atoms: CG   and  CD  
    4  A    between atoms: CD   and  CE  

>  <TORSDO>
F 17

>  <BEGIN_>
RES LYS A 131

$$$$
ligand_73_pose_18_2HRL.pdbqt
 OpenBabel07062320523D

  6  5  0  0  0  0  0  0  0  0999 V2000
   33.1930   34.6630    9.2900 C   0  0  0  0  0  0  0  0  0  0  0  0
   32.0600   35.3600   10.0340 C   0  0  0  0  0  0  0  0  0  0  0  0
   30.7880   35.4650    9.2330 C   0  0  0  0  0  0  0  0  0  0  0  0
   30.2180   34.0840    8.9480 C   0  0  0  0  0  0  0  0  0  0  0  0
   28.7210   34.0650    9.1900 C   0  0  0  0  0  0  0  0  0  0  0  0
   28.1620   35.4460    9.2040 N   0  0  0  0  0  0  0  0  0  0  0  0
  1  2  1  0  0  0  0
  3  2  1  0  0  0  0
  4  5  1  0  0  0  0
  4  3  1  0  0  0  0
  5  6  1  0  0  0  0
M  END
>  <EGIN_R>
ES LYS A 135

>  <REMARK>
  4 active torsions:
  status: ('A' for Active; 'I' for Inactive)
    5  A    between atoms: CA   and  CB  
    6  A    between atoms: CB   and  CG  
    7  A    between atoms: CG   and  CD  
    8  A    between atoms: CD   and  CE  

$$$$
