ligand_14_pose_10_2HRL.pdbqt
 OpenBabel07062320523D

 50 51  0  0  1  0  0  0  0  0999 V2000
   29.3550   30.7920   17.3440 N   0  0  0  0  0  0  0  0  0  0  0  0
   28.4350   30.3830   18.3270 C   0  0  0  0  0  0  0  0  0  0  0  0
   27.2830   30.0540   18.0130 O   0  0  0  0  0  0  0  0  0  0  0  0
   30.3210   31.0640   17.7320 H   0  0  0  0  0  0  0  0  0  0  0  0
   29.1280   30.8740   15.9360 C   0  0  0  0  0  0  0  0  0  0  0  0
   28.9990   32.3030   15.4950 C   0  0  2  0  0  0  0  0  0  0  0  0
   30.2130   32.7460   14.6840 C   0  0  1  0  0  0  0  0  0  0  0  0
   30.5380   34.1800   15.1400 C   0  0  2  0  0  0  0  0  0  0  0  0
   30.4300   35.7870   13.4350 C   0  0  2  0  0  0  0  0  0  0  0  0
   31.7890   35.2650   13.0140 C   0  0  0  0  0  0  0  0  0  0  0  0
   29.8250   35.0780   14.4250 O   0  0  0  0  0  0  0  0  0  0  0  0
   32.6830   35.1270   14.1970 C   0  0  1  0  0  0  0  0  0  0  0  0
   31.9970   34.3970   15.3060 C   0  0  1  0  0  0  0  0  0  0  0  0
   29.6170   35.6250   12.2860 O   0  0  0  0  0  0  0  0  0  0  0  0
   28.6890   35.3930   12.5940 H   0  0  0  0  0  0  0  0  0  0  0  0
   30.4750   37.2410   13.7180 C   0  0  0  0  0  0  0  0  0  0  0  0
   30.6020   38.0500   12.7730 O   0  0  0  0  0  0  0  0  0  0  0  0
   30.3790   37.7190   15.0110 O   0  0  0  0  0  0  0  0  0  0  0  0
   29.5410   38.2100   15.2870 H   0  0  0  0  0  0  0  0  0  0  0  0
   33.8340   34.4620   13.7930 O   0  0  0  0  0  0  0  0  0  0  0  0
   33.9410   33.6150   14.3050 H   0  0  0  0  0  0  0  0  0  0  0  0
   32.3060   34.9770   16.6120 N   0  0  0  0  0  0  0  0  0  0  0  0
   31.9630   34.3550   17.8170 C   0  0  0  0  0  0  0  0  0  0  0  0
   32.7980   35.8900   16.6070 H   0  0  0  0  0  0  0  0  0  0  0  0
   32.3160   35.0180   19.0990 C   0  0  0  0  0  0  0  0  0  0  0  0
   31.3570   33.2340   17.8160 O   0  0  0  0  0  0  0  0  0  0  0  0
   31.2650   31.8940   15.0050 O   0  0  0  0  0  0  0  0  0  0  0  0
   30.9930   30.9910   15.2430 H   0  0  0  0  0  0  0  0  0  0  0  0
   28.7140   33.1960   16.5020 O   0  0  0  0  0  0  0  0  0  0  0  0
   28.6700   32.8070   17.4060 H   0  0  0  0  0  0  0  0  0  0  0  0
   28.7620   30.3270   19.6840 O   0  0  0  0  0  0  0  0  0  0  0  0
   28.9720   29.0840   20.3230 C   0  0  0  0  0  0  0  0  0  0  0  0
   30.3660   28.9260   20.8090 C   0  0  0  0  0  0  0  0  0  0  0  0
   31.2820   29.9420   21.0850 C   0  0  0  0  0  0  0  0  0  0  0  0
   31.0380   27.7930   21.0830 N   0  0  0  0  0  0  0  0  0  0  0  0
   32.4460   29.4160   21.5050 N   0  0  0  0  0  0  0  0  0  0  0  0
   32.2490   28.0890   21.4880 N   0  0  0  0  0  0  0  0  0  0  0  0
   33.6670   30.0910   21.8940 C   0  0  0  0  0  0  0  0  0  0  0  0
   33.4950   31.5650   22.0470 C   0  0  0  0  0  0  0  0  0  0  0  0
   34.7220   32.2930   22.2550 N   0  0  0  0  0  0  0  0  0  0  0  0
   35.8250   31.4380   21.8490 C   0  0  0  0  0  0  0  0  0  0  0  0
   34.8090   33.4720   21.4160 C   0  0  0  0  0  0  0  0  0  0  0  0
   36.7860   32.2710   21.0650 C   0  0  0  0  0  0  0  0  0  0  0  0
   36.3080   33.6810   21.3400 C   0  0  0  0  0  0  0  0  0  0  0  0
   29.8670   25.5550   16.9770 C   0  0  0  0  0  0  0  0  0  0  0  0
   28.3450   25.7220   17.0260 C   0  0  0  0  0  0  0  0  0  0  0  0
   27.6010   24.4060   16.8590 C   0  0  0  0  0  0  0  0  0  0  0  0
   26.1590   24.5140   17.2730 C   0  0  0  0  0  0  0  0  0  0  0  0
   25.8110   23.3610   18.2090 C   0  0  0  0  0  0  0  0  0  0  0  0
   24.9450   22.3770   17.5180 N   0  0  0  0  0  0  0  0  0  0  0  0
  1  4  1  0  0  0  0
  1  2  1  0  0  0  0
  2 31  1  0  0  0  0
  3  2  2  0  0  0  0
  5  1  1  0  0  0  0
  6  5  1  1  0  0  0
  6 29  1  0  0  0  0
  7 27  1  1  0  0  0
  7  6  1  0  0  0  0
  8  7  1  6  0  0  0
  8 13  1  0  0  0  0
  9 14  1  6  0  0  0
  9 16  1  0  0  0  0
  9 11  1  0  0  0  0
 10  9  1  0  0  0  0
 10 12  1  0  0  0  0
 11  8  1  0  0  0  0
 12 20  1  6  0  0  0
 12 13  1  0  0  0  0
 13 22  1  1  0  0  0
 14 15  1  0  0  0  0
 16 18  1  0  0  0  0
 17 16  2  0  0  0  0
 18 19  1  0  0  0  0
 20 21  1  0  0  0  0
 22 23  1  0  0  0  0
 23 25  1  0  0  0  0
 24 22  1  0  0  0  0
 26 23  2  0  0  0  0
 27 28  1  0  0  0  0
 29 30  1  0  0  0  0
 31 32  1  0  0  0  0
 32 33  1  0  0  0  0
 33 35  1  0  0  0  0
 33 34  2  0  0  0  0
 34 36  1  0  0  0  0
 35 37  2  0  0  0  0
 36 38  1  0  0  0  0
 37 36  1  0  0  0  0
 38 39  1  0  0  0  0
 39 40  1  0  0  0  0
 41 40  1  0  0  0  0
 42 40  1  0  0  0  0
 43 44  1  0  0  0  0
 43 41  1  0  0  0  0
 44 42  1  0  0  0  0
 45 46  1  0  0  0  0
 47 46  1  0  0  0  0
 47 48  1  0  0  0  0
 48 49  1  0  0  0  0
 50 49  1  0  0  0  0
M  END
>  <REMARK>
 VINA RESULT:    -4.370      5.038      8.982
 INTER + INTRA:         -14.069
 INTER:                  -8.774
 INTRA:                  -5.295
 UNBOUND:                -5.994
 SMILES CC(=O)N[C@@H]1[C@@H](O)C[C@](O)(C(=O)O)O[C@H]1C(O)[C@H](O)CNC(=O)OCc1cn(CCN2CCCC2)nn1
 SMILES IDX 21 1 22 2 23 3 20 5 18 6 16 7 15 8 9 9 8 10 14 11 6 12 5 13
 SMILES IDX 10 14 11 16 12 17 13 18 7 20 4 22 2 23 1 25 3 26 17 27 19 29
 SMILES IDX 24 31 25 32 26 33 27 34 37 35 28 36 36 37 29 38 30 39 31 40
 SMILES IDX 32 41 35 42 33 43 34 44
 H PARENT 21 4 10 15 13 19 7 21 4 24 17 28 19 30
 Flexibility Score: inf
  4 active torsions:
  status: ('A' for Active; 'I' for Inactive)
    1  A    between atoms: CA   and  CB  
    2  A    between atoms: CB   and  CG  
    3  A    between atoms: CG   and  CD  
    4  A    between atoms: CD   and  CE  

>  <TORSDO>
F 17

>  <BEGIN_>
RES LYS A 131

$$$$
ligand_14_pose_10_2HRL.pdbqt
 OpenBabel07062320523D

  6  5  0  0  0  0  0  0  0  0999 V2000
   33.1930   34.6630    9.2900 C   0  0  0  0  0  0  0  0  0  0  0  0
   32.0600   35.3600   10.0340 C   0  0  0  0  0  0  0  0  0  0  0  0
   30.8230   35.5590    9.1970 C   0  0  0  0  0  0  0  0  0  0  0  0
   30.0700   34.2480    9.0320 C   0  0  0  0  0  0  0  0  0  0  0  0
   28.7180   34.4880    8.3880 C   0  0  0  0  0  0  0  0  0  0  0  0
   27.8610   35.3540    9.2430 N   0  0  0  0  0  0  0  0  0  0  0  0
  1  2  1  0  0  0  0
  3  2  1  0  0  0  0
  4  3  1  0  0  0  0
  5  4  1  0  0  0  0
  5  6  1  0  0  0  0
M  END
>  <EGIN_R>
ES LYS A 135

>  <REMARK>
  4 active torsions:
  status: ('A' for Active; 'I' for Inactive)
    5  A    between atoms: CA   and  CB  
    6  A    between atoms: CB   and  CG  
    7  A    between atoms: CG   and  CD  
    8  A    between atoms: CD   and  CE  

$$$$
