ligand_42_pose_8_2HRL.pdbqt
 OpenBabel07062320523D

 52 54  0  0  1  0  0  0  0  0999 V2000
   21.8270   36.8580   13.7460 C   0  0  0  0  0  0  0  0  0  0  0  0
   21.9060   36.9860   12.2620 C   0  0  2  0  0  0  0  0  0  0  0  0
   21.2950   35.7560   11.5690 C   0  0  1  0  0  0  0  0  0  0  0  0
   21.3560   35.9980   10.1040 C   0  0  2  0  0  0  0  0  0  0  0  0
   21.3970   37.5680    8.4520 C   0  0  2  0  0  0  0  0  0  0  0  0
   21.6050   36.3090    7.6380 C   0  0  0  0  0  0  0  0  0  0  0  0
   21.3990   37.3560    9.8080 O   0  0  0  0  0  0  0  0  0  0  0  0
   20.5680   35.2470    7.9490 C   0  0  1  0  0  0  0  0  0  0  0  0
   20.1410   35.4400    9.3650 C   0  0  1  0  0  0  0  0  0  0  0  0
   20.2070   38.1360    7.9940 O   0  0  0  0  0  0  0  0  0  0  0  0
   19.4760   37.5870    8.3860 H   0  0  0  0  0  0  0  0  0  0  0  0
   22.5300   38.4690    8.1400 C   0  0  0  0  0  0  0  0  0  0  0  0
   22.8740   39.3350    8.9790 O   0  0  0  0  0  0  0  0  0  0  0  0
   23.2370   38.4000    6.9510 O   0  0  0  0  0  0  0  0  0  0  0  0
   23.3050   37.5590    6.3880 H   0  0  0  0  0  0  0  0  0  0  0  0
   19.5070   35.4730    7.0460 O   0  0  0  0  0  0  0  0  0  0  0  0
   19.5480   34.8510    6.2960 H   0  0  0  0  0  0  0  0  0  0  0  0
   19.5630   34.3110    9.9970 N   0  0  0  0  0  0  0  0  0  0  0  0
   18.2200   33.8650    9.8810 C   0  0  0  0  0  0  0  0  0  0  0  0
   20.1780   33.7360   10.6140 H   0  0  0  0  0  0  0  0  0  0  0  0
   17.7110   32.6560   10.5930 C   0  0  0  0  0  0  0  0  0  0  0  0
   17.4580   34.5330    9.1460 O   0  0  0  0  0  0  0  0  0  0  0  0
   22.0180   34.6620   11.9560 O   0  0  0  0  0  0  0  0  0  0  0  0
   22.8840   34.7970   12.3560 H   0  0  0  0  0  0  0  0  0  0  0  0
   23.1970   37.1160   11.8250 O   0  0  0  0  0  0  0  0  0  0  0  0
   23.8790   36.5970   12.3040 H   0  0  0  0  0  0  0  0  0  0  0  0
   23.0840   36.5390   14.3260 N   0  0  0  0  0  0  0  0  0  0  0  0
   23.3710   35.3050   14.9310 C   0  0  0  0  0  0  0  0  0  0  0  0
   23.8760   37.2520   14.3210 H   0  0  0  0  0  0  0  0  0  0  0  0
   22.5740   34.3590   15.0440 O   0  0  0  0  0  0  0  0  0  0  0  0
   24.6570   35.0950   15.4610 O   0  0  0  0  0  0  0  0  0  0  0  0
   25.5740   34.3260   14.7440 C   0  0  0  0  0  0  0  0  0  0  0  0
   25.5450   34.7390   13.3160 C   0  0  0  0  0  0  0  0  0  0  0  0
   26.3130   35.7390   12.7310 C   0  0  0  0  0  0  0  0  0  0  0  0
   24.7920   34.2480   12.3170 N   0  0  0  0  0  0  0  0  0  0  0  0
   26.0150   35.8280   11.4230 N   0  0  0  0  0  0  0  0  0  0  0  0
   25.0910   34.9080   11.2140 N   0  0  0  0  0  0  0  0  0  0  0  0
   26.5940   36.7340   10.4920 C   0  0  0  0  0  0  0  0  0  0  0  0
   27.8390   37.2820   10.7290 C   0  0  0  0  0  0  0  0  0  0  0  0
   25.9600   37.1090    9.3260 C   0  0  0  0  0  0  0  0  0  0  0  0
   28.4250   38.1720    9.8300 C   0  0  0  0  0  0  0  0  0  0  0  0
   26.5270   37.9970    8.4120 C   0  0  0  0  0  0  0  0  0  0  0  0
   27.7700   38.5300    8.6720 C   0  0  0  0  0  0  0  0  0  0  0  0
   26.1000   38.5200    7.1940 O   0  0  0  0  0  0  0  0  0  0  0  0
   28.0760   39.3770    7.5910 O   0  0  0  0  0  0  0  0  0  0  0  0
   26.8590   39.6790    6.9010 C   0  0  0  0  0  0  0  0  0  0  0  0
   29.8670   25.5550   16.9770 C   0  0  0  0  0  0  0  0  0  0  0  0
   28.3450   25.7220   17.0260 C   0  0  0  0  0  0  0  0  0  0  0  0
   27.6020   24.3990   16.9170 C   0  0  0  0  0  0  0  0  0  0  0  0
   26.2200   24.4770   17.5040 C   0  0  0  0  0  0  0  0  0  0  0  0
   26.2080   25.4850   18.6490 C   0  0  0  0  0  0  0  0  0  0  0  0
   25.0460   26.3960   18.5250 N   0  0  0  0  0  0  0  0  0  0  0  0
  1 27  1  0  0  0  0
  2  1  1  1  0  0  0
  3 23  1  6  0  0  0
  3  2  1  0  0  0  0
  4  3  1  1  0  0  0
  5 10  1  6  0  0  0
  5  7  1  0  0  0  0
  6  8  1  0  0  0  0
  6  5  1  0  0  0  0
  7  4  1  0  0  0  0
  8 16  1  6  0  0  0
  8  9  1  0  0  0  0
  9 18  1  1  0  0  0
  9  4  1  0  0  0  0
 10 11  1  0  0  0  0
 12  5  1  0  0  0  0
 12 13  2  0  0  0  0
 14 12  1  0  0  0  0
 15 14  1  0  0  0  0
 17 16  1  0  0  0  0
 18 20  1  0  0  0  0
 19 18  1  0  0  0  0
 19 21  1  0  0  0  0
 22 19  2  0  0  0  0
 23 24  1  0  0  0  0
 25  2  1  0  0  0  0
 25 26  1  0  0  0  0
 27 28  1  0  0  0  0
 28 30  2  0  0  0  0
 28 31  1  0  0  0  0
 29 27  1  0  0  0  0
 32 31  1  0  0  0  0
 33 32  1  0  0  0  0
 34 33  2  0  0  0  0
 35 33  1  0  0  0  0
 36 34  1  0  0  0  0
 37 36  1  0  0  0  0
 37 35  2  0  0  0  0
 38 39  1  0  0  0  0
 38 36  1  0  0  0  0
 40 38  2  0  0  0  0
 41 39  2  0  0  0  0
 42 43  2  0  0  0  0
 42 40  1  0  0  0  0
 43 41  1  0  0  0  0
 44 42  1  0  0  0  0
 45 43  1  0  0  0  0
 46 44  1  0  0  0  0
 46 45  1  0  0  0  0
 47 48  1  0  0  0  0
 49 48  1  0  0  0  0
 49 50  1  0  0  0  0
 50 51  1  0  0  0  0
 52 51  1  0  0  0  0
M  END
>  <REMARK>
 VINA RESULT:    -5.627      8.511     13.697
 INTER + INTRA:         -14.286
 INTER:                  -7.222
 INTRA:                  -7.064
 UNBOUND:                -4.548
 SMILES CC(=O)N[C@@H]1[C@@H](O)C[C@](O)(C(=O)O)O[C@H]1C(O)[C@H](O)CNC(=O)OCc1cn(-c2ccc3c(c2)OCO3)nn1
 SMILES IDX 20 1 18 2 16 3 15 4 9 5 8 6 14 7 6 8 5 9 10 10 11 12 12 13
 SMILES IDX 13 14 7 16 4 18 2 19 1 21 3 22 17 23 19 25 21 27 22 28 23 30
 SMILES IDX 24 31 25 32 26 33 27 34 39 35 28 36 38 37 29 38 30 39 34 40
 SMILES IDX 31 41 33 42 32 43 35 44 37 45 36 46
 H PARENT 10 11 13 15 7 17 4 20 17 24 19 26 21 29
 Flexibility Score: inf
  4 active torsions:
  status: ('A' for Active; 'I' for Inactive)
    1  A    between atoms: CA   and  CB  
    2  A    between atoms: CB   and  CG  
    3  A    between atoms: CG   and  CD  
    4  A    between atoms: CD   and  CE  

>  <TORSDO>
F 15

>  <BEGIN_>
RES LYS A 131

$$$$
ligand_42_pose_8_2HRL.pdbqt
 OpenBabel07062320523D

  6  5  0  0  0  0  0  0  0  0999 V2000
   33.1930   34.6630    9.2900 C   0  0  0  0  0  0  0  0  0  0  0  0
   32.0600   35.3600   10.0340 C   0  0  0  0  0  0  0  0  0  0  0  0
   30.8270   35.5710    9.1930 C   0  0  0  0  0  0  0  0  0  0  0  0
   30.1500   34.2440    8.8910 C   0  0  0  0  0  0  0  0  0  0  0  0
   28.7170   34.4660    8.4470 C   0  0  0  0  0  0  0  0  0  0  0  0
   28.6600   35.2990    7.2140 N   0  0  0  0  0  0  0  0  0  0  0  0
  1  2  1  0  0  0  0
  3  2  1  0  0  0  0
  4  3  1  0  0  0  0
  5  4  1  0  0  0  0
  6  5  1  0  0  0  0
M  END
>  <EGIN_R>
ES LYS A 135

>  <REMARK>
  4 active torsions:
  status: ('A' for Active; 'I' for Inactive)
    5  A    between atoms: CA   and  CB  
    6  A    between atoms: CB   and  CG  
    7  A    between atoms: CG   and  CD  
    8  A    between atoms: CD   and  CE  

$$$$
