ligand_22_pose_18_2HRL.pdbqt
 OpenBabel07062320523D

 50 50  0  0  1  0  0  0  0  0999 V2000
   25.8630   39.7640    6.1040 N   0  0  0  0  0  0  0  0  0  0  0  0
   27.2600   39.7100    6.3190 C   0  0  0  0  0  0  0  0  0  0  0  0
   27.7790   40.2300    7.3670 O   0  0  0  0  0  0  0  0  0  0  0  0
   25.4520   39.3380    5.2530 H   0  0  0  0  0  0  0  0  0  0  0  0
   25.0510   40.4180    7.0980 C   0  0  0  0  0  0  0  0  0  0  0  0
   24.0100   39.5660    7.7320 C   0  0  2  0  0  0  0  0  0  0  0  0
   24.4380   38.9690    9.0490 C   0  0  1  0  0  0  0  0  0  0  0  0
   23.4300   37.8740    9.4170 C   0  0  2  0  0  0  0  0  0  0  0  0
   21.1300   37.5360    9.3360 C   0  0  2  0  0  0  0  0  0  0  0  0
   21.1250   37.0310   10.7620 C   0  0  0  0  0  0  0  0  0  0  0  0
   22.1840   38.3710    9.0530 O   0  0  0  0  0  0  0  0  0  0  0  0
   22.1630   37.7550   11.5690 C   0  0  1  0  0  0  0  0  0  0  0  0
   23.5130   37.5870   10.9010 C   0  0  1  0  0  0  0  0  0  0  0  0
   19.9660   38.3070    9.1940 O   0  0  0  0  0  0  0  0  0  0  0  0
   19.5850   38.1740    8.3070 H   0  0  0  0  0  0  0  0  0  0  0  0
   21.0480   36.4080    8.3830 C   0  0  0  0  0  0  0  0  0  0  0  0
   20.6260   35.2980    8.7640 O   0  0  0  0  0  0  0  0  0  0  0  0
   21.4280   36.5370    7.0560 O   0  0  0  0  0  0  0  0  0  0  0  0
   20.9620   37.1670    6.4190 H   0  0  0  0  0  0  0  0  0  0  0  0
   21.8500   39.0730   11.8000 O   0  0  0  0  0  0  0  0  0  0  0  0
   22.0890   39.4030   12.6930 H   0  0  0  0  0  0  0  0  0  0  0  0
   23.9270   36.2060   11.1420 N   0  0  0  0  0  0  0  0  0  0  0  0
   25.0540   35.9030   11.9550 C   0  0  0  0  0  0  0  0  0  0  0  0
   23.3940   35.4200   10.7160 H   0  0  0  0  0  0  0  0  0  0  0  0
   25.4900   34.4980   12.2110 C   0  0  0  0  0  0  0  0  0  0  0  0
   25.6700   36.8980   12.4520 O   0  0  0  0  0  0  0  0  0  0  0  0
   25.7220   38.5020    9.0870 O   0  0  0  0  0  0  0  0  0  0  0  0
   26.1960   38.7090    8.2590 H   0  0  0  0  0  0  0  0  0  0  0  0
   23.7610   38.5110    6.8160 O   0  0  0  0  0  0  0  0  0  0  0  0
   24.5340   37.8760    6.8540 H   0  0  0  0  0  0  0  0  0  0  0  0
   28.1490   39.1150    5.4470 O   0  0  0  0  0  0  0  0  0  0  0  0
   28.0060   37.7380    5.0550 C   0  0  0  0  0  0  0  0  0  0  0  0
   27.6600   36.9590    6.2730 C   0  0  0  0  0  0  0  0  0  0  0  0
   28.5670   36.3270    7.1080 C   0  0  0  0  0  0  0  0  0  0  0  0
   26.4550   36.7000    6.8150 N   0  0  0  0  0  0  0  0  0  0  0  0
   27.9030   35.7140    8.1140 N   0  0  0  0  0  0  0  0  0  0  0  0
   26.6240   35.9620    7.9040 N   0  0  0  0  0  0  0  0  0  0  0  0
   28.5080   34.9510    9.1870 C   0  0  0  0  0  0  0  0  0  0  0  0
   27.7140   33.6870    9.4420 C   0  0  0  0  0  0  0  0  0  0  0  0
   29.9310   34.5950    8.8090 C   0  0  0  0  0  0  0  0  0  0  0  0
   28.5060   35.7280   10.4610 C   0  0  0  0  0  0  0  0  0  0  0  0
   28.9210   35.1450   11.4940 O   0  0  0  0  0  0  0  0  0  0  0  0
   28.0710   37.0380   10.5280 O   0  0  0  0  0  0  0  0  0  0  0  0
   28.4980   37.6350   11.2300 H   0  0  0  0  0  0  0  0  0  0  0  0
   29.8670   25.5550   16.9770 C   0  0  0  0  0  0  0  0  0  0  0  0
   28.3450   25.7220   17.0260 C   0  0  0  0  0  0  0  0  0  0  0  0
   27.6010   24.4020   16.8920 C   0  0  0  0  0  0  0  0  0  0  0  0
   26.1590   24.5200   17.3020 C   0  0  0  0  0  0  0  0  0  0  0  0
   26.0710   24.6670   18.8170 C   0  0  0  0  0  0  0  0  0  0  0  0
   25.1860   23.6240   19.3890 N   0  0  0  0  0  0  0  0  0  0  0  0
  1  2  1  0  0  0  0
  1  5  1  0  0  0  0
  2  3  2  0  0  0  0
  4  1  1  0  0  0  0
  6  5  1  6  0  0  0
  6  7  1  0  0  0  0
  7 27  1  6  0  0  0
  8  7  1  1  0  0  0
  8 13  1  0  0  0  0
  9 16  1  6  0  0  0
  9 10  1  0  0  0  0
 10 12  1  0  0  0  0
 11  9  1  0  0  0  0
 11  8  1  0  0  0  0
 12 20  1  6  0  0  0
 13 22  1  6  0  0  0
 13 12  1  0  0  0  0
 14  9  1  0  0  0  0
 15 14  1  0  0  0  0
 16 17  2  0  0  0  0
 18 16  1  0  0  0  0
 19 18  1  0  0  0  0
 20 21  1  0  0  0  0
 22 23  1  0  0  0  0
 23 25  1  0  0  0  0
 23 26  2  0  0  0  0
 24 22  1  0  0  0  0
 28 27  1  0  0  0  0
 29 30  1  0  0  0  0
 29  6  1  0  0  0  0
 31  2  1  0  0  0  0
 32 31  1  0  0  0  0
 32 33  1  0  0  0  0
 33 35  1  0  0  0  0
 33 34  2  0  0  0  0
 34 36  1  0  0  0  0
 35 37  2  0  0  0  0
 36 38  1  0  0  0  0
 37 36  1  0  0  0  0
 38 39  1  0  0  0  0
 38 41  1  0  0  0  0
 40 38  1  0  0  0  0
 41 43  1  0  0  0  0
 41 42  2  0  0  0  0
 43 44  1  0  0  0  0
 45 46  1  0  0  0  0
 47 46  1  0  0  0  0
 47 48  1  0  0  0  0
 48 49  1  0  0  0  0
 49 50  1  0  0  0  0
M  END
>  <REMARK>
 VINA RESULT:    -4.766      3.756      8.184
 INTER + INTRA:         -14.245
 INTER:                  -8.214
 INTRA:                  -6.031
 UNBOUND:                -5.578
 SMILES CC(=O)N[C@@H]1[C@@H](O)C[C@](O)(C(=O)O)O[C@H]1C(O)[C@H](O)CNC(=O)OCc1cn(C(C)(C)C(=O)O)nn1
 SMILES IDX 21 1 22 2 23 3 20 5 18 6 16 7 15 8 9 9 8 10 14 11 6 12 5 13
 SMILES IDX 10 14 11 16 12 17 13 18 7 20 4 22 2 23 1 25 3 26 17 27 19 29
 SMILES IDX 24 31 25 32 26 33 27 34 36 35 28 36 35 37 29 38 30 39 31 40
 SMILES IDX 32 41 33 42 34 43
 H PARENT 21 4 10 15 13 19 7 21 4 24 17 28 19 30 34 44
 Flexibility Score: inf
  4 active torsions:
  status: ('A' for Active; 'I' for Inactive)
    1  A    between atoms: CA   and  CB  
    2  A    between atoms: CB   and  CG  
    3  A    between atoms: CG   and  CD  
    4  A    between atoms: CD   and  CE  

>  <TORSDO>
F 17

>  <BEGIN_>
RES LYS A 131

$$$$
ligand_22_pose_18_2HRL.pdbqt
 OpenBabel07062320523D

  6  5  0  0  0  0  0  0  0  0999 V2000
   33.1930   34.6630    9.2900 C   0  0  0  0  0  0  0  0  0  0  0  0
   32.0600   35.3600   10.0340 C   0  0  0  0  0  0  0  0  0  0  0  0
   32.5350   36.3760   11.0410 C   0  0  0  0  0  0  0  0  0  0  0  0
   31.9560   36.0800   12.4160 C   0  0  0  0  0  0  0  0  0  0  0  0
   32.9750   35.3610   13.2790 C   0  0  0  0  0  0  0  0  0  0  0  0
   32.3200   34.6920   14.4370 N   0  0  0  0  0  0  0  0  0  0  0  0
  1  2  1  0  0  0  0
  2  3  1  0  0  0  0
  3  4  1  0  0  0  0
  4  5  1  0  0  0  0
  5  6  1  0  0  0  0
M  END
>  <EGIN_R>
ES LYS A 135

>  <REMARK>
  4 active torsions:
  status: ('A' for Active; 'I' for Inactive)
    5  A    between atoms: CA   and  CB  
    6  A    between atoms: CB   and  CG  
    7  A    between atoms: CG   and  CD  
    8  A    between atoms: CD   and  CE  

$$$$
