ligand_52_pose_3_2HRL.pdbqt
 OpenBabel07062320523D

 49 50  0  0  1  0  0  0  0  0999 V2000
   27.6700   28.8530   20.1320 C   0  0  0  0  0  0  0  0  0  0  0  0
   28.0320   27.5470   20.7380 C   0  0  2  0  0  0  0  0  0  0  0  0
   28.6270   27.6570   22.0900 C   0  0  2  0  0  0  0  0  0  0  0  0
   29.7640   28.5960   22.2900 C   0  0  2  0  0  0  0  0  0  0  0  0
   31.6920   29.4690   21.4760 C   0  0  2  0  0  0  0  0  0  0  0  0
   31.9720   30.1270   22.7800 C   0  0  0  0  0  0  0  0  0  0  0  0
   30.8490   28.3740   21.5050 O   0  0  0  0  0  0  0  0  0  0  0  0
   30.8870   30.1000   23.7990 C   0  0  1  0  0  0  0  0  0  0  0  0
   30.1640   28.7230   23.7330 C   0  0  1  0  0  0  0  0  0  0  0  0
   32.9530   28.9540   21.0390 O   0  0  0  0  0  0  0  0  0  0  0  0
   33.4980   29.7580   20.8760 H   0  0  0  0  0  0  0  0  0  0  0  0
   31.2700   30.4220   20.4250 C   0  0  0  0  0  0  0  0  0  0  0  0
   31.3720   31.6570   20.6280 O   0  0  0  0  0  0  0  0  0  0  0  0
   30.7540   30.0580   19.1880 O   0  0  0  0  0  0  0  0  0  0  0  0
   31.4460   29.8150   18.4700 H   0  0  0  0  0  0  0  0  0  0  0  0
   31.4120   30.1680   25.0900 O   0  0  0  0  0  0  0  0  0  0  0  0
   32.3780   29.9610   25.0630 H   0  0  0  0  0  0  0  0  0  0  0  0
   28.9790   28.8850   24.5310 N   0  0  0  0  0  0  0  0  0  0  0  0
   28.7360   28.1850   25.7350 C   0  0  0  0  0  0  0  0  0  0  0  0
   28.2390   29.5650   24.2130 H   0  0  0  0  0  0  0  0  0  0  0  0
   27.4820   28.4220   26.4860 C   0  0  0  0  0  0  0  0  0  0  0  0
   29.5870   27.3680   26.1550 O   0  0  0  0  0  0  0  0  0  0  0  0
   28.7270   26.4600   22.7750 O   0  0  0  0  0  0  0  0  0  0  0  0
   29.0740   26.5040   23.6800 H   0  0  0  0  0  0  0  0  0  0  0  0
   29.0020   26.9000   19.9330 O   0  0  0  0  0  0  0  0  0  0  0  0
   29.8210   27.4320   19.9930 H   0  0  0  0  0  0  0  0  0  0  0  0
   28.0490   29.0600   18.7660 N   0  0  0  0  0  0  0  0  0  0  0  0
   27.2250   28.9270   17.6550 C   0  0  0  0  0  0  0  0  0  0  0  0
   29.0580   29.3440   18.5700 H   0  0  0  0  0  0  0  0  0  0  0  0
   26.0380   28.5930   17.7610 O   0  0  0  0  0  0  0  0  0  0  0  0
   27.6710   29.1590   16.3420 O   0  0  0  0  0  0  0  0  0  0  0  0
   27.6160   30.4500   15.7800 C   0  0  0  0  0  0  0  0  0  0  0  0
   28.8900   31.1740   15.9440 C   0  0  0  0  0  0  0  0  0  0  0  0
   29.1430   32.4040   15.3570 C   0  0  0  0  0  0  0  0  0  0  0  0
   29.9980   30.8660   16.6180 N   0  0  0  0  0  0  0  0  0  0  0  0
   30.3840   32.7950   15.6940 N   0  0  0  0  0  0  0  0  0  0  0  0
   30.8870   31.8580   16.4550 N   0  0  0  0  0  0  0  0  0  0  0  0
   31.0450   34.0030   15.3050 C   0  0  0  0  0  0  0  0  0  0  0  0
   32.4140   34.0430   15.1050 C   0  0  0  0  0  0  0  0  0  0  0  0
   30.3140   35.1590   15.1210 C   0  0  0  0  0  0  0  0  0  0  0  0
   33.0140   35.2460   14.7260 C   0  0  0  0  0  0  0  0  0  0  0  0
   30.9260   36.3190   14.7520 N   0  0  0  0  0  0  0  0  0  0  0  0
   32.2540   36.3880   14.5500 C   0  0  0  0  0  0  0  0  0  0  0  0
   29.8670   25.5550   16.9770 C   0  0  0  0  0  0  0  0  0  0  0  0
   28.3450   25.7220   17.0260 C   0  0  0  0  0  0  0  0  0  0  0  0
   27.5990   24.4670   16.5990 C   0  0  0  0  0  0  0  0  0  0  0  0
   26.5240   24.0860   17.5790 C   0  0  0  0  0  0  0  0  0  0  0  0
   26.3090   25.2280   18.5670 C   0  0  0  0  0  0  0  0  0  0  0  0
   25.5060   24.7670   19.7250 N   0  0  0  0  0  0  0  0  0  0  0  0
  2  1  1  6  0  0  0
  2  3  1  0  0  0  0
  3 23  1  6  0  0  0
  4  3  1  1  0  0  0
  4  9  1  0  0  0  0
  5 12  1  6  0  0  0
  5  7  1  0  0  0  0
  5  6  1  0  0  0  0
  6  8  1  0  0  0  0
  7  4  1  0  0  0  0
  8 16  1  1  0  0  0
  9  8  1  0  0  0  0
  9 18  1  1  0  0  0
 10  5  1  0  0  0  0
 11 10  1  0  0  0  0
 12 13  2  0  0  0  0
 14 12  1  0  0  0  0
 15 14  1  0  0  0  0
 17 16  1  0  0  0  0
 18 19  1  0  0  0  0
 19 22  2  0  0  0  0
 19 21  1  0  0  0  0
 20 18  1  0  0  0  0
 23 24  1  0  0  0  0
 25 26  1  0  0  0  0
 25  2  1  0  0  0  0
 27  1  1  0  0  0  0
 28 30  2  0  0  0  0
 28 27  1  0  0  0  0
 29 27  1  0  0  0  0
 31 28  1  0  0  0  0
 32 33  1  0  0  0  0
 32 31  1  0  0  0  0
 33 35  1  0  0  0  0
 34 36  1  0  0  0  0
 34 33  2  0  0  0  0
 36 37  1  0  0  0  0
 37 35  2  0  0  0  0
 38 36  1  0  0  0  0
 39 38  2  0  0  0  0
 40 38  1  0  0  0  0
 41 39  1  0  0  0  0
 42 40  2  0  0  0  0
 43 41  2  0  0  0  0
 43 42  1  0  0  0  0
 44 45  1  0  0  0  0
 46 45  1  0  0  0  0
 46 47  1  0  0  0  0
 47 48  1  0  0  0  0
 48 49  1  0  0  0  0
M  END
>  <REMARK>
 VINA RESULT:    -5.160      2.047      2.592
 INTER + INTRA:         -14.094
 INTER:                  -8.300
 INTRA:                  -5.794
 UNBOUND:                -5.164
 SMILES CC(=O)N[C@@H]1[C@@H](O)C[C@](O)(C(=O)O)O[C@H]1C(O)[C@H](O)CNC(=O)OCc1cn(-c2cccnc2)nn1
 SMILES IDX 20 1 18 2 16 3 15 4 9 5 8 6 14 7 6 8 5 9 10 10 11 12 12 13
 SMILES IDX 13 14 7 16 4 18 2 19 1 21 3 22 17 23 19 25 21 27 22 28 23 30
 SMILES IDX 24 31 25 32 26 33 27 34 36 35 28 36 35 37 29 38 30 39 34 40
 SMILES IDX 31 41 33 42 32 43
 H PARENT 10 11 13 15 7 17 4 20 17 24 19 26 21 29
 Flexibility Score: inf
  4 active torsions:
  status: ('A' for Active; 'I' for Inactive)
    1  A    between atoms: CA   and  CB  
    2  A    between atoms: CB   and  CG  
    3  A    between atoms: CG   and  CD  
    4  A    between atoms: CD   and  CE  

>  <TORSDO>
F 15

>  <BEGIN_>
RES LYS A 131

$$$$
ligand_52_pose_3_2HRL.pdbqt
 OpenBabel07062320523D

  6  5  0  0  0  0  0  0  0  0999 V2000
   33.1930   34.6630    9.2900 C   0  0  0  0  0  0  0  0  0  0  0  0
   32.0600   35.3600   10.0340 C   0  0  0  0  0  0  0  0  0  0  0  0
   30.8100   35.5270    9.2090 C   0  0  0  0  0  0  0  0  0  0  0  0
   30.2000   34.1730    8.8790 C   0  0  0  0  0  0  0  0  0  0  0  0
   28.7090   34.3050    8.6350 C   0  0  0  0  0  0  0  0  0  0  0  0
   27.9330   33.9630    9.8590 N   0  0  0  0  0  0  0  0  0  0  0  0
  1  2  1  0  0  0  0
  3  2  1  0  0  0  0
  4  3  1  0  0  0  0
  5  4  1  0  0  0  0
  5  6  1  0  0  0  0
M  END
>  <EGIN_R>
ES LYS A 135

>  <REMARK>
  4 active torsions:
  status: ('A' for Active; 'I' for Inactive)
    5  A    between atoms: CA   and  CB  
    6  A    between atoms: CB   and  CG  
    7  A    between atoms: CG   and  CD  
    8  A    between atoms: CD   and  CE  

$$$$
