ligand_61_pose_2_2HRL.pdbqt
 OpenBabel07062320523D

 49 50  0  0  1  0  0  0  0  0999 V2000
   31.1120   30.0500   19.9270 N   0  0  0  0  0  0  0  0  0  0  0  0
   30.4450   31.2170   20.3650 C   0  0  0  0  0  0  0  0  0  0  0  0
   30.4310   31.4900   21.5870 O   0  0  0  0  0  0  0  0  0  0  0  0
   31.0930   29.8710   18.8740 H   0  0  0  0  0  0  0  0  0  0  0  0
   31.7960   29.1180   20.7980 C   0  0  0  0  0  0  0  0  0  0  0  0
   31.1990   27.7600   20.6200 C   0  0  2  0  0  0  0  0  0  0  0  0
   29.9650   27.5130   21.4610 C   0  0  2  0  0  0  0  0  0  0  0  0
   28.7630   27.5290   20.5770 C   0  0  2  0  0  0  0  0  0  0  0  0
   27.4190   28.8720   19.2600 C   0  0  2  0  0  0  0  0  0  0  0  0
   26.6040   27.6070   19.1350 C   0  0  0  0  0  0  0  0  0  0  0  0
   28.6830   28.6470   19.7700 O   0  0  0  0  0  0  0  0  0  0  0  0
   26.4260   26.8910   20.4320 C   0  0  1  0  0  0  0  0  0  0  0  0
   27.4770   27.3830   21.4040 C   0  0  1  0  0  0  0  0  0  0  0  0
   26.7260   29.8740   19.9420 O   0  0  0  0  0  0  0  0  0  0  0  0
   27.2220   30.1290   20.7530 H   0  0  0  0  0  0  0  0  0  0  0  0
   27.6140   29.3810   17.8550 C   0  0  0  0  0  0  0  0  0  0  0  0
   26.7660   29.2490   16.9640 O   0  0  0  0  0  0  0  0  0  0  0  0
   28.8050   30.0320   17.5350 O   0  0  0  0  0  0  0  0  0  0  0  0
   29.7180   29.6470   17.7420 H   0  0  0  0  0  0  0  0  0  0  0  0
   25.1510   26.9650   20.9470 O   0  0  0  0  0  0  0  0  0  0  0  0
   25.1560   27.2080   21.9240 H   0  0  0  0  0  0  0  0  0  0  0  0
   27.6970   26.4730   22.4970 N   0  0  0  0  0  0  0  0  0  0  0  0
   26.9990   26.6330   23.7380 C   0  0  0  0  0  0  0  0  0  0  0  0
   28.3630   25.6720   22.4310 H   0  0  0  0  0  0  0  0  0  0  0  0
   27.1670   25.7500   24.8940 C   0  0  0  0  0  0  0  0  0  0  0  0
   26.1780   27.6040   23.8420 O   0  0  0  0  0  0  0  0  0  0  0  0
   29.8990   28.5620   22.3790 O   0  0  0  0  0  0  0  0  0  0  0  0
   30.5110   28.3790   23.1330 H   0  0  0  0  0  0  0  0  0  0  0  0
   32.1570   26.8230   21.0420 O   0  0  0  0  0  0  0  0  0  0  0  0
   31.9940   26.4970   21.9530 H   0  0  0  0  0  0  0  0  0  0  0  0
   29.8100   32.0510   19.4220 O   0  0  0  0  0  0  0  0  0  0  0  0
   30.5020   33.2550   19.1200 C   0  0  0  0  0  0  0  0  0  0  0  0
   30.9800   33.1700   17.7330 C   0  0  0  0  0  0  0  0  0  0  0  0
   31.6840   34.1230   17.0150 C   0  0  0  0  0  0  0  0  0  0  0  0
   30.8110   32.1200   16.9010 N   0  0  0  0  0  0  0  0  0  0  0  0
   31.8990   33.6010   15.8000 N   0  0  0  0  0  0  0  0  0  0  0  0
   31.3750   32.3920   15.7240 N   0  0  0  0  0  0  0  0  0  0  0  0
   32.5980   34.2580   14.7310 C   0  0  0  0  0  0  0  0  0  0  0  0
   31.7460   35.3840   14.1460 C   0  0  0  0  0  0  0  0  0  0  0  0
   32.1710   36.6410   14.1100 C   0  0  0  0  0  0  0  0  0  0  0  0
   30.5050   35.0580   13.6460 C   0  0  0  0  0  0  0  0  0  0  0  0
   31.3740   37.6170   13.5750 C   0  0  0  0  0  0  0  0  0  0  0  0
   29.9060   36.6910   13.0810 S   0  0  0  0  0  0  0  0  0  0  0  0
   29.8670   25.5550   16.9770 C   0  0  0  0  0  0  0  0  0  0  0  0
   28.3450   25.7220   17.0260 C   0  0  0  0  0  0  0  0  0  0  0  0
   27.6010   24.4010   16.9030 C   0  0  0  0  0  0  0  0  0  0  0  0
   26.1590   24.5220   17.3120 C   0  0  0  0  0  0  0  0  0  0  0  0
   25.9050   23.6600   18.5430 C   0  0  0  0  0  0  0  0  0  0  0  0
   24.7430   22.7670   18.3200 N   0  0  0  0  0  0  0  0  0  0  0  0
  1  2  1  0  0  0  0
  1  5  1  0  0  0  0
  2  3  2  0  0  0  0
  4  1  1  0  0  0  0
  6  5  1  1  0  0  0
  6 29  1  0  0  0  0
  6  7  1  0  0  0  0
  7 27  1  1  0  0  0
  8 13  1  0  0  0  0
  8  7  1  1  0  0  0
  9 16  1  6  0  0  0
  9 11  1  0  0  0  0
  9 14  1  0  0  0  0
 10  9  1  0  0  0  0
 10 12  1  0  0  0  0
 11  8  1  0  0  0  0
 12 20  1  1  0  0  0
 12 13  1  0  0  0  0
 13 22  1  1  0  0  0
 14 15  1  0  0  0  0
 17 16  2  0  0  0  0
 18 19  1  0  0  0  0
 18 16  1  0  0  0  0
 20 21  1  0  0  0  0
 22 23  1  0  0  0  0
 23 26  2  0  0  0  0
 23 25  1  0  0  0  0
 24 22  1  0  0  0  0
 27 28  1  0  0  0  0
 29 30  1  0  0  0  0
 31  2  1  0  0  0  0
 32 31  1  0  0  0  0
 33 32  1  0  0  0  0
 34 33  2  0  0  0  0
 35 33  1  0  0  0  0
 36 34  1  0  0  0  0
 37 36  1  0  0  0  0
 37 35  2  0  0  0  0
 38 36  1  0  0  0  0
 39 38  1  0  0  0  0
 40 39  1  0  0  0  0
 41 39  2  0  0  0  0
 42 40  2  0  0  0  0
 43 42  1  0  0  0  0
 43 41  1  0  0  0  0
 44 45  1  0  0  0  0
 46 45  1  0  0  0  0
 46 47  1  0  0  0  0
 47 48  1  0  0  0  0
 49 48  1  0  0  0  0
M  END
>  <REMARK>
 VINA RESULT:    -4.521      6.503     12.280
 INTER + INTRA:         -14.225
 INTER:                  -8.057
 INTRA:                  -6.168
 UNBOUND:                -6.136
 SMILES CC(=O)N[C@@H]1[C@@H](O)C[C@](O)(C(=O)O)O[C@H]1C(O)[C@H](O)CNC(=O)OCc1cn(Cc2ccsc2)nn1
 SMILES IDX 21 1 22 2 23 3 20 5 18 6 16 7 15 8 9 9 8 10 14 11 6 12 5 13
 SMILES IDX 10 14 11 16 12 17 13 18 7 20 4 22 2 23 1 25 3 26 17 27 19 29
 SMILES IDX 24 31 25 32 26 33 27 34 36 35 28 36 35 37 29 38 30 39 31 40
 SMILES IDX 34 41 32 42 33 43
 H PARENT 21 4 10 15 13 19 7 21 4 24 17 28 19 30
 Flexibility Score: inf
  4 active torsions:
  status: ('A' for Active; 'I' for Inactive)
    1  A    between atoms: CA   and  CB  
    2  A    between atoms: CB   and  CG  
    3  A    between atoms: CG   and  CD  
    4  A    between atoms: CD   and  CE  

>  <TORSDO>
F 16

>  <BEGIN_>
RES LYS A 131

$$$$
ligand_61_pose_2_2HRL.pdbqt
 OpenBabel07062320523D

  6  5  0  0  0  0  0  0  0  0999 V2000
   33.1930   34.6630    9.2900 C   0  0  0  0  0  0  0  0  0  0  0  0
   32.0600   35.3600   10.0340 C   0  0  0  0  0  0  0  0  0  0  0  0
   30.7450   34.6280    9.9520 C   0  0  0  0  0  0  0  0  0  0  0  0
   30.3180   34.4530    8.5030 C   0  0  0  0  0  0  0  0  0  0  0  0
   28.8100   34.5560    8.3760 C   0  0  0  0  0  0  0  0  0  0  0  0
   28.1270   33.7840    9.4510 N   0  0  0  0  0  0  0  0  0  0  0  0
  1  2  1  0  0  0  0
  3  2  1  0  0  0  0
  4  3  1  0  0  0  0
  5  4  1  0  0  0  0
  5  6  1  0  0  0  0
M  END
>  <EGIN_R>
ES LYS A 135

>  <REMARK>
  4 active torsions:
  status: ('A' for Active; 'I' for Inactive)
    5  A    between atoms: CA   and  CB  
    6  A    between atoms: CB   and  CG  
    7  A    between atoms: CG   and  CD  
    8  A    between atoms: CD   and  CE  

$$$$
