ligand_36_pose_15_2HRL.pdbqt
 OpenBabel07062320523D

 52 53  0  0  1  0  0  0  0  0999 V2000
   22.8650   34.8960   12.8390 N   0  0  0  0  0  0  0  0  0  0  0  0
   23.3880   36.1060   13.3820 C   0  0  0  0  0  0  0  0  0  0  0  0
   22.5790   36.9600   13.8890 O   0  0  0  0  0  0  0  0  0  0  0  0
   23.5400   34.2190   12.4380 H   0  0  0  0  0  0  0  0  0  0  0  0
   21.4670   34.6630   12.8670 C   0  0  0  0  0  0  0  0  0  0  0  0
   20.8170   34.3300   11.5450 C   0  0  2  0  0  0  0  0  0  0  0  0
   21.0750   35.3680   10.4730 C   0  0  2  0  0  0  0  0  0  0  0  0
   19.8880   35.6130    9.6050 C   0  0  2  0  0  0  0  0  0  0  0  0
   18.5500   34.5710    8.0100 C   0  0  2  0  0  0  0  0  0  0  0  0
   17.7740   35.8650    8.1070 C   0  0  0  0  0  0  0  0  0  0  0  0
   19.4830   34.4210    8.9920 O   0  0  0  0  0  0  0  0  0  0  0  0
   18.6450   37.0720    8.1110 C   0  0  1  0  0  0  0  0  0  0  0  0
   20.0610   36.6230    8.5150 C   0  0  1  0  0  0  0  0  0  0  0  0
   19.1130   34.4890    6.7180 O   0  0  0  0  0  0  0  0  0  0  0  0
   19.5390   35.3740    6.5220 H   0  0  0  0  0  0  0  0  0  0  0  0
   17.5670   33.4740    8.1280 C   0  0  0  0  0  0  0  0  0  0  0  0
   16.5430   33.6390    8.8280 O   0  0  0  0  0  0  0  0  0  0  0  0
   17.7700   32.2820    7.4750 O   0  0  0  0  0  0  0  0  0  0  0  0
   18.5610   31.6760    7.6070 H   0  0  0  0  0  0  0  0  0  0  0  0
   18.6670   37.7620    6.9160 O   0  0  0  0  0  0  0  0  0  0  0  0
   17.9450   37.3670    6.3380 H   0  0  0  0  0  0  0  0  0  0  0  0
   20.8770   37.7550    8.8260 N   0  0  0  0  0  0  0  0  0  0  0  0
   22.1350   37.9700    8.1650 C   0  0  0  0  0  0  0  0  0  0  0  0
   20.5920   38.4830    9.5410 H   0  0  0  0  0  0  0  0  0  0  0  0
   22.9790   39.1570    8.4980 C   0  0  0  0  0  0  0  0  0  0  0  0
   22.5510   37.1670    7.2960 O   0  0  0  0  0  0  0  0  0  0  0  0
   22.2370   35.1050    9.8220 O   0  0  0  0  0  0  0  0  0  0  0  0
   23.0030   34.9150   10.3660 H   0  0  0  0  0  0  0  0  0  0  0  0
   19.4290   34.3070   11.8400 O   0  0  0  0  0  0  0  0  0  0  0  0
   18.9390   33.7100   11.2460 H   0  0  0  0  0  0  0  0  0  0  0  0
   24.7290   36.4400   13.4080 O   0  0  0  0  0  0  0  0  0  0  0  0
   25.6660   35.4650   13.8100 C   0  0  0  0  0  0  0  0  0  0  0  0
   26.6090   35.1180   12.7210 C   0  0  0  0  0  0  0  0  0  0  0  0
   26.3300   34.5070   11.5090 C   0  0  0  0  0  0  0  0  0  0  0  0
   27.9280   35.3470   12.7270 N   0  0  0  0  0  0  0  0  0  0  0  0
   27.4730   34.3880   10.8280 N   0  0  0  0  0  0  0  0  0  0  0  0
   28.4160   34.9020   11.5880 N   0  0  0  0  0  0  0  0  0  0  0  0
   27.6580   33.8180    9.5120 C   0  0  0  0  0  0  0  0  0  0  0  0
   27.6990   34.8070    8.4350 C   0  0  0  0  0  0  0  0  0  0  0  0
   26.6100   35.6020    8.1900 C   0  0  0  0  0  0  0  0  0  0  0  0
   28.8400   34.9370    7.6580 C   0  0  0  0  0  0  0  0  0  0  0  0
   26.6310   36.5380    7.1730 C   0  0  0  0  0  0  0  0  0  0  0  0
   28.8880   35.8690    6.6300 C   0  0  0  0  0  0  0  0  0  0  0  0
   27.7660   36.6670    6.4000 C   0  0  0  0  0  0  0  0  0  0  0  0
   27.7990   37.6320    5.3410 C   0  0  0  0  0  0  0  0  0  0  0  0
   27.8250   38.4340    4.4870 N   0  0  0  0  0  0  0  0  0  0  0  0
   29.8670   25.5550   16.9770 C   0  0  0  0  0  0  0  0  0  0  0  0
   28.3450   25.7220   17.0260 C   0  0  0  0  0  0  0  0  0  0  0  0
   27.6010   24.4020   16.8920 C   0  0  0  0  0  0  0  0  0  0  0  0
   26.1680   24.5120   17.3340 C   0  0  0  0  0  0  0  0  0  0  0  0
   25.8190   23.3280   18.2290 C   0  0  0  0  0  0  0  0  0  0  0  0
   25.4170   23.7960   19.5760 N   0  0  0  0  0  0  0  0  0  0  0  0
  1  5  1  0  0  0  0
  1  2  1  0  0  0  0
  2 31  1  0  0  0  0
  2  3  2  0  0  0  0
  4  1  1  0  0  0  0
  6 29  1  0  0  0  0
  6  5  1  1  0  0  0
  7 27  1  6  0  0  0
  7  6  1  0  0  0  0
  8  7  1  6  0  0  0
  9 14  1  6  0  0  0
  9 10  1  0  0  0  0
  9 16  1  0  0  0  0
  9 11  1  0  0  0  0
 10 12  1  0  0  0  0
 11  8  1  0  0  0  0
 12 20  1  6  0  0  0
 12 13  1  0  0  0  0
 13 22  1  1  0  0  0
 13  8  1  0  0  0  0
 15 14  1  0  0  0  0
 16 17  2  0  0  0  0
 18 19  1  0  0  0  0
 18 16  1  0  0  0  0
 21 20  1  0  0  0  0
 22 24  1  0  0  0  0
 23 25  1  0  0  0  0
 23 22  1  0  0  0  0
 26 23  2  0  0  0  0
 27 28  1  0  0  0  0
 30 29  1  0  0  0  0
 31 32  1  0  0  0  0
 33 35  1  0  0  0  0
 33 32  1  0  0  0  0
 34 33  2  0  0  0  0
 36 34  1  0  0  0  0
 36 37  1  0  0  0  0
 37 35  2  0  0  0  0
 38 36  1  0  0  0  0
 39 38  1  0  0  0  0
 40 39  1  0  0  0  0
 41 39  2  0  0  0  0
 42 40  2  0  0  0  0
 43 41  1  0  0  0  0
 44 43  2  0  0  0  0
 44 42  1  0  0  0  0
 45 44  1  0  0  0  0
 46 45  3  0  0  0  0
 47 48  1  0  0  0  0
 49 48  1  0  0  0  0
 49 50  1  0  0  0  0
 50 51  1  0  0  0  0
 51 52  1  0  0  0  0
M  END
>  <REMARK>
 VINA RESULT:    -4.100      7.101     12.892
 INTER + INTRA:         -14.556
 INTER:                 -10.471
 INTRA:                  -4.084
 UNBOUND:                -6.980
 SMILES CC(=O)N[C@@H]1[C@@H](O)C[C@](O)(C(=O)O)O[C@H]1C(O)[C@H](O)CNC(=O)OCc1cn(Cc2ccc(C#N)cc2)nn1
 SMILES IDX 21 1 22 2 23 3 20 5 18 6 16 7 15 8 9 9 8 10 14 11 6 12 5 13
 SMILES IDX 10 14 11 16 12 17 13 18 7 20 4 22 2 23 1 25 3 26 17 27 19 29
 SMILES IDX 24 31 25 32 26 33 27 34 39 35 28 36 38 37 29 38 30 39 31 40
 SMILES IDX 37 41 32 42 36 43 33 44 34 45 35 46
 H PARENT 21 4 10 15 13 19 7 21 4 24 17 28 19 30
 Flexibility Score: inf
  4 active torsions:
  status: ('A' for Active; 'I' for Inactive)
    1  A    between atoms: CA   and  CB  
    2  A    between atoms: CB   and  CG  
    3  A    between atoms: CG   and  CD  
    4  A    between atoms: CD   and  CE  

>  <TORSDO>
F 17

>  <BEGIN_>
RES LYS A 131

$$$$
ligand_36_pose_15_2HRL.pdbqt
 OpenBabel07062320523D

  6  5  0  0  0  0  0  0  0  0999 V2000
   33.1930   34.6630    9.2900 C   0  0  0  0  0  0  0  0  0  0  0  0
   32.0600   35.3600   10.0340 C   0  0  0  0  0  0  0  0  0  0  0  0
   32.4810   35.9540   11.3530 C   0  0  0  0  0  0  0  0  0  0  0  0
   31.9040   37.3510   11.5220 C   0  0  0  0  0  0  0  0  0  0  0  0
   31.4000   37.5510   12.9390 C   0  0  0  0  0  0  0  0  0  0  0  0
   30.8400   38.9190   13.1200 N   0  0  0  0  0  0  0  0  0  0  0  0
  1  2  1  0  0  0  0
  2  3  1  0  0  0  0
  3  4  1  0  0  0  0
  4  5  1  0  0  0  0
  5  6  1  0  0  0  0
M  END
>  <EGIN_R>
ES LYS A 135

>  <REMARK>
  4 active torsions:
  status: ('A' for Active; 'I' for Inactive)
    5  A    between atoms: CA   and  CB  
    6  A    between atoms: CB   and  CG  
    7  A    between atoms: CG   and  CD  
    8  A    between atoms: CD   and  CE  

$$$$
