ligand_13_pose_8_2HRL.pdbqt
 OpenBabel07062320523D

 49 49  0  0  1  0  0  0  0  0999 V2000
   26.7880   27.9360   21.4230 N   0  0  0  0  0  0  0  0  0  0  0  0
   26.2680   26.9930   20.5080 C   0  0  0  0  0  0  0  0  0  0  0  0
   25.8380   25.8900   20.8610 O   0  0  0  0  0  0  0  0  0  0  0  0
   27.1150   28.8470   20.9590 H   0  0  0  0  0  0  0  0  0  0  0  0
   26.9050   27.7730   22.8360 C   0  0  0  0  0  0  0  0  0  0  0  0
   28.1150   27.0670   23.3420 C   0  0  2  0  0  0  0  0  0  0  0  0
   29.3300   27.2520   22.5060 C   0  0  1  0  0  0  0  0  0  0  0  0
   30.0370   28.5720   22.6480 C   0  0  2  0  0  0  0  0  0  0  0  0
   30.4310   29.5570   20.5650 C   0  0  2  0  0  0  0  0  0  0  0  0
   31.6000   30.3970   21.0310 C   0  0  0  0  0  0  0  0  0  0  0  0
   29.5750   29.3700   21.6040 O   0  0  0  0  0  0  0  0  0  0  0  0
   32.1490   29.8300   22.2880 C   0  0  1  0  0  0  0  0  0  0  0  0
   31.5360   28.4690   22.6580 C   0  0  1  0  0  0  0  0  0  0  0  0
   30.9620   28.4160   19.9910 O   0  0  0  0  0  0  0  0  0  0  0  0
   30.3760   27.6600   20.2250 H   0  0  0  0  0  0  0  0  0  0  0  0
   29.7360   30.3460   19.5230 C   0  0  0  0  0  0  0  0  0  0  0  0
   28.7420   31.0280   19.8520 O   0  0  0  0  0  0  0  0  0  0  0  0
   30.1560   30.3470   18.2170 O   0  0  0  0  0  0  0  0  0  0  0  0
   29.5100   30.4810   17.4380 H   0  0  0  0  0  0  0  0  0  0  0  0
   33.5350   29.7040   22.2870 O   0  0  0  0  0  0  0  0  0  0  0  0
   34.0090   30.5330   22.4950 H   0  0  0  0  0  0  0  0  0  0  0  0
   32.0470   28.2090   23.9880 N   0  0  0  0  0  0  0  0  0  0  0  0
   33.1090   27.3410   24.2960 C   0  0  0  0  0  0  0  0  0  0  0  0
   31.5860   28.7100   24.7780 H   0  0  0  0  0  0  0  0  0  0  0  0
   33.6170   27.0890   25.6660 C   0  0  0  0  0  0  0  0  0  0  0  0
   33.6620   26.7390   23.3240 O   0  0  0  0  0  0  0  0  0  0  0  0
   30.1800   26.1770   22.6070 O   0  0  0  0  0  0  0  0  0  0  0  0
   30.4180   25.7580   21.7420 H   0  0  0  0  0  0  0  0  0  0  0  0
   27.8420   25.6830   23.3330 O   0  0  0  0  0  0  0  0  0  0  0  0
   28.3690   25.2320   22.6090 H   0  0  0  0  0  0  0  0  0  0  0  0
   26.2190   27.2820   19.1250 O   0  0  0  0  0  0  0  0  0  0  0  0
   27.3860   27.6570   18.4180 C   0  0  0  0  0  0  0  0  0  0  0  0
   26.9970   28.7620   17.5030 C   0  0  0  0  0  0  0  0  0  0  0  0
   25.8100   29.4560   17.4660 C   0  0  0  0  0  0  0  0  0  0  0  0
   27.7480   29.3120   16.5090 N   0  0  0  0  0  0  0  0  0  0  0  0
   25.9020   30.3760   16.4670 N   0  0  0  0  0  0  0  0  0  0  0  0
   27.0930   30.2620   15.9050 N   0  0  0  0  0  0  0  0  0  0  0  0
   24.9020   31.3330   16.0530 C   0  0  0  0  0  0  0  0  0  0  0  0
   24.5610   31.1590   14.6330 C   0  0  0  0  0  0  0  0  0  0  0  0
   24.8550   32.0610   13.8190 O   0  0  0  0  0  0  0  0  0  0  0  0
   23.9140   29.9850   14.2450 O   0  0  0  0  0  0  0  0  0  0  0  0
   23.8810   29.7340   12.8360 C   0  0  0  0  0  0  0  0  0  0  0  0
   22.4980   29.2450   12.4880 C   0  0  0  0  0  0  0  0  0  0  0  0
   29.8670   25.5550   16.9770 C   0  0  0  0  0  0  0  0  0  0  0  0
   28.3450   25.7220   17.0260 C   0  0  0  0  0  0  0  0  0  0  0  0
   27.5990   24.4260   16.7490 C   0  0  0  0  0  0  0  0  0  0  0  0
   26.9640   23.8610   17.9890 C   0  0  0  0  0  0  0  0  0  0  0  0
   25.4920   23.5690   17.7200 C   0  0  0  0  0  0  0  0  0  0  0  0
   24.8160   24.7690   17.1730 N   0  0  0  0  0  0  0  0  0  0  0  0
  1  5  1  0  0  0  0
  2  3  2  0  0  0  0
  2  1  1  0  0  0  0
  4  1  1  0  0  0  0
  6  5  1  6  0  0  0
  7 27  1  1  0  0  0
  7  6  1  0  0  0  0
  8  7  1  6  0  0  0
  8 13  1  0  0  0  0
  9 16  1  6  0  0  0
  9 10  1  0  0  0  0
  9 11  1  0  0  0  0
 10 12  1  0  0  0  0
 11  8  1  0  0  0  0
 12 20  1  6  0  0  0
 12 13  1  0  0  0  0
 13 22  1  1  0  0  0
 14 15  1  0  0  0  0
 14  9  1  0  0  0  0
 16 17  2  0  0  0  0
 18 16  1  0  0  0  0
 19 18  1  0  0  0  0
 20 21  1  0  0  0  0
 22 23  1  0  0  0  0
 22 24  1  0  0  0  0
 23 25  1  0  0  0  0
 26 23  2  0  0  0  0
 28 27  1  0  0  0  0
 29  6  1  0  0  0  0
 30 29  1  0  0  0  0
 31  2  1  0  0  0  0
 32 31  1  0  0  0  0
 33 32  1  0  0  0  0
 34 33  2  0  0  0  0
 35 33  1  0  0  0  0
 36 34  1  0  0  0  0
 37 36  1  0  0  0  0
 37 35  2  0  0  0  0
 38 36  1  0  0  0  0
 39 38  1  0  0  0  0
 40 39  2  0  0  0  0
 41 39  1  0  0  0  0
 42 41  1  0  0  0  0
 43 42  1  0  0  0  0
 44 45  1  0  0  0  0
 46 45  1  0  0  0  0
 46 47  1  0  0  0  0
 48 47  1  0  0  0  0
 49 48  1  0  0  0  0
M  END
>  <REMARK>
 VINA RESULT:    -4.146      2.936      7.645
 INTER + INTRA:         -13.852
 INTER:                  -7.947
 INTRA:                  -5.905
 UNBOUND:                -5.949
 SMILES CCOC(=O)Cn1cc(COC(=O)NC[C@@H](O)C(O)[C@@H]2O[C@@](O)(C(=O)O)C[C@H](O)[C@H]2NC(C)=O)nn1
 SMILES IDX 14 1 12 2 13 3 15 5 16 6 18 7 20 8 22 9 27 10 21 11 28 12
 SMILES IDX 30 13 23 14 24 16 25 17 26 18 29 20 31 22 32 23 33 25 34 26
 SMILES IDX 19 27 17 29 11 31 10 32 9 33 8 34 35 35 7 36 36 37 6 38 4 39
 SMILES IDX 5 40 3 41 2 42 1 43
 H PARENT 14 4 23 15 26 19 29 21 31 24 19 28 17 30
 Flexibility Score: inf
  4 active torsions:
  status: ('A' for Active; 'I' for Inactive)
    1  A    between atoms: CA   and  CB  
    2  A    between atoms: CB   and  CG  
    3  A    between atoms: CG   and  CD  
    4  A    between atoms: CD   and  CE  

>  <TORSDO>
F 18

>  <BEGIN_>
RES LYS A 131

$$$$
ligand_13_pose_8_2HRL.pdbqt
 OpenBabel07062320523D

  6  5  0  0  0  0  0  0  0  0999 V2000
   33.1930   34.6630    9.2900 C   0  0  0  0  0  0  0  0  0  0  0  0
   32.0600   35.3600   10.0340 C   0  0  0  0  0  0  0  0  0  0  0  0
   30.7340   34.6560    9.9080 C   0  0  0  0  0  0  0  0  0  0  0  0
   30.3350   34.5200    8.4470 C   0  0  0  0  0  0  0  0  0  0  0  0
   28.8250   34.5420    8.3030 C   0  0  0  0  0  0  0  0  0  0  0  0
   28.1690   33.8070    9.4200 N   0  0  0  0  0  0  0  0  0  0  0  0
  1  2  1  0  0  0  0
  3  2  1  0  0  0  0
  4  3  1  0  0  0  0
  5  4  1  0  0  0  0
  5  6  1  0  0  0  0
M  END
>  <EGIN_R>
ES LYS A 135

>  <REMARK>
  4 active torsions:
  status: ('A' for Active; 'I' for Inactive)
    5  A    between atoms: CA   and  CB  
    6  A    between atoms: CB   and  CG  
    7  A    between atoms: CG   and  CD  
    8  A    between atoms: CD   and  CE  

$$$$
