ligand_87_pose_4_2HRL.pdbqt
 OpenBabel07062320523D

 52 54  0  0  1  0  0  0  0  0999 V2000
   30.3760   31.1180   16.3530 C   0  0  0  0  0  0  0  0  0  0  0  0
   28.9570   30.9170   15.9090 C   0  0  2  0  0  0  0  0  0  0  0  0
   28.0440   31.9690   16.5280 C   0  0  2  0  0  0  0  0  0  0  0  0
   27.6560   32.9530   15.4250 C   0  0  2  0  0  0  0  0  0  0  0  0
   28.1670   35.1700   14.8810 C   0  0  2  0  0  0  0  0  0  0  0  0
   26.7450   35.6310   14.9600 C   0  0  0  0  0  0  0  0  0  0  0  0
   28.4550   34.0190   15.5370 O   0  0  0  0  0  0  0  0  0  0  0  0
   25.7890   34.6340   15.5210 C   0  0  1  0  0  0  0  0  0  0  0  0
   26.1750   33.2010   15.3720 C   0  0  1  0  0  0  0  0  0  0  0  0
   28.9710   36.1600   15.4530 O   0  0  0  0  0  0  0  0  0  0  0  0
   29.6860   36.4660   14.8450 H   0  0  0  0  0  0  0  0  0  0  0  0
   28.6320   35.0240   13.4860 C   0  0  0  0  0  0  0  0  0  0  0  0
   28.0900   35.6890   12.5780 O   0  0  0  0  0  0  0  0  0  0  0  0
   29.6620   34.1740   13.0960 O   0  0  0  0  0  0  0  0  0  0  0  0
   29.9490   34.1280   12.1060 H   0  0  0  0  0  0  0  0  0  0  0  0
   25.5930   34.9620   16.8700 O   0  0  0  0  0  0  0  0  0  0  0  0
   25.8700   34.2100   17.4460 H   0  0  0  0  0  0  0  0  0  0  0  0
   25.5590   32.5200   14.2650 N   0  0  0  0  0  0  0  0  0  0  0  0
   24.9400   31.2520   14.3600 C   0  0  0  0  0  0  0  0  0  0  0  0
   25.5550   32.9710   13.3110 H   0  0  0  0  0  0  0  0  0  0  0  0
   24.3030   30.5330   13.2360 C   0  0  0  0  0  0  0  0  0  0  0  0
   24.9540   30.7330   15.5020 O   0  0  0  0  0  0  0  0  0  0  0  0
   28.6450   32.6260   17.5890 O   0  0  0  0  0  0  0  0  0  0  0  0
   28.0000   32.6400   18.3420 H   0  0  0  0  0  0  0  0  0  0  0  0
   28.4600   29.6860   16.2310 O   0  0  0  0  0  0  0  0  0  0  0  0
   28.0950   29.2360   15.4140 H   0  0  0  0  0  0  0  0  0  0  0  0
   31.1260   31.9390   15.4650 N   0  0  0  0  0  0  0  0  0  0  0  0
   31.6780   33.1910   15.7880 C   0  0  0  0  0  0  0  0  0  0  0  0
   31.2940   31.5940   14.4680 H   0  0  0  0  0  0  0  0  0  0  0  0
   31.5510   33.7140   16.9100 O   0  0  0  0  0  0  0  0  0  0  0  0
   32.4080   33.8910   14.8080 O   0  0  0  0  0  0  0  0  0  0  0  0
   32.9280   35.1630   15.1380 C   0  0  0  0  0  0  0  0  0  0  0  0
   32.2180   36.2160   14.4110 C   0  0  0  0  0  0  0  0  0  0  0  0
   32.0450   36.2700   13.0330 C   0  0  0  0  0  0  0  0  0  0  0  0
   31.6200   37.2920   14.9180 N   0  0  0  0  0  0  0  0  0  0  0  0
   31.3480   37.3790   12.7570 N   0  0  0  0  0  0  0  0  0  0  0  0
   31.1080   37.9710   13.9070 N   0  0  0  0  0  0  0  0  0  0  0  0
   30.9250   37.8620   11.4670 C   0  0  1  0  0  0  0  0  0  0  0  0
   30.1640   39.1730   11.6600 C   0  0  0  0  0  0  0  0  0  0  0  0
   32.1770   38.1670   10.6760 C   0  0  0  0  0  0  0  0  0  0  0  0
   29.9420   39.8010   10.3110 C   0  0  1  0  0  0  0  0  0  0  0  0
   31.8530   38.9770    9.4630 C   0  0  2  0  0  0  0  0  0  0  0  0
   31.2110   40.2220    9.7470 N   0  0  0  0  0  0  0  0  0  0  0  0
   29.4960   38.7470    9.3130 C   0  0  0  0  0  0  0  0  0  0  0  0
   30.7580   38.2200    8.7010 C   0  0  0  0  0  0  0  0  0  0  0  0
   31.9570   41.0790   10.6220 C   0  0  0  0  0  0  0  0  0  0  0  0
   29.8670   25.5550   16.9770 C   0  0  0  0  0  0  0  0  0  0  0  0
   28.3450   25.7220   17.0260 C   0  0  0  0  0  0  0  0  0  0  0  0
   27.6010   24.4000   16.9080 C   0  0  0  0  0  0  0  0  0  0  0  0
   26.1490   24.5330   17.2730 C   0  0  0  0  0  0  0  0  0  0  0  0
   25.9180   25.8730   17.9630 C   0  0  0  0  0  0  0  0  0  0  0  0
   24.4680   26.1580   18.0720 N   0  0  0  0  0  0  0  0  0  0  0  0
  2 25  1  0  0  0  0
  2  1  1  1  0  0  0
  2  3  1  0  0  0  0
  3 23  1  1  0  0  0
  4  7  1  0  0  0  0
  4  3  1  1  0  0  0
  5 12  1  6  0  0  0
  5  6  1  0  0  0  0
  5 10  1  0  0  0  0
  5  7  1  0  0  0  0
  6  8  1  0  0  0  0
  8 16  1  1  0  0  0
  9 18  1  6  0  0  0
  9  4  1  0  0  0  0
  9  8  1  0  0  0  0
 11 10  1  0  0  0  0
 13 12  2  0  0  0  0
 14 12  1  0  0  0  0
 15 14  1  0  0  0  0
 16 17  1  0  0  0  0
 18 19  1  0  0  0  0
 19 22  2  0  0  0  0
 20 18  1  0  0  0  0
 21 19  1  0  0  0  0
 23 24  1  0  0  0  0
 26 25  1  0  0  0  0
 27 28  1  0  0  0  0
 27  1  1  0  0  0  0
 28 30  2  0  0  0  0
 29 27  1  0  0  0  0
 31 32  1  0  0  0  0
 31 28  1  0  0  0  0
 33 35  1  0  0  0  0
 33 32  1  0  0  0  0
 34 33  2  0  0  0  0
 36 34  1  0  0  0  0
 36 37  1  0  0  0  0
 37 35  2  0  0  0  0
 38 40  1  6  0  0  0
 38 39  1  0  0  0  0
 38 36  1  0  0  0  0
 41 44  1  6  0  0  0
 41 39  1  0  0  0  0
 42 45  1  6  0  0  0
 42 43  1  0  0  0  0
 42 40  1  0  0  0  0
 43 41  1  0  0  0  0
 43 46  1  0  0  0  0
 45 44  1  0  0  0  0
 47 48  1  0  0  0  0
 49 48  1  0  0  0  0
 49 50  1  0  0  0  0
 50 51  1  0  0  0  0
 51 52  1  0  0  0  0
M  END
>  <REMARK>
 VINA RESULT:    -5.459      3.829      6.861
 INTER + INTRA:         -14.950
 INTER:                  -8.624
 INTRA:                  -6.326
 UNBOUND:                -5.502
 SMILES CC(=O)N[C@@H]1[C@@H](O)C[C@](O)(C(=O)O)O[C@H]1C(O)[C@H](O)CNC(=O)OCc1cn([C@@H]2C[C@H]3CC[C@@H](C2)N3C)nn1
 SMILES IDX 20 1 18 2 16 3 15 4 9 5 8 6 14 7 6 8 5 9 10 10 11 12 12 13
 SMILES IDX 13 14 7 16 4 18 2 19 1 21 3 22 17 23 19 25 21 27 22 28 23 30
 SMILES IDX 24 31 25 32 26 33 27 34 39 35 28 36 38 37 29 38 35 39 30 40
 SMILES IDX 34 41 31 42 36 43 33 44 32 45 37 46
 H PARENT 10 11 13 15 7 17 4 20 17 24 19 26 21 29
 Flexibility Score: inf
  4 active torsions:
  status: ('A' for Active; 'I' for Inactive)
    1  A    between atoms: CA   and  CB  
    2  A    between atoms: CB   and  CG  
    3  A    between atoms: CG   and  CD  
    4  A    between atoms: CD   and  CE  

>  <TORSDO>
F 15

>  <BEGIN_>
RES LYS A 131

$$$$
ligand_87_pose_4_2HRL.pdbqt
 OpenBabel07062320523D

  6  5  0  0  0  0  0  0  0  0999 V2000
   33.1930   34.6630    9.2900 C   0  0  0  0  0  0  0  0  0  0  0  0
   32.0600   35.3600   10.0340 C   0  0  0  0  0  0  0  0  0  0  0  0
   30.7350   34.6520    9.9140 C   0  0  0  0  0  0  0  0  0  0  0  0
   30.3230   34.5300    8.4550 C   0  0  0  0  0  0  0  0  0  0  0  0
   28.8120   34.5490    8.3250 C   0  0  0  0  0  0  0  0  0  0  0  0
   28.1670   33.8270    9.4560 N   0  0  0  0  0  0  0  0  0  0  0  0
  1  2  1  0  0  0  0
  3  2  1  0  0  0  0
  4  3  1  0  0  0  0
  5  4  1  0  0  0  0
  5  6  1  0  0  0  0
M  END
>  <EGIN_R>
ES LYS A 135

>  <REMARK>
  4 active torsions:
  status: ('A' for Active; 'I' for Inactive)
    5  A    between atoms: CA   and  CB  
    6  A    between atoms: CB   and  CG  
    7  A    between atoms: CG   and  CD  
    8  A    between atoms: CD   and  CE  

$$$$
