ligand_14_pose_16_2HRL.pdbqt
 OpenBabel07062320523D

 50 51  0  0  1  0  0  0  0  0999 V2000
   30.0270   38.5740    6.3650 N   0  0  0  0  0  0  0  0  0  0  0  0
   30.6790   39.5030    7.1970 C   0  0  0  0  0  0  0  0  0  0  0  0
   30.3360   39.6390    8.3780 O   0  0  0  0  0  0  0  0  0  0  0  0
   30.4010   38.5490    5.3560 H   0  0  0  0  0  0  0  0  0  0  0  0
   28.9580   37.6990    6.7270 C   0  0  0  0  0  0  0  0  0  0  0  0
   27.7050   38.0390    5.9740 C   0  0  2  0  0  0  0  0  0  0  0  0
   26.7050   38.7730    6.8610 C   0  0  1  0  0  0  0  0  0  0  0  0
   26.2460   37.7610    7.9260 C   0  0  2  0  0  0  0  0  0  0  0  0
   23.9230   37.4570    8.0400 C   0  0  2  0  0  0  0  0  0  0  0  0
   23.9060   38.7650    8.8060 C   0  0  0  0  0  0  0  0  0  0  0  0
   25.1320   37.1150    7.5180 O   0  0  0  0  0  0  0  0  0  0  0  0
   24.9620   38.7670    9.8560 C   0  0  1  0  0  0  0  0  0  0  0  0
   26.2780   38.3360    9.2940 C   0  0  1  0  0  0  0  0  0  0  0  0
   23.0700   37.6850    6.9320 O   0  0  0  0  0  0  0  0  0  0  0  0
   22.2200   38.0960    7.2760 H   0  0  0  0  0  0  0  0  0  0  0  0
   23.3080   36.3630    8.8270 C   0  0  0  0  0  0  0  0  0  0  0  0
   24.0080   35.3920    9.1880 O   0  0  0  0  0  0  0  0  0  0  0  0
   21.9700   36.3990    9.1710 O   0  0  0  0  0  0  0  0  0  0  0  0
   21.6770   37.0060    9.9240 H   0  0  0  0  0  0  0  0  0  0  0  0
   25.0380   40.0490   10.3890 O   0  0  0  0  0  0  0  0  0  0  0  0
   24.1540   40.3220   10.7560 H   0  0  0  0  0  0  0  0  0  0  0  0
   27.0070   37.4720   10.2200 N   0  0  0  0  0  0  0  0  0  0  0  0
   28.0390   37.9410   11.0410 C   0  0  0  0  0  0  0  0  0  0  0  0
   26.7220   36.4740   10.2440 H   0  0  0  0  0  0  0  0  0  0  0  0
   28.7250   36.9900   11.9530 C   0  0  0  0  0  0  0  0  0  0  0  0
   28.3850   39.1660   11.0060 O   0  0  0  0  0  0  0  0  0  0  0  0
   27.3770   39.8300    7.4650 O   0  0  0  0  0  0  0  0  0  0  0  0
   27.9690   40.3230    6.8720 H   0  0  0  0  0  0  0  0  0  0  0  0
   27.1160   36.9790    5.3230 O   0  0  0  0  0  0  0  0  0  0  0  0
   27.0530   36.1480    5.8490 H   0  0  0  0  0  0  0  0  0  0  0  0
   31.7270   40.3090    6.7440 O   0  0  0  0  0  0  0  0  0  0  0  0
   31.8500   40.6270    5.3730 C   0  0  0  0  0  0  0  0  0  0  0  0
   33.0550   40.0200    4.7560 C   0  0  0  0  0  0  0  0  0  0  0  0
   34.0760   39.3260    5.4080 C   0  0  0  0  0  0  0  0  0  0  0  0
   33.4220   40.0060    3.4630 N   0  0  0  0  0  0  0  0  0  0  0  0
   35.0040   38.9240    4.5220 N   0  0  0  0  0  0  0  0  0  0  0  0
   34.5590   39.3650    3.3360 N   0  0  0  0  0  0  0  0  0  0  0  0
   36.2270   38.1820    4.7510 C   0  0  0  0  0  0  0  0  0  0  0  0
   37.2760   38.9860    5.4420 C   0  0  0  0  0  0  0  0  0  0  0  0
   38.3430   39.4410    4.5870 N   0  0  0  0  0  0  0  0  0  0  0  0
   39.5820   39.3760    5.3440 C   0  0  0  0  0  0  0  0  0  0  0  0
   38.5350   38.5730    3.4420 C   0  0  0  0  0  0  0  0  0  0  0  0
   40.6340   38.7980    4.4530 C   0  0  0  0  0  0  0  0  0  0  0  0
   39.9810   38.8530    3.0870 C   0  0  0  0  0  0  0  0  0  0  0  0
   29.8670   25.5550   16.9770 C   0  0  0  0  0  0  0  0  0  0  0  0
   28.3450   25.7220   17.0260 C   0  0  0  0  0  0  0  0  0  0  0  0
   27.6010   24.4040   16.8770 C   0  0  0  0  0  0  0  0  0  0  0  0
   26.6650   24.1490   18.0260 C   0  0  0  0  0  0  0  0  0  0  0  0
   26.3970   25.4560   18.7640 C   0  0  0  0  0  0  0  0  0  0  0  0
   25.5120   25.2220   19.9300 N   0  0  0  0  0  0  0  0  0  0  0  0
  1  5  1  0  0  0  0
  1  2  1  0  0  0  0
  2  3  2  0  0  0  0
  4  1  1  0  0  0  0
  6  5  1  1  0  0  0
  6  7  1  0  0  0  0
  7 27  1  1  0  0  0
  8  7  1  6  0  0  0
  8 13  1  0  0  0  0
  9 14  1  6  0  0  0
  9 10  1  0  0  0  0
  9 16  1  0  0  0  0
 10 12  1  0  0  0  0
 11  8  1  0  0  0  0
 11  9  1  0  0  0  0
 12 20  1  6  0  0  0
 13 12  1  0  0  0  0
 13 22  1  1  0  0  0
 14 15  1  0  0  0  0
 16 18  1  0  0  0  0
 16 17  2  0  0  0  0
 18 19  1  0  0  0  0
 20 21  1  0  0  0  0
 22 24  1  0  0  0  0
 22 23  1  0  0  0  0
 23 25  1  0  0  0  0
 26 23  2  0  0  0  0
 28 27  1  0  0  0  0
 29 30  1  0  0  0  0
 29  6  1  0  0  0  0
 31  2  1  0  0  0  0
 32 31  1  0  0  0  0
 33 32  1  0  0  0  0
 33 34  2  0  0  0  0
 35 33  1  0  0  0  0
 36 38  1  0  0  0  0
 36 34  1  0  0  0  0
 37 35  2  0  0  0  0
 37 36  1  0  0  0  0
 38 39  1  0  0  0  0
 40 41  1  0  0  0  0
 40 39  1  0  0  0  0
 42 40  1  0  0  0  0
 43 41  1  0  0  0  0
 44 42  1  0  0  0  0
 44 43  1  0  0  0  0
 45 46  1  0  0  0  0
 47 46  1  0  0  0  0
 47 48  1  0  0  0  0
 48 49  1  0  0  0  0
 49 50  1  0  0  0  0
M  END
>  <REMARK>
 VINA RESULT:    -4.223      3.171      8.420
 INTER + INTRA:         -13.796
 INTER:                  -8.595
 INTRA:                  -5.201
 UNBOUND:                -5.994
 SMILES CC(=O)N[C@@H]1[C@@H](O)C[C@](O)(C(=O)O)O[C@H]1C(O)[C@H](O)CNC(=O)OCc1cn(CCN2CCCC2)nn1
 SMILES IDX 21 1 22 2 23 3 20 5 18 6 16 7 15 8 9 9 8 10 14 11 6 12 5 13
 SMILES IDX 10 14 11 16 12 17 13 18 7 20 4 22 2 23 1 25 3 26 17 27 19 29
 SMILES IDX 24 31 25 32 26 33 27 34 37 35 28 36 36 37 29 38 30 39 31 40
 SMILES IDX 32 41 35 42 33 43 34 44
 H PARENT 21 4 10 15 13 19 7 21 4 24 17 28 19 30
 Flexibility Score: inf
  4 active torsions:
  status: ('A' for Active; 'I' for Inactive)
    1  A    between atoms: CA   and  CB  
    2  A    between atoms: CB   and  CG  
    3  A    between atoms: CG   and  CD  
    4  A    between atoms: CD   and  CE  

>  <TORSDO>
F 17

>  <BEGIN_>
RES LYS A 131

$$$$
ligand_14_pose_16_2HRL.pdbqt
 OpenBabel07062320523D

  6  5  0  0  0  0  0  0  0  0999 V2000
   33.1930   34.6630    9.2900 C   0  0  0  0  0  0  0  0  0  0  0  0
   32.0600   35.3600   10.0340 C   0  0  0  0  0  0  0  0  0  0  0  0
   30.7970   35.4900    9.2230 C   0  0  0  0  0  0  0  0  0  0  0  0
   30.1820   34.1230    8.9640 C   0  0  0  0  0  0  0  0  0  0  0  0
   28.7420   34.0890    9.4400 C   0  0  0  0  0  0  0  0  0  0  0  0
   27.8130   34.5510    8.3720 N   0  0  0  0  0  0  0  0  0  0  0  0
  1  2  1  0  0  0  0
  3  2  1  0  0  0  0
  4  3  1  0  0  0  0
  4  5  1  0  0  0  0
  6  5  1  0  0  0  0
M  END
>  <EGIN_R>
ES LYS A 135

>  <REMARK>
  4 active torsions:
  status: ('A' for Active; 'I' for Inactive)
    5  A    between atoms: CA   and  CB  
    6  A    between atoms: CB   and  CG  
    7  A    between atoms: CG   and  CD  
    8  A    between atoms: CD   and  CE  

$$$$
