ligand_72_pose_16_2HRL.pdbqt
 OpenBabel07062320523D

 49 49  0  0  1  0  0  0  0  0999 V2000
   28.5010   29.5860   16.3020 N   0  0  0  0  0  0  0  0  0  0  0  0
   27.1690   29.1610   16.6070 C   0  0  0  0  0  0  0  0  0  0  0  0
   26.1510   29.7880   16.1560 O   0  0  0  0  0  0  0  0  0  0  0  0
   29.2920   29.0350   16.6840 H   0  0  0  0  0  0  0  0  0  0  0  0
   28.7040   30.7490   15.4630 C   0  0  0  0  0  0  0  0  0  0  0  0
   29.4080   31.8490   16.1550 C   0  0  2  0  0  0  0  0  0  0  0  0
   30.3410   32.6910   15.3690 C   0  0  1  0  0  0  0  0  0  0  0  0
   30.3080   34.1290   15.8220 C   0  0  2  0  0  0  0  0  0  0  0  0
   31.4200   35.2720   14.0750 C   0  0  2  0  0  0  0  0  0  0  0  0
   32.5890   35.5640   15.0340 C   0  0  0  0  0  0  0  0  0  0  0  0
   30.2690   34.9700   14.7300 O   0  0  0  0  0  0  0  0  0  0  0  0
   31.9570   35.8430   16.3560 C   0  0  1  0  0  0  0  0  0  0  0  0
   31.3500   34.4930   16.8370 C   0  0  1  0  0  0  0  0  0  0  0  0
   31.8430   34.3600   13.1300 O   0  0  0  0  0  0  0  0  0  0  0  0
   32.8010   34.4970   12.9350 H   0  0  0  0  0  0  0  0  0  0  0  0
   31.1400   36.5670   13.3380 C   0  0  0  0  0  0  0  0  0  0  0  0
   32.0310   37.1190   12.6500 O   0  0  0  0  0  0  0  0  0  0  0  0
   29.8810   37.1150   13.4480 O   0  0  0  0  0  0  0  0  0  0  0  0
   29.7310   38.1160   13.3890 H   0  0  0  0  0  0  0  0  0  0  0  0
   32.8360   36.3260   17.3050 O   0  0  0  0  0  0  0  0  0  0  0  0
   33.1180   35.5510   17.8580 H   0  0  0  0  0  0  0  0  0  0  0  0
   30.7770   34.8700   18.1390 N   0  0  0  0  0  0  0  0  0  0  0  0
   30.7990   34.0330   19.2600 C   0  0  0  0  0  0  0  0  0  0  0  0
   30.3410   35.8130   18.2020 H   0  0  0  0  0  0  0  0  0  0  0  0
   30.2230   34.3910   20.5820 C   0  0  0  0  0  0  0  0  0  0  0  0
   31.3390   32.8980   19.1530 O   0  0  0  0  0  0  0  0  0  0  0  0
   31.5530   32.1850   15.0330 O   0  0  0  0  0  0  0  0  0  0  0  0
   32.3290   32.7470   15.2920 H   0  0  0  0  0  0  0  0  0  0  0  0
   30.1130   31.3290   17.2640 O   0  0  0  0  0  0  0  0  0  0  0  0
   29.4900   30.7630   17.7720 H   0  0  0  0  0  0  0  0  0  0  0  0
   27.0060   28.0570   17.4030 O   0  0  0  0  0  0  0  0  0  0  0  0
   26.8390   28.1230   18.7880 C   0  0  0  0  0  0  0  0  0  0  0  0
   28.0550   28.6560   19.4560 C   0  0  0  0  0  0  0  0  0  0  0  0
   28.9110   27.9100   20.2260 C   0  0  0  0  0  0  0  0  0  0  0  0
   28.5390   29.8980   19.4470 N   0  0  0  0  0  0  0  0  0  0  0  0
   29.8900   28.7070   20.6650 N   0  0  0  0  0  0  0  0  0  0  0  0
   29.6360   29.9210   20.1710 N   0  0  0  0  0  0  0  0  0  0  0  0
   30.9880   28.3030   21.5050 C   0  0  0  0  0  0  0  0  0  0  0  0
   31.5940   27.0070   21.0100 C   0  0  0  0  0  0  0  0  0  0  0  0
   30.4730   28.1330   22.9280 C   0  0  0  0  0  0  0  0  0  0  0  0
   32.0260   29.3940   21.5440 C   0  0  0  0  0  0  0  0  0  0  0  0
   33.3070   28.8350   21.5880 O   0  0  0  0  0  0  0  0  0  0  0  0
   33.3160   28.1260   22.2800 H   0  0  0  0  0  0  0  0  0  0  0  0
   29.8670   25.5550   16.9770 C   0  0  0  0  0  0  0  0  0  0  0  0
   28.3450   25.7220   17.0260 C   0  0  0  0  0  0  0  0  0  0  0  0
   27.5990   24.4730   16.5830 C   0  0  0  0  0  0  0  0  0  0  0  0
   27.0210   23.7150   17.7460 C   0  0  0  0  0  0  0  0  0  0  0  0
   25.4980   23.7630   17.6790 C   0  0  0  0  0  0  0  0  0  0  0  0
   24.9400   22.3940   17.5850 N   0  0  0  0  0  0  0  0  0  0  0  0
  1  2  1  0  0  0  0
  1  4  1  0  0  0  0
  2 31  1  0  0  0  0
  3  2  2  0  0  0  0
  5  1  1  0  0  0  0
  6  5  1  6  0  0  0
  6 29  1  0  0  0  0
  7 27  1  1  0  0  0
  7  6  1  0  0  0  0
  8  7  1  6  0  0  0
  8 13  1  0  0  0  0
  9 14  1  6  0  0  0
  9 11  1  0  0  0  0
  9 10  1  0  0  0  0
 10 12  1  0  0  0  0
 11  8  1  0  0  0  0
 12 13  1  0  0  0  0
 12 20  1  1  0  0  0
 13 22  1  1  0  0  0
 15 14  1  0  0  0  0
 16 18  1  0  0  0  0
 16  9  1  0  0  0  0
 17 16  2  0  0  0  0
 19 18  1  0  0  0  0
 20 21  1  0  0  0  0
 22 24  1  0  0  0  0
 22 23  1  0  0  0  0
 23 25  1  0  0  0  0
 26 23  2  0  0  0  0
 27 28  1  0  0  0  0
 29 30  1  0  0  0  0
 31 32  1  0  0  0  0
 32 33  1  0  0  0  0
 33 34  2  0  0  0  0
 34 36  1  0  0  0  0
 35 33  1  0  0  0  0
 35 37  2  0  0  0  0
 36 38  1  0  0  0  0
 37 36  1  0  0  0  0
 38 41  1  0  0  0  0
 38 40  1  0  0  0  0
 39 38  1  0  0  0  0
 41 42  1  0  0  0  0
 42 43  1  0  0  0  0
 44 45  1  0  0  0  0
 46 45  1  0  0  0  0
 46 47  1  0  0  0  0
 48 47  1  0  0  0  0
 49 48  1  0  0  0  0
M  END
>  <REMARK>
 VINA RESULT:    -4.225      5.986     12.998
 INTER + INTRA:         -13.828
 INTER:                  -8.298
 INTRA:                  -5.530
 UNBOUND:                -6.145
 SMILES CC(=O)N[C@@H]1[C@@H](O)C[C@](O)(C(=O)O)O[C@H]1C(O)[C@H](O)CNC(=O)OCc1cn(C(C)(C)CO)nn1
 SMILES IDX 21 1 22 2 23 3 20 5 18 6 16 7 15 8 9 9 8 10 14 11 6 12 5 13
 SMILES IDX 10 14 11 16 12 17 13 18 7 20 4 22 2 23 1 25 3 26 17 27 19 29
 SMILES IDX 24 31 25 32 26 33 27 34 35 35 28 36 34 37 29 38 30 39 31 40
 SMILES IDX 32 41 33 42
 H PARENT 21 4 10 15 13 19 7 21 4 24 17 28 19 30 33 43
 Flexibility Score: inf
  4 active torsions:
  status: ('A' for Active; 'I' for Inactive)
    1  A    between atoms: CA   and  CB  
    2  A    between atoms: CB   and  CG  
    3  A    between atoms: CG   and  CD  
    4  A    between atoms: CD   and  CE  

>  <TORSDO>
F 17

>  <BEGIN_>
RES LYS A 131

$$$$
ligand_72_pose_16_2HRL.pdbqt
 OpenBabel07062320523D

  6  5  0  0  0  0  0  0  0  0999 V2000
   33.1930   34.6630    9.2900 C   0  0  0  0  0  0  0  0  0  0  0  0
   32.0600   35.3600   10.0340 C   0  0  0  0  0  0  0  0  0  0  0  0
   30.7090   34.7360    9.7960 C   0  0  0  0  0  0  0  0  0  0  0  0
   30.4730   34.5180    8.3090 C   0  0  0  0  0  0  0  0  0  0  0  0
   29.0250   34.7940    7.9540 C   0  0  0  0  0  0  0  0  0  0  0  0
   28.9200   35.5370    6.6670 N   0  0  0  0  0  0  0  0  0  0  0  0
  1  2  1  0  0  0  0
  3  2  1  0  0  0  0
  4  3  1  0  0  0  0
  5  4  1  0  0  0  0
  6  5  1  0  0  0  0
M  END
>  <EGIN_R>
ES LYS A 135

>  <REMARK>
  4 active torsions:
  status: ('A' for Active; 'I' for Inactive)
    5  A    between atoms: CA   and  CB  
    6  A    between atoms: CB   and  CG  
    7  A    between atoms: CG   and  CD  
    8  A    between atoms: CD   and  CE  

$$$$
