ligand_31_pose_16_2HRL.pdbqt
 OpenBabel07062320523D

 57 58  0  0  1  0  0  0  0  0999 V2000
   23.8010   35.7290   12.7140 O   0  0  0  0  0  0  0  0  0  0  0  0
   23.5910   36.0470   11.3760 C   0  0  0  0  0  0  0  0  0  0  0  0
   24.4900   35.7580   10.3400 N   0  0  0  0  0  0  0  0  0  0  0  0
   25.3760   35.2760   10.5470 H   0  0  0  0  0  0  0  0  0  0  0  0
   22.5170   36.6370   11.0860 O   0  0  0  0  0  0  0  0  0  0  0  0
   24.1670   36.1400    8.9620 C   0  0  0  0  0  0  0  0  0  0  0  0
   25.3990   36.7160    8.3160 C   0  0  2  0  0  0  0  0  0  0  0  0
   26.1250   37.6760    9.2170 C   0  0  1  0  0  0  0  0  0  0  0  0
   27.3760   38.2250    8.5940 C   0  0  2  0  0  0  0  0  0  0  0  0
   28.8000   37.7440    6.8050 C   0  0  2  0  0  0  0  0  0  0  0  0
   29.9380   38.4480    7.4700 C   0  0  0  0  0  0  0  0  0  0  0  0
   27.8180   37.3000    7.6320 O   0  0  0  0  0  0  0  0  0  0  0  0
   29.6330   39.0740    8.7710 C   0  0  1  0  0  0  0  0  0  0  0  0
   28.5410   38.3570    9.5430 C   0  0  1  0  0  0  0  0  0  0  0  0
   29.3710   36.5870    6.2140 O   0  0  0  0  0  0  0  0  0  0  0  0
   28.7850   36.2340    5.4990 H   0  0  0  0  0  0  0  0  0  0  0  0
   28.2040   38.5280    5.6970 C   0  0  0  0  0  0  0  0  0  0  0  0
   28.6840   39.6420    5.3410 O   0  0  0  0  0  0  0  0  0  0  0  0
   27.0900   38.0970    4.9860 O   0  0  0  0  0  0  0  0  0  0  0  0
   26.2820   38.7040    4.8920 H   0  0  0  0  0  0  0  0  0  0  0  0
   30.8030   39.1370    9.5570 O   0  0  0  0  0  0  0  0  0  0  0  0
   30.7380   38.5690   10.3500 H   0  0  0  0  0  0  0  0  0  0  0  0
   28.2690   39.0250   10.7690 N   0  0  0  0  0  0  0  0  0  0  0  0
   28.7980   38.4810   11.9810 C   0  0  0  0  0  0  0  0  0  0  0  0
   27.7120   39.9000   10.8570 H   0  0  0  0  0  0  0  0  0  0  0  0
   28.5730   39.0990   13.3050 C   0  0  0  0  0  0  0  0  0  0  0  0
   29.4930   37.4240   11.9420 O   0  0  0  0  0  0  0  0  0  0  0  0
   25.3050   38.6370    9.7810 O   0  0  0  0  0  0  0  0  0  0  0  0
   25.6110   39.5660    9.6270 H   0  0  0  0  0  0  0  0  0  0  0  0
   24.9250   37.5070    7.2340 O   0  0  0  0  0  0  0  0  0  0  0  0
   25.7330   38.0390    6.9580 H   0  0  0  0  0  0  0  0  0  0  0  0
   25.0590   35.2840   13.1760 C   0  0  0  0  0  0  0  0  0  0  0  0
   24.9000   33.9100   13.7010 C   0  0  0  0  0  0  0  0  0  0  0  0
   24.9330   33.5180   15.0110 C   0  0  0  0  0  0  0  0  0  0  0  0
   24.6910   32.8020   12.9720 N   0  0  0  0  0  0  0  0  0  0  0  0
   24.7440   32.1870   15.0430 N   0  0  0  0  0  0  0  0  0  0  0  0
   24.5970   31.7550   13.8010 N   0  0  0  0  0  0  0  0  0  0  0  0
   24.7020   31.3300   16.2310 C   0  0  0  0  0  0  0  0  0  0  0  0
   25.5170   30.0990   15.9290 C   0  0  0  0  0  0  0  0  0  0  0  0
   26.8070   30.4920   15.4210 N   0  0  0  0  0  0  0  0  0  0  0  0
   27.9860   30.5510   16.2010 C   0  0  0  0  0  0  0  0  0  0  0  0
   26.9090   30.7580   14.4010 H   0  0  0  0  0  0  0  0  0  0  0  0
   27.9100   30.2380   17.4270 O   0  0  0  0  0  0  0  0  0  0  0  0
   29.2110   30.9540   15.6070 N   0  0  0  0  0  0  0  0  0  0  0  0
   29.3000   31.2150   14.6080 H   0  0  0  0  0  0  0  0  0  0  0  0
   30.3950   31.0020   16.4350 C   0  0  0  0  0  0  0  0  0  0  0  0
   31.0920   32.2810   16.1800 C   0  0  0  0  0  0  0  0  0  0  0  0
   31.2400   33.2860   17.1300 C   0  0  0  0  0  0  0  0  0  0  0  0
   31.6560   32.6630   15.0780 O   0  0  0  0  0  0  0  0  0  0  0  0
   31.9380   34.2910   16.4950 C   0  0  0  0  0  0  0  0  0  0  0  0
   32.1720   33.8460   15.2100 C   0  0  0  0  0  0  0  0  0  0  0  0
   29.8670   25.5550   16.9770 C   0  0  0  0  0  0  0  0  0  0  0  0
   28.3450   25.7220   17.0260 C   0  0  0  0  0  0  0  0  0  0  0  0
   27.6010   24.4030   16.8870 C   0  0  0  0  0  0  0  0  0  0  0  0
   26.1660   24.5140   17.3210 C   0  0  0  0  0  0  0  0  0  0  0  0
   25.6120   23.1220   17.6090 C   0  0  0  0  0  0  0  0  0  0  0  0
   25.2380   22.9980   19.0380 N   0  0  0  0  0  0  0  0  0  0  0  0
  1 32  1  0  0  0  0
  2  1  1  0  0  0  0
  3  4  1  0  0  0  0
  3  2  1  0  0  0  0
  5  2  2  0  0  0  0
  6  3  1  0  0  0  0
  7  6  1  1  0  0  0
  7  8  1  0  0  0  0
  8 28  1  6  0  0  0
  9  8  1  1  0  0  0
  9 14  1  0  0  0  0
 10 17  1  6  0  0  0
 10 11  1  0  0  0  0
 10 12  1  0  0  0  0
 11 13  1  0  0  0  0
 12  9  1  0  0  0  0
 13 14  1  0  0  0  0
 13 21  1  1  0  0  0
 14 23  1  1  0  0  0
 15 10  1  0  0  0  0
 16 15  1  0  0  0  0
 18 17  2  0  0  0  0
 19 17  1  0  0  0  0
 20 19  1  0  0  0  0
 21 22  1  0  0  0  0
 23 25  1  0  0  0  0
 23 24  1  0  0  0  0
 24 26  1  0  0  0  0
 27 24  2  0  0  0  0
 29 28  1  0  0  0  0
 30  7  1  0  0  0  0
 31 30  1  0  0  0  0
 32 33  1  0  0  0  0
 33 34  2  0  0  0  0
 34 36  1  0  0  0  0
 35 33  1  0  0  0  0
 35 37  2  0  0  0  0
 36 38  1  0  0  0  0
 37 36  1  0  0  0  0
 39 38  1  0  0  0  0
 40 39  1  0  0  0  0
 40 41  1  0  0  0  0
 41 43  2  0  0  0  0
 42 40  1  0  0  0  0
 44 41  1  0  0  0  0
 44 46  1  0  0  0  0
 45 44  1  0  0  0  0
 47 46  1  0  0  0  0
 47 48  2  0  0  0  0
 49 51  1  0  0  0  0
 49 47  1  0  0  0  0
 50 48  1  0  0  0  0
 51 50  2  0  0  0  0
 52 53  1  0  0  0  0
 54 53  1  0  0  0  0
 54 55  1  0  0  0  0
 55 56  1  0  0  0  0
 56 57  1  0  0  0  0
M  END
>  <REMARK>
 VINA RESULT:    -4.864      5.571     11.892
 INTER + INTRA:         -15.464
 INTER:                  -9.555
 INTRA:                  -5.909
 UNBOUND:                -5.909
 SMILES CC(=O)N[C@@H]1[C@@H](O)C[C@](O)(C(=O)O)O[C@H]1C(O)[C@H](O)CNC(=O)OCc1cn(CCNC(=O)NCc2ccco2)nn1
 SMILES IDX 24 1 22 2 21 3 23 5 20 6 18 7 16 8 15 9 9 10 8 11 14 12 6 13
 SMILES IDX 5 14 10 15 11 17 12 18 13 19 7 21 4 23 2 24 1 26 3 27 17 28
 SMILES IDX 19 30 25 32 26 33 27 34 42 35 28 36 41 37 29 38 30 39 31 40
 SMILES IDX 32 41 33 43 34 44 35 46 36 47 37 48 40 49 38 50 39 51
 H PARENT 21 4 10 16 13 20 7 22 4 25 17 29 19 31 31 42 34 45
 Flexibility Score: inf
  4 active torsions:
  status: ('A' for Active; 'I' for Inactive)
    1  A    between atoms: CA   and  CB  
    2  A    between atoms: CB   and  CG  
    3  A    between atoms: CG   and  CD  
    4  A    between atoms: CD   and  CE  

>  <TORSDO>
F 19

>  <BEGIN_>
RES LYS A 131

$$$$
ligand_31_pose_16_2HRL.pdbqt
 OpenBabel07062320523D

  6  5  0  0  0  0  0  0  0  0999 V2000
   33.1930   34.6630    9.2900 C   0  0  0  0  0  0  0  0  0  0  0  0
   32.0600   35.3600   10.0340 C   0  0  0  0  0  0  0  0  0  0  0  0
   30.7900   35.4710    9.2300 C   0  0  0  0  0  0  0  0  0  0  0  0
   30.0910   34.1230    9.1420 C   0  0  0  0  0  0  0  0  0  0  0  0
   28.7520   34.1700    9.8520 C   0  0  0  0  0  0  0  0  0  0  0  0
   27.6260   34.1190    8.8790 N   0  0  0  0  0  0  0  0  0  0  0  0
  1  2  1  0  0  0  0
  3  2  1  0  0  0  0
  4  3  1  0  0  0  0
  4  5  1  0  0  0  0
  6  5  1  0  0  0  0
M  END
>  <EGIN_R>
ES LYS A 135

>  <REMARK>
  4 active torsions:
  status: ('A' for Active; 'I' for Inactive)
    5  A    between atoms: CA   and  CB  
    6  A    between atoms: CB   and  CG  
    7  A    between atoms: CG   and  CD  
    8  A    between atoms: CD   and  CE  

$$$$
