ligand_2_pose_19_2HRL.pdbqt
 OpenBabel07062320523D

 50 51  0  0  1  0  0  0  0  0999 V2000
   30.7140   31.1420   15.8330 C   0  0  0  0  0  0  0  0  0  0  0  0
   29.2390   30.8910   15.8660 C   0  0  2  0  0  0  0  0  0  0  0  0
   28.7480   31.1640   17.2960 C   0  0  2  0  0  0  0  0  0  0  0  0
   27.2310   31.0160   17.3910 C   0  0  2  0  0  0  0  0  0  0  0  0
   26.0760   32.5590   16.0490 C   0  0  2  0  0  0  0  0  0  0  0  0
   24.9110   32.7470   16.9970 C   0  0  0  0  0  0  0  0  0  0  0  0
   26.7310   31.3810   16.1570 O   0  0  0  0  0  0  0  0  0  0  0  0
   25.1450   31.9320   18.2190 C   0  0  1  0  0  0  0  0  0  0  0  0
   26.6390   31.8400   18.4600 C   0  0  1  0  0  0  0  0  0  0  0  0
   26.8810   33.6860   16.1940 O   0  0  0  0  0  0  0  0  0  0  0  0
   27.7910   33.3520   16.3960 H   0  0  0  0  0  0  0  0  0  0  0  0
   25.4930   32.6180   14.6840 C   0  0  0  0  0  0  0  0  0  0  0  0
   24.8750   31.6130   14.2640 O   0  0  0  0  0  0  0  0  0  0  0  0
   25.6150   33.7230   13.8890 O   0  0  0  0  0  0  0  0  0  0  0  0
   24.8570   33.9690   13.2460 H   0  0  0  0  0  0  0  0  0  0  0  0
   24.4630   32.3980   19.3360 O   0  0  0  0  0  0  0  0  0  0  0  0
   23.5400   32.6320   19.1080 H   0  0  0  0  0  0  0  0  0  0  0  0
   26.8310   31.4210   19.8060 N   0  0  0  0  0  0  0  0  0  0  0  0
   27.5780   32.1610   20.7530 C   0  0  0  0  0  0  0  0  0  0  0  0
   26.3760   30.5060   20.0680 H   0  0  0  0  0  0  0  0  0  0  0  0
   27.7550   31.6940   22.1430 C   0  0  0  0  0  0  0  0  0  0  0  0
   28.0680   33.2360   20.3110 O   0  0  0  0  0  0  0  0  0  0  0  0
   29.1250   32.4530   17.6860 O   0  0  0  0  0  0  0  0  0  0  0  0
   30.0020   32.4490   18.1630 H   0  0  0  0  0  0  0  0  0  0  0  0
   28.8920   29.6250   15.4540 O   0  0  0  0  0  0  0  0  0  0  0  0
   29.5940   29.0890   15.0470 H   0  0  0  0  0  0  0  0  0  0  0  0
   31.1500   32.2620   15.0690 N   0  0  0  0  0  0  0  0  0  0  0  0
   31.6800   33.4600   15.6100 C   0  0  0  0  0  0  0  0  0  0  0  0
   31.0830   32.2190   14.0140 H   0  0  0  0  0  0  0  0  0  0  0  0
   31.8150   33.6220   16.8340 O   0  0  0  0  0  0  0  0  0  0  0  0
   32.0700   34.5080   14.7540 O   0  0  0  0  0  0  0  0  0  0  0  0
   31.4900   35.8030   14.8800 C   0  0  0  0  0  0  0  0  0  0  0  0
   30.1450   35.7310   14.2590 C   0  0  0  0  0  0  0  0  0  0  0  0
   29.8320   36.0780   12.9780 C   0  0  0  0  0  0  0  0  0  0  0  0
   29.0260   35.3210   14.8390 N   0  0  0  0  0  0  0  0  0  0  0  0
   28.5100   35.8630   12.8210 N   0  0  0  0  0  0  0  0  0  0  0  0
   28.0320   35.4020   13.9630 N   0  0  0  0  0  0  0  0  0  0  0  0
   27.8160   36.1150   11.5960 C   0  0  0  0  0  0  0  0  0  0  0  0
   27.8460   37.3760   11.0500 C   0  0  0  0  0  0  0  0  0  0  0  0
   27.1440   35.0710   11.0130 C   0  0  0  0  0  0  0  0  0  0  0  0
   27.1630   37.5770    9.8660 C   0  0  0  0  0  0  0  0  0  0  0  0
   26.4720   35.3050    9.8290 C   0  0  0  0  0  0  0  0  0  0  0  0
   26.4710   36.5470    9.2450 C   0  0  0  0  0  0  0  0  0  0  0  0
   25.6030   36.7770    7.7520 Cl  0  0  0  0  0  0  0  0  0  0  0  0
   29.8670   25.5550   16.9770 C   0  0  0  0  0  0  0  0  0  0  0  0
   28.3450   25.7220   17.0260 C   0  0  0  0  0  0  0  0  0  0  0  0
   27.6020   24.3980   16.9320 C   0  0  0  0  0  0  0  0  0  0  0  0
   26.1660   24.5230   17.3590 C   0  0  0  0  0  0  0  0  0  0  0  0
   25.9210   23.6500   18.5850 C   0  0  0  0  0  0  0  0  0  0  0  0
   25.4410   24.4720   19.7210 N   0  0  0  0  0  0  0  0  0  0  0  0
  2  1  1  1  0  0  0
  2  3  1  0  0  0  0
  3 23  1  6  0  0  0
  4  3  1  6  0  0  0
  4  9  1  0  0  0  0
  5 12  1  6  0  0  0
  5  7  1  0  0  0  0
  5 10  1  0  0  0  0
  5  6  1  0  0  0  0
  6  8  1  0  0  0  0
  7  4  1  0  0  0  0
  8  9  1  0  0  0  0
  8 16  1  1  0  0  0
  9 18  1  1  0  0  0
 10 11  1  0  0  0  0
 13 12  2  0  0  0  0
 14 12  1  0  0  0  0
 15 14  1  0  0  0  0
 17 16  1  0  0  0  0
 18 20  1  0  0  0  0
 18 19  1  0  0  0  0
 19 21  1  0  0  0  0
 22 19  2  0  0  0  0
 23 24  1  0  0  0  0
 25  2  1  0  0  0  0
 26 25  1  0  0  0  0
 27 28  1  0  0  0  0
 27  1  1  0  0  0  0
 28 30  2  0  0  0  0
 29 27  1  0  0  0  0
 31 32  1  0  0  0  0
 31 28  1  0  0  0  0
 33 35  1  0  0  0  0
 33 32  1  0  0  0  0
 34 33  2  0  0  0  0
 36 34  1  0  0  0  0
 36 37  1  0  0  0  0
 37 35  2  0  0  0  0
 38 36  1  0  0  0  0
 39 38  1  0  0  0  0
 40 38  2  0  0  0  0
 41 39  2  0  0  0  0
 42 40  1  0  0  0  0
 43 42  2  0  0  0  0
 43 41  1  0  0  0  0
 44 43  1  0  0  0  0
 45 46  1  0  0  0  0
 47 46  1  0  0  0  0
 47 48  1  0  0  0  0
 48 49  1  0  0  0  0
 49 50  1  0  0  0  0
M  END
>  <REMARK>
 VINA RESULT:    -3.910      4.980      8.042
 INTER + INTRA:         -13.775
 INTER:                  -7.341
 INTRA:                  -6.434
 UNBOUND:                -7.007
 SMILES CC(=O)N[C@@H]1[C@@H](O)C[C@](O)(C(=O)O)O[C@H]1C(O)[C@H](O)CNC(=O)OCc1cn(-c2ccc(Cl)cc2)nn1
 SMILES IDX 20 1 18 2 16 3 15 4 9 5 8 6 14 7 6 8 5 9 10 10 11 12 12 13
 SMILES IDX 13 14 7 16 4 18 2 19 1 21 3 22 17 23 19 25 21 27 22 28 23 30
 SMILES IDX 24 31 25 32 26 33 27 34 37 35 28 36 36 37 29 38 30 39 35 40
 SMILES IDX 31 41 34 42 32 43 33 44
 H PARENT 10 11 13 15 7 17 4 20 17 24 19 26 21 29
 Flexibility Score: inf
  4 active torsions:
  status: ('A' for Active; 'I' for Inactive)
    1  A    between atoms: CA   and  CB  
    2  A    between atoms: CB   and  CG  
    3  A    between atoms: CG   and  CD  
    4  A    between atoms: CD   and  CE  

>  <TORSDO>
F 15

>  <BEGIN_>
RES LYS A 131

$$$$
ligand_2_pose_19_2HRL.pdbqt
 OpenBabel07062320523D

  6  5  0  0  0  0  0  0  0  0999 V2000
   33.1930   34.6630    9.2900 C   0  0  0  0  0  0  0  0  0  0  0  0
   32.0600   35.3600   10.0340 C   0  0  0  0  0  0  0  0  0  0  0  0
   30.6900   34.8680    9.6440 C   0  0  0  0  0  0  0  0  0  0  0  0
   30.1020   35.7350    8.5410 C   0  0  0  0  0  0  0  0  0  0  0  0
   29.3160   34.8880    7.5590 C   0  0  0  0  0  0  0  0  0  0  0  0
   28.7800   35.7170    6.4440 N   0  0  0  0  0  0  0  0  0  0  0  0
  1  2  1  0  0  0  0
  3  2  1  0  0  0  0
  4  3  1  0  0  0  0
  5  4  1  0  0  0  0
  6  5  1  0  0  0  0
M  END
>  <EGIN_R>
ES LYS A 135

>  <REMARK>
  4 active torsions:
  status: ('A' for Active; 'I' for Inactive)
    5  A    between atoms: CA   and  CB  
    6  A    between atoms: CB   and  CG  
    7  A    between atoms: CG   and  CD  
    8  A    between atoms: CD   and  CE  

$$$$
