ligand_74_pose_17_2HRL.pdbqt
 OpenBabel07062320523D

 54 54  0  0  1  0  0  0  0  0999 V2000
   26.3930   37.0550   11.8780 O   0  0  0  0  0  0  0  0  0  0  0  0
   25.1430   36.4170   11.7930 C   0  0  0  0  0  0  0  0  0  0  0  0
   24.5940   36.0370   10.5450 N   0  0  0  0  0  0  0  0  0  0  0  0
   25.1870   36.2630    9.6850 H   0  0  0  0  0  0  0  0  0  0  0  0
   24.5260   36.1940   12.8620 O   0  0  0  0  0  0  0  0  0  0  0  0
   23.3140   35.3830   10.3980 C   0  0  0  0  0  0  0  0  0  0  0  0
   22.7190   35.7400    9.0810 C   0  0  2  0  0  0  0  0  0  0  0  0
   22.2400   37.1810    8.9980 C   0  0  2  0  0  0  0  0  0  0  0  0
   22.9250   37.9270    7.8960 C   0  0  2  0  0  0  0  0  0  0  0  0
   25.1860   38.4540    7.9860 C   0  0  2  0  0  0  0  0  0  0  0  0
   25.0150   39.7910    7.3060 C   0  0  0  0  0  0  0  0  0  0  0  0
   24.2050   37.5430    7.6260 O   0  0  0  0  0  0  0  0  0  0  0  0
   23.5730   40.0440    6.9180 C   0  0  1  0  0  0  0  0  0  0  0  0
   22.7410   39.4340    8.0540 C   0  0  1  0  0  0  0  0  0  0  0  0
   25.2740   38.6070    9.3730 O   0  0  0  0  0  0  0  0  0  0  0  0
   26.0820   38.2160    9.7560 H   0  0  0  0  0  0  0  0  0  0  0  0
   26.4850   37.8920    7.5320 C   0  0  0  0  0  0  0  0  0  0  0  0
   27.5150   38.0750    8.2520 O   0  0  0  0  0  0  0  0  0  0  0  0
   26.6420   37.1760    6.3640 O   0  0  0  0  0  0  0  0  0  0  0  0
   27.4870   37.3280    5.7930 H   0  0  0  0  0  0  0  0  0  0  0  0
   23.2890   41.3710    6.7180 O   0  0  0  0  0  0  0  0  0  0  0  0
   22.5910   41.6230    7.3990 H   0  0  0  0  0  0  0  0  0  0  0  0
   21.3440   39.7520    7.8950 N   0  0  0  0  0  0  0  0  0  0  0  0
   20.6300   40.4380    8.9260 C   0  0  0  0  0  0  0  0  0  0  0  0
   20.7900   39.5050    7.0390 H   0  0  0  0  0  0  0  0  0  0  0  0
   19.2020   40.7790    8.7950 C   0  0  0  0  0  0  0  0  0  0  0  0
   21.2320   40.7640    9.9800 O   0  0  0  0  0  0  0  0  0  0  0  0
   22.3070   37.7910   10.2290 O   0  0  0  0  0  0  0  0  0  0  0  0
   22.1710   38.7540   10.1160 H   0  0  0  0  0  0  0  0  0  0  0  0
   21.5840   34.9210    8.8720 O   0  0  0  0  0  0  0  0  0  0  0  0
   20.7520   35.4200    9.0340 H   0  0  0  0  0  0  0  0  0  0  0  0
   27.5230   36.3270   11.4690 C   0  0  0  0  0  0  0  0  0  0  0  0
   28.3090   35.8210   12.6090 C   0  0  0  0  0  0  0  0  0  0  0  0
   29.0840   34.6770   12.7200 C   0  0  0  0  0  0  0  0  0  0  0  0
   28.4100   36.4230   13.8000 N   0  0  0  0  0  0  0  0  0  0  0  0
   29.6180   34.6280   13.9530 N   0  0  0  0  0  0  0  0  0  0  0  0
   29.1960   35.6930   14.5850 N   0  0  0  0  0  0  0  0  0  0  0  0
   30.5120   33.5470   14.4510 C   0  0  0  0  0  0  0  0  0  0  0  0
   31.3840   34.0770   15.5350 C   0  0  2  0  0  0  0  0  0  0  0  0
   32.7630   34.3170   14.9460 C   0  0  0  0  0  0  0  0  0  0  0  0
   32.7070   35.4830   14.0290 C   0  0  0  0  0  0  0  0  0  0  0  0
   33.0390   35.3770   12.8350 O   0  0  0  0  0  0  0  0  0  0  0  0
   32.2670   36.6990   14.5610 O   0  0  0  0  0  0  0  0  0  0  0  0
   31.7830   37.3490   13.9740 H   0  0  0  0  0  0  0  0  0  0  0  0
   31.3710   33.2540   16.7570 C   0  0  0  0  0  0  0  0  0  0  0  0
   31.2470   33.9390   18.0640 C   0  0  0  0  0  0  0  0  0  0  0  0
   29.9070   34.7250   17.9950 C   0  0  0  0  0  0  0  0  0  0  0  0
   31.1820   33.0830   19.2820 C   0  0  0  0  0  0  0  0  0  0  0  0
   29.8670   25.5550   16.9770 C   0  0  0  0  0  0  0  0  0  0  0  0
   28.3450   25.7220   17.0260 C   0  0  0  0  0  0  0  0  0  0  0  0
   27.6010   24.4000   16.9080 C   0  0  0  0  0  0  0  0  0  0  0  0
   26.5480   24.2460   17.9690 C   0  0  0  0  0  0  0  0  0  0  0  0
   25.2070   24.7330   17.4300 C   0  0  0  0  0  0  0  0  0  0  0  0
   24.3750   23.5860   16.9960 N   0  0  0  0  0  0  0  0  0  0  0  0
  2  1  1  0  0  0  0
  2  5  2  0  0  0  0
  3  2  1  0  0  0  0
  4  3  1  0  0  0  0
  6  3  1  0  0  0  0
  7  6  1  1  0  0  0
  8  7  1  0  0  0  0
  8 28  1  1  0  0  0
  9 14  1  0  0  0  0
  9  8  1  1  0  0  0
 10 17  1  6  0  0  0
 10 15  1  0  0  0  0
 11 10  1  0  0  0  0
 12  9  1  0  0  0  0
 12 10  1  0  0  0  0
 13 21  1  1  0  0  0
 13 11  1  0  0  0  0
 13 14  1  0  0  0  0
 14 23  1  6  0  0  0
 15 16  1  0  0  0  0
 17 18  2  0  0  0  0
 19 17  1  0  0  0  0
 20 19  1  0  0  0  0
 21 22  1  0  0  0  0
 23 24  1  0  0  0  0
 24 27  2  0  0  0  0
 25 23  1  0  0  0  0
 26 24  1  0  0  0  0
 29 28  1  0  0  0  0
 30 31  1  0  0  0  0
 30  7  1  0  0  0  0
 32  1  1  0  0  0  0
 32 33  1  0  0  0  0
 33 34  2  0  0  0  0
 33 35  1  0  0  0  0
 34 36  1  0  0  0  0
 35 37  2  0  0  0  0
 36 38  1  0  0  0  0
 36 37  1  0  0  0  0
 39 38  1  6  0  0  0
 39 45  1  0  0  0  0
 40 39  1  0  0  0  0
 41 43  1  0  0  0  0
 41 40  1  0  0  0  0
 42 41  2  0  0  0  0
 44 43  1  0  0  0  0
 45 46  1  0  0  0  0
 46 48  1  0  0  0  0
 47 46  1  0  0  0  0
 49 50  1  0  0  0  0
 51 50  1  0  0  0  0
 51 52  1  0  0  0  0
 53 52  1  0  0  0  0
 54 53  1  0  0  0  0
M  END
>  <REMARK>
 VINA RESULT:    -3.948      6.810     12.301
 INTER + INTRA:         -15.220
 INTER:                  -8.751
 INTRA:                  -6.469
 UNBOUND:                -7.118
 SMILES CC(=O)N[C@@H]1[C@@H](O)C[C@](O)(C(=O)O)O[C@H]1C(O)[C@H](O)CNC(=O)OCc1cn(C[C@H](CC(=O)O)CC(C)C)nn1
 SMILES IDX 24 1 22 2 21 3 23 5 20 6 18 7 16 8 15 9 9 10 8 11 14 12 6 13
 SMILES IDX 5 14 10 15 11 17 12 18 13 19 7 21 4 23 2 24 1 26 3 27 17 28
 SMILES IDX 19 30 25 32 26 33 27 34 40 35 28 36 39 37 29 38 30 39 31 40
 SMILES IDX 32 41 33 42 34 43 35 45 36 46 37 47 38 48
 H PARENT 21 4 10 16 13 20 7 22 4 25 17 29 19 31 34 44
 Flexibility Score: inf
  4 active torsions:
  status: ('A' for Active; 'I' for Inactive)
    1  A    between atoms: CA   and  CB  
    2  A    between atoms: CB   and  CG  
    3  A    between atoms: CG   and  CD  
    4  A    between atoms: CD   and  CE  

>  <TORSDO>
F 21

>  <BEGIN_>
RES LYS A 131

$$$$
ligand_74_pose_17_2HRL.pdbqt
 OpenBabel07062320523D

  6  5  0  0  0  0  0  0  0  0999 V2000
   33.1930   34.6630    9.2900 C   0  0  0  0  0  0  0  0  0  0  0  0
   32.0600   35.3600   10.0340 C   0  0  0  0  0  0  0  0  0  0  0  0
   30.6920   34.8460    9.6670 C   0  0  0  0  0  0  0  0  0  0  0  0
   30.6230   34.5140    8.1840 C   0  0  0  0  0  0  0  0  0  0  0  0
   29.3680   35.0980    7.5650 C   0  0  0  0  0  0  0  0  0  0  0  0
   28.1490   34.6240    8.2770 N   0  0  0  0  0  0  0  0  0  0  0  0
  1  2  1  0  0  0  0
  3  2  1  0  0  0  0
  4  3  1  0  0  0  0
  5  4  1  0  0  0  0
  5  6  1  0  0  0  0
M  END
>  <EGIN_R>
ES LYS A 135

>  <REMARK>
  4 active torsions:
  status: ('A' for Active; 'I' for Inactive)
    5  A    between atoms: CA   and  CB  
    6  A    between atoms: CB   and  CG  
    7  A    between atoms: CG   and  CD  
    8  A    between atoms: CD   and  CE  

$$$$
