ligand_83_pose_13_2HRL.pdbqt
 OpenBabel07062320523D

 56 57  0  0  1  0  0  0  0  0999 V2000
   26.4360   42.0980    4.9080 O   0  0  0  0  0  0  0  0  0  0  0  0
   27.3000   40.9910    4.9380 C   0  0  0  0  0  0  0  0  0  0  0  0
   26.8520   39.6720    4.8080 N   0  0  0  0  0  0  0  0  0  0  0  0
   25.8060   39.5230    4.6840 H   0  0  0  0  0  0  0  0  0  0  0  0
   28.5040   41.2410    5.0880 O   0  0  0  0  0  0  0  0  0  0  0  0
   27.7050   38.5080    4.8310 C   0  0  0  0  0  0  0  0  0  0  0  0
   27.8960   38.0900    6.2640 C   0  0  2  0  0  0  0  0  0  0  0  0
   29.3760   37.9170    6.5100 C   0  0  2  0  0  0  0  0  0  0  0  0
   29.7660   38.4400    7.8860 C   0  0  2  0  0  0  0  0  0  0  0  0
   28.7310   39.0520    9.8810 C   0  0  2  0  0  0  0  0  0  0  0  0
   29.8110   40.1140    9.9600 C   0  0  0  0  0  0  0  0  0  0  0  0
   28.6030   38.6180    8.5840 O   0  0  0  0  0  0  0  0  0  0  0  0
   29.9680   40.7720    8.6080 C   0  0  1  0  0  0  0  0  0  0  0  0
   30.5650   39.7150    7.6850 C   0  0  1  0  0  0  0  0  0  0  0  0
   27.4860   39.5950   10.2540 O   0  0  0  0  0  0  0  0  0  0  0  0
   27.3930   40.4460    9.7680 H   0  0  0  0  0  0  0  0  0  0  0  0
   29.0120   37.9030   10.7520 C   0  0  0  0  0  0  0  0  0  0  0  0
   28.1510   37.0300   10.9450 O   0  0  0  0  0  0  0  0  0  0  0  0
   30.2440   37.7810   11.3690 O   0  0  0  0  0  0  0  0  0  0  0  0
   30.5870   36.8840   11.6600 H   0  0  0  0  0  0  0  0  0  0  0  0
   28.7620   41.1520    8.0410 O   0  0  0  0  0  0  0  0  0  0  0  0
   28.2130   40.3670    7.8460 H   0  0  0  0  0  0  0  0  0  0  0  0
   31.9510   39.5410    8.0130 N   0  0  0  0  0  0  0  0  0  0  0  0
   32.9580   39.8540    7.0770 C   0  0  0  0  0  0  0  0  0  0  0  0
   32.2840   39.1780    8.9450 H   0  0  0  0  0  0  0  0  0  0  0  0
   34.4000   39.6690    7.4250 C   0  0  0  0  0  0  0  0  0  0  0  0
   32.6650   40.2930    5.9350 O   0  0  0  0  0  0  0  0  0  0  0  0
   30.0620   38.6800    5.5860 O   0  0  0  0  0  0  0  0  0  0  0  0
   30.6630   38.1460    5.0160 H   0  0  0  0  0  0  0  0  0  0  0  0
   27.1770   36.9400    6.5790 O   0  0  0  0  0  0  0  0  0  0  0  0
   26.7680   36.6230    5.7350 H   0  0  0  0  0  0  0  0  0  0  0  0
   25.8510   42.5690    6.1320 C   0  0  0  0  0  0  0  0  0  0  0  0
   25.3160   41.4700    6.9290 C   0  0  0  0  0  0  0  0  0  0  0  0
   24.0820   40.8880    6.7770 C   0  0  0  0  0  0  0  0  0  0  0  0
   25.9490   40.8540    7.9390 N   0  0  0  0  0  0  0  0  0  0  0  0
   24.0010   39.9270    7.7080 N   0  0  0  0  0  0  0  0  0  0  0  0
   25.1220   39.9240    8.3890 N   0  0  0  0  0  0  0  0  0  0  0  0
   22.8300   39.0530    7.8930 C   0  0  0  0  0  0  0  0  0  0  0  0
   23.2770   37.6150    8.0310 C   0  0  2  0  0  0  0  0  0  0  0  0
   24.3420   37.4660    7.1150 O   0  0  0  0  0  0  0  0  0  0  0  0
   25.1430   37.0980    7.5320 H   0  0  0  0  0  0  0  0  0  0  0  0
   22.1390   36.7080    7.6870 C   0  0  0  0  0  0  0  0  0  0  0  0
   21.6840   36.0600    8.9210 N   0  0  0  0  0  0  0  0  0  0  0  0
   22.4220   35.8540   10.0360 C   0  0  0  0  0  0  0  0  0  0  0  0
   20.4620   35.5940    9.1110 C   0  0  0  0  0  0  0  0  0  0  0  0
   21.6230   35.2390   10.9440 C   0  0  0  0  0  0  0  0  0  0  0  0
   20.4300   35.0840   10.3730 N   0  0  0  0  0  0  0  0  0  0  0  0
   19.3520   35.5980    8.1970 N   0  0  0  0  0  0  0  0  0  0  0  0
   19.1580   34.7010    7.3610 O   0  0  0  0  0  0  0  0  0  0  0  0
   18.4530   36.6440    8.2440 O   0  0  0  0  0  0  0  0  0  0  0  0
   29.8670   25.5550   16.9770 C   0  0  0  0  0  0  0  0  0  0  0  0
   28.3450   25.7220   17.0260 C   0  0  0  0  0  0  0  0  0  0  0  0
   27.5990   24.4760   16.5750 C   0  0  0  0  0  0  0  0  0  0  0  0
   27.1440   23.6360   17.7370 C   0  0  0  0  0  0  0  0  0  0  0  0
   25.7020   23.9880   18.0850 C   0  0  0  0  0  0  0  0  0  0  0  0
   25.5140   24.0130   19.5550 N   0  0  0  0  0  0  0  0  0  0  0  0
  1  2  1  0  0  0  0
  1 32  1  0  0  0  0
  2  5  2  0  0  0  0
  3  6  1  0  0  0  0
  3  2  1  0  0  0  0
  4  3  1  0  0  0  0
  7  6  1  6  0  0  0
  7  8  1  0  0  0  0
  7 30  1  0  0  0  0
  8 28  1  6  0  0  0
  9  8  1  6  0  0  0
  9 12  1  0  0  0  0
 10 11  1  0  0  0  0
 10 15  1  1  0  0  0
 10 17  1  0  0  0  0
 12 10  1  0  0  0  0
 13 21  1  6  0  0  0
 13 11  1  0  0  0  0
 14  9  1  0  0  0  0
 14 23  1  1  0  0  0
 14 13  1  0  0  0  0
 16 15  1  0  0  0  0
 17 18  2  0  0  0  0
 17 19  1  0  0  0  0
 19 20  1  0  0  0  0
 22 21  1  0  0  0  0
 23 25  1  0  0  0  0
 24 26  1  0  0  0  0
 24 23  1  0  0  0  0
 27 24  2  0  0  0  0
 29 28  1  0  0  0  0
 31 30  1  0  0  0  0
 32 33  1  0  0  0  0
 33 35  1  0  0  0  0
 34 33  2  0  0  0  0
 34 36  1  0  0  0  0
 35 37  2  0  0  0  0
 36 38  1  0  0  0  0
 36 37  1  0  0  0  0
 38 39  1  0  0  0  0
 39 42  1  6  0  0  0
 40 41  1  0  0  0  0
 40 39  1  0  0  0  0
 42 43  1  0  0  0  0
 43 45  1  0  0  0  0
 43 44  1  0  0  0  0
 44 46  2  0  0  0  0
 45 47  2  0  0  0  0
 47 46  1  0  0  0  0
 48 50  2  0  0  0  0
 48 45  1  0  0  0  0
 49 48  2  0  0  0  0
 51 52  1  0  0  0  0
 53 52  1  0  0  0  0
 53 54  1  0  0  0  0
 54 55  1  0  0  0  0
 55 56  1  0  0  0  0
M  END
>  <REMARK>
 VINA RESULT:    -3.617      8.660     15.137
 INTER + INTRA:         -15.658
 INTER:                  -7.830
 INTRA:                  -7.828
 UNBOUND:                -8.446
 SMILES CC(=O)N[C@@H]1[C@@H](O)C[C@](O)(C(=O)O)O[C@H]1C(O)[C@H](O)CNC(=O)OCc1cn(CC(O)Cn2ccnc2[N+](=O)[O-])nn1
 SMILES IDX 24 1 22 2 21 3 23 5 20 6 18 7 16 8 15 9 9 10 8 11 14 12 6 13
 SMILES IDX 5 14 10 15 11 17 12 18 13 19 7 21 4 23 2 24 1 26 3 27 17 28
 SMILES IDX 19 30 25 32 26 33 27 34 42 35 28 36 41 37 29 38 30 39 31 40
 SMILES IDX 32 42 33 43 34 44 37 45 35 46 36 47 38 48 39 49 40 50
 H PARENT 21 4 10 16 13 20 7 22 4 25 17 29 19 31 31 41
 Flexibility Score: inf
  4 active torsions:
  status: ('A' for Active; 'I' for Inactive)
    1  A    between atoms: CA   and  CB  
    2  A    between atoms: CB   and  CG  
    3  A    between atoms: CG   and  CD  
    4  A    between atoms: CD   and  CE  

>  <TORSDO>
F 20

>  <BEGIN_>
RES LYS A 131

$$$$
ligand_83_pose_13_2HRL.pdbqt
 OpenBabel07062320523D

  6  5  0  0  0  0  0  0  0  0999 V2000
   33.1930   34.6630    9.2900 C   0  0  0  0  0  0  0  0  0  0  0  0
   32.0600   35.3600   10.0340 C   0  0  0  0  0  0  0  0  0  0  0  0
   30.7260   34.6760    9.8790 C   0  0  0  0  0  0  0  0  0  0  0  0
   30.2460   34.7580    8.4380 C   0  0  0  0  0  0  0  0  0  0  0  0
   28.7650   34.4390    8.3510 C   0  0  0  0  0  0  0  0  0  0  0  0
   28.2740   33.8280    9.6180 N   0  0  0  0  0  0  0  0  0  0  0  0
  1  2  1  0  0  0  0
  3  2  1  0  0  0  0
  4  3  1  0  0  0  0
  5  4  1  0  0  0  0
  5  6  1  0  0  0  0
M  END
>  <EGIN_R>
ES LYS A 135

>  <REMARK>
  4 active torsions:
  status: ('A' for Active; 'I' for Inactive)
    5  A    between atoms: CA   and  CB  
    6  A    between atoms: CB   and  CG  
    7  A    between atoms: CG   and  CD  
    8  A    between atoms: CD   and  CE  

$$$$
