ligand_71_pose_11_2HRL.pdbqt
 OpenBabel07062320523D

 54 55  0  0  1  0  0  0  0  0999 V2000
   26.5540   27.0600   24.4790 N   0  0  0  0  0  0  0  0  0  0  0  0
   25.2880   27.6230   24.0960 C   0  0  0  0  0  0  0  0  0  0  0  0
   25.0790   28.8590   24.1780 O   0  0  0  0  0  0  0  0  0  0  0  0
   26.7080   26.0410   24.4030 H   0  0  0  0  0  0  0  0  0  0  0  0
   27.5670   27.9590   24.9580 C   0  0  0  0  0  0  0  0  0  0  0  0
   28.8030   27.9860   24.0920 C   0  0  2  0  0  0  0  0  0  0  0  0
   28.7360   29.2400   23.2550 C   0  0  1  0  0  0  0  0  0  0  0  0
   29.9050   29.3090   22.2690 C   0  0  2  0  0  0  0  0  0  0  0  0
   31.9570   28.4740   21.8340 C   0  0  2  0  0  0  0  0  0  0  0  0
   32.3030   29.7280   21.1170 C   0  0  0  0  0  0  0  0  0  0  0  0
   31.0090   28.6840   22.7950 O   0  0  0  0  0  0  0  0  0  0  0  0
   31.6500   30.9840   21.6410 C   0  0  1  0  0  0  0  0  0  0  0  0
   30.2100   30.7760   22.0140 C   0  0  1  0  0  0  0  0  0  0  0  0
   33.1130   28.0290   22.5610 O   0  0  0  0  0  0  0  0  0  0  0  0
   33.6210   28.8320   22.8600 H   0  0  0  0  0  0  0  0  0  0  0  0
   31.6530   27.3520   20.8990 C   0  0  0  0  0  0  0  0  0  0  0  0
   30.9190   26.4240   21.2390 O   0  0  0  0  0  0  0  0  0  0  0  0
   32.1880   27.3110   19.6090 O   0  0  0  0  0  0  0  0  0  0  0  0
   32.0250   28.0420   18.9390 H   0  0  0  0  0  0  0  0  0  0  0  0
   32.4050   31.4020   22.7400 O   0  0  0  0  0  0  0  0  0  0  0  0
   32.6570   30.6340   23.3270 H   0  0  0  0  0  0  0  0  0  0  0  0
   29.2660   31.2880   21.0820 N   0  0  0  0  0  0  0  0  0  0  0  0
   28.4940   32.4620   21.2680 C   0  0  0  0  0  0  0  0  0  0  0  0
   29.1060   30.7780   20.1790 H   0  0  0  0  0  0  0  0  0  0  0  0
   27.5140   32.9410   20.2450 C   0  0  0  0  0  0  0  0  0  0  0  0
   28.6550   33.0960   22.3260 O   0  0  0  0  0  0  0  0  0  0  0  0
   27.5300   29.3580   22.5930 O   0  0  0  0  0  0  0  0  0  0  0  0
   27.7120   29.7400   21.6800 H   0  0  0  0  0  0  0  0  0  0  0  0
   28.7910   26.8380   23.3020 O   0  0  0  0  0  0  0  0  0  0  0  0
   29.5890   26.3020   23.5560 H   0  0  0  0  0  0  0  0  0  0  0  0
   24.2660   26.8300   23.6280 O   0  0  0  0  0  0  0  0  0  0  0  0
   24.3400   25.9310   22.5610 C   0  0  0  0  0  0  0  0  0  0  0  0
   24.9930   26.5690   21.3990 C   0  0  0  0  0  0  0  0  0  0  0  0
   24.4300   26.9750   20.2070 C   0  0  0  0  0  0  0  0  0  0  0  0
   26.2990   26.8730   21.3310 N   0  0  0  0  0  0  0  0  0  0  0  0
   25.4060   27.5030   19.4700 N   0  0  0  0  0  0  0  0  0  0  0  0
   26.5200   27.4260   20.1750 N   0  0  0  0  0  0  0  0  0  0  0  0
   25.2210   28.0660   18.1280 C   0  0  0  0  0  0  0  0  0  0  0  0
   26.5280   28.5690   17.6080 C   0  0  0  0  0  0  0  0  0  0  0  0
   27.3130   27.8950   16.9210 O   0  0  0  0  0  0  0  0  0  0  0  0
   26.8960   29.9170   17.9230 N   0  0  0  0  0  0  0  0  0  0  0  0
   26.2550   30.5080   18.5000 H   0  0  0  0  0  0  0  0  0  0  0  0
   28.1090   30.4860   17.4710 C   0  0  0  0  0  0  0  0  0  0  0  0
   29.2290   30.5370   18.2180 N   0  0  0  0  0  0  0  0  0  0  0  0
   28.1880   31.0130   16.2340 N   0  0  0  0  0  0  0  0  0  0  0  0
   30.3720   31.0840   17.7610 C   0  0  0  0  0  0  0  0  0  0  0  0
   29.2850   31.5660   15.7240 C   0  0  0  0  0  0  0  0  0  0  0  0
   30.4320   31.6190   16.4900 C   0  0  0  0  0  0  0  0  0  0  0  0
   29.8670   25.5550   16.9770 C   0  0  0  0  0  0  0  0  0  0  0  0
   28.3450   25.7220   17.0260 C   0  0  0  0  0  0  0  0  0  0  0  0
   27.6010   24.4010   16.9050 C   0  0  0  0  0  0  0  0  0  0  0  0
   26.1660   24.5170   17.3360 C   0  0  0  0  0  0  0  0  0  0  0  0
   25.7520   23.2500   18.0780 C   0  0  0  0  0  0  0  0  0  0  0  0
   25.5650   23.5310   19.5210 N   0  0  0  0  0  0  0  0  0  0  0  0
  1  5  1  0  0  0  0
  2  3  2  0  0  0  0
  2  1  1  0  0  0  0
  4  1  1  0  0  0  0
  6  5  1  1  0  0  0
  7 27  1  6  0  0  0
  7  6  1  0  0  0  0
  8 11  1  0  0  0  0
  8  7  1  1  0  0  0
  9 16  1  6  0  0  0
  9 14  1  0  0  0  0
  9 11  1  0  0  0  0
 10 12  1  0  0  0  0
 10  9  1  0  0  0  0
 12 13  1  0  0  0  0
 12 20  1  1  0  0  0
 13 22  1  6  0  0  0
 13  8  1  0  0  0  0
 14 15  1  0  0  0  0
 16 17  2  0  0  0  0
 18 16  1  0  0  0  0
 19 18  1  0  0  0  0
 20 21  1  0  0  0  0
 22 23  1  0  0  0  0
 23 26  2  0  0  0  0
 24 22  1  0  0  0  0
 25 23  1  0  0  0  0
 28 27  1  0  0  0  0
 29 30  1  0  0  0  0
 29  6  1  0  0  0  0
 31  2  1  0  0  0  0
 32 31  1  0  0  0  0
 33 32  1  0  0  0  0
 34 33  2  0  0  0  0
 35 33  1  0  0  0  0
 36 37  1  0  0  0  0
 36 34  1  0  0  0  0
 37 35  2  0  0  0  0
 38 36  1  0  0  0  0
 39 41  1  0  0  0  0
 39 38  1  0  0  0  0
 40 39  2  0  0  0  0
 41 42  1  0  0  0  0
 43 41  1  0  0  0  0
 43 44  2  0  0  0  0
 45 43  1  0  0  0  0
 46 44  1  0  0  0  0
 47 45  2  0  0  0  0
 47 48  1  0  0  0  0
 48 46  2  0  0  0  0
 49 50  1  0  0  0  0
 51 50  1  0  0  0  0
 51 52  1  0  0  0  0
 52 53  1  0  0  0  0
 53 54  1  0  0  0  0
M  END
>  <REMARK>
 VINA RESULT:    -3.882      4.729      7.980
 INTER + INTRA:         -14.738
 INTER:                  -6.892
 INTRA:                  -7.847
 UNBOUND:                -7.565
 SMILES CC(=O)N[C@@H]1[C@@H](O)C[C@](O)(C(=O)O)O[C@H]1C(O)[C@H](O)CNC(=O)OCc1cn(CC(=O)Nc2ncccn2)nn1
 SMILES IDX 21 1 22 2 23 3 20 5 18 6 16 7 15 8 9 9 8 10 14 11 6 12 5 13
 SMILES IDX 10 14 11 16 12 17 13 18 7 20 4 22 2 23 1 25 3 26 17 27 19 29
 SMILES IDX 24 31 25 32 26 33 27 34 40 35 28 36 39 37 29 38 30 39 31 40
 SMILES IDX 32 41 33 43 34 44 38 45 35 46 37 47 36 48
 H PARENT 21 4 10 15 13 19 7 21 4 24 17 28 19 30 32 42
 Flexibility Score: inf
  4 active torsions:
  status: ('A' for Active; 'I' for Inactive)
    1  A    between atoms: CA   and  CB  
    2  A    between atoms: CB   and  CG  
    3  A    between atoms: CG   and  CD  
    4  A    between atoms: CD   and  CE  

>  <TORSDO>
F 17

>  <BEGIN_>
RES LYS A 131

$$$$
ligand_71_pose_11_2HRL.pdbqt
 OpenBabel07062320523D

  6  5  0  0  0  0  0  0  0  0999 V2000
   33.1930   34.6630    9.2900 C   0  0  0  0  0  0  0  0  0  0  0  0
   32.0600   35.3600   10.0340 C   0  0  0  0  0  0  0  0  0  0  0  0
   30.7870   35.4630    9.2340 C   0  0  0  0  0  0  0  0  0  0  0  0
   30.2070   34.0820    8.9690 C   0  0  0  0  0  0  0  0  0  0  0  0
   28.7400   34.0390    9.3520 C   0  0  0  0  0  0  0  0  0  0  0  0
   27.8900   34.6500    8.2920 N   0  0  0  0  0  0  0  0  0  0  0  0
  1  2  1  0  0  0  0
  3  2  1  0  0  0  0
  4  3  1  0  0  0  0
  4  5  1  0  0  0  0
  6  5  1  0  0  0  0
M  END
>  <EGIN_R>
ES LYS A 135

>  <REMARK>
  4 active torsions:
  status: ('A' for Active; 'I' for Inactive)
    5  A    between atoms: CA   and  CB  
    6  A    between atoms: CB   and  CG  
    7  A    between atoms: CG   and  CD  
    8  A    between atoms: CD   and  CE  

$$$$
