ligand_21_pose_19_2HRL.pdbqt
 OpenBabel07062320523D

 54 55  0  0  1  0  0  0  0  0999 V2000
   28.2110   30.4950   18.8310 N   0  0  0  0  0  0  0  0  0  0  0  0
   27.4410   30.3120   17.6430 C   0  0  0  0  0  0  0  0  0  0  0  0
   26.2980   30.8140   17.5970 O   0  0  0  0  0  0  0  0  0  0  0  0
   29.1590   30.0720   18.8590 H   0  0  0  0  0  0  0  0  0  0  0  0
   27.6840   31.2350   19.9470 C   0  0  0  0  0  0  0  0  0  0  0  0
   28.8620   31.7120   20.8010 C   0  0  2  0  0  0  0  0  0  0  0  0
   30.1320   31.1210   20.2560 C   0  0  2  0  0  0  0  0  0  0  0  0
   30.9530   30.5800   21.3950 C   0  0  2  0  0  0  0  0  0  0  0  0
   33.0780   30.7240   22.3290 C   0  0  2  0  0  0  0  0  0  0  0  0
   33.4160   29.3120   21.9110 C   0  0  0  0  0  0  0  0  0  0  0  0
   32.1620   31.2010   21.4070 O   0  0  0  0  0  0  0  0  0  0  0  0
   32.1830   28.4810   22.0170 C   0  0  1  0  0  0  0  0  0  0  0  0
   30.9800   29.0930   21.3540 C   0  0  1  0  0  0  0  0  0  0  0  0
   34.2600   31.4680   22.1260 O   0  0  0  0  0  0  0  0  0  0  0  0
   34.0820   32.4360   22.1200 H   0  0  0  0  0  0  0  0  0  0  0  0
   32.6370   30.8380   23.7330 C   0  0  0  0  0  0  0  0  0  0  0  0
   31.7210   31.6020   24.1230 O   0  0  0  0  0  0  0  0  0  0  0  0
   33.2560   30.0650   24.6970 O   0  0  0  0  0  0  0  0  0  0  0  0
   33.8650   30.4440   25.4260 H   0  0  0  0  0  0  0  0  0  0  0  0
   32.4770   27.2300   21.4310 O   0  0  0  0  0  0  0  0  0  0  0  0
   32.3110   26.5180   22.1160 H   0  0  0  0  0  0  0  0  0  0  0  0
   29.7940   28.5900   22.0210 N   0  0  0  0  0  0  0  0  0  0  0  0
   28.7600   27.9030   21.3140 C   0  0  0  0  0  0  0  0  0  0  0  0
   29.6670   28.7190   23.0470 H   0  0  0  0  0  0  0  0  0  0  0  0
   27.5720   27.4100   22.0450 C   0  0  0  0  0  0  0  0  0  0  0  0
   28.8680   27.7240   20.0820 O   0  0  0  0  0  0  0  0  0  0  0  0
   30.8740   32.0620   19.5310 O   0  0  0  0  0  0  0  0  0  0  0  0
   30.3280   32.3760   18.7740 H   0  0  0  0  0  0  0  0  0  0  0  0
   28.5900   31.3590   22.1040 O   0  0  0  0  0  0  0  0  0  0  0  0
   28.1680   30.4800   22.2010 H   0  0  0  0  0  0  0  0  0  0  0  0
   27.9680   29.5950   16.5820 O   0  0  0  0  0  0  0  0  0  0  0  0
   28.4920   30.2310   15.4390 C   0  0  0  0  0  0  0  0  0  0  0  0
   29.3860   31.3180   15.8660 C   0  0  0  0  0  0  0  0  0  0  0  0
   29.2230   32.6810   15.6030 C   0  0  0  0  0  0  0  0  0  0  0  0
   30.5330   31.2390   16.5880 N   0  0  0  0  0  0  0  0  0  0  0  0
   30.2440   33.3200   16.1600 N   0  0  0  0  0  0  0  0  0  0  0  0
   31.0350   32.4460   16.7560 N   0  0  0  0  0  0  0  0  0  0  0  0
   30.4660   34.7520   16.1330 C   0  0  0  0  0  0  0  0  0  0  0  0
   31.3980   35.0070   14.9830 C   0  0  0  0  0  0  0  0  0  0  0  0
   30.9200   35.6850   13.8930 C   0  0  0  0  0  0  0  0  0  0  0  0
   32.6930   34.5600   15.0440 C   0  0  0  0  0  0  0  0  0  0  0  0
   31.7310   35.9410   12.8180 C   0  0  0  0  0  0  0  0  0  0  0  0
   33.5330   34.8140   13.9540 C   0  0  0  0  0  0  0  0  0  0  0  0
   33.0340   35.4930   12.8760 C   0  0  0  0  0  0  0  0  0  0  0  0
   29.6030   36.1210   13.8690 O   0  0  0  0  0  0  0  0  0  0  0  0
   28.8060   35.7000   12.8060 C   0  0  0  0  0  0  0  0  0  0  0  0
   28.4750   34.4940   12.7220 O   0  0  0  0  0  0  0  0  0  0  0  0
   28.3440   36.6600   11.7750 C   0  0  0  0  0  0  0  0  0  0  0  0
   29.8670   25.5550   16.9770 C   0  0  0  0  0  0  0  0  0  0  0  0
   28.3450   25.7220   17.0260 C   0  0  0  0  0  0  0  0  0  0  0  0
   27.6010   24.4030   16.8860 C   0  0  0  0  0  0  0  0  0  0  0  0
   26.1520   24.5260   17.2680 C   0  0  0  0  0  0  0  0  0  0  0  0
   25.9690   24.0900   18.7180 C   0  0  0  0  0  0  0  0  0  0  0  0
   25.7610   25.2690   19.5920 N   0  0  0  0  0  0  0  0  0  0  0  0
  1  4  1  0  0  0  0
  1  5  1  0  0  0  0
  2  1  1  0  0  0  0
  3  2  2  0  0  0  0
  6  5  1  6  0  0  0
  6 29  1  0  0  0  0
  7 27  1  1  0  0  0
  7  6  1  0  0  0  0
  8  7  1  6  0  0  0
  8 11  1  0  0  0  0
  9 14  1  6  0  0  0
  9 16  1  0  0  0  0
 10 12  1  0  0  0  0
 10  9  1  0  0  0  0
 11  9  1  0  0  0  0
 12 20  1  6  0  0  0
 13  8  1  0  0  0  0
 13 12  1  0  0  0  0
 13 22  1  1  0  0  0
 15 14  1  0  0  0  0
 16 17  2  0  0  0  0
 16 18  1  0  0  0  0
 18 19  1  0  0  0  0
 20 21  1  0  0  0  0
 22 24  1  0  0  0  0
 23 22  1  0  0  0  0
 23 25  1  0  0  0  0
 26 23  2  0  0  0  0
 28 27  1  0  0  0  0
 29 30  1  0  0  0  0
 31  2  1  0  0  0  0
 32 33  1  0  0  0  0
 32 31  1  0  0  0  0
 33 35  1  0  0  0  0
 34 33  2  0  0  0  0
 34 36  1  0  0  0  0
 35 37  2  0  0  0  0
 36 37  1  0  0  0  0
 38 36  1  0  0  0  0
 39 41  1  0  0  0  0
 39 38  1  0  0  0  0
 40 39  2  0  0  0  0
 42 44  2  0  0  0  0
 42 40  1  0  0  0  0
 43 41  2  0  0  0  0
 44 43  1  0  0  0  0
 45 40  1  0  0  0  0
 46 45  1  0  0  0  0
 47 46  2  0  0  0  0
 48 46  1  0  0  0  0
 49 50  1  0  0  0  0
 51 50  1  0  0  0  0
 51 52  1  0  0  0  0
 52 53  1  0  0  0  0
 53 54  1  0  0  0  0
M  END
>  <REMARK>
 VINA RESULT:    -4.371      7.911     13.469
 INTER + INTRA:         -14.606
 INTER:                  -8.331
 INTRA:                  -6.275
 UNBOUND:                -6.275
 SMILES CC(=O)N[C@@H]1[C@@H](O)C[C@](O)(C(=O)O)O[C@H]1C(O)[C@H](O)CNC(=O)OCc1cn(Cc2ccccc2OC(C)=O)nn1
 SMILES IDX 21 1 22 2 23 3 20 5 18 6 16 7 15 8 9 9 8 10 14 11 6 12 5 13
 SMILES IDX 10 14 11 16 12 17 13 18 7 20 4 22 2 23 1 25 3 26 17 27 19 29
 SMILES IDX 24 31 25 32 26 33 27 34 41 35 28 36 40 37 29 38 30 39 35 40
 SMILES IDX 31 41 34 42 32 43 33 44 36 45 37 46 39 47 38 48
 H PARENT 21 4 10 15 13 19 7 21 4 24 17 28 19 30
 Flexibility Score: inf
  4 active torsions:
  status: ('A' for Active; 'I' for Inactive)
    1  A    between atoms: CA   and  CB  
    2  A    between atoms: CB   and  CG  
    3  A    between atoms: CG   and  CD  
    4  A    between atoms: CD   and  CE  

>  <TORSDO>
F 18

>  <BEGIN_>
RES LYS A 131

$$$$
ligand_21_pose_19_2HRL.pdbqt
 OpenBabel07062320523D

  6  5  0  0  0  0  0  0  0  0999 V2000
   33.1930   34.6630    9.2900 C   0  0  0  0  0  0  0  0  0  0  0  0
   32.0600   35.3600   10.0340 C   0  0  0  0  0  0  0  0  0  0  0  0
   30.8830   35.7010    9.1570 C   0  0  0  0  0  0  0  0  0  0  0  0
   30.3880   34.4660    8.4200 C   0  0  0  0  0  0  0  0  0  0  0  0
   28.8750   34.4810    8.3130 C   0  0  0  0  0  0  0  0  0  0  0  0
   28.2490   33.7670    9.4610 N   0  0  0  0  0  0  0  0  0  0  0  0
  1  2  1  0  0  0  0
  3  2  1  0  0  0  0
  4  3  1  0  0  0  0
  5  4  1  0  0  0  0
  5  6  1  0  0  0  0
M  END
>  <EGIN_R>
ES LYS A 135

>  <REMARK>
  4 active torsions:
  status: ('A' for Active; 'I' for Inactive)
    5  A    between atoms: CA   and  CB  
    6  A    between atoms: CB   and  CG  
    7  A    between atoms: CG   and  CD  
    8  A    between atoms: CD   and  CE  

$$$$
