ligand_93_pose_2_2HRL.pdbqt
 OpenBabel07062320523D

 50 51  0  0  1  0  0  0  0  0999 V2000
   26.5080   28.5240   19.7500 C   0  0  0  0  0  0  0  0  0  0  0  0
   27.2590   27.8670   20.8840 C   0  0  2  0  0  0  0  0  0  0  0  0
   28.7110   27.7740   20.5720 C   0  0  1  0  0  0  0  0  0  0  0  0
   29.6480   28.2550   21.6510 C   0  0  2  0  0  0  0  0  0  0  0  0
   31.1910   29.8320   20.8230 C   0  0  2  0  0  0  0  0  0  0  0  0
   32.3510   29.0150   21.3530 C   0  0  0  0  0  0  0  0  0  0  0  0
   29.9880   29.5320   21.3530 O   0  0  0  0  0  0  0  0  0  0  0  0
   31.9650   27.5650   21.2200 C   0  0  1  0  0  0  0  0  0  0  0  0
   30.7290   27.3340   22.0520 C   0  0  1  0  0  0  0  0  0  0  0  0
   31.1480   29.5790   19.4520 O   0  0  0  0  0  0  0  0  0  0  0  0
   30.3740   28.9570   19.3020 H   0  0  0  0  0  0  0  0  0  0  0  0
   31.5620   31.2720   20.9950 C   0  0  0  0  0  0  0  0  0  0  0  0
   32.3710   31.6710   21.8610 O   0  0  0  0  0  0  0  0  0  0  0  0
   30.9810   32.2000   20.1570 O   0  0  0  0  0  0  0  0  0  0  0  0
   30.9790   32.1070   19.1400 H   0  0  0  0  0  0  0  0  0  0  0  0
   31.7550   27.3300   19.8600 O   0  0  0  0  0  0  0  0  0  0  0  0
   30.9510   27.7940   19.5200 H   0  0  0  0  0  0  0  0  0  0  0  0
   31.1160   27.5890   23.4510 N   0  0  0  0  0  0  0  0  0  0  0  0
   30.8010   26.6820   24.4920 C   0  0  0  0  0  0  0  0  0  0  0  0
   31.6350   28.4560   23.6960 H   0  0  0  0  0  0  0  0  0  0  0  0
   31.2260   27.0110   25.8720 C   0  0  0  0  0  0  0  0  0  0  0  0
   30.1690   25.6090   24.2590 O   0  0  0  0  0  0  0  0  0  0  0  0
   29.0680   26.5530   20.0170 O   0  0  0  0  0  0  0  0  0  0  0  0
   29.3850   26.6550   19.0760 H   0  0  0  0  0  0  0  0  0  0  0  0
   26.6780   26.5790   21.0220 O   0  0  0  0  0  0  0  0  0  0  0  0
   26.5700   26.3750   21.9900 H   0  0  0  0  0  0  0  0  0  0  0  0
   27.3490   28.9210   18.6440 N   0  0  0  0  0  0  0  0  0  0  0  0
   26.8260   28.8380   17.3150 C   0  0  0  0  0  0  0  0  0  0  0  0
   28.3050   29.2600   18.8430 H   0  0  0  0  0  0  0  0  0  0  0  0
   25.6640   28.4260   17.1610 O   0  0  0  0  0  0  0  0  0  0  0  0
   27.6520   29.2240   16.2730 O   0  0  0  0  0  0  0  0  0  0  0  0
   27.5840   30.5470   15.8080 C   0  0  0  0  0  0  0  0  0  0  0  0
   28.7930   31.2650   16.2810 C   0  0  0  0  0  0  0  0  0  0  0  0
   29.3290   32.3950   15.6540 C   0  0  0  0  0  0  0  0  0  0  0  0
   29.5860   31.0180   17.3300 N   0  0  0  0  0  0  0  0  0  0  0  0
   30.4000   32.7300   16.3820 N   0  0  0  0  0  0  0  0  0  0  0  0
   30.5640   31.9040   17.3970 N   0  0  0  0  0  0  0  0  0  0  0  0
   31.2530   33.8270   16.1070 C   0  0  0  0  0  0  0  0  0  0  0  0
   32.2450   33.6830   15.1380 C   0  0  0  0  0  0  0  0  0  0  0  0
   31.0850   34.9980   16.7940 C   0  0  0  0  0  0  0  0  0  0  0  0
   33.0790   34.7460   14.8640 C   0  0  0  0  0  0  0  0  0  0  0  0
   31.9320   36.0520   16.5040 C   0  0  0  0  0  0  0  0  0  0  0  0
   29.6020   35.2620   18.2650 I   0  0  0  0  0  0  0  0  0  0  0  0
   32.9230   35.9320   15.5470 C   0  0  0  0  0  0  0  0  0  0  0  0
   29.8670   25.5550   16.9770 C   0  0  0  0  0  0  0  0  0  0  0  0
   28.3450   25.7220   17.0260 C   0  0  0  0  0  0  0  0  0  0  0  0
   27.6010   24.4050   16.8670 C   0  0  0  0  0  0  0  0  0  0  0  0
   26.7930   24.0610   18.0880 C   0  0  0  0  0  0  0  0  0  0  0  0
   25.3080   24.2260   17.7790 C   0  0  0  0  0  0  0  0  0  0  0  0
   24.7800   25.4560   18.4140 N   0  0  0  0  0  0  0  0  0  0  0  0
  2  1  1  6  0  0  0
  2 25  1  0  0  0  0
  3 23  1  1  0  0  0
  3  2  1  0  0  0  0
  4  3  1  6  0  0  0
  4  9  1  0  0  0  0
  5 10  1  6  0  0  0
  5 12  1  0  0  0  0
  5  6  1  0  0  0  0
  5  7  1  0  0  0  0
  7  4  1  0  0  0  0
  8 16  1  6  0  0  0
  8  6  1  0  0  0  0
  8  9  1  0  0  0  0
  9 18  1  1  0  0  0
 11 10  1  0  0  0  0
 12 13  2  0  0  0  0
 14 12  1  0  0  0  0
 15 14  1  0  0  0  0
 17 16  1  0  0  0  0
 18 20  1  0  0  0  0
 18 19  1  0  0  0  0
 19 21  1  0  0  0  0
 22 19  2  0  0  0  0
 24 23  1  0  0  0  0
 25 26  1  0  0  0  0
 27 29  1  0  0  0  0
 27  1  1  0  0  0  0
 28 27  1  0  0  0  0
 30 28  2  0  0  0  0
 31 28  1  0  0  0  0
 32 31  1  0  0  0  0
 32 33  1  0  0  0  0
 33 35  1  0  0  0  0
 34 33  2  0  0  0  0
 34 36  1  0  0  0  0
 35 37  2  0  0  0  0
 36 37  1  0  0  0  0
 38 36  1  0  0  0  0
 38 40  2  0  0  0  0
 39 38  1  0  0  0  0
 40 43  1  0  0  0  0
 41 39  2  0  0  0  0
 41 44  1  0  0  0  0
 42 40  1  0  0  0  0
 44 42  2  0  0  0  0
 45 46  1  0  0  0  0
 47 46  1  0  0  0  0
 47 48  1  0  0  0  0
 49 48  1  0  0  0  0
 49 50  1  0  0  0  0
M  END
>  <REMARK>
 VINA RESULT:    -4.806      3.799      6.736
 INTER + INTRA:         -14.604
 INTER:                  -8.853
 INTRA:                  -5.751
 UNBOUND:                -6.285
 SMILES CC(=O)N[C@@H]1[C@@H](O)C[C@](O)(C(=O)O)O[C@H]1C(O)[C@H](O)CNC(=O)OCc1cn(-c2ccccc2I)nn1
 SMILES IDX 20 1 18 2 16 3 15 4 9 5 8 6 14 7 6 8 5 9 10 10 11 12 12 13
 SMILES IDX 13 14 7 16 4 18 2 19 1 21 3 22 17 23 19 25 21 27 22 28 23 30
 SMILES IDX 24 31 25 32 26 33 27 34 37 35 28 36 36 37 29 38 30 39 34 40
 SMILES IDX 31 41 33 42 35 43 32 44
 H PARENT 10 11 13 15 7 17 4 20 17 24 19 26 21 29
 Flexibility Score: inf
  4 active torsions:
  status: ('A' for Active; 'I' for Inactive)
    1  A    between atoms: CA   and  CB  
    2  A    between atoms: CB   and  CG  
    3  A    between atoms: CG   and  CD  
    4  A    between atoms: CD   and  CE  

>  <TORSDO>
F 15

>  <BEGIN_>
RES LYS A 131

$$$$
ligand_93_pose_2_2HRL.pdbqt
 OpenBabel07062320523D

  6  5  0  0  0  0  0  0  0  0999 V2000
   33.1930   34.6630    9.2900 C   0  0  0  0  0  0  0  0  0  0  0  0
   32.0600   35.3600   10.0340 C   0  0  0  0  0  0  0  0  0  0  0  0
   30.7840   35.4520    9.2380 C   0  0  0  0  0  0  0  0  0  0  0  0
   30.1750   34.0730    9.0380 C   0  0  0  0  0  0  0  0  0  0  0  0
   28.6980   34.0870    9.3830 C   0  0  0  0  0  0  0  0  0  0  0  0
   28.4840   34.4630   10.8080 N   0  0  0  0  0  0  0  0  0  0  0  0
  1  2  1  0  0  0  0
  3  2  1  0  0  0  0
  4  3  1  0  0  0  0
  4  5  1  0  0  0  0
  5  6  1  0  0  0  0
M  END
>  <EGIN_R>
ES LYS A 135

>  <REMARK>
  4 active torsions:
  status: ('A' for Active; 'I' for Inactive)
    5  A    between atoms: CA   and  CB  
    6  A    between atoms: CB   and  CG  
    7  A    between atoms: CG   and  CD  
    8  A    between atoms: CD   and  CE  

$$$$
