ligand_72_pose_0_2HRL.pdbqt
 OpenBabel07062320523D

 49 49  0  0  1  0  0  0  0  0999 V2000
   28.1720   40.3070    4.4860 N   0  0  0  0  0  0  0  0  0  0  0  0
   28.1400   41.7370    4.4140 C   0  0  0  0  0  0  0  0  0  0  0  0
   27.1350   42.4010    4.8390 O   0  0  0  0  0  0  0  0  0  0  0  0
   29.0170   39.8170    4.1380 H   0  0  0  0  0  0  0  0  0  0  0  0
   27.0450   39.5960    5.0520 C   0  0  0  0  0  0  0  0  0  0  0  0
   27.4390   38.3930    5.8150 C   0  0  2  0  0  0  0  0  0  0  0  0
   28.6700   38.4540    6.6370 C   0  0  1  0  0  0  0  0  0  0  0  0
   28.4910   37.7480    7.9580 C   0  0  2  0  0  0  0  0  0  0  0  0
   29.2270   35.5480    7.4980 C   0  0  2  0  0  0  0  0  0  0  0  0
   27.7780   35.0500    7.6540 C   0  0  0  0  0  0  0  0  0  0  0  0
   29.4340   36.7500    8.0940 O   0  0  0  0  0  0  0  0  0  0  0  0
   27.2040   35.8480    8.7760 C   0  0  1  0  0  0  0  0  0  0  0  0
   27.0890   37.3090    8.2520 C   0  0  1  0  0  0  0  0  0  0  0  0
   29.5840   35.4540    6.1690 O   0  0  0  0  0  0  0  0  0  0  0  0
   29.9800   36.3060    5.8660 H   0  0  0  0  0  0  0  0  0  0  0  0
   30.0990   34.5650    8.2540 C   0  0  0  0  0  0  0  0  0  0  0  0
   29.6170   33.8420    9.1570 O   0  0  0  0  0  0  0  0  0  0  0  0
   31.4330   34.4920    7.9160 O   0  0  0  0  0  0  0  0  0  0  0  0
   31.8930   35.2390    7.4090 H   0  0  0  0  0  0  0  0  0  0  0  0
   25.9680   35.4040    9.2020 O   0  0  0  0  0  0  0  0  0  0  0  0
   25.2880   35.8510    8.6310 H   0  0  0  0  0  0  0  0  0  0  0  0
   26.5010   37.9980    9.4120 N   0  0  0  0  0  0  0  0  0  0  0  0
   25.3820   38.8320    9.3260 C   0  0  0  0  0  0  0  0  0  0  0  0
   26.9610   37.8370   10.3320 H   0  0  0  0  0  0  0  0  0  0  0  0
   24.7760   39.5410   10.4820 C   0  0  0  0  0  0  0  0  0  0  0  0
   24.8440   39.0030    8.1970 O   0  0  0  0  0  0  0  0  0  0  0  0
   29.8720   38.3100    6.0260 O   0  0  0  0  0  0  0  0  0  0  0  0
   29.8330   38.2300    5.0380 H   0  0  0  0  0  0  0  0  0  0  0  0
   27.5540   37.2960    4.9300 O   0  0  0  0  0  0  0  0  0  0  0  0
   28.2540   36.7030    5.2820 H   0  0  0  0  0  0  0  0  0  0  0  0
   29.2220   42.3830    3.8740 O   0  0  0  0  0  0  0  0  0  0  0  0
   30.2540   42.9300    4.6400 C   0  0  0  0  0  0  0  0  0  0  0  0
   31.0330   41.8720    5.3330 C   0  0  0  0  0  0  0  0  0  0  0  0
   31.4510   41.9420    6.6380 C   0  0  0  0  0  0  0  0  0  0  0  0
   31.4650   40.7030    4.8590 N   0  0  0  0  0  0  0  0  0  0  0  0
   32.1210   40.8220    6.9280 N   0  0  0  0  0  0  0  0  0  0  0  0
   32.1130   40.0810    5.8180 N   0  0  0  0  0  0  0  0  0  0  0  0
   32.7220   40.5100    8.2000 C   0  0  0  0  0  0  0  0  0  0  0  0
   32.7730   41.7360    9.0850 C   0  0  0  0  0  0  0  0  0  0  0  0
   34.1290   39.9790    7.9550 C   0  0  0  0  0  0  0  0  0  0  0  0
   31.9490   39.4030    8.8690 C   0  0  0  0  0  0  0  0  0  0  0  0
   31.9190   38.2740    8.0440 O   0  0  0  0  0  0  0  0  0  0  0  0
   31.1010   37.7550    8.2520 H   0  0  0  0  0  0  0  0  0  0  0  0
   29.8670   25.5550   16.9770 C   0  0  0  0  0  0  0  0  0  0  0  0
   28.3450   25.7220   17.0260 C   0  0  0  0  0  0  0  0  0  0  0  0
   27.6000   24.4140   16.8090 C   0  0  0  0  0  0  0  0  0  0  0  0
   26.1660   24.4990   17.2530 C   0  0  0  0  0  0  0  0  0  0  0  0
   25.7400   23.1650   17.8570 C   0  0  0  0  0  0  0  0  0  0  0  0
   25.5050   23.3060   19.3130 N   0  0  0  0  0  0  0  0  0  0  0  0
  1  5  1  0  0  0  0
  2  1  1  0  0  0  0
  2  3  2  0  0  0  0
  4  1  1  0  0  0  0
  6  5  1  6  0  0  0
  6  7  1  0  0  0  0
  7 27  1  6  0  0  0
  8  7  1  6  0  0  0
  8 11  1  0  0  0  0
  8 13  1  0  0  0  0
  9 14  1  6  0  0  0
  9 10  1  0  0  0  0
  9 11  1  0  0  0  0
  9 16  1  0  0  0  0
 10 12  1  0  0  0  0
 12 20  1  6  0  0  0
 13 12  1  0  0  0  0
 13 22  1  1  0  0  0
 15 14  1  0  0  0  0
 16 17  2  0  0  0  0
 18 16  1  0  0  0  0
 19 18  1  0  0  0  0
 21 20  1  0  0  0  0
 22 24  1  0  0  0  0
 23 22  1  0  0  0  0
 23 25  1  0  0  0  0
 26 23  2  0  0  0  0
 28 27  1  0  0  0  0
 29 30  1  0  0  0  0
 29  6  1  0  0  0  0
 31  2  1  0  0  0  0
 31 32  1  0  0  0  0
 32 33  1  0  0  0  0
 33 34  2  0  0  0  0
 34 36  1  0  0  0  0
 35 33  1  0  0  0  0
 35 37  2  0  0  0  0
 36 38  1  0  0  0  0
 37 36  1  0  0  0  0
 38 41  1  0  0  0  0
 38 39  1  0  0  0  0
 40 38  1  0  0  0  0
 42 43  1  0  0  0  0
 42 41  1  0  0  0  0
 44 45  1  0  0  0  0
 46 45  1  0  0  0  0
 46 47  1  0  0  0  0
 47 48  1  0  0  0  0
 48 49  1  0  0  0  0
M  END
>  <REMARK>
 VINA RESULT:    -4.807      0.000      0.000
 INTER + INTRA:         -14.885
 INTER:                  -9.335
 INTRA:                  -5.550
 UNBOUND:                -6.145
 SMILES CC(=O)N[C@@H]1[C@@H](O)C[C@](O)(C(=O)O)O[C@H]1C(O)[C@H](O)CNC(=O)OCc1cn(C(C)(C)CO)nn1
 SMILES IDX 21 1 22 2 23 3 20 5 18 6 16 7 15 8 9 9 8 10 14 11 6 12 5 13
 SMILES IDX 10 14 11 16 12 17 13 18 7 20 4 22 2 23 1 25 3 26 17 27 19 29
 SMILES IDX 24 31 25 32 26 33 27 34 35 35 28 36 34 37 29 38 30 39 31 40
 SMILES IDX 32 41 33 42
 H PARENT 21 4 10 15 13 19 7 21 4 24 17 28 19 30 33 43
 Flexibility Score: inf
  4 active torsions:
  status: ('A' for Active; 'I' for Inactive)
    1  A    between atoms: CA   and  CB  
    2  A    between atoms: CB   and  CG  
    3  A    between atoms: CG   and  CD  
    4  A    between atoms: CD   and  CE  

>  <TORSDO>
F 17

>  <BEGIN_>
RES LYS A 131

$$$$
ligand_72_pose_0_2HRL.pdbqt
 OpenBabel07062320523D

  6  5  0  0  0  0  0  0  0  0999 V2000
   33.1930   34.6630    9.2900 C   0  0  0  0  0  0  0  0  0  0  0  0
   32.0600   35.3600   10.0340 C   0  0  0  0  0  0  0  0  0  0  0  0
   32.3880   35.6770   11.4700 C   0  0  0  0  0  0  0  0  0  0  0  0
   31.2590   35.2340   12.3890 C   0  0  0  0  0  0  0  0  0  0  0  0
   31.6250   35.4800   13.8400 C   0  0  0  0  0  0  0  0  0  0  0  0
   32.1110   36.8740   14.0410 N   0  0  0  0  0  0  0  0  0  0  0  0
  1  2  1  0  0  0  0
  2  3  1  0  0  0  0
  3  4  1  0  0  0  0
  4  5  1  0  0  0  0
  5  6  1  0  0  0  0
M  END
>  <EGIN_R>
ES LYS A 135

>  <REMARK>
  4 active torsions:
  status: ('A' for Active; 'I' for Inactive)
    5  A    between atoms: CA   and  CB  
    6  A    between atoms: CB   and  CG  
    7  A    between atoms: CG   and  CD  
    8  A    between atoms: CD   and  CE  

$$$$
