ligand_37_pose_1_2HRL.pdbqt
 OpenBabel07062320523D

 55 56  0  0  1  0  0  0  0  0999 V2000
   28.7570   30.4550   19.7570 O   0  0  0  0  0  0  0  0  0  0  0  0
   29.1730   31.5460   18.9600 C   0  0  0  0  0  0  0  0  0  0  0  0
   30.1310   31.3610   17.9400 N   0  0  0  0  0  0  0  0  0  0  0  0
   30.5080   30.3660   17.8410 H   0  0  0  0  0  0  0  0  0  0  0  0
   28.6420   32.6400   19.2250 O   0  0  0  0  0  0  0  0  0  0  0  0
   30.5860   32.4110   17.0850 C   0  0  0  0  0  0  0  0  0  0  0  0
   30.1630   32.2100   15.6690 C   0  0  2  0  0  0  0  0  0  0  0  0
   28.9290   33.0570   15.3660 C   0  0  2  0  0  0  0  0  0  0  0  0
   29.1750   34.5290   15.4700 C   0  0  2  0  0  0  0  0  0  0  0  0
   27.5170   35.2590   13.9850 C   0  0  2  0  0  0  0  0  0  0  0  0
   28.5740   35.4620   12.9470 C   0  0  0  0  0  0  0  0  0  0  0  0
   27.9870   35.2540   15.2760 O   0  0  0  0  0  0  0  0  0  0  0  0
   29.7950   36.0750   13.6020 C   0  0  1  0  0  0  0  0  0  0  0  0
   30.2860   35.0670   14.6300 C   0  0  1  0  0  0  0  0  0  0  0  0
   26.7870   34.1260   13.7100 O   0  0  0  0  0  0  0  0  0  0  0  0
   27.3570   33.3200   13.5640 H   0  0  0  0  0  0  0  0  0  0  0  0
   26.5640   36.4250   13.9090 C   0  0  0  0  0  0  0  0  0  0  0  0
   26.5720   37.3190   14.7940 O   0  0  0  0  0  0  0  0  0  0  0  0
   25.6490   36.5610   12.8750 O   0  0  0  0  0  0  0  0  0  0  0  0
   24.9950   37.3580   12.8290 H   0  0  0  0  0  0  0  0  0  0  0  0
   30.7620   36.3680   12.6620 O   0  0  0  0  0  0  0  0  0  0  0  0
   30.6520   35.8610   11.8190 H   0  0  0  0  0  0  0  0  0  0  0  0
   31.3570   35.6770   15.4240 N   0  0  0  0  0  0  0  0  0  0  0  0
   32.6910   35.1730   15.4310 C   0  0  0  0  0  0  0  0  0  0  0  0
   31.1700   36.5220   16.0250 H   0  0  0  0  0  0  0  0  0  0  0  0
   33.7410   35.8390   16.2620 C   0  0  0  0  0  0  0  0  0  0  0  0
   32.9770   34.1700   14.7360 O   0  0  0  0  0  0  0  0  0  0  0  0
   27.9180   32.7140   16.2730 O   0  0  0  0  0  0  0  0  0  0  0  0
   27.0410   32.7390   15.8020 H   0  0  0  0  0  0  0  0  0  0  0  0
   29.8680   30.8650   15.4520 O   0  0  0  0  0  0  0  0  0  0  0  0
   29.2100   30.7350   14.7080 H   0  0  0  0  0  0  0  0  0  0  0  0
   28.2190   29.3160   19.1180 C   0  0  0  0  0  0  0  0  0  0  0  0
   27.3790   29.6740   17.9600 C   0  0  0  0  0  0  0  0  0  0  0  0
   26.1110   30.2070   17.9430 C   0  0  0  0  0  0  0  0  0  0  0  0
   27.7280   29.5360   16.6700 N   0  0  0  0  0  0  0  0  0  0  0  0
   25.7220   30.3770   16.6580 N   0  0  0  0  0  0  0  0  0  0  0  0
   26.7130   29.9660   15.9150 N   0  0  0  0  0  0  0  0  0  0  0  0
   24.4570   30.9110   16.2260 C   0  0  1  0  0  0  0  0  0  0  0  0
   23.6210   31.3030   17.4240 C   0  0  0  0  0  0  0  0  0  0  0  0
   24.6880   32.0280   15.3010 C   0  0  0  0  0  0  0  0  0  0  0  0
   25.1130   33.1340   15.7520 O   0  0  0  0  0  0  0  0  0  0  0  0
   24.4600   31.9310   13.9450 O   0  0  0  0  0  0  0  0  0  0  0  0
   24.4150   30.7620   13.1890 C   0  0  0  0  0  0  0  0  0  0  0  0
   23.0010   30.4700   12.8260 C   0  0  0  0  0  0  0  0  0  0  0  0
   22.0680   31.4820   12.7880 C   0  0  0  0  0  0  0  0  0  0  0  0
   22.6220   29.1900   12.5240 C   0  0  0  0  0  0  0  0  0  0  0  0
   20.7640   31.2170   12.4500 C   0  0  0  0  0  0  0  0  0  0  0  0
   21.3310   28.8970   12.1840 C   0  0  0  0  0  0  0  0  0  0  0  0
   20.4040   29.9110   12.1480 C   0  0  0  0  0  0  0  0  0  0  0  0
   29.8670   25.5550   16.9770 C   0  0  0  0  0  0  0  0  0  0  0  0
   28.3450   25.7220   17.0260 C   0  0  0  0  0  0  0  0  0  0  0  0
   27.6010   24.4020   16.8900 C   0  0  0  0  0  0  0  0  0  0  0  0
   26.1460   24.5330   17.2460 C   0  0  0  0  0  0  0  0  0  0  0  0
   25.5740   23.1550   17.5610 C   0  0  0  0  0  0  0  0  0  0  0  0
   24.0950   23.1740   17.4710 N   0  0  0  0  0  0  0  0  0  0  0  0
  2  5  2  0  0  0  0
  2  1  1  0  0  0  0
  3  2  1  0  0  0  0
  4  3  1  0  0  0  0
  6  3  1  0  0  0  0
  7  6  1  1  0  0  0
  8  7  1  0  0  0  0
  8 28  1  1  0  0  0
  9  8  1  6  0  0  0
 10 15  1  6  0  0  0
 10 12  1  0  0  0  0
 11 13  1  0  0  0  0
 11 10  1  0  0  0  0
 12  9  1  0  0  0  0
 13 21  1  6  0  0  0
 13 14  1  0  0  0  0
 14 23  1  1  0  0  0
 14  9  1  0  0  0  0
 16 15  1  0  0  0  0
 17 10  1  0  0  0  0
 17 18  2  0  0  0  0
 19 17  1  0  0  0  0
 20 19  1  0  0  0  0
 22 21  1  0  0  0  0
 23 24  1  0  0  0  0
 23 25  1  0  0  0  0
 24 26  1  0  0  0  0
 27 24  2  0  0  0  0
 29 28  1  0  0  0  0
 30  7  1  0  0  0  0
 31 30  1  0  0  0  0
 32  1  1  0  0  0  0
 33 32  1  0  0  0  0
 34 33  2  0  0  0  0
 35 33  1  0  0  0  0
 36 34  1  0  0  0  0
 37 36  1  0  0  0  0
 37 35  2  0  0  0  0
 38 36  1  0  0  0  0
 38 39  1  1  0  0  0
 40 41  2  0  0  0  0
 40 38  1  0  0  0  0
 42 40  1  0  0  0  0
 43 42  1  0  0  0  0
 44 43  1  0  0  0  0
 45 44  1  0  0  0  0
 46 44  2  0  0  0  0
 47 45  2  0  0  0  0
 48 46  1  0  0  0  0
 49 48  2  0  0  0  0
 49 47  1  0  0  0  0
 50 51  1  0  0  0  0
 52 51  1  0  0  0  0
 52 53  1  0  0  0  0
 53 54  1  0  0  0  0
 55 54  1  0  0  0  0
M  END
>  <REMARK>
 VINA RESULT:    -5.973      5.475     10.290
 INTER + INTRA:         -16.844
 INTER:                  -9.077
 INTRA:                  -7.767
 UNBOUND:                -5.110
 SMILES CC(=O)N[C@@H]1[C@@H](O)C[C@](O)(C(=O)O)O[C@H]1C(O)[C@H](O)CNC(=O)OCc1cn([C@@H](C)C(=O)OCc2ccccc2)nn1
 SMILES IDX 24 1 22 2 21 3 23 5 20 6 18 7 16 8 15 9 9 10 8 11 14 12 6 13
 SMILES IDX 5 14 10 15 11 17 12 18 13 19 7 21 4 23 2 24 1 26 3 27 17 28
 SMILES IDX 19 30 25 32 26 33 27 34 42 35 28 36 41 37 29 38 30 39 31 40
 SMILES IDX 32 41 33 42 34 43 35 44 36 45 40 46 37 47 39 48 38 49
 H PARENT 21 4 10 16 13 20 7 22 4 25 17 29 19 31
 Flexibility Score: inf
  4 active torsions:
  status: ('A' for Active; 'I' for Inactive)
    1  A    between atoms: CA   and  CB  
    2  A    between atoms: CB   and  CG  
    3  A    between atoms: CG   and  CD  
    4  A    between atoms: CD   and  CE  

>  <TORSDO>
F 19

>  <BEGIN_>
RES LYS A 131

$$$$
ligand_37_pose_1_2HRL.pdbqt
 OpenBabel07062320523D

  6  5  0  0  0  0  0  0  0  0999 V2000
   33.1930   34.6630    9.2900 C   0  0  0  0  0  0  0  0  0  0  0  0
   32.0600   35.3600   10.0340 C   0  0  0  0  0  0  0  0  0  0  0  0
   30.7800   35.4420    9.2430 C   0  0  0  0  0  0  0  0  0  0  0  0
   30.1760   34.0590    9.0540 C   0  0  0  0  0  0  0  0  0  0  0  0
   28.6980   34.0730    9.3930 C   0  0  0  0  0  0  0  0  0  0  0  0
   27.9000   34.6720    8.2880 N   0  0  0  0  0  0  0  0  0  0  0  0
  1  2  1  0  0  0  0
  3  2  1  0  0  0  0
  4  3  1  0  0  0  0
  4  5  1  0  0  0  0
  6  5  1  0  0  0  0
M  END
>  <EGIN_R>
ES LYS A 135

>  <REMARK>
  4 active torsions:
  status: ('A' for Active; 'I' for Inactive)
    5  A    between atoms: CA   and  CB  
    6  A    between atoms: CB   and  CG  
    7  A    between atoms: CG   and  CD  
    8  A    between atoms: CD   and  CE  

$$$$
