ligand_92_pose_3_2HRL.pdbqt
 OpenBabel07062320523D

 59 61  0  0  1  0  0  0  0  0999 V2000
   26.9640   28.8370   20.7430 N   0  0  0  0  0  0  0  0  0  0  0  0
   26.0390   29.2250   19.7480 C   0  0  0  0  0  0  0  0  0  0  0  0
   25.1010   28.4140   19.4370 O   0  0  0  0  0  0  0  0  0  0  0  0
   27.7240   29.4880   21.0010 H   0  0  0  0  0  0  0  0  0  0  0  0
   26.8740   27.5640   21.4050 C   0  0  0  0  0  0  0  0  0  0  0  0
   27.9420   27.3760   22.4550 C   0  0  2  0  0  0  0  0  0  0  0  0
   29.3240   27.4060   21.8690 C   0  0  1  0  0  0  0  0  0  0  0  0
   30.1110   28.6190   22.3960 C   0  0  2  0  0  0  0  0  0  0  0  0
   30.1250   30.0960   20.5550 C   0  0  2  0  0  0  0  0  0  0  0  0
   31.6410   30.1070   20.5990 C   0  0  0  0  0  0  0  0  0  0  0  0
   29.6270   29.7160   21.7520 O   0  0  0  0  0  0  0  0  0  0  0  0
   32.0530   28.6850   20.8940 C   0  0  1  0  0  0  0  0  0  0  0  0
   31.5570   28.3380   22.2770 C   0  0  1  0  0  0  0  0  0  0  0  0
   29.7830   29.1450   19.5850 O   0  0  0  0  0  0  0  0  0  0  0  0
   30.4700   29.0280   18.9030 H   0  0  0  0  0  0  0  0  0  0  0  0
   29.5970   31.4050   20.0900 C   0  0  0  0  0  0  0  0  0  0  0  0
   30.3560   32.2050   19.5250 O   0  0  0  0  0  0  0  0  0  0  0  0
   28.2720   31.7410   20.2830 O   0  0  0  0  0  0  0  0  0  0  0  0
   27.9410   32.6900   20.0520 H   0  0  0  0  0  0  0  0  0  0  0  0
   31.5640   27.8350   19.9090 O   0  0  0  0  0  0  0  0  0  0  0  0
   31.1560   28.4100   19.1980 H   0  0  0  0  0  0  0  0  0  0  0  0
   32.4020   29.0020   23.2170 N   0  0  0  0  0  0  0  0  0  0  0  0
   33.4100   28.2880   23.9010 C   0  0  0  0  0  0  0  0  0  0  0  0
   32.2810   30.0100   23.4080 H   0  0  0  0  0  0  0  0  0  0  0  0
   34.3310   28.8970   24.8940 C   0  0  0  0  0  0  0  0  0  0  0  0
   33.5320   27.0810   23.6560 O   0  0  0  0  0  0  0  0  0  0  0  0
   30.0500   26.2250   22.1480 O   0  0  0  0  0  0  0  0  0  0  0  0
   29.4190   25.4830   22.1230 H   0  0  0  0  0  0  0  0  0  0  0  0
   27.6640   26.1260   23.0500 O   0  0  0  0  0  0  0  0  0  0  0  0
   28.4060   25.9510   23.6800 H   0  0  0  0  0  0  0  0  0  0  0  0
   26.0850   30.4340   19.0860 O   0  0  0  0  0  0  0  0  0  0  0  0
   25.6700   30.5650   17.7190 C   0  0  0  0  0  0  0  0  0  0  0  0
   26.9220   30.6170   16.9080 C   0  0  0  0  0  0  0  0  0  0  0  0
   27.7170   31.7400   16.6660 C   0  0  0  0  0  0  0  0  0  0  0  0
   27.5450   29.6190   16.2480 N   0  0  0  0  0  0  0  0  0  0  0  0
   28.7570   31.3910   15.8930 N   0  0  0  0  0  0  0  0  0  0  0  0
   28.6150   30.1010   15.6640 N   0  0  0  0  0  0  0  0  0  0  0  0
   29.7770   32.2730   15.4430 C   0  0  0  0  0  0  0  0  0  0  0  0
   31.0710   32.2090   15.9050 C   0  0  0  0  0  0  0  0  0  0  0  0
   29.4770   33.2400   14.5080 C   0  0  0  0  0  0  0  0  0  0  0  0
   32.0560   33.0850   15.4510 C   0  0  0  0  0  0  0  0  0  0  0  0
   30.4480   34.1070   14.0580 C   0  0  0  0  0  0  0  0  0  0  0  0
   31.7680   34.0540   14.5180 C   0  0  0  0  0  0  0  0  0  0  0  0
   32.9650   35.1600   13.9130 S   0  0  0  0  0  0  0  0  0  0  0  0
   33.5830   35.8460   15.1250 O   0  0  0  0  0  0  0  0  0  0  0  0
   32.2570   36.2230   13.1440 O   0  0  0  0  0  0  0  0  0  0  0  0
   34.1970   34.4360   12.9940 N   0  0  0  0  0  0  0  0  0  0  0  0
   33.9430   34.0810   12.0320 H   0  0  0  0  0  0  0  0  0  0  0  0
   35.5370   34.2470   13.3690 C   0  0  0  0  0  0  0  0  0  0  0  0
   36.3120   34.4240   14.2950 N   0  0  0  0  0  0  0  0  0  0  0  0
   36.7260   33.4390   12.1430 S   0  0  0  0  0  0  0  0  0  0  0  0
   37.5700   34.1290   14.3670 C   0  0  0  0  0  0  0  0  0  0  0  0
   38.1720   33.5410   13.3080 C   0  0  0  0  0  0  0  0  0  0  0  0
   29.8670   25.5550   16.9770 C   0  0  0  0  0  0  0  0  0  0  0  0
   28.3450   25.7220   17.0260 C   0  0  0  0  0  0  0  0  0  0  0  0
   27.6010   24.4000   16.9070 C   0  0  0  0  0  0  0  0  0  0  0  0
   26.5330   24.2560   17.9550 C   0  0  0  0  0  0  0  0  0  0  0  0
   25.1600   24.3630   17.3000 C   0  0  0  0  0  0  0  0  0  0  0  0
   24.1260   24.6870   18.3120 N   0  0  0  0  0  0  0  0  0  0  0  0
  1  4  1  0  0  0  0
  1  5  1  0  0  0  0
  2  1  1  0  0  0  0
  3  2  2  0  0  0  0
  6  5  1  6  0  0  0
  6 29  1  0  0  0  0
  7 27  1  1  0  0  0
  7  6  1  0  0  0  0
  8  7  1  6  0  0  0
  9 14  1  6  0  0  0
  9 10  1  0  0  0  0
  9 11  1  0  0  0  0
 10 12  1  0  0  0  0
 11  8  1  0  0  0  0
 12 20  1  6  0  0  0
 12 13  1  0  0  0  0
 13  8  1  0  0  0  0
 13 22  1  1  0  0  0
 15 14  1  0  0  0  0
 16 18  1  0  0  0  0
 16  9  1  0  0  0  0
 17 16  2  0  0  0  0
 19 18  1  0  0  0  0
 21 20  1  0  0  0  0
 22 24  1  0  0  0  0
 22 23  1  0  0  0  0
 23 25  1  0  0  0  0
 26 23  2  0  0  0  0
 28 27  1  0  0  0  0
 29 30  1  0  0  0  0
 31  2  1  0  0  0  0
 32 31  1  0  0  0  0
 33 32  1  0  0  0  0
 34 33  2  0  0  0  0
 35 33  1  0  0  0  0
 36 34  1  0  0  0  0
 37 36  1  0  0  0  0
 37 35  2  0  0  0  0
 38 36  1  0  0  0  0
 38 39  2  0  0  0  0
 40 38  1  0  0  0  0
 41 39  1  0  0  0  0
 42 40  2  0  0  0  0
 42 43  1  0  0  0  0
 43 41  2  0  0  0  0
 44 43  1  0  0  0  0
 44 45  2  0  0  0  0
 46 44  2  0  0  0  0
 47 49  1  0  0  0  0
 47 44  1  0  0  0  0
 48 47  1  0  0  0  0
 49 50  2  0  0  0  0
 50 52  1  0  0  0  0
 51 53  1  0  0  0  0
 51 49  1  0  0  0  0
 53 52  2  0  0  0  0
 54 55  1  0  0  0  0
 56 55  1  0  0  0  0
 56 57  1  0  0  0  0
 58 57  1  0  0  0  0
 58 59  1  0  0  0  0
M  END
>  <REMARK>
 VINA RESULT:    -5.331      2.483      4.598
 INTER + INTRA:         -16.568
 INTER:                 -10.449
 INTRA:                  -6.119
 UNBOUND:                -6.408
 SMILES CC(=O)N[C@@H]1[C@@H](O)C[C@](O)(C(=O)O)O[C@H]1C(O)[C@H](O)CNC(=O)OCc1cn(-c2ccc(S(=O)(=O)Nc3nccs3)cc2)nn1
 SMILES IDX 21 1 22 2 23 3 20 5 18 6 16 7 15 8 9 9 8 10 14 11 6 12 5 13
 SMILES IDX 10 14 11 16 12 17 13 18 7 20 4 22 2 23 1 25 3 26 17 27 19 29
 SMILES IDX 24 31 25 32 26 33 27 34 45 35 28 36 44 37 29 38 30 39 43 40
 SMILES IDX 31 41 42 42 32 43 33 44 34 45 35 46 36 47 37 49 38 50 41 51
 SMILES IDX 39 52 40 53
 H PARENT 21 4 10 15 13 19 7 21 4 24 17 28 19 30 36 48
 Flexibility Score: inf
  4 active torsions:
  status: ('A' for Active; 'I' for Inactive)
    1  A    between atoms: CA   and  CB  
    2  A    between atoms: CB   and  CG  
    3  A    between atoms: CG   and  CD  
    4  A    between atoms: CD   and  CE  

>  <TORSDO>
F 18

>  <BEGIN_>
RES LYS A 131

$$$$
ligand_92_pose_3_2HRL.pdbqt
 OpenBabel07062320523D

  6  5  0  0  0  0  0  0  0  0999 V2000
   33.1930   34.6630    9.2900 C   0  0  0  0  0  0  0  0  0  0  0  0
   32.0600   35.3600   10.0340 C   0  0  0  0  0  0  0  0  0  0  0  0
   30.7330   34.6570    9.9060 C   0  0  0  0  0  0  0  0  0  0  0  0
   30.3290   34.5340    8.4450 C   0  0  0  0  0  0  0  0  0  0  0  0
   28.8190   34.4900    8.3120 C   0  0  0  0  0  0  0  0  0  0  0  0
   28.1890   33.9190    9.5350 N   0  0  0  0  0  0  0  0  0  0  0  0
  1  2  1  0  0  0  0
  3  2  1  0  0  0  0
  4  3  1  0  0  0  0
  5  4  1  0  0  0  0
  5  6  1  0  0  0  0
M  END
>  <EGIN_R>
ES LYS A 135

>  <REMARK>
  4 active torsions:
  status: ('A' for Active; 'I' for Inactive)
    5  A    between atoms: CA   and  CB  
    6  A    between atoms: CB   and  CG  
    7  A    between atoms: CG   and  CD  
    8  A    between atoms: CD   and  CE  

$$$$
