ligand_64_pose_7_2HRL.pdbqt
 OpenBabel07062320523D

 59 61  0  0  1  0  0  0  0  0999 V2000
   25.0840   40.1250    6.0600 N   0  0  0  0  0  0  0  0  0  0  0  0
   24.1840   40.5950    7.0680 C   0  0  0  0  0  0  0  0  0  0  0  0
   23.7560   41.7750    6.9800 O   0  0  0  0  0  0  0  0  0  0  0  0
   25.4080   39.1230    6.1920 H   0  0  0  0  0  0  0  0  0  0  0  0
   25.5250   40.9290    4.9520 C   0  0  0  0  0  0  0  0  0  0  0  0
   26.9970   40.7710    4.7200 C   0  0  2  0  0  0  0  0  0  0  0  0
   27.4420   39.4720    5.3820 C   0  0  2  0  0  0  0  0  0  0  0  0
   28.7080   39.6900    6.1350 C   0  0  2  0  0  0  0  0  0  0  0  0
   30.8920   40.4200    5.8100 C   0  0  2  0  0  0  0  0  0  0  0  0
   30.8720   40.3720    7.3330 C   0  0  0  0  0  0  0  0  0  0  0  0
   29.6520   40.2540    5.2490 O   0  0  0  0  0  0  0  0  0  0  0  0
   30.3970   39.0220    7.7370 C   0  0  1  0  0  0  0  0  0  0  0  0
   29.3670   38.4860    6.7170 C   0  0  1  0  0  0  0  0  0  0  0  0
   31.7790   39.3830    5.4340 O   0  0  0  0  0  0  0  0  0  0  0  0
   31.5540   38.6230    6.0310 H   0  0  0  0  0  0  0  0  0  0  0  0
   31.4460   41.6980    5.3220 C   0  0  0  0  0  0  0  0  0  0  0  0
   30.6950   42.5550    4.8240 O   0  0  0  0  0  0  0  0  0  0  0  0
   32.7970   41.9550    5.4150 O   0  0  0  0  0  0  0  0  0  0  0  0
   33.1700   42.8390    5.7500 H   0  0  0  0  0  0  0  0  0  0  0  0
   31.4050   38.1060    7.9410 O   0  0  0  0  0  0  0  0  0  0  0  0
   32.2700   38.5570    8.0590 H   0  0  0  0  0  0  0  0  0  0  0  0
   28.5040   37.5560    7.3930 N   0  0  0  0  0  0  0  0  0  0  0  0
   28.3020   36.2190    6.8910 C   0  0  0  0  0  0  0  0  0  0  0  0
   28.0250   37.8320    8.2540 H   0  0  0  0  0  0  0  0  0  0  0  0
   27.4290   35.2360    7.5510 C   0  0  0  0  0  0  0  0  0  0  0  0
   28.9320   35.9400    5.8280 O   0  0  0  0  0  0  0  0  0  0  0  0
   27.4760   38.4020    4.5300 O   0  0  0  0  0  0  0  0  0  0  0  0
   26.7830   38.3750    3.8460 H   0  0  0  0  0  0  0  0  0  0  0  0
   27.6030   41.8540    5.3890 O   0  0  0  0  0  0  0  0  0  0  0  0
   26.8630   42.4090    5.7110 H   0  0  0  0  0  0  0  0  0  0  0  0
   23.7990   39.7650    8.1110 O   0  0  0  0  0  0  0  0  0  0  0  0
   24.1870   40.1260    9.4210 C   0  0  0  0  0  0  0  0  0  0  0  0
   25.4660   39.4270    9.7050 C   0  0  0  0  0  0  0  0  0  0  0  0
   26.6160   39.9760   10.2860 C   0  0  0  0  0  0  0  0  0  0  0  0
   25.8140   38.1380    9.4790 N   0  0  0  0  0  0  0  0  0  0  0  0
   27.5710   39.0350   10.3840 N   0  0  0  0  0  0  0  0  0  0  0  0
   27.0600   37.9340    9.8880 N   0  0  0  0  0  0  0  0  0  0  0  0
   28.8800   39.2760   10.9410 C   0  0  0  0  0  0  0  0  0  0  0  0
   29.4790   40.5070   10.8680 C   0  0  0  0  0  0  0  0  0  0  0  0
   29.5740   38.2500   11.5710 C   0  0  0  0  0  0  0  0  0  0  0  0
   30.7290   40.7710   11.3880 C   0  0  0  0  0  0  0  0  0  0  0  0
   30.8170   38.4980   12.0940 C   0  0  0  0  0  0  0  0  0  0  0  0
   31.3450   39.7390   11.9840 N   0  0  0  0  0  0  0  0  0  0  0  0
   31.3440   42.0850   11.3000 C   0  0  0  0  0  0  0  0  0  0  0  0
   31.1360   42.7830   10.2880 O   0  0  0  0  0  0  0  0  0  0  0  0
   32.1480   42.5750   12.3060 O   0  0  0  0  0  0  0  0  0  0  0  0
   33.1190   42.2710   12.4400 H   0  0  0  0  0  0  0  0  0  0  0  0
   31.5770   37.4290   12.7670 C   0  0  0  0  0  0  0  0  0  0  0  0
   32.3280   36.5770   11.9870 C   0  0  0  0  0  0  0  0  0  0  0  0
   31.5300   37.2960   14.1250 C   0  0  0  0  0  0  0  0  0  0  0  0
   33.0380   35.5780   12.6110 C   0  0  0  0  0  0  0  0  0  0  0  0
   32.2580   36.2790   14.7120 C   0  0  0  0  0  0  0  0  0  0  0  0
   33.0250   35.4020   13.9780 C   0  0  0  0  0  0  0  0  0  0  0  0
   29.8670   25.5550   16.9770 C   0  0  0  0  0  0  0  0  0  0  0  0
   28.3450   25.7220   17.0260 C   0  0  0  0  0  0  0  0  0  0  0  0
   27.6010   24.4020   16.8920 C   0  0  0  0  0  0  0  0  0  0  0  0
   26.1490   24.5310   17.2590 C   0  0  0  0  0  0  0  0  0  0  0  0
   25.9760   24.2640   18.7510 C   0  0  0  0  0  0  0  0  0  0  0  0
   25.8320   25.5390   19.4930 N   0  0  0  0  0  0  0  0  0  0  0  0
  1  4  1  0  0  0  0
  1  2  1  0  0  0  0
  2 31  1  0  0  0  0
  3  2  2  0  0  0  0
  5  1  1  0  0  0  0
  6  5  1  1  0  0  0
  6  7  1  0  0  0  0
  6 29  1  0  0  0  0
  7 27  1  6  0  0  0
  8  7  1  6  0  0  0
  8 13  1  0  0  0  0
  9 16  1  6  0  0  0
  9 10  1  0  0  0  0
 10 12  1  0  0  0  0
 11  9  1  0  0  0  0
 11  8  1  0  0  0  0
 12 20  1  6  0  0  0
 13 22  1  1  0  0  0
 13 12  1  0  0  0  0
 14  9  1  0  0  0  0
 14 15  1  0  0  0  0
 16 18  1  0  0  0  0
 17 16  2  0  0  0  0
 18 19  1  0  0  0  0
 20 21  1  0  0  0  0
 22 24  1  0  0  0  0
 23 22  1  0  0  0  0
 23 25  1  0  0  0  0
 26 23  2  0  0  0  0
 28 27  1  0  0  0  0
 29 30  1  0  0  0  0
 31 32  1  0  0  0  0
 32 33  1  0  0  0  0
 33 34  2  0  0  0  0
 34 36  1  0  0  0  0
 35 33  1  0  0  0  0
 35 37  2  0  0  0  0
 36 38  1  0  0  0  0
 37 36  1  0  0  0  0
 38 40  1  0  0  0  0
 39 38  2  0  0  0  0
 39 41  1  0  0  0  0
 40 42  2  0  0  0  0
 41 43  2  0  0  0  0
 42 48  1  0  0  0  0
 43 42  1  0  0  0  0
 44 41  1  0  0  0  0
 44 46  1  0  0  0  0
 45 44  2  0  0  0  0
 46 47  1  0  0  0  0
 48 50  2  0  0  0  0
 49 51  2  0  0  0  0
 49 48  1  0  0  0  0
 50 52  1  0  0  0  0
 51 53  1  0  0  0  0
 53 52  2  0  0  0  0
 54 55  1  0  0  0  0
 56 55  1  0  0  0  0
 56 57  1  0  0  0  0
 57 58  1  0  0  0  0
 58 59  1  0  0  0  0
M  END
>  <REMARK>
 VINA RESULT:    -6.067      5.159      8.826
 INTER + INTRA:         -16.603
 INTER:                  -9.965
 INTRA:                  -6.637
 UNBOUND:                -5.216
 SMILES CC(=O)N[C@@H]1[C@@H](O)C[C@](O)(C(=O)O)O[C@H]1C(O)[C@H](O)CNC(=O)OCc1cn(-c2cc(C(=O)O)nc(-c3ccccc3)c2)nn1
 SMILES IDX 21 1 22 2 23 3 20 5 18 6 16 7 15 8 9 9 8 10 14 11 6 12 5 13
 SMILES IDX 10 14 11 16 12 17 13 18 7 20 4 22 2 23 1 25 3 26 17 27 19 29
 SMILES IDX 24 31 25 32 26 33 27 34 45 35 28 36 44 37 29 38 30 39 43 40
 SMILES IDX 31 41 36 42 35 43 32 44 33 45 34 46 37 48 38 49 42 50 39 51
 SMILES IDX 41 52 40 53
 H PARENT 21 4 10 15 13 19 7 21 4 24 17 28 19 30 34 47
 Flexibility Score: inf
  4 active torsions:
  status: ('A' for Active; 'I' for Inactive)
    1  A    between atoms: CA   and  CB  
    2  A    between atoms: CB   and  CG  
    3  A    between atoms: CG   and  CD  
    4  A    between atoms: CD   and  CE  

>  <TORSDO>
F 18

>  <BEGIN_>
RES LYS A 131

$$$$
ligand_64_pose_7_2HRL.pdbqt
 OpenBabel07062320523D

  6  5  0  0  0  0  0  0  0  0999 V2000
   33.1930   34.6630    9.2900 C   0  0  0  0  0  0  0  0  0  0  0  0
   32.0600   35.3600   10.0340 C   0  0  0  0  0  0  0  0  0  0  0  0
   30.7190   35.2140    9.3620 C   0  0  0  0  0  0  0  0  0  0  0  0
   29.8760   34.1640   10.0690 C   0  0  0  0  0  0  0  0  0  0  0  0
   28.8920   34.8210   11.0180 C   0  0  0  0  0  0  0  0  0  0  0  0
   29.3160   34.6470   12.4350 N   0  0  0  0  0  0  0  0  0  0  0  0
  1  2  1  0  0  0  0
  3  2  1  0  0  0  0
  3  4  1  0  0  0  0
  4  5  1  0  0  0  0
  5  6  1  0  0  0  0
M  END
>  <EGIN_R>
ES LYS A 135

>  <REMARK>
  4 active torsions:
  status: ('A' for Active; 'I' for Inactive)
    5  A    between atoms: CA   and  CB  
    6  A    between atoms: CB   and  CG  
    7  A    between atoms: CG   and  CD  
    8  A    between atoms: CD   and  CE  

$$$$
