ligand_14_pose_15_2HRL.pdbqt
 OpenBabel07062320523D

 50 51  0  0  1  0  0  0  0  0999 V2000
   31.3770   35.4260   14.4970 N   0  0  0  0  0  0  0  0  0  0  0  0
   32.2920   35.8100   13.5000 C   0  0  0  0  0  0  0  0  0  0  0  0
   33.3060   35.1340   13.2820 O   0  0  0  0  0  0  0  0  0  0  0  0
   30.5390   36.0940   14.6060 H   0  0  0  0  0  0  0  0  0  0  0  0
   31.4580   34.2770   15.3410 C   0  0  0  0  0  0  0  0  0  0  0  0
   30.9310   33.0570   14.6430 C   0  0  2  0  0  0  0  0  0  0  0  0
   29.4130   32.9630   14.7580 C   0  0  1  0  0  0  0  0  0  0  0  0
   29.1000   32.8100   16.2570 C   0  0  2  0  0  0  0  0  0  0  0  0
   28.2240   30.7180   16.8560 C   0  0  2  0  0  0  0  0  0  0  0  0
   26.9120   31.2380   16.3020 C   0  0  0  0  0  0  0  0  0  0  0  0
   29.2940   31.5330   16.6540 O   0  0  0  0  0  0  0  0  0  0  0  0
   26.6420   32.6120   16.8090 C   0  0  1  0  0  0  0  0  0  0  0  0
   27.8380   33.4920   16.6370 C   0  0  1  0  0  0  0  0  0  0  0  0
   28.4820   29.5430   16.1100 O   0  0  0  0  0  0  0  0  0  0  0  0
   27.8460   29.5250   15.3310 H   0  0  0  0  0  0  0  0  0  0  0  0
   28.0840   30.2980   18.2700 C   0  0  0  0  0  0  0  0  0  0  0  0
   28.9700   30.6040   19.0970 O   0  0  0  0  0  0  0  0  0  0  0  0
   26.9860   29.5710   18.6910 O   0  0  0  0  0  0  0  0  0  0  0  0
   26.0900   29.7500   18.2600 H   0  0  0  0  0  0  0  0  0  0  0  0
   25.5440   33.1160   16.1210 O   0  0  0  0  0  0  0  0  0  0  0  0
   24.7760   32.4860   16.1890 H   0  0  0  0  0  0  0  0  0  0  0  0
   28.0320   34.3740   17.7870 N   0  0  0  0  0  0  0  0  0  0  0  0
   28.5500   35.6690   17.6690 C   0  0  0  0  0  0  0  0  0  0  0  0
   27.7660   33.9910   18.7140 H   0  0  0  0  0  0  0  0  0  0  0  0
   28.7130   36.4950   18.8930 C   0  0  0  0  0  0  0  0  0  0  0  0
   28.8750   36.1320   16.5280 O   0  0  0  0  0  0  0  0  0  0  0  0
   28.8820   34.1570   14.2790 O   0  0  0  0  0  0  0  0  0  0  0  0
   29.4350   34.9390   14.4460 H   0  0  0  0  0  0  0  0  0  0  0  0
   31.5360   31.8760   15.0060 O   0  0  0  0  0  0  0  0  0  0  0  0
   32.3750   31.9750   15.5150 H   0  0  0  0  0  0  0  0  0  0  0  0
   32.1130   36.9540   12.7170 O   0  0  0  0  0  0  0  0  0  0  0  0
   31.0900   37.8800   13.0210 C   0  0  0  0  0  0  0  0  0  0  0  0
   29.8190   37.5700   12.3210 C   0  0  0  0  0  0  0  0  0  0  0  0
   29.1030   38.4060   11.4630 C   0  0  0  0  0  0  0  0  0  0  0  0
   29.0910   36.4390   12.3600 N   0  0  0  0  0  0  0  0  0  0  0  0
   27.9980   37.7820   11.0190 N   0  0  0  0  0  0  0  0  0  0  0  0
   28.0330   36.5720   11.5990 N   0  0  0  0  0  0  0  0  0  0  0  0
   26.9710   38.2670   10.1220 C   0  0  0  0  0  0  0  0  0  0  0  0
   27.5010   38.6450    8.7790 C   0  0  0  0  0  0  0  0  0  0  0  0
   27.9880   37.5390    7.9930 N   0  0  0  0  0  0  0  0  0  0  0  0
   26.8810   37.0330    7.1990 C   0  0  0  0  0  0  0  0  0  0  0  0
   29.0010   37.9490    7.0410 C   0  0  0  0  0  0  0  0  0  0  0  0
   27.3890   36.7720    5.8180 C   0  0  0  0  0  0  0  0  0  0  0  0
   28.8910   36.8590    5.9930 C   0  0  0  0  0  0  0  0  0  0  0  0
   29.8670   25.5550   16.9770 C   0  0  0  0  0  0  0  0  0  0  0  0
   28.3450   25.7220   17.0260 C   0  0  0  0  0  0  0  0  0  0  0  0
   27.6030   24.3960   16.9690 C   0  0  0  0  0  0  0  0  0  0  0  0
   26.2440   24.4790   17.6070 C   0  0  0  0  0  0  0  0  0  0  0  0
   25.5350   23.1350   17.4720 C   0  0  0  0  0  0  0  0  0  0  0  0
   24.4530   23.0170   18.4780 N   0  0  0  0  0  0  0  0  0  0  0  0
  1  4  1  0  0  0  0
  1  5  1  0  0  0  0
  2  1  1  0  0  0  0
  3  2  2  0  0  0  0
  6  7  1  0  0  0  0
  6 29  1  0  0  0  0
  6  5  1  1  0  0  0
  7 27  1  1  0  0  0
  8  7  1  6  0  0  0
  8 13  1  0  0  0  0
  8 11  1  0  0  0  0
  9 14  1  6  0  0  0
  9 16  1  0  0  0  0
 10 12  1  0  0  0  0
 10  9  1  0  0  0  0
 11  9  1  0  0  0  0
 12 20  1  6  0  0  0
 13 12  1  0  0  0  0
 13 22  1  1  0  0  0
 15 14  1  0  0  0  0
 16 18  1  0  0  0  0
 16 17  2  0  0  0  0
 19 18  1  0  0  0  0
 20 21  1  0  0  0  0
 22 24  1  0  0  0  0
 23 22  1  0  0  0  0
 23 25  1  0  0  0  0
 26 23  2  0  0  0  0
 27 28  1  0  0  0  0
 29 30  1  0  0  0  0
 31 32  1  0  0  0  0
 31  2  1  0  0  0  0
 33 35  1  0  0  0  0
 33 32  1  0  0  0  0
 34 33  2  0  0  0  0
 36 34  1  0  0  0  0
 36 37  1  0  0  0  0
 37 35  2  0  0  0  0
 38 36  1  0  0  0  0
 39 38  1  0  0  0  0
 40 39  1  0  0  0  0
 41 40  1  0  0  0  0
 42 40  1  0  0  0  0
 43 44  1  0  0  0  0
 43 41  1  0  0  0  0
 44 42  1  0  0  0  0
 45 46  1  0  0  0  0
 47 46  1  0  0  0  0
 47 48  1  0  0  0  0
 49 48  1  0  0  0  0
 49 50  1  0  0  0  0
M  END
>  <REMARK>
 VINA RESULT:    -4.241      4.168      9.258
 INTER + INTRA:         -13.830
 INTER:                  -7.952
 INTRA:                  -5.878
 UNBOUND:                -5.994
 SMILES CC(=O)N[C@@H]1[C@@H](O)C[C@](O)(C(=O)O)O[C@H]1C(O)[C@H](O)CNC(=O)OCc1cn(CCN2CCCC2)nn1
 SMILES IDX 21 1 22 2 23 3 20 5 18 6 16 7 15 8 9 9 8 10 14 11 6 12 5 13
 SMILES IDX 10 14 11 16 12 17 13 18 7 20 4 22 2 23 1 25 3 26 17 27 19 29
 SMILES IDX 24 31 25 32 26 33 27 34 37 35 28 36 36 37 29 38 30 39 31 40
 SMILES IDX 32 41 35 42 33 43 34 44
 H PARENT 21 4 10 15 13 19 7 21 4 24 17 28 19 30
 Flexibility Score: inf
  4 active torsions:
  status: ('A' for Active; 'I' for Inactive)
    1  A    between atoms: CA   and  CB  
    2  A    between atoms: CB   and  CG  
    3  A    between atoms: CG   and  CD  
    4  A    between atoms: CD   and  CE  

>  <TORSDO>
F 17

>  <BEGIN_>
RES LYS A 131

$$$$
ligand_14_pose_15_2HRL.pdbqt
 OpenBabel07062320523D

  6  5  0  0  0  0  0  0  0  0999 V2000
   33.1930   34.6630    9.2900 C   0  0  0  0  0  0  0  0  0  0  0  0
   32.0600   35.3600   10.0340 C   0  0  0  0  0  0  0  0  0  0  0  0
   30.7900   35.4700    9.2310 C   0  0  0  0  0  0  0  0  0  0  0  0
   30.1630   34.0990    9.0290 C   0  0  0  0  0  0  0  0  0  0  0  0
   28.7000   34.2330    8.6500 C   0  0  0  0  0  0  0  0  0  0  0  0
   27.8190   33.6370    9.6920 N   0  0  0  0  0  0  0  0  0  0  0  0
  1  2  1  0  0  0  0
  3  2  1  0  0  0  0
  4  3  1  0  0  0  0
  5  4  1  0  0  0  0
  5  6  1  0  0  0  0
M  END
>  <EGIN_R>
ES LYS A 135

>  <REMARK>
  4 active torsions:
  status: ('A' for Active; 'I' for Inactive)
    5  A    between atoms: CA   and  CB  
    6  A    between atoms: CB   and  CG  
    7  A    between atoms: CG   and  CD  
    8  A    between atoms: CD   and  CE  

$$$$
