ligand_70_pose_15_2HRL.pdbqt
 OpenBabel07062320523D

 53 55  0  0  1  0  0  0  0  0999 V2000
   25.1550   39.2830   10.9390 C   0  0  0  0  0  0  0  0  0  0  0  0
   26.6220   38.9660   11.0210 C   0  0  2  0  0  0  0  0  0  0  0  0
   27.2310   38.5600    9.7060 C   0  0  1  0  0  0  0  0  0  0  0  0
   28.7040   38.2770    9.7640 C   0  0  2  0  0  0  0  0  0  0  0  0
   30.5590   39.1320   10.8630 C   0  0  2  0  0  0  0  0  0  0  0  0
   31.4390   38.2460   10.0160 C   0  0  0  0  0  0  0  0  0  0  0  0
   29.2710   38.6720   10.9670 O   0  0  0  0  0  0  0  0  0  0  0  0
   30.8460   38.0610    8.6590 C   0  0  1  0  0  0  0  0  0  0  0  0
   29.4540   38.7200    8.5560 C   0  0  1  0  0  0  0  0  0  0  0  0
   30.6610   40.4300   10.3700 O   0  0  0  0  0  0  0  0  0  0  0  0
   31.5820   40.7330   10.2680 H   0  0  0  0  0  0  0  0  0  0  0  0
   31.1440   39.1440   12.2370 C   0  0  0  0  0  0  0  0  0  0  0  0
   31.2790   38.0440   12.8290 O   0  0  0  0  0  0  0  0  0  0  0  0
   31.5360   40.3100   12.8700 O   0  0  0  0  0  0  0  0  0  0  0  0
   30.9810   40.6740   13.6510 H   0  0  0  0  0  0  0  0  0  0  0  0
   31.6860   38.6010    7.6680 O   0  0  0  0  0  0  0  0  0  0  0  0
   32.4900   38.0370    7.5700 H   0  0  0  0  0  0  0  0  0  0  0  0
   28.7820   38.1640    7.3780 N   0  0  0  0  0  0  0  0  0  0  0  0
   28.7750   38.8060    6.1120 C   0  0  0  0  0  0  0  0  0  0  0  0
   28.2800   37.2610    7.4520 H   0  0  0  0  0  0  0  0  0  0  0  0
   28.0840   38.2280    4.9290 C   0  0  0  0  0  0  0  0  0  0  0  0
   29.3670   39.9030    5.9530 O   0  0  0  0  0  0  0  0  0  0  0  0
   26.5150   37.4310    9.2580 O   0  0  0  0  0  0  0  0  0  0  0  0
   26.2680   36.9200   10.0680 H   0  0  0  0  0  0  0  0  0  0  0  0
   26.8680   37.9930   12.0110 O   0  0  0  0  0  0  0  0  0  0  0  0
   25.9800   37.8910   12.4790 H   0  0  0  0  0  0  0  0  0  0  0  0
   24.3970   38.2100   11.5380 N   0  0  0  0  0  0  0  0  0  0  0  0
   23.5760   37.3350   10.7980 C   0  0  0  0  0  0  0  0  0  0  0  0
   24.4260   38.0320   12.5800 H   0  0  0  0  0  0  0  0  0  0  0  0
   23.4550   37.4390    9.5600 O   0  0  0  0  0  0  0  0  0  0  0  0
   22.8490   36.2980   11.3990 O   0  0  0  0  0  0  0  0  0  0  0  0
   23.3470   34.9530   11.3470 C   0  0  0  0  0  0  0  0  0  0  0  0
   24.7820   34.9230   11.6950 C   0  0  0  0  0  0  0  0  0  0  0  0
   25.3560   34.5800   12.8790 C   0  0  0  0  0  0  0  0  0  0  0  0
   25.7690   35.2450   10.8520 N   0  0  0  0  0  0  0  0  0  0  0  0
   26.7020   34.7120   12.7020 N   0  0  0  0  0  0  0  0  0  0  0  0
   26.9290   35.1140   11.4730 N   0  0  0  0  0  0  0  0  0  0  0  0
   27.6990   34.4610   13.6740 C   0  0  0  0  0  0  0  0  0  0  0  0
   27.3160   34.0440   14.9360 C   0  0  0  0  0  0  0  0  0  0  0  0
   29.0230   34.6360   13.3430 C   0  0  0  0  0  0  0  0  0  0  0  0
   28.2630   33.8060   15.8590 N   0  0  0  0  0  0  0  0  0  0  0  0
   29.9880   34.3840   14.3140 C   0  0  0  0  0  0  0  0  0  0  0  0
   29.5820   33.9690   15.5650 C   0  0  0  0  0  0  0  0  0  0  0  0
   31.3060   34.5500   14.0140 C   0  0  0  0  0  0  0  0  0  0  0  0
   30.5380   33.7190   16.5290 C   0  0  0  0  0  0  0  0  0  0  0  0
   32.2780   34.2980   14.9830 C   0  0  0  0  0  0  0  0  0  0  0  0
   31.8860   33.8840   16.2340 C   0  0  0  0  0  0  0  0  0  0  0  0
   29.8670   25.5550   16.9770 C   0  0  0  0  0  0  0  0  0  0  0  0
   28.3450   25.7220   17.0260 C   0  0  0  0  0  0  0  0  0  0  0  0
   27.6010   24.4030   16.8870 C   0  0  0  0  0  0  0  0  0  0  0  0
   26.7690   24.0910   18.1000 C   0  0  0  0  0  0  0  0  0  0  0  0
   26.1510   25.3780   18.6370 C   0  0  0  0  0  0  0  0  0  0  0  0
   25.4920   25.1320   19.9410 N   0  0  0  0  0  0  0  0  0  0  0  0
  1 27  1  0  0  0  0
  2  1  1  6  0  0  0
  2 25  1  0  0  0  0
  3 23  1  1  0  0  0
  3  2  1  0  0  0  0
  4  3  1  6  0  0  0
  4  7  1  0  0  0  0
  5 10  1  6  0  0  0
  5  7  1  0  0  0  0
  5 12  1  0  0  0  0
  6  5  1  0  0  0  0
  8 16  1  6  0  0  0
  8  6  1  0  0  0  0
  9 18  1  6  0  0  0
  9  8  1  0  0  0  0
  9  4  1  0  0  0  0
 11 10  1  0  0  0  0
 12 13  2  0  0  0  0
 12 14  1  0  0  0  0
 14 15  1  0  0  0  0
 17 16  1  0  0  0  0
 18 20  1  0  0  0  0
 19 18  1  0  0  0  0
 21 19  1  0  0  0  0
 22 19  2  0  0  0  0
 23 24  1  0  0  0  0
 25 26  1  0  0  0  0
 27 29  1  0  0  0  0
 28 31  1  0  0  0  0
 28 27  1  0  0  0  0
 30 28  2  0  0  0  0
 32 31  1  0  0  0  0
 32 33  1  0  0  0  0
 33 34  2  0  0  0  0
 35 37  2  0  0  0  0
 35 33  1  0  0  0  0
 36 34  1  0  0  0  0
 36 38  1  0  0  0  0
 37 36  1  0  0  0  0
 38 39  1  0  0  0  0
 39 41  2  0  0  0  0
 40 38  2  0  0  0  0
 40 42  1  0  0  0  0
 42 43  1  0  0  0  0
 43 41  1  0  0  0  0
 43 45  2  0  0  0  0
 44 42  2  0  0  0  0
 44 46  1  0  0  0  0
 46 47  2  0  0  0  0
 47 45  1  0  0  0  0
 48 49  1  0  0  0  0
 50 49  1  0  0  0  0
 50 51  1  0  0  0  0
 51 52  1  0  0  0  0
 52 53  1  0  0  0  0
M  END
>  <REMARK>
 VINA RESULT:    -5.888      7.108     11.530
 INTER + INTRA:         -14.724
 INTER:                  -8.136
 INTRA:                  -6.588
 UNBOUND:                -4.533
 SMILES CC(=O)N[C@@H]1[C@@H](O)C[C@](O)(C(=O)O)O[C@H]1C(O)[C@H](O)CNC(=O)OCc1cn(-c2cnc3ccccc3c2)nn1
 SMILES IDX 20 1 18 2 16 3 15 4 9 5 8 6 14 7 6 8 5 9 10 10 11 12 12 13
 SMILES IDX 13 14 7 16 4 18 2 19 1 21 3 22 17 23 19 25 21 27 22 28 23 30
 SMILES IDX 24 31 25 32 26 33 27 34 40 35 28 36 39 37 29 38 30 39 38 40
 SMILES IDX 31 41 37 42 32 43 36 44 33 45 35 46 34 47
 H PARENT 10 11 13 15 7 17 4 20 17 24 19 26 21 29
 Flexibility Score: inf
  4 active torsions:
  status: ('A' for Active; 'I' for Inactive)
    1  A    between atoms: CA   and  CB  
    2  A    between atoms: CB   and  CG  
    3  A    between atoms: CG   and  CD  
    4  A    between atoms: CD   and  CE  

>  <TORSDO>
F 15

>  <BEGIN_>
RES LYS A 131

$$$$
ligand_70_pose_15_2HRL.pdbqt
 OpenBabel07062320523D

  6  5  0  0  0  0  0  0  0  0999 V2000
   33.1930   34.6630    9.2900 C   0  0  0  0  0  0  0  0  0  0  0  0
   32.0600   35.3600   10.0340 C   0  0  0  0  0  0  0  0  0  0  0  0
   30.7770   34.5700   10.0540 C   0  0  0  0  0  0  0  0  0  0  0  0
   30.5060   33.9510    8.6910 C   0  0  0  0  0  0  0  0  0  0  0  0
   29.5810   34.8360    7.8780 C   0  0  0  0  0  0  0  0  0  0  0  0
   28.1570   34.5990    8.2410 N   0  0  0  0  0  0  0  0  0  0  0  0
  1  2  1  0  0  0  0
  2  3  1  0  0  0  0
  4  3  1  0  0  0  0
  5  6  1  0  0  0  0
  5  4  1  0  0  0  0
M  END
>  <EGIN_R>
ES LYS A 135

>  <REMARK>
  4 active torsions:
  status: ('A' for Active; 'I' for Inactive)
    5  A    between atoms: CA   and  CB  
    6  A    between atoms: CB   and  CG  
    7  A    between atoms: CG   and  CD  
    8  A    between atoms: CD   and  CE  

$$$$
