ligand_31_pose_6_2HRL.pdbqt
 OpenBabel07062320523D

 57 58  0  0  1  0  0  0  0  0999 V2000
   27.3080   35.5130   14.4060 O   0  0  0  0  0  0  0  0  0  0  0  0
   28.0260   36.4300   13.6440 C   0  0  0  0  0  0  0  0  0  0  0  0
   28.5360   37.6410   14.1320 N   0  0  0  0  0  0  0  0  0  0  0  0
   28.3880   37.9010   15.1180 H   0  0  0  0  0  0  0  0  0  0  0  0
   28.2250   36.1430   12.4340 O   0  0  0  0  0  0  0  0  0  0  0  0
   29.2800   38.5350   13.2390 C   0  0  0  0  0  0  0  0  0  0  0  0
   30.7540   38.3420   13.4770 C   0  0  2  0  0  0  0  0  0  0  0  0
   31.0890   38.2070   14.9360 C   0  0  1  0  0  0  0  0  0  0  0  0
   31.7760   36.9110   15.2570 C   0  0  2  0  0  0  0  0  0  0  0  0
   31.9960   34.7710   14.3450 C   0  0  2  0  0  0  0  0  0  0  0  0
   32.3000   34.1880   15.6870 C   0  0  0  0  0  0  0  0  0  0  0  0
   31.3060   35.9400   14.3540 O   0  0  0  0  0  0  0  0  0  0  0  0
   32.3510   35.1460   16.8070 C   0  0  1  0  0  0  0  0  0  0  0  0
   31.4410   36.3450   16.6150 C   0  0  1  0  0  0  0  0  0  0  0  0
   31.1560   33.8220   13.7060 O   0  0  0  0  0  0  0  0  0  0  0  0
   30.6440   33.3020   14.3740 H   0  0  0  0  0  0  0  0  0  0  0  0
   33.1990   34.9070   13.4880 C   0  0  0  0  0  0  0  0  0  0  0  0
   34.3460   34.5710   13.9000 O   0  0  0  0  0  0  0  0  0  0  0  0
   33.1460   35.4080   12.1930 O   0  0  0  0  0  0  0  0  0  0  0  0
   34.0040   35.5750   11.6780 H   0  0  0  0  0  0  0  0  0  0  0  0
   32.0200   34.4910   18.0120 O   0  0  0  0  0  0  0  0  0  0  0  0
   31.5610   35.0880   18.6360 H   0  0  0  0  0  0  0  0  0  0  0  0
   31.5580   37.2470   17.7090 N   0  0  0  0  0  0  0  0  0  0  0  0
   30.4080   37.4990   18.5190 C   0  0  0  0  0  0  0  0  0  0  0  0
   32.4340   37.7430   17.9770 H   0  0  0  0  0  0  0  0  0  0  0  0
   30.4260   38.4180   19.6770 C   0  0  0  0  0  0  0  0  0  0  0  0
   29.3150   36.9200   18.2520 O   0  0  0  0  0  0  0  0  0  0  0  0
   31.7070   39.3220   15.4700 O   0  0  0  0  0  0  0  0  0  0  0  0
   31.7350   39.3300   16.4600 H   0  0  0  0  0  0  0  0  0  0  0  0
   31.3660   39.5580   13.0670 O   0  0  0  0  0  0  0  0  0  0  0  0
   30.8480   40.2640   13.5650 H   0  0  0  0  0  0  0  0  0  0  0  0
   27.5670   35.3370   15.7820 C   0  0  0  0  0  0  0  0  0  0  0  0
   28.3150   34.0720   15.9530 C   0  0  0  0  0  0  0  0  0  0  0  0
   28.8360   33.5710   17.1150 C   0  0  0  0  0  0  0  0  0  0  0  0
   28.6130   33.1910   14.9850 N   0  0  0  0  0  0  0  0  0  0  0  0
   29.4340   32.4020   16.8230 N   0  0  0  0  0  0  0  0  0  0  0  0
   29.2960   32.1740   15.5270 N   0  0  0  0  0  0  0  0  0  0  0  0
   30.1270   31.5090   17.7550 C   0  0  0  0  0  0  0  0  0  0  0  0
   29.0770   30.7160   18.4880 C   0  0  0  0  0  0  0  0  0  0  0  0
   28.2900   29.9720   17.5370 N   0  0  0  0  0  0  0  0  0  0  0  0
   26.8880   30.0960   17.3930 C   0  0  0  0  0  0  0  0  0  0  0  0
   28.7650   29.2800   16.8910 H   0  0  0  0  0  0  0  0  0  0  0  0
   26.2780   30.9150   18.1440 O   0  0  0  0  0  0  0  0  0  0  0  0
   26.2020   29.3150   16.4270 N   0  0  0  0  0  0  0  0  0  0  0  0
   26.6750   28.6380   15.8010 H   0  0  0  0  0  0  0  0  0  0  0  0
   24.7690   29.4690   16.3090 C   0  0  0  0  0  0  0  0  0  0  0  0
   24.4600   29.9430   14.9420 C   0  0  0  0  0  0  0  0  0  0  0  0
   23.6680   29.2430   14.0390 C   0  0  0  0  0  0  0  0  0  0  0  0
   24.8600   31.0410   14.3820 O   0  0  0  0  0  0  0  0  0  0  0  0
   23.6340   30.0200   12.9020 C   0  0  0  0  0  0  0  0  0  0  0  0
   24.3990   31.1360   13.1730 C   0  0  0  0  0  0  0  0  0  0  0  0
   29.8670   25.5550   16.9770 C   0  0  0  0  0  0  0  0  0  0  0  0
   28.3450   25.7220   17.0260 C   0  0  0  0  0  0  0  0  0  0  0  0
   27.5990   24.4810   16.5610 C   0  0  0  0  0  0  0  0  0  0  0  0
   27.2960   23.5430   17.6970 C   0  0  0  0  0  0  0  0  0  0  0  0
   25.7940   23.2880   17.7590 C   0  0  0  0  0  0  0  0  0  0  0  0
   25.0640   24.2830   16.9390 N   0  0  0  0  0  0  0  0  0  0  0  0
  1 32  1  0  0  0  0
  2  3  1  0  0  0  0
  2  1  1  0  0  0  0
  3  4  1  0  0  0  0
  5  2  2  0  0  0  0
  6  3  1  0  0  0  0
  7  6  1  1  0  0  0
  7  8  1  0  0  0  0
  8 28  1  6  0  0  0
  9  8  1  6  0  0  0
  9 14  1  0  0  0  0
 10 17  1  6  0  0  0
 10 12  1  0  0  0  0
 10 11  1  0  0  0  0
 11 13  1  0  0  0  0
 12  9  1  0  0  0  0
 13 21  1  1  0  0  0
 14 13  1  0  0  0  0
 14 23  1  1  0  0  0
 15 10  1  0  0  0  0
 15 16  1  0  0  0  0
 17 18  2  0  0  0  0
 19 17  1  0  0  0  0
 20 19  1  0  0  0  0
 21 22  1  0  0  0  0
 23 25  1  0  0  0  0
 23 24  1  0  0  0  0
 24 26  1  0  0  0  0
 27 24  2  0  0  0  0
 28 29  1  0  0  0  0
 30  7  1  0  0  0  0
 30 31  1  0  0  0  0
 32 33  1  0  0  0  0
 33 34  2  0  0  0  0
 35 37  2  0  0  0  0
 35 33  1  0  0  0  0
 36 34  1  0  0  0  0
 36 38  1  0  0  0  0
 37 36  1  0  0  0  0
 38 39  1  0  0  0  0
 40 39  1  0  0  0  0
 41 40  1  0  0  0  0
 41 43  2  0  0  0  0
 42 40  1  0  0  0  0
 44 41  1  0  0  0  0
 45 44  1  0  0  0  0
 46 44  1  0  0  0  0
 47 46  1  0  0  0  0
 48 47  2  0  0  0  0
 49 47  1  0  0  0  0
 50 51  2  0  0  0  0
 50 48  1  0  0  0  0
 51 49  1  0  0  0  0
 52 53  1  0  0  0  0
 54 53  1  0  0  0  0
 54 55  1  0  0  0  0
 55 56  1  0  0  0  0
 57 56  1  0  0  0  0
M  END
>  <REMARK>
 VINA RESULT:    -5.046      4.091      7.293
 INTER + INTRA:         -15.822
 INTER:                  -8.593
 INTRA:                  -7.229
 UNBOUND:                -5.909
 SMILES CC(=O)N[C@@H]1[C@@H](O)C[C@](O)(C(=O)O)O[C@H]1C(O)[C@H](O)CNC(=O)OCc1cn(CCNC(=O)NCc2ccco2)nn1
 SMILES IDX 24 1 22 2 21 3 23 5 20 6 18 7 16 8 15 9 9 10 8 11 14 12 6 13
 SMILES IDX 5 14 10 15 11 17 12 18 13 19 7 21 4 23 2 24 1 26 3 27 17 28
 SMILES IDX 19 30 25 32 26 33 27 34 42 35 28 36 41 37 29 38 30 39 31 40
 SMILES IDX 32 41 33 43 34 44 35 46 36 47 37 48 40 49 38 50 39 51
 H PARENT 21 4 10 16 13 20 7 22 4 25 17 29 19 31 31 42 34 45
 Flexibility Score: inf
  4 active torsions:
  status: ('A' for Active; 'I' for Inactive)
    1  A    between atoms: CA   and  CB  
    2  A    between atoms: CB   and  CG  
    3  A    between atoms: CG   and  CD  
    4  A    between atoms: CD   and  CE  

>  <TORSDO>
F 19

>  <BEGIN_>
RES LYS A 131

$$$$
ligand_31_pose_6_2HRL.pdbqt
 OpenBabel07062320523D

  6  5  0  0  0  0  0  0  0  0999 V2000
   33.1930   34.6630    9.2900 C   0  0  0  0  0  0  0  0  0  0  0  0
   32.0600   35.3600   10.0340 C   0  0  0  0  0  0  0  0  0  0  0  0
   30.9000   35.7360    9.1490 C   0  0  0  0  0  0  0  0  0  0  0  0
   30.1660   34.4930    8.6690 C   0  0  0  0  0  0  0  0  0  0  0  0
   29.0300   34.8710    7.7380 C   0  0  0  0  0  0  0  0  0  0  0  0
   27.7090   34.6650    8.3930 N   0  0  0  0  0  0  0  0  0  0  0  0
  1  2  1  0  0  0  0
  3  2  1  0  0  0  0
  4  3  1  0  0  0  0
  5  6  1  0  0  0  0
  5  4  1  0  0  0  0
M  END
>  <EGIN_R>
ES LYS A 135

>  <REMARK>
  4 active torsions:
  status: ('A' for Active; 'I' for Inactive)
    5  A    between atoms: CA   and  CB  
    6  A    between atoms: CB   and  CG  
    7  A    between atoms: CG   and  CD  
    8  A    between atoms: CD   and  CE  

$$$$
