ligand_32_pose_14_2HRL.pdbqt
 OpenBabel07062320523D

 49 49  0  0  1  0  0  0  0  0999 V2000
   28.0310   31.8680   16.1580 N   0  0  0  0  0  0  0  0  0  0  0  0
   27.9550   30.4550   16.2490 C   0  0  0  0  0  0  0  0  0  0  0  0
   28.6510   29.7100   15.4960 O   0  0  0  0  0  0  0  0  0  0  0  0
   27.4460   32.4450   16.7940 H   0  0  0  0  0  0  0  0  0  0  0  0
   28.8940   32.5240   15.2060 C   0  0  0  0  0  0  0  0  0  0  0  0
   30.2840   32.7790   15.7220 C   0  0  2  0  0  0  0  0  0  0  0  0
   30.8680   34.0530   15.1120 C   0  0  1  0  0  0  0  0  0  0  0  0
   31.9680   34.5960   16.0070 C   0  0  2  0  0  0  0  0  0  0  0  0
   32.1350   35.1670   18.2660 C   0  0  2  0  0  0  0  0  0  0  0  0
   33.3470   36.0020   17.9620 C   0  0  0  0  0  0  0  0  0  0  0  0
   31.8490   34.2220   17.3060 O   0  0  0  0  0  0  0  0  0  0  0  0
   33.5120   36.3770   16.5330 C   0  0  1  0  0  0  0  0  0  0  0  0
   32.1830   36.0760   15.8230 C   0  0  1  0  0  0  0  0  0  0  0  0
   31.0660   36.0190   18.5180 O   0  0  0  0  0  0  0  0  0  0  0  0
   30.4650   35.9410   17.7260 H   0  0  0  0  0  0  0  0  0  0  0  0
   32.4310   34.4320   19.5170 C   0  0  0  0  0  0  0  0  0  0  0  0
   33.3840   34.7120   20.2760 O   0  0  0  0  0  0  0  0  0  0  0  0
   31.6200   33.3730   19.8850 O   0  0  0  0  0  0  0  0  0  0  0  0
   30.7720   33.1210   19.3920 H   0  0  0  0  0  0  0  0  0  0  0  0
   33.8690   37.7110   16.3520 O   0  0  0  0  0  0  0  0  0  0  0  0
   33.0930   38.2750   16.0830 H   0  0  0  0  0  0  0  0  0  0  0  0
   32.2670   36.4370   14.4220 N   0  0  0  0  0  0  0  0  0  0  0  0
   31.4200   37.4470   13.8850 C   0  0  0  0  0  0  0  0  0  0  0  0
   32.9400   35.9760   13.7640 H   0  0  0  0  0  0  0  0  0  0  0  0
   31.4720   37.8540   12.4400 C   0  0  0  0  0  0  0  0  0  0  0  0
   30.5820   38.0410   14.6360 O   0  0  0  0  0  0  0  0  0  0  0  0
   31.4110   33.7260   13.8720 O   0  0  0  0  0  0  0  0  0  0  0  0
   30.8220   33.1180   13.3480 H   0  0  0  0  0  0  0  0  0  0  0  0
   31.0620   31.6730   15.3730 O   0  0  0  0  0  0  0  0  0  0  0  0
   31.1230   31.0690   16.1550 H   0  0  0  0  0  0  0  0  0  0  0  0
   27.1120   29.8870   17.1760 O   0  0  0  0  0  0  0  0  0  0  0  0
   26.9890   30.3510   18.5090 C   0  0  0  0  0  0  0  0  0  0  0  0
   28.3210   30.2960   19.2000 C   0  0  0  0  0  0  0  0  0  0  0  0
   28.8090   29.2750   19.9720 C   0  0  0  0  0  0  0  0  0  0  0  0
   29.2520   31.2700   19.1690 N   0  0  0  0  0  0  0  0  0  0  0  0
   30.0390   29.6520   20.3990 N   0  0  0  0  0  0  0  0  0  0  0  0
   30.2770   30.8570   19.8980 N   0  0  0  0  0  0  0  0  0  0  0  0
   30.8900   28.8390   21.2410 C   0  0  0  0  0  0  0  0  0  0  0  0
   32.3080   28.9180   20.6830 C   0  0  0  0  0  0  0  0  0  0  0  0
   33.0970   29.7540   21.6380 C   0  0  0  0  0  0  0  0  0  0  0  0
   33.9210   29.2800   22.4310 O   0  0  0  0  0  0  0  0  0  0  0  0
   32.8610   31.1280   21.6020 O   0  0  0  0  0  0  0  0  0  0  0  0
   33.4050   31.7480   22.2000 H   0  0  0  0  0  0  0  0  0  0  0  0
   29.8670   25.5550   16.9770 C   0  0  0  0  0  0  0  0  0  0  0  0
   28.3450   25.7220   17.0260 C   0  0  0  0  0  0  0  0  0  0  0  0
   27.6010   24.4030   16.8880 C   0  0  0  0  0  0  0  0  0  0  0  0
   26.1640   24.5150   17.3140 C   0  0  0  0  0  0  0  0  0  0  0  0
   25.9070   23.5800   18.4910 C   0  0  0  0  0  0  0  0  0  0  0  0
   25.5130   24.3540   19.6920 N   0  0  0  0  0  0  0  0  0  0  0  0
  1  2  1  0  0  0  0
  1  4  1  0  0  0  0
  2 31  1  0  0  0  0
  3  2  2  0  0  0  0
  5  1  1  0  0  0  0
  6  5  1  6  0  0  0
  7 27  1  6  0  0  0
  7  6  1  0  0  0  0
  8  7  1  6  0  0  0
  8 11  1  0  0  0  0
  9 14  1  1  0  0  0
  9 16  1  0  0  0  0
 10  9  1  0  0  0  0
 11  9  1  0  0  0  0
 12 20  1  1  0  0  0
 12 10  1  0  0  0  0
 13 22  1  6  0  0  0
 13  8  1  0  0  0  0
 13 12  1  0  0  0  0
 15 14  1  0  0  0  0
 16 18  1  0  0  0  0
 16 17  2  0  0  0  0
 19 18  1  0  0  0  0
 21 20  1  0  0  0  0
 23 22  1  0  0  0  0
 23 26  2  0  0  0  0
 24 22  1  0  0  0  0
 25 23  1  0  0  0  0
 28 27  1  0  0  0  0
 29  6  1  0  0  0  0
 29 30  1  0  0  0  0
 31 32  1  0  0  0  0
 32 33  1  0  0  0  0
 33 34  2  0  0  0  0
 34 36  1  0  0  0  0
 35 33  1  0  0  0  0
 35 37  2  0  0  0  0
 36 38  1  0  0  0  0
 37 36  1  0  0  0  0
 39 38  1  0  0  0  0
 39 40  1  0  0  0  0
 40 41  2  0  0  0  0
 42 40  1  0  0  0  0
 42 43  1  0  0  0  0
 44 45  1  0  0  0  0
 46 45  1  0  0  0  0
 46 47  1  0  0  0  0
 47 48  1  0  0  0  0
 48 49  1  0  0  0  0
M  END
>  <REMARK>
 VINA RESULT:    -4.234      2.563      7.001
 INTER + INTRA:         -13.590
 INTER:                  -7.556
 INTRA:                  -6.035
 UNBOUND:                -5.644
 SMILES CC(=O)N[C@@H]1[C@@H](O)C[C@](O)(C(=O)O)O[C@H]1C(O)[C@H](O)CNC(=O)OCc1cn(CCC(=O)O)nn1
 SMILES IDX 21 1 22 2 23 3 20 5 18 6 16 7 15 8 9 9 8 10 14 11 6 12 5 13
 SMILES IDX 10 14 11 16 12 17 13 18 7 20 4 22 2 23 1 25 3 26 17 27 19 29
 SMILES IDX 24 31 25 32 26 33 27 34 35 35 28 36 34 37 29 38 30 39 31 40
 SMILES IDX 32 41 33 42
 H PARENT 21 4 10 15 13 19 7 21 4 24 17 28 19 30 33 43
 Flexibility Score: inf
  4 active torsions:
  status: ('A' for Active; 'I' for Inactive)
    1  A    between atoms: CA   and  CB  
    2  A    between atoms: CB   and  CG  
    3  A    between atoms: CG   and  CD  
    4  A    between atoms: CD   and  CE  

>  <TORSDO>
F 18

>  <BEGIN_>
RES LYS A 131

$$$$
ligand_32_pose_14_2HRL.pdbqt
 OpenBabel07062320523D

  6  5  0  0  0  0  0  0  0  0999 V2000
   33.1930   34.6630    9.2900 C   0  0  0  0  0  0  0  0  0  0  0  0
   32.0600   35.3600   10.0340 C   0  0  0  0  0  0  0  0  0  0  0  0
   30.7970   35.4900    9.2230 C   0  0  0  0  0  0  0  0  0  0  0  0
   30.2140   34.1200    8.9130 C   0  0  0  0  0  0  0  0  0  0  0  0
   28.7710   34.0390    9.3730 C   0  0  0  0  0  0  0  0  0  0  0  0
   27.8500   34.6090    8.3510 N   0  0  0  0  0  0  0  0  0  0  0  0
  1  2  1  0  0  0  0
  3  2  1  0  0  0  0
  4  3  1  0  0  0  0
  4  5  1  0  0  0  0
  6  5  1  0  0  0  0
M  END
>  <EGIN_R>
ES LYS A 135

>  <REMARK>
  4 active torsions:
  status: ('A' for Active; 'I' for Inactive)
    5  A    between atoms: CA   and  CB  
    6  A    between atoms: CB   and  CG  
    7  A    between atoms: CG   and  CD  
    8  A    between atoms: CD   and  CE  

$$$$
