ligand_79_pose_15_2HRL.pdbqt
 OpenBabel07062320523D

 58 60  0  0  1  0  0  0  0  0999 V2000
   32.3850   34.5960   19.2810 N   0  0  0  0  0  0  0  0  0  0  0  0
   32.3380   36.0100   19.2880 C   0  0  0  0  0  0  0  0  0  0  0  0
   31.4010   36.6160   19.8120 O   0  0  0  0  0  0  0  0  0  0  0  0
   33.2510   34.1720   18.8040 H   0  0  0  0  0  0  0  0  0  0  0  0
   31.3980   33.7140   19.8420 C   0  0  0  0  0  0  0  0  0  0  0  0
   30.2190   33.4310   18.9870 C   0  0  2  0  0  0  0  0  0  0  0  0
   30.5620   33.2500   17.5170 C   0  0  1  0  0  0  0  0  0  0  0  0
   29.8210   32.0850   16.9120 C   0  0  2  0  0  0  0  0  0  0  0  0
   27.5780   32.4450   16.4560 C   0  0  2  0  0  0  0  0  0  0  0  0
   27.1410   31.0720   16.9160 C   0  0  0  0  0  0  0  0  0  0  0  0
   28.8850   32.4430   15.9850 O   0  0  0  0  0  0  0  0  0  0  0  0
   28.3280   30.2000   17.2710 C   0  0  1  0  0  0  0  0  0  0  0  0
   29.3210   31.1280   17.9730 C   0  0  1  0  0  0  0  0  0  0  0  0
   27.4050   33.4190   17.4380 O   0  0  0  0  0  0  0  0  0  0  0  0
   27.1240   33.0040   18.3040 H   0  0  0  0  0  0  0  0  0  0  0  0
   26.7020   32.8210   15.3140 C   0  0  0  0  0  0  0  0  0  0  0  0
   25.6420   32.1550   15.0960 O   0  0  0  0  0  0  0  0  0  0  0  0
   26.9740   33.8670   14.4630 O   0  0  0  0  0  0  0  0  0  0  0  0
   27.8650   33.9900   14.0000 H   0  0  0  0  0  0  0  0  0  0  0  0
   27.9810   29.1350   18.0680 O   0  0  0  0  0  0  0  0  0  0  0  0
   27.0080   28.9280   17.9000 H   0  0  0  0  0  0  0  0  0  0  0  0
   30.4270   30.3950   18.5270 N   0  0  0  0  0  0  0  0  0  0  0  0
   30.4620   29.9990   19.9110 C   0  0  0  0  0  0  0  0  0  0  0  0
   31.2670   30.1060   17.9690 H   0  0  0  0  0  0  0  0  0  0  0  0
   31.5670   29.2540   20.5150 C   0  0  0  0  0  0  0  0  0  0  0  0
   29.4550   30.3370   20.6130 O   0  0  0  0  0  0  0  0  0  0  0  0
   30.1610   34.4350   16.8920 O   0  0  0  0  0  0  0  0  0  0  0  0
   30.1800   35.2060   17.4910 H   0  0  0  0  0  0  0  0  0  0  0  0
   29.3030   34.4640   19.0520 O   0  0  0  0  0  0  0  0  0  0  0  0
   29.7450   35.2310   19.4990 H   0  0  0  0  0  0  0  0  0  0  0  0
   33.3450   36.7850   18.7060 O   0  0  0  0  0  0  0  0  0  0  0  0
   33.0770   37.5980   17.6020 C   0  0  0  0  0  0  0  0  0  0  0  0
   32.7160   36.7710   16.4220 C   0  0  0  0  0  0  0  0  0  0  0  0
   32.0000   37.1960   15.3140 C   0  0  0  0  0  0  0  0  0  0  0  0
   32.9940   35.4750   16.1710 N   0  0  0  0  0  0  0  0  0  0  0  0
   31.8680   36.1720   14.4490 N   0  0  0  0  0  0  0  0  0  0  0  0
   32.4830   35.1390   15.0000 N   0  0  0  0  0  0  0  0  0  0  0  0
   31.1710   36.2170   13.1490 C   0  0  0  0  0  0  0  0  0  0  0  0
   31.6670   37.3850   12.3690 C   0  0  0  0  0  0  0  0  0  0  0  0
   31.5850   34.8950   12.4740 C   0  0  0  0  0  0  0  0  0  0  0  0
   29.7370   36.1690   13.4220 C   0  0  0  0  0  0  0  0  0  0  0  0
   29.2900   35.6660   14.5120 O   0  0  0  0  0  0  0  0  0  0  0  0
   28.6950   36.6590   12.5260 C   0  0  0  0  0  0  0  0  0  0  0  0
   28.2050   37.9640   12.5130 C   0  0  0  0  0  0  0  0  0  0  0  0
   28.0320   35.9070   11.5920 C   0  0  0  0  0  0  0  0  0  0  0  0
   27.2560   37.9950   11.5800 N   0  0  0  0  0  0  0  0  0  0  0  0
   27.1170   36.7840   11.0000 C   0  0  0  0  0  0  0  0  0  0  0  0
   28.1010   34.5840   11.1650 C   0  0  0  0  0  0  0  0  0  0  0  0
   26.6950   38.8210   11.3230 H   0  0  0  0  0  0  0  0  0  0  0  0
   26.3000   36.2950   10.0000 C   0  0  0  0  0  0  0  0  0  0  0  0
   27.2780   34.1350   10.1740 C   0  0  0  0  0  0  0  0  0  0  0  0
   26.3820   34.9850    9.5940 C   0  0  0  0  0  0  0  0  0  0  0  0
   29.8670   25.5550   16.9770 C   0  0  0  0  0  0  0  0  0  0  0  0
   28.3450   25.7220   17.0260 C   0  0  0  0  0  0  0  0  0  0  0  0
   27.5990   24.4510   16.6500 C   0  0  0  0  0  0  0  0  0  0  0  0
   26.7640   23.9270   17.7850 C   0  0  0  0  0  0  0  0  0  0  0  0
   25.3110   23.8100   17.3360 C   0  0  0  0  0  0  0  0  0  0  0  0
   24.6660   25.1440   17.3080 N   0  0  0  0  0  0  0  0  0  0  0  0
  1  2  1  0  0  0  0
  1  5  1  0  0  0  0
  2  3  2  0  0  0  0
  4  1  1  0  0  0  0
  6 29  1  0  0  0  0
  6  5  1  1  0  0  0
  7 27  1  6  0  0  0
  7  6  1  0  0  0  0
  8  7  1  1  0  0  0
  8 13  1  0  0  0  0
  9 16  1  6  0  0  0
  9 10  1  0  0  0  0
  9 14  1  0  0  0  0
 10 12  1  0  0  0  0
 11  9  1  0  0  0  0
 11  8  1  0  0  0  0
 12 13  1  0  0  0  0
 12 20  1  1  0  0  0
 13 22  1  6  0  0  0
 14 15  1  0  0  0  0
 17 16  2  0  0  0  0
 18 16  1  0  0  0  0
 19 18  1  0  0  0  0
 21 20  1  0  0  0  0
 22 23  1  0  0  0  0
 23 25  1  0  0  0  0
 23 26  2  0  0  0  0
 24 22  1  0  0  0  0
 27 28  1  0  0  0  0
 29 30  1  0  0  0  0
 31  2  1  0  0  0  0
 32 31  1  0  0  0  0
 33 32  1  0  0  0  0
 34 33  2  0  0  0  0
 35 33  1  0  0  0  0
 36 37  1  0  0  0  0
 36 34  1  0  0  0  0
 37 35  2  0  0  0  0
 38 41  1  0  0  0  0
 38 36  1  0  0  0  0
 39 38  1  0  0  0  0
 40 38  1  0  0  0  0
 41 42  2  0  0  0  0
 43 41  1  0  0  0  0
 44 43  2  0  0  0  0
 45 43  1  0  0  0  0
 46 44  1  0  0  0  0
 47 46  1  0  0  0  0
 47 45  2  0  0  0  0
 48 45  1  0  0  0  0
 49 46  1  0  0  0  0
 50 47  1  0  0  0  0
 51 48  2  0  0  0  0
 52 50  2  0  0  0  0
 52 51  1  0  0  0  0
 53 54  1  0  0  0  0
 55 54  1  0  0  0  0
 55 56  1  0  0  0  0
 57 56  1  0  0  0  0
 58 57  1  0  0  0  0
M  END
>  <REMARK>
 VINA RESULT:    -5.912      3.618      8.965
 INTER + INTRA:         -15.700
 INTER:                  -8.589
 INTRA:                  -7.111
 UNBOUND:                -4.777
 SMILES CC(=O)N[C@@H]1[C@@H](O)C[C@](O)(C(=O)O)O[C@H]1C(O)[C@H](O)CNC(=O)OCc1cn(C(C)(C)C(=O)c2c[nH]c3ccccc23)nn1
 SMILES IDX 21 1 22 2 23 3 20 5 18 6 16 7 15 8 9 9 8 10 14 11 6 12 5 13
 SMILES IDX 10 14 11 16 12 17 13 18 7 20 4 22 2 23 1 25 3 26 17 27 19 29
 SMILES IDX 24 31 25 32 26 33 27 34 44 35 28 36 43 37 29 38 30 39 31 40
 SMILES IDX 32 41 33 42 34 43 35 44 42 45 36 46 37 47 41 48 38 50 40 51
 SMILES IDX 39 52
 H PARENT 21 4 10 15 13 19 7 21 4 24 17 28 19 30 36 49
 Flexibility Score: inf
  4 active torsions:
  status: ('A' for Active; 'I' for Inactive)
    1  A    between atoms: CA   and  CB  
    2  A    between atoms: CB   and  CG  
    3  A    between atoms: CG   and  CD  
    4  A    between atoms: CD   and  CE  

>  <TORSDO>
F 17

>  <BEGIN_>
RES LYS A 131

$$$$
ligand_79_pose_15_2HRL.pdbqt
 OpenBabel07062320523D

  6  5  0  0  0  0  0  0  0  0999 V2000
   33.1930   34.6630    9.2900 C   0  0  0  0  0  0  0  0  0  0  0  0
   32.0600   35.3600   10.0340 C   0  0  0  0  0  0  0  0  0  0  0  0
   30.9040   35.7450    9.1470 C   0  0  0  0  0  0  0  0  0  0  0  0
   30.4840   34.5740    8.2730 C   0  0  0  0  0  0  0  0  0  0  0  0
   29.3540   34.9780    7.3470 C   0  0  0  0  0  0  0  0  0  0  0  0
   29.0250   36.4230    7.5010 N   0  0  0  0  0  0  0  0  0  0  0  0
  1  2  1  0  0  0  0
  3  2  1  0  0  0  0
  4  3  1  0  0  0  0
  5  6  1  0  0  0  0
  5  4  1  0  0  0  0
M  END
>  <EGIN_R>
ES LYS A 135

>  <REMARK>
  4 active torsions:
  status: ('A' for Active; 'I' for Inactive)
    5  A    between atoms: CA   and  CB  
    6  A    between atoms: CB   and  CG  
    7  A    between atoms: CG   and  CD  
    8  A    between atoms: CD   and  CE  

$$$$
