ligand_70_pose_19_2HRL.pdbqt
 OpenBabel07062320523D

 53 55  0  0  1  0  0  0  0  0999 V2000
   29.7580   34.9380   20.1820 C   0  0  0  0  0  0  0  0  0  0  0  0
   30.8500   33.9060   20.1380 C   0  0  2  0  0  0  0  0  0  0  0  0
   30.3880   32.5510   19.6740 C   0  0  1  0  0  0  0  0  0  0  0  0
   30.7450   32.2260   18.2530 C   0  0  2  0  0  0  0  0  0  0  0  0
   31.0690   33.3870   16.2710 C   0  0  2  0  0  0  0  0  0  0  0  0
   31.1600   32.0700   15.5420 C   0  0  0  0  0  0  0  0  0  0  0  0
   31.3640   33.2860   17.6070 O   0  0  0  0  0  0  0  0  0  0  0  0
   30.2830   31.0500   16.1880 C   0  0  1  0  0  0  0  0  0  0  0  0
   29.6370   31.5980   17.4800 C   0  0  1  0  0  0  0  0  0  0  0  0
   29.8170   33.9350   16.0050 O   0  0  0  0  0  0  0  0  0  0  0  0
   29.8610   34.7830   15.5260 H   0  0  0  0  0  0  0  0  0  0  0  0
   32.0800   34.2990   15.6560 C   0  0  0  0  0  0  0  0  0  0  0  0
   32.7920   34.9920   16.4250 O   0  0  0  0  0  0  0  0  0  0  0  0
   32.2530   34.4040   14.2880 O   0  0  0  0  0  0  0  0  0  0  0  0
   33.0530   34.9260   13.9160 H   0  0  0  0  0  0  0  0  0  0  0  0
   29.2690   30.6320   15.3070 O   0  0  0  0  0  0  0  0  0  0  0  0
   28.7090   31.4040   15.0540 H   0  0  0  0  0  0  0  0  0  0  0  0
   29.1400   30.4540   18.2500 N   0  0  0  0  0  0  0  0  0  0  0  0
   27.8070   29.9770   18.1600 C   0  0  0  0  0  0  0  0  0  0  0  0
   29.7770   29.9570   18.9000 H   0  0  0  0  0  0  0  0  0  0  0  0
   27.3200   28.8170   18.9540 C   0  0  0  0  0  0  0  0  0  0  0  0
   26.9840   30.5330   17.3900 O   0  0  0  0  0  0  0  0  0  0  0  0
   30.9400   31.6070   20.5630 O   0  0  0  0  0  0  0  0  0  0  0  0
   30.3700   31.6190   21.3710 H   0  0  0  0  0  0  0  0  0  0  0  0
   31.5020   33.8160   21.3840 O   0  0  0  0  0  0  0  0  0  0  0  0
   31.7570   34.7700   21.5960 H   0  0  0  0  0  0  0  0  0  0  0  0
   29.4130   35.3310   18.8360 N   0  0  0  0  0  0  0  0  0  0  0  0
   29.8860   36.5130   18.2300 C   0  0  0  0  0  0  0  0  0  0  0  0
   28.7770   34.7360   18.2360 H   0  0  0  0  0  0  0  0  0  0  0  0
   30.6430   37.3020   18.8320 O   0  0  0  0  0  0  0  0  0  0  0  0
   29.5400   36.8760   16.9210 O   0  0  0  0  0  0  0  0  0  0  0  0
   30.4690   37.6160   16.1150 C   0  0  0  0  0  0  0  0  0  0  0  0
   30.2190   37.3630   14.6810 C   0  0  0  0  0  0  0  0  0  0  0  0
   30.5260   38.1550   13.6190 C   0  0  0  0  0  0  0  0  0  0  0  0
   29.6260   36.2640   14.2010 N   0  0  0  0  0  0  0  0  0  0  0  0
   30.0950   37.4870   12.5100 N   0  0  0  0  0  0  0  0  0  0  0  0
   29.5560   36.3510   12.8840 N   0  0  0  0  0  0  0  0  0  0  0  0
   30.2050   37.9360   11.1730 C   0  0  0  0  0  0  0  0  0  0  0  0
   29.1180   37.8040   10.3280 C   0  0  0  0  0  0  0  0  0  0  0  0
   31.3880   38.4920   10.7430 C   0  0  0  0  0  0  0  0  0  0  0  0
   29.2230   38.2290    9.0580 N   0  0  0  0  0  0  0  0  0  0  0  0
   31.4770   38.9270    9.4240 C   0  0  0  0  0  0  0  0  0  0  0  0
   30.3790   38.7850    8.6010 C   0  0  0  0  0  0  0  0  0  0  0  0
   32.6350   39.4810    8.9710 C   0  0  0  0  0  0  0  0  0  0  0  0
   30.4640   39.2150    7.2920 C   0  0  0  0  0  0  0  0  0  0  0  0
   32.7290   39.9190    7.6510 C   0  0  0  0  0  0  0  0  0  0  0  0
   31.6420   39.7830    6.8200 C   0  0  0  0  0  0  0  0  0  0  0  0
   29.8670   25.5550   16.9770 C   0  0  0  0  0  0  0  0  0  0  0  0
   28.3450   25.7220   17.0260 C   0  0  0  0  0  0  0  0  0  0  0  0
   27.6010   24.4030   16.8870 C   0  0  0  0  0  0  0  0  0  0  0  0
   26.5990   24.1980   17.9890 C   0  0  0  0  0  0  0  0  0  0  0  0
   25.2220   23.9460   17.3850 C   0  0  0  0  0  0  0  0  0  0  0  0
   24.8400   22.5220   17.5390 N   0  0  0  0  0  0  0  0  0  0  0  0
  2  1  1  1  0  0  0
  2 25  1  0  0  0  0
  3  2  1  0  0  0  0
  3 23  1  1  0  0  0
  4  3  1  1  0  0  0
  5 12  1  6  0  0  0
  5  7  1  0  0  0  0
  6  8  1  0  0  0  0
  6  5  1  0  0  0  0
  7  4  1  0  0  0  0
  8 16  1  6  0  0  0
  8  9  1  0  0  0  0
  9 18  1  1  0  0  0
  9  4  1  0  0  0  0
 10  5  1  0  0  0  0
 11 10  1  0  0  0  0
 12 13  2  0  0  0  0
 14 12  1  0  0  0  0
 15 14  1  0  0  0  0
 17 16  1  0  0  0  0
 18 20  1  0  0  0  0
 19 18  1  0  0  0  0
 19 21  1  0  0  0  0
 22 19  2  0  0  0  0
 23 24  1  0  0  0  0
 25 26  1  0  0  0  0
 27  1  1  0  0  0  0
 28 30  2  0  0  0  0
 28 27  1  0  0  0  0
 29 27  1  0  0  0  0
 31 28  1  0  0  0  0
 32 31  1  0  0  0  0
 33 32  1  0  0  0  0
 34 33  2  0  0  0  0
 35 33  1  0  0  0  0
 36 37  1  0  0  0  0
 36 34  1  0  0  0  0
 37 35  2  0  0  0  0
 38 36  1  0  0  0  0
 39 38  2  0  0  0  0
 40 38  1  0  0  0  0
 41 39  1  0  0  0  0
 42 40  2  0  0  0  0
 43 41  2  0  0  0  0
 43 42  1  0  0  0  0
 44 42  1  0  0  0  0
 45 43  1  0  0  0  0
 46 44  2  0  0  0  0
 47 45  2  0  0  0  0
 47 46  1  0  0  0  0
 48 49  1  0  0  0  0
 50 49  1  0  0  0  0
 50 51  1  0  0  0  0
 52 53  1  0  0  0  0
 52 51  1  0  0  0  0
M  END
>  <REMARK>
 VINA RESULT:    -5.737      3.541      7.562
 INTER + INTRA:         -14.462
 INTER:                  -7.957
 INTRA:                  -6.505
 UNBOUND:                -4.533
 SMILES CC(=O)N[C@@H]1[C@@H](O)C[C@](O)(C(=O)O)O[C@H]1C(O)[C@H](O)CNC(=O)OCc1cn(-c2cnc3ccccc3c2)nn1
 SMILES IDX 20 1 18 2 16 3 15 4 9 5 8 6 14 7 6 8 5 9 10 10 11 12 12 13
 SMILES IDX 13 14 7 16 4 18 2 19 1 21 3 22 17 23 19 25 21 27 22 28 23 30
 SMILES IDX 24 31 25 32 26 33 27 34 40 35 28 36 39 37 29 38 30 39 38 40
 SMILES IDX 31 41 37 42 32 43 36 44 33 45 35 46 34 47
 H PARENT 10 11 13 15 7 17 4 20 17 24 19 26 21 29
 Flexibility Score: inf
  4 active torsions:
  status: ('A' for Active; 'I' for Inactive)
    1  A    between atoms: CA   and  CB  
    2  A    between atoms: CB   and  CG  
    3  A    between atoms: CG   and  CD  
    4  A    between atoms: CD   and  CE  

>  <TORSDO>
F 15

>  <BEGIN_>
RES LYS A 131

$$$$
ligand_70_pose_19_2HRL.pdbqt
 OpenBabel07062320523D

  6  5  0  0  0  0  0  0  0  0999 V2000
   33.1930   34.6630    9.2900 C   0  0  0  0  0  0  0  0  0  0  0  0
   32.0600   35.3600   10.0340 C   0  0  0  0  0  0  0  0  0  0  0  0
   30.7290   34.6670    9.8910 C   0  0  0  0  0  0  0  0  0  0  0  0
   30.2990   34.6270    8.4330 C   0  0  0  0  0  0  0  0  0  0  0  0
   28.7880   34.5530    8.3250 C   0  0  0  0  0  0  0  0  0  0  0  0
   28.2020   33.8330    9.4890 N   0  0  0  0  0  0  0  0  0  0  0  0
  1  2  1  0  0  0  0
  3  2  1  0  0  0  0
  4  3  1  0  0  0  0
  5  4  1  0  0  0  0
  5  6  1  0  0  0  0
M  END
>  <EGIN_R>
ES LYS A 135

>  <REMARK>
  4 active torsions:
  status: ('A' for Active; 'I' for Inactive)
    5  A    between atoms: CA   and  CB  
    6  A    between atoms: CB   and  CG  
    7  A    between atoms: CG   and  CD  
    8  A    between atoms: CD   and  CE  

$$$$
