ligand_23_pose_15_2HRL.pdbqt
 OpenBabel07062320523D

 55 56  0  0  1  0  0  0  0  0999 V2000
   25.0620   39.6660    6.8450 N   0  0  0  0  0  0  0  0  0  0  0  0
   24.0070   39.0900    7.5980 C   0  0  0  0  0  0  0  0  0  0  0  0
   22.8980   39.6530    7.6040 O   0  0  0  0  0  0  0  0  0  0  0  0
   25.9740   39.1350    6.8840 H   0  0  0  0  0  0  0  0  0  0  0  0
   24.9090   40.8790    6.0840 C   0  0  0  0  0  0  0  0  0  0  0  0
   25.7970   40.8670    4.8580 C   0  0  2  0  0  0  0  0  0  0  0  0
   27.1790   41.3830    5.2380 C   0  0  1  0  0  0  0  0  0  0  0  0
   28.1950   40.2740    4.9780 C   0  0  2  0  0  0  0  0  0  0  0  0
   28.1810   38.3760    6.3080 C   0  0  2  0  0  0  0  0  0  0  0  0
   29.6760   38.1860    6.2020 C   0  0  0  0  0  0  0  0  0  0  0  0
   27.6490   39.0540    5.2290 O   0  0  0  0  0  0  0  0  0  0  0  0
   30.3740   39.3600    5.6030 C   0  0  1  0  0  0  0  0  0  0  0  0
   29.4590   40.5780    5.7240 C   0  0  1  0  0  0  0  0  0  0  0  0
   27.8200   39.0130    7.4910 O   0  0  0  0  0  0  0  0  0  0  0  0
   27.8160   40.0080    7.3300 H   0  0  0  0  0  0  0  0  0  0  0  0
   27.5720   37.0190    6.3240 C   0  0  0  0  0  0  0  0  0  0  0  0
   28.2250   35.9980    5.9840 O   0  0  0  0  0  0  0  0  0  0  0  0
   26.2490   36.8110    6.7170 O   0  0  0  0  0  0  0  0  0  0  0  0
   25.5070   37.3980    6.3530 H   0  0  0  0  0  0  0  0  0  0  0  0
   31.6150   39.6230    6.1550 O   0  0  0  0  0  0  0  0  0  0  0  0
   32.0170   40.4780    5.8310 H   0  0  0  0  0  0  0  0  0  0  0  0
   30.0930   41.7110    5.0720 N   0  0  0  0  0  0  0  0  0  0  0  0
   30.8110   42.7070    5.7970 C   0  0  0  0  0  0  0  0  0  0  0  0
   30.0180   41.7980    4.0210 H   0  0  0  0  0  0  0  0  0  0  0  0
   31.4190   43.8210    5.0240 C   0  0  0  0  0  0  0  0  0  0  0  0
   30.8890   42.5890    7.0320 O   0  0  0  0  0  0  0  0  0  0  0  0
   27.4750   42.4460    4.4040 O   0  0  0  0  0  0  0  0  0  0  0  0
   26.6790   43.0050    4.2360 H   0  0  0  0  0  0  0  0  0  0  0  0
   25.2220   41.7140    3.8950 O   0  0  0  0  0  0  0  0  0  0  0  0
   24.2690   41.4460    3.7060 H   0  0  0  0  0  0  0  0  0  0  0  0
   24.1890   37.9110    8.3270 O   0  0  0  0  0  0  0  0  0  0  0  0
   24.3540   37.9360    9.7300 C   0  0  0  0  0  0  0  0  0  0  0  0
   25.6930   38.4760   10.0770 C   0  0  0  0  0  0  0  0  0  0  0  0
   26.7500   37.7260   10.5540 C   0  0  0  0  0  0  0  0  0  0  0  0
   26.1310   39.7380   10.0030 N   0  0  0  0  0  0  0  0  0  0  0  0
   27.7570   38.5950   10.7340 N   0  0  0  0  0  0  0  0  0  0  0  0
   27.3910   39.8230   10.4030 N   0  0  0  0  0  0  0  0  0  0  0  0
   29.0560   38.2620   11.2190 C   0  0  0  0  0  0  0  0  0  0  0  0
   29.2670   37.3100   12.1920 C   0  0  0  0  0  0  0  0  0  0  0  0
   30.1770   38.9010   10.7150 C   0  0  0  0  0  0  0  0  0  0  0  0
   30.5410   36.9900   12.6610 C   0  0  0  0  0  0  0  0  0  0  0  0
   31.4370   38.6050   11.1580 C   0  0  0  0  0  0  0  0  0  0  0  0
   31.6150   37.6500   12.1310 C   0  0  0  0  0  0  0  0  0  0  0  0
   30.7990   35.7900   13.8860 S   0  0  0  0  0  0  0  0  0  0  0  0
   29.6630   35.8700   14.8730 O   0  0  0  0  0  0  0  0  0  0  0  0
   32.0560   36.1250   14.6550 O   0  0  0  0  0  0  0  0  0  0  0  0
   30.8620   34.2070   13.2250 N   0  0  0  0  0  0  0  0  0  0  0  0
   30.7390   34.2520   12.1980 H   0  0  0  0  0  0  0  0  0  0  0  0
   30.1710   33.5640   13.6650 H   0  0  0  0  0  0  0  0  0  0  0  0
   29.8670   25.5550   16.9770 C   0  0  0  0  0  0  0  0  0  0  0  0
   28.3450   25.7220   17.0260 C   0  0  0  0  0  0  0  0  0  0  0  0
   27.6010   24.4040   16.8800 C   0  0  0  0  0  0  0  0  0  0  0  0
   26.5450   24.2290   17.9350 C   0  0  0  0  0  0  0  0  0  0  0  0
   25.2170   23.8740   17.2740 C   0  0  0  0  0  0  0  0  0  0  0  0
   24.5520   22.7700   18.0050 N   0  0  0  0  0  0  0  0  0  0  0  0
  1  4  1  0  0  0  0
  1  2  1  0  0  0  0
  2  3  2  0  0  0  0
  2 31  1  0  0  0  0
  5  1  1  0  0  0  0
  6  7  1  0  0  0  0
  6  5  1  1  0  0  0
  7 27  1  6  0  0  0
  8 11  1  0  0  0  0
  8  7  1  1  0  0  0
  8 13  1  0  0  0  0
  9 16  1  1  0  0  0
  9 14  1  0  0  0  0
 10  9  1  0  0  0  0
 11  9  1  0  0  0  0
 12 13  1  0  0  0  0
 12 20  1  1  0  0  0
 12 10  1  0  0  0  0
 13 22  1  6  0  0  0
 15 14  1  0  0  0  0
 16 18  1  0  0  0  0
 17 16  2  0  0  0  0
 19 18  1  0  0  0  0
 21 20  1  0  0  0  0
 22 23  1  0  0  0  0
 23 26  2  0  0  0  0
 24 22  1  0  0  0  0
 25 23  1  0  0  0  0
 28 27  1  0  0  0  0
 29  6  1  0  0  0  0
 30 29  1  0  0  0  0
 31 32  1  0  0  0  0
 32 33  1  0  0  0  0
 33 34  2  0  0  0  0
 34 36  1  0  0  0  0
 35 33  1  0  0  0  0
 35 37  2  0  0  0  0
 36 38  1  0  0  0  0
 37 36  1  0  0  0  0
 38 39  2  0  0  0  0
 39 41  1  0  0  0  0
 40 42  2  0  0  0  0
 40 38  1  0  0  0  0
 41 44  1  0  0  0  0
 42 43  1  0  0  0  0
 43 41  2  0  0  0  0
 44 46  2  0  0  0  0
 44 45  2  0  0  0  0
 47 49  1  0  0  0  0
 47 44  1  0  0  0  0
 48 47  1  0  0  0  0
 50 51  1  0  0  0  0
 52 51  1  0  0  0  0
 52 53  1  0  0  0  0
 54 53  1  0  0  0  0
 54 55  1  0  0  0  0
M  END
>  <REMARK>
 VINA RESULT:    -4.221      3.336      5.073
 INTER + INTRA:         -14.299
 INTER:                  -7.793
 INTRA:                  -6.506
 UNBOUND:                -6.624
 SMILES CC(=O)N[C@@H]1[C@@H](O)C[C@](O)(C(=O)O)O[C@H]1C(O)[C@H](O)CNC(=O)OCc1cn(-c2cccc(S(N)(=O)=O)c2)nn1
 SMILES IDX 21 1 22 2 23 3 20 5 18 6 16 7 15 8 9 9 8 10 14 11 6 12 5 13
 SMILES IDX 10 14 11 16 12 17 13 18 7 20 4 22 2 23 1 25 3 26 17 27 19 29
 SMILES IDX 24 31 25 32 26 33 27 34 40 35 28 36 39 37 29 38 38 39 30 40
 SMILES IDX 33 41 31 42 32 43 34 44 36 45 37 46 35 47
 H PARENT 21 4 10 15 13 19 7 21 4 24 17 28 19 30 35 48 35 49
 Flexibility Score: inf
  4 active torsions:
  status: ('A' for Active; 'I' for Inactive)
    1  A    between atoms: CA   and  CB  
    2  A    between atoms: CB   and  CG  
    3  A    between atoms: CG   and  CD  
    4  A    between atoms: CD   and  CE  

>  <TORSDO>
F 17

>  <BEGIN_>
RES LYS A 131

$$$$
ligand_23_pose_15_2HRL.pdbqt
 OpenBabel07062320523D

  6  5  0  0  0  0  0  0  0  0999 V2000
   33.1930   34.6630    9.2900 C   0  0  0  0  0  0  0  0  0  0  0  0
   32.0600   35.3600   10.0340 C   0  0  0  0  0  0  0  0  0  0  0  0
   30.7960   35.4870    9.2240 C   0  0  0  0  0  0  0  0  0  0  0  0
   29.9870   34.2000    9.2870 C   0  0  0  0  0  0  0  0  0  0  0  0
   28.6860   34.4250   10.0330 C   0  0  0  0  0  0  0  0  0  0  0  0
   27.5360   33.8300    9.2970 N   0  0  0  0  0  0  0  0  0  0  0  0
  1  2  1  0  0  0  0
  3  4  1  0  0  0  0
  3  2  1  0  0  0  0
  4  5  1  0  0  0  0
  6  5  1  0  0  0  0
M  END
>  <EGIN_R>
ES LYS A 135

>  <REMARK>
  4 active torsions:
  status: ('A' for Active; 'I' for Inactive)
    5  A    between atoms: CA   and  CB  
    6  A    between atoms: CB   and  CG  
    7  A    between atoms: CG   and  CD  
    8  A    between atoms: CD   and  CE  

$$$$
