ligand_12_pose_14_2HRL.pdbqt
 OpenBabel07062320523D

 52 53  0  0  1  0  0  0  0  0999 V2000
   28.5410   36.4690   11.9410 N   0  0  0  0  0  0  0  0  0  0  0  0
   28.4340   37.8420   12.3110 C   0  0  0  0  0  0  0  0  0  0  0  0
   27.5190   38.2420   13.0940 O   0  0  0  0  0  0  0  0  0  0  0  0
   29.2990   36.1800   11.3020 H   0  0  0  0  0  0  0  0  0  0  0  0
   27.5640   35.5550   12.4980 C   0  0  0  0  0  0  0  0  0  0  0  0
   28.1790   34.6000   13.4850 C   0  0  2  0  0  0  0  0  0  0  0  0
   28.2380   35.2390   14.8550 C   0  0  2  0  0  0  0  0  0  0  0  0
   28.7960   34.3260   15.8960 C   0  0  2  0  0  0  0  0  0  0  0  0
   30.8380   33.5570   16.7130 C   0  0  2  0  0  0  0  0  0  0  0  0
   30.0320   32.3840   17.2520 C   0  0  0  0  0  0  0  0  0  0  0  0
   30.1740   34.2560   15.7120 O   0  0  0  0  0  0  0  0  0  0  0  0
   29.1850   31.8750   16.1060 C   0  0  1  0  0  0  0  0  0  0  0  0
   28.1510   32.9590   15.8460 C   0  0  1  0  0  0  0  0  0  0  0  0
   31.9600   32.9920   16.1090 O   0  0  0  0  0  0  0  0  0  0  0  0
   32.5230   32.4980   16.7560 H   0  0  0  0  0  0  0  0  0  0  0  0
   31.2810   34.4270   17.8100 C   0  0  0  0  0  0  0  0  0  0  0  0
   32.3580   35.0630   17.6980 O   0  0  0  0  0  0  0  0  0  0  0  0
   30.5690   34.5950   18.9910 O   0  0  0  0  0  0  0  0  0  0  0  0
   29.5620   34.7100   18.9250 H   0  0  0  0  0  0  0  0  0  0  0  0
   29.9480   31.6460   14.9660 O   0  0  0  0  0  0  0  0  0  0  0  0
   29.3380   31.3120   14.2390 H   0  0  0  0  0  0  0  0  0  0  0  0
   27.1650   32.8620   16.9020 N   0  0  0  0  0  0  0  0  0  0  0  0
   25.7820   32.9740   16.5970 C   0  0  0  0  0  0  0  0  0  0  0  0
   27.4110   32.7080   17.9100 H   0  0  0  0  0  0  0  0  0  0  0  0
   24.7270   32.8810   17.6430 C   0  0  0  0  0  0  0  0  0  0  0  0
   25.3990   33.1580   15.4130 O   0  0  0  0  0  0  0  0  0  0  0  0
   27.0200   35.7940   15.1620 O   0  0  0  0  0  0  0  0  0  0  0  0
   27.1210   36.7870   15.1090 H   0  0  0  0  0  0  0  0  0  0  0  0
   29.4420   34.2370   13.0350 O   0  0  0  0  0  0  0  0  0  0  0  0
   30.0760   34.2050   13.7990 H   0  0  0  0  0  0  0  0  0  0  0  0
   29.3130   38.8070   11.8400 O   0  0  0  0  0  0  0  0  0  0  0  0
   28.9730   39.7750   10.8680 C   0  0  0  0  0  0  0  0  0  0  0  0
   29.2530   39.3250    9.4870 C   0  0  0  0  0  0  0  0  0  0  0  0
   28.4110   39.1420    8.4110 C   0  0  0  0  0  0  0  0  0  0  0  0
   30.4750   38.9960    9.0320 N   0  0  0  0  0  0  0  0  0  0  0  0
   29.1320   38.7120    7.3450 N   0  0  0  0  0  0  0  0  0  0  0  0
   30.3790   38.6390    7.7690 N   0  0  0  0  0  0  0  0  0  0  0  0
   28.6330   38.3950    5.9990 C   0  0  0  0  0  0  0  0  0  0  0  0
   28.9150   37.0640    5.7060 O   0  0  0  0  0  0  0  0  0  0  0  0
   27.8850   36.2180    6.0460 C   0  0  0  0  0  0  0  0  0  0  0  0
   28.1480   35.3770    7.2310 C   0  0  0  0  0  0  0  0  0  0  0  0
   29.4480   35.0860    7.5900 C   0  0  0  0  0  0  0  0  0  0  0  0
   27.1200   34.8790    7.9910 C   0  0  0  0  0  0  0  0  0  0  0  0
   29.7200   34.2980    8.7110 C   0  0  0  0  0  0  0  0  0  0  0  0
   27.3960   34.0970    9.1020 C   0  0  0  0  0  0  0  0  0  0  0  0
   28.6730   33.8050    9.4650 C   0  0  0  0  0  0  0  0  0  0  0  0
   29.8670   25.5550   16.9770 C   0  0  0  0  0  0  0  0  0  0  0  0
   28.3450   25.7220   17.0260 C   0  0  0  0  0  0  0  0  0  0  0  0
   27.6030   24.3950   16.9760 C   0  0  0  0  0  0  0  0  0  0  0  0
   26.1230   24.5660   17.1780 C   0  0  0  0  0  0  0  0  0  0  0  0
   25.5740   23.3710   17.9520 C   0  0  0  0  0  0  0  0  0  0  0  0
   24.3710   22.8270   17.2800 N   0  0  0  0  0  0  0  0  0  0  0  0
  1  2  1  0  0  0  0
  1  5  1  0  0  0  0
  2  3  2  0  0  0  0
  4  1  1  0  0  0  0
  6  5  1  6  0  0  0
  6  7  1  0  0  0  0
  7 27  1  1  0  0  0
  8  7  1  6  0  0  0
  9 14  1  6  0  0  0
  9 10  1  0  0  0  0
  9 16  1  0  0  0  0
 11  8  1  0  0  0  0
 11  9  1  0  0  0  0
 12 20  1  6  0  0  0
 12 10  1  0  0  0  0
 13  8  1  0  0  0  0
 13 12  1  0  0  0  0
 13 22  1  1  0  0  0
 14 15  1  0  0  0  0
 16 18  1  0  0  0  0
 17 16  2  0  0  0  0
 19 18  1  0  0  0  0
 21 20  1  0  0  0  0
 22 24  1  0  0  0  0
 23 22  1  0  0  0  0
 23 25  1  0  0  0  0
 26 23  2  0  0  0  0
 28 27  1  0  0  0  0
 29  6  1  0  0  0  0
 29 30  1  0  0  0  0
 31  2  1  0  0  0  0
 32 31  1  0  0  0  0
 33 32  1  0  0  0  0
 34 33  2  0  0  0  0
 35 33  1  0  0  0  0
 36 37  1  0  0  0  0
 36 34  1  0  0  0  0
 37 35  2  0  0  0  0
 38 36  1  0  0  0  0
 39 38  1  0  0  0  0
 39 40  1  0  0  0  0
 40 41  1  0  0  0  0
 41 42  2  0  0  0  0
 41 43  1  0  0  0  0
 42 44  1  0  0  0  0
 43 45  2  0  0  0  0
 44 46  2  0  0  0  0
 45 46  1  0  0  0  0
 47 48  1  0  0  0  0
 49 48  1  0  0  0  0
 49 50  1  0  0  0  0
 50 51  1  0  0  0  0
 52 51  1  0  0  0  0
M  END
>  <REMARK>
 VINA RESULT:    -5.908      4.046      8.436
 INTER + INTRA:         -15.035
 INTER:                 -10.415
 INTRA:                  -4.620
 UNBOUND:                -3.774
 SMILES CC(=O)N[C@@H]1[C@@H](O)C[C@](O)(C(=O)O)O[C@H]1C(O)[C@H](O)CNC(=O)OCc1cn(COCc2ccccc2)nn1
 SMILES IDX 21 1 22 2 23 3 20 5 18 6 16 7 15 8 9 9 8 10 14 11 6 12 5 13
 SMILES IDX 10 14 11 16 12 17 13 18 7 20 4 22 2 23 1 25 3 26 17 27 19 29
 SMILES IDX 24 31 25 32 26 33 27 34 39 35 28 36 38 37 29 38 30 39 31 40
 SMILES IDX 32 41 33 42 37 43 34 44 36 45 35 46
 H PARENT 21 4 10 15 13 19 7 21 4 24 17 28 19 30
 Flexibility Score: inf
  4 active torsions:
  status: ('A' for Active; 'I' for Inactive)
    1  A    between atoms: CA   and  CB  
    2  A    between atoms: CB   and  CG  
    3  A    between atoms: CG   and  CD  
    4  A    between atoms: CD   and  CE  

>  <TORSDO>
F 18

>  <BEGIN_>
RES LYS A 131

$$$$
ligand_12_pose_14_2HRL.pdbqt
 OpenBabel07062320523D

  6  5  0  0  0  0  0  0  0  0999 V2000
   33.1930   34.6630    9.2900 C   0  0  0  0  0  0  0  0  0  0  0  0
   32.0600   35.3600   10.0340 C   0  0  0  0  0  0  0  0  0  0  0  0
   32.2410   35.3750   11.5300 C   0  0  0  0  0  0  0  0  0  0  0  0
   32.2580   36.8030   12.0540 C   0  0  0  0  0  0  0  0  0  0  0  0
   31.8270   36.8410   13.5080 C   0  0  0  0  0  0  0  0  0  0  0  0
   32.7160   35.9970   14.3540 N   0  0  0  0  0  0  0  0  0  0  0  0
  1  2  1  0  0  0  0
  2  3  1  0  0  0  0
  3  4  1  0  0  0  0
  4  5  1  0  0  0  0
  5  6  1  0  0  0  0
M  END
>  <EGIN_R>
ES LYS A 135

>  <REMARK>
  4 active torsions:
  status: ('A' for Active; 'I' for Inactive)
    5  A    between atoms: CA   and  CB  
    6  A    between atoms: CB   and  CG  
    7  A    between atoms: CG   and  CD  
    8  A    between atoms: CD   and  CE  

$$$$
