ligand_32_pose_17_2HRL.pdbqt
 OpenBabel07062320523D

 49 49  0  0  1  0  0  0  0  0999 V2000
   23.4790   40.8860    9.2910 N   0  0  0  0  0  0  0  0  0  0  0  0
   22.1640   40.9150    8.7610 C   0  0  0  0  0  0  0  0  0  0  0  0
   21.9610   40.9470    7.5100 O   0  0  0  0  0  0  0  0  0  0  0  0
   23.6050   40.8590   10.3210 H   0  0  0  0  0  0  0  0  0  0  0  0
   24.6430   40.8960    8.4380 C   0  0  0  0  0  0  0  0  0  0  0  0
   25.3840   39.5870    8.4070 C   0  0  2  0  0  0  0  0  0  0  0  0
   24.9780   38.7580    7.1880 C   0  0  1  0  0  0  0  0  0  0  0  0
   25.7750   37.4660    7.1540 C   0  0  2  0  0  0  0  0  0  0  0  0
   26.7860   36.1000    8.7560 C   0  0  2  0  0  0  0  0  0  0  0  0
   27.6450   35.4860    7.6870 C   0  0  0  0  0  0  0  0  0  0  0  0
   25.6510   36.7190    8.2800 O   0  0  0  0  0  0  0  0  0  0  0  0
   27.7480   36.2750    6.4310 C   0  0  1  0  0  0  0  0  0  0  0  0
   27.2040   37.6810    6.7260 C   0  0  1  0  0  0  0  0  0  0  0  0
   27.5770   36.9460    9.5250 O   0  0  0  0  0  0  0  0  0  0  0  0
   27.0840   37.8110    9.5700 H   0  0  0  0  0  0  0  0  0  0  0  0
   26.3360   34.9890    9.6270 C   0  0  0  0  0  0  0  0  0  0  0  0
   27.0150   33.9640    9.8470 O   0  0  0  0  0  0  0  0  0  0  0  0
   25.0980   35.0720   10.2390 O   0  0  0  0  0  0  0  0  0  0  0  0
   24.8020   34.4570   10.9870 H   0  0  0  0  0  0  0  0  0  0  0  0
   29.0460   36.3500    5.9340 O   0  0  0  0  0  0  0  0  0  0  0  0
   29.0760   36.2470    4.9430 H   0  0  0  0  0  0  0  0  0  0  0  0
   27.2910   38.5140    5.5430 N   0  0  0  0  0  0  0  0  0  0  0  0
   28.0650   39.7080    5.5580 C   0  0  0  0  0  0  0  0  0  0  0  0
   26.7970   38.2740    4.6520 H   0  0  0  0  0  0  0  0  0  0  0  0
   28.1850   40.6020    4.3560 C   0  0  0  0  0  0  0  0  0  0  0  0
   28.6870   40.0520    6.6130 O   0  0  0  0  0  0  0  0  0  0  0  0
   23.6240   38.4540    7.3070 O   0  0  0  0  0  0  0  0  0  0  0  0
   23.1480   39.0760    7.9210 H   0  0  0  0  0  0  0  0  0  0  0  0
   25.0660   38.9060    9.5850 O   0  0  0  0  0  0  0  0  0  0  0  0
   24.8570   37.9650    9.3610 H   0  0  0  0  0  0  0  0  0  0  0  0
   21.0930   40.9070    9.6240 O   0  0  0  0  0  0  0  0  0  0  0  0
   20.8620   39.8790   10.5720 C   0  0  0  0  0  0  0  0  0  0  0  0
   21.3360   38.5610   10.0310 C   0  0  0  0  0  0  0  0  0  0  0  0
   20.6640   37.7280    9.1760 C   0  0  0  0  0  0  0  0  0  0  0  0
   22.5190   37.9830   10.3210 N   0  0  0  0  0  0  0  0  0  0  0  0
   21.4590   36.6520    8.9610 N   0  0  0  0  0  0  0  0  0  0  0  0
   22.5680   36.8360    9.6640 N   0  0  0  0  0  0  0  0  0  0  0  0
   21.1050   35.5400    8.1040 C   0  0  0  0  0  0  0  0  0  0  0  0
   19.7050   35.8030    7.5570 C   0  0  0  0  0  0  0  0  0  0  0  0
   18.8890   34.5930    7.8760 C   0  0  0  0  0  0  0  0  0  0  0  0
   18.7400   34.1600    9.0260 O   0  0  0  0  0  0  0  0  0  0  0  0
   18.2830   33.9490    6.7960 O   0  0  0  0  0  0  0  0  0  0  0  0
   18.6860   33.0870    6.4340 H   0  0  0  0  0  0  0  0  0  0  0  0
   29.8670   25.5550   16.9770 C   0  0  0  0  0  0  0  0  0  0  0  0
   28.3450   25.7220   17.0260 C   0  0  0  0  0  0  0  0  0  0  0  0
   27.6010   24.4020   16.8900 C   0  0  0  0  0  0  0  0  0  0  0  0
   26.1660   24.5130   17.3260 C   0  0  0  0  0  0  0  0  0  0  0  0
   25.8680   23.4450   18.3730 C   0  0  0  0  0  0  0  0  0  0  0  0
   25.4150   24.0700   19.6380 N   0  0  0  0  0  0  0  0  0  0  0  0
  1  4  1  0  0  0  0
  2  1  1  0  0  0  0
  2 31  1  0  0  0  0
  3  2  2  0  0  0  0
  5  1  1  0  0  0  0
  6  5  1  1  0  0  0
  6 29  1  0  0  0  0
  7 27  1  1  0  0  0
  7  6  1  0  0  0  0
  8  7  1  1  0  0  0
  8 11  1  0  0  0  0
  9 14  1  1  0  0  0
  9 16  1  0  0  0  0
 10  9  1  0  0  0  0
 11  9  1  0  0  0  0
 12 20  1  1  0  0  0
 12 13  1  0  0  0  0
 12 10  1  0  0  0  0
 13 22  1  6  0  0  0
 13  8  1  0  0  0  0
 14 15  1  0  0  0  0
 16 17  2  0  0  0  0
 16 18  1  0  0  0  0
 18 19  1  0  0  0  0
 21 20  1  0  0  0  0
 22 23  1  0  0  0  0
 23 26  2  0  0  0  0
 24 22  1  0  0  0  0
 25 23  1  0  0  0  0
 27 28  1  0  0  0  0
 30 29  1  0  0  0  0
 31 32  1  0  0  0  0
 33 35  1  0  0  0  0
 33 32  1  0  0  0  0
 34 33  2  0  0  0  0
 36 34  1  0  0  0  0
 36 37  1  0  0  0  0
 37 35  2  0  0  0  0
 38 36  1  0  0  0  0
 39 40  1  0  0  0  0
 39 38  1  0  0  0  0
 40 41  2  0  0  0  0
 42 40  1  0  0  0  0
 43 42  1  0  0  0  0
 44 45  1  0  0  0  0
 46 45  1  0  0  0  0
 46 47  1  0  0  0  0
 47 48  1  0  0  0  0
 48 49  1  0  0  0  0
M  END
>  <REMARK>
 VINA RESULT:    -4.177      8.846     13.962
 INTER + INTRA:         -13.483
 INTER:                  -7.825
 INTRA:                  -5.658
 UNBOUND:                -5.644
 SMILES CC(=O)N[C@@H]1[C@@H](O)C[C@](O)(C(=O)O)O[C@H]1C(O)[C@H](O)CNC(=O)OCc1cn(CCC(=O)O)nn1
 SMILES IDX 21 1 22 2 23 3 20 5 18 6 16 7 15 8 9 9 8 10 14 11 6 12 5 13
 SMILES IDX 10 14 11 16 12 17 13 18 7 20 4 22 2 23 1 25 3 26 17 27 19 29
 SMILES IDX 24 31 25 32 26 33 27 34 35 35 28 36 34 37 29 38 30 39 31 40
 SMILES IDX 32 41 33 42
 H PARENT 21 4 10 15 13 19 7 21 4 24 17 28 19 30 33 43
 Flexibility Score: inf
  4 active torsions:
  status: ('A' for Active; 'I' for Inactive)
    1  A    between atoms: CA   and  CB  
    2  A    between atoms: CB   and  CG  
    3  A    between atoms: CG   and  CD  
    4  A    between atoms: CD   and  CE  

>  <TORSDO>
F 18

>  <BEGIN_>
RES LYS A 131

$$$$
ligand_32_pose_17_2HRL.pdbqt
 OpenBabel07062320523D

  6  5  0  0  0  0  0  0  0  0999 V2000
   33.1930   34.6630    9.2900 C   0  0  0  0  0  0  0  0  0  0  0  0
   32.0600   35.3600   10.0340 C   0  0  0  0  0  0  0  0  0  0  0  0
   30.8780   35.6890    9.1600 C   0  0  0  0  0  0  0  0  0  0  0  0
   30.7470   37.1930    8.9760 C   0  0  0  0  0  0  0  0  0  0  0  0
   31.3640   37.9280   10.1510 C   0  0  0  0  0  0  0  0  0  0  0  0
   30.4520   38.9900   10.6580 N   0  0  0  0  0  0  0  0  0  0  0  0
  1  2  1  0  0  0  0
  3  2  1  0  0  0  0
  4  3  1  0  0  0  0
  4  5  1  0  0  0  0
  5  6  1  0  0  0  0
M  END
>  <EGIN_R>
ES LYS A 135

>  <REMARK>
  4 active torsions:
  status: ('A' for Active; 'I' for Inactive)
    5  A    between atoms: CA   and  CB  
    6  A    between atoms: CB   and  CG  
    7  A    between atoms: CG   and  CD  
    8  A    between atoms: CD   and  CE  

$$$$
