ligand_3_pose_11_2HRL.pdbqt
 OpenBabel07062320523D

 49 50  0  0  1  0  0  0  0  0999 V2000
   29.3750   31.5370   15.8910 C   0  0  0  0  0  0  0  0  0  0  0  0
   30.8470   31.8610   16.0530 C   0  0  2  0  0  0  0  0  0  0  0  0
   31.0590   33.1430   16.8280 C   0  0  1  0  0  0  0  0  0  0  0  0
   30.4790   34.3350   16.1420 C   0  0  2  0  0  0  0  0  0  0  0  0
   32.0520   35.1230   14.5860 C   0  0  2  0  0  0  0  0  0  0  0  0
   32.5490   36.1860   15.5010 C   0  0  0  0  0  0  0  0  0  0  0  0
   30.8770   34.5400   14.8740 O   0  0  0  0  0  0  0  0  0  0  0  0
   31.9870   36.1360   16.8910 C   0  0  1  0  0  0  0  0  0  0  0  0
   30.5910   35.6000   16.9430 C   0  0  1  0  0  0  0  0  0  0  0  0
   33.0450   34.1190   14.5640 O   0  0  0  0  0  0  0  0  0  0  0  0
   33.9270   34.5870   14.5860 H   0  0  0  0  0  0  0  0  0  0  0  0
   31.9900   35.6440   13.1940 C   0  0  0  0  0  0  0  0  0  0  0  0
   31.2160   36.5650   12.8520 O   0  0  0  0  0  0  0  0  0  0  0  0
   32.8090   35.1060   12.2260 O   0  0  0  0  0  0  0  0  0  0  0  0
   33.1100   35.5960   11.3920 H   0  0  0  0  0  0  0  0  0  0  0  0
   32.8230   35.3730   17.7250 O   0  0  0  0  0  0  0  0  0  0  0  0
   32.6550   35.5370   18.6740 H   0  0  0  0  0  0  0  0  0  0  0  0
   29.7170   36.5910   16.3100 N   0  0  0  0  0  0  0  0  0  0  0  0
   28.3930   36.8230   16.7720 C   0  0  0  0  0  0  0  0  0  0  0  0
   30.0420   37.1570   15.4980 H   0  0  0  0  0  0  0  0  0  0  0  0
   27.4910   37.8240   16.1440 C   0  0  0  0  0  0  0  0  0  0  0  0
   27.9280   36.1750   17.7500 O   0  0  0  0  0  0  0  0  0  0  0  0
   30.4440   32.9280   18.0720 O   0  0  0  0  0  0  0  0  0  0  0  0
   30.4790   33.8210   18.5280 H   0  0  0  0  0  0  0  0  0  0  0  0
   31.5100   31.8310   14.8390 O   0  0  0  0  0  0  0  0  0  0  0  0
   31.4370   30.9700   14.3790 H   0  0  0  0  0  0  0  0  0  0  0  0
   28.9670   30.3560   16.5830 N   0  0  0  0  0  0  0  0  0  0  0  0
   28.1910   30.3670   17.7740 C   0  0  0  0  0  0  0  0  0  0  0  0
   29.2380   29.4120   16.2190 H   0  0  0  0  0  0  0  0  0  0  0  0
   27.8160   31.4280   18.2880 O   0  0  0  0  0  0  0  0  0  0  0  0
   27.8230   29.1870   18.4080 O   0  0  0  0  0  0  0  0  0  0  0  0
   27.6580   29.1620   19.8180 C   0  0  0  0  0  0  0  0  0  0  0  0
   28.9020   28.6080   20.3990 C   0  0  0  0  0  0  0  0  0  0  0  0
   29.9910   29.3120   20.8610 C   0  0  0  0  0  0  0  0  0  0  0  0
   29.1730   27.2990   20.5700 N   0  0  0  0  0  0  0  0  0  0  0  0
   30.8730   28.3960   21.2920 N   0  0  0  0  0  0  0  0  0  0  0  0
   30.3700   27.1930   21.1120 N   0  0  0  0  0  0  0  0  0  0  0  0
   32.1470   28.6960   21.8520 C   0  0  0  0  0  0  0  0  0  0  0  0
   32.6770   27.8550   22.8150 C   0  0  0  0  0  0  0  0  0  0  0  0
   32.8510   29.8130   21.4450 C   0  0  0  0  0  0  0  0  0  0  0  0
   33.9160   28.1750   23.3380 C   0  0  0  0  0  0  0  0  0  0  0  0
   34.0800   30.1160   21.9750 C   0  0  0  0  0  0  0  0  0  0  0  0
   34.6140   29.2820   22.9330 C   0  0  0  0  0  0  0  0  0  0  0  0
   29.8670   25.5550   16.9770 C   0  0  0  0  0  0  0  0  0  0  0  0
   28.3450   25.7220   17.0260 C   0  0  0  0  0  0  0  0  0  0  0  0
   27.6020   24.3970   16.9490 C   0  0  0  0  0  0  0  0  0  0  0  0
   26.6100   24.2380   18.0670 C   0  0  0  0  0  0  0  0  0  0  0  0
   25.9650   25.5870   18.3710 C   0  0  0  0  0  0  0  0  0  0  0  0
   25.9970   25.8610   19.8270 N   0  0  0  0  0  0  0  0  0  0  0  0
  1 27  1  0  0  0  0
  2  1  1  6  0  0  0
  2  3  1  0  0  0  0
  3 23  1  1  0  0  0
  4  3  1  1  0  0  0
  4  9  1  0  0  0  0
  5 12  1  6  0  0  0
  5  7  1  0  0  0  0
  5  6  1  0  0  0  0
  6  8  1  0  0  0  0
  7  4  1  0  0  0  0
  8  9  1  0  0  0  0
  8 16  1  1  0  0  0
  9 18  1  6  0  0  0
 10 11  1  0  0  0  0
 10  5  1  0  0  0  0
 13 12  2  0  0  0  0
 14 12  1  0  0  0  0
 15 14  1  0  0  0  0
 16 17  1  0  0  0  0
 18 19  1  0  0  0  0
 19 22  2  0  0  0  0
 20 18  1  0  0  0  0
 21 19  1  0  0  0  0
 23 24  1  0  0  0  0
 25  2  1  0  0  0  0
 26 25  1  0  0  0  0
 27 28  1  0  0  0  0
 28 30  2  0  0  0  0
 28 31  1  0  0  0  0
 29 27  1  0  0  0  0
 31 32  1  0  0  0  0
 32 33  1  0  0  0  0
 33 35  1  0  0  0  0
 33 34  2  0  0  0  0
 34 36  1  0  0  0  0
 35 37  2  0  0  0  0
 36 38  1  0  0  0  0
 37 36  1  0  0  0  0
 38 39  1  0  0  0  0
 39 41  2  0  0  0  0
 40 38  2  0  0  0  0
 40 42  1  0  0  0  0
 42 43  2  0  0  0  0
 43 41  1  0  0  0  0
 44 45  1  0  0  0  0
 46 45  1  0  0  0  0
 46 47  1  0  0  0  0
 47 48  1  0  0  0  0
 48 49  1  0  0  0  0
M  END
>  <REMARK>
 VINA RESULT:    -5.402      8.717     12.553
 INTER + INTRA:         -13.835
 INTER:                  -9.001
 INTRA:                  -4.834
 UNBOUND:                -4.485
 SMILES CC(=O)N[C@@H]1[C@@H](O)C[C@](O)(C(=O)O)O[C@H]1C(O)[C@H](O)CNC(=O)OCc1cn(-c2ccccc2)nn1
 SMILES IDX 20 1 18 2 16 3 15 4 9 5 8 6 14 7 6 8 5 9 10 10 11 12 12 13
 SMILES IDX 13 14 7 16 4 18 2 19 1 21 3 22 17 23 19 25 21 27 22 28 23 30
 SMILES IDX 24 31 25 32 26 33 27 34 36 35 28 36 35 37 29 38 30 39 34 40
 SMILES IDX 31 41 33 42 32 43
 H PARENT 10 11 13 15 7 17 4 20 17 24 19 26 21 29
 Flexibility Score: inf
  4 active torsions:
  status: ('A' for Active; 'I' for Inactive)
    1  A    between atoms: CA   and  CB  
    2  A    between atoms: CB   and  CG  
    3  A    between atoms: CG   and  CD  
    4  A    between atoms: CD   and  CE  

>  <TORSDO>
F 15

>  <BEGIN_>
RES LYS A 131

$$$$
ligand_3_pose_11_2HRL.pdbqt
 OpenBabel07062320523D

  6  5  0  0  0  0  0  0  0  0999 V2000
   33.1930   34.6630    9.2900 C   0  0  0  0  0  0  0  0  0  0  0  0
   32.0600   35.3600   10.0340 C   0  0  0  0  0  0  0  0  0  0  0  0
   30.7400   35.3040    9.3100 C   0  0  0  0  0  0  0  0  0  0  0  0
   29.6930   34.5950   10.1570 C   0  0  0  0  0  0  0  0  0  0  0  0
   28.5990   34.0190    9.2790 C   0  0  0  0  0  0  0  0  0  0  0  0
   28.5510   34.7090    7.9590 N   0  0  0  0  0  0  0  0  0  0  0  0
  1  2  1  0  0  0  0
  3  2  1  0  0  0  0
  3  4  1  0  0  0  0
  5  4  1  0  0  0  0
  6  5  1  0  0  0  0
M  END
>  <EGIN_R>
ES LYS A 135

>  <REMARK>
  4 active torsions:
  status: ('A' for Active; 'I' for Inactive)
    5  A    between atoms: CA   and  CB  
    6  A    between atoms: CB   and  CG  
    7  A    between atoms: CG   and  CD  
    8  A    between atoms: CD   and  CE  

$$$$
