ligand_59_pose_15_2HRL.pdbqt
 OpenBabel07062320523D

 52 53  0  0  1  0  0  0  0  0999 V2000
   28.7770   37.3980   14.1740 N   0  0  0  0  0  0  0  0  0  0  0  0
   28.6020   38.7510   13.7310 C   0  0  0  0  0  0  0  0  0  0  0  0
   28.1590   39.5590   14.5780 O   0  0  0  0  0  0  0  0  0  0  0  0
   29.1610   36.7620   13.4420 H   0  0  0  0  0  0  0  0  0  0  0  0
   28.4650   37.0110   15.5230 C   0  0  0  0  0  0  0  0  0  0  0  0
   27.5850   35.7720   15.5060 C   0  0  2  0  0  0  0  0  0  0  0  0
   28.5040   34.6130   15.2440 C   0  0  2  0  0  0  0  0  0  0  0  0
   29.9650   34.8240   15.5150 C   0  0  2  0  0  0  0  0  0  0  0  0
   31.8540   35.0420   14.1180 C   0  0  2  0  0  0  0  0  0  0  0  0
   32.7120   34.1950   15.0250 C   0  0  0  0  0  0  0  0  0  0  0  0
   30.5330   34.7970   14.2680 O   0  0  0  0  0  0  0  0  0  0  0  0
   31.7650   33.1610   15.6030 C   0  0  1  0  0  0  0  0  0  0  0  0
   30.6510   33.8800   16.4060 C   0  0  1  0  0  0  0  0  0  0  0  0
   32.2450   34.6780   12.7910 O   0  0  0  0  0  0  0  0  0  0  0  0
   32.0600   33.7150   12.6520 H   0  0  0  0  0  0  0  0  0  0  0  0
   32.1260   36.4900   14.2260 C   0  0  0  0  0  0  0  0  0  0  0  0
   31.8050   37.2470   13.2890 O   0  0  0  0  0  0  0  0  0  0  0  0
   32.7280   37.0220   15.3490 O   0  0  0  0  0  0  0  0  0  0  0  0
   32.1470   37.4450   16.0630 H   0  0  0  0  0  0  0  0  0  0  0  0
   31.2440   32.3230   14.6500 O   0  0  0  0  0  0  0  0  0  0  0  0
   30.7870   31.5540   15.0970 H   0  0  0  0  0  0  0  0  0  0  0  0
   31.3360   34.4450   17.5230 N   0  0  0  0  0  0  0  0  0  0  0  0
   31.3980   33.8040   18.7710 C   0  0  0  0  0  0  0  0  0  0  0  0
   31.7990   35.3640   17.4110 H   0  0  0  0  0  0  0  0  0  0  0  0
   32.1100   34.3910   19.9310 C   0  0  0  0  0  0  0  0  0  0  0  0
   30.8370   32.6990   18.9150 O   0  0  0  0  0  0  0  0  0  0  0  0
   28.4150   34.3030   13.8750 O   0  0  0  0  0  0  0  0  0  0  0  0
   28.0800   35.0760   13.3460 H   0  0  0  0  0  0  0  0  0  0  0  0
   26.7600   35.9840   14.3680 O   0  0  0  0  0  0  0  0  0  0  0  0
   25.9310   35.4930   14.4930 H   0  0  0  0  0  0  0  0  0  0  0  0
   28.8940   39.1690   12.4620 O   0  0  0  0  0  0  0  0  0  0  0  0
   29.0870   38.3170   11.3740 C   0  0  0  0  0  0  0  0  0  0  0  0
   28.0720   37.2390   11.2720 C   0  0  0  0  0  0  0  0  0  0  0  0
   26.7980   37.4140   10.7240 C   0  0  0  0  0  0  0  0  0  0  0  0
   28.1050   35.9640   11.6380 N   0  0  0  0  0  0  0  0  0  0  0  0
   26.1380   36.2580   10.7870 N   0  0  0  0  0  0  0  0  0  0  0  0
   26.9400   35.3830   11.3450 N   0  0  0  0  0  0  0  0  0  0  0  0
   24.7960   36.0250   10.3350 C   0  0  0  0  0  0  0  0  0  0  0  0
   24.4200   36.1310    9.0120 C   0  0  0  0  0  0  0  0  0  0  0  0
   23.8410   35.6990   11.2210 N   0  0  0  0  0  0  0  0  0  0  0  0
   23.1390   35.9220    8.5760 C   0  0  0  0  0  0  0  0  0  0  0  0
   22.5720   35.4840   10.8410 C   0  0  0  0  0  0  0  0  0  0  0  0
   22.1790   35.5880    9.5110 C   0  0  0  0  0  0  0  0  0  0  0  0
   20.7550   35.3370    9.1440 C   0  0  0  0  0  0  0  0  0  0  0  0
   20.7070   34.8180    7.8570 O   0  0  0  0  0  0  0  0  0  0  0  0
   21.6220   34.7720    7.4770 H   0  0  0  0  0  0  0  0  0  0  0  0
   29.8670   25.5550   16.9770 C   0  0  0  0  0  0  0  0  0  0  0  0
   28.3450   25.7220   17.0260 C   0  0  0  0  0  0  0  0  0  0  0  0
   27.6010   24.4020   16.8920 C   0  0  0  0  0  0  0  0  0  0  0  0
   26.1610   24.5190   17.3090 C   0  0  0  0  0  0  0  0  0  0  0  0
   25.8110   23.3730   18.2530 C   0  0  0  0  0  0  0  0  0  0  0  0
   24.9090   22.4060   17.5830 N   0  0  0  0  0  0  0  0  0  0  0  0
  1  5  1  0  0  0  0
  2  1  1  0  0  0  0
  2  3  2  0  0  0  0
  4  1  1  0  0  0  0
  6  5  1  6  0  0  0
  7 27  1  6  0  0  0
  7  6  1  0  0  0  0
  8  7  1  6  0  0  0
  8 13  1  0  0  0  0
  9 14  1  6  0  0  0
  9 16  1  0  0  0  0
  9 11  1  0  0  0  0
  9 10  1  0  0  0  0
 10 12  1  0  0  0  0
 11  8  1  0  0  0  0
 12 20  1  6  0  0  0
 12 13  1  0  0  0  0
 13 22  1  1  0  0  0
 15 14  1  0  0  0  0
 16 18  1  0  0  0  0
 17 16  2  0  0  0  0
 18 19  1  0  0  0  0
 20 21  1  0  0  0  0
 22 23  1  0  0  0  0
 23 26  2  0  0  0  0
 23 25  1  0  0  0  0
 24 22  1  0  0  0  0
 28 27  1  0  0  0  0
 29 30  1  0  0  0  0
 29  6  1  0  0  0  0
 31  2  1  0  0  0  0
 32 31  1  0  0  0  0
 33 32  1  0  0  0  0
 33 35  1  0  0  0  0
 34 36  1  0  0  0  0
 34 33  2  0  0  0  0
 36 37  1  0  0  0  0
 37 35  2  0  0  0  0
 38 36  1  0  0  0  0
 38 40  2  0  0  0  0
 39 38  1  0  0  0  0
 41 39  2  0  0  0  0
 41 43  1  0  0  0  0
 42 40  1  0  0  0  0
 43 42  2  0  0  0  0
 44 43  1  0  0  0  0
 45 44  1  0  0  0  0
 46 45  1  0  0  0  0
 47 48  1  0  0  0  0
 49 48  1  0  0  0  0
 49 50  1  0  0  0  0
 50 51  1  0  0  0  0
 52 51  1  0  0  0  0
M  END
>  <REMARK>
 VINA RESULT:    -4.841      4.111      8.378
 INTER + INTRA:         -14.538
 INTER:                  -8.504
 INTRA:                  -6.034
 UNBOUND:                -5.735
 SMILES CC(=O)N[C@@H]1[C@@H](O)C[C@](O)(C(=O)O)O[C@H]1C(O)[C@H](O)CNC(=O)OCc1cn(-c2ccc(CO)cn2)nn1
 SMILES IDX 21 1 22 2 23 3 20 5 18 6 16 7 15 8 9 9 8 10 14 11 6 12 5 13
 SMILES IDX 10 14 11 16 12 17 13 18 7 20 4 22 2 23 1 25 3 26 17 27 19 29
 SMILES IDX 24 31 25 32 26 33 27 34 38 35 28 36 37 37 29 38 30 39 36 40
 SMILES IDX 31 41 35 42 32 43 33 44 34 45
 H PARENT 21 4 10 15 13 19 7 21 4 24 17 28 19 30 34 46
 Flexibility Score: inf
  4 active torsions:
  status: ('A' for Active; 'I' for Inactive)
    1  A    between atoms: CA   and  CB  
    2  A    between atoms: CB   and  CG  
    3  A    between atoms: CG   and  CD  
    4  A    between atoms: CD   and  CE  

>  <TORSDO>
F 17

>  <BEGIN_>
RES LYS A 131

$$$$
ligand_59_pose_15_2HRL.pdbqt
 OpenBabel07062320523D

  6  5  0  0  0  0  0  0  0  0999 V2000
   33.1930   34.6630    9.2900 C   0  0  0  0  0  0  0  0  0  0  0  0
   32.0600   35.3600   10.0340 C   0  0  0  0  0  0  0  0  0  0  0  0
   30.8860   35.7060    9.1550 C   0  0  0  0  0  0  0  0  0  0  0  0
   30.4170   34.4850    8.3800 C   0  0  0  0  0  0  0  0  0  0  0  0
   28.9590   34.1920    8.6780 C   0  0  0  0  0  0  0  0  0  0  0  0
   28.0630   35.1270    7.9430 N   0  0  0  0  0  0  0  0  0  0  0  0
  1  2  1  0  0  0  0
  3  2  1  0  0  0  0
  4  5  1  0  0  0  0
  4  3  1  0  0  0  0
  6  5  1  0  0  0  0
M  END
>  <EGIN_R>
ES LYS A 135

>  <REMARK>
  4 active torsions:
  status: ('A' for Active; 'I' for Inactive)
    5  A    between atoms: CA   and  CB  
    6  A    between atoms: CB   and  CG  
    7  A    between atoms: CG   and  CD  
    8  A    between atoms: CD   and  CE  

$$$$
