ligand_60_pose_8_2HRL.pdbqt
 OpenBabel07062320523D

 55 56  0  0  1  0  0  0  0  0999 V2000
   23.3190   37.5640    8.6930 N   0  0  0  0  0  0  0  0  0  0  0  0
   22.7110   36.3010    8.6440 C   0  0  0  0  0  0  0  0  0  0  0  0
   21.7850   36.0700    7.8500 O   0  0  0  0  0  0  0  0  0  0  0  0
   24.1040   37.6950    9.3890 H   0  0  0  0  0  0  0  0  0  0  0  0
   22.9190   38.6370    7.8540 C   0  0  0  0  0  0  0  0  0  0  0  0
   24.0930   39.4000    7.2540 C   0  0  2  0  0  0  0  0  0  0  0  0
   25.3230   39.0820    8.0540 C   0  0  1  0  0  0  0  0  0  0  0  0
   26.5950   39.1860    7.3040 C   0  0  2  0  0  0  0  0  0  0  0  0
   27.4130   40.1050    5.3250 C   0  0  2  0  0  0  0  0  0  0  0  0
   28.7010   39.7570    6.0310 C   0  0  0  0  0  0  0  0  0  0  0  0
   26.2990   39.7710    6.0440 O   0  0  0  0  0  0  0  0  0  0  0  0
   28.7310   38.3530    6.5490 C   0  0  1  0  0  0  0  0  0  0  0  0
   27.3490   37.9460    7.0000 C   0  0  1  0  0  0  0  0  0  0  0  0
   27.3860   39.5560    4.0200 O   0  0  0  0  0  0  0  0  0  0  0  0
   26.5250   39.0970    3.8510 H   0  0  0  0  0  0  0  0  0  0  0  0
   27.4090   41.5800    5.1320 C   0  0  0  0  0  0  0  0  0  0  0  0
   27.2700   42.0230    3.9640 O   0  0  0  0  0  0  0  0  0  0  0  0
   27.5480   42.4950    6.1590 O   0  0  0  0  0  0  0  0  0  0  0  0
   28.0380   43.3740    6.0120 H   0  0  0  0  0  0  0  0  0  0  0  0
   29.2400   37.5300    5.5540 O   0  0  0  0  0  0  0  0  0  0  0  0
   29.9420   38.0530    5.0900 H   0  0  0  0  0  0  0  0  0  0  0  0
   27.3430   36.9040    7.9550 N   0  0  0  0  0  0  0  0  0  0  0  0
   27.5100   35.5460    7.6010 C   0  0  0  0  0  0  0  0  0  0  0  0
   27.2320   37.1190    8.9650 H   0  0  0  0  0  0  0  0  0  0  0  0
   27.5000   34.4480    8.6300 C   0  0  0  0  0  0  0  0  0  0  0  0
   27.6680   35.2740    6.3970 O   0  0  0  0  0  0  0  0  0  0  0  0
   25.3180   39.5070    9.3560 O   0  0  0  0  0  0  0  0  0  0  0  0
   24.3910   39.5340    9.6830 H   0  0  0  0  0  0  0  0  0  0  0  0
   23.7640   40.7270    7.1720 O   0  0  0  0  0  0  0  0  0  0  0  0
   24.3680   41.1940    6.5310 H   0  0  0  0  0  0  0  0  0  0  0  0
   23.1060   35.2430    9.4770 O   0  0  0  0  0  0  0  0  0  0  0  0
   23.2890   35.4330   10.8450 C   0  0  0  0  0  0  0  0  0  0  0  0
   24.7110   35.6420   11.1950 C   0  0  0  0  0  0  0  0  0  0  0  0
   25.5270   34.9360   12.0460 C   0  0  0  0  0  0  0  0  0  0  0  0
   25.4880   36.6340   10.6890 N   0  0  0  0  0  0  0  0  0  0  0  0
   26.7540   35.4880   12.0510 N   0  0  0  0  0  0  0  0  0  0  0  0
   26.6920   36.5100   11.2210 N   0  0  0  0  0  0  0  0  0  0  0  0
   27.9080   35.0880   12.7820 C   0  0  0  0  0  0  0  0  0  0  0  0
   29.1310   34.9170   12.1710 C   0  0  0  0  0  0  0  0  0  0  0  0
   27.8470   34.8520   14.1440 C   0  0  0  0  0  0  0  0  0  0  0  0
   30.2570   34.5310   12.8650 C   0  0  0  0  0  0  0  0  0  0  0  0
   28.9720   34.4650   14.8410 C   0  0  0  0  0  0  0  0  0  0  0  0
   30.2010   34.2900   14.2420 C   0  0  0  0  0  0  0  0  0  0  0  0
   31.6320   33.7980   15.1180 S   0  0  0  0  0  0  0  0  0  0  0  0
   31.5990   34.4930   16.4500 O   0  0  0  0  0  0  0  0  0  0  0  0
   31.5370   32.3160   15.3990 O   0  0  0  0  0  0  0  0  0  0  0  0
   33.0820   34.1690   14.2850 N   0  0  0  0  0  0  0  0  0  0  0  0
   33.9440   34.0170   14.8200 H   0  0  0  0  0  0  0  0  0  0  0  0
   33.1170   33.7320   13.3370 H   0  0  0  0  0  0  0  0  0  0  0  0
   29.8670   25.5550   16.9770 C   0  0  0  0  0  0  0  0  0  0  0  0
   28.3450   25.7220   17.0260 C   0  0  0  0  0  0  0  0  0  0  0  0
   27.6010   24.4020   16.8920 C   0  0  0  0  0  0  0  0  0  0  0  0
   26.6230   24.1870   18.0140 C   0  0  0  0  0  0  0  0  0  0  0  0
   25.3730   23.4990   17.4750 C   0  0  0  0  0  0  0  0  0  0  0  0
   24.4600   24.4900   16.8590 N   0  0  0  0  0  0  0  0  0  0  0  0
  1  4  1  0  0  0  0
  2  1  1  0  0  0  0
  2 31  1  0  0  0  0
  3  2  2  0  0  0  0
  5  1  1  0  0  0  0
  6  5  1  1  0  0  0
  6  7  1  0  0  0  0
  7 27  1  1  0  0  0
  8  7  1  6  0  0  0
  9 14  1  6  0  0  0
  9 10  1  0  0  0  0
  9 11  1  0  0  0  0
 10 12  1  0  0  0  0
 11  8  1  0  0  0  0
 12 20  1  6  0  0  0
 12 13  1  0  0  0  0
 13  8  1  0  0  0  0
 13 22  1  1  0  0  0
 15 14  1  0  0  0  0
 16  9  1  0  0  0  0
 16 18  1  0  0  0  0
 17 16  2  0  0  0  0
 19 18  1  0  0  0  0
 21 20  1  0  0  0  0
 22 24  1  0  0  0  0
 23 22  1  0  0  0  0
 23 25  1  0  0  0  0
 26 23  2  0  0  0  0
 27 28  1  0  0  0  0
 29  6  1  0  0  0  0
 30 29  1  0  0  0  0
 31 32  1  0  0  0  0
 32 33  1  0  0  0  0
 33 34  2  0  0  0  0
 34 36  1  0  0  0  0
 35 33  1  0  0  0  0
 35 37  2  0  0  0  0
 36 38  1  0  0  0  0
 37 36  1  0  0  0  0
 38 40  1  0  0  0  0
 39 38  2  0  0  0  0
 39 41  1  0  0  0  0
 40 42  2  0  0  0  0
 41 43  2  0  0  0  0
 43 42  1  0  0  0  0
 43 44  1  0  0  0  0
 44 46  2  0  0  0  0
 44 45  2  0  0  0  0
 47 48  1  0  0  0  0
 47 44  1  0  0  0  0
 49 47  1  0  0  0  0
 50 51  1  0  0  0  0
 52 51  1  0  0  0  0
 52 53  1  0  0  0  0
 54 53  1  0  0  0  0
 55 54  1  0  0  0  0
M  END
>  <REMARK>
 VINA RESULT:    -4.948      6.102     13.687
 INTER + INTRA:         -14.961
 INTER:                  -9.836
 INTRA:                  -5.125
 UNBOUND:                -5.964
 SMILES CC(=O)N[C@@H]1[C@@H](O)C[C@](O)(C(=O)O)O[C@H]1C(O)[C@H](O)CNC(=O)OCc1cn(-c2ccc(S(N)(=O)=O)cc2)nn1
 SMILES IDX 21 1 22 2 23 3 20 5 18 6 16 7 15 8 9 9 8 10 14 11 6 12 5 13
 SMILES IDX 10 14 11 16 12 17 13 18 7 20 4 22 2 23 1 25 3 26 17 27 19 29
 SMILES IDX 24 31 25 32 26 33 27 34 40 35 28 36 39 37 29 38 30 39 38 40
 SMILES IDX 31 41 37 42 32 43 33 44 35 45 36 46 34 47
 H PARENT 21 4 10 15 13 19 7 21 4 24 17 28 19 30 34 48 34 49
 Flexibility Score: inf
  4 active torsions:
  status: ('A' for Active; 'I' for Inactive)
    1  A    between atoms: CA   and  CB  
    2  A    between atoms: CB   and  CG  
    3  A    between atoms: CG   and  CD  
    4  A    between atoms: CD   and  CE  

>  <TORSDO>
F 17

>  <BEGIN_>
RES LYS A 131

$$$$
ligand_60_pose_8_2HRL.pdbqt
 OpenBabel07062320523D

  6  5  0  0  0  0  0  0  0  0999 V2000
   33.1930   34.6630    9.2900 C   0  0  0  0  0  0  0  0  0  0  0  0
   32.0600   35.3600   10.0340 C   0  0  0  0  0  0  0  0  0  0  0  0
   30.9250   35.7870    9.1400 C   0  0  0  0  0  0  0  0  0  0  0  0
   30.6370   37.2700    9.3090 C   0  0  0  0  0  0  0  0  0  0  0  0
   31.1150   37.7550   10.6640 C   0  0  0  0  0  0  0  0  0  0  0  0
   30.0040   38.3790   11.4340 N   0  0  0  0  0  0  0  0  0  0  0  0
  1  2  1  0  0  0  0
  3  4  1  0  0  0  0
  3  2  1  0  0  0  0
  4  5  1  0  0  0  0
  5  6  1  0  0  0  0
M  END
>  <EGIN_R>
ES LYS A 135

>  <REMARK>
  4 active torsions:
  status: ('A' for Active; 'I' for Inactive)
    5  A    between atoms: CA   and  CB  
    6  A    between atoms: CB   and  CG  
    7  A    between atoms: CG   and  CD  
    8  A    between atoms: CD   and  CE  

$$$$
