ligand_38_pose_6_2HRL.pdbqt
 OpenBabel07062320523D

 51 52  0  0  1  0  0  0  0  0999 V2000
   29.7660   30.5480   17.8330 N   0  0  0  0  0  0  0  0  0  0  0  0
   28.7130   30.9400   18.6920 C   0  0  0  0  0  0  0  0  0  0  0  0
   27.7610   31.6700   18.2630 O   0  0  0  0  0  0  0  0  0  0  0  0
   30.5240   29.9510   18.2260 H   0  0  0  0  0  0  0  0  0  0  0  0
   29.7100   31.0060   16.4710 C   0  0  0  0  0  0  0  0  0  0  0  0
   30.7350   32.1210   16.2160 C   0  0  2  0  0  0  0  0  0  0  0  0
   29.9420   33.3720   16.0750 C   0  0  2  0  0  0  0  0  0  0  0  0
   30.6230   34.5160   15.3820 C   0  0  2  0  0  0  0  0  0  0  0  0
   31.0580   35.1240   13.1690 C   0  0  2  0  0  0  0  0  0  0  0  0
   32.3130   35.8100   13.6750 C   0  0  0  0  0  0  0  0  0  0  0  0
   30.6910   34.1270   14.0380 O   0  0  0  0  0  0  0  0  0  0  0  0
   32.9450   35.0150   14.8070 C   0  0  1  0  0  0  0  0  0  0  0  0
   31.9150   34.9580   15.9510 C   0  0  1  0  0  0  0  0  0  0  0  0
   31.4500   34.4630   11.9850 O   0  0  0  0  0  0  0  0  0  0  0  0
   32.0260   33.6960   12.1670 H   0  0  0  0  0  0  0  0  0  0  0  0
   30.0000   36.0730   12.8140 C   0  0  0  0  0  0  0  0  0  0  0  0
   28.9550   35.6720   12.2510 O   0  0  0  0  0  0  0  0  0  0  0  0
   30.0880   37.4340   13.0720 O   0  0  0  0  0  0  0  0  0  0  0  0
   30.8610   37.9540   12.7050 H   0  0  0  0  0  0  0  0  0  0  0  0
   33.3330   33.7670   14.3940 O   0  0  0  0  0  0  0  0  0  0  0  0
   32.5370   33.3020   13.9830 H   0  0  0  0  0  0  0  0  0  0  0  0
   31.8490   36.3440   16.4320 N   0  0  0  0  0  0  0  0  0  0  0  0
   31.6120   36.6430   17.8000 C   0  0  0  0  0  0  0  0  0  0  0  0
   31.9700   37.1640   15.7990 H   0  0  0  0  0  0  0  0  0  0  0  0
   31.5450   38.0730   18.2720 C   0  0  0  0  0  0  0  0  0  0  0  0
   31.4520   35.7500   18.6480 O   0  0  0  0  0  0  0  0  0  0  0  0
   29.7160   33.8360   17.3990 O   0  0  0  0  0  0  0  0  0  0  0  0
   29.5320   33.0070   17.9250 H   0  0  0  0  0  0  0  0  0  0  0  0
   31.4240   31.7430   15.0670 O   0  0  0  0  0  0  0  0  0  0  0  0
   31.3360   32.4600   14.4030 H   0  0  0  0  0  0  0  0  0  0  0  0
   28.6440   30.5690   20.0270 O   0  0  0  0  0  0  0  0  0  0  0  0
   29.1500   29.3440   20.5270 C   0  0  0  0  0  0  0  0  0  0  0  0
   30.5730   29.4740   20.9400 C   0  0  0  0  0  0  0  0  0  0  0  0
   31.0410   30.0890   22.1070 C   0  0  0  0  0  0  0  0  0  0  0  0
   31.6810   29.0450   20.3100 N   0  0  0  0  0  0  0  0  0  0  0  0
   32.3750   30.0040   22.1240 N   0  0  0  0  0  0  0  0  0  0  0  0
   32.7390   29.3680   21.0260 N   0  0  0  0  0  0  0  0  0  0  0  0
   33.2980   30.4960   23.1230 C   0  0  0  0  0  0  0  0  0  0  0  0
   34.3260   31.3620   22.4890 C   0  0  0  0  0  0  0  0  0  0  0  0
   35.6450   30.9700   22.4210 C   0  0  0  0  0  0  0  0  0  0  0  0
   33.9710   32.5710   21.9580 C   0  0  0  0  0  0  0  0  0  0  0  0
   36.6130   31.7820   21.8260 C   0  0  0  0  0  0  0  0  0  0  0  0
   34.9290   33.3900   21.3620 C   0  0  0  0  0  0  0  0  0  0  0  0
   36.2540   32.9910   21.2960 C   0  0  0  0  0  0  0  0  0  0  0  0
   34.3990   35.0630   20.6360 Br  0  0  0  0  0  0  0  0  0  0  0  0
   29.8670   25.5550   16.9770 C   0  0  0  0  0  0  0  0  0  0  0  0
   28.3450   25.7220   17.0260 C   0  0  0  0  0  0  0  0  0  0  0  0
   27.6010   24.4060   16.8590 C   0  0  0  0  0  0  0  0  0  0  0  0
   26.1690   24.5050   17.3060 C   0  0  0  0  0  0  0  0  0  0  0  0
   25.6310   23.1090   17.6030 C   0  0  0  0  0  0  0  0  0  0  0  0
   25.3450   22.9590   19.0490 N   0  0  0  0  0  0  0  0  0  0  0  0
  1  4  1  0  0  0  0
  1  2  1  0  0  0  0
  2 31  1  0  0  0  0
  3  2  2  0  0  0  0
  5  1  1  0  0  0  0
  6  5  1  6  0  0  0
  7  6  1  0  0  0  0
  7 27  1  1  0  0  0
  8 13  1  0  0  0  0
  8  7  1  1  0  0  0
  9 14  1  6  0  0  0
  9 10  1  0  0  0  0
  9 11  1  0  0  0  0
 10 12  1  0  0  0  0
 11  8  1  0  0  0  0
 12 20  1  6  0  0  0
 12 13  1  0  0  0  0
 13 22  1  6  0  0  0
 14 15  1  0  0  0  0
 16 18  1  0  0  0  0
 16  9  1  0  0  0  0
 17 16  2  0  0  0  0
 19 18  1  0  0  0  0
 21 20  1  0  0  0  0
 22 23  1  0  0  0  0
 23 25  1  0  0  0  0
 23 26  2  0  0  0  0
 24 22  1  0  0  0  0
 27 28  1  0  0  0  0
 29  6  1  0  0  0  0
 30 29  1  0  0  0  0
 31 32  1  0  0  0  0
 32 33  1  0  0  0  0
 33 34  2  0  0  0  0
 34 36  1  0  0  0  0
 35 33  1  0  0  0  0
 35 37  2  0  0  0  0
 36 38  1  0  0  0  0
 37 36  1  0  0  0  0
 39 38  1  0  0  0  0
 40 39  1  0  0  0  0
 41 39  2  0  0  0  0
 42 40  2  0  0  0  0
 43 41  1  0  0  0  0
 44 43  2  0  0  0  0
 44 42  1  0  0  0  0
 45 43  1  0  0  0  0
 46 47  1  0  0  0  0
 48 47  1  0  0  0  0
 48 49  1  0  0  0  0
 49 50  1  0  0  0  0
 50 51  1  0  0  0  0
M  END
>  <REMARK>
 VINA RESULT:    -4.737      4.869      8.162
 INTER + INTRA:         -14.770
 INTER:                  -8.891
 INTRA:                  -5.879
 UNBOUND:                -6.295
 SMILES CC(=O)N[C@@H]1[C@@H](O)C[C@](O)(C(=O)O)O[C@H]1C(O)[C@H](O)CNC(=O)OCc1cn(Cc2cccc(Br)c2)nn1
 SMILES IDX 21 1 22 2 23 3 20 5 18 6 16 7 15 8 9 9 8 10 14 11 6 12 5 13
 SMILES IDX 10 14 11 16 12 17 13 18 7 20 4 22 2 23 1 25 3 26 17 27 19 29
 SMILES IDX 24 31 25 32 26 33 27 34 38 35 28 36 37 37 29 38 30 39 31 40
 SMILES IDX 36 41 32 42 34 43 33 44 35 45
 H PARENT 21 4 10 15 13 19 7 21 4 24 17 28 19 30
 Flexibility Score: inf
  4 active torsions:
  status: ('A' for Active; 'I' for Inactive)
    1  A    between atoms: CA   and  CB  
    2  A    between atoms: CB   and  CG  
    3  A    between atoms: CG   and  CD  
    4  A    between atoms: CD   and  CE  

>  <TORSDO>
F 16

>  <BEGIN_>
RES LYS A 131

$$$$
ligand_38_pose_6_2HRL.pdbqt
 OpenBabel07062320523D

  6  5  0  0  0  0  0  0  0  0999 V2000
   33.1930   34.6630    9.2900 C   0  0  0  0  0  0  0  0  0  0  0  0
   32.0600   35.3600   10.0340 C   0  0  0  0  0  0  0  0  0  0  0  0
   30.8550   35.6370    9.1730 C   0  0  0  0  0  0  0  0  0  0  0  0
   30.2240   34.3370    8.6980 C   0  0  0  0  0  0  0  0  0  0  0  0
   28.7930   34.5710    8.2530 C   0  0  0  0  0  0  0  0  0  0  0  0
   28.2300   35.7990    8.8800 N   0  0  0  0  0  0  0  0  0  0  0  0
  1  2  1  0  0  0  0
  3  2  1  0  0  0  0
  4  3  1  0  0  0  0
  5  4  1  0  0  0  0
  5  6  1  0  0  0  0
M  END
>  <EGIN_R>
ES LYS A 135

>  <REMARK>
  4 active torsions:
  status: ('A' for Active; 'I' for Inactive)
    5  A    between atoms: CA   and  CB  
    6  A    between atoms: CB   and  CG  
    7  A    between atoms: CG   and  CD  
    8  A    between atoms: CD   and  CE  

$$$$
