ligand_46_pose_8_2HRL.pdbqt
 OpenBabel07062320523D

 50 51  0  0  1  0  0  0  0  0999 V2000
   27.1620   33.0290   18.8610 N   0  0  0  0  0  0  0  0  0  0  0  0
   25.9640   32.6220   19.4820 C   0  0  0  0  0  0  0  0  0  0  0  0
   25.9210   32.2560   20.6670 O   0  0  0  0  0  0  0  0  0  0  0  0
   27.0720   33.3220   17.8530 H   0  0  0  0  0  0  0  0  0  0  0  0
   28.4240   33.0510   19.5320 C   0  0  0  0  0  0  0  0  0  0  0  0
   29.3440   32.0170   18.9240 C   0  0  2  0  0  0  0  0  0  0  0  0
   29.2090   30.6880   19.6090 C   0  0  2  0  0  0  0  0  0  0  0  0
   28.5280   29.6390   18.7620 C   0  0  2  0  0  0  0  0  0  0  0  0
   26.3950   29.4900   17.8180 C   0  0  2  0  0  0  0  0  0  0  0  0
   26.7420   28.0110   17.5840 C   0  0  0  0  0  0  0  0  0  0  0  0
   27.5810   30.1520   17.9290 O   0  0  0  0  0  0  0  0  0  0  0  0
   27.1650   27.5210   18.9670 C   0  0  1  0  0  0  0  0  0  0  0  0
   28.1420   28.4790   19.6100 C   0  0  1  0  0  0  0  0  0  0  0  0
   25.5330   29.6200   18.8870 O   0  0  0  0  0  0  0  0  0  0  0  0
   25.5670   28.7960   19.4180 H   0  0  0  0  0  0  0  0  0  0  0  0
   25.7360   29.9690   16.5510 C   0  0  0  0  0  0  0  0  0  0  0  0
   24.4960   29.9480   16.4090 O   0  0  0  0  0  0  0  0  0  0  0  0
   26.5070   30.4460   15.5070 O   0  0  0  0  0  0  0  0  0  0  0  0
   26.2240   30.2360   14.5640 H   0  0  0  0  0  0  0  0  0  0  0  0
   25.9870   27.4120   19.7060 O   0  0  0  0  0  0  0  0  0  0  0  0
   25.7610   28.2910   20.0820 H   0  0  0  0  0  0  0  0  0  0  0  0
   29.3890   27.7600   19.9330 N   0  0  0  0  0  0  0  0  0  0  0  0
   29.8600   27.6080   21.2600 C   0  0  0  0  0  0  0  0  0  0  0  0
   29.9610   27.3380   19.1460 H   0  0  0  0  0  0  0  0  0  0  0  0
   31.1060   26.8950   21.6340 C   0  0  0  0  0  0  0  0  0  0  0  0
   29.1780   28.1090   22.1880 O   0  0  0  0  0  0  0  0  0  0  0  0
   28.5950   30.8670   20.8340 O   0  0  0  0  0  0  0  0  0  0  0  0
   28.0440   30.0710   21.0240 H   0  0  0  0  0  0  0  0  0  0  0  0
   30.6310   32.5450   19.0350 O   0  0  0  0  0  0  0  0  0  0  0  0
   31.2750   32.1150   18.4290 H   0  0  0  0  0  0  0  0  0  0  0  0
   24.7640   32.6190   18.7710 O   0  0  0  0  0  0  0  0  0  0  0  0
   24.4070   33.7450   18.0050 C   0  0  0  0  0  0  0  0  0  0  0  0
   24.6680   33.5300   16.5610 C   0  0  0  0  0  0  0  0  0  0  0  0
   23.7230   33.4150   15.5780 C   0  0  0  0  0  0  0  0  0  0  0  0
   25.8650   33.4110   15.9790 N   0  0  0  0  0  0  0  0  0  0  0  0
   24.3740   33.2280   14.4180 N   0  0  0  0  0  0  0  0  0  0  0  0
   25.6820   33.2290   14.6950 N   0  0  0  0  0  0  0  0  0  0  0  0
   23.8310   33.0520   13.0950 C   0  0  0  0  0  0  0  0  0  0  0  0
   23.3030   31.6730   12.9110 C   0  0  0  0  0  0  0  0  0  0  0  0
   21.9570   31.4460   12.6470 C   0  0  0  0  0  0  0  0  0  0  0  0
   24.1120   30.5670   12.9920 C   0  0  0  0  0  0  0  0  0  0  0  0
   21.4750   30.1710   12.4780 C   0  0  0  0  0  0  0  0  0  0  0  0
   23.6360   29.2790   12.8230 C   0  0  0  0  0  0  0  0  0  0  0  0
   22.3020   29.0700   12.5620 C   0  0  0  0  0  0  0  0  0  0  0  0
   29.8670   25.5550   16.9770 C   0  0  0  0  0  0  0  0  0  0  0  0
   28.3450   25.7220   17.0260 C   0  0  0  0  0  0  0  0  0  0  0  0
   27.6010   24.4020   16.8900 C   0  0  0  0  0  0  0  0  0  0  0  0
   26.1530   24.5270   17.2740 C   0  0  0  0  0  0  0  0  0  0  0  0
   25.9160   23.8200   18.6050 C   0  0  0  0  0  0  0  0  0  0  0  0
   24.6100   24.2210   19.1800 N   0  0  0  0  0  0  0  0  0  0  0  0
  1  2  1  0  0  0  0
  1  5  1  0  0  0  0
  2  3  2  0  0  0  0
  4  1  1  0  0  0  0
  6 29  1  0  0  0  0
  6  5  1  1  0  0  0
  6  7  1  0  0  0  0
  7 27  1  1  0  0  0
  8  7  1  1  0  0  0
  8 13  1  0  0  0  0
  9 16  1  6  0  0  0
  9 11  1  0  0  0  0
  9 14  1  0  0  0  0
 10  9  1  0  0  0  0
 10 12  1  0  0  0  0
 11  8  1  0  0  0  0
 12 13  1  0  0  0  0
 12 20  1  1  0  0  0
 13 22  1  6  0  0  0
 14 15  1  0  0  0  0
 17 16  2  0  0  0  0
 18 16  1  0  0  0  0
 19 18  1  0  0  0  0
 20 21  1  0  0  0  0
 22 23  1  0  0  0  0
 23 25  1  0  0  0  0
 23 26  2  0  0  0  0
 24 22  1  0  0  0  0
 27 28  1  0  0  0  0
 30 29  1  0  0  0  0
 31  2  1  0  0  0  0
 32 31  1  0  0  0  0
 33 32  1  0  0  0  0
 34 33  2  0  0  0  0
 35 33  1  0  0  0  0
 36 37  1  0  0  0  0
 36 34  1  0  0  0  0
 37 35  2  0  0  0  0
 38 36  1  0  0  0  0
 39 41  1  0  0  0  0
 39 38  1  0  0  0  0
 40 39  2  0  0  0  0
 42 44  2  0  0  0  0
 42 40  1  0  0  0  0
 43 41  2  0  0  0  0
 44 43  1  0  0  0  0
 45 46  1  0  0  0  0
 47 46  1  0  0  0  0
 47 48  1  0  0  0  0
 48 49  1  0  0  0  0
 49 50  1  0  0  0  0
M  END
>  <REMARK>
 VINA RESULT:    -5.377      7.350     12.067
 INTER + INTRA:         -14.911
 INTER:                  -7.726
 INTRA:                  -7.185
 UNBOUND:                -5.290
 SMILES CC(=O)N[C@@H]1[C@@H](O)C[C@](O)(C(=O)O)O[C@H]1C(O)[C@H](O)CNC(=O)OCc1cn(Cc2ccccc2)nn1
 SMILES IDX 21 1 22 2 23 3 20 5 18 6 16 7 15 8 9 9 8 10 14 11 6 12 5 13
 SMILES IDX 10 14 11 16 12 17 13 18 7 20 4 22 2 23 1 25 3 26 17 27 19 29
 SMILES IDX 24 31 25 32 26 33 27 34 37 35 28 36 36 37 29 38 30 39 31 40
 SMILES IDX 35 41 32 42 34 43 33 44
 H PARENT 21 4 10 15 13 19 7 21 4 24 17 28 19 30
 Flexibility Score: inf
  4 active torsions:
  status: ('A' for Active; 'I' for Inactive)
    1  A    between atoms: CA   and  CB  
    2  A    between atoms: CB   and  CG  
    3  A    between atoms: CG   and  CD  
    4  A    between atoms: CD   and  CE  

>  <TORSDO>
F 16

>  <BEGIN_>
RES LYS A 131

$$$$
ligand_46_pose_8_2HRL.pdbqt
 OpenBabel07062320523D

  6  5  0  0  0  0  0  0  0  0999 V2000
   33.1930   34.6630    9.2900 C   0  0  0  0  0  0  0  0  0  0  0  0
   32.0600   35.3600   10.0340 C   0  0  0  0  0  0  0  0  0  0  0  0
   30.7330   34.6560    9.9070 C   0  0  0  0  0  0  0  0  0  0  0  0
   30.3350   34.5220    8.4460 C   0  0  0  0  0  0  0  0  0  0  0  0
   28.8250   34.5540    8.3000 C   0  0  0  0  0  0  0  0  0  0  0  0
   28.1630   33.8270    9.4190 N   0  0  0  0  0  0  0  0  0  0  0  0
  1  2  1  0  0  0  0
  3  2  1  0  0  0  0
  4  3  1  0  0  0  0
  5  4  1  0  0  0  0
  5  6  1  0  0  0  0
M  END
>  <EGIN_R>
ES LYS A 135

>  <REMARK>
  4 active torsions:
  status: ('A' for Active; 'I' for Inactive)
    5  A    between atoms: CA   and  CB  
    6  A    between atoms: CB   and  CG  
    7  A    between atoms: CG   and  CD  
    8  A    between atoms: CD   and  CE  

$$$$
