ligand_29_pose_15_2HRL.pdbqt
 OpenBabel07062320523D

 54 55  0  0  1  0  0  0  0  0999 V2000
   26.9900   26.6780   22.6390 N   0  0  0  0  0  0  0  0  0  0  0  0
   25.9250   25.8230   22.3240 C   0  0  0  0  0  0  0  0  0  0  0  0
   25.5870   24.8940   23.0890 O   0  0  0  0  0  0  0  0  0  0  0  0
   27.2200   27.4380   21.9280 H   0  0  0  0  0  0  0  0  0  0  0  0
   27.8030   26.6200   23.8410 C   0  0  0  0  0  0  0  0  0  0  0  0
   29.0290   27.4480   23.6920 C   0  0  2  0  0  0  0  0  0  0  0  0
   30.2840   26.6590   23.4120 C   0  0  2  0  0  0  0  0  0  0  0  0
   30.9980   27.0430   22.1600 C   0  0  2  0  0  0  0  0  0  0  0  0
   32.6810   28.5240   22.8050 C   0  0  2  0  0  0  0  0  0  0  0  0
   32.6790   29.3150   21.5050 C   0  0  0  0  0  0  0  0  0  0  0  0
   32.3560   27.2320   22.4900 O   0  0  0  0  0  0  0  0  0  0  0  0
   31.7150   28.6780   20.5450 C   0  0  1  0  0  0  0  0  0  0  0  0
   30.4630   28.1180   21.3160 C   0  0  1  0  0  0  0  0  0  0  0  0
   31.8660   29.1220   23.7600 O   0  0  0  0  0  0  0  0  0  0  0  0
   31.4130   28.4590   24.3440 H   0  0  0  0  0  0  0  0  0  0  0  0
   34.0620   28.5230   23.3680 C   0  0  0  0  0  0  0  0  0  0  0  0
   34.4820   27.4890   23.9400 O   0  0  0  0  0  0  0  0  0  0  0  0
   34.9040   29.6220   23.2860 O   0  0  0  0  0  0  0  0  0  0  0  0
   35.9220   29.5240   23.1810 H   0  0  0  0  0  0  0  0  0  0  0  0
   31.2660   29.5700   19.5760 O   0  0  0  0  0  0  0  0  0  0  0  0
   31.6950   30.4470   19.6690 H   0  0  0  0  0  0  0  0  0  0  0  0
   29.6380   27.5930   20.2180 N   0  0  0  0  0  0  0  0  0  0  0  0
   28.2890   27.9580   19.9980 C   0  0  0  0  0  0  0  0  0  0  0  0
   30.0480   26.8960   19.5290 H   0  0  0  0  0  0  0  0  0  0  0  0
   27.4780   27.4080   18.8820 C   0  0  0  0  0  0  0  0  0  0  0  0
   27.7370   28.7810   20.7700 O   0  0  0  0  0  0  0  0  0  0  0  0
   29.8650   25.2850   23.1870 O   0  0  0  0  0  0  0  0  0  0  0  0
   30.5230   24.8860   22.5680 H   0  0  0  0  0  0  0  0  0  0  0  0
   29.1810   28.4770   24.5840 O   0  0  0  0  0  0  0  0  0  0  0  0
   30.0570   28.5140   25.0120 H   0  0  0  0  0  0  0  0  0  0  0  0
   25.1950   25.9850   21.1260 O   0  0  0  0  0  0  0  0  0  0  0  0
   23.9950   26.7710   21.1810 C   0  0  0  0  0  0  0  0  0  0  0  0
   24.2430   28.1550   20.7820 C   0  0  0  0  0  0  0  0  0  0  0  0
   24.3150   28.6370   19.5000 C   0  0  0  0  0  0  0  0  0  0  0  0
   24.4350   29.1910   21.6140 N   0  0  0  0  0  0  0  0  0  0  0  0
   24.5470   29.9430   19.5730 N   0  0  0  0  0  0  0  0  0  0  0  0
   24.6160   30.2600   20.8490 N   0  0  0  0  0  0  0  0  0  0  0  0
   24.7080   30.8760   18.4640 C   0  0  0  0  0  0  0  0  0  0  0  0
   26.1390   30.8410   18.0280 C   0  0  0  0  0  0  0  0  0  0  0  0
   27.1120   31.4270   18.8370 C   0  0  0  0  0  0  0  0  0  0  0  0
   26.5450   30.2420   16.8550 C   0  0  0  0  0  0  0  0  0  0  0  0
   28.4380   31.4100   18.4780 C   0  0  0  0  0  0  0  0  0  0  0  0
   27.8700   30.2090   16.4660 C   0  0  0  0  0  0  0  0  0  0  0  0
   28.7990   30.7970   17.2920 C   0  0  0  0  0  0  0  0  0  0  0  0
   29.4200   31.9920   19.2740 O   0  0  0  0  0  0  0  0  0  0  0  0
   29.1800   32.1000   20.6670 C   0  0  0  0  0  0  0  0  0  0  0  0
   30.1390   30.7860   16.9380 O   0  0  0  0  0  0  0  0  0  0  0  0
   30.6810   31.7160   16.0190 C   0  0  0  0  0  0  0  0  0  0  0  0
   29.8670   25.5550   16.9770 C   0  0  0  0  0  0  0  0  0  0  0  0
   28.3450   25.7220   17.0260 C   0  0  0  0  0  0  0  0  0  0  0  0
   27.6010   24.4020   16.8940 C   0  0  0  0  0  0  0  0  0  0  0  0
   26.1540   24.5260   17.2840 C   0  0  0  0  0  0  0  0  0  0  0  0
   25.8750   23.6390   18.4930 C   0  0  0  0  0  0  0  0  0  0  0  0
   24.4170   23.5560   18.7500 N   0  0  0  0  0  0  0  0  0  0  0  0
  1  5  1  0  0  0  0
  2  1  1  0  0  0  0
  2  3  2  0  0  0  0
  4  1  1  0  0  0  0
  6  5  1  1  0  0  0
  6 29  1  0  0  0  0
  7 27  1  6  0  0  0
  7  6  1  0  0  0  0
  8 11  1  0  0  0  0
  8  7  1  1  0  0  0
  9 16  1  1  0  0  0
  9 14  1  0  0  0  0
 10  9  1  0  0  0  0
 11  9  1  0  0  0  0
 12 20  1  6  0  0  0
 12 13  1  0  0  0  0
 12 10  1  0  0  0  0
 13 22  1  6  0  0  0
 13  8  1  0  0  0  0
 14 15  1  0  0  0  0
 16 17  2  0  0  0  0
 18 16  1  0  0  0  0
 19 18  1  0  0  0  0
 20 21  1  0  0  0  0
 23 22  1  0  0  0  0
 23 26  2  0  0  0  0
 24 22  1  0  0  0  0
 25 23  1  0  0  0  0
 28 27  1  0  0  0  0
 29 30  1  0  0  0  0
 31 32  1  0  0  0  0
 31  2  1  0  0  0  0
 33 32  1  0  0  0  0
 33 35  1  0  0  0  0
 34 36  1  0  0  0  0
 34 33  2  0  0  0  0
 36 37  1  0  0  0  0
 37 35  2  0  0  0  0
 38 36  1  0  0  0  0
 39 38  1  0  0  0  0
 39 40  2  0  0  0  0
 41 39  1  0  0  0  0
 42 40  1  0  0  0  0
 42 45  1  0  0  0  0
 43 41  2  0  0  0  0
 43 44  1  0  0  0  0
 44 42  2  0  0  0  0
 45 46  1  0  0  0  0
 47 44  1  0  0  0  0
 48 47  1  0  0  0  0
 49 50  1  0  0  0  0
 51 50  1  0  0  0  0
 51 52  1  0  0  0  0
 52 53  1  0  0  0  0
 53 54  1  0  0  0  0
M  END
>  <REMARK>
 VINA RESULT:    -4.942      4.033      8.153
 INTER + INTRA:         -14.538
 INTER:                  -7.243
 INTRA:                  -7.296
 UNBOUND:                -5.118
 SMILES COc1ccc(Cn2cc(COC(=O)NC[C@@H](O)C(O)[C@@H]3O[C@@](O)(C(=O)O)C[C@H](O)[C@H]3NC(C)=O)nn2)cc1OC
 SMILES IDX 15 1 13 2 14 3 16 5 17 6 19 7 21 8 23 9 28 10 22 11 29 12
 SMILES IDX 31 13 24 14 25 16 26 17 27 18 30 20 32 22 33 23 34 25 35 26
 SMILES IDX 20 27 18 29 12 31 11 32 10 33 9 34 36 35 8 36 37 37 7 38
 SMILES IDX 6 39 38 40 5 41 39 42 4 43 3 44 40 45 41 46 2 47 1 48
 H PARENT 15 4 24 15 27 19 30 21 32 24 20 28 18 30
 Flexibility Score: inf
  4 active torsions:
  status: ('A' for Active; 'I' for Inactive)
    1  A    between atoms: CA   and  CB  
    2  A    between atoms: CB   and  CG  
    3  A    between atoms: CG   and  CD  
    4  A    between atoms: CD   and  CE  

>  <TORSDO>
F 18

>  <BEGIN_>
RES LYS A 131

$$$$
ligand_29_pose_15_2HRL.pdbqt
 OpenBabel07062320523D

  6  5  0  0  0  0  0  0  0  0999 V2000
   33.1930   34.6630    9.2900 C   0  0  0  0  0  0  0  0  0  0  0  0
   32.0600   35.3600   10.0340 C   0  0  0  0  0  0  0  0  0  0  0  0
   30.7090   34.7360    9.7950 C   0  0  0  0  0  0  0  0  0  0  0  0
   30.4690   34.5290    8.3080 C   0  0  0  0  0  0  0  0  0  0  0  0
   29.0230   34.8230    7.9560 C   0  0  0  0  0  0  0  0  0  0  0  0
   28.9220   35.5280    6.6480 N   0  0  0  0  0  0  0  0  0  0  0  0
  1  2  1  0  0  0  0
  3  2  1  0  0  0  0
  4  3  1  0  0  0  0
  5  4  1  0  0  0  0
  6  5  1  0  0  0  0
M  END
>  <EGIN_R>
ES LYS A 135

>  <REMARK>
  4 active torsions:
  status: ('A' for Active; 'I' for Inactive)
    5  A    between atoms: CA   and  CB  
    6  A    between atoms: CB   and  CG  
    7  A    between atoms: CG   and  CD  
    8  A    between atoms: CD   and  CE  

$$$$
