ligand_80_pose_7_2HRL.pdbqt
 OpenBabel07062320523D

 56 54  0  0  1  0  0  0  0  0999 V2000
   18.6410   42.3520    7.7750 O   0  0  0  0  0  0  0  0  0  0  0  0
   18.1830   41.3440    6.9630 C   0  0  0  0  0  0  0  0  0  0  0  0
   17.3920   40.2800    7.5140 N   0  0  0  0  0  0  0  0  0  0  0  0
   17.1990   40.3350    8.5420 H   0  0  0  0  0  0  0  0  0  0  0  0
   18.4310   41.3080    5.7320 O   0  0  0  0  0  0  0  0  0  0  0  0
   16.8900   39.1940    6.6930 C   0  0  0  0  0  0  0  0  0  0  0  0
   17.4510   37.8980    7.2250 C   0  0  2  0  0  0  0  0  0  0  0  0
   17.3450   37.7960    8.7320 C   0  0  2  0  0  0  0  0  0  0  0  0
   17.8360   36.4210    9.2130 C   0  0  2  0  0  0  0  0  0  0  0  0
   19.9000   35.3070    9.2360 C   0  0  2  0  0  0  0  0  0  0  0  0
   19.1070   34.0520    9.0470 C   0  0  0  0  0  0  0  0  0  0  0  0
   19.1760   36.4670    9.2610 O   0  0  0  0  0  0  0  0  0  0  0  0
   18.1650   34.3170    7.8830 C   0  0  1  0  0  0  0  0  0  0  0  0
   17.2140   35.4070    8.3100 C   0  0  1  0  0  0  0  0  0  0  0  0
   20.7850   35.4310    8.1450 O   0  0  0  0  0  0  0  0  0  0  0  0
   21.4350   34.6900    8.2570 H   0  0  0  0  0  0  0  0  0  0  0  0
   20.7350   35.2680   10.4630 C   0  0  0  0  0  0  0  0  0  0  0  0
   20.2080   35.5060   11.5700 O   0  0  0  0  0  0  0  0  0  0  0  0
   22.0960   34.9720   10.4270 O   0  0  0  0  0  0  0  0  0  0  0  0
   22.4030   34.1800   11.0090 H   0  0  0  0  0  0  0  0  0  0  0  0
   18.9390   34.7880    6.8280 O   0  0  0  0  0  0  0  0  0  0  0  0
   19.2530   34.0040    6.3150 H   0  0  0  0  0  0  0  0  0  0  0  0
   16.1370   34.7620    9.0410 N   0  0  0  0  0  0  0  0  0  0  0  0
   14.7660   34.9010    8.7010 C   0  0  0  0  0  0  0  0  0  0  0  0
   16.3840   34.1510    9.8780 H   0  0  0  0  0  0  0  0  0  0  0  0
   13.7560   34.1940    9.5240 C   0  0  0  0  0  0  0  0  0  0  0  0
   14.4630   35.6210    7.7130 O   0  0  0  0  0  0  0  0  0  0  0  0
   15.9840   37.8950    9.0390 O   0  0  0  0  0  0  0  0  0  0  0  0
   15.7790   38.6200    9.6680 H   0  0  0  0  0  0  0  0  0  0  0  0
   18.7640   37.7080    6.8100 O   0  0  0  0  0  0  0  0  0  0  0  0
   18.8450   37.6100    5.8380 H   0  0  0  0  0  0  0  0  0  0  0  0
   20.0250   42.5470    8.0150 C   0  0  0  0  0  0  0  0  0  0  0  0
   20.7100   41.2580    8.2850 C   0  0  0  0  0  0  0  0  0  0  0  0
   22.0920   41.1170    8.4540 C   0  0  0  0  0  0  0  0  0  0  0  0
   20.2130   40.0150    8.4210 N   0  0  0  0  0  0  0  0  0  0  0  0
   22.3720   39.8220    8.6780 N   0  0  0  0  0  0  0  0  0  0  0  0
   21.2190   39.1910    8.6510 N   0  0  0  0  0  0  0  0  0  0  0  0
   23.6790   39.2420    8.8940 *   0  0  0  0  0  0  0  0  0  0  0  0
   23.6010   38.0380    9.7680 C   0  0  0  0  0  0  0  0  0  0  0  0
   24.1980   36.7580    9.6800 N   0  0  0  0  0  0  0  0  0  0  0  0
   22.8570   38.2230   10.7640 O   0  0  0  0  0  0  0  0  0  0  0  0
   23.8120   35.9800   10.2570 H   0  0  0  0  0  0  0  0  0  0  0  0
   25.3170   36.3730    8.8620 C   0  0  0  0  0  0  0  0  0  0  0  0
   26.0400   37.1800    8.0030 C   0  0  0  0  0  0  0  0  0  0  0  0
   25.6140   35.0360    9.0380 C   0  0  0  0  0  0  0  0  0  0  0  0
   27.0740   36.6270    7.3120 C   0  0  0  0  0  0  0  0  0  0  0  0
   26.6620   34.4790    8.3380 C   0  0  0  0  0  0  0  0  0  0  0  0
   27.3810   35.2830    7.4820 C   0  0  0  0  0  0  0  0  0  0  0  0
   25.8110   38.6260    7.7360 C   0  0  0  0  0  0  0  0  0  0  0  0
   24.3380   38.9550    7.5610 *   0  0  0  0  0  0  0  0  0  0  0  0
   29.8670   25.5550   16.9770 C   0  0  0  0  0  0  0  0  0  0  0  0
   28.3450   25.7220   17.0260 C   0  0  0  0  0  0  0  0  0  0  0  0
   27.6020   24.3980   16.9340 C   0  0  0  0  0  0  0  0  0  0  0  0
   26.2180   24.4840   17.5150 C   0  0  0  0  0  0  0  0  0  0  0  0
   25.6490   23.0790   17.6850 C   0  0  0  0  0  0  0  0  0  0  0  0
   25.0710   22.9140   19.0400 N   0  0  0  0  0  0  0  0  0  0  0  0
  1 32  1  0  0  0  0
  2  3  1  0  0  0  0
  2  1  1  0  0  0  0
  3  4  1  0  0  0  0
  5  2  2  0  0  0  0
  6  3  1  0  0  0  0
  7  6  1  1  0  0  0
  7  8  1  0  0  0  0
  8 28  1  6  0  0  0
  9  8  1  6  0  0  0
  9 12  1  0  0  0  0
 10 15  1  6  0  0  0
 10 12  1  0  0  0  0
 10 17  1  0  0  0  0
 11 10  1  0  0  0  0
 13 21  1  6  0  0  0
 13 14  1  0  0  0  0
 13 11  1  0  0  0  0
 14 23  1  1  0  0  0
 14  9  1  0  0  0  0
 15 16  1  0  0  0  0
 17 18  2  0  0  0  0
 19 17  1  0  0  0  0
 19 20  1  0  0  0  0
 22 21  1  0  0  0  0
 23 25  1  0  0  0  0
 24 23  1  0  0  0  0
 24 26  1  0  0  0  0
 27 24  2  0  0  0  0
 28 29  1  0  0  0  0
 30  7  1  0  0  0  0
 31 30  1  0  0  0  0
 32 33  1  0  0  0  0
 33 35  1  0  0  0  0
 33 34  2  0  0  0  0
 34 36  1  0  0  0  0
 35 37  1  0  0  0  0
 37 36  2  0  0  0  0
 39 41  2  0  0  0  0
 40 39  1  0  0  0  0
 40 42  1  0  0  0  0
 43 45  1  0  0  0  0
 43 40  1  0  0  0  0
 44 43  2  0  0  0  0
 46 48  2  0  0  0  0
 46 44  1  0  0  0  0
 47 45  2  0  0  0  0
 48 47  1  0  0  0  0
 49 44  1  0  0  0  0
 51 52  1  0  0  0  0
 53 52  1  0  0  0  0
 53 54  1  0  0  0  0
 54 55  1  0  0  0  0
 55 56  1  0  0  0  0
M  END
>  <REMARK>
 VINA RESULT:    -9.199      6.378     11.807
 INTER + INTRA:         -13.518
 INTER:                  -8.564
 INTRA:                  -4.954
 UNBOUND:                 4.555
 SMILES CC(=O)N[C@@H]1[C@@H](O)C[C@](O)(C(=O)O)O[C@H]1C(O)[C@H](O)CNC(=O)OCc1cn(C2CCc3ccccc3NC2=O)nn1
 SMILES IDX 24 1 22 2 21 3 23 5 20 6 18 7 16 8 15 9 9 10 8 11 14 12 6 13
 SMILES IDX 5 14 10 15 11 17 12 18 13 19 7 21 4 23 2 24 1 26 3 27 17 28
 SMILES IDX 19 30 25 32 26 33 27 34 42 35 28 36 41 37 29 38 39 40 38 41
 SMILES IDX 40 42 37 44 32 45 36 46 33 47 35 48 34 49 31 50 30 51
 H PARENT 21 4 10 16 13 20 7 22 4 25 17 29 19 31 38 43
 Flexibility Score: 80.00
  4 active torsions:
  status: ('A' for Active; 'I' for Inactive)
    1  A    between atoms: CA   and  CB  
    2  A    between atoms: CB   and  CG  
    3  A    between atoms: CG   and  CD  
    4  A    between atoms: CD   and  CE  

>  <TORSDO>
F 15

>  <BEGIN_>
RES LYS A 131

$$$$
ligand_80_pose_7_2HRL.pdbqt
 OpenBabel07062320523D

  6  5  0  0  0  0  0  0  0  0999 V2000
   33.1930   34.6630    9.2900 C   0  0  0  0  0  0  0  0  0  0  0  0
   32.0600   35.3600   10.0340 C   0  0  0  0  0  0  0  0  0  0  0  0
   30.7290   35.2630    9.3330 C   0  0  0  0  0  0  0  0  0  0  0  0
   29.7750   34.3720   10.1140 C   0  0  0  0  0  0  0  0  0  0  0  0
   29.1840   35.1270   11.2890 C   0  0  0  0  0  0  0  0  0  0  0  0
   28.5590   36.4040   10.8470 N   0  0  0  0  0  0  0  0  0  0  0  0
  1  2  1  0  0  0  0
  3  2  1  0  0  0  0
  3  4  1  0  0  0  0
  4  5  1  0  0  0  0
  6  5  1  0  0  0  0
M  END
>  <EGIN_R>
ES LYS A 135

>  <REMARK>
  4 active torsions:
  status: ('A' for Active; 'I' for Inactive)
    5  A    between atoms: CA   and  CB  
    6  A    between atoms: CB   and  CG  
    7  A    between atoms: CG   and  CD  
    8  A    between atoms: CD   and  CE  

$$$$
