ligand_63_pose_0_2HRL.pdbqt
 OpenBabel07062320523D

 51 52  0  0  1  0  0  0  0  0999 V2000
   23.6760   36.4130   10.3180 N   0  0  0  0  0  0  0  0  0  0  0  0
   23.5600   36.7660   11.7050 C   0  0  0  0  0  0  0  0  0  0  0  0
   23.1160   37.8630   12.0590 O   0  0  0  0  0  0  0  0  0  0  0  0
   24.0560   35.4190   10.1740 H   0  0  0  0  0  0  0  0  0  0  0  0
   23.3030   37.2180    9.2550 C   0  0  0  0  0  0  0  0  0  0  0  0
   24.1480   37.1500    7.9580 C   0  0  2  0  0  0  0  0  0  0  0  0
   25.5180   36.8600    8.4370 C   0  0  1  0  0  0  0  0  0  0  0  0
   26.5350   36.3290    7.4920 C   0  0  2  0  0  0  0  0  0  0  0  0
   28.5510   35.4860    8.3620 C   0  0  2  0  0  0  0  0  0  0  0  0
   29.3100   35.6480    7.0680 C   0  0  0  0  0  0  0  0  0  0  0  0
   27.1910   35.2510    8.1470 O   0  0  0  0  0  0  0  0  0  0  0  0
   28.4260   36.3510    6.0180 C   0  0  1  0  0  0  0  0  0  0  0  0
   27.4980   37.2410    6.8810 C   0  0  1  0  0  0  0  0  0  0  0  0
   28.8130   36.5480    9.2150 O   0  0  0  0  0  0  0  0  0  0  0  0
   29.3070   36.3160   10.0150 H   0  0  0  0  0  0  0  0  0  0  0  0
   29.0410   34.2280    8.9610 C   0  0  0  0  0  0  0  0  0  0  0  0
   30.0920   33.7140    8.9590 O   0  0  0  0  0  0  0  0  0  0  0  0
   27.9720   33.5180    9.6960 O   0  0  0  0  0  0  0  0  0  0  0  0
   27.0170   33.7810    9.4410 H   0  0  0  0  0  0  0  0  0  0  0  0
   29.1820   37.0990    5.1530 O   0  0  0  0  0  0  0  0  0  0  0  0
   28.6500   37.4590    4.4220 H   0  0  0  0  0  0  0  0  0  0  0  0
   26.8950   38.2240    5.9690 N   0  0  0  0  0  0  0  0  0  0  0  0
   27.3070   39.5630    6.0610 C   0  0  0  0  0  0  0  0  0  0  0  0
   26.2210   37.9260    5.2900 H   0  0  0  0  0  0  0  0  0  0  0  0
   27.0080   40.7640    5.3730 C   0  0  0  0  0  0  0  0  0  0  0  0
   28.2270   39.6680    7.0620 O   0  0  0  0  0  0  0  0  0  0  0  0
   25.9340   37.7750    9.3610 O   0  0  0  0  0  0  0  0  0  0  0  0
   26.6440   38.3770    9.0120 H   0  0  0  0  0  0  0  0  0  0  0  0
   23.9160   38.3340    7.3170 O   0  0  0  0  0  0  0  0  0  0  0  0
   24.3200   39.0750    7.8330 H   0  0  0  0  0  0  0  0  0  0  0  0
   23.9570   35.8360   12.6680 O   0  0  0  0  0  0  0  0  0  0  0  0
   24.6380   34.6200   12.2890 C   0  0  0  0  0  0  0  0  0  0  0  0
   26.0920   34.9870   12.4600 C   0  0  0  0  0  0  0  0  0  0  0  0
   26.9010   34.6380   13.5000 C   0  0  0  0  0  0  0  0  0  0  0  0
   26.8210   35.6430   11.5580 N   0  0  0  0  0  0  0  0  0  0  0  0
   28.1440   35.1080   13.1720 N   0  0  0  0  0  0  0  0  0  0  0  0
   28.0500   35.7140   11.9800 N   0  0  0  0  0  0  0  0  0  0  0  0
   29.3160   34.9730   13.9100 C   0  0  0  0  0  0  0  0  0  0  0  0
   29.9820   33.7450   13.9600 N   0  0  0  0  0  0  0  0  0  0  0  0
   29.8770   35.9400   14.7170 C   0  0  0  0  0  0  0  0  0  0  0  0
   30.9980   33.6000   14.7030 C   0  0  0  0  0  0  0  0  0  0  0  0
   30.9360   35.7720   15.4910 C   0  0  0  0  0  0  0  0  0  0  0  0
   31.6340   34.5320   15.5620 C   0  0  0  0  0  0  0  0  0  0  0  0
   29.1810   37.2830   14.7860 C   0  0  0  0  0  0  0  0  0  0  0  0
   28.7080   38.1750   14.8160 N   0  0  0  0  0  0  0  0  0  0  0  0
   29.8670   25.5550   16.9770 C   0  0  0  0  0  0  0  0  0  0  0  0
   28.3450   25.7220   17.0260 C   0  0  0  0  0  0  0  0  0  0  0  0
   27.6010   24.4020   16.8920 C   0  0  0  0  0  0  0  0  0  0  0  0
   26.5320   24.2460   17.9380 C   0  0  0  0  0  0  0  0  0  0  0  0
   25.1600   24.2740   17.2720 C   0  0  0  0  0  0  0  0  0  0  0  0
   24.5220   25.5990   17.4550 N   0  0  0  0  0  0  0  0  0  0  0  0
  1  2  1  0  0  0  0
  2  3  2  0  0  0  0
  2 31  1  0  0  0  0
  4  1  1  0  0  0  0
  5  1  1  0  0  0  0
  6  7  1  0  0  0  0
  6  5  1  1  0  0  0
  7 27  1  6  0  0  0
  8 11  1  0  0  0  0
  8  7  1  1  0  0  0
  9 16  1  1  0  0  0
  9 14  1  0  0  0  0
 10  9  1  0  0  0  0
 11  9  1  0  0  0  0
 12 20  1  6  0  0  0
 12 13  1  0  0  0  0
 12 10  1  0  0  0  0
 13 22  1  6  0  0  0
 13  8  1  0  0  0  0
 14 15  1  0  0  0  0
 16 18  1  0  0  0  0
 17 16  2  0  0  0  0
 19 18  1  0  0  0  0
 21 20  1  0  0  0  0
 22 23  1  0  0  0  0
 23 26  2  0  0  0  0
 24 22  1  0  0  0  0
 25 23  1  0  0  0  0
 28 27  1  0  0  0  0
 29 30  1  0  0  0  0
 29  6  1  0  0  0  0
 32 33  1  0  0  0  0
 32 31  1  0  0  0  0
 33 34  2  0  0  0  0
 35 37  2  0  0  0  0
 35 33  1  0  0  0  0
 36 34  1  0  0  0  0
 36 38  1  0  0  0  0
 37 36  1  0  0  0  0
 38 39  2  0  0  0  0
 38 40  1  0  0  0  0
 39 41  1  0  0  0  0
 40 44  1  0  0  0  0
 40 42  2  0  0  0  0
 41 43  2  0  0  0  0
 42 43  1  0  0  0  0
 44 45  3  0  0  0  0
 46 47  1  0  0  0  0
 48 47  1  0  0  0  0
 48 49  1  0  0  0  0
 50 51  1  0  0  0  0
 50 49  1  0  0  0  0
M  END
>  <REMARK>
 VINA RESULT:    -4.400      0.000      0.000
 INTER + INTRA:         -14.914
 INTER:                  -9.433
 INTRA:                  -5.481
 UNBOUND:                -7.042
 SMILES CC(=O)N[C@@H]1[C@@H](O)C[C@](O)(C(=O)O)O[C@H]1C(O)[C@H](O)CNC(=O)OCc1cn(-c2ncccc2C#N)nn1
 SMILES IDX 21 1 22 2 23 3 20 5 18 6 16 7 15 8 9 9 8 10 14 11 6 12 5 13
 SMILES IDX 10 14 11 16 12 17 13 18 7 20 4 22 2 23 1 25 3 26 17 27 19 29
 SMILES IDX 24 31 25 32 26 33 27 34 38 35 28 36 37 37 29 38 30 39 34 40
 SMILES IDX 31 41 33 42 32 43 35 44 36 45
 H PARENT 21 4 10 15 13 19 7 21 4 24 17 28 19 30
 Flexibility Score: inf
  4 active torsions:
  status: ('A' for Active; 'I' for Inactive)
    1  A    between atoms: CA   and  CB  
    2  A    between atoms: CB   and  CG  
    3  A    between atoms: CG   and  CD  
    4  A    between atoms: CD   and  CE  

>  <TORSDO>
F 16

>  <BEGIN_>
RES LYS A 131

$$$$
ligand_63_pose_0_2HRL.pdbqt
 OpenBabel07062320523D

  6  5  0  0  0  0  0  0  0  0999 V2000
   33.1930   34.6630    9.2900 C   0  0  0  0  0  0  0  0  0  0  0  0
   32.0600   35.3600   10.0340 C   0  0  0  0  0  0  0  0  0  0  0  0
   32.2300   35.3550   11.5310 C   0  0  0  0  0  0  0  0  0  0  0  0
   32.2690   36.7760   12.0720 C   0  0  0  0  0  0  0  0  0  0  0  0
   31.7060   37.7490   11.0530 C   0  0  0  0  0  0  0  0  0  0  0  0
   30.5630   38.5170   11.6200 N   0  0  0  0  0  0  0  0  0  0  0  0
  1  2  1  0  0  0  0
  2  3  1  0  0  0  0
  3  4  1  0  0  0  0
  5  6  1  0  0  0  0
  5  4  1  0  0  0  0
M  END
>  <EGIN_R>
ES LYS A 135

>  <REMARK>
  4 active torsions:
  status: ('A' for Active; 'I' for Inactive)
    5  A    between atoms: CA   and  CB  
    6  A    between atoms: CB   and  CG  
    7  A    between atoms: CG   and  CD  
    8  A    between atoms: CD   and  CE  

$$$$
