ligand_24_pose_5_2HRL.pdbqt
 OpenBabel07062320523D

 52 53  0  0  1  0  0  0  0  0999 V2000
   31.0600   38.7710   11.8580 N   0  0  0  0  0  0  0  0  0  0  0  0
   31.7440   37.6000   12.2500 C   0  0  0  0  0  0  0  0  0  0  0  0
   32.6250   37.0490   11.5460 O   0  0  0  0  0  0  0  0  0  0  0  0
   30.3400   39.1410   12.5210 H   0  0  0  0  0  0  0  0  0  0  0  0
   31.2890   39.4660   10.6320 C   0  0  0  0  0  0  0  0  0  0  0  0
   30.6040   38.8870    9.4420 C   0  0  2  0  0  0  0  0  0  0  0  0
   29.1300   38.6410    9.6770 C   0  0  1  0  0  0  0  0  0  0  0  0
   28.3030   38.6410    8.4420 C   0  0  2  0  0  0  0  0  0  0  0  0
   28.1640   39.4420    6.2750 C   0  0  2  0  0  0  0  0  0  0  0  0
   26.6960   39.7350    6.4100 C   0  0  0  0  0  0  0  0  0  0  0  0
   28.8720   39.4160    7.4340 O   0  0  0  0  0  0  0  0  0  0  0  0
   26.0770   39.0710    7.6220 C   0  0  1  0  0  0  0  0  0  0  0  0
   26.9810   39.3390    8.7770 C   0  0  1  0  0  0  0  0  0  0  0  0
   28.6840   40.5260    5.5200 O   0  0  0  0  0  0  0  0  0  0  0  0
   29.3250   40.9760    6.1210 H   0  0  0  0  0  0  0  0  0  0  0  0
   28.3080   38.2400    5.4200 C   0  0  0  0  0  0  0  0  0  0  0  0
   29.4360   37.7340    5.1450 O   0  0  0  0  0  0  0  0  0  0  0  0
   27.2030   37.5940    4.8680 O   0  0  0  0  0  0  0  0  0  0  0  0
   26.2780   37.7780    5.2060 H   0  0  0  0  0  0  0  0  0  0  0  0
   24.7900   39.5390    7.8040 O   0  0  0  0  0  0  0  0  0  0  0  0
   24.7580   40.1120    8.5850 H   0  0  0  0  0  0  0  0  0  0  0  0
   26.4490   38.9750   10.0510 N   0  0  0  0  0  0  0  0  0  0  0  0
   25.6670   39.8020   10.8700 C   0  0  0  0  0  0  0  0  0  0  0  0
   26.6570   38.0030   10.4070 H   0  0  0  0  0  0  0  0  0  0  0  0
   25.1740   39.3040   12.1760 C   0  0  0  0  0  0  0  0  0  0  0  0
   25.3860   40.9490   10.5090 O   0  0  0  0  0  0  0  0  0  0  0  0
   28.9710   37.4660   10.3800 O   0  0  0  0  0  0  0  0  0  0  0  0
   29.5590   36.7270   10.1080 H   0  0  0  0  0  0  0  0  0  0  0  0
   31.2330   37.7950    8.9220 O   0  0  0  0  0  0  0  0  0  0  0  0
   31.1420   37.8340    7.9220 H   0  0  0  0  0  0  0  0  0  0  0  0
   31.4410   37.0030   13.4880 O   0  0  0  0  0  0  0  0  0  0  0  0
   30.8050   35.7460   13.4850 C   0  0  0  0  0  0  0  0  0  0  0  0
   29.3530   35.8500   13.2560 C   0  0  0  0  0  0  0  0  0  0  0  0
   28.4690   34.8110   12.9500 C   0  0  0  0  0  0  0  0  0  0  0  0
   28.5880   36.9560   13.2900 N   0  0  0  0  0  0  0  0  0  0  0  0
   27.2360   35.3190   12.8170 N   0  0  0  0  0  0  0  0  0  0  0  0
   27.3350   36.6180   13.0270 N   0  0  0  0  0  0  0  0  0  0  0  0
   26.0200   34.6150   12.5050 C   0  0  0  0  0  0  0  0  0  0  0  0
   25.3290   35.2130   11.3430 C   0  0  0  0  0  0  0  0  0  0  0  0
   25.8970   35.1630   10.0900 C   0  0  0  0  0  0  0  0  0  0  0  0
   24.1140   35.8230   11.5150 C   0  0  0  0  0  0  0  0  0  0  0  0
   25.2380   35.7290    9.0020 C   0  0  0  0  0  0  0  0  0  0  0  0
   23.4440   36.3940   10.4340 C   0  0  0  0  0  0  0  0  0  0  0  0
   24.0100   36.3420    9.1860 C   0  0  0  0  0  0  0  0  0  0  0  0
   23.3650   36.9040    8.0820 O   0  0  0  0  0  0  0  0  0  0  0  0
   22.0110   37.3070    8.1960 C   0  0  0  0  0  0  0  0  0  0  0  0
   29.8670   25.5550   16.9770 C   0  0  0  0  0  0  0  0  0  0  0  0
   28.3450   25.7220   17.0260 C   0  0  0  0  0  0  0  0  0  0  0  0
   27.6010   24.4030   16.8830 C   0  0  0  0  0  0  0  0  0  0  0  0
   26.1490   24.5290   17.2510 C   0  0  0  0  0  0  0  0  0  0  0  0
   25.6290   23.1810   17.7400 C   0  0  0  0  0  0  0  0  0  0  0  0
   24.2760   22.9180   17.1950 N   0  0  0  0  0  0  0  0  0  0  0  0
  1  2  1  0  0  0  0
  1  4  1  0  0  0  0
  2 31  1  0  0  0  0
  3  2  2  0  0  0  0
  5  1  1  0  0  0  0
  6  7  1  0  0  0  0
  6  5  1  1  0  0  0
  7 27  1  6  0  0  0
  8 13  1  0  0  0  0
  8  7  1  1  0  0  0
  9 16  1  6  0  0  0
  9 10  1  0  0  0  0
  9 11  1  0  0  0  0
 10 12  1  0  0  0  0
 11  8  1  0  0  0  0
 12 20  1  1  0  0  0
 12 13  1  0  0  0  0
 13 22  1  1  0  0  0
 14 15  1  0  0  0  0
 14  9  1  0  0  0  0
 17 16  2  0  0  0  0
 18 19  1  0  0  0  0
 18 16  1  0  0  0  0
 20 21  1  0  0  0  0
 22 24  1  0  0  0  0
 22 23  1  0  0  0  0
 23 25  1  0  0  0  0
 26 23  2  0  0  0  0
 28 27  1  0  0  0  0
 29  6  1  0  0  0  0
 30 29  1  0  0  0  0
 32 31  1  0  0  0  0
 33 35  1  0  0  0  0
 33 32  1  0  0  0  0
 34 33  2  0  0  0  0
 36 34  1  0  0  0  0
 36 37  1  0  0  0  0
 37 35  2  0  0  0  0
 38 36  1  0  0  0  0
 39 41  1  0  0  0  0
 39 38  1  0  0  0  0
 40 39  2  0  0  0  0
 42 44  2  0  0  0  0
 42 40  1  0  0  0  0
 43 41  2  0  0  0  0
 44 43  1  0  0  0  0
 45 46  1  0  0  0  0
 45 44  1  0  0  0  0
 47 48  1  0  0  0  0
 49 48  1  0  0  0  0
 49 50  1  0  0  0  0
 50 51  1  0  0  0  0
 52 51  1  0  0  0  0
M  END
>  <REMARK>
 VINA RESULT:    -5.290      7.253     12.614
 INTER + INTRA:         -15.050
 INTER:                  -7.601
 INTRA:                  -7.449
 UNBOUND:                -5.276
 SMILES COc1ccc(Cn2cc(COC(=O)NC[C@@H](O)C(O)[C@@H]3O[C@@](O)(C(=O)O)C[C@H](O)[C@H]3NC(C)=O)nn2)cc1
 SMILES IDX 15 1 13 2 14 3 16 5 17 6 19 7 21 8 23 9 28 10 22 11 29 12
 SMILES IDX 31 13 24 14 25 16 26 17 27 18 30 20 32 22 33 23 34 25 35 26
 SMILES IDX 20 27 18 29 12 31 11 32 10 33 9 34 36 35 8 36 37 37 7 38
 SMILES IDX 6 39 5 40 38 41 4 42 39 43 3 44 2 45 1 46
 H PARENT 15 4 24 15 27 19 30 21 32 24 20 28 18 30
 Flexibility Score: inf
  4 active torsions:
  status: ('A' for Active; 'I' for Inactive)
    1  A    between atoms: CA   and  CB  
    2  A    between atoms: CB   and  CG  
    3  A    between atoms: CG   and  CD  
    4  A    between atoms: CD   and  CE  

>  <TORSDO>
F 17

>  <BEGIN_>
RES LYS A 131

$$$$
ligand_24_pose_5_2HRL.pdbqt
 OpenBabel07062320523D

  6  5  0  0  0  0  0  0  0  0999 V2000
   33.1930   34.6630    9.2900 C   0  0  0  0  0  0  0  0  0  0  0  0
   32.0600   35.3600   10.0340 C   0  0  0  0  0  0  0  0  0  0  0  0
   30.7450   34.6280    9.9520 C   0  0  0  0  0  0  0  0  0  0  0  0
   30.3290   34.4320    8.5030 C   0  0  0  0  0  0  0  0  0  0  0  0
   28.8180   34.4390    8.3770 C   0  0  0  0  0  0  0  0  0  0  0  0
   28.3820   35.2030    7.1760 N   0  0  0  0  0  0  0  0  0  0  0  0
  1  2  1  0  0  0  0
  3  2  1  0  0  0  0
  4  3  1  0  0  0  0
  5  4  1  0  0  0  0
  6  5  1  0  0  0  0
M  END
>  <EGIN_R>
ES LYS A 135

>  <REMARK>
  4 active torsions:
  status: ('A' for Active; 'I' for Inactive)
    5  A    between atoms: CA   and  CB  
    6  A    between atoms: CB   and  CG  
    7  A    between atoms: CG   and  CD  
    8  A    between atoms: CD   and  CE  

$$$$
