ligand_71_pose_6_2HRL.pdbqt
 OpenBabel07062320523D

 54 55  0  0  1  0  0  0  0  0999 V2000
   29.1650   27.3230   19.9170 N   0  0  0  0  0  0  0  0  0  0  0  0
   27.7860   27.7150   20.0180 C   0  0  0  0  0  0  0  0  0  0  0  0
   27.2250   27.8220   21.1360 O   0  0  0  0  0  0  0  0  0  0  0  0
   29.6100   27.2420   18.9880 H   0  0  0  0  0  0  0  0  0  0  0  0
   29.8760   27.0570   21.1370 C   0  0  0  0  0  0  0  0  0  0  0  0
   31.3060   27.5360   21.1150 C   0  0  2  0  0  0  0  0  0  0  0  0
   31.2740   29.0450   21.0790 C   0  0  1  0  0  0  0  0  0  0  0  0
   32.3420   29.6430   21.9980 C   0  0  2  0  0  0  0  0  0  0  0  0
   33.6190   29.2100   23.8080 C   0  0  2  0  0  0  0  0  0  0  0  0
   33.6700   30.6640   24.1070 C   0  0  0  0  0  0  0  0  0  0  0  0
   32.4860   28.8720   23.1250 O   0  0  0  0  0  0  0  0  0  0  0  0
   32.4460   31.4570   23.7140 C   0  0  1  0  0  0  0  0  0  0  0  0
   31.8920   31.0430   22.3800 C   0  0  1  0  0  0  0  0  0  0  0  0
   33.5180   28.4930   25.0480 O   0  0  0  0  0  0  0  0  0  0  0  0
   34.4240   28.4570   25.4630 H   0  0  0  0  0  0  0  0  0  0  0  0
   34.8840   28.7130   23.1950 C   0  0  0  0  0  0  0  0  0  0  0  0
   35.7970   29.4880   22.9080 O   0  0  0  0  0  0  0  0  0  0  0  0
   35.0820   27.3570   22.9240 O   0  0  0  0  0  0  0  0  0  0  0  0
   35.9990   26.9650   22.7990 H   0  0  0  0  0  0  0  0  0  0  0  0
   31.5070   31.2790   24.7330 O   0  0  0  0  0  0  0  0  0  0  0  0
   30.5730   31.3790   24.3940 H   0  0  0  0  0  0  0  0  0  0  0  0
   32.1810   31.9300   21.3070 N   0  0  0  0  0  0  0  0  0  0  0  0
   31.2730   32.8760   20.7670 C   0  0  0  0  0  0  0  0  0  0  0  0
   33.1290   31.9040   20.8580 H   0  0  0  0  0  0  0  0  0  0  0  0
   31.6440   33.7760   19.6310 C   0  0  0  0  0  0  0  0  0  0  0  0
   30.1390   32.9400   21.2720 O   0  0  0  0  0  0  0  0  0  0  0  0
   31.4040   29.5360   19.7940 O   0  0  0  0  0  0  0  0  0  0  0  0
   31.1800   30.5160   19.8120 H   0  0  0  0  0  0  0  0  0  0  0  0
   31.9120   27.0080   19.9760 O   0  0  0  0  0  0  0  0  0  0  0  0
   31.4730   26.1330   19.7940 H   0  0  0  0  0  0  0  0  0  0  0  0
   27.0370   27.9860   18.8970 O   0  0  0  0  0  0  0  0  0  0  0  0
   26.6780   29.2530   18.4290 C   0  0  0  0  0  0  0  0  0  0  0  0
   27.7080   29.7670   17.5020 C   0  0  0  0  0  0  0  0  0  0  0  0
   28.8250   30.5250   17.7860 C   0  0  0  0  0  0  0  0  0  0  0  0
   27.7140   29.5550   16.1760 N   0  0  0  0  0  0  0  0  0  0  0  0
   29.4590   30.7400   16.6350 N   0  0  0  0  0  0  0  0  0  0  0  0
   28.7640   30.1430   15.6840 N   0  0  0  0  0  0  0  0  0  0  0  0
   30.7060   31.5000   16.5030 C   0  0  0  0  0  0  0  0  0  0  0  0
   30.4290   32.8180   15.8580 C   0  0  0  0  0  0  0  0  0  0  0  0
   30.1890   33.8650   16.4810 O   0  0  0  0  0  0  0  0  0  0  0  0
   30.4410   32.8750   14.4260 N   0  0  0  0  0  0  0  0  0  0  0  0
   30.6400   32.0090   13.8760 H   0  0  0  0  0  0  0  0  0  0  0  0
   30.1970   34.0780   13.7240 C   0  0  0  0  0  0  0  0  0  0  0  0
   28.9810   34.4370   13.2680 N   0  0  0  0  0  0  0  0  0  0  0  0
   31.2080   34.9340   13.4800 N   0  0  0  0  0  0  0  0  0  0  0  0
   28.7770   35.5910   12.6020 C   0  0  0  0  0  0  0  0  0  0  0  0
   31.0720   36.0870   12.8300 C   0  0  0  0  0  0  0  0  0  0  0  0
   29.8260   36.4550   12.3630 C   0  0  0  0  0  0  0  0  0  0  0  0
   29.8670   25.5550   16.9770 C   0  0  0  0  0  0  0  0  0  0  0  0
   28.3450   25.7220   17.0260 C   0  0  0  0  0  0  0  0  0  0  0  0
   27.6010   24.4010   16.9010 C   0  0  0  0  0  0  0  0  0  0  0  0
   26.6460   24.1790   18.0400 C   0  0  0  0  0  0  0  0  0  0  0  0
   25.6180   23.1240   17.6440 C   0  0  0  0  0  0  0  0  0  0  0  0
   24.8560   22.6700   18.8310 N   0  0  0  0  0  0  0  0  0  0  0  0
  1  2  1  0  0  0  0
  1  5  1  0  0  0  0
  2  3  2  0  0  0  0
  4  1  1  0  0  0  0
  6  5  1  6  0  0  0
  7 27  1  6  0  0  0
  7  6  1  0  0  0  0
  8  7  1  6  0  0  0
  8 13  1  0  0  0  0
  8 11  1  0  0  0  0
  9 16  1  6  0  0  0
  9 10  1  0  0  0  0
  9 14  1  0  0  0  0
 11  9  1  0  0  0  0
 12 10  1  0  0  0  0
 12 20  1  1  0  0  0
 13 22  1  6  0  0  0
 13 12  1  0  0  0  0
 14 15  1  0  0  0  0
 17 16  2  0  0  0  0
 18 16  1  0  0  0  0
 19 18  1  0  0  0  0
 21 20  1  0  0  0  0
 23 26  2  0  0  0  0
 23 22  1  0  0  0  0
 24 22  1  0  0  0  0
 25 23  1  0  0  0  0
 27 28  1  0  0  0  0
 29  6  1  0  0  0  0
 30 29  1  0  0  0  0
 31  2  1  0  0  0  0
 32 31  1  0  0  0  0
 33 34  2  0  0  0  0
 33 32  1  0  0  0  0
 35 33  1  0  0  0  0
 36 34  1  0  0  0  0
 37 35  2  0  0  0  0
 37 36  1  0  0  0  0
 38 36  1  0  0  0  0
 39 40  2  0  0  0  0
 39 38  1  0  0  0  0
 41 39  1  0  0  0  0
 42 41  1  0  0  0  0
 43 41  1  0  0  0  0
 44 43  2  0  0  0  0
 45 43  1  0  0  0  0
 46 44  1  0  0  0  0
 47 45  2  0  0  0  0
 48 46  2  0  0  0  0
 48 47  1  0  0  0  0
 49 50  1  0  0  0  0
 51 50  1  0  0  0  0
 51 52  1  0  0  0  0
 53 52  1  0  0  0  0
 53 54  1  0  0  0  0
M  END
>  <REMARK>
 VINA RESULT:    -4.050      4.234      7.242
 INTER + INTRA:         -15.049
 INTER:                  -9.329
 INTRA:                  -5.720
 UNBOUND:                -7.565
 SMILES CC(=O)N[C@@H]1[C@@H](O)C[C@](O)(C(=O)O)O[C@H]1C(O)[C@H](O)CNC(=O)OCc1cn(CC(=O)Nc2ncccn2)nn1
 SMILES IDX 21 1 22 2 23 3 20 5 18 6 16 7 15 8 9 9 8 10 14 11 6 12 5 13
 SMILES IDX 10 14 11 16 12 17 13 18 7 20 4 22 2 23 1 25 3 26 17 27 19 29
 SMILES IDX 24 31 25 32 26 33 27 34 40 35 28 36 39 37 29 38 30 39 31 40
 SMILES IDX 32 41 33 43 34 44 38 45 35 46 37 47 36 48
 H PARENT 21 4 10 15 13 19 7 21 4 24 17 28 19 30 32 42
 Flexibility Score: inf
  4 active torsions:
  status: ('A' for Active; 'I' for Inactive)
    1  A    between atoms: CA   and  CB  
    2  A    between atoms: CB   and  CG  
    3  A    between atoms: CG   and  CD  
    4  A    between atoms: CD   and  CE  

>  <TORSDO>
F 17

>  <BEGIN_>
RES LYS A 131

$$$$
ligand_71_pose_6_2HRL.pdbqt
 OpenBabel07062320523D

  6  5  0  0  0  0  0  0  0  0999 V2000
   33.1930   34.6630    9.2900 C   0  0  0  0  0  0  0  0  0  0  0  0
   32.0600   35.3600   10.0340 C   0  0  0  0  0  0  0  0  0  0  0  0
   30.8160   35.5410    9.2040 C   0  0  0  0  0  0  0  0  0  0  0  0
   30.1570   34.1990    8.9240 C   0  0  0  0  0  0  0  0  0  0  0  0
   28.6720   34.3770    8.6700 C   0  0  0  0  0  0  0  0  0  0  0  0
   27.8640   33.6080    9.6560 N   0  0  0  0  0  0  0  0  0  0  0  0
  1  2  1  0  0  0  0
  3  2  1  0  0  0  0
  4  3  1  0  0  0  0
  5  4  1  0  0  0  0
  5  6  1  0  0  0  0
M  END
>  <EGIN_R>
ES LYS A 135

>  <REMARK>
  4 active torsions:
  status: ('A' for Active; 'I' for Inactive)
    5  A    between atoms: CA   and  CB  
    6  A    between atoms: CB   and  CG  
    7  A    between atoms: CG   and  CD  
    8  A    between atoms: CD   and  CE  

$$$$
