ligand_83_pose_5_2HRL.pdbqt
 OpenBabel07062320523D

 56 57  0  0  1  0  0  0  0  0999 V2000
   28.4600   34.0140    9.4530 O   0  0  0  0  0  0  0  0  0  0  0  0
   29.0770   34.5380    8.3050 C   0  0  0  0  0  0  0  0  0  0  0  0
   28.3620   35.1280    7.2570 N   0  0  0  0  0  0  0  0  0  0  0  0
   27.3030   35.1690    7.3530 H   0  0  0  0  0  0  0  0  0  0  0  0
   30.3120   34.4530    8.2620 O   0  0  0  0  0  0  0  0  0  0  0  0
   28.9570   35.6800    6.0640 C   0  0  0  0  0  0  0  0  0  0  0  0
   28.3590   37.0400    5.8230 C   0  0  2  0  0  0  0  0  0  0  0  0
   28.6150   37.8890    7.0450 C   0  0  2  0  0  0  0  0  0  0  0  0
   28.1870   39.3310    6.8080 C   0  0  2  0  0  0  0  0  0  0  0  0
   26.2360   40.5280    6.3770 C   0  0  2  0  0  0  0  0  0  0  0  0
   27.1220   41.4000    5.5080 C   0  0  0  0  0  0  0  0  0  0  0  0
   26.8390   39.3100    6.5770 O   0  0  0  0  0  0  0  0  0  0  0  0
   28.0280   40.5220    4.6730 C   0  0  1  0  0  0  0  0  0  0  0  0
   29.0030   39.8690    5.6460 C   0  0  1  0  0  0  0  0  0  0  0  0
   25.0130   40.2750    5.7250 O   0  0  0  0  0  0  0  0  0  0  0  0
   24.6980   41.1380    5.3710 H   0  0  0  0  0  0  0  0  0  0  0  0
   25.9470   41.1460    7.6770 C   0  0  0  0  0  0  0  0  0  0  0  0
   26.2510   42.3300    7.8960 O   0  0  0  0  0  0  0  0  0  0  0  0
   25.3300   40.4140    8.6750 O   0  0  0  0  0  0  0  0  0  0  0  0
   25.1870   40.8060    9.5870 H   0  0  0  0  0  0  0  0  0  0  0  0
   27.3560   39.4900    4.0390 O   0  0  0  0  0  0  0  0  0  0  0  0
   27.1980   39.7110    3.0990 H   0  0  0  0  0  0  0  0  0  0  0  0
   29.9650   40.8470    6.0680 N   0  0  0  0  0  0  0  0  0  0  0  0
   31.3420   40.6480    5.8450 C   0  0  0  0  0  0  0  0  0  0  0  0
   29.7020   41.7430    6.5570 H   0  0  0  0  0  0  0  0  0  0  0  0
   32.3390   41.6700    6.2870 C   0  0  0  0  0  0  0  0  0  0  0  0
   31.7600   39.6090    5.2690 O   0  0  0  0  0  0  0  0  0  0  0  0
   29.9750   37.9120    7.2820 O   0  0  0  0  0  0  0  0  0  0  0  0
   30.4670   37.2320    6.7650 H   0  0  0  0  0  0  0  0  0  0  0  0
   27.0050   36.9730    5.5080 O   0  0  0  0  0  0  0  0  0  0  0  0
   26.9480   36.7020    4.5570 H   0  0  0  0  0  0  0  0  0  0  0  0
   28.2790   34.8570   10.6020 C   0  0  0  0  0  0  0  0  0  0  0  0
   27.3310   35.9340   10.3350 C   0  0  0  0  0  0  0  0  0  0  0  0
   25.9940   35.7840   10.0640 C   0  0  0  0  0  0  0  0  0  0  0  0
   27.6200   37.2440   10.3110 N   0  0  0  0  0  0  0  0  0  0  0  0
   25.5050   37.0190    9.8820 N   0  0  0  0  0  0  0  0  0  0  0  0
   26.4890   37.8730   10.0330 N   0  0  0  0  0  0  0  0  0  0  0  0
   24.0960   37.3110    9.5680 C   0  0  0  0  0  0  0  0  0  0  0  0
   23.8290   37.0460    8.1030 C   0  0  2  0  0  0  0  0  0  0  0  0
   24.9500   37.5680    7.4200 O   0  0  0  0  0  0  0  0  0  0  0  0
   25.2490   38.4190    7.7910 H   0  0  0  0  0  0  0  0  0  0  0  0
   22.5730   37.7470    7.6950 C   0  0  0  0  0  0  0  0  0  0  0  0
   21.4340   36.9570    8.1720 N   0  0  0  0  0  0  0  0  0  0  0  0
   21.2740   35.6210    8.0340 C   0  0  0  0  0  0  0  0  0  0  0  0
   20.4000   37.4590    8.8240 C   0  0  0  0  0  0  0  0  0  0  0  0
   20.0970   35.2900    8.6230 C   0  0  0  0  0  0  0  0  0  0  0  0
   19.5700   36.4150    9.1030 N   0  0  0  0  0  0  0  0  0  0  0  0
   20.1520   38.8270    9.1880 N   0  0  0  0  0  0  0  0  0  0  0  0
   19.4400   39.5900    8.5160 O   0  0  0  0  0  0  0  0  0  0  0  0
   20.7280   39.3260   10.3380 O   0  0  0  0  0  0  0  0  0  0  0  0
   29.8670   25.5550   16.9770 C   0  0  0  0  0  0  0  0  0  0  0  0
   28.3450   25.7220   17.0260 C   0  0  0  0  0  0  0  0  0  0  0  0
   27.6040   24.3940   16.9960 C   0  0  0  0  0  0  0  0  0  0  0  0
   26.3990   24.3980   17.8960 C   0  0  0  0  0  0  0  0  0  0  0  0
   25.3810   23.3820   17.3870 C   0  0  0  0  0  0  0  0  0  0  0  0
   24.1080   24.0550   17.0380 N   0  0  0  0  0  0  0  0  0  0  0  0
  1 32  1  0  0  0  0
  2  1  1  0  0  0  0
  3  4  1  0  0  0  0
  3  2  1  0  0  0  0
  5  2  2  0  0  0  0
  6  3  1  0  0  0  0
  7  6  1  1  0  0  0
  7  8  1  0  0  0  0
  8 28  1  6  0  0  0
  9  8  1  6  0  0  0
 10 15  1  6  0  0  0
 10 12  1  0  0  0  0
 10 17  1  0  0  0  0
 11 10  1  0  0  0  0
 12  9  1  0  0  0  0
 13 21  1  1  0  0  0
 13 11  1  0  0  0  0
 13 14  1  0  0  0  0
 14 23  1  1  0  0  0
 14  9  1  0  0  0  0
 16 15  1  0  0  0  0
 17 18  2  0  0  0  0
 17 19  1  0  0  0  0
 19 20  1  0  0  0  0
 22 21  1  0  0  0  0
 23 25  1  0  0  0  0
 24 23  1  0  0  0  0
 24 26  1  0  0  0  0
 27 24  2  0  0  0  0
 29 28  1  0  0  0  0
 30  7  1  0  0  0  0
 31 30  1  0  0  0  0
 33 32  1  0  0  0  0
 34 33  2  0  0  0  0
 35 33  1  0  0  0  0
 36 37  1  0  0  0  0
 36 34  1  0  0  0  0
 37 35  2  0  0  0  0
 38 36  1  0  0  0  0
 39 42  1  6  0  0  0
 39 38  1  0  0  0  0
 40 41  1  0  0  0  0
 40 39  1  0  0  0  0
 42 43  1  0  0  0  0
 43 45  1  0  0  0  0
 44 43  1  0  0  0  0
 44 46  2  0  0  0  0
 45 47  2  0  0  0  0
 45 48  1  0  0  0  0
 46 47  1  0  0  0  0
 48 50  2  0  0  0  0
 49 48  2  0  0  0  0
 51 52  1  0  0  0  0
 53 52  1  0  0  0  0
 53 54  1  0  0  0  0
 55 54  1  0  0  0  0
 56 55  1  0  0  0  0
M  END
>  <REMARK>
 VINA RESULT:    -3.731      8.548     15.026
 INTER + INTRA:         -15.885
 INTER:                  -9.501
 INTRA:                  -6.384
 UNBOUND:                -8.446
 SMILES CC(=O)N[C@@H]1[C@@H](O)C[C@](O)(C(=O)O)O[C@H]1C(O)[C@H](O)CNC(=O)OCc1cn(CC(O)Cn2ccnc2[N+](=O)[O-])nn1
 SMILES IDX 24 1 22 2 21 3 23 5 20 6 18 7 16 8 15 9 9 10 8 11 14 12 6 13
 SMILES IDX 5 14 10 15 11 17 12 18 13 19 7 21 4 23 2 24 1 26 3 27 17 28
 SMILES IDX 19 30 25 32 26 33 27 34 42 35 28 36 41 37 29 38 30 39 31 40
 SMILES IDX 32 42 33 43 34 44 37 45 35 46 36 47 38 48 39 49 40 50
 H PARENT 21 4 10 16 13 20 7 22 4 25 17 29 19 31 31 41
 Flexibility Score: inf
  4 active torsions:
  status: ('A' for Active; 'I' for Inactive)
    1  A    between atoms: CA   and  CB  
    2  A    between atoms: CB   and  CG  
    3  A    between atoms: CG   and  CD  
    4  A    between atoms: CD   and  CE  

>  <TORSDO>
F 20

>  <BEGIN_>
RES LYS A 131

$$$$
ligand_83_pose_5_2HRL.pdbqt
 OpenBabel07062320523D

  6  5  0  0  0  0  0  0  0  0999 V2000
   33.1930   34.6630    9.2900 C   0  0  0  0  0  0  0  0  0  0  0  0
   32.0600   35.3600   10.0340 C   0  0  0  0  0  0  0  0  0  0  0  0
   32.3830   35.6660   11.4740 C   0  0  0  0  0  0  0  0  0  0  0  0
   32.2130   37.1510   11.7580 C   0  0  0  0  0  0  0  0  0  0  0  0
   31.6930   37.8720   10.5290 C   0  0  0  0  0  0  0  0  0  0  0  0
   30.6450   38.8660   10.8940 N   0  0  0  0  0  0  0  0  0  0  0  0
  1  2  1  0  0  0  0
  2  3  1  0  0  0  0
  3  4  1  0  0  0  0
  5  6  1  0  0  0  0
  5  4  1  0  0  0  0
M  END
>  <EGIN_R>
ES LYS A 135

>  <REMARK>
  4 active torsions:
  status: ('A' for Active; 'I' for Inactive)
    5  A    between atoms: CA   and  CB  
    6  A    between atoms: CB   and  CG  
    7  A    between atoms: CG   and  CD  
    8  A    between atoms: CD   and  CE  

$$$$
