ligand_3_pose_8_2HRL.pdbqt
 OpenBabel07062320523D

 49 50  0  0  1  0  0  0  0  0999 V2000
   31.9040   33.0080   15.4450 C   0  0  0  0  0  0  0  0  0  0  0  0
   32.2060   34.2340   14.6080 C   0  0  2  0  0  0  0  0  0  0  0  0
   31.0760   34.5600   13.6570 C   0  0  1  0  0  0  0  0  0  0  0  0
   30.5240   35.9310   13.8640 C   0  0  2  0  0  0  0  0  0  0  0  0
   28.4710   35.7320   14.9880 C   0  0  2  0  0  0  0  0  0  0  0  0
   27.6780   35.8580   13.7350 C   0  0  0  0  0  0  0  0  0  0  0  0
   29.7610   36.1030   14.9590 O   0  0  0  0  0  0  0  0  0  0  0  0
   28.4900   35.8750   12.4740 C   0  0  1  0  0  0  0  0  0  0  0  0
   29.8410   36.4910   12.6510 C   0  0  1  0  0  0  0  0  0  0  0  0
   28.4140   34.3710   15.3600 O   0  0  0  0  0  0  0  0  0  0  0  0
   27.4680   34.0780   15.2360 H   0  0  0  0  0  0  0  0  0  0  0  0
   27.7940   36.4690   16.0900 C   0  0  0  0  0  0  0  0  0  0  0  0
   27.1950   37.5510   15.9090 O   0  0  0  0  0  0  0  0  0  0  0  0
   27.8150   35.9560   17.3680 O   0  0  0  0  0  0  0  0  0  0  0  0
   27.4230   36.4190   18.1770 H   0  0  0  0  0  0  0  0  0  0  0  0
   28.6220   34.5710   11.9640 O   0  0  0  0  0  0  0  0  0  0  0  0
   27.9020   33.9800   12.2590 H   0  0  0  0  0  0  0  0  0  0  0  0
   29.6430   37.9230   12.8890 N   0  0  0  0  0  0  0  0  0  0  0  0
   30.5760   38.8930   12.4320 C   0  0  0  0  0  0  0  0  0  0  0  0
   28.8070   38.2740   13.4030 H   0  0  0  0  0  0  0  0  0  0  0  0
   30.3930   40.3500   12.6640 C   0  0  0  0  0  0  0  0  0  0  0  0
   31.6130   38.5450   11.8030 O   0  0  0  0  0  0  0  0  0  0  0  0
   31.6260   34.4270   12.3720 O   0  0  0  0  0  0  0  0  0  0  0  0
   31.2310   35.1870   11.8490 H   0  0  0  0  0  0  0  0  0  0  0  0
   33.4400   34.1340   13.9890 O   0  0  0  0  0  0  0  0  0  0  0  0
   33.3840   33.8230   13.0620 H   0  0  0  0  0  0  0  0  0  0  0  0
   30.6990   32.3370   15.0680 N   0  0  0  0  0  0  0  0  0  0  0  0
   30.0230   31.4040   15.8980 C   0  0  0  0  0  0  0  0  0  0  0  0
   30.2640   32.5230   14.1330 H   0  0  0  0  0  0  0  0  0  0  0  0
   30.4500   31.1130   17.0220 O   0  0  0  0  0  0  0  0  0  0  0  0
   28.8530   30.7790   15.4800 O   0  0  0  0  0  0  0  0  0  0  0  0
   27.7250   30.7390   16.3400 C   0  0  0  0  0  0  0  0  0  0  0  0
   26.5500   31.1660   15.5480 C   0  0  0  0  0  0  0  0  0  0  0  0
   25.5900   30.3600   14.9800 C   0  0  0  0  0  0  0  0  0  0  0  0
   26.2270   32.4410   15.2490 N   0  0  0  0  0  0  0  0  0  0  0  0
   24.7280   31.1840   14.3620 N   0  0  0  0  0  0  0  0  0  0  0  0
   25.1220   32.4290   14.5320 N   0  0  0  0  0  0  0  0  0  0  0  0
   23.5750   30.7610   13.6430 C   0  0  0  0  0  0  0  0  0  0  0  0
   22.5540   31.6650   13.4100 C   0  0  0  0  0  0  0  0  0  0  0  0
   23.4700   29.4630   13.1780 C   0  0  0  0  0  0  0  0  0  0  0  0
   21.4480   31.2220   12.7070 C   0  0  0  0  0  0  0  0  0  0  0  0
   22.3650   29.0400   12.4830 C   0  0  0  0  0  0  0  0  0  0  0  0
   21.3450   29.9360   12.2480 C   0  0  0  0  0  0  0  0  0  0  0  0
   29.8670   25.5550   16.9770 C   0  0  0  0  0  0  0  0  0  0  0  0
   28.3450   25.7220   17.0260 C   0  0  0  0  0  0  0  0  0  0  0  0
   27.6010   24.4030   16.8880 C   0  0  0  0  0  0  0  0  0  0  0  0
   26.5950   24.2020   17.9870 C   0  0  0  0  0  0  0  0  0  0  0  0
   26.2110   25.5540   18.5790 C   0  0  0  0  0  0  0  0  0  0  0  0
   24.8530   25.9480   18.1350 N   0  0  0  0  0  0  0  0  0  0  0  0
  2  1  1  6  0  0  0
  3 23  1  6  0  0  0
  3  2  1  0  0  0  0
  4  3  1  6  0  0  0
  4  7  1  0  0  0  0
  5 10  1  1  0  0  0
  5 12  1  0  0  0  0
  6  5  1  0  0  0  0
  7  5  1  0  0  0  0
  8 16  1  1  0  0  0
  8  9  1  0  0  0  0
  8  6  1  0  0  0  0
  9 18  1  1  0  0  0
  9  4  1  0  0  0  0
 11 10  1  0  0  0  0
 12 14  1  0  0  0  0
 13 12  2  0  0  0  0
 14 15  1  0  0  0  0
 16 17  1  0  0  0  0
 18 20  1  0  0  0  0
 19 21  1  0  0  0  0
 19 18  1  0  0  0  0
 22 19  2  0  0  0  0
 24 23  1  0  0  0  0
 25  2  1  0  0  0  0
 26 25  1  0  0  0  0
 27  1  1  0  0  0  0
 27 28  1  0  0  0  0
 28 30  2  0  0  0  0
 29 27  1  0  0  0  0
 31 28  1  0  0  0  0
 31 32  1  0  0  0  0
 33 32  1  0  0  0  0
 34 33  2  0  0  0  0
 35 33  1  0  0  0  0
 36 37  1  0  0  0  0
 36 34  1  0  0  0  0
 37 35  2  0  0  0  0
 38 36  1  0  0  0  0
 39 38  1  0  0  0  0
 40 38  2  0  0  0  0
 41 39  2  0  0  0  0
 42 40  1  0  0  0  0
 43 42  2  0  0  0  0
 43 41  1  0  0  0  0
 44 45  1  0  0  0  0
 46 45  1  0  0  0  0
 46 47  1  0  0  0  0
 47 48  1  0  0  0  0
 49 48  1  0  0  0  0
M  END
>  <REMARK>
 VINA RESULT:    -5.554      6.426      9.400
 INTER + INTRA:         -14.097
 INTER:                  -8.778
 INTRA:                  -5.319
 UNBOUND:                -4.485
 SMILES CC(=O)N[C@@H]1[C@@H](O)C[C@](O)(C(=O)O)O[C@H]1C(O)[C@H](O)CNC(=O)OCc1cn(-c2ccccc2)nn1
 SMILES IDX 20 1 18 2 16 3 15 4 9 5 8 6 14 7 6 8 5 9 10 10 11 12 12 13
 SMILES IDX 13 14 7 16 4 18 2 19 1 21 3 22 17 23 19 25 21 27 22 28 23 30
 SMILES IDX 24 31 25 32 26 33 27 34 36 35 28 36 35 37 29 38 30 39 34 40
 SMILES IDX 31 41 33 42 32 43
 H PARENT 10 11 13 15 7 17 4 20 17 24 19 26 21 29
 Flexibility Score: inf
  4 active torsions:
  status: ('A' for Active; 'I' for Inactive)
    1  A    between atoms: CA   and  CB  
    2  A    between atoms: CB   and  CG  
    3  A    between atoms: CG   and  CD  
    4  A    between atoms: CD   and  CE  

>  <TORSDO>
F 15

>  <BEGIN_>
RES LYS A 131

$$$$
ligand_3_pose_8_2HRL.pdbqt
 OpenBabel07062320523D

  6  5  0  0  0  0  0  0  0  0999 V2000
   33.1930   34.6630    9.2900 C   0  0  0  0  0  0  0  0  0  0  0  0
   32.0600   35.3600   10.0340 C   0  0  0  0  0  0  0  0  0  0  0  0
   30.8290   35.5760    9.1920 C   0  0  0  0  0  0  0  0  0  0  0  0
   30.1670   34.2480    8.8580 C   0  0  0  0  0  0  0  0  0  0  0  0
   28.7690   34.4720    8.3150 C   0  0  0  0  0  0  0  0  0  0  0  0
   28.7880   35.3990    7.1500 N   0  0  0  0  0  0  0  0  0  0  0  0
  1  2  1  0  0  0  0
  3  2  1  0  0  0  0
  4  3  1  0  0  0  0
  5  4  1  0  0  0  0
  6  5  1  0  0  0  0
M  END
>  <EGIN_R>
ES LYS A 135

>  <REMARK>
  4 active torsions:
  status: ('A' for Active; 'I' for Inactive)
    5  A    between atoms: CA   and  CB  
    6  A    between atoms: CB   and  CG  
    7  A    between atoms: CG   and  CD  
    8  A    between atoms: CD   and  CE  

$$$$
