ligand_86_pose_11_2HRL.pdbqt
 OpenBabel07062320523D

 52 54  0  0  1  0  0  0  0  0999 V2000
   26.6140   37.2420   12.9780 C   0  0  0  0  0  0  0  0  0  0  0  0
   27.4640   36.9600   11.7870 C   0  0  2  0  0  0  0  0  0  0  0  0
   26.8630   37.4050   10.4910 C   0  0  2  0  0  0  0  0  0  0  0  0
   27.3220   36.5720    9.3170 C   0  0  2  0  0  0  0  0  0  0  0  0
   29.2260   35.9870    8.1430 C   0  0  2  0  0  0  0  0  0  0  0  0
   28.1740   35.3370    7.2850 C   0  0  0  0  0  0  0  0  0  0  0  0
   28.7090   36.5550    9.2970 O   0  0  0  0  0  0  0  0  0  0  0  0
   27.0410   36.2500    6.9300 C   0  0  1  0  0  0  0  0  0  0  0  0
   26.8670   37.2490    8.0400 C   0  0  1  0  0  0  0  0  0  0  0  0
   29.9950   36.9120    7.4370 O   0  0  0  0  0  0  0  0  0  0  0  0
   29.7910   36.8660    6.4740 H   0  0  0  0  0  0  0  0  0  0  0  0
   30.1620   34.9040    8.5820 C   0  0  0  0  0  0  0  0  0  0  0  0
   29.8920   34.1850    9.6020 O   0  0  0  0  0  0  0  0  0  0  0  0
   31.3390   34.6210    7.9300 O   0  0  0  0  0  0  0  0  0  0  0  0
   31.9440   33.8930    8.3300 H   0  0  0  0  0  0  0  0  0  0  0  0
   27.1520   36.8150    5.6810 O   0  0  0  0  0  0  0  0  0  0  0  0
   27.9810   37.3610    5.6670 H   0  0  0  0  0  0  0  0  0  0  0  0
   25.5250   37.7650    8.1390 N   0  0  0  0  0  0  0  0  0  0  0  0
   25.0980   38.9300    7.4330 C   0  0  0  0  0  0  0  0  0  0  0  0
   24.8130   37.2930    8.7400 H   0  0  0  0  0  0  0  0  0  0  0  0
   23.7080   39.4070    7.5770 C   0  0  0  0  0  0  0  0  0  0  0  0
   25.9370   39.5110    6.7060 O   0  0  0  0  0  0  0  0  0  0  0  0
   27.2330   38.7270   10.2480 O   0  0  0  0  0  0  0  0  0  0  0  0
   27.7240   38.8260    9.4130 H   0  0  0  0  0  0  0  0  0  0  0  0
   27.7470   35.5780   11.6830 O   0  0  0  0  0  0  0  0  0  0  0  0
   27.3590   35.1730   12.5090 H   0  0  0  0  0  0  0  0  0  0  0  0
   25.2380   36.8580   12.7750 N   0  0  0  0  0  0  0  0  0  0  0  0
   24.7770   35.6040   13.2580 C   0  0  0  0  0  0  0  0  0  0  0  0
   24.5430   37.4670   12.2810 H   0  0  0  0  0  0  0  0  0  0  0  0
   25.5190   34.7860   13.8670 O   0  0  0  0  0  0  0  0  0  0  0  0
   23.4580   35.1840   13.0910 O   0  0  0  0  0  0  0  0  0  0  0  0
   23.0610   34.3120   12.0510 C   0  0  0  0  0  0  0  0  0  0  0  0
   22.9180   35.0700   10.7790 C   0  0  0  0  0  0  0  0  0  0  0  0
   21.7270   35.5380   10.2650 C   0  0  0  0  0  0  0  0  0  0  0  0
   23.8590   35.4500    9.8970 N   0  0  0  0  0  0  0  0  0  0  0  0
   21.9710   36.1860    9.0910 N   0  0  0  0  0  0  0  0  0  0  0  0
   23.2790   36.1010    8.9160 N   0  0  0  0  0  0  0  0  0  0  0  0
   20.9920   36.8300    8.2200 C   0  0  2  0  0  0  0  0  0  0  0  0
   20.4500   38.0130    8.9330 C   0  0  0  0  0  0  0  0  0  0  0  0
   19.9900   35.8040    7.8260 C   0  0  0  0  0  0  0  0  0  0  0  0
   19.0310   38.3450    8.6400 C   0  0  1  0  0  0  0  0  0  0  0  0
   18.5610   36.2720    7.9110 C   0  0  2  0  0  0  0  0  0  0  0  0
   18.5350   37.6560    7.4700 N   0  0  0  0  0  0  0  0  0  0  0  0
   18.1710   37.7530    9.7450 C   0  0  0  0  0  0  0  0  0  0  0  0
   18.1590   36.2870    9.3640 C   0  0  0  0  0  0  0  0  0  0  0  0
   17.2010   38.1030    7.1580 C   0  0  0  0  0  0  0  0  0  0  0  0
   29.8670   25.5550   16.9770 C   0  0  0  0  0  0  0  0  0  0  0  0
   28.3450   25.7220   17.0260 C   0  0  0  0  0  0  0  0  0  0  0  0
   27.6000   24.4120   16.8180 C   0  0  0  0  0  0  0  0  0  0  0  0
   26.2430   24.4240   17.4650 C   0  0  0  0  0  0  0  0  0  0  0  0
   26.2300   25.4390   18.6040 C   0  0  0  0  0  0  0  0  0  0  0  0
   25.5450   24.8770   19.7920 N   0  0  0  0  0  0  0  0  0  0  0  0
  2  1  1  1  0  0  0
  3 23  1  6  0  0  0
  3  2  1  0  0  0  0
  4  3  1  1  0  0  0
  5 10  1  6  0  0  0
  5 12  1  0  0  0  0
  5  7  1  0  0  0  0
  6  5  1  0  0  0  0
  7  4  1  0  0  0  0
  8 16  1  6  0  0  0
  8  6  1  0  0  0  0
  8  9  1  0  0  0  0
  9 18  1  1  0  0  0
  9  4  1  0  0  0  0
 11 10  1  0  0  0  0
 12 13  2  0  0  0  0
 14 15  1  0  0  0  0
 14 12  1  0  0  0  0
 17 16  1  0  0  0  0
 18 20  1  0  0  0  0
 19 21  1  0  0  0  0
 19 18  1  0  0  0  0
 22 19  2  0  0  0  0
 24 23  1  0  0  0  0
 25  2  1  0  0  0  0
 25 26  1  0  0  0  0
 27  1  1  0  0  0  0
 27 28  1  0  0  0  0
 28 30  2  0  0  0  0
 29 27  1  0  0  0  0
 31 28  1  0  0  0  0
 32 31  1  0  0  0  0
 33 32  1  0  0  0  0
 34 33  2  0  0  0  0
 35 33  1  0  0  0  0
 36 34  1  0  0  0  0
 37 36  1  0  0  0  0
 37 35  2  0  0  0  0
 38 40  1  1  0  0  0
 38 39  1  0  0  0  0
 38 36  1  0  0  0  0
 41 39  1  1  0  0  0
 41 44  1  0  0  0  0
 42 40  1  1  0  0  0
 42 45  1  0  0  0  0
 43 42  1  0  0  0  0
 43 41  1  0  0  0  0
 45 44  1  0  0  0  0
 46 43  1  0  0  0  0
 47 48  1  0  0  0  0
 49 48  1  0  0  0  0
 49 50  1  0  0  0  0
 50 51  1  0  0  0  0
 51 52  1  0  0  0  0
M  END
>  <REMARK>
 VINA RESULT:    -4.339      7.220     11.994
 INTER + INTRA:         -14.065
 INTER:                  -9.004
 INTRA:                  -5.061
 UNBOUND:                -6.555
 SMILES CC(=O)N[C@@H]1[C@@H](O)C[C@](O)(C(=O)O)O[C@H]1C(O)[C@H](O)CNC(=O)OCc1cn([C@H]2C[C@H]3CC[C@@H](C2)N3C)nn1
 SMILES IDX 20 1 18 2 16 3 15 4 9 5 8 6 14 7 6 8 5 9 10 10 11 12 12 13
 SMILES IDX 13 14 7 16 4 18 2 19 1 21 3 22 17 23 19 25 21 27 22 28 23 30
 SMILES IDX 24 31 25 32 26 33 27 34 39 35 28 36 38 37 29 38 35 39 30 40
 SMILES IDX 34 41 31 42 36 43 33 44 32 45 37 46
 H PARENT 10 11 13 15 7 17 4 20 17 24 19 26 21 29
 Flexibility Score: inf
  4 active torsions:
  status: ('A' for Active; 'I' for Inactive)
    1  A    between atoms: CA   and  CB  
    2  A    between atoms: CB   and  CG  
    3  A    between atoms: CG   and  CD  
    4  A    between atoms: CD   and  CE  

>  <TORSDO>
F 15

>  <BEGIN_>
RES LYS A 131

$$$$
ligand_86_pose_11_2HRL.pdbqt
 OpenBabel07062320523D

  6  5  0  0  0  0  0  0  0  0999 V2000
   33.1930   34.6630    9.2900 C   0  0  0  0  0  0  0  0  0  0  0  0
   32.0600   35.3600   10.0340 C   0  0  0  0  0  0  0  0  0  0  0  0
   32.4960   36.0130   11.3200 C   0  0  0  0  0  0  0  0  0  0  0  0
   31.2950   36.5530   12.0820 C   0  0  0  0  0  0  0  0  0  0  0  0
   31.1480   35.8450   13.4150 C   0  0  0  0  0  0  0  0  0  0  0  0
   30.6080   34.4690   13.2360 N   0  0  0  0  0  0  0  0  0  0  0  0
  1  2  1  0  0  0  0
  2  3  1  0  0  0  0
  3  4  1  0  0  0  0
  4  5  1  0  0  0  0
  6  5  1  0  0  0  0
M  END
>  <EGIN_R>
ES LYS A 135

>  <REMARK>
  4 active torsions:
  status: ('A' for Active; 'I' for Inactive)
    5  A    between atoms: CA   and  CB  
    6  A    between atoms: CB   and  CG  
    7  A    between atoms: CG   and  CD  
    8  A    between atoms: CD   and  CE  

$$$$
