ligand_0_pose_6_2HRL.pdbqt
 OpenBabel07062320523D

 54 55  0  0  1  0  0  0  0  0999 V2000
   25.5010   37.0330   14.8770 N   0  0  0  0  0  0  0  0  0  0  0  0
   25.6320   36.2330   16.0420 C   0  0  0  0  0  0  0  0  0  0  0  0
   24.7660   36.3150   16.9320 O   0  0  0  0  0  0  0  0  0  0  0  0
   26.2730   36.9150   14.1590 H   0  0  0  0  0  0  0  0  0  0  0  0
   24.4230   37.9570   14.6280 C   0  0  0  0  0  0  0  0  0  0  0  0
   24.1660   38.1660   13.1460 C   0  0  2  0  0  0  0  0  0  0  0  0
   23.5470   36.9580   12.5090 C   0  0  1  0  0  0  0  0  0  0  0  0
   23.8340   36.8010   11.0640 C   0  0  2  0  0  0  0  0  0  0  0  0
   22.6820   36.2220    9.1120 C   0  0  2  0  0  0  0  0  0  0  0  0
   23.9710   36.6620    8.4830 C   0  0  0  0  0  0  0  0  0  0  0  0
   22.6080   36.4240   10.4530 O   0  0  0  0  0  0  0  0  0  0  0  0
   25.1920   36.1650    9.1760 C   0  0  1  0  0  0  0  0  0  0  0  0
   24.8390   35.8180   10.6190 C   0  0  1  0  0  0  0  0  0  0  0  0
   22.4280   34.8770    8.7510 O   0  0  0  0  0  0  0  0  0  0  0  0
   21.9150   34.4580    9.5020 H   0  0  0  0  0  0  0  0  0  0  0  0
   21.5960   37.0180    8.4680 C   0  0  0  0  0  0  0  0  0  0  0  0
   21.1340   38.0160    9.1010 O   0  0  0  0  0  0  0  0  0  0  0  0
   21.0690   36.7310    7.2280 O   0  0  0  0  0  0  0  0  0  0  0  0
   21.6530   36.6890    6.4090 H   0  0  0  0  0  0  0  0  0  0  0  0
   25.6810   35.0610    8.4960 O   0  0  0  0  0  0  0  0  0  0  0  0
   25.0260   34.6560    7.8740 H   0  0  0  0  0  0  0  0  0  0  0  0
   25.9760   35.5780   11.4220 N   0  0  0  0  0  0  0  0  0  0  0  0
   27.1100   36.4160   11.3900 C   0  0  0  0  0  0  0  0  0  0  0  0
   26.0030   34.7770   12.0830 H   0  0  0  0  0  0  0  0  0  0  0  0
   28.3250   36.2120   12.2070 C   0  0  0  0  0  0  0  0  0  0  0  0
   27.0860   37.4000   10.6190 O   0  0  0  0  0  0  0  0  0  0  0  0
   23.5400   35.8190   13.2790 O   0  0  0  0  0  0  0  0  0  0  0  0
   24.4780   35.4720   13.3830 H   0  0  0  0  0  0  0  0  0  0  0  0
   25.2430   38.7010   12.4970 O   0  0  0  0  0  0  0  0  0  0  0  0
   26.0940   38.4890   12.9720 H   0  0  0  0  0  0  0  0  0  0  0  0
   26.6940   35.3560   16.2270 O   0  0  0  0  0  0  0  0  0  0  0  0
   26.5120   33.9520   16.2930 C   0  0  0  0  0  0  0  0  0  0  0  0
   25.8260   33.4610   15.0600 C   0  0  0  0  0  0  0  0  0  0  0  0
   24.9320   32.4070   15.0050 C   0  0  0  0  0  0  0  0  0  0  0  0
   25.9360   33.9280   13.8070 N   0  0  0  0  0  0  0  0  0  0  0  0
   24.5330   32.2780   13.7040 N   0  0  0  0  0  0  0  0  0  0  0  0
   25.1480   33.1970   13.0190 N   0  0  0  0  0  0  0  0  0  0  0  0
   23.6120   31.2910   13.2250 C   0  0  0  0  0  0  0  0  0  0  0  0
   22.3400   31.6160   12.8180 C   0  0  0  0  0  0  0  0  0  0  0  0
   24.0400   29.9680   13.1790 C   0  0  0  0  0  0  0  0  0  0  0  0
   21.4990   30.5960   12.3630 C   0  0  0  0  0  0  0  0  0  0  0  0
   23.2000   28.9800   12.7290 C   0  0  0  0  0  0  0  0  0  0  0  0
   21.9320   29.3050   12.3240 C   0  0  0  0  0  0  0  0  0  0  0  0
   21.8300   32.9790   12.8400 C   0  0  0  0  0  0  0  0  0  0  0  0
   21.4120   33.4290   13.9560 O   0  0  0  0  0  0  0  0  0  0  0  0
   21.7840   33.8050   11.6860 N   0  0  0  0  0  0  0  0  0  0  0  0
   22.6320   34.2080   11.2560 H   0  0  0  0  0  0  0  0  0  0  0  0
   20.8180   33.9990   11.2830 H   0  0  0  0  0  0  0  0  0  0  0  0
   29.8670   25.5550   16.9770 C   0  0  0  0  0  0  0  0  0  0  0  0
   28.3450   25.7220   17.0260 C   0  0  0  0  0  0  0  0  0  0  0  0
   27.6010   24.4030   16.8850 C   0  0  0  0  0  0  0  0  0  0  0  0
   26.5550   24.2260   17.9510 C   0  0  0  0  0  0  0  0  0  0  0  0
   25.2150   23.8980   17.2990 C   0  0  0  0  0  0  0  0  0  0  0  0
   24.8010   22.5150   17.6330 N   0  0  0  0  0  0  0  0  0  0  0  0
  1  2  1  0  0  0  0
  2 31  1  0  0  0  0
  2  3  2  0  0  0  0
  4  1  1  0  0  0  0
  5  1  1  0  0  0  0
  6  5  1  1  0  0  0
  7  6  1  0  0  0  0
  7 27  1  1  0  0  0
  8  7  1  1  0  0  0
  9 16  1  6  0  0  0
  9 11  1  0  0  0  0
 10  9  1  0  0  0  0
 10 12  1  0  0  0  0
 11  8  1  0  0  0  0
 12 20  1  6  0  0  0
 12 13  1  0  0  0  0
 13  8  1  0  0  0  0
 13 22  1  1  0  0  0
 14  9  1  0  0  0  0
 14 15  1  0  0  0  0
 16 17  2  0  0  0  0
 18 16  1  0  0  0  0
 19 18  1  0  0  0  0
 21 20  1  0  0  0  0
 22 24  1  0  0  0  0
 23 22  1  0  0  0  0
 23 25  1  0  0  0  0
 26 23  2  0  0  0  0
 27 28  1  0  0  0  0
 29 30  1  0  0  0  0
 29  6  1  0  0  0  0
 31 32  1  0  0  0  0
 33 32  1  0  0  0  0
 34 33  2  0  0  0  0
 35 33  1  0  0  0  0
 36 34  1  0  0  0  0
 37 36  1  0  0  0  0
 37 35  2  0  0  0  0
 38 36  1  0  0  0  0
 39 44  1  0  0  0  0
 39 38  2  0  0  0  0
 40 38  1  0  0  0  0
 41 39  1  0  0  0  0
 42 40  2  0  0  0  0
 43 41  2  0  0  0  0
 43 42  1  0  0  0  0
 44 45  2  0  0  0  0
 46 44  1  0  0  0  0
 47 46  1  0  0  0  0
 48 46  1  0  0  0  0
 49 50  1  0  0  0  0
 51 50  1  0  0  0  0
 51 52  1  0  0  0  0
 53 54  1  0  0  0  0
 53 52  1  0  0  0  0
M  END
>  <REMARK>
 VINA RESULT:    -5.307      5.946     11.263
 INTER + INTRA:         -14.910
 INTER:                  -7.909
 INTRA:                  -7.002
 UNBOUND:                -5.414
 SMILES CC(=O)N[C@@H]1[C@@H](O)C[C@](O)(C(=O)O)O[C@H]1C(O)[C@H](O)CNC(=O)OCc1cn(-c2ccccc2C(N)=O)nn1
 SMILES IDX 21 1 22 2 23 3 20 5 18 6 16 7 15 8 9 9 8 10 14 11 6 12 5 13
 SMILES IDX 10 14 11 16 12 17 13 18 7 20 4 22 2 23 1 25 3 26 17 27 19 29
 SMILES IDX 24 31 25 32 26 33 27 34 39 35 28 36 38 37 29 38 34 39 30 40
 SMILES IDX 33 41 31 42 32 43 35 44 37 45 36 46
 H PARENT 21 4 10 15 13 19 7 21 4 24 17 28 19 30 36 47 36 48
 Flexibility Score: inf
  4 active torsions:
  status: ('A' for Active; 'I' for Inactive)
    1  A    between atoms: CA   and  CB  
    2  A    between atoms: CB   and  CG  
    3  A    between atoms: CG   and  CD  
    4  A    between atoms: CD   and  CE  

>  <TORSDO>
F 16

>  <BEGIN_>
RES LYS A 131

$$$$
ligand_0_pose_6_2HRL.pdbqt
 OpenBabel07062320523D

  6  5  0  0  0  0  0  0  0  0999 V2000
   33.1930   34.6630    9.2900 C   0  0  0  0  0  0  0  0  0  0  0  0
   32.0600   35.3600   10.0340 C   0  0  0  0  0  0  0  0  0  0  0  0
   30.9050   35.7470    9.1470 C   0  0  0  0  0  0  0  0  0  0  0  0
   30.3400   34.5250    8.4390 C   0  0  0  0  0  0  0  0  0  0  0  0
   29.0800   34.8870    7.6760 C   0  0  0  0  0  0  0  0  0  0  0  0
   28.8110   36.3500    7.7470 N   0  0  0  0  0  0  0  0  0  0  0  0
  1  2  1  0  0  0  0
  3  2  1  0  0  0  0
  4  3  1  0  0  0  0
  5  6  1  0  0  0  0
  5  4  1  0  0  0  0
M  END
>  <EGIN_R>
ES LYS A 135

>  <REMARK>
  4 active torsions:
  status: ('A' for Active; 'I' for Inactive)
    5  A    between atoms: CA   and  CB  
    6  A    between atoms: CB   and  CG  
    7  A    between atoms: CG   and  CD  
    8  A    between atoms: CD   and  CE  

$$$$
