ligand_27_pose_3_2HRL.pdbqt
 OpenBabel07062320523D

 50 51  0  0  1  0  0  0  0  0999 V2000
   27.5740   30.4570   17.7370 C   0  0  0  0  0  0  0  0  0  0  0  0
   28.5720   30.6430   16.6310 C   0  0  2  0  0  0  0  0  0  0  0  0
   28.3210   31.8740   15.8100 C   0  0  2  0  0  0  0  0  0  0  0  0
   29.0730   33.0770   16.3870 C   0  0  2  0  0  0  0  0  0  0  0  0
   30.1980   34.3100   14.7310 C   0  0  2  0  0  0  0  0  0  0  0  0
   31.4360   34.3200   15.6180 C   0  0  0  0  0  0  0  0  0  0  0  0
   29.0940   34.0450   15.4640 O   0  0  0  0  0  0  0  0  0  0  0  0
   31.5660   32.8690   16.0780 C   0  0  1  0  0  0  0  0  0  0  0  0
   30.3650   32.5870   16.9380 C   0  0  1  0  0  0  0  0  0  0  0  0
   30.4590   33.3880   13.7250 O   0  0  0  0  0  0  0  0  0  0  0  0
   31.1960   32.8000   14.0220 H   0  0  0  0  0  0  0  0  0  0  0  0
   30.0340   35.6450   14.1090 C   0  0  0  0  0  0  0  0  0  0  0  0
   30.9290   36.0740   13.3450 O   0  0  0  0  0  0  0  0  0  0  0  0
   28.9250   36.4470   14.3340 O   0  0  0  0  0  0  0  0  0  0  0  0
   29.0810   37.4280   14.5910 H   0  0  0  0  0  0  0  0  0  0  0  0
   31.5400   31.9880   15.0020 O   0  0  0  0  0  0  0  0  0  0  0  0
   32.3510   31.4050   14.9710 H   0  0  0  0  0  0  0  0  0  0  0  0
   30.6300   33.1730   18.2350 N   0  0  0  0  0  0  0  0  0  0  0  0
   30.7920   32.3320   19.3660 C   0  0  0  0  0  0  0  0  0  0  0  0
   30.7050   34.2250   18.3610 H   0  0  0  0  0  0  0  0  0  0  0  0
   31.0630   32.9420   20.6930 C   0  0  0  0  0  0  0  0  0  0  0  0
   30.7060   31.0840   19.2360 O   0  0  0  0  0  0  0  0  0  0  0  0
   26.9320   32.1160   15.8750 O   0  0  0  0  0  0  0  0  0  0  0  0
   26.7460   32.9840   16.2590 H   0  0  0  0  0  0  0  0  0  0  0  0
   28.5240   29.5200   15.7860 O   0  0  0  0  0  0  0  0  0  0  0  0
   27.9910   29.7410   15.0020 H   0  0  0  0  0  0  0  0  0  0  0  0
   28.1320   29.5890   18.7670 N   0  0  0  0  0  0  0  0  0  0  0  0
   27.7750   28.2190   18.8310 C   0  0  0  0  0  0  0  0  0  0  0  0
   28.7960   30.0060   19.4490 H   0  0  0  0  0  0  0  0  0  0  0  0
   26.9680   27.7570   17.9850 O   0  0  0  0  0  0  0  0  0  0  0  0
   28.2810   27.3600   19.7930 O   0  0  0  0  0  0  0  0  0  0  0  0
   28.5110   27.8680   21.0880 C   0  0  0  0  0  0  0  0  0  0  0  0
   29.9560   27.7420   21.4140 C   0  0  0  0  0  0  0  0  0  0  0  0
   30.8330   28.7760   21.6960 C   0  0  0  0  0  0  0  0  0  0  0  0
   30.7000   26.6250   21.5030 N   0  0  0  0  0  0  0  0  0  0  0  0
   32.0630   28.2680   21.9440 N   0  0  0  0  0  0  0  0  0  0  0  0
   31.9430   26.9570   21.8170 N   0  0  0  0  0  0  0  0  0  0  0  0
   33.2380   29.0000   22.2710 C   0  0  0  0  0  0  0  0  0  0  0  0
   33.3950   30.2750   21.7730 C   0  0  0  0  0  0  0  0  0  0  0  0
   34.2440   28.4990   23.0710 C   0  0  0  0  0  0  0  0  0  0  0  0
   34.5220   31.0270   22.0640 C   0  0  0  0  0  0  0  0  0  0  0  0
   35.3780   29.2190   23.3800 C   0  0  0  0  0  0  0  0  0  0  0  0
   35.5060   30.4930   22.8650 C   0  0  0  0  0  0  0  0  0  0  0  0
   36.6460   28.5370   24.4100 Cl  0  0  0  0  0  0  0  0  0  0  0  0
   29.8670   25.5550   16.9770 C   0  0  0  0  0  0  0  0  0  0  0  0
   28.3450   25.7220   17.0260 C   0  0  0  0  0  0  0  0  0  0  0  0
   27.6020   24.4000   16.9130 C   0  0  0  0  0  0  0  0  0  0  0  0
   26.1630   24.5210   17.3350 C   0  0  0  0  0  0  0  0  0  0  0  0
   25.9910   23.9320   18.7320 C   0  0  0  0  0  0  0  0  0  0  0  0
   25.5300   24.9730   19.6800 N   0  0  0  0  0  0  0  0  0  0  0  0
  1 27  1  0  0  0  0
  2  1  1  1  0  0  0
  3 23  1  1  0  0  0
  3  2  1  0  0  0  0
  4  3  1  6  0  0  0
  4  9  1  0  0  0  0
  5 10  1  6  0  0  0
  5  7  1  0  0  0  0
  5  6  1  0  0  0  0
  6  8  1  0  0  0  0
  7  4  1  0  0  0  0
  8 16  1  6  0  0  0
  8  9  1  0  0  0  0
  9 18  1  1  0  0  0
 10 11  1  0  0  0  0
 12 14  1  0  0  0  0
 12  5  1  0  0  0  0
 13 12  2  0  0  0  0
 14 15  1  0  0  0  0
 17 16  1  0  0  0  0
 18 20  1  0  0  0  0
 18 19  1  0  0  0  0
 19 21  1  0  0  0  0
 22 19  2  0  0  0  0
 23 24  1  0  0  0  0
 25  2  1  0  0  0  0
 26 25  1  0  0  0  0
 27 28  1  0  0  0  0
 27 29  1  0  0  0  0
 28 31  1  0  0  0  0
 30 28  2  0  0  0  0
 31 32  1  0  0  0  0
 32 33  1  0  0  0  0
 33 35  1  0  0  0  0
 33 34  2  0  0  0  0
 34 36  1  0  0  0  0
 35 37  2  0  0  0  0
 36 38  1  0  0  0  0
 37 36  1  0  0  0  0
 38 40  2  0  0  0  0
 39 41  2  0  0  0  0
 39 38  1  0  0  0  0
 40 42  1  0  0  0  0
 41 43  1  0  0  0  0
 42 44  1  0  0  0  0
 43 42  2  0  0  0  0
 45 46  1  0  0  0  0
 47 46  1  0  0  0  0
 47 48  1  0  0  0  0
 48 49  1  0  0  0  0
 49 50  1  0  0  0  0
M  END
>  <REMARK>
 VINA RESULT:    -5.778      3.330      6.642
 INTER + INTRA:         -14.498
 INTER:                  -9.176
 INTRA:                  -5.321
 UNBOUND:                -4.497
 SMILES CC(=O)N[C@@H]1[C@@H](O)C[C@](O)(C(=O)O)O[C@H]1C(O)[C@H](O)CNC(=O)OCc1cn(-c2cccc(Cl)c2)nn1
 SMILES IDX 20 1 18 2 16 3 15 4 9 5 8 6 14 7 6 8 5 9 10 10 11 12 12 13
 SMILES IDX 13 14 7 16 4 18 2 19 1 21 3 22 17 23 19 25 21 27 22 28 23 30
 SMILES IDX 24 31 25 32 26 33 27 34 37 35 28 36 36 37 29 38 30 39 35 40
 SMILES IDX 31 41 33 42 32 43 34 44
 H PARENT 10 11 13 15 7 17 4 20 17 24 19 26 21 29
 Flexibility Score: inf
  4 active torsions:
  status: ('A' for Active; 'I' for Inactive)
    1  A    between atoms: CA   and  CB  
    2  A    between atoms: CB   and  CG  
    3  A    between atoms: CG   and  CD  
    4  A    between atoms: CD   and  CE  

>  <TORSDO>
F 15

>  <BEGIN_>
RES LYS A 131

$$$$
ligand_27_pose_3_2HRL.pdbqt
 OpenBabel07062320523D

  6  5  0  0  0  0  0  0  0  0999 V2000
   33.1930   34.6630    9.2900 C   0  0  0  0  0  0  0  0  0  0  0  0
   32.0600   35.3600   10.0340 C   0  0  0  0  0  0  0  0  0  0  0  0
   30.8050   35.5130    9.2140 C   0  0  0  0  0  0  0  0  0  0  0  0
   30.1470   34.1610    8.9830 C   0  0  0  0  0  0  0  0  0  0  0  0
   28.6930   34.3360    8.5900 C   0  0  0  0  0  0  0  0  0  0  0  0
   27.7890   33.6810    9.5750 N   0  0  0  0  0  0  0  0  0  0  0  0
  1  2  1  0  0  0  0
  3  2  1  0  0  0  0
  4  3  1  0  0  0  0
  5  4  1  0  0  0  0
  5  6  1  0  0  0  0
M  END
>  <EGIN_R>
ES LYS A 135

>  <REMARK>
  4 active torsions:
  status: ('A' for Active; 'I' for Inactive)
    5  A    between atoms: CA   and  CB  
    6  A    between atoms: CB   and  CG  
    7  A    between atoms: CG   and  CD  
    8  A    between atoms: CD   and  CE  

$$$$
