ligand_84_pose_17_2HRL.pdbqt
 OpenBabel07062320523D

 60 62  0  0  1  0  0  0  0  0999 V2000
   25.5250   33.8700   12.3850 O   0  0  0  0  0  0  0  0  0  0  0  0
   26.4940   34.8280   12.1280 C   0  0  0  0  0  0  0  0  0  0  0  0
   26.5380   35.6240   10.9500 N   0  0  0  0  0  0  0  0  0  0  0  0
   25.7940   35.4520   10.2470 H   0  0  0  0  0  0  0  0  0  0  0  0
   27.3720   34.9770   13.0210 O   0  0  0  0  0  0  0  0  0  0  0  0
   27.5960   36.5750   10.8490 C   0  0  0  0  0  0  0  0  0  0  0  0
   27.5600   37.4870    9.6890 C   0  0  2  0  0  0  0  0  0  0  0  0
   28.8590   38.2120    9.3830 C   0  0  1  0  0  0  0  0  0  0  0  0
   28.5210   39.0890    8.1750 C   0  0  2  0  0  0  0  0  0  0  0  0
   27.3240   38.9120    6.1800 C   0  0  2  0  0  0  0  0  0  0  0  0
   28.3920   39.6950    5.4720 C   0  0  0  0  0  0  0  0  0  0  0  0
   27.7360   38.3330    7.3500 O   0  0  0  0  0  0  0  0  0  0  0  0
   29.2980   40.4660    6.3630 C   0  0  1  0  0  0  0  0  0  0  0  0
   29.7710   39.5050    7.4750 C   0  0  1  0  0  0  0  0  0  0  0  0
   27.0120   37.8470    5.2960 O   0  0  0  0  0  0  0  0  0  0  0  0
   27.7360   37.1950    5.2580 H   0  0  0  0  0  0  0  0  0  0  0  0
   26.0570   39.6820    6.3510 C   0  0  0  0  0  0  0  0  0  0  0  0
   26.0170   40.9060    6.0690 O   0  0  0  0  0  0  0  0  0  0  0  0
   24.8830   39.1070    6.8170 O   0  0  0  0  0  0  0  0  0  0  0  0
   24.5910   39.1070    7.7870 H   0  0  0  0  0  0  0  0  0  0  0  0
   30.4160   40.8650    5.6310 O   0  0  0  0  0  0  0  0  0  0  0  0
   30.9390   40.0760    5.3300 H   0  0  0  0  0  0  0  0  0  0  0  0
   30.7100   40.1740    8.3360 N   0  0  0  0  0  0  0  0  0  0  0  0
   32.1030   40.0810    8.1180 C   0  0  0  0  0  0  0  0  0  0  0  0
   30.3550   40.7330    9.1300 H   0  0  0  0  0  0  0  0  0  0  0  0
   32.9870   40.8140    9.0720 C   0  0  0  0  0  0  0  0  0  0  0  0
   32.6090   39.4290    7.1800 O   0  0  0  0  0  0  0  0  0  0  0  0
   29.2020   39.0030   10.4920 O   0  0  0  0  0  0  0  0  0  0  0  0
   28.3480   39.3590   10.8480 H   0  0  0  0  0  0  0  0  0  0  0  0
   26.6640   38.5390   10.0290 O   0  0  0  0  0  0  0  0  0  0  0  0
   27.2580   39.2420   10.4190 H   0  0  0  0  0  0  0  0  0  0  0  0
   25.0590   33.6440   13.7050 C   0  0  0  0  0  0  0  0  0  0  0  0
   24.7330   32.2140   13.9010 C   0  0  0  0  0  0  0  0  0  0  0  0
   24.6820   31.5900   15.1500 C   0  0  0  0  0  0  0  0  0  0  0  0
   24.4190   31.2400   13.0360 N   0  0  0  0  0  0  0  0  0  0  0  0
   24.3490   30.2990   15.0130 N   0  0  0  0  0  0  0  0  0  0  0  0
   24.1940   30.1110   13.6840 N   0  0  0  0  0  0  0  0  0  0  0  0
   24.1570   29.2780   16.0280 C   0  0  0  0  0  0  0  0  0  0  0  0
   24.7050   29.7880   17.3670 C   0  0  1  0  0  0  0  0  0  0  0  0
   23.6530   29.8520   18.4090 C   0  0  0  0  0  0  0  0  0  0  0  0
   26.0090   29.1880   17.6890 C   0  0  0  0  0  0  0  0  0  0  0  0
   27.1200   30.0490   17.4310 N   0  0  0  0  0  0  0  0  0  0  0  0
   28.0580   30.0210   18.5860 C   0  0  0  0  0  0  0  0  0  0  0  0
   27.9200   29.5070   16.3370 C   0  0  0  0  0  0  0  0  0  0  0  0
   29.3060   30.7750   18.2940 C   0  0  0  0  0  0  0  0  0  0  0  0
   28.7380   30.7080   15.8370 C   0  0  0  0  0  0  0  0  0  0  0  0
   29.4710   31.2370   16.9510 N   0  0  0  0  0  0  0  0  0  0  0  0
   30.4130   32.2700   16.6870 C   0  0  0  0  0  0  0  0  0  0  0  0
   30.6880   33.2000   17.6650 C   0  0  0  0  0  0  0  0  0  0  0  0
   31.0490   32.3600   15.4560 C   0  0  0  0  0  0  0  0  0  0  0  0
   31.5930   34.2020   17.4010 C   0  0  0  0  0  0  0  0  0  0  0  0
   31.9470   33.3640   15.2050 C   0  0  0  0  0  0  0  0  0  0  0  0
   32.2200   34.2940   16.1950 C   0  0  0  0  0  0  0  0  0  0  0  0
   33.3590   35.5690   15.8550 Cl  0  0  0  0  0  0  0  0  0  0  0  0
   29.8670   25.5550   16.9770 C   0  0  0  0  0  0  0  0  0  0  0  0
   28.3450   25.7220   17.0260 C   0  0  0  0  0  0  0  0  0  0  0  0
   27.6010   24.4020   16.8920 C   0  0  0  0  0  0  0  0  0  0  0  0
   26.5090   24.2610   17.9160 C   0  0  0  0  0  0  0  0  0  0  0  0
   25.1510   24.3930   17.2340 C   0  0  0  0  0  0  0  0  0  0  0  0
   24.4630   23.0810   17.1890 N   0  0  0  0  0  0  0  0  0  0  0  0
  1 32  1  0  0  0  0
  2  1  1  0  0  0  0
  2  5  2  0  0  0  0
  3  2  1  0  0  0  0
  4  3  1  0  0  0  0
  6  3  1  0  0  0  0
  7 30  1  0  0  0  0
  7  6  1  1  0  0  0
  8  7  1  0  0  0  0
  8 28  1  1  0  0  0
  9  8  1  1  0  0  0
 10 15  1  6  0  0  0
 10 17  1  0  0  0  0
 10 12  1  0  0  0  0
 11 10  1  0  0  0  0
 11 13  1  0  0  0  0
 12  9  1  0  0  0  0
 13 21  1  6  0  0  0
 13 14  1  0  0  0  0
 14  9  1  0  0  0  0
 14 23  1  1  0  0  0
 16 15  1  0  0  0  0
 17 19  1  0  0  0  0
 18 17  2  0  0  0  0
 19 20  1  0  0  0  0
 22 21  1  0  0  0  0
 23 25  1  0  0  0  0
 24 23  1  0  0  0  0
 24 26  1  0  0  0  0
 27 24  2  0  0  0  0
 28 29  1  0  0  0  0
 30 31  1  0  0  0  0
 32 33  1  0  0  0  0
 33 34  2  0  0  0  0
 35 37  2  0  0  0  0
 35 33  1  0  0  0  0
 36 34  1  0  0  0  0
 36 38  1  0  0  0  0
 37 36  1  0  0  0  0
 38 39  1  0  0  0  0
 39 41  1  0  0  0  0
 39 40  1  1  0  0  0
 42 41  1  0  0  0  0
 42 43  1  0  0  0  0
 44 42  1  0  0  0  0
 45 43  1  0  0  0  0
 46 44  1  0  0  0  0
 46 47  1  0  0  0  0
 47 45  1  0  0  0  0
 48 47  1  0  0  0  0
 48 49  2  0  0  0  0
 50 48  1  0  0  0  0
 51 49  1  0  0  0  0
 52 50  2  0  0  0  0
 52 53  1  0  0  0  0
 53 51  2  0  0  0  0
 54 53  1  0  0  0  0
 55 56  1  0  0  0  0
 57 56  1  0  0  0  0
 57 58  1  0  0  0  0
 59 58  1  0  0  0  0
 60 59  1  0  0  0  0
M  END
>  <REMARK>
 VINA RESULT:    -4.872      2.370      3.467
 INTER + INTRA:         -15.692
 INTER:                 -10.380
 INTRA:                  -5.312
 UNBOUND:                -6.121
 SMILES CC(=O)N[C@@H]1[C@@H](O)C[C@](O)(C(=O)O)O[C@H]1C(O)[C@H](O)CNC(=O)OCc1cn(C[C@@H](C)CN2CCN(c3ccc(Cl)cc3)CC2)nn1
 SMILES IDX 24 1 22 2 21 3 23 5 20 6 18 7 16 8 15 9 9 10 8 11 14 12 6 13
 SMILES IDX 5 14 10 15 11 17 12 18 13 19 7 21 4 23 2 24 1 26 3 27 17 28
 SMILES IDX 19 30 25 32 26 33 27 34 47 35 28 36 46 37 29 38 30 39 31 40
 SMILES IDX 32 41 33 42 34 43 45 44 35 45 44 46 36 47 37 48 38 49 43 50
 SMILES IDX 39 51 42 52 40 53 41 54
 H PARENT 21 4 10 16 13 20 7 22 4 25 17 29 19 31
 Flexibility Score: inf
  4 active torsions:
  status: ('A' for Active; 'I' for Inactive)
    1  A    between atoms: CA   and  CB  
    2  A    between atoms: CB   and  CG  
    3  A    between atoms: CG   and  CD  
    4  A    between atoms: CD   and  CE  

>  <TORSDO>
F 19

>  <BEGIN_>
RES LYS A 131

$$$$
ligand_84_pose_17_2HRL.pdbqt
 OpenBabel07062320523D

  6  5  0  0  0  0  0  0  0  0999 V2000
   33.1930   34.6630    9.2900 C   0  0  0  0  0  0  0  0  0  0  0  0
   32.0600   35.3600   10.0340 C   0  0  0  0  0  0  0  0  0  0  0  0
   30.7220   34.6910    9.8570 C   0  0  0  0  0  0  0  0  0  0  0  0
   30.4050   34.5040    8.3810 C   0  0  0  0  0  0  0  0  0  0  0  0
   28.9060   34.5210    8.1510 C   0  0  0  0  0  0  0  0  0  0  0  0
   28.5620   35.2720    6.9120 N   0  0  0  0  0  0  0  0  0  0  0  0
  1  2  1  0  0  0  0
  3  2  1  0  0  0  0
  4  3  1  0  0  0  0
  5  4  1  0  0  0  0
  6  5  1  0  0  0  0
M  END
>  <EGIN_R>
ES LYS A 135

>  <REMARK>
  4 active torsions:
  status: ('A' for Active; 'I' for Inactive)
    5  A    between atoms: CA   and  CB  
    6  A    between atoms: CB   and  CG  
    7  A    between atoms: CG   and  CD  
    8  A    between atoms: CD   and  CE  

$$$$
