ligand_38_pose_13_2HRL.pdbqt
 OpenBabel07062320523D

 51 52  0  0  1  0  0  0  0  0999 V2000
   28.7430   27.0230   19.8000 N   0  0  0  0  0  0  0  0  0  0  0  0
   29.3420   27.3140   21.0480 C   0  0  0  0  0  0  0  0  0  0  0  0
   28.7210   28.0030   21.9220 O   0  0  0  0  0  0  0  0  0  0  0  0
   29.2860   26.4560   19.1150 H   0  0  0  0  0  0  0  0  0  0  0  0
   27.4190   27.5350   19.5690 C   0  0  0  0  0  0  0  0  0  0  0  0
   27.3750   28.4180   18.3140 C   0  0  2  0  0  0  0  0  0  0  0  0
   27.7510   29.7840   18.7690 C   0  0  2  0  0  0  0  0  0  0  0  0
   27.3330   30.9190   17.8800 C   0  0  2  0  0  0  0  0  0  0  0  0
   25.3680   32.1220   17.4980 C   0  0  2  0  0  0  0  0  0  0  0  0
   25.8430   32.3130   16.0700 C   0  0  0  0  0  0  0  0  0  0  0  0
   25.9440   30.9950   18.0310 O   0  0  0  0  0  0  0  0  0  0  0  0
   26.5610   31.0710   15.5670 C   0  0  1  0  0  0  0  0  0  0  0  0
   27.7880   30.8580   16.4730 C   0  0  1  0  0  0  0  0  0  0  0  0
   23.9920   31.8250   17.3930 O   0  0  0  0  0  0  0  0  0  0  0  0
   23.6250   32.0870   16.5270 H   0  0  0  0  0  0  0  0  0  0  0  0
   25.4970   33.3380   18.3040 C   0  0  0  0  0  0  0  0  0  0  0  0
   24.9170   33.4260   19.4110 O   0  0  0  0  0  0  0  0  0  0  0  0
   26.2460   34.4350   17.9020 O   0  0  0  0  0  0  0  0  0  0  0  0
   25.8410   35.1030   17.2760 H   0  0  0  0  0  0  0  0  0  0  0  0
   25.7320   29.9790   15.5500 O   0  0  0  0  0  0  0  0  0  0  0  0
   25.1310   30.0190   16.3590 H   0  0  0  0  0  0  0  0  0  0  0  0
   28.6700   31.9840   16.1400 N   0  0  0  0  0  0  0  0  0  0  0  0
   30.0840   31.8540   16.1770 C   0  0  0  0  0  0  0  0  0  0  0  0
   28.3030   32.9210   15.8660 H   0  0  0  0  0  0  0  0  0  0  0  0
   30.9700   33.0250   15.8330 C   0  0  0  0  0  0  0  0  0  0  0  0
   30.6360   30.7870   16.4890 O   0  0  0  0  0  0  0  0  0  0  0  0
   29.1710   29.8170   18.7530 O   0  0  0  0  0  0  0  0  0  0  0  0
   29.4140   30.4440   19.4920 H   0  0  0  0  0  0  0  0  0  0  0  0
   26.0760   28.3110   17.8250 O   0  0  0  0  0  0  0  0  0  0  0  0
   25.6230   27.5840   18.3050 H   0  0  0  0  0  0  0  0  0  0  0  0
   30.6120   26.8820   21.4000 O   0  0  0  0  0  0  0  0  0  0  0  0
   31.7970   27.3350   20.7700 C   0  0  0  0  0  0  0  0  0  0  0  0
   32.1080   28.7400   21.1480 C   0  0  0  0  0  0  0  0  0  0  0  0
   33.0180   29.1490   22.1290 C   0  0  0  0  0  0  0  0  0  0  0  0
   31.6040   29.8830   20.6490 N   0  0  0  0  0  0  0  0  0  0  0  0
   33.0200   30.4850   22.1740 N   0  0  0  0  0  0  0  0  0  0  0  0
   32.1570   30.9060   21.2690 N   0  0  0  0  0  0  0  0  0  0  0  0
   33.7940   31.3580   23.0280 C   0  0  0  0  0  0  0  0  0  0  0  0
   35.2070   31.4010   22.5700 C   0  0  0  0  0  0  0  0  0  0  0  0
   35.6000   32.2390   21.5490 C   0  0  0  0  0  0  0  0  0  0  0  0
   36.1450   30.6020   23.1620 C   0  0  0  0  0  0  0  0  0  0  0  0
   36.9280   32.2810   21.1160 C   0  0  0  0  0  0  0  0  0  0  0  0
   37.4730   30.6350   22.7390 C   0  0  0  0  0  0  0  0  0  0  0  0
   37.8620   31.4790   21.7120 C   0  0  0  0  0  0  0  0  0  0  0  0
   38.7470   29.5100   23.5850 Br  0  0  0  0  0  0  0  0  0  0  0  0
   29.8670   25.5550   16.9770 C   0  0  0  0  0  0  0  0  0  0  0  0
   28.3450   25.7220   17.0260 C   0  0  0  0  0  0  0  0  0  0  0  0
   27.6000   24.4080   16.8440 C   0  0  0  0  0  0  0  0  0  0  0  0
   26.9050   23.9720   18.1030 C   0  0  0  0  0  0  0  0  0  0  0  0
   25.5210   24.6100   18.1670 C   0  0  0  0  0  0  0  0  0  0  0  0
   24.8260   24.4730   16.8660 N   0  0  0  0  0  0  0  0  0  0  0  0
  1  2  1  0  0  0  0
  2 31  1  0  0  0  0
  2  3  2  0  0  0  0
  4  1  1  0  0  0  0
  5  1  1  0  0  0  0
  6  7  1  0  0  0  0
  6  5  1  1  0  0  0
  7 27  1  6  0  0  0
  8 11  1  0  0  0  0
  8  7  1  1  0  0  0
  9 14  1  6  0  0  0
  9 11  1  0  0  0  0
  9 16  1  0  0  0  0
 10  9  1  0  0  0  0
 12 20  1  1  0  0  0
 12 10  1  0  0  0  0
 12 13  1  0  0  0  0
 13 22  1  1  0  0  0
 13  8  1  0  0  0  0
 15 14  1  0  0  0  0
 16 17  2  0  0  0  0
 18 16  1  0  0  0  0
 19 18  1  0  0  0  0
 20 21  1  0  0  0  0
 22 23  1  0  0  0  0
 23 26  2  0  0  0  0
 24 22  1  0  0  0  0
 25 23  1  0  0  0  0
 27 28  1  0  0  0  0
 29 30  1  0  0  0  0
 29  6  1  0  0  0  0
 32 33  1  0  0  0  0
 32 31  1  0  0  0  0
 33 34  2  0  0  0  0
 34 36  1  0  0  0  0
 35 33  1  0  0  0  0
 35 37  2  0  0  0  0
 36 38  1  0  0  0  0
 37 36  1  0  0  0  0
 39 38  1  0  0  0  0
 39 41  2  0  0  0  0
 40 39  1  0  0  0  0
 42 40  2  0  0  0  0
 42 44  1  0  0  0  0
 43 41  1  0  0  0  0
 43 45  1  0  0  0  0
 44 43  2  0  0  0  0
 46 47  1  0  0  0  0
 48 47  1  0  0  0  0
 48 49  1  0  0  0  0
 49 50  1  0  0  0  0
 51 50  1  0  0  0  0
M  END
>  <REMARK>
 VINA RESULT:    -4.543      5.277      9.851
 INTER + INTRA:         -14.423
 INTER:                  -8.446
 INTRA:                  -5.977
 UNBOUND:                -6.295
 SMILES CC(=O)N[C@@H]1[C@@H](O)C[C@](O)(C(=O)O)O[C@H]1C(O)[C@H](O)CNC(=O)OCc1cn(Cc2cccc(Br)c2)nn1
 SMILES IDX 21 1 22 2 23 3 20 5 18 6 16 7 15 8 9 9 8 10 14 11 6 12 5 13
 SMILES IDX 10 14 11 16 12 17 13 18 7 20 4 22 2 23 1 25 3 26 17 27 19 29
 SMILES IDX 24 31 25 32 26 33 27 34 38 35 28 36 37 37 29 38 30 39 31 40
 SMILES IDX 36 41 32 42 34 43 33 44 35 45
 H PARENT 21 4 10 15 13 19 7 21 4 24 17 28 19 30
 Flexibility Score: inf
  4 active torsions:
  status: ('A' for Active; 'I' for Inactive)
    1  A    between atoms: CA   and  CB  
    2  A    between atoms: CB   and  CG  
    3  A    between atoms: CG   and  CD  
    4  A    between atoms: CD   and  CE  

>  <TORSDO>
F 16

>  <BEGIN_>
RES LYS A 131

$$$$
ligand_38_pose_13_2HRL.pdbqt
 OpenBabel07062320523D

  6  5  0  0  0  0  0  0  0  0999 V2000
   33.1930   34.6630    9.2900 C   0  0  0  0  0  0  0  0  0  0  0  0
   32.0600   35.3600   10.0340 C   0  0  0  0  0  0  0  0  0  0  0  0
   30.7010   34.7750    9.7470 C   0  0  0  0  0  0  0  0  0  0  0  0
   30.4690   34.6670    8.2480 C   0  0  0  0  0  0  0  0  0  0  0  0
   29.0060   34.8940    7.9190 C   0  0  0  0  0  0  0  0  0  0  0  0
   28.8530   35.5990    6.6160 N   0  0  0  0  0  0  0  0  0  0  0  0
  1  2  1  0  0  0  0
  3  2  1  0  0  0  0
  4  3  1  0  0  0  0
  5  4  1  0  0  0  0
  6  5  1  0  0  0  0
M  END
>  <EGIN_R>
ES LYS A 135

>  <REMARK>
  4 active torsions:
  status: ('A' for Active; 'I' for Inactive)
    5  A    between atoms: CA   and  CB  
    6  A    between atoms: CB   and  CG  
    7  A    between atoms: CG   and  CD  
    8  A    between atoms: CD   and  CE  

$$$$
