ligand_91_pose_5_2HRL.pdbqt
 OpenBabel07062320523D

 57 60  0  0  1  0  0  0  0  0999 V2000
   26.0280   28.0410   18.9480 C   0  0  0  0  0  0  0  0  0  0  0  0
   27.4510   27.7310   19.3290 C   0  0  2  0  0  0  0  0  0  0  0  0
   27.5310   27.8090   20.8220 C   0  0  2  0  0  0  0  0  0  0  0  0
   28.9120   28.1730   21.3480 C   0  0  2  0  0  0  0  0  0  0  0  0
   31.0870   27.7010   20.9260 C   0  0  2  0  0  0  0  0  0  0  0  0
   31.4520   27.3200   22.3360 C   0  0  0  0  0  0  0  0  0  0  0  0
   29.7950   27.4240   20.6200 O   0  0  0  0  0  0  0  0  0  0  0  0
   30.2520   27.1210   23.2160 C   0  0  1  0  0  0  0  0  0  0  0  0
   29.0530   27.9060   22.8010 C   0  0  1  0  0  0  0  0  0  0  0  0
   31.8590   26.8810   20.0380 O   0  0  0  0  0  0  0  0  0  0  0  0
   32.5710   27.4280   19.6240 H   0  0  0  0  0  0  0  0  0  0  0  0
   31.5460   29.0800   20.6290 C   0  0  0  0  0  0  0  0  0  0  0  0
   32.3170   29.7080   21.4030 O   0  0  0  0  0  0  0  0  0  0  0  0
   31.1550   29.7730   19.4720 O   0  0  0  0  0  0  0  0  0  0  0  0
   30.2630   30.2430   19.4580 H   0  0  0  0  0  0  0  0  0  0  0  0
   29.9640   25.7530   23.2730 O   0  0  0  0  0  0  0  0  0  0  0  0
   30.0100   25.4140   24.2020 H   0  0  0  0  0  0  0  0  0  0  0  0
   28.9680   29.1090   23.6350 N   0  0  0  0  0  0  0  0  0  0  0  0
   27.7530   29.5440   24.2330 C   0  0  0  0  0  0  0  0  0  0  0  0
   29.8060   29.7030   23.8260 H   0  0  0  0  0  0  0  0  0  0  0  0
   27.6880   30.7720   25.0830 C   0  0  0  0  0  0  0  0  0  0  0  0
   26.6950   28.8880   24.0530 O   0  0  0  0  0  0  0  0  0  0  0  0
   27.1770   26.5820   21.3610 O   0  0  0  0  0  0  0  0  0  0  0  0
   26.5270   26.1600   20.7480 H   0  0  0  0  0  0  0  0  0  0  0  0
   28.3150   28.5870   18.6890 O   0  0  0  0  0  0  0  0  0  0  0  0
   28.2120   28.4400   17.7010 H   0  0  0  0  0  0  0  0  0  0  0  0
   25.7930   28.3520   17.5800 N   0  0  0  0  0  0  0  0  0  0  0  0
   24.9860   29.4140   17.1230 C   0  0  0  0  0  0  0  0  0  0  0  0
   26.2380   27.7670   16.7870 H   0  0  0  0  0  0  0  0  0  0  0  0
   24.3920   30.1750   17.9130 O   0  0  0  0  0  0  0  0  0  0  0  0
   24.8060   29.6740   15.7550 O   0  0  0  0  0  0  0  0  0  0  0  0
   25.5330   30.7260   15.1180 C   0  0  0  0  0  0  0  0  0  0  0  0
   26.8700   30.7950   15.7530 C   0  0  0  0  0  0  0  0  0  0  0  0
   27.3940   31.8620   16.4530 C   0  0  0  0  0  0  0  0  0  0  0  0
   27.8490   29.8590   15.7890 N   0  0  0  0  0  0  0  0  0  0  0  0
   28.6300   31.5630   16.8840 N   0  0  0  0  0  0  0  0  0  0  0  0
   28.8890   30.3420   16.4700 N   0  0  0  0  0  0  0  0  0  0  0  0
   29.5020   32.3800   17.6360 C   0  0  0  0  0  0  0  0  0  0  0  0
   29.3680   32.4630   19.0250 C   0  0  0  0  0  0  0  0  0  0  0  0
   30.5130   33.1170   17.0430 C   0  0  0  0  0  0  0  0  0  0  0  0
   28.3810   31.7540   19.6760 C   0  0  0  0  0  0  0  0  0  0  0  0
   30.1950   33.2370   19.7770 C   0  0  0  0  0  0  0  0  0  0  0  0
   31.3410   33.8940   17.8230 C   0  0  0  0  0  0  0  0  0  0  0  0
   30.6430   33.0360   15.6790 C   0  0  0  0  0  0  0  0  0  0  0  0
   28.2060   31.8030   21.0420 C   0  0  0  0  0  0  0  0  0  0  0  0
   30.0310   33.2960   21.1570 C   0  0  0  0  0  0  0  0  0  0  0  0
   31.1670   33.9390   19.1610 N   0  0  0  0  0  0  0  0  0  0  0  0
   32.3290   34.6090   17.1900 C   0  0  0  0  0  0  0  0  0  0  0  0
   31.6570   33.7750   15.0660 C   0  0  0  0  0  0  0  0  0  0  0  0
   29.0520   32.5950   21.8250 C   0  0  0  0  0  0  0  0  0  0  0  0
   32.5060   34.5650   15.8080 C   0  0  0  0  0  0  0  0  0  0  0  0
   29.8670   25.5550   16.9770 C   0  0  0  0  0  0  0  0  0  0  0  0
   28.3450   25.7220   17.0260 C   0  0  0  0  0  0  0  0  0  0  0  0
   27.6010   24.4010   16.9020 C   0  0  0  0  0  0  0  0  0  0  0  0
   26.1480   24.5330   17.2620 C   0  0  0  0  0  0  0  0  0  0  0  0
   25.9800   24.3690   18.7700 C   0  0  0  0  0  0  0  0  0  0  0  0
   25.4500   23.0230   19.0890 N   0  0  0  0  0  0  0  0  0  0  0  0
  2  1  1  1  0  0  0
  2  3  1  0  0  0  0
  3 23  1  1  0  0  0
  4  3  1  6  0  0  0
  4  9  1  0  0  0  0
  5 10  1  6  0  0  0
  5  6  1  0  0  0  0
  6  8  1  0  0  0  0
  7  5  1  0  0  0  0
  7  4  1  0  0  0  0
  8 16  1  6  0  0  0
  9  8  1  0  0  0  0
  9 18  1  1  0  0  0
 11 10  1  0  0  0  0
 12  5  1  0  0  0  0
 12 13  2  0  0  0  0
 14 12  1  0  0  0  0
 15 14  1  0  0  0  0
 16 17  1  0  0  0  0
 18 20  1  0  0  0  0
 18 19  1  0  0  0  0
 19 21  1  0  0  0  0
 22 19  2  0  0  0  0
 24 23  1  0  0  0  0
 25  2  1  0  0  0  0
 26 25  1  0  0  0  0
 27  1  1  0  0  0  0
 28 27  1  0  0  0  0
 28 30  2  0  0  0  0
 29 27  1  0  0  0  0
 31 28  1  0  0  0  0
 32 33  1  0  0  0  0
 32 31  1  0  0  0  0
 33 35  1  0  0  0  0
 33 34  2  0  0  0  0
 34 36  1  0  0  0  0
 35 37  2  0  0  0  0
 36 38  1  0  0  0  0
 37 36  1  0  0  0  0
 38 39  1  0  0  0  0
 39 41  2  0  0  0  0
 39 42  1  0  0  0  0
 40 38  2  0  0  0  0
 40 43  1  0  0  0  0
 41 45  1  0  0  0  0
 42 46  2  0  0  0  0
 43 47  2  0  0  0  0
 44 40  1  0  0  0  0
 45 50  2  0  0  0  0
 46 50  1  0  0  0  0
 47 42  1  0  0  0  0
 48 43  1  0  0  0  0
 49 44  2  0  0  0  0
 49 51  1  0  0  0  0
 51 48  2  0  0  0  0
 52 53  1  0  0  0  0
 54 53  1  0  0  0  0
 54 55  1  0  0  0  0
 55 56  1  0  0  0  0
 56 57  1  0  0  0  0
M  END
>  <REMARK>
 VINA RESULT:    -5.743      6.773     11.854
 INTER + INTRA:         -16.023
 INTER:                  -9.412
 INTRA:                  -6.610
 UNBOUND:                -6.084
 SMILES CC(=O)N[C@@H]1[C@@H](O)C[C@](O)(C(=O)O)O[C@H]1C(O)[C@H](O)CNC(=O)OCc1cn(-c2c3ccccc3nc3ccccc23)nn1
 SMILES IDX 20 1 18 2 16 3 15 4 9 5 8 6 14 7 6 8 5 9 10 10 11 12 12 13
 SMILES IDX 13 14 7 16 4 18 2 19 1 21 3 22 17 23 19 25 21 27 22 28 23 30
 SMILES IDX 24 31 25 32 26 33 27 34 44 35 28 36 43 37 29 38 30 39 42 40
 SMILES IDX 31 41 35 42 37 43 41 44 32 45 34 46 36 47 38 48 40 49 33 50
 SMILES IDX 39 51
 H PARENT 10 11 13 15 7 17 4 20 17 24 19 26 21 29
 Flexibility Score: inf
  4 active torsions:
  status: ('A' for Active; 'I' for Inactive)
    1  A    between atoms: CA   and  CB  
    2  A    between atoms: CB   and  CG  
    3  A    between atoms: CG   and  CD  
    4  A    between atoms: CD   and  CE  

>  <TORSDO>
F 15

>  <BEGIN_>
RES LYS A 131

$$$$
ligand_91_pose_5_2HRL.pdbqt
 OpenBabel07062320523D

  6  5  0  0  0  0  0  0  0  0999 V2000
   33.1930   34.6630    9.2900 C   0  0  0  0  0  0  0  0  0  0  0  0
   32.0600   35.3600   10.0340 C   0  0  0  0  0  0  0  0  0  0  0  0
   30.8100   35.5250    9.2090 C   0  0  0  0  0  0  0  0  0  0  0  0
   30.1430   34.1800    8.9700 C   0  0  0  0  0  0  0  0  0  0  0  0
   28.6910   34.3680    8.5720 C   0  0  0  0  0  0  0  0  0  0  0  0
   27.7770   33.7300    9.5600 N   0  0  0  0  0  0  0  0  0  0  0  0
  1  2  1  0  0  0  0
  3  2  1  0  0  0  0
  4  3  1  0  0  0  0
  5  4  1  0  0  0  0
  5  6  1  0  0  0  0
M  END
>  <EGIN_R>
ES LYS A 135

>  <REMARK>
  4 active torsions:
  status: ('A' for Active; 'I' for Inactive)
    5  A    between atoms: CA   and  CB  
    6  A    between atoms: CB   and  CG  
    7  A    between atoms: CG   and  CD  
    8  A    between atoms: CD   and  CE  

$$$$
