ligand_16_pose_18_2HRL.pdbqt
 OpenBabel07062320523D

 54 55  0  0  1  0  0  0  0  0999 V2000
   29.4580   36.6250   13.8820 N   0  0  0  0  0  0  0  0  0  0  0  0
   28.7400   37.5530   14.6540 C   0  0  0  0  0  0  0  0  0  0  0  0
   29.1040   37.8070   15.8140 O   0  0  0  0  0  0  0  0  0  0  0  0
   29.0780   36.4610   12.9000 H   0  0  0  0  0  0  0  0  0  0  0  0
   30.6270   35.9250   14.3460 C   0  0  0  0  0  0  0  0  0  0  0  0
   30.5030   34.4630   14.0140 C   0  0  2  0  0  0  0  0  0  0  0  0
   30.9300   33.5470   15.1170 C   0  0  1  0  0  0  0  0  0  0  0  0
   29.7380   33.2330   16.0400 C   0  0  2  0  0  0  0  0  0  0  0  0
   27.4350   33.0750   15.9220 C   0  0  2  0  0  0  0  0  0  0  0  0
   27.1940   34.3370   16.7360 C   0  0  0  0  0  0  0  0  0  0  0  0
   28.6140   33.2590   15.2420 O   0  0  0  0  0  0  0  0  0  0  0  0
   28.3410   34.5850   17.6610 C   0  0  1  0  0  0  0  0  0  0  0  0
   29.6890   34.3240   17.0470 C   0  0  1  0  0  0  0  0  0  0  0  0
   26.3900   33.0900   14.9540 O   0  0  0  0  0  0  0  0  0  0  0  0
   25.8020   33.8840   15.1550 H   0  0  0  0  0  0  0  0  0  0  0  0
   27.3360   31.8640   16.7420 C   0  0  0  0  0  0  0  0  0  0  0  0
   27.4720   30.7250   16.1780 O   0  0  0  0  0  0  0  0  0  0  0  0
   27.1030   31.8060   18.1010 O   0  0  0  0  0  0  0  0  0  0  0  0
   26.4630   32.4870   18.4880 H   0  0  0  0  0  0  0  0  0  0  0  0
   28.3030   35.9600   17.9950 O   0  0  0  0  0  0  0  0  0  0  0  0
   27.4680   36.0880   18.5080 H   0  0  0  0  0  0  0  0  0  0  0  0
   30.6750   34.1810   18.0990 N   0  0  0  0  0  0  0  0  0  0  0  0
   31.5610   35.2310   18.4470 C   0  0  0  0  0  0  0  0  0  0  0  0
   30.7610   33.2920   18.6360 H   0  0  0  0  0  0  0  0  0  0  0  0
   32.5790   35.0610   19.5450 C   0  0  0  0  0  0  0  0  0  0  0  0
   31.4840   36.3080   17.8260 O   0  0  0  0  0  0  0  0  0  0  0  0
   31.5680   32.4020   14.7060 O   0  0  0  0  0  0  0  0  0  0  0  0
   31.5990   32.3690   13.7150 H   0  0  0  0  0  0  0  0  0  0  0  0
   31.1790   34.1280   12.8320 O   0  0  0  0  0  0  0  0  0  0  0  0
   32.0550   34.6080   12.8130 H   0  0  0  0  0  0  0  0  0  0  0  0
   27.6170   38.2260   14.1900 O   0  0  0  0  0  0  0  0  0  0  0  0
   26.2970   37.7770   14.3820 C   0  0  0  0  0  0  0  0  0  0  0  0
   25.9890   36.6980   13.4210 C   0  0  0  0  0  0  0  0  0  0  0  0
   25.1500   36.8180   12.3120 C   0  0  0  0  0  0  0  0  0  0  0  0
   26.4090   35.4180   13.3870 N   0  0  0  0  0  0  0  0  0  0  0  0
   25.1020   35.6410   11.6760 N   0  0  0  0  0  0  0  0  0  0  0  0
   25.8690   34.8130   12.3440 N   0  0  0  0  0  0  0  0  0  0  0  0
   24.3260   35.3330   10.4660 C   0  0  0  0  0  0  0  0  0  0  0  0
   25.2590   35.5890    9.3220 C   0  0  0  0  0  0  0  0  0  0  0  0
   25.1310   36.7410    8.5960 C   0  0  0  0  0  0  0  0  0  0  0  0
   26.2400   34.6940    8.9770 C   0  0  0  0  0  0  0  0  0  0  0  0
   25.9820   37.0070    7.5200 C   0  0  0  0  0  0  0  0  0  0  0  0
   27.0870   34.9570    7.9060 C   0  0  0  0  0  0  0  0  0  0  0  0
   26.9680   36.1170    7.1660 C   0  0  0  0  0  0  0  0  0  0  0  0
   27.8630   36.3840    6.0490 C   0  0  0  0  0  0  0  0  0  0  0  0
   29.0100   35.8940    5.9620 O   0  0  0  0  0  0  0  0  0  0  0  0
   27.4370   37.2190    5.0220 O   0  0  0  0  0  0  0  0  0  0  0  0
   26.9070   36.8650    4.2440 H   0  0  0  0  0  0  0  0  0  0  0  0
   29.8670   25.5550   16.9770 C   0  0  0  0  0  0  0  0  0  0  0  0
   28.3450   25.7220   17.0260 C   0  0  0  0  0  0  0  0  0  0  0  0
   27.6030   24.3950   16.9700 C   0  0  0  0  0  0  0  0  0  0  0  0
   26.6380   24.2380   18.1130 C   0  0  0  0  0  0  0  0  0  0  0  0
   25.2570   23.8900   17.5680 C   0  0  0  0  0  0  0  0  0  0  0  0
   25.0970   22.4210   17.4570 N   0  0  0  0  0  0  0  0  0  0  0  0
  1  5  1  0  0  0  0
  1  2  1  0  0  0  0
  2  3  2  0  0  0  0
  4  1  1  0  0  0  0
  6  5  1  1  0  0  0
  6  7  1  0  0  0  0
  7 27  1  6  0  0  0
  8  7  1  6  0  0  0
  8 13  1  0  0  0  0
  9 14  1  6  0  0  0
  9 10  1  0  0  0  0
  9 16  1  0  0  0  0
 10 12  1  0  0  0  0
 11  9  1  0  0  0  0
 11  8  1  0  0  0  0
 12 20  1  6  0  0  0
 13 12  1  0  0  0  0
 13 22  1  1  0  0  0
 14 15  1  0  0  0  0
 16 18  1  0  0  0  0
 17 16  2  0  0  0  0
 18 19  1  0  0  0  0
 20 21  1  0  0  0  0
 22 23  1  0  0  0  0
 22 24  1  0  0  0  0
 23 25  1  0  0  0  0
 26 23  2  0  0  0  0
 28 27  1  0  0  0  0
 29  6  1  0  0  0  0
 30 29  1  0  0  0  0
 31 32  1  0  0  0  0
 31  2  1  0  0  0  0
 33 32  1  0  0  0  0
 34 33  2  0  0  0  0
 35 33  1  0  0  0  0
 36 34  1  0  0  0  0
 36 37  1  0  0  0  0
 37 35  2  0  0  0  0
 38 36  1  0  0  0  0
 39 38  1  0  0  0  0
 40 39  2  0  0  0  0
 41 39  1  0  0  0  0
 42 40  1  0  0  0  0
 43 41  2  0  0  0  0
 44 42  2  0  0  0  0
 44 43  1  0  0  0  0
 45 44  1  0  0  0  0
 46 45  2  0  0  0  0
 47 45  1  0  0  0  0
 48 47  1  0  0  0  0
 49 50  1  0  0  0  0
 51 50  1  0  0  0  0
 51 52  1  0  0  0  0
 53 52  1  0  0  0  0
 54 53  1  0  0  0  0
M  END
>  <REMARK>
 VINA RESULT:    -5.645      4.514      8.078
 INTER + INTRA:         -14.588
 INTER:                  -9.742
 INTRA:                  -4.846
 UNBOUND:                -3.993
 SMILES CC(=O)N[C@@H]1[C@@H](O)C[C@](O)(C(=O)O)O[C@H]1C(O)[C@H](O)CNC(=O)OCc1cn(Cc2ccc(C(=O)O)cc2)nn1
 SMILES IDX 21 1 22 2 23 3 20 5 18 6 16 7 15 8 9 9 8 10 14 11 6 12 5 13
 SMILES IDX 10 14 11 16 12 17 13 18 7 20 4 22 2 23 1 25 3 26 17 27 19 29
 SMILES IDX 24 31 25 32 26 33 27 34 40 35 28 36 39 37 29 38 30 39 31 40
 SMILES IDX 38 41 32 42 37 43 33 44 34 45 35 46 36 47
 H PARENT 21 4 10 15 13 19 7 21 4 24 17 28 19 30 36 48
 Flexibility Score: inf
  4 active torsions:
  status: ('A' for Active; 'I' for Inactive)
    1  A    between atoms: CA   and  CB  
    2  A    between atoms: CB   and  CG  
    3  A    between atoms: CG   and  CD  
    4  A    between atoms: CD   and  CE  

>  <TORSDO>
F 18

>  <BEGIN_>
RES LYS A 131

$$$$
ligand_16_pose_18_2HRL.pdbqt
 OpenBabel07062320523D

  6  5  0  0  0  0  0  0  0  0999 V2000
   33.1930   34.6630    9.2900 C   0  0  0  0  0  0  0  0  0  0  0  0
   32.0600   35.3600   10.0340 C   0  0  0  0  0  0  0  0  0  0  0  0
   30.7700   35.4110    9.2560 C   0  0  0  0  0  0  0  0  0  0  0  0
   29.9510   36.6290    9.6560 C   0  0  0  0  0  0  0  0  0  0  0  0
   30.1970   37.7750    8.6940 C   0  0  0  0  0  0  0  0  0  0  0  0
   29.0460   38.7200    8.6790 N   0  0  0  0  0  0  0  0  0  0  0  0
  1  2  1  0  0  0  0
  3  4  1  0  0  0  0
  3  2  1  0  0  0  0
  5  4  1  0  0  0  0
  6  5  1  0  0  0  0
M  END
>  <EGIN_R>
ES LYS A 135

>  <REMARK>
  4 active torsions:
  status: ('A' for Active; 'I' for Inactive)
    5  A    between atoms: CA   and  CB  
    6  A    between atoms: CB   and  CG  
    7  A    between atoms: CG   and  CD  
    8  A    between atoms: CD   and  CE  

$$$$
