ligand_87_pose_18_2HRL.pdbqt
 OpenBabel07062320523D

 52 54  0  0  1  0  0  0  0  0999 V2000
   28.8760   29.4110   20.2610 C   0  0  0  0  0  0  0  0  0  0  0  0
   30.0620   28.6480   20.7730 C   0  0  2  0  0  0  0  0  0  0  0  0
   31.3590   29.3610   20.4100 C   0  0  2  0  0  0  0  0  0  0  0  0
   32.2540   29.3550   21.6480 C   0  0  2  0  0  0  0  0  0  0  0  0
   32.4650   28.0430   23.5730 C   0  0  2  0  0  0  0  0  0  0  0  0
   32.2030   29.1810   24.5100 C   0  0  0  0  0  0  0  0  0  0  0  0
   32.0300   28.2090   22.3000 O   0  0  0  0  0  0  0  0  0  0  0  0
   31.7420   30.4400   23.8580 C   0  0  1  0  0  0  0  0  0  0  0  0
   32.1520   30.6300   22.4370 C   0  0  1  0  0  0  0  0  0  0  0  0
   31.8030   26.9170   24.0720 O   0  0  0  0  0  0  0  0  0  0  0  0
   30.9770   26.7090   23.5710 H   0  0  0  0  0  0  0  0  0  0  0  0
   33.8970   27.6800   23.5190 C   0  0  0  0  0  0  0  0  0  0  0  0
   34.7540   28.4660   23.9740 O   0  0  0  0  0  0  0  0  0  0  0  0
   34.3750   26.4890   22.9800 O   0  0  0  0  0  0  0  0  0  0  0  0
   34.8430   25.7980   23.5870 H   0  0  0  0  0  0  0  0  0  0  0  0
   30.3460   30.4840   23.9860 O   0  0  0  0  0  0  0  0  0  0  0  0
   29.9960   29.5860   24.1970 H   0  0  0  0  0  0  0  0  0  0  0  0
   33.3050   31.4680   22.2460 N   0  0  0  0  0  0  0  0  0  0  0  0
   33.2660   32.7420   21.6320 C   0  0  0  0  0  0  0  0  0  0  0  0
   34.2510   31.1380   22.5750 H   0  0  0  0  0  0  0  0  0  0  0  0
   34.4380   33.6190   21.4240 C   0  0  0  0  0  0  0  0  0  0  0  0
   32.1320   33.1180   21.2490 O   0  0  0  0  0  0  0  0  0  0  0  0
   31.1410   30.6530   19.9620 O   0  0  0  0  0  0  0  0  0  0  0  0
   31.1950   31.2590   20.7450 H   0  0  0  0  0  0  0  0  0  0  0  0
   30.1320   27.3730   20.2890 O   0  0  0  0  0  0  0  0  0  0  0  0
   29.2770   26.8840   20.4750 H   0  0  0  0  0  0  0  0  0  0  0  0
   28.8470   29.5080   18.8410 N   0  0  0  0  0  0  0  0  0  0  0  0
   27.6980   29.3820   18.0410 C   0  0  0  0  0  0  0  0  0  0  0  0
   29.7640   29.6900   18.3220 H   0  0  0  0  0  0  0  0  0  0  0  0
   26.5690   29.1590   18.5150 O   0  0  0  0  0  0  0  0  0  0  0  0
   27.8180   29.5110   16.6440 O   0  0  0  0  0  0  0  0  0  0  0  0
   27.6180   30.7840   16.0660 C   0  0  0  0  0  0  0  0  0  0  0  0
   28.8980   31.4490   15.8240 C   0  0  0  0  0  0  0  0  0  0  0  0
   29.0830   32.5870   15.0480 C   0  0  0  0  0  0  0  0  0  0  0  0
   30.0970   31.0990   16.2880 N   0  0  0  0  0  0  0  0  0  0  0  0
   30.3880   32.8830   15.0700 N   0  0  0  0  0  0  0  0  0  0  0  0
   30.9700   31.9740   15.8220 N   0  0  0  0  0  0  0  0  0  0  0  0
   31.0600   33.9770   14.4150 C   0  0  1  0  0  0  0  0  0  0  0  0
   30.3060   35.2700   14.7230 C   0  0  0  0  0  0  0  0  0  0  0  0
   32.4360   34.0860   15.0350 C   0  0  0  0  0  0  0  0  0  0  0  0
   31.1380   36.4320   14.2540 C   0  0  1  0  0  0  0  0  0  0  0  0
   33.0810   35.3820   14.6650 C   0  0  2  0  0  0  0  0  0  0  0  0
   32.3400   36.5380   15.0610 N   0  0  0  0  0  0  0  0  0  0  0  0
   31.7150   36.1410   12.8810 C   0  0  0  0  0  0  0  0  0  0  0  0
   33.0360   35.4830   13.1350 C   0  0  0  0  0  0  0  0  0  0  0  0
   32.0670   36.6040   16.4680 C   0  0  0  0  0  0  0  0  0  0  0  0
   29.8670   25.5550   16.9770 C   0  0  0  0  0  0  0  0  0  0  0  0
   28.3450   25.7220   17.0260 C   0  0  0  0  0  0  0  0  0  0  0  0
   27.6020   24.3990   16.9210 C   0  0  0  0  0  0  0  0  0  0  0  0
   26.1520   24.5320   17.2980 C   0  0  0  0  0  0  0  0  0  0  0  0
   25.7680   23.4040   18.2500 C   0  0  0  0  0  0  0  0  0  0  0  0
   25.5400   23.9330   19.6150 N   0  0  0  0  0  0  0  0  0  0  0  0
  2  1  1  6  0  0  0
  3 23  1  1  0  0  0
  3  2  1  0  0  0  0
  4  3  1  6  0  0  0
  4  7  1  0  0  0  0
  4  9  1  0  0  0  0
  5 12  1  6  0  0  0
  5 10  1  0  0  0  0
  5  6  1  0  0  0  0
  7  5  1  0  0  0  0
  8 16  1  6  0  0  0
  8  6  1  0  0  0  0
  9 18  1  1  0  0  0
  9  8  1  0  0  0  0
 11 10  1  0  0  0  0
 12 13  2  0  0  0  0
 14 12  1  0  0  0  0
 14 15  1  0  0  0  0
 16 17  1  0  0  0  0
 18 20  1  0  0  0  0
 19 18  1  0  0  0  0
 21 19  1  0  0  0  0
 22 19  2  0  0  0  0
 23 24  1  0  0  0  0
 25 26  1  0  0  0  0
 25  2  1  0  0  0  0
 27  1  1  0  0  0  0
 28 30  2  0  0  0  0
 28 27  1  0  0  0  0
 29 27  1  0  0  0  0
 31 28  1  0  0  0  0
 32 31  1  0  0  0  0
 33 32  1  0  0  0  0
 33 35  1  0  0  0  0
 34 36  1  0  0  0  0
 34 33  2  0  0  0  0
 36 37  1  0  0  0  0
 37 35  2  0  0  0  0
 38 39  1  1  0  0  0
 38 40  1  0  0  0  0
 38 36  1  0  0  0  0
 41 44  1  6  0  0  0
 41 39  1  0  0  0  0
 41 43  1  0  0  0  0
 42 45  1  6  0  0  0
 42 40  1  0  0  0  0
 42 43  1  0  0  0  0
 43 46  1  0  0  0  0
 44 45  1  0  0  0  0
 47 48  1  0  0  0  0
 49 48  1  0  0  0  0
 49 50  1  0  0  0  0
 50 51  1  0  0  0  0
 51 52  1  0  0  0  0
M  END
>  <REMARK>
 VINA RESULT:    -5.075      1.819      3.404
 INTER + INTRA:         -14.285
 INTER:                  -8.783
 INTRA:                  -5.502
 UNBOUND:                -5.502
 SMILES CC(=O)N[C@@H]1[C@@H](O)C[C@](O)(C(=O)O)O[C@H]1C(O)[C@H](O)CNC(=O)OCc1cn([C@@H]2C[C@H]3CC[C@@H](C2)N3C)nn1
 SMILES IDX 20 1 18 2 16 3 15 4 9 5 8 6 14 7 6 8 5 9 10 10 11 12 12 13
 SMILES IDX 13 14 7 16 4 18 2 19 1 21 3 22 17 23 19 25 21 27 22 28 23 30
 SMILES IDX 24 31 25 32 26 33 27 34 39 35 28 36 38 37 29 38 35 39 30 40
 SMILES IDX 34 41 31 42 36 43 33 44 32 45 37 46
 H PARENT 10 11 13 15 7 17 4 20 17 24 19 26 21 29
 Flexibility Score: inf
  4 active torsions:
  status: ('A' for Active; 'I' for Inactive)
    1  A    between atoms: CA   and  CB  
    2  A    between atoms: CB   and  CG  
    3  A    between atoms: CG   and  CD  
    4  A    between atoms: CD   and  CE  

>  <TORSDO>
F 15

>  <BEGIN_>
RES LYS A 131

$$$$
ligand_87_pose_18_2HRL.pdbqt
 OpenBabel07062320523D

  6  5  0  0  0  0  0  0  0  0999 V2000
   33.1930   34.6630    9.2900 C   0  0  0  0  0  0  0  0  0  0  0  0
   32.0600   35.3600   10.0340 C   0  0  0  0  0  0  0  0  0  0  0  0
   30.8360   35.5920    9.1870 C   0  0  0  0  0  0  0  0  0  0  0  0
   29.9990   34.3250    9.0940 C   0  0  0  0  0  0  0  0  0  0  0  0
   28.8120   34.4000   10.0350 C   0  0  0  0  0  0  0  0  0  0  0  0
   27.6200   33.7280    9.4490 N   0  0  0  0  0  0  0  0  0  0  0  0
  1  2  1  0  0  0  0
  3  2  1  0  0  0  0
  4  3  1  0  0  0  0
  4  5  1  0  0  0  0
  6  5  1  0  0  0  0
M  END
>  <EGIN_R>
ES LYS A 135

>  <REMARK>
  4 active torsions:
  status: ('A' for Active; 'I' for Inactive)
    5  A    between atoms: CA   and  CB  
    6  A    between atoms: CB   and  CG  
    7  A    between atoms: CG   and  CD  
    8  A    between atoms: CD   and  CE  

$$$$
