ligand_10_pose_9_2HRL.pdbqt
 OpenBabel07062320523D

 53 53  0  0  1  0  0  0  0  0999 V2000
   28.0950   28.6750   18.7630 N   0  0  0  0  0  0  0  0  0  0  0  0
   27.3260   28.5370   19.9570 C   0  0  0  0  0  0  0  0  0  0  0  0
   26.5460   29.4430   20.2680 O   0  0  0  0  0  0  0  0  0  0  0  0
   28.7380   27.8640   18.5630 H   0  0  0  0  0  0  0  0  0  0  0  0
   28.0330   29.7970   17.8810 C   0  0  0  0  0  0  0  0  0  0  0  0
   29.2000   30.7350   18.1150 C   0  0  2  0  0  0  0  0  0  0  0  0
   29.6970   31.3280   16.8090 C   0  0  2  0  0  0  0  0  0  0  0  0
   29.1060   32.6490   16.4720 C   0  0  2  0  0  0  0  0  0  0  0  0
   30.9930   33.3670   15.3230 C   0  0  2  0  0  0  0  0  0  0  0  0
   31.5990   33.8230   16.5830 C   0  0  0  0  0  0  0  0  0  0  0  0
   29.6360   33.1760   15.2910 O   0  0  0  0  0  0  0  0  0  0  0  0
   30.7250   34.0590   17.7510 C   0  0  1  0  0  0  0  0  0  0  0  0
   29.2880   33.6630   17.5670 C   0  0  1  0  0  0  0  0  0  0  0  0
   31.5580   32.1360   14.9010 O   0  0  0  0  0  0  0  0  0  0  0  0
   32.1650   32.3810   14.1530 H   0  0  0  0  0  0  0  0  0  0  0  0
   31.3070   34.3060   14.2110 C   0  0  0  0  0  0  0  0  0  0  0  0
   31.9850   35.3510   14.3390 O   0  0  0  0  0  0  0  0  0  0  0  0
   30.8140   33.9970   12.9530 O   0  0  0  0  0  0  0  0  0  0  0  0
   30.0160   34.4970   12.5390 H   0  0  0  0  0  0  0  0  0  0  0  0
   31.2400   33.4310   18.8810 O   0  0  0  0  0  0  0  0  0  0  0  0
   32.1970   33.5440   19.0070 H   0  0  0  0  0  0  0  0  0  0  0  0
   28.4690   34.8560   17.2430 N   0  0  0  0  0  0  0  0  0  0  0  0
   27.4830   35.3250   18.1400 C   0  0  0  0  0  0  0  0  0  0  0  0
   28.5980   35.3770   16.3500 H   0  0  0  0  0  0  0  0  0  0  0  0
   26.6360   36.5200   17.8550 C   0  0  0  0  0  0  0  0  0  0  0  0
   27.3170   34.7100   19.2140 O   0  0  0  0  0  0  0  0  0  0  0  0
   29.2820   30.3630   15.8470 O   0  0  0  0  0  0  0  0  0  0  0  0
   28.5630   29.7970   16.2160 H   0  0  0  0  0  0  0  0  0  0  0  0
   30.1760   30.0430   18.8200 O   0  0  0  0  0  0  0  0  0  0  0  0
   30.5880   30.5760   19.5450 H   0  0  0  0  0  0  0  0  0  0  0  0
   27.4230   27.4260   20.7780 O   0  0  0  0  0  0  0  0  0  0  0  0
   28.2190   27.4700   21.9360 C   0  0  0  0  0  0  0  0  0  0  0  0
   29.5950   27.9530   21.6660 C   0  0  0  0  0  0  0  0  0  0  0  0
   30.2190   28.8970   22.4460 C   0  0  0  0  0  0  0  0  0  0  0  0
   30.4550   27.6180   20.7070 N   0  0  0  0  0  0  0  0  0  0  0  0
   31.4560   29.1090   21.9290 N   0  0  0  0  0  0  0  0  0  0  0  0
   31.5570   28.3270   20.8920 N   0  0  0  0  0  0  0  0  0  0  0  0
   32.4000   30.0570   22.5130 C   0  0  1  0  0  0  0  0  0  0  0  0
   33.7550   29.8670   21.8870 C   0  0  0  0  0  0  0  0  0  0  0  0
   34.7730   29.4500   22.8630 C   0  0  0  0  0  0  0  0  0  0  0  0
   35.2650   30.3130   23.6330 O   0  0  0  0  0  0  0  0  0  0  0  0
   35.1630   28.1210   22.9110 O   0  0  0  0  0  0  0  0  0  0  0  0
   35.5260   27.7400   23.7990 H   0  0  0  0  0  0  0  0  0  0  0  0
   31.9500   31.4340   22.1710 C   0  0  0  0  0  0  0  0  0  0  0  0
   32.0210   32.4110   22.9590 O   0  0  0  0  0  0  0  0  0  0  0  0
   31.4190   31.6530   20.9120 O   0  0  0  0  0  0  0  0  0  0  0  0
   31.1780   32.5770   20.5730 H   0  0  0  0  0  0  0  0  0  0  0  0
   29.8670   25.5550   16.9770 C   0  0  0  0  0  0  0  0  0  0  0  0
   28.3450   25.7220   17.0260 C   0  0  0  0  0  0  0  0  0  0  0  0
   27.6020   24.3990   16.9200 C   0  0  0  0  0  0  0  0  0  0  0  0
   26.6030   24.2210   18.0300 C   0  0  0  0  0  0  0  0  0  0  0  0
   25.8060   25.5090   18.2090 C   0  0  0  0  0  0  0  0  0  0  0  0
   24.9730   25.4380   19.4330 N   0  0  0  0  0  0  0  0  0  0  0  0
  1  2  1  0  0  0  0
  2  3  2  0  0  0  0
  2 31  1  0  0  0  0
  4  1  1  0  0  0  0
  5  1  1  0  0  0  0
  6  5  1  6  0  0  0
  6 29  1  0  0  0  0
  7 27  1  6  0  0  0
  7  6  1  0  0  0  0
  8  7  1  1  0  0  0
  8 13  1  0  0  0  0
  9 16  1  6  0  0  0
  9 10  1  0  0  0  0
 10 12  1  0  0  0  0
 11  9  1  0  0  0  0
 11  8  1  0  0  0  0
 12 20  1  1  0  0  0
 13 22  1  6  0  0  0
 13 12  1  0  0  0  0
 14  9  1  0  0  0  0
 15 14  1  0  0  0  0
 16 17  2  0  0  0  0
 18 16  1  0  0  0  0
 19 18  1  0  0  0  0
 20 21  1  0  0  0  0
 22 23  1  0  0  0  0
 23 26  2  0  0  0  0
 24 22  1  0  0  0  0
 25 23  1  0  0  0  0
 27 28  1  0  0  0  0
 29 30  1  0  0  0  0
 31 32  1  0  0  0  0
 33 32  1  0  0  0  0
 33 34  2  0  0  0  0
 35 37  2  0  0  0  0
 35 33  1  0  0  0  0
 36 34  1  0  0  0  0
 36 38  1  0  0  0  0
 37 36  1  0  0  0  0
 38 39  1  6  0  0  0
 39 40  1  0  0  0  0
 40 42  1  0  0  0  0
 40 41  2  0  0  0  0
 42 43  1  0  0  0  0
 44 38  1  0  0  0  0
 44 45  2  0  0  0  0
 46 44  1  0  0  0  0
 47 46  1  0  0  0  0
 48 49  1  0  0  0  0
 50 49  1  0  0  0  0
 50 51  1  0  0  0  0
 51 52  1  0  0  0  0
 52 53  1  0  0  0  0
M  END
>  <REMARK>
 VINA RESULT:    -4.648      3.861      7.334
 INTER + INTRA:         -14.876
 INTER:                  -8.510
 INTRA:                  -6.366
 UNBOUND:                -5.744
 SMILES CC(=O)N[C@@H]1[C@@H](O)C[C@](O)(C(=O)O)O[C@H]1C(O)[C@H](O)CNC(=O)OCc1cn([C@@H](CC(=O)O)C(=O)O)nn1
 SMILES IDX 21 1 22 2 23 3 20 5 18 6 16 7 15 8 9 9 8 10 14 11 6 12 5 13
 SMILES IDX 10 14 11 16 12 17 13 18 7 20 4 22 2 23 1 25 3 26 17 27 19 29
 SMILES IDX 24 31 25 32 26 33 27 34 38 35 28 36 37 37 29 38 30 39 31 40
 SMILES IDX 32 41 33 42 34 44 35 45 36 46
 H PARENT 21 4 10 15 13 19 7 21 4 24 17 28 19 30 33 43 36 47
 Flexibility Score: inf
  4 active torsions:
  status: ('A' for Active; 'I' for Inactive)
    1  A    between atoms: CA   and  CB  
    2  A    between atoms: CB   and  CG  
    3  A    between atoms: CG   and  CD  
    4  A    between atoms: CD   and  CE  

>  <TORSDO>
F 20

>  <BEGIN_>
RES LYS A 131

$$$$
ligand_10_pose_9_2HRL.pdbqt
 OpenBabel07062320523D

  6  5  0  0  0  0  0  0  0  0999 V2000
   33.1930   34.6630    9.2900 C   0  0  0  0  0  0  0  0  0  0  0  0
   32.0600   35.3600   10.0340 C   0  0  0  0  0  0  0  0  0  0  0  0
   30.8000   35.4980    9.2200 C   0  0  0  0  0  0  0  0  0  0  0  0
   30.1450   34.1410    9.0100 C   0  0  0  0  0  0  0  0  0  0  0  0
   28.6760   34.3060    8.6680 C   0  0  0  0  0  0  0  0  0  0  0  0
   27.8110   33.6850    9.7090 N   0  0  0  0  0  0  0  0  0  0  0  0
  1  2  1  0  0  0  0
  3  2  1  0  0  0  0
  4  3  1  0  0  0  0
  5  4  1  0  0  0  0
  5  6  1  0  0  0  0
M  END
>  <EGIN_R>
ES LYS A 135

>  <REMARK>
  4 active torsions:
  status: ('A' for Active; 'I' for Inactive)
    5  A    between atoms: CA   and  CB  
    6  A    between atoms: CB   and  CG  
    7  A    between atoms: CG   and  CD  
    8  A    between atoms: CD   and  CE  

$$$$
