ligand_80_pose_11_2HRL.pdbqt
 OpenBabel07062320523D

 56 54  0  0  1  0  0  0  0  0999 V2000
   28.3720   40.3300    9.1110 O   0  0  0  0  0  0  0  0  0  0  0  0
   27.5130   39.8000    8.1790 C   0  0  0  0  0  0  0  0  0  0  0  0
   27.0370   38.4540    8.3230 N   0  0  0  0  0  0  0  0  0  0  0  0
   27.3810   37.9320    9.1630 H   0  0  0  0  0  0  0  0  0  0  0  0
   27.1180   40.4550    7.1810 O   0  0  0  0  0  0  0  0  0  0  0  0
   26.1310   37.8540    7.3610 C   0  0  0  0  0  0  0  0  0  0  0  0
   24.7800   37.6980    8.0140 C   0  0  2  0  0  0  0  0  0  0  0  0
   24.5120   36.2760    8.4590 C   0  0  2  0  0  0  0  0  0  0  0  0
   23.1860   36.1960    9.2310 C   0  0  2  0  0  0  0  0  0  0  0  0
   20.9400   36.6550    8.7320 C   0  0  2  0  0  0  0  0  0  0  0  0
   20.8120   37.0610   10.1670 C   0  0  0  0  0  0  0  0  0  0  0  0
   22.1920   36.2750    8.3340 O   0  0  0  0  0  0  0  0  0  0  0  0
   21.9580   38.0220   10.4390 C   0  0  1  0  0  0  0  0  0  0  0  0
   23.2440   37.2490   10.2890 C   0  0  1  0  0  0  0  0  0  0  0  0
   20.6040   37.7680    7.9340 O   0  0  0  0  0  0  0  0  0  0  0  0
   19.6340   37.6700    7.7510 H   0  0  0  0  0  0  0  0  0  0  0  0
   19.9990   35.5670    8.3670 C   0  0  0  0  0  0  0  0  0  0  0  0
   18.8250   35.6040    8.7930 O   0  0  0  0  0  0  0  0  0  0  0  0
   20.3760   34.4970    7.5600 O   0  0  0  0  0  0  0  0  0  0  0  0
   20.2960   34.6460    6.5430 H   0  0  0  0  0  0  0  0  0  0  0  0
   21.9110   39.0060    9.4570 O   0  0  0  0  0  0  0  0  0  0  0  0
   22.7740   38.9910    8.9780 H   0  0  0  0  0  0  0  0  0  0  0  0
   23.4890   36.5900   11.5590 N   0  0  0  0  0  0  0  0  0  0  0  0
   24.6340   36.8360   12.3620 C   0  0  0  0  0  0  0  0  0  0  0  0
   22.7750   35.8830   11.9120 H   0  0  0  0  0  0  0  0  0  0  0  0
   24.7750   36.1000   13.6410 C   0  0  0  0  0  0  0  0  0  0  0  0
   25.4840   37.6700   11.9540 O   0  0  0  0  0  0  0  0  0  0  0  0
   25.5420   35.9380    9.3420 O   0  0  0  0  0  0  0  0  0  0  0  0
   25.5790   34.9800    9.5500 H   0  0  0  0  0  0  0  0  0  0  0  0
   23.7620   38.1540    7.1850 O   0  0  0  0  0  0  0  0  0  0  0  0
   24.0980   38.5620    6.3590 H   0  0  0  0  0  0  0  0  0  0  0  0
   29.7780   40.1990    8.9900 C   0  0  0  0  0  0  0  0  0  0  0  0
   30.3160   39.2350    9.9820 C   0  0  0  0  0  0  0  0  0  0  0  0
   29.6350   38.8210   11.1320 C   0  0  0  0  0  0  0  0  0  0  0  0
   31.4910   38.5810   10.0180 N   0  0  0  0  0  0  0  0  0  0  0  0
   30.4080   37.9530   11.8060 N   0  0  0  0  0  0  0  0  0  0  0  0
   31.5150   37.8330   11.1070 N   0  0  0  0  0  0  0  0  0  0  0  0
   30.0880   37.2930   13.0530 *   0  0  0  0  0  0  0  0  0  0  0  0
   29.3260   36.0350   12.8210 C   0  0  0  0  0  0  0  0  0  0  0  0
   29.4670   34.7270   13.3440 N   0  0  0  0  0  0  0  0  0  0  0  0
   28.3860   36.1940   12.0030 O   0  0  0  0  0  0  0  0  0  0  0  0
   28.9910   33.9360   12.8590 H   0  0  0  0  0  0  0  0  0  0  0  0
   30.2150   34.3300   14.5070 C   0  0  0  0  0  0  0  0  0  0  0  0
   30.9170   35.1520   15.3690 C   0  0  0  0  0  0  0  0  0  0  0  0
   30.1530   32.9610   14.6840 C   0  0  0  0  0  0  0  0  0  0  0  0
   31.5640   34.5830   16.4220 C   0  0  0  0  0  0  0  0  0  0  0  0
   30.8080   32.3880   15.7520 C   0  0  0  0  0  0  0  0  0  0  0  0
   31.5070   33.2080   16.6100 C   0  0  0  0  0  0  0  0  0  0  0  0
   31.0520   36.6310   15.2760 C   0  0  0  0  0  0  0  0  0  0  0  0
   31.3600   37.0940   13.8630 *   0  0  0  0  0  0  0  0  0  0  0  0
   29.8670   25.5550   16.9770 C   0  0  0  0  0  0  0  0  0  0  0  0
   28.3450   25.7220   17.0260 C   0  0  0  0  0  0  0  0  0  0  0  0
   27.5990   24.4280   16.7380 C   0  0  0  0  0  0  0  0  0  0  0  0
   26.2840   24.3590   17.4640 C   0  0  0  0  0  0  0  0  0  0  0  0
   25.9020   22.9000   17.6880 C   0  0  0  0  0  0  0  0  0  0  0  0
   24.4930   22.6660   17.2940 N   0  0  0  0  0  0  0  0  0  0  0  0
  2  3  1  0  0  0  0
  2  1  1  0  0  0  0
  3  4  1  0  0  0  0
  5  2  2  0  0  0  0
  6  3  1  0  0  0  0
  7  6  1  6  0  0  0
  7  8  1  0  0  0  0
  8 28  1  1  0  0  0
  9  8  1  6  0  0  0
  9 14  1  0  0  0  0
 10 15  1  6  0  0  0
 10 11  1  0  0  0  0
 11 13  1  0  0  0  0
 12 10  1  0  0  0  0
 12  9  1  0  0  0  0
 13 21  1  6  0  0  0
 14 13  1  0  0  0  0
 14 23  1  1  0  0  0
 16 15  1  0  0  0  0
 17 10  1  0  0  0  0
 17 18  2  0  0  0  0
 19 17  1  0  0  0  0
 20 19  1  0  0  0  0
 22 21  1  0  0  0  0
 23 25  1  0  0  0  0
 23 24  1  0  0  0  0
 24 26  1  0  0  0  0
 27 24  2  0  0  0  0
 28 29  1  0  0  0  0
 30  7  1  0  0  0  0
 31 30  1  0  0  0  0
 32  1  1  0  0  0  0
 32 33  1  0  0  0  0
 33 35  1  0  0  0  0
 33 34  2  0  0  0  0
 34 36  1  0  0  0  0
 35 37  1  0  0  0  0
 37 36  2  0  0  0  0
 39 40  1  0  0  0  0
 40 43  1  0  0  0  0
 41 39  2  0  0  0  0
 42 40  1  0  0  0  0
 43 45  2  0  0  0  0
 43 44  1  0  0  0  0
 44 46  2  0  0  0  0
 45 47  1  0  0  0  0
 46 48  1  0  0  0  0
 47 48  2  0  0  0  0
 49 44  1  0  0  0  0
 51 52  1  0  0  0  0
 53 52  1  0  0  0  0
 53 54  1  0  0  0  0
 54 55  1  0  0  0  0
 56 55  1  0  0  0  0
M  END
>  <REMARK>
 VINA RESULT:    -9.135      4.120      8.867
 INTER + INTRA:         -13.391
 INTER:                  -8.790
 INTRA:                  -4.601
 UNBOUND:                 4.555
 SMILES CC(=O)N[C@@H]1[C@@H](O)C[C@](O)(C(=O)O)O[C@H]1C(O)[C@H](O)CNC(=O)OCc1cn(C2CCc3ccccc3NC2=O)nn1
 SMILES IDX 24 1 22 2 21 3 23 5 20 6 18 7 16 8 15 9 9 10 8 11 14 12 6 13
 SMILES IDX 5 14 10 15 11 17 12 18 13 19 7 21 4 23 2 24 1 26 3 27 17 28
 SMILES IDX 19 30 25 32 26 33 27 34 42 35 28 36 41 37 29 38 39 40 38 41
 SMILES IDX 40 42 37 44 32 45 36 46 33 47 35 48 34 49 31 50 30 51
 H PARENT 21 4 10 16 13 20 7 22 4 25 17 29 19 31 38 43
 Flexibility Score: 80.00
  4 active torsions:
  status: ('A' for Active; 'I' for Inactive)
    1  A    between atoms: CA   and  CB  
    2  A    between atoms: CB   and  CG  
    3  A    between atoms: CG   and  CD  
    4  A    between atoms: CD   and  CE  

>  <TORSDO>
F 15

>  <BEGIN_>
RES LYS A 131

$$$$
ligand_80_pose_11_2HRL.pdbqt
 OpenBabel07062320523D

  6  5  0  0  0  0  0  0  0  0999 V2000
   33.1930   34.6630    9.2900 C   0  0  0  0  0  0  0  0  0  0  0  0
   32.0600   35.3600   10.0340 C   0  0  0  0  0  0  0  0  0  0  0  0
   30.7080   34.7390    9.7910 C   0  0  0  0  0  0  0  0  0  0  0  0
   30.3920   34.7080    8.3040 C   0  0  0  0  0  0  0  0  0  0  0  0
   29.3800   35.7820    7.9520 C   0  0  0  0  0  0  0  0  0  0  0  0
   28.3310   35.2510    7.0380 N   0  0  0  0  0  0  0  0  0  0  0  0
  1  2  1  0  0  0  0
  3  2  1  0  0  0  0
  4  3  1  0  0  0  0
  5  4  1  0  0  0  0
  6  5  1  0  0  0  0
M  END
>  <EGIN_R>
ES LYS A 135

>  <REMARK>
  4 active torsions:
  status: ('A' for Active; 'I' for Inactive)
    5  A    between atoms: CA   and  CB  
    6  A    between atoms: CB   and  CG  
    7  A    between atoms: CG   and  CD  
    8  A    between atoms: CD   and  CE  

$$$$
