ligand_3_pose_3_2HRL.pdbqt
 OpenBabel07062320523D

 49 50  0  0  1  0  0  0  0  0999 V2000
   25.8300   27.5120   18.9710 C   0  0  0  0  0  0  0  0  0  0  0  0
   26.7830   27.0530   20.0560 C   0  0  2  0  0  0  0  0  0  0  0  0
   27.2290   28.1990   20.9370 C   0  0  1  0  0  0  0  0  0  0  0  0
   28.5080   28.8170   20.4770 C   0  0  2  0  0  0  0  0  0  0  0  0
   30.2800   27.7340   21.5740 C   0  0  2  0  0  0  0  0  0  0  0  0
   30.4080   28.8040   22.6010 C   0  0  0  0  0  0  0  0  0  0  0  0
   29.5830   28.0090   20.4600 O   0  0  0  0  0  0  0  0  0  0  0  0
   29.3430   29.8590   22.5490 C   0  0  1  0  0  0  0  0  0  0  0  0
   28.8300   30.1110   21.1660 C   0  0  1  0  0  0  0  0  0  0  0  0
   29.6660   26.6370   22.2160 O   0  0  0  0  0  0  0  0  0  0  0  0
   28.7640   26.5290   21.8020 H   0  0  0  0  0  0  0  0  0  0  0  0
   31.6310   27.2520   21.1770 C   0  0  0  0  0  0  0  0  0  0  0  0
   32.4540   26.7970   22.0010 O   0  0  0  0  0  0  0  0  0  0  0  0
   32.0110   27.2990   19.8530 O   0  0  0  0  0  0  0  0  0  0  0  0
   32.3730   26.5100   19.3330 H   0  0  0  0  0  0  0  0  0  0  0  0
   28.2770   29.5140   23.3990 O   0  0  0  0  0  0  0  0  0  0  0  0
   27.7970   28.7200   23.0940 H   0  0  0  0  0  0  0  0  0  0  0  0
   29.9090   30.7480   20.4070 N   0  0  0  0  0  0  0  0  0  0  0  0
   29.6550   31.8040   19.4900 C   0  0  0  0  0  0  0  0  0  0  0  0
   30.8990   30.4440   20.5190 H   0  0  0  0  0  0  0  0  0  0  0  0
   30.7360   32.4630   18.7110 C   0  0  0  0  0  0  0  0  0  0  0  0
   28.4810   32.2260   19.3010 O   0  0  0  0  0  0  0  0  0  0  0  0
   26.1770   29.1280   20.8930 O   0  0  0  0  0  0  0  0  0  0  0  0
   25.4720   28.7390   21.4920 H   0  0  0  0  0  0  0  0  0  0  0  0
   27.8310   26.3160   19.5330 O   0  0  0  0  0  0  0  0  0  0  0  0
   28.6120   26.8610   19.3070 H   0  0  0  0  0  0  0  0  0  0  0  0
   26.4830   28.1160   17.8520 N   0  0  0  0  0  0  0  0  0  0  0  0
   26.0190   29.2960   17.2110 C   0  0  0  0  0  0  0  0  0  0  0  0
   27.3550   27.6900   17.4590 H   0  0  0  0  0  0  0  0  0  0  0  0
   24.9990   29.8810   17.5960 O   0  0  0  0  0  0  0  0  0  0  0  0
   26.6930   29.8410   16.1240 O   0  0  0  0  0  0  0  0  0  0  0  0
   28.1120   29.8300   16.0910 C   0  0  0  0  0  0  0  0  0  0  0  0
   28.5580   31.2100   15.8000 C   0  0  0  0  0  0  0  0  0  0  0  0
   29.7730   31.6030   15.2840 C   0  0  0  0  0  0  0  0  0  0  0  0
   27.8310   32.3280   15.9980 N   0  0  0  0  0  0  0  0  0  0  0  0
   29.7260   32.9410   15.1930 N   0  0  0  0  0  0  0  0  0  0  0  0
   28.5560   33.3640   15.6240 N   0  0  0  0  0  0  0  0  0  0  0  0
   30.7840   33.7600   14.7060 C   0  0  0  0  0  0  0  0  0  0  0  0
   30.5880   34.5040   13.5560 C   0  0  0  0  0  0  0  0  0  0  0  0
   31.9960   33.8140   15.3680 C   0  0  0  0  0  0  0  0  0  0  0  0
   31.6360   35.2890   13.1100 C   0  0  0  0  0  0  0  0  0  0  0  0
   33.0250   34.5980   14.9110 C   0  0  0  0  0  0  0  0  0  0  0  0
   32.8370   35.3420   13.7670 C   0  0  0  0  0  0  0  0  0  0  0  0
   29.8670   25.5550   16.9770 C   0  0  0  0  0  0  0  0  0  0  0  0
   28.3450   25.7220   17.0260 C   0  0  0  0  0  0  0  0  0  0  0  0
   27.5990   24.4310   16.7240 C   0  0  0  0  0  0  0  0  0  0  0  0
   26.1640   24.4890   17.1710 C   0  0  0  0  0  0  0  0  0  0  0  0
   25.9410   23.4810   18.2940 C   0  0  0  0  0  0  0  0  0  0  0  0
   24.8660   22.5280   17.9290 N   0  0  0  0  0  0  0  0  0  0  0  0
  2  1  1  6  0  0  0
  2  3  1  0  0  0  0
  3 23  1  6  0  0  0
  4  3  1  1  0  0  0
  4  9  1  0  0  0  0
  5 12  1  6  0  0  0
  5 10  1  0  0  0  0
  5  6  1  0  0  0  0
  7  4  1  0  0  0  0
  7  5  1  0  0  0  0
  8  6  1  0  0  0  0
  8 16  1  1  0  0  0
  9 18  1  6  0  0  0
  9  8  1  0  0  0  0
 11 10  1  0  0  0  0
 12 13  2  0  0  0  0
 14 12  1  0  0  0  0
 15 14  1  0  0  0  0
 17 16  1  0  0  0  0
 18 20  1  0  0  0  0
 19 18  1  0  0  0  0
 21 19  1  0  0  0  0
 22 19  2  0  0  0  0
 23 24  1  0  0  0  0
 25  2  1  0  0  0  0
 26 25  1  0  0  0  0
 27  1  1  0  0  0  0
 28 30  2  0  0  0  0
 28 27  1  0  0  0  0
 29 27  1  0  0  0  0
 31 28  1  0  0  0  0
 32 31  1  0  0  0  0
 33 35  1  0  0  0  0
 33 32  1  0  0  0  0
 34 33  2  0  0  0  0
 36 34  1  0  0  0  0
 36 37  1  0  0  0  0
 37 35  2  0  0  0  0
 38 36  1  0  0  0  0
 38 40  2  0  0  0  0
 39 38  1  0  0  0  0
 41 39  2  0  0  0  0
 41 43  1  0  0  0  0
 42 40  1  0  0  0  0
 43 42  2  0  0  0  0
 44 45  1  0  0  0  0
 46 45  1  0  0  0  0
 46 47  1  0  0  0  0
 47 48  1  0  0  0  0
 49 48  1  0  0  0  0
M  END
>  <REMARK>
 VINA RESULT:    -5.892      8.787     13.709
 INTER + INTRA:         -14.683
 INTER:                  -9.151
 INTRA:                  -5.532
 UNBOUND:                -4.485
 SMILES CC(=O)N[C@@H]1[C@@H](O)C[C@](O)(C(=O)O)O[C@H]1C(O)[C@H](O)CNC(=O)OCc1cn(-c2ccccc2)nn1
 SMILES IDX 20 1 18 2 16 3 15 4 9 5 8 6 14 7 6 8 5 9 10 10 11 12 12 13
 SMILES IDX 13 14 7 16 4 18 2 19 1 21 3 22 17 23 19 25 21 27 22 28 23 30
 SMILES IDX 24 31 25 32 26 33 27 34 36 35 28 36 35 37 29 38 30 39 34 40
 SMILES IDX 31 41 33 42 32 43
 H PARENT 10 11 13 15 7 17 4 20 17 24 19 26 21 29
 Flexibility Score: inf
  4 active torsions:
  status: ('A' for Active; 'I' for Inactive)
    1  A    between atoms: CA   and  CB  
    2  A    between atoms: CB   and  CG  
    3  A    between atoms: CG   and  CD  
    4  A    between atoms: CD   and  CE  

>  <TORSDO>
F 15

>  <BEGIN_>
RES LYS A 131

$$$$
ligand_3_pose_3_2HRL.pdbqt
 OpenBabel07062320523D

  6  5  0  0  0  0  0  0  0  0999 V2000
   33.1930   34.6630    9.2900 C   0  0  0  0  0  0  0  0  0  0  0  0
   32.0600   35.3600   10.0340 C   0  0  0  0  0  0  0  0  0  0  0  0
   30.6980   34.7960    9.7230 C   0  0  0  0  0  0  0  0  0  0  0  0
   30.5670   34.4980    8.2370 C   0  0  0  0  0  0  0  0  0  0  0  0
   29.2160   34.9520    7.7190 C   0  0  0  0  0  0  0  0  0  0  0  0
   28.1150   34.4740    8.6020 N   0  0  0  0  0  0  0  0  0  0  0  0
  1  2  1  0  0  0  0
  3  2  1  0  0  0  0
  4  3  1  0  0  0  0
  5  4  1  0  0  0  0
  5  6  1  0  0  0  0
M  END
>  <EGIN_R>
ES LYS A 135

>  <REMARK>
  4 active torsions:
  status: ('A' for Active; 'I' for Inactive)
    5  A    between atoms: CA   and  CB  
    6  A    between atoms: CB   and  CG  
    7  A    between atoms: CG   and  CD  
    8  A    between atoms: CD   and  CE  

$$$$
