ligand_63_pose_15_2HRL.pdbqt
 OpenBabel07062320523D

 51 52  0  0  1  0  0  0  0  0999 V2000
   29.5200   30.6140   18.0150 N   0  0  0  0  0  0  0  0  0  0  0  0
   28.5970   31.3100   18.8670 C   0  0  0  0  0  0  0  0  0  0  0  0
   28.6860   32.5270   19.0590 O   0  0  0  0  0  0  0  0  0  0  0  0
   29.2970   29.5660   17.9320 H   0  0  0  0  0  0  0  0  0  0  0  0
   30.5640   31.1990   17.3220 C   0  0  0  0  0  0  0  0  0  0  0  0
   30.4130   31.3760   15.7900 C   0  0  2  0  0  0  0  0  0  0  0  0
   30.5930   32.8300   15.5780 C   0  0  1  0  0  0  0  0  0  0  0  0
   30.0140   33.4780   14.3720 C   0  0  2  0  0  0  0  0  0  0  0  0
   30.9180   35.5260   13.6500 C   0  0  2  0  0  0  0  0  0  0  0  0
   29.6890   35.9250   12.8710 C   0  0  0  0  0  0  0  0  0  0  0  0
   31.0800   34.1400   13.7010 O   0  0  0  0  0  0  0  0  0  0  0  0
   28.5650   34.8920   13.0880 C   0  0  1  0  0  0  0  0  0  0  0  0
   28.8530   34.3530   14.5100 C   0  0  1  0  0  0  0  0  0  0  0  0
   30.9280   36.1420   14.8920 O   0  0  0  0  0  0  0  0  0  0  0  0
   30.4540   35.6650   15.5890 H   0  0  0  0  0  0  0  0  0  0  0  0
   32.0700   35.9900   12.8500 C   0  0  0  0  0  0  0  0  0  0  0  0
   32.2750   36.9880   12.2750 O   0  0  0  0  0  0  0  0  0  0  0  0
   33.1430   34.9750   12.7920 O   0  0  0  0  0  0  0  0  0  0  0  0
   33.0490   34.2020   13.4560 H   0  0  0  0  0  0  0  0  0  0  0  0
   27.3280   35.4800   13.0100 O   0  0  0  0  0  0  0  0  0  0  0  0
   27.0200   35.7940   13.8780 H   0  0  0  0  0  0  0  0  0  0  0  0
   27.6320   33.6610   14.9510 N   0  0  0  0  0  0  0  0  0  0  0  0
   27.1000   33.9800   16.2090 C   0  0  0  0  0  0  0  0  0  0  0  0
   27.1920   32.9940   14.3460 H   0  0  0  0  0  0  0  0  0  0  0  0
   25.9670   33.5820   16.9600 C   0  0  0  0  0  0  0  0  0  0  0  0
   27.9000   34.9140   16.7980 O   0  0  0  0  0  0  0  0  0  0  0  0
   30.5370   33.5220   16.7520 O   0  0  0  0  0  0  0  0  0  0  0  0
   30.1540   32.9860   17.4970 H   0  0  0  0  0  0  0  0  0  0  0  0
   29.2070   30.8140   15.4820 O   0  0  0  0  0  0  0  0  0  0  0  0
   29.0830   30.8120   14.5000 H   0  0  0  0  0  0  0  0  0  0  0  0
   27.5760   30.5840   19.4840 O   0  0  0  0  0  0  0  0  0  0  0  0
   27.1500   29.3090   18.9570 C   0  0  0  0  0  0  0  0  0  0  0  0
   26.0280   29.6940   18.0240 C   0  0  0  0  0  0  0  0  0  0  0  0
   25.8750   29.2960   16.7290 C   0  0  0  0  0  0  0  0  0  0  0  0
   24.9660   30.4210   18.3710 N   0  0  0  0  0  0  0  0  0  0  0  0
   24.6730   29.8110   16.3250 N   0  0  0  0  0  0  0  0  0  0  0  0
   24.1530   30.4900   17.3570 N   0  0  0  0  0  0  0  0  0  0  0  0
   24.0650   29.6540   15.0840 C   0  0  0  0  0  0  0  0  0  0  0  0
   24.3340   30.5510   14.0460 N   0  0  0  0  0  0  0  0  0  0  0  0
   23.1020   28.7180   14.7700 C   0  0  0  0  0  0  0  0  0  0  0  0
   23.7120   30.4590   12.9460 C   0  0  0  0  0  0  0  0  0  0  0  0
   22.4590   28.6370   13.6170 C   0  0  0  0  0  0  0  0  0  0  0  0
   22.7130   29.5380   12.5430 C   0  0  0  0  0  0  0  0  0  0  0  0
   22.6910   27.7470   15.8570 C   0  0  0  0  0  0  0  0  0  0  0  0
   22.3990   27.1020   16.5770 N   0  0  0  0  0  0  0  0  0  0  0  0
   29.8670   25.5550   16.9770 C   0  0  0  0  0  0  0  0  0  0  0  0
   28.3450   25.7220   17.0260 C   0  0  0  0  0  0  0  0  0  0  0  0
   27.6020   24.3980   16.9300 C   0  0  0  0  0  0  0  0  0  0  0  0
   26.4520   24.3240   17.8960 C   0  0  0  0  0  0  0  0  0  0  0  0
   25.7000   25.6510   17.8950 C   0  0  0  0  0  0  0  0  0  0  0  0
   24.6150   25.6330   18.9050 N   0  0  0  0  0  0  0  0  0  0  0  0
  1  2  1  0  0  0  0
  2  3  2  0  0  0  0
  2 31  1  0  0  0  0
  4  1  1  0  0  0  0
  5  1  1  0  0  0  0
  6  5  1  1  0  0  0
  7  6  1  0  0  0  0
  7 27  1  1  0  0  0
  8 13  1  0  0  0  0
  8  7  1  1  0  0  0
  9 16  1  6  0  0  0
  9 11  1  0  0  0  0
  9 14  1  0  0  0  0
 10 12  1  0  0  0  0
 10  9  1  0  0  0  0
 11  8  1  0  0  0  0
 12 20  1  1  0  0  0
 12 13  1  0  0  0  0
 13 22  1  6  0  0  0
 14 15  1  0  0  0  0
 17 16  2  0  0  0  0
 18 16  1  0  0  0  0
 18 19  1  0  0  0  0
 20 21  1  0  0  0  0
 22 23  1  0  0  0  0
 23 26  2  0  0  0  0
 23 25  1  0  0  0  0
 24 22  1  0  0  0  0
 27 28  1  0  0  0  0
 29  6  1  0  0  0  0
 30 29  1  0  0  0  0
 32 31  1  0  0  0  0
 33 35  1  0  0  0  0
 33 32  1  0  0  0  0
 34 33  2  0  0  0  0
 36 34  1  0  0  0  0
 36 37  1  0  0  0  0
 37 35  2  0  0  0  0
 38 36  1  0  0  0  0
 39 38  2  0  0  0  0
 40 38  1  0  0  0  0
 40 44  1  0  0  0  0
 41 39  1  0  0  0  0
 42 40  2  0  0  0  0
 43 41  2  0  0  0  0
 43 42  1  0  0  0  0
 44 45  3  0  0  0  0
 46 47  1  0  0  0  0
 48 47  1  0  0  0  0
 48 49  1  0  0  0  0
 50 49  1  0  0  0  0
 50 51  1  0  0  0  0
M  END
>  <REMARK>
 VINA RESULT:    -4.062      4.448      8.545
 INTER + INTRA:         -14.309
 INTER:                  -8.334
 INTRA:                  -5.975
 UNBOUND:                -7.042
 SMILES CC(=O)N[C@@H]1[C@@H](O)C[C@](O)(C(=O)O)O[C@H]1C(O)[C@H](O)CNC(=O)OCc1cn(-c2ncccc2C#N)nn1
 SMILES IDX 21 1 22 2 23 3 20 5 18 6 16 7 15 8 9 9 8 10 14 11 6 12 5 13
 SMILES IDX 10 14 11 16 12 17 13 18 7 20 4 22 2 23 1 25 3 26 17 27 19 29
 SMILES IDX 24 31 25 32 26 33 27 34 38 35 28 36 37 37 29 38 30 39 34 40
 SMILES IDX 31 41 33 42 32 43 35 44 36 45
 H PARENT 21 4 10 15 13 19 7 21 4 24 17 28 19 30
 Flexibility Score: inf
  4 active torsions:
  status: ('A' for Active; 'I' for Inactive)
    1  A    between atoms: CA   and  CB  
    2  A    between atoms: CB   and  CG  
    3  A    between atoms: CG   and  CD  
    4  A    between atoms: CD   and  CE  

>  <TORSDO>
F 16

>  <BEGIN_>
RES LYS A 131

$$$$
ligand_63_pose_15_2HRL.pdbqt
 OpenBabel07062320523D

  6  5  0  0  0  0  0  0  0  0999 V2000
   33.1930   34.6630    9.2900 C   0  0  0  0  0  0  0  0  0  0  0  0
   32.0600   35.3600   10.0340 C   0  0  0  0  0  0  0  0  0  0  0  0
   30.7060   34.7510    9.7770 C   0  0  0  0  0  0  0  0  0  0  0  0
   30.4920   34.5280    8.2880 C   0  0  0  0  0  0  0  0  0  0  0  0
   29.0690   34.8780    7.8950 C   0  0  0  0  0  0  0  0  0  0  0  0
   28.1690   34.8730    9.0820 N   0  0  0  0  0  0  0  0  0  0  0  0
  1  2  1  0  0  0  0
  3  2  1  0  0  0  0
  4  3  1  0  0  0  0
  5  4  1  0  0  0  0
  5  6  1  0  0  0  0
M  END
>  <EGIN_R>
ES LYS A 135

>  <REMARK>
  4 active torsions:
  status: ('A' for Active; 'I' for Inactive)
    5  A    between atoms: CA   and  CB  
    6  A    between atoms: CB   and  CG  
    7  A    between atoms: CG   and  CD  
    8  A    between atoms: CD   and  CE  

$$$$
