ligand_85_pose_7_2HRL.pdbqt
 OpenBabel07062320523D

 55 56  0  0  1  0  0  0  0  0999 V2000
   29.2120   32.4830   18.3910 N   0  0  0  0  0  0  0  0  0  0  0  0
   29.5180   33.6330   19.1370 C   0  0  0  0  0  0  0  0  0  0  0  0
   29.3730   34.7650   18.6340 O   0  0  0  0  0  0  0  0  0  0  0  0
   29.3330   31.5390   18.8240 H   0  0  0  0  0  0  0  0  0  0  0  0
   28.7310   32.5440   17.0360 C   0  0  0  0  0  0  0  0  0  0  0  0
   29.3230   31.4150   16.2320 C   0  0  2  0  0  0  0  0  0  0  0  0
   28.2800   30.4430   15.7420 C   0  0  2  0  0  0  0  0  0  0  0  0
   27.3520   30.0660   16.8330 C   0  0  2  0  0  0  0  0  0  0  0  0
   26.9750   28.8250   18.7240 C   0  0  2  0  0  0  0  0  0  0  0  0
   25.8140   29.7820   18.8280 C   0  0  0  0  0  0  0  0  0  0  0  0
   27.7120   28.9530   17.5730 O   0  0  0  0  0  0  0  0  0  0  0  0
   25.0380   29.9090   17.5580 C   0  0  1  0  0  0  0  0  0  0  0  0
   25.9330   29.8060   16.3270 C   0  0  1  0  0  0  0  0  0  0  0  0
   26.4480   27.5210   18.7160 O   0  0  0  0  0  0  0  0  0  0  0  0
   26.4000   27.2490   19.6830 H   0  0  0  0  0  0  0  0  0  0  0  0
   27.8820   28.9540   19.8700 C   0  0  0  0  0  0  0  0  0  0  0  0
   27.5140   29.5940   20.8850 O   0  0  0  0  0  0  0  0  0  0  0  0
   29.1540   28.4070   19.9180 O   0  0  0  0  0  0  0  0  0  0  0  0
   29.9350   29.0660   20.0580 H   0  0  0  0  0  0  0  0  0  0  0  0
   24.0540   28.9000   17.5380 O   0  0  0  0  0  0  0  0  0  0  0  0
   24.3750   28.2300   16.8750 H   0  0  0  0  0  0  0  0  0  0  0  0
   25.5510   30.7130   15.2990 N   0  0  0  0  0  0  0  0  0  0  0  0
   24.5310   30.3650   14.3790 C   0  0  0  0  0  0  0  0  0  0  0  0
   26.0040   31.6410   15.1990 H   0  0  0  0  0  0  0  0  0  0  0  0
   24.1620   31.3560   13.3120 C   0  0  0  0  0  0  0  0  0  0  0  0
   23.9160   29.2830   14.3980 O   0  0  0  0  0  0  0  0  0  0  0  0
   28.8860   29.4020   15.0840 O   0  0  0  0  0  0  0  0  0  0  0  0
   29.5210   29.8050   14.4110 H   0  0  0  0  0  0  0  0  0  0  0  0
   30.2010   30.6540   17.0660 O   0  0  0  0  0  0  0  0  0  0  0  0
   31.1360   30.8100   16.8240 H   0  0  0  0  0  0  0  0  0  0  0  0
   29.9880   33.5940   20.4450 O   0  0  0  0  0  0  0  0  0  0  0  0
   29.6040   32.5280   21.2910 C   0  0  0  0  0  0  0  0  0  0  0  0
   30.5760   31.4260   21.2300 C   0  0  0  0  0  0  0  0  0  0  0  0
   31.3620   30.8860   22.2260 C   0  0  0  0  0  0  0  0  0  0  0  0
   30.8740   30.7230   20.1250 N   0  0  0  0  0  0  0  0  0  0  0  0
   32.1110   29.8770   21.7070 N   0  0  0  0  0  0  0  0  0  0  0  0
   31.7850   29.8150   20.4390 N   0  0  0  0  0  0  0  0  0  0  0  0
   33.0540   29.0530   22.3790 C   0  0  0  0  0  0  0  0  0  0  0  0
   34.3390   29.5100   22.6350 C   0  0  0  0  0  0  0  0  0  0  0  0
   32.6810   27.7910   22.7770 C   0  0  0  0  0  0  0  0  0  0  0  0
   35.2650   28.7310   23.2830 C   0  0  0  0  0  0  0  0  0  0  0  0
   33.5900   26.9770   23.4330 C   0  0  0  0  0  0  0  0  0  0  0  0
   36.8990   29.2990   23.6130 Cl  0  0  0  0  0  0  0  0  0  0  0  0
   34.8730   27.4670   23.6740 C   0  0  0  0  0  0  0  0  0  0  0  0
   31.3400   27.3300   22.5040 C   0  0  0  0  0  0  0  0  0  0  0  0
   31.0220   26.7190   21.4450 O   0  0  0  0  0  0  0  0  0  0  0  0
   30.3130   27.5580   23.4480 N   0  0  0  0  0  0  0  0  0  0  0  0
   30.6300   28.2510   24.6730 C   0  0  0  0  0  0  0  0  0  0  0  0
   28.9450   27.1150   23.2260 C   0  0  0  0  0  0  0  0  0  0  0  0
   29.8670   25.5550   16.9770 C   0  0  0  0  0  0  0  0  0  0  0  0
   28.3450   25.7220   17.0260 C   0  0  0  0  0  0  0  0  0  0  0  0
   27.5990   24.4230   16.7630 C   0  0  0  0  0  0  0  0  0  0  0  0
   26.5880   24.1230   17.8340 C   0  0  0  0  0  0  0  0  0  0  0  0
   25.2040   24.5610   17.3650 C   0  0  0  0  0  0  0  0  0  0  0  0
   24.3900   23.3840   16.9820 N   0  0  0  0  0  0  0  0  0  0  0  0
  1  4  1  0  0  0  0
  1  2  1  0  0  0  0
  2 31  1  0  0  0  0
  3  2  2  0  0  0  0
  5  1  1  0  0  0  0
  6  5  1  1  0  0  0
  6 29  1  0  0  0  0
  7 27  1  1  0  0  0
  7  6  1  0  0  0  0
  8  7  1  6  0  0  0
  8 11  1  0  0  0  0
  9 14  1  1  0  0  0
  9 10  1  0  0  0  0
  9 16  1  0  0  0  0
 11  9  1  0  0  0  0
 12 20  1  6  0  0  0
 12 10  1  0  0  0  0
 13 22  1  6  0  0  0
 13  8  1  0  0  0  0
 13 12  1  0  0  0  0
 14 15  1  0  0  0  0
 16 18  1  0  0  0  0
 16 17  2  0  0  0  0
 18 19  1  0  0  0  0
 21 20  1  0  0  0  0
 23 26  2  0  0  0  0
 23 22  1  0  0  0  0
 24 22  1  0  0  0  0
 25 23  1  0  0  0  0
 28 27  1  0  0  0  0
 30 29  1  0  0  0  0
 31 32  1  0  0  0  0
 33 32  1  0  0  0  0
 33 34  2  0  0  0  0
 35 37  2  0  0  0  0
 35 33  1  0  0  0  0
 36 34  1  0  0  0  0
 36 38  1  0  0  0  0
 37 36  1  0  0  0  0
 38 39  2  0  0  0  0
 38 40  1  0  0  0  0
 39 41  1  0  0  0  0
 40 42  2  0  0  0  0
 41 43  1  0  0  0  0
 41 44  2  0  0  0  0
 42 44  1  0  0  0  0
 45 40  1  0  0  0  0
 45 47  1  0  0  0  0
 46 45  2  0  0  0  0
 47 48  1  0  0  0  0
 49 47  1  0  0  0  0
 50 51  1  0  0  0  0
 52 51  1  0  0  0  0
 52 53  1  0  0  0  0
 54 53  1  0  0  0  0
 55 54  1  0  0  0  0
M  END
>  <REMARK>
 VINA RESULT:    -4.810      7.033     11.172
 INTER + INTRA:         -14.793
 INTER:                  -8.198
 INTRA:                  -6.595
 UNBOUND:                -6.187
 SMILES CC(=O)N[C@@H]1[C@@H](O)C[C@](O)(C(=O)O)O[C@H]1C(O)[C@H](O)CNC(=O)OCc1cn(-c2cc(Cl)ccc2C(=O)N(C)C)nn1
 SMILES IDX 21 1 22 2 23 3 20 5 18 6 16 7 15 8 9 9 8 10 14 11 6 12 5 13
 SMILES IDX 10 14 11 16 12 17 13 18 7 20 4 22 2 23 1 25 3 26 17 27 19 29
 SMILES IDX 24 31 25 32 26 33 27 34 42 35 28 36 41 37 29 38 30 39 35 40
 SMILES IDX 31 41 34 42 32 43 33 44 36 45 37 46 38 47 39 48 40 49
 H PARENT 21 4 10 15 13 19 7 21 4 24 17 28 19 30
 Flexibility Score: inf
  4 active torsions:
  status: ('A' for Active; 'I' for Inactive)
    1  A    between atoms: CA   and  CB  
    2  A    between atoms: CB   and  CG  
    3  A    between atoms: CG   and  CD  
    4  A    between atoms: CD   and  CE  

>  <TORSDO>
F 16

>  <BEGIN_>
RES LYS A 131

$$$$
ligand_85_pose_7_2HRL.pdbqt
 OpenBabel07062320523D

  6  5  0  0  0  0  0  0  0  0999 V2000
   33.1930   34.6630    9.2900 C   0  0  0  0  0  0  0  0  0  0  0  0
   32.0600   35.3600   10.0340 C   0  0  0  0  0  0  0  0  0  0  0  0
   30.7060   34.7480    9.7810 C   0  0  0  0  0  0  0  0  0  0  0  0
   30.4880   34.5260    8.2920 C   0  0  0  0  0  0  0  0  0  0  0  0
   29.0700   34.8980    7.9010 C   0  0  0  0  0  0  0  0  0  0  0  0
   28.0800   34.2870    8.8290 N   0  0  0  0  0  0  0  0  0  0  0  0
  1  2  1  0  0  0  0
  3  2  1  0  0  0  0
  4  3  1  0  0  0  0
  5  4  1  0  0  0  0
  5  6  1  0  0  0  0
M  END
>  <EGIN_R>
ES LYS A 135

>  <REMARK>
  4 active torsions:
  status: ('A' for Active; 'I' for Inactive)
    5  A    between atoms: CA   and  CB  
    6  A    between atoms: CB   and  CG  
    7  A    between atoms: CG   and  CD  
    8  A    between atoms: CD   and  CE  

$$$$
