ligand_16_pose_19_2HRL.pdbqt
 OpenBabel07062320523D

 54 55  0  0  1  0  0  0  0  0999 V2000
   27.0950   31.9880   15.8590 N   0  0  0  0  0  0  0  0  0  0  0  0
   27.5460   32.0400   17.1890 C   0  0  0  0  0  0  0  0  0  0  0  0
   26.7710   32.3960   18.0920 O   0  0  0  0  0  0  0  0  0  0  0  0
   27.8230   31.6770   15.1460 H   0  0  0  0  0  0  0  0  0  0  0  0
   25.7560   32.3200   15.4500 C   0  0  0  0  0  0  0  0  0  0  0  0
   25.7050   33.7630   15.0230 C   0  0  2  0  0  0  0  0  0  0  0  0
   26.7930   34.1580   14.0760 C   0  0  1  0  0  0  0  0  0  0  0  0
   26.2380   35.0930   12.9860 C   0  0  2  0  0  0  0  0  0  0  0  0
   26.2810   35.3070   10.6840 C   0  0  2  0  0  0  0  0  0  0  0  0
   27.1690   36.5410   10.7030 C   0  0  0  0  0  0  0  0  0  0  0  0
   26.6260   34.5520   11.7790 O   0  0  0  0  0  0  0  0  0  0  0  0
   26.9880   37.2930   11.9810 C   0  0  1  0  0  0  0  0  0  0  0  0
   26.8850   36.4140   13.1970 C   0  0  1  0  0  0  0  0  0  0  0  0
   26.7160   34.5910    9.5310 O   0  0  0  0  0  0  0  0  0  0  0  0
   27.7240   34.6160    9.5230 H   0  0  0  0  0  0  0  0  0  0  0  0
   24.8630   35.6510   10.5490 C   0  0  0  0  0  0  0  0  0  0  0  0
   23.9870   34.8690   11.0540 O   0  0  0  0  0  0  0  0  0  0  0  0
   24.3410   36.7620    9.9170 O   0  0  0  0  0  0  0  0  0  0  0  0
   23.6330   37.2840   10.4130 H   0  0  0  0  0  0  0  0  0  0  0  0
   28.1440   38.0920   12.1500 O   0  0  0  0  0  0  0  0  0  0  0  0
   28.5050   37.8560   13.0400 H   0  0  0  0  0  0  0  0  0  0  0  0
   26.3040   37.1710   14.2880 N   0  0  0  0  0  0  0  0  0  0  0  0
   27.1010   37.7800   15.2880 C   0  0  0  0  0  0  0  0  0  0  0  0
   25.2720   37.2910   14.3670 H   0  0  0  0  0  0  0  0  0  0  0  0
   26.4760   38.5640   16.4140 C   0  0  0  0  0  0  0  0  0  0  0  0
   28.3390   37.6590   15.2230 O   0  0  0  0  0  0  0  0  0  0  0  0
   27.9150   34.6830   14.6690 O   0  0  0  0  0  0  0  0  0  0  0  0
   27.7440   34.8470   15.6320 H   0  0  0  0  0  0  0  0  0  0  0  0
   25.6850   34.6400   16.1150 O   0  0  0  0  0  0  0  0  0  0  0  0
   26.4820   34.4610   16.6900 H   0  0  0  0  0  0  0  0  0  0  0  0
   28.8400   31.7100   17.5700 O   0  0  0  0  0  0  0  0  0  0  0  0
   29.8020   31.1680   16.6980 C   0  0  0  0  0  0  0  0  0  0  0  0
   30.3990   32.2440   15.8790 C   0  0  0  0  0  0  0  0  0  0  0  0
   31.5070   33.0130   16.2380 C   0  0  0  0  0  0  0  0  0  0  0  0
   30.0390   32.7170   14.6700 N   0  0  0  0  0  0  0  0  0  0  0  0
   31.7600   33.8900   15.2590 N   0  0  0  0  0  0  0  0  0  0  0  0
   30.8620   33.6920   14.3250 N   0  0  0  0  0  0  0  0  0  0  0  0
   32.8350   34.8930   15.2420 C   0  0  0  0  0  0  0  0  0  0  0  0
   32.4830   35.8320   14.1290 C   0  0  0  0  0  0  0  0  0  0  0  0
   32.9730   35.6000   12.8750 C   0  0  0  0  0  0  0  0  0  0  0  0
   31.6810   36.9270   14.3370 C   0  0  0  0  0  0  0  0  0  0  0  0
   32.6660   36.4610   11.8160 C   0  0  0  0  0  0  0  0  0  0  0  0
   31.3750   37.7830   13.2850 C   0  0  0  0  0  0  0  0  0  0  0  0
   31.8650   37.5590   12.0130 C   0  0  0  0  0  0  0  0  0  0  0  0
   31.5360   38.4620   10.9180 C   0  0  0  0  0  0  0  0  0  0  0  0
   30.5980   39.2870   10.9720 O   0  0  0  0  0  0  0  0  0  0  0  0
   32.2910   38.4170    9.7510 O   0  0  0  0  0  0  0  0  0  0  0  0
   32.3280   37.5880    9.1830 H   0  0  0  0  0  0  0  0  0  0  0  0
   29.8670   25.5550   16.9770 C   0  0  0  0  0  0  0  0  0  0  0  0
   28.3450   25.7220   17.0260 C   0  0  0  0  0  0  0  0  0  0  0  0
   27.6010   24.4020   16.8950 C   0  0  0  0  0  0  0  0  0  0  0  0
   26.1560   24.5240   17.2910 C   0  0  0  0  0  0  0  0  0  0  0  0
   25.6390   23.1670   17.7580 C   0  0  0  0  0  0  0  0  0  0  0  0
   25.4540   23.1610   19.2280 N   0  0  0  0  0  0  0  0  0  0  0  0
  1  2  1  0  0  0  0
  2 31  1  0  0  0  0
  2  3  2  0  0  0  0
  4  1  1  0  0  0  0
  5  1  1  0  0  0  0
  6  5  1  1  0  0  0
  6 29  1  0  0  0  0
  7 27  1  1  0  0  0
  7  6  1  0  0  0  0
  8 13  1  0  0  0  0
  8  7  1  1  0  0  0
  9 14  1  6  0  0  0
  9 10  1  0  0  0  0
  9 11  1  0  0  0  0
 10 12  1  0  0  0  0
 11  8  1  0  0  0  0
 12 20  1  1  0  0  0
 12 13  1  0  0  0  0
 13 22  1  1  0  0  0
 15 14  1  0  0  0  0
 16  9  1  0  0  0  0
 16 17  2  0  0  0  0
 18 19  1  0  0  0  0
 18 16  1  0  0  0  0
 20 21  1  0  0  0  0
 22 24  1  0  0  0  0
 22 23  1  0  0  0  0
 23 25  1  0  0  0  0
 26 23  2  0  0  0  0
 27 28  1  0  0  0  0
 29 30  1  0  0  0  0
 32 31  1  0  0  0  0
 33 34  2  0  0  0  0
 33 32  1  0  0  0  0
 35 33  1  0  0  0  0
 36 34  1  0  0  0  0
 37 35  2  0  0  0  0
 37 36  1  0  0  0  0
 38 36  1  0  0  0  0
 39 41  1  0  0  0  0
 39 38  1  0  0  0  0
 40 39  2  0  0  0  0
 42 44  2  0  0  0  0
 42 40  1  0  0  0  0
 43 41  2  0  0  0  0
 44 43  1  0  0  0  0
 45 46  2  0  0  0  0
 45 44  1  0  0  0  0
 47 45  1  0  0  0  0
 48 47  1  0  0  0  0
 49 50  1  0  0  0  0
 51 50  1  0  0  0  0
 51 52  1  0  0  0  0
 52 53  1  0  0  0  0
 53 54  1  0  0  0  0
M  END
>  <REMARK>
 VINA RESULT:    -5.645      4.353      8.592
 INTER + INTRA:         -14.588
 INTER:                  -7.839
 INTRA:                  -6.748
 UNBOUND:                -3.993
 SMILES CC(=O)N[C@@H]1[C@@H](O)C[C@](O)(C(=O)O)O[C@H]1C(O)[C@H](O)CNC(=O)OCc1cn(Cc2ccc(C(=O)O)cc2)nn1
 SMILES IDX 21 1 22 2 23 3 20 5 18 6 16 7 15 8 9 9 8 10 14 11 6 12 5 13
 SMILES IDX 10 14 11 16 12 17 13 18 7 20 4 22 2 23 1 25 3 26 17 27 19 29
 SMILES IDX 24 31 25 32 26 33 27 34 40 35 28 36 39 37 29 38 30 39 31 40
 SMILES IDX 38 41 32 42 37 43 33 44 34 45 35 46 36 47
 H PARENT 21 4 10 15 13 19 7 21 4 24 17 28 19 30 36 48
 Flexibility Score: inf
  4 active torsions:
  status: ('A' for Active; 'I' for Inactive)
    1  A    between atoms: CA   and  CB  
    2  A    between atoms: CB   and  CG  
    3  A    between atoms: CG   and  CD  
    4  A    between atoms: CD   and  CE  

>  <TORSDO>
F 18

>  <BEGIN_>
RES LYS A 131

$$$$
ligand_16_pose_19_2HRL.pdbqt
 OpenBabel07062320523D

  6  5  0  0  0  0  0  0  0  0999 V2000
   33.1930   34.6630    9.2900 C   0  0  0  0  0  0  0  0  0  0  0  0
   32.0600   35.3600   10.0340 C   0  0  0  0  0  0  0  0  0  0  0  0
   30.7360   34.6510    9.9160 C   0  0  0  0  0  0  0  0  0  0  0  0
   30.3180   34.5320    8.4580 C   0  0  0  0  0  0  0  0  0  0  0  0
   29.6620   35.8150    7.9860 C   0  0  0  0  0  0  0  0  0  0  0  0
   28.7260   35.5550    6.8570 N   0  0  0  0  0  0  0  0  0  0  0  0
  1  2  1  0  0  0  0
  3  2  1  0  0  0  0
  4  3  1  0  0  0  0
  5  4  1  0  0  0  0
  6  5  1  0  0  0  0
M  END
>  <EGIN_R>
ES LYS A 135

>  <REMARK>
  4 active torsions:
  status: ('A' for Active; 'I' for Inactive)
    5  A    between atoms: CA   and  CB  
    6  A    between atoms: CB   and  CG  
    7  A    between atoms: CG   and  CD  
    8  A    between atoms: CD   and  CE  

$$$$
