ligand_88_pose_16_2HRL.pdbqt
 OpenBabel07062320523D

 54 55  0  0  1  0  0  0  0  0999 V2000
   28.5370   31.6540   18.7070 N   0  0  0  0  0  0  0  0  0  0  0  0
   29.0580   32.0510   17.4420 C   0  0  0  0  0  0  0  0  0  0  0  0
   29.3230   31.1700   16.5920 O   0  0  0  0  0  0  0  0  0  0  0  0
   28.3280   32.4010   19.3920 H   0  0  0  0  0  0  0  0  0  0  0  0
   28.3070   30.2740   19.0400 C   0  0  0  0  0  0  0  0  0  0  0  0
   29.4490   29.7120   19.8370 C   0  0  2  0  0  0  0  0  0  0  0  0
   29.4060   30.1510   21.2840 C   0  0  1  0  0  0  0  0  0  0  0  0
   30.2360   29.1740   22.1370 C   0  0  2  0  0  0  0  0  0  0  0  0
   32.5710   28.9200   22.0000 C   0  0  2  0  0  0  0  0  0  0  0  0
   32.3190   27.4550   22.3890 C   0  0  0  0  0  0  0  0  0  0  0  0
   31.4720   29.6770   22.2260 O   0  0  0  0  0  0  0  0  0  0  0  0
   31.2720   27.0010   21.3840 C   0  0  1  0  0  0  0  0  0  0  0  0
   30.0310   27.7940   21.6730 C   0  0  1  0  0  0  0  0  0  0  0  0
   32.9990   28.8870   20.6880 O   0  0  0  0  0  0  0  0  0  0  0  0
   33.0070   29.7720   20.2480 H   0  0  0  0  0  0  0  0  0  0  0  0
   33.6730   29.4550   22.8380 C   0  0  0  0  0  0  0  0  0  0  0  0
   34.7560   28.8210   22.8890 O   0  0  0  0  0  0  0  0  0  0  0  0
   33.5490   30.6330   23.5680 O   0  0  0  0  0  0  0  0  0  0  0  0
   32.6200   30.7980   23.9840 H   0  0  0  0  0  0  0  0  0  0  0  0
   31.7260   27.1840   20.0790 O   0  0  0  0  0  0  0  0  0  0  0  0
   32.0200   28.1150   19.9960 H   0  0  0  0  0  0  0  0  0  0  0  0
   29.2220   26.9930   22.5900 N   0  0  0  0  0  0  0  0  0  0  0  0
   27.8090   26.9200   22.5190 C   0  0  0  0  0  0  0  0  0  0  0  0
   29.6750   26.4230   23.3590 H   0  0  0  0  0  0  0  0  0  0  0  0
   27.0220   26.0880   23.4790 C   0  0  0  0  0  0  0  0  0  0  0  0
   27.1990   27.5700   21.6320 O   0  0  0  0  0  0  0  0  0  0  0  0
   29.7690   31.4590   21.4850 O   0  0  0  0  0  0  0  0  0  0  0  0
   30.1350   31.8790   20.6790 H   0  0  0  0  0  0  0  0  0  0  0  0
   30.6450   29.9700   19.2060 O   0  0  0  0  0  0  0  0  0  0  0  0
   31.2130   29.1870   19.0780 H   0  0  0  0  0  0  0  0  0  0  0  0
   29.2690   33.3760   17.1540 O   0  0  0  0  0  0  0  0  0  0  0  0
   30.5690   33.9070   16.9720 C   0  0  0  0  0  0  0  0  0  0  0  0
   31.2560   33.9440   18.2910 C   0  0  0  0  0  0  0  0  0  0  0  0
   32.2170   34.8580   18.7050 C   0  0  0  0  0  0  0  0  0  0  0  0
   31.1090   33.1260   19.3490 N   0  0  0  0  0  0  0  0  0  0  0  0
   32.5990   34.5650   19.9560 N   0  0  0  0  0  0  0  0  0  0  0  0
   31.8970   33.4850   20.3380 N   0  0  0  0  0  0  0  0  0  0  0  0
   33.5650   35.2490   20.7690 C   0  0  0  0  0  0  0  0  0  0  0  0
   34.9320   34.6790   20.6510 C   0  0  0  0  0  0  0  0  0  0  0  0
   35.8280   35.3030   19.8070 C   0  0  0  0  0  0  0  0  0  0  0  0
   35.3460   33.5630   21.3390 C   0  0  0  0  0  0  0  0  0  0  0  0
   37.1190   34.8590   19.6210 C   0  0  0  0  0  0  0  0  0  0  0  0
   36.6510   33.0900   21.1690 C   0  0  0  0  0  0  0  0  0  0  0  0
   38.3320   35.7390   18.4530 Br  0  0  0  0  0  0  0  0  0  0  0  0
   37.5230   33.7300   20.3220 C   0  0  0  0  0  0  0  0  0  0  0  0
   37.1450   31.5270   22.1670 Br  0  0  0  0  0  0  0  0  0  0  0  0
   34.4720   32.9150   22.1930 O   0  0  0  0  0  0  0  0  0  0  0  0
   33.7580   32.3140   21.8050 H   0  0  0  0  0  0  0  0  0  0  0  0
   29.8670   25.5550   16.9770 C   0  0  0  0  0  0  0  0  0  0  0  0
   28.3450   25.7220   17.0260 C   0  0  0  0  0  0  0  0  0  0  0  0
   27.6010   24.4060   16.8580 C   0  0  0  0  0  0  0  0  0  0  0  0
   26.6200   24.1650   17.9720 C   0  0  0  0  0  0  0  0  0  0  0  0
   25.3230   23.6060   17.3960 C   0  0  0  0  0  0  0  0  0  0  0  0
   24.1610   24.0640   18.1940 N   0  0  0  0  0  0  0  0  0  0  0  0
  1  5  1  0  0  0  0
  1  4  1  0  0  0  0
  2  1  1  0  0  0  0
  3  2  2  0  0  0  0
  6  5  1  6  0  0  0
  6  7  1  0  0  0  0
  7 27  1  6  0  0  0
  8  7  1  6  0  0  0
  8 11  1  0  0  0  0
  9 14  1  6  0  0  0
  9 11  1  0  0  0  0
  9 10  1  0  0  0  0
  9 16  1  0  0  0  0
 12 20  1  6  0  0  0
 12 13  1  0  0  0  0
 12 10  1  0  0  0  0
 13  8  1  0  0  0  0
 13 22  1  1  0  0  0
 15 14  1  0  0  0  0
 16 17  2  0  0  0  0
 16 18  1  0  0  0  0
 18 19  1  0  0  0  0
 21 20  1  0  0  0  0
 22 24  1  0  0  0  0
 23 22  1  0  0  0  0
 23 25  1  0  0  0  0
 26 23  2  0  0  0  0
 28 27  1  0  0  0  0
 29  6  1  0  0  0  0
 30 29  1  0  0  0  0
 31  2  1  0  0  0  0
 32 31  1  0  0  0  0
 32 33  1  0  0  0  0
 33 34  2  0  0  0  0
 33 35  1  0  0  0  0
 34 36  1  0  0  0  0
 35 37  2  0  0  0  0
 36 37  1  0  0  0  0
 36 38  1  0  0  0  0
 39 38  1  0  0  0  0
 39 41  2  0  0  0  0
 40 39  1  0  0  0  0
 41 47  1  0  0  0  0
 42 40  2  0  0  0  0
 42 45  1  0  0  0  0
 43 41  1  0  0  0  0
 43 46  1  0  0  0  0
 44 42  1  0  0  0  0
 45 43  2  0  0  0  0
 48 47  1  0  0  0  0
 49 50  1  0  0  0  0
 51 50  1  0  0  0  0
 51 52  1  0  0  0  0
 53 52  1  0  0  0  0
 53 54  1  0  0  0  0
M  END
>  <REMARK>
 VINA RESULT:    -5.025      3.060      4.523
 INTER + INTRA:         -14.932
 INTER:                  -7.788
 INTRA:                  -7.144
 UNBOUND:                -5.794
 SMILES CC(=O)N[C@@H]1[C@@H](O)C[C@](O)(C(=O)O)O[C@H]1C(O)[C@H](O)CNC(=O)OCc1cn(Cc2cc(Br)cc(Br)c2O)nn1
 SMILES IDX 21 1 22 2 23 3 20 5 18 6 16 7 15 8 9 9 8 10 14 11 6 12 5 13
 SMILES IDX 10 14 11 16 12 17 13 18 7 20 4 22 2 23 1 25 3 26 17 27 19 29
 SMILES IDX 24 31 25 32 26 33 27 34 40 35 28 36 39 37 29 38 30 39 31 40
 SMILES IDX 37 41 32 42 35 43 33 44 34 45 36 46 38 47
 H PARENT 21 4 10 15 13 19 7 21 4 24 17 28 19 30 38 48
 Flexibility Score: inf
  4 active torsions:
  status: ('A' for Active; 'I' for Inactive)
    1  A    between atoms: CA   and  CB  
    2  A    between atoms: CB   and  CG  
    3  A    between atoms: CG   and  CD  
    4  A    between atoms: CD   and  CE  

>  <TORSDO>
F 17

>  <BEGIN_>
RES LYS A 131

$$$$
ligand_88_pose_16_2HRL.pdbqt
 OpenBabel07062320523D

  6  5  0  0  0  0  0  0  0  0999 V2000
   33.1930   34.6630    9.2900 C   0  0  0  0  0  0  0  0  0  0  0  0
   32.0600   35.3600   10.0340 C   0  0  0  0  0  0  0  0  0  0  0  0
   30.8030   35.5060    9.2170 C   0  0  0  0  0  0  0  0  0  0  0  0
   30.1450   34.1520    8.9970 C   0  0  0  0  0  0  0  0  0  0  0  0
   28.6810   34.3230    8.6390 C   0  0  0  0  0  0  0  0  0  0  0  0
   27.8020   33.6840    9.6570 N   0  0  0  0  0  0  0  0  0  0  0  0
  1  2  1  0  0  0  0
  3  2  1  0  0  0  0
  4  3  1  0  0  0  0
  5  4  1  0  0  0  0
  5  6  1  0  0  0  0
M  END
>  <EGIN_R>
ES LYS A 135

>  <REMARK>
  4 active torsions:
  status: ('A' for Active; 'I' for Inactive)
    5  A    between atoms: CA   and  CB  
    6  A    between atoms: CB   and  CG  
    7  A    between atoms: CG   and  CD  
    8  A    between atoms: CD   and  CE  

$$$$
