ligand_24_pose_1_2HRL.pdbqt
 OpenBabel07062320523D

 52 53  0  0  1  0  0  0  0  0999 V2000
   28.9040   31.0830   16.8550 N   0  0  0  0  0  0  0  0  0  0  0  0
   28.1090   31.7600   17.8060 C   0  0  0  0  0  0  0  0  0  0  0  0
   28.5890   32.4590   18.7300 O   0  0  0  0  0  0  0  0  0  0  0  0
   28.3970   30.5240   16.1300 H   0  0  0  0  0  0  0  0  0  0  0  0
   30.3310   31.1190   16.8240 C   0  0  0  0  0  0  0  0  0  0  0  0
   30.9160   31.9910   15.7670 C   0  0  2  0  0  0  0  0  0  0  0  0
   31.5250   33.2590   16.3250 C   0  0  1  0  0  0  0  0  0  0  0  0
   31.3710   34.4510   15.4500 C   0  0  2  0  0  0  0  0  0  0  0  0
   31.5700   35.2230   13.2770 C   0  0  2  0  0  0  0  0  0  0  0  0
   32.1980   36.5120   13.7260 C   0  0  0  0  0  0  0  0  0  0  0  0
   31.7050   34.1720   14.1270 O   0  0  0  0  0  0  0  0  0  0  0  0
   32.0350   36.7560   15.2120 C   0  0  1  0  0  0  0  0  0  0  0  0
   32.4020   35.4890   15.9060 C   0  0  1  0  0  0  0  0  0  0  0  0
   32.2720   34.8680   12.0960 O   0  0  0  0  0  0  0  0  0  0  0  0
   32.2620   35.6800   11.5340 H   0  0  0  0  0  0  0  0  0  0  0  0
   30.1800   35.5200   12.8560 C   0  0  0  0  0  0  0  0  0  0  0  0
   29.2910   34.6230   12.7730 O   0  0  0  0  0  0  0  0  0  0  0  0
   29.7730   36.8110   12.5250 O   0  0  0  0  0  0  0  0  0  0  0  0
   30.4390   37.5550   12.4410 H   0  0  0  0  0  0  0  0  0  0  0  0
   32.8000   37.8400   15.5950 O   0  0  0  0  0  0  0  0  0  0  0  0
   33.4620   38.0310   14.9120 H   0  0  0  0  0  0  0  0  0  0  0  0
   32.5180   35.5940   17.3250 N   0  0  0  0  0  0  0  0  0  0  0  0
   33.7030   35.8600   18.0240 C   0  0  0  0  0  0  0  0  0  0  0  0
   31.6400   35.4650   17.8970 H   0  0  0  0  0  0  0  0  0  0  0  0
   33.6910   35.9460   19.5040 C   0  0  0  0  0  0  0  0  0  0  0  0
   34.7630   36.0250   17.4120 O   0  0  0  0  0  0  0  0  0  0  0  0
   31.0100   33.4960   17.5810 O   0  0  0  0  0  0  0  0  0  0  0  0
   30.3120   32.8720   17.8780 H   0  0  0  0  0  0  0  0  0  0  0  0
   30.0690   32.2400   14.7280 O   0  0  0  0  0  0  0  0  0  0  0  0
   29.1300   32.2050   15.0820 H   0  0  0  0  0  0  0  0  0  0  0  0
   26.7070   31.6590   17.7330 O   0  0  0  0  0  0  0  0  0  0  0  0
   26.1240   30.3800   17.8230 C   0  0  0  0  0  0  0  0  0  0  0  0
   25.2910   30.0580   16.6500 C   0  0  0  0  0  0  0  0  0  0  0  0
   25.4960   30.4700   15.3300 C   0  0  0  0  0  0  0  0  0  0  0  0
   24.1730   29.3130   16.6100 N   0  0  0  0  0  0  0  0  0  0  0  0
   24.5170   29.9680   14.5650 N   0  0  0  0  0  0  0  0  0  0  0  0
   23.7300   29.2720   15.3630 N   0  0  0  0  0  0  0  0  0  0  0  0
   24.3310   30.1360   13.1470 C   0  0  0  0  0  0  0  0  0  0  0  0
   22.8980   30.2370   12.7970 C   0  0  0  0  0  0  0  0  0  0  0  0
   22.1970   29.1230   12.3950 C   0  0  0  0  0  0  0  0  0  0  0  0
   22.2640   31.4500   12.8720 C   0  0  0  0  0  0  0  0  0  0  0  0
   20.8470   29.2290   12.0670 C   0  0  0  0  0  0  0  0  0  0  0  0
   20.9140   31.5690   12.5470 C   0  0  0  0  0  0  0  0  0  0  0  0
   20.2150   30.4590   12.1470 C   0  0  0  0  0  0  0  0  0  0  0  0
   18.8620   30.5440   11.8140 O   0  0  0  0  0  0  0  0  0  0  0  0
   18.2060   29.4140   11.2660 C   0  0  0  0  0  0  0  0  0  0  0  0
   29.8670   25.5550   16.9770 C   0  0  0  0  0  0  0  0  0  0  0  0
   28.3450   25.7220   17.0260 C   0  0  0  0  0  0  0  0  0  0  0  0
   27.6010   24.4010   16.9060 C   0  0  0  0  0  0  0  0  0  0  0  0
   26.1590   24.5240   17.3100 C   0  0  0  0  0  0  0  0  0  0  0  0
   25.9180   23.7220   18.5860 C   0  0  0  0  0  0  0  0  0  0  0  0
   24.6160   23.0170   18.5170 N   0  0  0  0  0  0  0  0  0  0  0  0
  1  2  1  0  0  0  0
  2  3  2  0  0  0  0
  4  1  1  0  0  0  0
  5  1  1  0  0  0  0
  6  7  1  0  0  0  0
  6  5  1  1  0  0  0
  7 27  1  1  0  0  0
  8 13  1  0  0  0  0
  8  7  1  1  0  0  0
  9 14  1  6  0  0  0
  9 10  1  0  0  0  0
  9 11  1  0  0  0  0
 10 12  1  0  0  0  0
 11  8  1  0  0  0  0
 12 20  1  1  0  0  0
 12 13  1  0  0  0  0
 13 22  1  1  0  0  0
 15 14  1  0  0  0  0
 16  9  1  0  0  0  0
 17 16  2  0  0  0  0
 18 16  1  0  0  0  0
 19 18  1  0  0  0  0
 21 20  1  0  0  0  0
 22 24  1  0  0  0  0
 22 23  1  0  0  0  0
 23 25  1  0  0  0  0
 26 23  2  0  0  0  0
 27 28  1  0  0  0  0
 29 30  1  0  0  0  0
 29  6  1  0  0  0  0
 31  2  1  0  0  0  0
 31 32  1  0  0  0  0
 33 32  1  0  0  0  0
 34 33  2  0  0  0  0
 35 33  1  0  0  0  0
 36 34  1  0  0  0  0
 36 37  1  0  0  0  0
 37 35  2  0  0  0  0
 38 36  1  0  0  0  0
 39 41  1  0  0  0  0
 39 38  1  0  0  0  0
 40 39  2  0  0  0  0
 42 44  2  0  0  0  0
 42 40  1  0  0  0  0
 43 41  2  0  0  0  0
 44 43  1  0  0  0  0
 45 44  1  0  0  0  0
 46 45  1  0  0  0  0
 47 48  1  0  0  0  0
 49 48  1  0  0  0  0
 49 50  1  0  0  0  0
 50 51  1  0  0  0  0
 52 51  1  0  0  0  0
M  END
>  <REMARK>
 VINA RESULT:    -5.450      3.476      8.443
 INTER + INTRA:         -15.345
 INTER:                 -10.303
 INTRA:                  -5.043
 UNBOUND:                -5.276
 SMILES COc1ccc(Cn2cc(COC(=O)NC[C@@H](O)C(O)[C@@H]3O[C@@](O)(C(=O)O)C[C@H](O)[C@H]3NC(C)=O)nn2)cc1
 SMILES IDX 15 1 13 2 14 3 16 5 17 6 19 7 21 8 23 9 28 10 22 11 29 12
 SMILES IDX 31 13 24 14 25 16 26 17 27 18 30 20 32 22 33 23 34 25 35 26
 SMILES IDX 20 27 18 29 12 31 11 32 10 33 9 34 36 35 8 36 37 37 7 38
 SMILES IDX 6 39 5 40 38 41 4 42 39 43 3 44 2 45 1 46
 H PARENT 15 4 24 15 27 19 30 21 32 24 20 28 18 30
 Flexibility Score: inf
  4 active torsions:
  status: ('A' for Active; 'I' for Inactive)
    1  A    between atoms: CA   and  CB  
    2  A    between atoms: CB   and  CG  
    3  A    between atoms: CG   and  CD  
    4  A    between atoms: CD   and  CE  

>  <TORSDO>
F 17

>  <BEGIN_>
RES LYS A 131

$$$$
ligand_24_pose_1_2HRL.pdbqt
 OpenBabel07062320523D

  6  5  0  0  0  0  0  0  0  0999 V2000
   33.1930   34.6630    9.2900 C   0  0  0  0  0  0  0  0  0  0  0  0
   32.0600   35.3600   10.0340 C   0  0  0  0  0  0  0  0  0  0  0  0
   30.8030   35.5070    9.2160 C   0  0  0  0  0  0  0  0  0  0  0  0
   30.0970   34.1670    9.0710 C   0  0  0  0  0  0  0  0  0  0  0  0
   28.6340   34.3700    8.7290 C   0  0  0  0  0  0  0  0  0  0  0  0
   27.7530   33.6480    9.6880 N   0  0  0  0  0  0  0  0  0  0  0  0
  1  2  1  0  0  0  0
  3  2  1  0  0  0  0
  4  3  1  0  0  0  0
  5  4  1  0  0  0  0
  5  6  1  0  0  0  0
M  END
>  <EGIN_R>
ES LYS A 135

>  <REMARK>
  4 active torsions:
  status: ('A' for Active; 'I' for Inactive)
    5  A    between atoms: CA   and  CB  
    6  A    between atoms: CB   and  CG  
    7  A    between atoms: CG   and  CD  
    8  A    between atoms: CD   and  CE  

$$$$
