ligand_66_pose_18_2HRL.pdbqt
 OpenBabel07062320523D

 52 53  0  0  1  0  0  0  0  0999 V2000
   27.6180   35.8700   11.3010 N   0  0  0  0  0  0  0  0  0  0  0  0
   26.9360   34.9500   10.4970 C   0  0  0  0  0  0  0  0  0  0  0  0
   27.3020   33.7580   10.4370 O   0  0  0  0  0  0  0  0  0  0  0  0
   27.2430   36.8660   11.3040 H   0  0  0  0  0  0  0  0  0  0  0  0
   28.7670   35.5400   12.1020 C   0  0  0  0  0  0  0  0  0  0  0  0
   28.6240   35.9590   13.5380 C   0  0  2  0  0  0  0  0  0  0  0  0
   27.9450   34.9930   14.4280 C   0  0  2  0  0  0  0  0  0  0  0  0
   28.8740   34.2200   15.3790 C   0  0  2  0  0  0  0  0  0  0  0  0
   31.0800   33.8410   15.8010 C   0  0  2  0  0  0  0  0  0  0  0  0
   30.9320   32.3700   15.4720 C   0  0  0  0  0  0  0  0  0  0  0  0
   30.1400   34.5230   15.0730 O   0  0  0  0  0  0  0  0  0  0  0  0
   29.5750   31.8560   15.8710 C   0  0  1  0  0  0  0  0  0  0  0  0
   28.4660   32.8030   15.5160 C   0  0  1  0  0  0  0  0  0  0  0  0
   32.3740   34.2420   15.3830 O   0  0  0  0  0  0  0  0  0  0  0  0
   32.9550   34.0490   16.1720 H   0  0  0  0  0  0  0  0  0  0  0  0
   31.0420   34.0240   17.2560 C   0  0  0  0  0  0  0  0  0  0  0  0
   30.9080   35.1530   17.7810 O   0  0  0  0  0  0  0  0  0  0  0  0
   31.1530   32.9580   18.1720 O   0  0  0  0  0  0  0  0  0  0  0  0
   30.2950   32.4180   18.3090 H   0  0  0  0  0  0  0  0  0  0  0  0
   29.3850   30.6290   15.2360 O   0  0  0  0  0  0  0  0  0  0  0  0
   29.6950   29.8730   15.7770 H   0  0  0  0  0  0  0  0  0  0  0  0
   27.4010   32.6600   16.4890 N   0  0  0  0  0  0  0  0  0  0  0  0
   26.3780   31.6490   16.3750 C   0  0  0  0  0  0  0  0  0  0  0  0
   27.2900   33.2710   17.3380 H   0  0  0  0  0  0  0  0  0  0  0  0
   25.2970   31.5410   17.4040 C   0  0  0  0  0  0  0  0  0  0  0  0
   26.3900   30.8550   15.4130 O   0  0  0  0  0  0  0  0  0  0  0  0
   27.2060   34.0310   13.7360 O   0  0  0  0  0  0  0  0  0  0  0  0
   27.7430   33.2390   13.4860 H   0  0  0  0  0  0  0  0  0  0  0  0
   28.1150   37.2570   13.5570 O   0  0  0  0  0  0  0  0  0  0  0  0
   28.1580   37.6130   12.6360 H   0  0  0  0  0  0  0  0  0  0  0  0
   25.8280   35.2990    9.7250 O   0  0  0  0  0  0  0  0  0  0  0  0
   24.8470   36.1280   10.2940 C   0  0  0  0  0  0  0  0  0  0  0  0
   24.3170   35.4780   11.5090 C   0  0  0  0  0  0  0  0  0  0  0  0
   23.2520   34.6120   11.6170 C   0  0  0  0  0  0  0  0  0  0  0  0
   24.8010   35.6250   12.7560 N   0  0  0  0  0  0  0  0  0  0  0  0
   23.1210   34.2600   12.9090 N   0  0  0  0  0  0  0  0  0  0  0  0
   24.0830   34.8990   13.5650 N   0  0  0  0  0  0  0  0  0  0  0  0
   22.1810   33.3790   13.5480 C   0  0  0  0  0  0  0  0  0  0  0  0
   22.4610   31.9500   13.1830 C   0  0  0  0  0  0  0  0  0  0  0  0
   23.7440   31.4590   13.2730 C   0  0  0  0  0  0  0  0  0  0  0  0
   21.4680   31.1060   12.7620 C   0  0  0  0  0  0  0  0  0  0  0  0
   24.0110   30.1260   12.9400 C   0  0  0  0  0  0  0  0  0  0  0  0
   21.6940   29.7870   12.4270 C   0  0  0  0  0  0  0  0  0  0  0  0
   22.9770   29.2970   12.5190 C   0  0  0  0  0  0  0  0  0  0  0  0
   20.6720   28.8850   11.9860 C   0  0  0  0  0  0  0  0  0  0  0  0
   19.8460   28.1530   11.6080 N   0  0  0  0  0  0  0  0  0  0  0  0
   29.8670   25.5550   16.9770 C   0  0  0  0  0  0  0  0  0  0  0  0
   28.3450   25.7220   17.0260 C   0  0  0  0  0  0  0  0  0  0  0  0
   27.6030   24.3960   16.9630 C   0  0  0  0  0  0  0  0  0  0  0  0
   26.4290   24.3590   17.9010 C   0  0  0  0  0  0  0  0  0  0  0  0
   25.1340   24.3420   17.0960 C   0  0  0  0  0  0  0  0  0  0  0  0
   23.9600   24.3720   18.0000 N   0  0  0  0  0  0  0  0  0  0  0  0
  1  4  1  0  0  0  0
  1  5  1  0  0  0  0
  2  1  1  0  0  0  0
  3  2  2  0  0  0  0
  6  5  1  6  0  0  0
  6 29  1  0  0  0  0
  6  7  1  0  0  0  0
  7 27  1  6  0  0  0
  8  7  1  6  0  0  0
  8 13  1  0  0  0  0
  9 14  1  6  0  0  0
  9 16  1  0  0  0  0
 10  9  1  0  0  0  0
 10 12  1  0  0  0  0
 11  8  1  0  0  0  0
 11  9  1  0  0  0  0
 12 20  1  6  0  0  0
 13 12  1  0  0  0  0
 13 22  1  1  0  0  0
 14 15  1  0  0  0  0
 16 17  2  0  0  0  0
 16 18  1  0  0  0  0
 18 19  1  0  0  0  0
 20 21  1  0  0  0  0
 22 24  1  0  0  0  0
 23 22  1  0  0  0  0
 23 25  1  0  0  0  0
 26 23  2  0  0  0  0
 28 27  1  0  0  0  0
 30 29  1  0  0  0  0
 31 32  1  0  0  0  0
 31  2  1  0  0  0  0
 32 33  1  0  0  0  0
 33 34  2  0  0  0  0
 33 35  1  0  0  0  0
 34 36  1  0  0  0  0
 35 37  2  0  0  0  0
 36 38  1  0  0  0  0
 36 37  1  0  0  0  0
 39 40  1  0  0  0  0
 39 38  1  0  0  0  0
 41 39  2  0  0  0  0
 42 40  2  0  0  0  0
 43 44  2  0  0  0  0
 43 41  1  0  0  0  0
 44 42  1  0  0  0  0
 45 43  1  0  0  0  0
 46 45  3  0  0  0  0
 47 48  1  0  0  0  0
 49 48  1  0  0  0  0
 49 50  1  0  0  0  0
 51 50  1  0  0  0  0
 51 52  1  0  0  0  0
M  END
>  <REMARK>
 VINA RESULT:    -4.845      2.322      5.155
 INTER + INTRA:         -14.164
 INTER:                  -8.976
 INTRA:                  -5.188
 UNBOUND:                -5.212
 SMILES CC(=O)N[C@@H]1[C@@H](O)C[C@](O)(C(=O)O)O[C@H]1C(O)[C@H](O)CNC(=O)OCc1cn(Cc2cccc(C#N)c2)nn1
 SMILES IDX 21 1 22 2 23 3 20 5 18 6 16 7 15 8 9 9 8 10 14 11 6 12 5 13
 SMILES IDX 10 14 11 16 12 17 13 18 7 20 4 22 2 23 1 25 3 26 17 27 19 29
 SMILES IDX 24 31 25 32 26 33 27 34 39 35 28 36 38 37 29 38 30 39 31 40
 SMILES IDX 37 41 32 42 34 43 33 44 35 45 36 46
 H PARENT 21 4 10 15 13 19 7 21 4 24 17 28 19 30
 Flexibility Score: inf
  4 active torsions:
  status: ('A' for Active; 'I' for Inactive)
    1  A    between atoms: CA   and  CB  
    2  A    between atoms: CB   and  CG  
    3  A    between atoms: CG   and  CD  
    4  A    between atoms: CD   and  CE  

>  <TORSDO>
F 17

>  <BEGIN_>
RES LYS A 131

$$$$
ligand_66_pose_18_2HRL.pdbqt
 OpenBabel07062320523D

  6  5  0  0  0  0  0  0  0  0999 V2000
   33.1930   34.6630    9.2900 C   0  0  0  0  0  0  0  0  0  0  0  0
   32.0600   35.3600   10.0340 C   0  0  0  0  0  0  0  0  0  0  0  0
   30.7380   35.2960    9.3140 C   0  0  0  0  0  0  0  0  0  0  0  0
   30.3300   36.6740    8.8160 C   0  0  0  0  0  0  0  0  0  0  0  0
   29.0660   36.5880    7.9840 C   0  0  0  0  0  0  0  0  0  0  0  0
   28.8950   35.2250    7.4070 N   0  0  0  0  0  0  0  0  0  0  0  0
  1  2  1  0  0  0  0
  3  2  1  0  0  0  0
  4  3  1  0  0  0  0
  5  4  1  0  0  0  0
  6  5  1  0  0  0  0
M  END
>  <EGIN_R>
ES LYS A 135

>  <REMARK>
  4 active torsions:
  status: ('A' for Active; 'I' for Inactive)
    5  A    between atoms: CA   and  CB  
    6  A    between atoms: CB   and  CG  
    7  A    between atoms: CG   and  CD  
    8  A    between atoms: CD   and  CE  

$$$$
