ligand_84_pose_1_2HRL.pdbqt
 OpenBabel07062320523D

 60 62  0  0  1  0  0  0  0  0999 V2000
   24.3300   35.3270   14.6650 O   0  0  0  0  0  0  0  0  0  0  0  0
   25.2980   36.1180   14.0650 C   0  0  0  0  0  0  0  0  0  0  0  0
   26.5460   35.6290   13.5890 N   0  0  0  0  0  0  0  0  0  0  0  0
   26.7260   34.6150   13.7170 H   0  0  0  0  0  0  0  0  0  0  0  0
   25.0150   37.3420   13.9500 O   0  0  0  0  0  0  0  0  0  0  0  0
   27.4240   36.5760   12.9830 C   0  0  0  0  0  0  0  0  0  0  0  0
   27.8740   36.2800   11.6090 C   0  0  2  0  0  0  0  0  0  0  0  0
   26.8770   36.6000   10.5090 C   0  0  1  0  0  0  0  0  0  0  0  0
   27.5630   36.1130    9.2310 C   0  0  2  0  0  0  0  0  0  0  0  0
   29.6990   36.1310    8.2900 C   0  0  2  0  0  0  0  0  0  0  0  0
   29.1000   36.4040    6.9400 C   0  0  0  0  0  0  0  0  0  0  0  0
   28.8830   36.4530    9.3410 O   0  0  0  0  0  0  0  0  0  0  0  0
   27.6480   36.1060    6.8270 C   0  0  1  0  0  0  0  0  0  0  0  0
   26.9510   36.7660    8.0370 C   0  0  1  0  0  0  0  0  0  0  0  0
   30.8170   37.0010    8.3720 O   0  0  0  0  0  0  0  0  0  0  0  0
   31.5440   36.6960    7.7990 H   0  0  0  0  0  0  0  0  0  0  0  0
   30.2500   34.7490    8.4120 C   0  0  0  0  0  0  0  0  0  0  0  0
   29.6040   33.8610    9.0240 O   0  0  0  0  0  0  0  0  0  0  0  0
   31.4710   34.3740    7.8710 O   0  0  0  0  0  0  0  0  0  0  0  0
   31.7580   33.4160    7.7120 H   0  0  0  0  0  0  0  0  0  0  0  0
   27.1560   36.7020    5.6660 O   0  0  0  0  0  0  0  0  0  0  0  0
   26.5250   37.4360    5.8880 H   0  0  0  0  0  0  0  0  0  0  0  0
   25.5280   36.5720    7.9490 N   0  0  0  0  0  0  0  0  0  0  0  0
   24.6420   37.6680    7.8490 C   0  0  0  0  0  0  0  0  0  0  0  0
   25.1490   35.6100    7.9610 H   0  0  0  0  0  0  0  0  0  0  0  0
   23.1850   37.3530    7.7650 C   0  0  0  0  0  0  0  0  0  0  0  0
   25.0210   38.8570    7.8270 O   0  0  0  0  0  0  0  0  0  0  0  0
   25.6980   35.8750   10.7480 O   0  0  0  0  0  0  0  0  0  0  0  0
   24.9980   36.5490   10.9440 H   0  0  0  0  0  0  0  0  0  0  0  0
   28.0180   34.8670   11.5260 O   0  0  0  0  0  0  0  0  0  0  0  0
   28.8910   34.6880   11.9770 H   0  0  0  0  0  0  0  0  0  0  0  0
   23.2540   34.7970   13.9090 C   0  0  0  0  0  0  0  0  0  0  0  0
   23.4060   33.3340   13.7480 C   0  0  0  0  0  0  0  0  0  0  0  0
   24.1830   32.5340   14.5900 C   0  0  0  0  0  0  0  0  0  0  0  0
   22.8910   32.4710   12.8620 N   0  0  0  0  0  0  0  0  0  0  0  0
   24.1190   31.2520   14.2050 N   0  0  0  0  0  0  0  0  0  0  0  0
   23.3070   31.2450   13.1240 N   0  0  0  0  0  0  0  0  0  0  0  0
   24.7390   30.0760   14.7890 C   0  0  0  0  0  0  0  0  0  0  0  0
   24.9120   30.2940   16.2980 C   0  0  1  0  0  0  0  0  0  0  0  0
   23.6450   30.0880   17.0380 C   0  0  0  0  0  0  0  0  0  0  0  0
   26.1530   29.6820   16.8000 C   0  0  0  0  0  0  0  0  0  0  0  0
   27.2920   30.5420   16.7250 N   0  0  0  0  0  0  0  0  0  0  0  0
   27.9570   30.6130   18.0540 C   0  0  0  0  0  0  0  0  0  0  0  0
   28.3110   29.9380   15.8720 C   0  0  0  0  0  0  0  0  0  0  0  0
   29.2380   31.3660   17.9840 C   0  0  0  0  0  0  0  0  0  0  0  0
   29.2150   31.1150   15.4740 C   0  0  0  0  0  0  0  0  0  0  0  0
   29.6890   31.7340   16.6780 N   0  0  0  0  0  0  0  0  0  0  0  0
   30.6630   32.7630   16.5490 C   0  0  0  0  0  0  0  0  0  0  0  0
   30.9270   33.5830   17.6230 C   0  0  0  0  0  0  0  0  0  0  0  0
   31.3420   32.9570   15.3540 C   0  0  0  0  0  0  0  0  0  0  0  0
   31.8640   34.5810   17.4890 C   0  0  0  0  0  0  0  0  0  0  0  0
   32.2720   33.9550   15.2320 C   0  0  0  0  0  0  0  0  0  0  0  0
   32.5330   34.7750   16.3190 C   0  0  0  0  0  0  0  0  0  0  0  0
   33.7140   36.0460   16.1440 Cl  0  0  0  0  0  0  0  0  0  0  0  0
   29.8670   25.5550   16.9770 C   0  0  0  0  0  0  0  0  0  0  0  0
   28.3450   25.7220   17.0260 C   0  0  0  0  0  0  0  0  0  0  0  0
   27.6020   24.3990   16.9220 C   0  0  0  0  0  0  0  0  0  0  0  0
   26.5690   24.2430   18.0040 C   0  0  0  0  0  0  0  0  0  0  0  0
   26.4710   25.5370   18.8040 C   0  0  0  0  0  0  0  0  0  0  0  0
   25.4260   25.4230   19.8490 N   0  0  0  0  0  0  0  0  0  0  0  0
  2  1  1  0  0  0  0
  3  4  1  0  0  0  0
  3  2  1  0  0  0  0
  5  2  2  0  0  0  0
  6  3  1  0  0  0  0
  7  6  1  1  0  0  0
  8 28  1  1  0  0  0
  8  7  1  0  0  0  0
  9 12  1  0  0  0  0
  9  8  1  1  0  0  0
 10 15  1  1  0  0  0
 10 17  1  0  0  0  0
 10 12  1  0  0  0  0
 11 10  1  0  0  0  0
 13 21  1  6  0  0  0
 13 11  1  0  0  0  0
 13 14  1  0  0  0  0
 14 23  1  6  0  0  0
 14  9  1  0  0  0  0
 16 15  1  0  0  0  0
 17 18  2  0  0  0  0
 19 17  1  0  0  0  0
 20 19  1  0  0  0  0
 21 22  1  0  0  0  0
 23 25  1  0  0  0  0
 24 23  1  0  0  0  0
 26 24  1  0  0  0  0
 27 24  2  0  0  0  0
 28 29  1  0  0  0  0
 30  7  1  0  0  0  0
 30 31  1  0  0  0  0
 32  1  1  0  0  0  0
 33 32  1  0  0  0  0
 33 34  2  0  0  0  0
 35 37  2  0  0  0  0
 35 33  1  0  0  0  0
 36 34  1  0  0  0  0
 36 38  1  0  0  0  0
 37 36  1  0  0  0  0
 38 39  1  0  0  0  0
 39 41  1  0  0  0  0
 39 40  1  1  0  0  0
 42 41  1  0  0  0  0
 42 43  1  0  0  0  0
 44 42  1  0  0  0  0
 45 43  1  0  0  0  0
 46 44  1  0  0  0  0
 46 47  1  0  0  0  0
 47 45  1  0  0  0  0
 48 47  1  0  0  0  0
 48 49  2  0  0  0  0
 50 48  1  0  0  0  0
 51 49  1  0  0  0  0
 52 50  2  0  0  0  0
 52 53  1  0  0  0  0
 53 51  2  0  0  0  0
 54 53  1  0  0  0  0
 55 56  1  0  0  0  0
 57 56  1  0  0  0  0
 57 58  1  0  0  0  0
 58 59  1  0  0  0  0
 59 60  1  0  0  0  0
M  END
>  <REMARK>
 VINA RESULT:    -5.371      2.295      2.879
 INTER + INTRA:         -16.672
 INTER:                 -12.381
 INTRA:                  -4.292
 UNBOUND:                -6.121
 SMILES CC(=O)N[C@@H]1[C@@H](O)C[C@](O)(C(=O)O)O[C@H]1C(O)[C@H](O)CNC(=O)OCc1cn(C[C@@H](C)CN2CCN(c3ccc(Cl)cc3)CC2)nn1
 SMILES IDX 24 1 22 2 21 3 23 5 20 6 18 7 16 8 15 9 9 10 8 11 14 12 6 13
 SMILES IDX 5 14 10 15 11 17 12 18 13 19 7 21 4 23 2 24 1 26 3 27 17 28
 SMILES IDX 19 30 25 32 26 33 27 34 47 35 28 36 46 37 29 38 30 39 31 40
 SMILES IDX 32 41 33 42 34 43 45 44 35 45 44 46 36 47 37 48 38 49 43 50
 SMILES IDX 39 51 42 52 40 53 41 54
 H PARENT 21 4 10 16 13 20 7 22 4 25 17 29 19 31
 Flexibility Score: inf
  4 active torsions:
  status: ('A' for Active; 'I' for Inactive)
    1  A    between atoms: CA   and  CB  
    2  A    between atoms: CB   and  CG  
    3  A    between atoms: CG   and  CD  
    4  A    between atoms: CD   and  CE  

>  <TORSDO>
F 19

>  <BEGIN_>
RES LYS A 131

$$$$
ligand_84_pose_1_2HRL.pdbqt
 OpenBabel07062320523D

  6  5  0  0  0  0  0  0  0  0999 V2000
   33.1930   34.6630    9.2900 C   0  0  0  0  0  0  0  0  0  0  0  0
   32.0600   35.3600   10.0340 C   0  0  0  0  0  0  0  0  0  0  0  0
   32.4960   36.0140   11.3200 C   0  0  0  0  0  0  0  0  0  0  0  0
   31.3400   36.0810   12.3060 C   0  0  0  0  0  0  0  0  0  0  0  0
   31.5570   37.2010   13.3050 C   0  0  0  0  0  0  0  0  0  0  0  0
   30.6590   38.3550   13.0210 N   0  0  0  0  0  0  0  0  0  0  0  0
  1  2  1  0  0  0  0
  2  3  1  0  0  0  0
  3  4  1  0  0  0  0
  4  5  1  0  0  0  0
  6  5  1  0  0  0  0
M  END
>  <EGIN_R>
ES LYS A 135

>  <REMARK>
  4 active torsions:
  status: ('A' for Active; 'I' for Inactive)
    5  A    between atoms: CA   and  CB  
    6  A    between atoms: CB   and  CG  
    7  A    between atoms: CG   and  CD  
    8  A    between atoms: CD   and  CE  

$$$$
