ligand_31_pose_8_2HRL.pdbqt
 OpenBabel07062320523D

 57 58  0  0  1  0  0  0  0  0999 V2000
   26.8730   37.5310   11.0300 O   0  0  0  0  0  0  0  0  0  0  0  0
   27.2470   36.4350   11.8000 C   0  0  0  0  0  0  0  0  0  0  0  0
   26.3540   35.6280   12.5190 N   0  0  0  0  0  0  0  0  0  0  0  0
   25.3450   35.8320   12.4970 H   0  0  0  0  0  0  0  0  0  0  0  0
   28.4740   36.1570   11.8490 O   0  0  0  0  0  0  0  0  0  0  0  0
   26.8580   34.4940   13.3000 C   0  0  0  0  0  0  0  0  0  0  0  0
   26.7660   34.8340   14.7640 C   0  0  2  0  0  0  0  0  0  0  0  0
   28.0990   35.2000   15.3550 C   0  0  1  0  0  0  0  0  0  0  0  0
   29.0730   34.0580   15.3450 C   0  0  2  0  0  0  0  0  0  0  0  0
   29.8400   32.3950   16.7960 C   0  0  2  0  0  0  0  0  0  0  0  0
   31.1260   32.2780   16.0460 C   0  0  0  0  0  0  0  0  0  0  0  0
   29.1860   33.5770   16.6620 O   0  0  0  0  0  0  0  0  0  0  0  0
   31.2570   33.1420   14.8570 C   0  0  1  0  0  0  0  0  0  0  0  0
   30.4830   34.4420   14.9700 C   0  0  1  0  0  0  0  0  0  0  0  0
   30.1960   32.2950   18.1670 O   0  0  0  0  0  0  0  0  0  0  0  0
   31.1740   32.3870   18.2820 H   0  0  0  0  0  0  0  0  0  0  0  0
   28.9080   31.2740   16.5250 C   0  0  0  0  0  0  0  0  0  0  0  0
   27.7070   31.3030   16.9160 O   0  0  0  0  0  0  0  0  0  0  0  0
   29.2900   30.1310   15.8320 O   0  0  0  0  0  0  0  0  0  0  0  0
   28.6240   29.6570   15.2300 H   0  0  0  0  0  0  0  0  0  0  0  0
   32.6190   33.4220   14.6180 O   0  0  0  0  0  0  0  0  0  0  0  0
   33.0780   32.6660   14.2010 H   0  0  0  0  0  0  0  0  0  0  0  0
   30.6210   35.2160   13.7840 N   0  0  0  0  0  0  0  0  0  0  0  0
   31.6190   36.2380   13.7410 C   0  0  0  0  0  0  0  0  0  0  0  0
   30.0470   35.0890   12.9240 H   0  0  0  0  0  0  0  0  0  0  0  0
   31.8420   37.0950   12.5570 C   0  0  0  0  0  0  0  0  0  0  0  0
   32.3580   36.4350   14.7500 O   0  0  0  0  0  0  0  0  0  0  0  0
   28.6150   36.3880   14.8690 O   0  0  0  0  0  0  0  0  0  0  0  0
   28.1480   37.1950   15.2030 H   0  0  0  0  0  0  0  0  0  0  0  0
   26.3930   33.6240   15.4100 O   0  0  0  0  0  0  0  0  0  0  0  0
   25.4840   33.8290   15.7910 H   0  0  0  0  0  0  0  0  0  0  0  0
   26.8190   37.4580    9.6210 C   0  0  0  0  0  0  0  0  0  0  0  0
   25.4790   36.9630    9.2340 C   0  0  0  0  0  0  0  0  0  0  0  0
   24.5850   37.5700    8.3960 C   0  0  0  0  0  0  0  0  0  0  0  0
   24.9090   35.8190    9.6450 N   0  0  0  0  0  0  0  0  0  0  0  0
   23.4980   36.7820    8.3200 N   0  0  0  0  0  0  0  0  0  0  0  0
   23.6990   35.7170    9.0800 N   0  0  0  0  0  0  0  0  0  0  0  0
   22.2820   37.0270    7.5390 C   0  0  0  0  0  0  0  0  0  0  0  0
   21.1180   36.5020    8.3380 C   0  0  0  0  0  0  0  0  0  0  0  0
   20.4620   35.4560    7.5960 N   0  0  0  0  0  0  0  0  0  0  0  0
   19.1260   35.0430    7.8120 C   0  0  0  0  0  0  0  0  0  0  0  0
   20.9900   34.9450    6.8330 H   0  0  0  0  0  0  0  0  0  0  0  0
   18.4560   35.6290    8.7150 O   0  0  0  0  0  0  0  0  0  0  0  0
   18.5700   33.9980    7.0290 N   0  0  0  0  0  0  0  0  0  0  0  0
   19.0950   33.5030    6.2860 H   0  0  0  0  0  0  0  0  0  0  0  0
   17.2020   33.6040    7.2790 C   0  0  0  0  0  0  0  0  0  0  0  0
   17.1950   32.1940    7.7240 C   0  0  0  0  0  0  0  0  0  0  0  0
   17.1190   31.8020    9.0570 C   0  0  0  0  0  0  0  0  0  0  0  0
   17.2580   31.1340    6.9810 O   0  0  0  0  0  0  0  0  0  0  0  0
   17.1410   30.4240    9.0360 C   0  0  0  0  0  0  0  0  0  0  0  0
   17.2290   30.0590    7.7080 C   0  0  0  0  0  0  0  0  0  0  0  0
   29.8670   25.5550   16.9770 C   0  0  0  0  0  0  0  0  0  0  0  0
   28.3450   25.7220   17.0260 C   0  0  0  0  0  0  0  0  0  0  0  0
   27.5990   24.4230   16.7630 C   0  0  0  0  0  0  0  0  0  0  0  0
   26.8850   23.9220   17.9870 C   0  0  0  0  0  0  0  0  0  0  0  0
   25.9210   24.9930   18.4880 C   0  0  0  0  0  0  0  0  0  0  0  0
   24.7470   25.0950   17.5890 N   0  0  0  0  0  0  0  0  0  0  0  0
  1  2  1  0  0  0  0
  2  5  2  0  0  0  0
  2  3  1  0  0  0  0
  3  6  1  0  0  0  0
  4  3  1  0  0  0  0
  7  6  1  6  0  0  0
  7  8  1  0  0  0  0
  7 30  1  0  0  0  0
  8 28  1  6  0  0  0
  9  8  1  1  0  0  0
  9 12  1  0  0  0  0
 10 17  1  6  0  0  0
 10 15  1  0  0  0  0
 11 10  1  0  0  0  0
 12 10  1  0  0  0  0
 13 21  1  1  0  0  0
 13 14  1  0  0  0  0
 13 11  1  0  0  0  0
 14 23  1  6  0  0  0
 14  9  1  0  0  0  0
 15 16  1  0  0  0  0
 17 18  2  0  0  0  0
 19 17  1  0  0  0  0
 20 19  1  0  0  0  0
 22 21  1  0  0  0  0
 24 23  1  0  0  0  0
 24 27  2  0  0  0  0
 25 23  1  0  0  0  0
 26 24  1  0  0  0  0
 28 29  1  0  0  0  0
 30 31  1  0  0  0  0
 32  1  1  0  0  0  0
 33 32  1  0  0  0  0
 33 35  1  0  0  0  0
 34 33  2  0  0  0  0
 36 34  1  0  0  0  0
 36 37  1  0  0  0  0
 37 35  2  0  0  0  0
 38 36  1  0  0  0  0
 38 39  1  0  0  0  0
 40 41  1  0  0  0  0
 40 39  1  0  0  0  0
 41 43  2  0  0  0  0
 42 40  1  0  0  0  0
 44 46  1  0  0  0  0
 44 41  1  0  0  0  0
 45 44  1  0  0  0  0
 46 47  1  0  0  0  0
 47 48  2  0  0  0  0
 49 51  1  0  0  0  0
 49 47  1  0  0  0  0
 50 48  1  0  0  0  0
 51 50  2  0  0  0  0
 52 53  1  0  0  0  0
 54 53  1  0  0  0  0
 54 55  1  0  0  0  0
 55 56  1  0  0  0  0
 57 56  1  0  0  0  0
M  END
>  <REMARK>
 VINA RESULT:    -5.009      6.160     10.220
 INTER + INTRA:         -15.749
 INTER:                 -10.139
 INTRA:                  -5.610
 UNBOUND:                -5.909
 SMILES CC(=O)N[C@@H]1[C@@H](O)C[C@](O)(C(=O)O)O[C@H]1C(O)[C@H](O)CNC(=O)OCc1cn(CCNC(=O)NCc2ccco2)nn1
 SMILES IDX 24 1 22 2 21 3 23 5 20 6 18 7 16 8 15 9 9 10 8 11 14 12 6 13
 SMILES IDX 5 14 10 15 11 17 12 18 13 19 7 21 4 23 2 24 1 26 3 27 17 28
 SMILES IDX 19 30 25 32 26 33 27 34 42 35 28 36 41 37 29 38 30 39 31 40
 SMILES IDX 32 41 33 43 34 44 35 46 36 47 37 48 40 49 38 50 39 51
 H PARENT 21 4 10 16 13 20 7 22 4 25 17 29 19 31 31 42 34 45
 Flexibility Score: inf
  4 active torsions:
  status: ('A' for Active; 'I' for Inactive)
    1  A    between atoms: CA   and  CB  
    2  A    between atoms: CB   and  CG  
    3  A    between atoms: CG   and  CD  
    4  A    between atoms: CD   and  CE  

>  <TORSDO>
F 19

>  <BEGIN_>
RES LYS A 131

$$$$
ligand_31_pose_8_2HRL.pdbqt
 OpenBabel07062320523D

  6  5  0  0  0  0  0  0  0  0999 V2000
   33.1930   34.6630    9.2900 C   0  0  0  0  0  0  0  0  0  0  0  0
   32.0600   35.3600   10.0340 C   0  0  0  0  0  0  0  0  0  0  0  0
   30.8000   35.5000    9.2190 C   0  0  0  0  0  0  0  0  0  0  0  0
   30.0920   34.1600    9.0920 C   0  0  0  0  0  0  0  0  0  0  0  0
   28.6390   34.3600    8.7060 C   0  0  0  0  0  0  0  0  0  0  0  0
   27.7320   33.6240    9.6300 N   0  0  0  0  0  0  0  0  0  0  0  0
  1  2  1  0  0  0  0
  3  2  1  0  0  0  0
  4  3  1  0  0  0  0
  5  4  1  0  0  0  0
  5  6  1  0  0  0  0
M  END
>  <EGIN_R>
ES LYS A 135

>  <REMARK>
  4 active torsions:
  status: ('A' for Active; 'I' for Inactive)
    5  A    between atoms: CA   and  CB  
    6  A    between atoms: CB   and  CG  
    7  A    between atoms: CG   and  CD  
    8  A    between atoms: CD   and  CE  

$$$$
