ligand_18_pose_4_2HRL.pdbqt
 OpenBabel07062320523D

 54 55  0  0  1  0  0  0  0  0999 V2000
   26.7910   29.2240   19.2910 N   0  0  0  0  0  0  0  0  0  0  0  0
   25.4850   29.4080   18.7930 C   0  0  0  0  0  0  0  0  0  0  0  0
   24.5150   29.0970   19.5270 O   0  0  0  0  0  0  0  0  0  0  0  0
   27.5820   29.4880   18.6630 H   0  0  0  0  0  0  0  0  0  0  0  0
   27.1160   28.7000   20.6030 C   0  0  0  0  0  0  0  0  0  0  0  0
   28.3220   27.8040   20.5410 C   0  0  2  0  0  0  0  0  0  0  0  0
   29.6040   28.5040   20.2400 C   0  0  1  0  0  0  0  0  0  0  0  0
   29.7960   29.8720   20.7740 C   0  0  2  0  0  0  0  0  0  0  0  0
   29.8120   32.0550   19.9320 C   0  0  2  0  0  0  0  0  0  0  0  0
   29.7810   32.3560   21.4200 C   0  0  0  0  0  0  0  0  0  0  0  0
   29.6850   30.7320   19.6320 O   0  0  0  0  0  0  0  0  0  0  0  0
   30.8940   31.6060   22.0640 C   0  0  1  0  0  0  0  0  0  0  0  0
   31.0860   30.2310   21.3920 C   0  0  1  0  0  0  0  0  0  0  0  0
   31.0260   32.5980   19.4700 O   0  0  0  0  0  0  0  0  0  0  0  0
   31.0530   32.5090   18.4770 H   0  0  0  0  0  0  0  0  0  0  0  0
   28.7160   32.7760   19.2360 C   0  0  0  0  0  0  0  0  0  0  0  0
   28.9090   33.9500   18.8570 O   0  0  0  0  0  0  0  0  0  0  0  0
   27.4800   32.1840   18.9930 O   0  0  0  0  0  0  0  0  0  0  0  0
   27.4990   31.3030   18.4770 H   0  0  0  0  0  0  0  0  0  0  0  0
   32.0840   32.2980   22.1120 O   0  0  0  0  0  0  0  0  0  0  0  0
   32.0290   33.1460   21.6040 H   0  0  0  0  0  0  0  0  0  0  0  0
   31.6270   29.3920   22.3950 N   0  0  0  0  0  0  0  0  0  0  0  0
   33.0210   29.1990   22.4850 C   0  0  0  0  0  0  0  0  0  0  0  0
   31.0300   28.9070   23.0780 H   0  0  0  0  0  0  0  0  0  0  0  0
   33.6400   28.3210   23.5260 C   0  0  0  0  0  0  0  0  0  0  0  0
   33.8430   29.7600   21.6840 O   0  0  0  0  0  0  0  0  0  0  0  0
   30.7290   27.6930   20.2110 O   0  0  0  0  0  0  0  0  0  0  0  0
   31.2040   27.6910   19.3710 H   0  0  0  0  0  0  0  0  0  0  0  0
   28.1370   26.6470   19.7950 O   0  0  0  0  0  0  0  0  0  0  0  0
   27.9720   26.8220   18.8400 H   0  0  0  0  0  0  0  0  0  0  0  0
   25.2320   29.9230   17.5140 O   0  0  0  0  0  0  0  0  0  0  0  0
   25.9770   29.4750   16.3960 C   0  0  0  0  0  0  0  0  0  0  0  0
   27.1360   30.3930   16.2160 C   0  0  0  0  0  0  0  0  0  0  0  0
   28.4790   30.1070   16.3450 C   0  0  0  0  0  0  0  0  0  0  0  0
   27.0980   31.6950   15.8900 N   0  0  0  0  0  0  0  0  0  0  0  0
   29.1910   31.2170   16.1000 N   0  0  0  0  0  0  0  0  0  0  0  0
   28.3260   32.1690   15.8260 N   0  0  0  0  0  0  0  0  0  0  0  0
   30.6600   31.2950   16.1380 C   0  0  0  0  0  0  0  0  0  0  0  0
   31.0200   32.6850   15.7710 C   0  0  0  0  0  0  0  0  0  0  0  0
   31.4390   33.4640   16.6890 O   0  0  0  0  0  0  0  0  0  0  0  0
   30.9370   33.2310   14.4690 N   0  0  0  0  0  0  0  0  0  0  0  0
   30.5960   32.5980   13.7240 H   0  0  0  0  0  0  0  0  0  0  0  0
   31.3000   34.5940   14.1560 C   0  0  0  0  0  0  0  0  0  0  0  0
   30.1170   35.1960   13.4230 C   0  0  0  0  0  0  0  0  0  0  0  0
   28.9850   34.6260   13.0270 C   0  0  0  0  0  0  0  0  0  0  0  0
   29.9710   36.8450   12.9120 S   0  0  0  0  0  0  0  0  0  0  0  0
   28.0430   35.3440   12.3790 C   0  0  0  0  0  0  0  0  0  0  0  0
   28.3490   36.6960   12.1660 C   0  0  0  0  0  0  0  0  0  0  0  0
   29.8670   25.5550   16.9770 C   0  0  0  0  0  0  0  0  0  0  0  0
   28.3450   25.7220   17.0260 C   0  0  0  0  0  0  0  0  0  0  0  0
   27.6010   24.4040   16.8790 C   0  0  0  0  0  0  0  0  0  0  0  0
   26.5700   24.2120   17.9570 C   0  0  0  0  0  0  0  0  0  0  0  0
   25.5210   23.2100   17.4850 C   0  0  0  0  0  0  0  0  0  0  0  0
   24.3800   23.9130   16.8530 N   0  0  0  0  0  0  0  0  0  0  0  0
  1  5  1  0  0  0  0
  2  1  1  0  0  0  0
  2  3  2  0  0  0  0
  4  1  1  0  0  0  0
  6  5  1  6  0  0  0
  7 27  1  1  0  0  0
  7  6  1  0  0  0  0
  8  7  1  6  0  0  0
  8 13  1  0  0  0  0
  9 16  1  6  0  0  0
  9 10  1  0  0  0  0
 10 12  1  0  0  0  0
 11  9  1  0  0  0  0
 11  8  1  0  0  0  0
 12 20  1  6  0  0  0
 13 12  1  0  0  0  0
 13 22  1  1  0  0  0
 14  9  1  0  0  0  0
 15 14  1  0  0  0  0
 17 16  2  0  0  0  0
 18 16  1  0  0  0  0
 19 18  1  0  0  0  0
 21 20  1  0  0  0  0
 22 23  1  0  0  0  0
 22 24  1  0  0  0  0
 23 25  1  0  0  0  0
 26 23  2  0  0  0  0
 28 27  1  0  0  0  0
 29  6  1  0  0  0  0
 30 29  1  0  0  0  0
 31  2  1  0  0  0  0
 32 31  1  0  0  0  0
 33 34  2  0  0  0  0
 33 32  1  0  0  0  0
 35 33  1  0  0  0  0
 36 38  1  0  0  0  0
 36 34  1  0  0  0  0
 37 35  2  0  0  0  0
 37 36  1  0  0  0  0
 39 38  1  0  0  0  0
 39 40  2  0  0  0  0
 41 39  1  0  0  0  0
 42 41  1  0  0  0  0
 43 41  1  0  0  0  0
 44 43  1  0  0  0  0
 45 44  2  0  0  0  0
 46 44  1  0  0  0  0
 47 45  1  0  0  0  0
 48 47  2  0  0  0  0
 48 46  1  0  0  0  0
 49 50  1  0  0  0  0
 51 50  1  0  0  0  0
 51 52  1  0  0  0  0
 53 52  1  0  0  0  0
 54 53  1  0  0  0  0
M  END
>  <REMARK>
 VINA RESULT:    -4.488      5.272     11.022
 INTER + INTRA:         -15.342
 INTER:                  -8.128
 INTRA:                  -7.214
 UNBOUND:                -6.788
 SMILES CC(=O)N[C@@H]1[C@@H](O)C[C@](O)(C(=O)O)O[C@H]1C(O)[C@H](O)CNC(=O)OCc1cn(CC(=O)NCc2cccs2)nn1
 SMILES IDX 21 1 22 2 23 3 20 5 18 6 16 7 15 8 9 9 8 10 14 11 6 12 5 13
 SMILES IDX 10 14 11 16 12 17 13 18 7 20 4 22 2 23 1 25 3 26 17 27 19 29
 SMILES IDX 24 31 25 32 26 33 27 34 40 35 28 36 39 37 29 38 30 39 31 40
 SMILES IDX 32 41 33 43 34 44 35 45 38 46 36 47 37 48
 H PARENT 21 4 10 15 13 19 7 21 4 24 17 28 19 30 32 42
 Flexibility Score: inf
  4 active torsions:
  status: ('A' for Active; 'I' for Inactive)
    1  A    between atoms: CA   and  CB  
    2  A    between atoms: CB   and  CG  
    3  A    between atoms: CG   and  CD  
    4  A    between atoms: CD   and  CE  

>  <TORSDO>
F 18

>  <BEGIN_>
RES LYS A 131

$$$$
ligand_18_pose_4_2HRL.pdbqt
 OpenBabel07062320523D

  6  5  0  0  0  0  0  0  0  0999 V2000
   33.1930   34.6630    9.2900 C   0  0  0  0  0  0  0  0  0  0  0  0
   32.0600   35.3600   10.0340 C   0  0  0  0  0  0  0  0  0  0  0  0
   30.6980   34.7930    9.7260 C   0  0  0  0  0  0  0  0  0  0  0  0
   30.5620   34.5010    8.2390 C   0  0  0  0  0  0  0  0  0  0  0  0
   29.1790   34.8810    7.7470 C   0  0  0  0  0  0  0  0  0  0  0  0
   28.1310   34.4780    8.7250 N   0  0  0  0  0  0  0  0  0  0  0  0
  1  2  1  0  0  0  0
  3  2  1  0  0  0  0
  4  3  1  0  0  0  0
  5  4  1  0  0  0  0
  5  6  1  0  0  0  0
M  END
>  <EGIN_R>
ES LYS A 135

>  <REMARK>
  4 active torsions:
  status: ('A' for Active; 'I' for Inactive)
    5  A    between atoms: CA   and  CB  
    6  A    between atoms: CB   and  CG  
    7  A    between atoms: CG   and  CD  
    8  A    between atoms: CD   and  CE  

$$$$
