ligand_25_pose_14_2HRL.pdbqt
 OpenBabel07062320523D

 56 59  0  0  1  0  0  0  0  0999 V2000
   29.9320   33.4280   18.6730 C   0  0  0  0  0  0  0  0  0  0  0  0
   30.6800   32.1700   18.9140 C   0  0  2  0  0  0  0  0  0  0  0  0
   29.8660   30.9360   18.6850 C   0  0  1  0  0  0  0  0  0  0  0  0
   28.5900   30.8330   19.4730 C   0  0  2  0  0  0  0  0  0  0  0  0
   28.1700   28.6270   20.1390 C   0  0  2  0  0  0  0  0  0  0  0  0
   26.6760   28.8150   20.3020 C   0  0  0  0  0  0  0  0  0  0  0  0
   28.7980   29.8050   20.3940 O   0  0  0  0  0  0  0  0  0  0  0  0
   26.2470   30.0020   19.5190 C   0  0  1  0  0  0  0  0  0  0  0  0
   27.3630   30.5880   18.6380 C   0  0  1  0  0  0  0  0  0  0  0  0
   28.3780   28.0550   18.9120 O   0  0  0  0  0  0  0  0  0  0  0  0
   27.7430   27.3280   18.7270 H   0  0  0  0  0  0  0  0  0  0  0  0
   28.5810   27.6610   21.2040 C   0  0  0  0  0  0  0  0  0  0  0  0
   28.1350   27.8030   22.3660 O   0  0  0  0  0  0  0  0  0  0  0  0
   29.4450   26.6030   20.9610 O   0  0  0  0  0  0  0  0  0  0  0  0
   29.1160   25.6320   21.0440 H   0  0  0  0  0  0  0  0  0  0  0  0
   25.1590   29.7700   18.6940 O   0  0  0  0  0  0  0  0  0  0  0  0
   25.3700   29.8350   17.7350 H   0  0  0  0  0  0  0  0  0  0  0  0
   26.8200   31.8490   18.1850 N   0  0  0  0  0  0  0  0  0  0  0  0
   26.7930   32.2810   16.8330 C   0  0  0  0  0  0  0  0  0  0  0  0
   26.4160   32.4870   18.9010 H   0  0  0  0  0  0  0  0  0  0  0  0
   26.2120   33.6060   16.4420 C   0  0  0  0  0  0  0  0  0  0  0  0
   27.2780   31.5090   15.9660 O   0  0  0  0  0  0  0  0  0  0  0  0
   29.6450   30.6280   17.3480 O   0  0  0  0  0  0  0  0  0  0  0  0
   30.4380   30.3870   16.8430 H   0  0  0  0  0  0  0  0  0  0  0  0
   31.1100   32.1300   20.2380 O   0  0  0  0  0  0  0  0  0  0  0  0
   31.3410   33.0090   20.5950 H   0  0  0  0  0  0  0  0  0  0  0  0
   30.3760   34.2200   17.5880 N   0  0  0  0  0  0  0  0  0  0  0  0
   29.7330   35.3900   17.1460 C   0  0  0  0  0  0  0  0  0  0  0  0
   31.2590   33.9280   17.0540 H   0  0  0  0  0  0  0  0  0  0  0  0
   28.7210   35.8280   17.6840 O   0  0  0  0  0  0  0  0  0  0  0  0
   30.2260   36.1210   16.0500 O   0  0  0  0  0  0  0  0  0  0  0  0
   30.7630   35.5250   14.9080 C   0  0  0  0  0  0  0  0  0  0  0  0
   29.8430   35.5270   13.7440 C   0  0  0  0  0  0  0  0  0  0  0  0
   29.4690   34.4900   12.9260 C   0  0  0  0  0  0  0  0  0  0  0  0
   29.2130   36.6200   13.3090 N   0  0  0  0  0  0  0  0  0  0  0  0
   28.6280   34.9890   12.0260 N   0  0  0  0  0  0  0  0  0  0  0  0
   28.4850   36.2750   12.2720 N   0  0  0  0  0  0  0  0  0  0  0  0
   27.9630   34.2740   10.9470 C   0  0  0  0  0  0  0  0  0  0  0  0
   28.6150   34.5160    9.6470 C   0  0  0  0  0  0  0  0  0  0  0  0
   26.5750   34.6710   10.7790 C   0  0  0  0  0  0  0  0  0  0  0  0
   29.9470   34.3090    9.2490 C   0  0  0  0  0  0  0  0  0  0  0  0
   27.6710   35.0160    8.7960 C   0  0  0  0  0  0  0  0  0  0  0  0
   26.3930   35.1160    9.4970 C   0  0  0  0  0  0  0  0  0  0  0  0
   25.4640   34.6770   11.6470 C   0  0  0  0  0  0  0  0  0  0  0  0
   30.2940   34.6250    7.9590 C   0  0  0  0  0  0  0  0  0  0  0  0
   28.0630   35.3260    7.4930 C   0  0  0  0  0  0  0  0  0  0  0  0
   25.1630   35.5720    9.0120 C   0  0  0  0  0  0  0  0  0  0  0  0
   24.2490   35.1200   11.1940 C   0  0  0  0  0  0  0  0  0  0  0  0
   29.3610   35.1320    7.0760 C   0  0  0  0  0  0  0  0  0  0  0  0
   24.1030   35.5630    9.8900 C   0  0  0  0  0  0  0  0  0  0  0  0
   29.8670   25.5550   16.9770 C   0  0  0  0  0  0  0  0  0  0  0  0
   28.3450   25.7220   17.0260 C   0  0  0  0  0  0  0  0  0  0  0  0
   27.6010   24.4040   16.8770 C   0  0  0  0  0  0  0  0  0  0  0  0
   26.4970   24.2590   17.8870 C   0  0  0  0  0  0  0  0  0  0  0  0
   25.1500   24.4660   17.2010 C   0  0  0  0  0  0  0  0  0  0  0  0
   24.3990   23.1900   17.1380 N   0  0  0  0  0  0  0  0  0  0  0  0
  2  1  1  1  0  0  0
  2 25  1  0  0  0  0
  3 23  1  6  0  0  0
  3  2  1  0  0  0  0
  4  3  1  6  0  0  0
  4  7  1  0  0  0  0
  5 10  1  6  0  0  0
  5  6  1  0  0  0  0
  5  7  1  0  0  0  0
  5 12  1  0  0  0  0
  8 16  1  6  0  0  0
  8  6  1  0  0  0  0
  9 18  1  1  0  0  0
  9  4  1  0  0  0  0
  9  8  1  0  0  0  0
 11 10  1  0  0  0  0
 12 13  2  0  0  0  0
 14 15  1  0  0  0  0
 14 12  1  0  0  0  0
 17 16  1  0  0  0  0
 18 20  1  0  0  0  0
 19 18  1  0  0  0  0
 21 19  1  0  0  0  0
 22 19  2  0  0  0  0
 24 23  1  0  0  0  0
 25 26  1  0  0  0  0
 27  1  1  0  0  0  0
 28 27  1  0  0  0  0
 28 30  2  0  0  0  0
 29 27  1  0  0  0  0
 31 28  1  0  0  0  0
 32 31  1  0  0  0  0
 33 32  1  0  0  0  0
 34 33  2  0  0  0  0
 35 33  1  0  0  0  0
 36 37  1  0  0  0  0
 36 34  1  0  0  0  0
 37 35  2  0  0  0  0
 38 36  1  0  0  0  0
 39 38  1  0  0  0  0
 40 38  1  0  0  0  0
 40 44  2  0  0  0  0
 41 39  1  0  0  0  0
 42 43  1  0  0  0  0
 42 39  2  0  0  0  0
 43 40  1  0  0  0  0
 45 41  2  0  0  0  0
 46 42  1  0  0  0  0
 47 43  2  0  0  0  0
 47 50  1  0  0  0  0
 48 44  1  0  0  0  0
 49 46  2  0  0  0  0
 49 45  1  0  0  0  0
 50 48  2  0  0  0  0
 51 52  1  0  0  0  0
 53 52  1  0  0  0  0
 53 54  1  0  0  0  0
 55 54  1  0  0  0  0
 56 55  1  0  0  0  0
M  END
>  <REMARK>
 VINA RESULT:    -6.358      2.681      3.869
 INTER + INTRA:         -15.582
 INTER:                 -11.451
 INTRA:                  -4.131
 UNBOUND:                -4.578
 SMILES CC(=O)N[C@@H]1[C@@H](O)C[C@](O)(C(=O)O)O[C@H]1C(O)[C@H](O)CNC(=O)OCc1cn(C2c3ccccc3-c3ccccc32)nn1
 SMILES IDX 20 1 18 2 16 3 15 4 9 5 8 6 14 7 6 8 5 9 10 10 11 12 12 13
 SMILES IDX 13 14 7 16 4 18 2 19 1 21 3 22 17 23 19 25 21 27 22 28 23 30
 SMILES IDX 24 31 25 32 26 33 27 34 43 35 28 36 42 37 29 38 30 39 41 40
 SMILES IDX 31 41 35 42 36 43 40 44 32 45 34 46 37 47 39 48 33 49 38 50
 H PARENT 10 11 13 15 7 17 4 20 17 24 19 26 21 29
 Flexibility Score: inf
  4 active torsions:
  status: ('A' for Active; 'I' for Inactive)
    1  A    between atoms: CA   and  CB  
    2  A    between atoms: CB   and  CG  
    3  A    between atoms: CG   and  CD  
    4  A    between atoms: CD   and  CE  

>  <TORSDO>
F 15

>  <BEGIN_>
RES LYS A 131

$$$$
ligand_25_pose_14_2HRL.pdbqt
 OpenBabel07062320523D

  6  5  0  0  0  0  0  0  0  0999 V2000
   33.1930   34.6630    9.2900 C   0  0  0  0  0  0  0  0  0  0  0  0
   32.0600   35.3600   10.0340 C   0  0  0  0  0  0  0  0  0  0  0  0
   32.5050   36.0540   11.2950 C   0  0  0  0  0  0  0  0  0  0  0  0
   31.9650   37.4750   11.3450 C   0  0  0  0  0  0  0  0  0  0  0  0
   31.0440   37.7360   10.1690 C   0  0  0  0  0  0  0  0  0  0  0  0
   30.1480   38.8960   10.4360 N   0  0  0  0  0  0  0  0  0  0  0  0
  1  2  1  0  0  0  0
  2  3  1  0  0  0  0
  3  4  1  0  0  0  0
  5  6  1  0  0  0  0
  5  4  1  0  0  0  0
M  END
>  <EGIN_R>
ES LYS A 135

>  <REMARK>
  4 active torsions:
  status: ('A' for Active; 'I' for Inactive)
    5  A    between atoms: CA   and  CB  
    6  A    between atoms: CB   and  CG  
    7  A    between atoms: CG   and  CD  
    8  A    between atoms: CD   and  CE  

$$$$
