ligand_4_pose_14_2HRL.pdbqt
 OpenBabel07062320523D

 52 53  0  0  1  0  0  0  0  0999 V2000
   27.6200   28.7700   18.3900 N   0  0  0  0  0  0  0  0  0  0  0  0
   26.4500   29.3510   17.8650 C   0  0  0  0  0  0  0  0  0  0  0  0
   25.3500   28.7630   17.9260 O   0  0  0  0  0  0  0  0  0  0  0  0
   28.5190   29.3200   18.3200 H   0  0  0  0  0  0  0  0  0  0  0  0
   27.6260   27.4880   19.0050 C   0  0  0  0  0  0  0  0  0  0  0  0
   27.3120   27.5010   20.5000 C   0  0  2  0  0  0  0  0  0  0  0  0
   28.6530   27.8810   21.1340 C   0  0  2  0  0  0  0  0  0  0  0  0
   28.6800   29.2850   21.6480 C   0  0  2  0  0  0  0  0  0  0  0  0
   28.7540   31.2850   20.4760 C   0  0  2  0  0  0  0  0  0  0  0  0
   29.5770   31.9300   21.5350 C   0  0  0  0  0  0  0  0  0  0  0  0
   28.0840   30.1390   20.7820 O   0  0  0  0  0  0  0  0  0  0  0  0
   30.2980   30.9830   22.4700 C   0  0  1  0  0  0  0  0  0  0  0  0
   30.1470   29.6110   21.8830 C   0  0  1  0  0  0  0  0  0  0  0  0
   29.5310   31.1340   19.2980 O   0  0  0  0  0  0  0  0  0  0  0  0
   29.5200   31.9200   18.7230 H   0  0  0  0  0  0  0  0  0  0  0  0
   27.6830   32.2830   20.1110 C   0  0  0  0  0  0  0  0  0  0  0  0
   26.4930   31.9830   20.3440 O   0  0  0  0  0  0  0  0  0  0  0  0
   27.9630   33.5160   19.5380 O   0  0  0  0  0  0  0  0  0  0  0  0
   27.7480   33.7650   18.5750 H   0  0  0  0  0  0  0  0  0  0  0  0
   31.6830   31.3370   22.4680 O   0  0  0  0  0  0  0  0  0  0  0  0
   31.8020   32.2880   22.2350 H   0  0  0  0  0  0  0  0  0  0  0  0
   30.8060   28.5310   22.5050 N   0  0  0  0  0  0  0  0  0  0  0  0
   32.1580   28.1650   22.2920 C   0  0  0  0  0  0  0  0  0  0  0  0
   30.2600   27.9180   23.2010 H   0  0  0  0  0  0  0  0  0  0  0  0
   32.8250   27.0350   22.9510 C   0  0  0  0  0  0  0  0  0  0  0  0
   32.8070   28.9080   21.4390 O   0  0  0  0  0  0  0  0  0  0  0  0
   29.6010   27.6390   20.1360 O   0  0  0  0  0  0  0  0  0  0  0  0
   30.4250   27.3170   20.5890 H   0  0  0  0  0  0  0  0  0  0  0  0
   26.8860   26.3110   20.9910 O   0  0  0  0  0  0  0  0  0  0  0  0
   27.0000   25.5760   20.3930 H   0  0  0  0  0  0  0  0  0  0  0  0
   26.4860   30.6080   17.2580 O   0  0  0  0  0  0  0  0  0  0  0  0
   26.9590   30.6790   15.9210 C   0  0  0  0  0  0  0  0  0  0  0  0
   28.3700   31.1280   16.0230 C   0  0  0  0  0  0  0  0  0  0  0  0
   28.7490   32.4650   16.2050 C   0  0  0  0  0  0  0  0  0  0  0  0
   29.4900   30.3930   16.0750 N   0  0  0  0  0  0  0  0  0  0  0  0
   30.0850   32.4380   16.3640 N   0  0  0  0  0  0  0  0  0  0  0  0
   30.4710   31.2300   16.2850 N   0  0  0  0  0  0  0  0  0  0  0  0
   30.8570   33.5730   16.7070 C   0  0  0  0  0  0  0  0  0  0  0  0
   31.3970   34.3450   15.7520 C   0  0  0  0  0  0  0  0  0  0  0  0
   31.1910   33.7770   18.0540 C   0  0  0  0  0  0  0  0  0  0  0  0
   32.2930   35.3500   16.1170 C   0  0  0  0  0  0  0  0  0  0  0  0
   32.0530   34.7420   18.4250 C   0  0  0  0  0  0  0  0  0  0  0  0
   32.6300   35.5570   17.4610 C   0  0  0  0  0  0  0  0  0  0  0  0
   30.9680   34.2470   14.3710 C   0  0  0  0  0  0  0  0  0  0  0  0
   31.9360   34.9150   13.4070 C   0  0  0  0  0  0  0  0  0  0  0  0
   29.7450   35.2610   14.2500 C   0  0  0  0  0  0  0  0  0  0  0  0
   29.8670   25.5550   16.9770 C   0  0  0  0  0  0  0  0  0  0  0  0
   28.3450   25.7220   17.0260 C   0  0  0  0  0  0  0  0  0  0  0  0
   27.6020   24.3990   16.9180 C   0  0  0  0  0  0  0  0  0  0  0  0
   26.1490   24.5350   17.2790 C   0  0  0  0  0  0  0  0  0  0  0  0
   25.9270   24.0200   18.6980 C   0  0  0  0  0  0  0  0  0  0  0  0
   24.5890   23.3940   18.8190 N   0  0  0  0  0  0  0  0  0  0  0  0
  1  5  1  0  0  0  0
  2  3  2  0  0  0  0
  2  1  1  0  0  0  0
  4  1  1  0  0  0  0
  6  5  1  6  0  0  0
  6 29  1  0  0  0  0
  6  7  1  0  0  0  0
  7 27  1  6  0  0  0
  8  7  1  6  0  0  0
  8 13  1  0  0  0  0
  9 14  1  6  0  0  0
  9 11  1  0  0  0  0
  9 10  1  0  0  0  0
 10 12  1  0  0  0  0
 11  8  1  0  0  0  0
 12 20  1  6  0  0  0
 13 12  1  0  0  0  0
 13 22  1  1  0  0  0
 15 14  1  0  0  0  0
 16 17  2  0  0  0  0
 16  9  1  0  0  0  0
 18 16  1  0  0  0  0
 19 18  1  0  0  0  0
 21 20  1  0  0  0  0
 22 24  1  0  0  0  0
 23 22  1  0  0  0  0
 23 25  1  0  0  0  0
 26 23  2  0  0  0  0
 27 28  1  0  0  0  0
 30 29  1  0  0  0  0
 31  2  1  0  0  0  0
 32 33  1  0  0  0  0
 32 31  1  0  0  0  0
 33 35  1  0  0  0  0
 33 34  2  0  0  0  0
 34 36  1  0  0  0  0
 35 37  2  0  0  0  0
 36 38  1  0  0  0  0
 37 36  1  0  0  0  0
 38 40  2  0  0  0  0
 39 41  2  0  0  0  0
 39 38  1  0  0  0  0
 40 42  1  0  0  0  0
 41 43  1  0  0  0  0
 43 42  2  0  0  0  0
 44 39  1  0  0  0  0
 45 44  1  0  0  0  0
 46 44  1  0  0  0  0
 47 48  1  0  0  0  0
 49 48  1  0  0  0  0
 49 50  1  0  0  0  0
 50 51  1  0  0  0  0
 51 52  1  0  0  0  0
M  END
>  <REMARK>
 VINA RESULT:    -4.057      6.342     12.100
 INTER + INTRA:         -14.496
 INTER:                  -7.728
 INTRA:                  -6.768
 UNBOUND:                -7.237
 SMILES CC(=O)N[C@@H]1[C@@H](O)C[C@](O)(C(=O)O)O[C@H]1C(O)[C@H](O)CNC(=O)OCc1cn(-c2ccccc2C(C)C)nn1
 SMILES IDX 21 1 22 2 23 3 20 5 18 6 16 7 15 8 9 9 8 10 14 11 6 12 5 13
 SMILES IDX 10 14 11 16 12 17 13 18 7 20 4 22 2 23 1 25 3 26 17 27 19 29
 SMILES IDX 24 31 25 32 26 33 27 34 39 35 28 36 38 37 29 38 34 39 30 40
 SMILES IDX 33 41 31 42 32 43 35 44 36 45 37 46
 H PARENT 21 4 10 15 13 19 7 21 4 24 17 28 19 30
 Flexibility Score: inf
  4 active torsions:
  status: ('A' for Active; 'I' for Inactive)
    1  A    between atoms: CA   and  CB  
    2  A    between atoms: CB   and  CG  
    3  A    between atoms: CG   and  CD  
    4  A    between atoms: CD   and  CE  

>  <TORSDO>
F 16

>  <BEGIN_>
RES LYS A 131

$$$$
ligand_4_pose_14_2HRL.pdbqt
 OpenBabel07062320523D

  6  5  0  0  0  0  0  0  0  0999 V2000
   33.1930   34.6630    9.2900 C   0  0  0  0  0  0  0  0  0  0  0  0
   32.0600   35.3600   10.0340 C   0  0  0  0  0  0  0  0  0  0  0  0
   30.7080   34.7420    9.7880 C   0  0  0  0  0  0  0  0  0  0  0  0
   30.4860   34.5100    8.3010 C   0  0  0  0  0  0  0  0  0  0  0  0
   29.0700   34.8850    7.9090 C   0  0  0  0  0  0  0  0  0  0  0  0
   28.0770   34.2710    8.8330 N   0  0  0  0  0  0  0  0  0  0  0  0
  1  2  1  0  0  0  0
  3  2  1  0  0  0  0
  4  3  1  0  0  0  0
  5  4  1  0  0  0  0
  5  6  1  0  0  0  0
M  END
>  <EGIN_R>
ES LYS A 135

>  <REMARK>
  4 active torsions:
  status: ('A' for Active; 'I' for Inactive)
    5  A    between atoms: CA   and  CB  
    6  A    between atoms: CB   and  CG  
    7  A    between atoms: CG   and  CD  
    8  A    between atoms: CD   and  CE  

$$$$
