ligand_75_pose_11_2HRL.pdbqt
 OpenBabel07062320523D

 55 56  0  0  1  0  0  0  0  0999 V2000
   26.9530   28.0930   17.3530 N   0  0  0  0  0  0  0  0  0  0  0  0
   26.5400   29.3670   16.8980 C   0  0  0  0  0  0  0  0  0  0  0  0
   25.5710   29.9780   17.3930 O   0  0  0  0  0  0  0  0  0  0  0  0
   27.7980   27.6670   16.8360 H   0  0  0  0  0  0  0  0  0  0  0  0
   26.3580   27.3390   18.4180 C   0  0  0  0  0  0  0  0  0  0  0  0
   27.2010   27.3890   19.6520 C   0  0  2  0  0  0  0  0  0  0  0  0
   27.3080   28.7700   20.2690 C   0  0  2  0  0  0  0  0  0  0  0  0
   28.7090   29.2600   20.2400 C   0  0  2  0  0  0  0  0  0  0  0  0
   30.8140   29.3570   21.1860 C   0  0  2  0  0  0  0  0  0  0  0  0
   31.1190   30.1120   19.9220 C   0  0  0  0  0  0  0  0  0  0  0  0
   29.5530   28.7920   21.1970 O   0  0  0  0  0  0  0  0  0  0  0  0
   30.1020   31.1140   19.5160 C   0  0  1  0  0  0  0  0  0  0  0  0
   28.7800   30.7840   20.1670 C   0  0  1  0  0  0  0  0  0  0  0  0
   31.0500   30.1830   22.2840 O   0  0  0  0  0  0  0  0  0  0  0  0
   30.7790   29.7700   23.1320 H   0  0  0  0  0  0  0  0  0  0  0  0
   31.7910   28.2360   21.2700 C   0  0  0  0  0  0  0  0  0  0  0  0
   31.4670   27.0890   20.8100 O   0  0  0  0  0  0  0  0  0  0  0  0
   33.0500   28.3900   21.8340 O   0  0  0  0  0  0  0  0  0  0  0  0
   33.3000   28.0020   22.7210 H   0  0  0  0  0  0  0  0  0  0  0  0
   30.4850   32.4290   19.7640 O   0  0  0  0  0  0  0  0  0  0  0  0
   29.8100   33.0370   19.4220 H   0  0  0  0  0  0  0  0  0  0  0  0
   27.6640   31.3590   19.4830 N   0  0  0  0  0  0  0  0  0  0  0  0
   26.9500   32.4760   19.9880 C   0  0  0  0  0  0  0  0  0  0  0  0
   27.3210   30.9660   18.5560 H   0  0  0  0  0  0  0  0  0  0  0  0
   25.8040   33.0350   19.2460 C   0  0  0  0  0  0  0  0  0  0  0  0
   27.2800   33.0100   21.0760 O   0  0  0  0  0  0  0  0  0  0  0  0
   26.6870   28.8410   21.5110 O   0  0  0  0  0  0  0  0  0  0  0  0
   26.6730   29.7830   21.7880 H   0  0  0  0  0  0  0  0  0  0  0  0
   28.4910   26.9070   19.4200 O   0  0  0  0  0  0  0  0  0  0  0  0
   29.1340   27.4700   19.9330 H   0  0  0  0  0  0  0  0  0  0  0  0
   27.2190   30.0140   15.8450 O   0  0  0  0  0  0  0  0  0  0  0  0
   28.6110   30.0310   15.8500 C   0  0  0  0  0  0  0  0  0  0  0  0
   29.1720   31.3760   16.1210 C   0  0  0  0  0  0  0  0  0  0  0  0
   30.4210   31.8880   15.8650 C   0  0  0  0  0  0  0  0  0  0  0  0
   28.4930   32.3790   16.7040 N   0  0  0  0  0  0  0  0  0  0  0  0
   30.4810   33.1750   16.2900 N   0  0  0  0  0  0  0  0  0  0  0  0
   29.2920   33.4440   16.7960 N   0  0  0  0  0  0  0  0  0  0  0  0
   31.6250   34.0250   16.1880 C   0  0  0  0  0  0  0  0  0  0  0  0
   32.1110   34.6960   17.2780 C   0  0  0  0  0  0  0  0  0  0  0  0
   32.2610   34.1860   14.9790 C   0  0  0  0  0  0  0  0  0  0  0  0
   33.2490   35.5460   17.1850 C   0  0  0  0  0  0  0  0  0  0  0  0
   33.3550   34.9850   14.8230 C   0  0  0  0  0  0  0  0  0  0  0  0
   33.8390   35.6640   15.9540 C   0  0  0  0  0  0  0  0  0  0  0  0
   33.7310   36.1810   18.3610 C   0  0  0  0  0  0  0  0  0  0  0  0
   34.7920   36.2270   19.0680 C   0  0  0  0  0  0  0  0  0  0  0  0
   36.0710   35.6400   19.0180 C   0  0  0  0  0  0  0  0  0  0  0  0
   36.5810   35.1620   20.1520 O   0  0  0  0  0  0  0  0  0  0  0  0
   36.9580   35.4470   17.9890 O   0  0  0  0  0  0  0  0  0  0  0  0
   37.1570   36.1420   17.2860 H   0  0  0  0  0  0  0  0  0  0  0  0
   29.8670   25.5550   16.9770 C   0  0  0  0  0  0  0  0  0  0  0  0
   28.3450   25.7220   17.0260 C   0  0  0  0  0  0  0  0  0  0  0  0
   27.5990   24.4770   16.5710 C   0  0  0  0  0  0  0  0  0  0  0  0
   27.2030   23.6000   17.7260 C   0  0  0  0  0  0  0  0  0  0  0  0
   25.7170   23.2730   17.6310 C   0  0  0  0  0  0  0  0  0  0  0  0
   24.9910   24.3570   16.9270 N   0  0  0  0  0  0  0  0  0  0  0  0
  1  5  1  0  0  0  0
  2  1  1  0  0  0  0
  2  3  2  0  0  0  0
  4  1  1  0  0  0  0
  6  5  1  6  0  0  0
  6  7  1  0  0  0  0
  7 27  1  1  0  0  0
  8  7  1  1  0  0  0
  8 11  1  0  0  0  0
  9 11  1  0  0  0  0
  9 16  1  1  0  0  0
  9 14  1  0  0  0  0
 10  9  1  0  0  0  0
 12 20  1  1  0  0  0
 12 10  1  0  0  0  0
 12 13  1  0  0  0  0
 13 22  1  6  0  0  0
 13  8  1  0  0  0  0
 14 15  1  0  0  0  0
 16 18  1  0  0  0  0
 17 16  2  0  0  0  0
 18 19  1  0  0  0  0
 21 20  1  0  0  0  0
 22 23  1  0  0  0  0
 23 26  2  0  0  0  0
 24 22  1  0  0  0  0
 25 23  1  0  0  0  0
 27 28  1  0  0  0  0
 29  6  1  0  0  0  0
 29 30  1  0  0  0  0
 31 32  1  0  0  0  0
 31  2  1  0  0  0  0
 32 33  1  0  0  0  0
 33 35  1  0  0  0  0
 34 33  2  0  0  0  0
 34 36  1  0  0  0  0
 35 37  2  0  0  0  0
 36 37  1  0  0  0  0
 38 36  1  0  0  0  0
 38 39  2  0  0  0  0
 40 38  1  0  0  0  0
 41 39  1  0  0  0  0
 41 44  1  0  0  0  0
 42 40  2  0  0  0  0
 42 43  1  0  0  0  0
 43 41  2  0  0  0  0
 44 45  2  0  0  0  0
 46 45  1  0  0  0  0
 46 47  2  0  0  0  0
 48 46  1  0  0  0  0
 49 48  1  0  0  0  0
 50 51  1  0  0  0  0
 52 51  1  0  0  0  0
 52 53  1  0  0  0  0
 54 53  1  0  0  0  0
 55 54  1  0  0  0  0
M  END
>  <REMARK>
 VINA RESULT:    -4.907      8.387     13.256
 INTER + INTRA:         -15.527
 INTER:                  -9.306
 INTRA:                  -6.221
 UNBOUND:                -6.317
 SMILES CC(=O)N[C@@H]1[C@@H](O)C[C@](O)(C(=O)O)O[C@H]1C(O)[C@H](O)CNC(=O)OCc1cn(-c2cccc(C=CC(=O)O)c2)nn1
 SMILES IDX 21 1 22 2 23 3 20 5 18 6 16 7 15 8 9 9 8 10 14 11 6 12 5 13
 SMILES IDX 10 14 11 16 12 17 13 18 7 20 4 22 2 23 1 25 3 26 17 27 19 29
 SMILES IDX 24 31 25 32 26 33 27 34 41 35 28 36 40 37 29 38 39 39 30 40
 SMILES IDX 33 41 31 42 32 43 34 44 35 45 36 46 37 47 38 48
 H PARENT 21 4 10 15 13 19 7 21 4 24 17 28 19 30 38 49
 Flexibility Score: inf
  4 active torsions:
  status: ('A' for Active; 'I' for Inactive)
    1  A    between atoms: CA   and  CB  
    2  A    between atoms: CB   and  CG  
    3  A    between atoms: CG   and  CD  
    4  A    between atoms: CD   and  CE  

>  <TORSDO>
F 18

>  <BEGIN_>
RES LYS A 131

$$$$
ligand_75_pose_11_2HRL.pdbqt
 OpenBabel07062320523D

  6  5  0  0  0  0  0  0  0  0999 V2000
   33.1930   34.6630    9.2900 C   0  0  0  0  0  0  0  0  0  0  0  0
   32.0600   35.3600   10.0340 C   0  0  0  0  0  0  0  0  0  0  0  0
   30.7040   35.1290    9.4190 C   0  0  0  0  0  0  0  0  0  0  0  0
   29.6580   34.8960   10.4980 C   0  0  0  0  0  0  0  0  0  0  0  0
   30.3020   34.8880   11.8710 C   0  0  0  0  0  0  0  0  0  0  0  0
   29.3170   34.5110   12.9230 N   0  0  0  0  0  0  0  0  0  0  0  0
  1  2  1  0  0  0  0
  3  2  1  0  0  0  0
  3  4  1  0  0  0  0
  4  5  1  0  0  0  0
  5  6  1  0  0  0  0
M  END
>  <EGIN_R>
ES LYS A 135

>  <REMARK>
  4 active torsions:
  status: ('A' for Active; 'I' for Inactive)
    5  A    between atoms: CA   and  CB  
    6  A    between atoms: CB   and  CG  
    7  A    between atoms: CG   and  CD  
    8  A    between atoms: CD   and  CE  

$$$$
