ligand_5_pose_12_2HRL.pdbqt
 OpenBabel07062320523D

 51 52  0  0  1  0  0  0  0  0999 V2000
   29.2670   28.8680   19.7660 N   0  0  0  0  0  0  0  0  0  0  0  0
   27.9160   28.4630   19.8300 C   0  0  0  0  0  0  0  0  0  0  0  0
   27.4770   27.7590   20.7510 O   0  0  0  0  0  0  0  0  0  0  0  0
   29.5130   29.4490   18.9010 H   0  0  0  0  0  0  0  0  0  0  0  0
   30.3110   28.6130   20.6730 C   0  0  0  0  0  0  0  0  0  0  0  0
   30.8390   27.2590   20.8240 C   0  0  2  0  0  0  0  0  0  0  0  0
   30.8970   26.6410   22.1300 C   0  0  1  0  0  0  0  0  0  0  0  0
   31.7330   27.3780   23.1980 C   0  0  2  0  0  0  0  0  0  0  0  0
   34.0330   27.1870   23.6860 C   0  0  2  0  0  0  0  0  0  0  0  0
   33.7300   26.2720   24.8820 C   0  0  0  0  0  0  0  0  0  0  0  0
   33.0230   27.0490   22.8220 O   0  0  0  0  0  0  0  0  0  0  0  0
   32.5320   26.8420   25.5390 C   0  0  1  0  0  0  0  0  0  0  0  0
   31.3560   27.0900   24.5770 C   0  0  1  0  0  0  0  0  0  0  0  0
   35.1460   26.5490   23.0740 O   0  0  0  0  0  0  0  0  0  0  0  0
   34.9040   25.6480   22.7510 H   0  0  0  0  0  0  0  0  0  0  0  0
   34.4420   28.5260   24.0620 C   0  0  0  0  0  0  0  0  0  0  0  0
   35.3600   28.6960   24.9030 O   0  0  0  0  0  0  0  0  0  0  0  0
   33.8990   29.7110   23.5650 O   0  0  0  0  0  0  0  0  0  0  0  0
   34.3660   30.2690   22.8460 H   0  0  0  0  0  0  0  0  0  0  0  0
   32.0260   26.0470   26.5790 O   0  0  0  0  0  0  0  0  0  0  0  0
   31.4100   25.3920   26.1210 H   0  0  0  0  0  0  0  0  0  0  0  0
   30.6000   28.0780   25.2820 N   0  0  0  0  0  0  0  0  0  0  0  0
   29.2490   28.0350   25.6260 C   0  0  0  0  0  0  0  0  0  0  0  0
   31.1500   28.9410   25.5700 H   0  0  0  0  0  0  0  0  0  0  0  0
   28.5910   29.1560   26.3660 C   0  0  0  0  0  0  0  0  0  0  0  0
   28.6120   27.0290   25.2920 O   0  0  0  0  0  0  0  0  0  0  0  0
   29.6120   26.3930   22.6040 O   0  0  0  0  0  0  0  0  0  0  0  0
   29.0210   26.0100   21.9070 H   0  0  0  0  0  0  0  0  0  0  0  0
   32.0550   27.1370   20.0920 O   0  0  0  0  0  0  0  0  0  0  0  0
   32.6800   26.5370   20.5760 H   0  0  0  0  0  0  0  0  0  0  0  0
   26.9930   28.8470   18.8350 O   0  0  0  0  0  0  0  0  0  0  0  0
   26.8810   30.2020   18.4770 C   0  0  0  0  0  0  0  0  0  0  0  0
   27.7460   30.4840   17.3200 C   0  0  0  0  0  0  0  0  0  0  0  0
   28.4720   31.6710   17.1680 C   0  0  0  0  0  0  0  0  0  0  0  0
   28.0330   29.7650   16.2380 N   0  0  0  0  0  0  0  0  0  0  0  0
   29.1540   31.6050   16.0100 N   0  0  0  0  0  0  0  0  0  0  0  0
   28.8590   30.4250   15.4720 N   0  0  0  0  0  0  0  0  0  0  0  0
   30.0190   32.5910   15.4630 C   0  0  0  0  0  0  0  0  0  0  0  0
   31.3400   32.7140   15.8260 C   0  0  0  0  0  0  0  0  0  0  0  0
   29.5460   33.4940   14.5080 C   0  0  0  0  0  0  0  0  0  0  0  0
   32.1710   33.6840   15.2770 C   0  0  0  0  0  0  0  0  0  0  0  0
   30.3740   34.4570   13.9650 C   0  0  0  0  0  0  0  0  0  0  0  0
   31.6920   34.5660   14.3380 C   0  0  0  0  0  0  0  0  0  0  0  0
   32.5110   35.5150   13.8030 O   0  0  0  0  0  0  0  0  0  0  0  0
   32.3820   35.8710   12.4440 C   0  0  0  0  0  0  0  0  0  0  0  0
   29.8670   25.5550   16.9770 C   0  0  0  0  0  0  0  0  0  0  0  0
   28.3450   25.7220   17.0260 C   0  0  0  0  0  0  0  0  0  0  0  0
   27.6000   24.4180   16.7870 C   0  0  0  0  0  0  0  0  0  0  0  0
   26.7200   24.0470   17.9490 C   0  0  0  0  0  0  0  0  0  0  0  0
   26.1770   25.3150   18.6010 C   0  0  0  0  0  0  0  0  0  0  0  0
   25.5160   24.9940   19.8880 N   0  0  0  0  0  0  0  0  0  0  0  0
  1  2  1  0  0  0  0
  1  5  1  0  0  0  0
  2  3  2  0  0  0  0
  4  1  1  0  0  0  0
  6  5  1  1  0  0  0
  6  7  1  0  0  0  0
  7 27  1  1  0  0  0
  8  7  1  6  0  0  0
  8 13  1  0  0  0  0
  9 14  1  6  0  0  0
  9 16  1  0  0  0  0
  9 10  1  0  0  0  0
 10 12  1  0  0  0  0
 11  8  1  0  0  0  0
 11  9  1  0  0  0  0
 12 20  1  1  0  0  0
 13 22  1  1  0  0  0
 13 12  1  0  0  0  0
 15 14  1  0  0  0  0
 16 17  2  0  0  0  0
 18 16  1  0  0  0  0
 19 18  1  0  0  0  0
 21 20  1  0  0  0  0
 22 24  1  0  0  0  0
 22 23  1  0  0  0  0
 23 25  1  0  0  0  0
 26 23  2  0  0  0  0
 28 27  1  0  0  0  0
 29 30  1  0  0  0  0
 29  6  1  0  0  0  0
 31  2  1  0  0  0  0
 32 31  1  0  0  0  0
 33 32  1  0  0  0  0
 34 33  2  0  0  0  0
 35 33  1  0  0  0  0
 36 34  1  0  0  0  0
 37 36  1  0  0  0  0
 37 35  2  0  0  0  0
 38 39  1  0  0  0  0
 38 36  1  0  0  0  0
 40 38  2  0  0  0  0
 41 39  2  0  0  0  0
 42 43  2  0  0  0  0
 42 40  1  0  0  0  0
 43 41  1  0  0  0  0
 44 43  1  0  0  0  0
 45 44  1  0  0  0  0
 46 47  1  0  0  0  0
 48 47  1  0  0  0  0
 48 49  1  0  0  0  0
 49 50  1  0  0  0  0
 50 51  1  0  0  0  0
M  END
>  <REMARK>
 VINA RESULT:    -4.935      2.032      3.028
 INTER + INTRA:         -14.056
 INTER:                  -9.112
 INTRA:                  -4.944
 UNBOUND:                -5.226
 SMILES COc1ccc(-n2cc(COC(=O)NC[C@@H](O)C(O)[C@@H]3O[C@@](O)(C(=O)O)C[C@H](O)[C@H]3NC(C)=O)nn2)cc1
 SMILES IDX 14 1 12 2 13 3 15 5 16 6 18 7 20 8 22 9 27 10 21 11 28 12
 SMILES IDX 30 13 23 14 24 16 25 17 26 18 29 20 31 22 32 23 33 25 34 26
 SMILES IDX 19 27 17 29 11 31 10 32 9 33 8 34 35 35 7 36 36 37 6 38 5 39
 SMILES IDX 37 40 4 41 38 42 3 43 2 44 1 45
 H PARENT 14 4 23 15 26 19 29 21 31 24 19 28 17 30
 Flexibility Score: inf
  4 active torsions:
  status: ('A' for Active; 'I' for Inactive)
    1  A    between atoms: CA   and  CB  
    2  A    between atoms: CB   and  CG  
    3  A    between atoms: CG   and  CD  
    4  A    between atoms: CD   and  CE  

>  <TORSDO>
F 16

>  <BEGIN_>
RES LYS A 131

$$$$
ligand_5_pose_12_2HRL.pdbqt
 OpenBabel07062320523D

  6  5  0  0  0  0  0  0  0  0999 V2000
   33.1930   34.6630    9.2900 C   0  0  0  0  0  0  0  0  0  0  0  0
   32.0600   35.3600   10.0340 C   0  0  0  0  0  0  0  0  0  0  0  0
   30.8260   35.5670    9.1950 C   0  0  0  0  0  0  0  0  0  0  0  0
   30.1200   34.2430    8.9440 C   0  0  0  0  0  0  0  0  0  0  0  0
   28.7360   34.4780    8.3680 C   0  0  0  0  0  0  0  0  0  0  0  0
   28.8010   35.3250    7.1450 N   0  0  0  0  0  0  0  0  0  0  0  0
  1  2  1  0  0  0  0
  3  2  1  0  0  0  0
  4  3  1  0  0  0  0
  5  4  1  0  0  0  0
  6  5  1  0  0  0  0
M  END
>  <EGIN_R>
ES LYS A 135

>  <REMARK>
  4 active torsions:
  status: ('A' for Active; 'I' for Inactive)
    5  A    between atoms: CA   and  CB  
    6  A    between atoms: CB   and  CG  
    7  A    between atoms: CG   and  CD  
    8  A    between atoms: CD   and  CE  

$$$$
