ligand_6_pose_9_2HRL.pdbqt
 OpenBabel07062320523D

 52 53  0  0  1  0  0  0  0  0999 V2000
   21.4910   32.9530   13.3650 N   0  0  0  0  0  0  0  0  0  0  0  0
   22.3880   31.9070   13.0760 C   0  0  0  0  0  0  0  0  0  0  0  0
   22.0600   30.8790   12.4570 O   0  0  0  0  0  0  0  0  0  0  0  0
   21.9060   33.8020   13.8840 H   0  0  0  0  0  0  0  0  0  0  0  0
   20.1210   32.9600   13.0310 C   0  0  0  0  0  0  0  0  0  0  0  0
   19.6730   33.4580   11.7160 C   0  0  2  0  0  0  0  0  0  0  0  0
   20.2010   34.6730   11.1060 C   0  0  2  0  0  0  0  0  0  0  0  0
   19.2760   35.2340   10.0200 C   0  0  2  0  0  0  0  0  0  0  0  0
   18.4420   34.5940    7.9450 C   0  0  2  0  0  0  0  0  0  0  0  0
   17.7940   35.9580    8.0110 C   0  0  0  0  0  0  0  0  0  0  0  0
   18.9700   34.1720    9.1440 O   0  0  0  0  0  0  0  0  0  0  0  0
   18.7320   37.0240    8.4830 C   0  0  1  0  0  0  0  0  0  0  0  0
   19.8910   36.3090    9.2010 C   0  0  1  0  0  0  0  0  0  0  0  0
   19.3720   34.6280    6.9210 O   0  0  0  0  0  0  0  0  0  0  0  0
   20.1300   35.1820    7.1940 H   0  0  0  0  0  0  0  0  0  0  0  0
   17.3700   33.6340    7.5730 C   0  0  0  0  0  0  0  0  0  0  0  0
   16.5290   33.2460    8.4240 O   0  0  0  0  0  0  0  0  0  0  0  0
   17.2690   33.1410    6.2830 O   0  0  0  0  0  0  0  0  0  0  0  0
   17.4660   33.7200    5.4630 H   0  0  0  0  0  0  0  0  0  0  0  0
   19.1960   37.8570    7.4910 O   0  0  0  0  0  0  0  0  0  0  0  0
   18.4520   38.4450    7.2070 H   0  0  0  0  0  0  0  0  0  0  0  0
   20.5680   37.3460    9.9520 N   0  0  0  0  0  0  0  0  0  0  0  0
   21.7810   37.9310    9.4570 C   0  0  0  0  0  0  0  0  0  0  0  0
   20.2180   37.7070   10.8590 H   0  0  0  0  0  0  0  0  0  0  0  0
   22.5230   38.9930   10.1700 C   0  0  0  0  0  0  0  0  0  0  0  0
   22.2170   37.5090    8.3650 O   0  0  0  0  0  0  0  0  0  0  0  0
   21.4750   34.4990   10.6320 O   0  0  0  0  0  0  0  0  0  0  0  0
   21.5810   33.8760    9.8800 H   0  0  0  0  0  0  0  0  0  0  0  0
   18.2500   33.4440   11.7790 O   0  0  0  0  0  0  0  0  0  0  0  0
   17.9520   33.7210   12.6840 H   0  0  0  0  0  0  0  0  0  0  0  0
   23.7200   32.0550   13.5220 O   0  0  0  0  0  0  0  0  0  0  0  0
   24.0890   33.3460   13.9660 C   0  0  0  0  0  0  0  0  0  0  0  0
   24.2640   34.2630   12.7880 C   0  0  0  0  0  0  0  0  0  0  0  0
   25.1930   34.1610   11.7760 C   0  0  0  0  0  0  0  0  0  0  0  0
   23.5480   35.3730   12.4840 N   0  0  0  0  0  0  0  0  0  0  0  0
   25.0330   35.1800   10.8980 N   0  0  0  0  0  0  0  0  0  0  0  0
   24.0260   35.8810   11.3740 N   0  0  0  0  0  0  0  0  0  0  0  0
   25.7990   35.4240    9.7210 C   0  0  0  0  0  0  0  0  0  0  0  0
   26.8050   34.5760    9.3100 C   0  0  0  0  0  0  0  0  0  0  0  0
   25.5610   36.5360    8.9330 C   0  0  0  0  0  0  0  0  0  0  0  0
   27.5330   34.8320    8.1650 C   0  0  0  0  0  0  0  0  0  0  0  0
   26.2890   36.7930    7.7880 C   0  0  0  0  0  0  0  0  0  0  0  0
   27.2950   35.9460    7.3740 C   0  0  0  0  0  0  0  0  0  0  0  0
   28.0360   36.2160    6.2000 N   0  0  0  0  0  0  0  0  0  0  0  0
   29.0690   35.5600    5.9850 O   0  0  0  0  0  0  0  0  0  0  0  0
   27.6810   37.1600    5.2790 O   0  0  0  0  0  0  0  0  0  0  0  0
   29.8670   25.5550   16.9770 C   0  0  0  0  0  0  0  0  0  0  0  0
   28.3450   25.7220   17.0260 C   0  0  0  0  0  0  0  0  0  0  0  0
   27.6010   24.4020   16.8900 C   0  0  0  0  0  0  0  0  0  0  0  0
   26.1580   24.5210   17.2960 C   0  0  0  0  0  0  0  0  0  0  0  0
   25.8340   23.4560   18.3390 C   0  0  0  0  0  0  0  0  0  0  0  0
   25.4960   24.0870   19.6370 N   0  0  0  0  0  0  0  0  0  0  0  0
  1  4  1  0  0  0  0
  2  1  1  0  0  0  0
  2 31  1  0  0  0  0
  3  2  2  0  0  0  0
  5  1  1  0  0  0  0
  6 29  1  0  0  0  0
  6  5  1  1  0  0  0
  7 27  1  6  0  0  0
  7  6  1  0  0  0  0
  8  7  1  1  0  0  0
  9 14  1  6  0  0  0
  9 10  1  0  0  0  0
  9 11  1  0  0  0  0
 10 12  1  0  0  0  0
 11  8  1  0  0  0  0
 12 20  1  6  0  0  0
 12 13  1  0  0  0  0
 13 22  1  1  0  0  0
 13  8  1  0  0  0  0
 14 15  1  0  0  0  0
 16  9  1  0  0  0  0
 16 17  2  0  0  0  0
 18 16  1  0  0  0  0
 19 18  1  0  0  0  0
 21 20  1  0  0  0  0
 22 24  1  0  0  0  0
 23 22  1  0  0  0  0
 23 25  1  0  0  0  0
 26 23  2  0  0  0  0
 28 27  1  0  0  0  0
 29 30  1  0  0  0  0
 31 32  1  0  0  0  0
 33 32  1  0  0  0  0
 34 33  2  0  0  0  0
 35 33  1  0  0  0  0
 36 37  1  0  0  0  0
 36 34  1  0  0  0  0
 37 35  2  0  0  0  0
 38 36  1  0  0  0  0
 39 38  1  0  0  0  0
 40 38  2  0  0  0  0
 41 39  2  0  0  0  0
 42 40  1  0  0  0  0
 43 42  2  0  0  0  0
 43 41  1  0  0  0  0
 44 43  1  0  0  0  0
 45 44  2  0  0  0  0
 46 44  2  0  0  0  0
 47 48  1  0  0  0  0
 49 48  1  0  0  0  0
 49 50  1  0  0  0  0
 50 51  1  0  0  0  0
 51 52  1  0  0  0  0
M  END
>  <REMARK>
 VINA RESULT:    -5.436      9.079     14.532
 INTER + INTRA:         -14.475
 INTER:                  -9.347
 INTRA:                  -5.128
 UNBOUND:                -4.749
 SMILES CC(=O)N[C@@H]1[C@@H](O)C[C@](O)(C(=O)O)O[C@H]1C(O)[C@H](O)CNC(=O)OCc1cn(-c2ccc([N+](=O)[O-])cc2)nn1
 SMILES IDX 21 1 22 2 23 3 20 5 18 6 16 7 15 8 9 9 8 10 14 11 6 12 5 13
 SMILES IDX 10 14 11 16 12 17 13 18 7 20 4 22 2 23 1 25 3 26 17 27 19 29
 SMILES IDX 24 31 25 32 26 33 27 34 39 35 28 36 38 37 29 38 30 39 37 40
 SMILES IDX 31 41 36 42 32 43 33 44 34 45 35 46
 H PARENT 21 4 10 15 13 19 7 21 4 24 17 28 19 30
 Flexibility Score: inf
  4 active torsions:
  status: ('A' for Active; 'I' for Inactive)
    1  A    between atoms: CA   and  CB  
    2  A    between atoms: CB   and  CG  
    3  A    between atoms: CG   and  CD  
    4  A    between atoms: CD   and  CE  

>  <TORSDO>
F 16

>  <BEGIN_>
RES LYS A 131

$$$$
ligand_6_pose_9_2HRL.pdbqt
 OpenBabel07062320523D

  6  5  0  0  0  0  0  0  0  0999 V2000
   33.1930   34.6630    9.2900 C   0  0  0  0  0  0  0  0  0  0  0  0
   32.0600   35.3600   10.0340 C   0  0  0  0  0  0  0  0  0  0  0  0
   32.5180   36.1260   11.2480 C   0  0  0  0  0  0  0  0  0  0  0  0
   31.9140   35.5380   12.5140 C   0  0  0  0  0  0  0  0  0  0  0  0
   30.6020   34.8420   12.2040 C   0  0  0  0  0  0  0  0  0  0  0  0
   29.4450   35.7490   12.4380 N   0  0  0  0  0  0  0  0  0  0  0  0
  1  2  1  0  0  0  0
  2  3  1  0  0  0  0
  3  4  1  0  0  0  0
  5  6  1  0  0  0  0
  5  4  1  0  0  0  0
M  END
>  <EGIN_R>
ES LYS A 135

>  <REMARK>
  4 active torsions:
  status: ('A' for Active; 'I' for Inactive)
    5  A    between atoms: CA   and  CB  
    6  A    between atoms: CB   and  CG  
    7  A    between atoms: CG   and  CD  
    8  A    between atoms: CD   and  CE  

$$$$
