ligand_21_pose_2_2HRL.pdbqt
 OpenBabel07062320523D

 54 55  0  0  1  0  0  0  0  0999 V2000
   25.5430   28.7040   18.6440 N   0  0  0  0  0  0  0  0  0  0  0  0
   24.8830   29.9660   18.7300 C   0  0  0  0  0  0  0  0  0  0  0  0
   24.7080   30.4650   19.8610 O   0  0  0  0  0  0  0  0  0  0  0  0
   25.6810   28.2980   17.6980 H   0  0  0  0  0  0  0  0  0  0  0  0
   25.9920   28.0220   19.8280 C   0  0  0  0  0  0  0  0  0  0  0  0
   27.5190   27.9200   19.7690 C   0  0  2  0  0  0  0  0  0  0  0  0
   28.1160   29.1480   20.3980 C   0  0  2  0  0  0  0  0  0  0  0  0
   29.3840   28.7690   21.1140 C   0  0  2  0  0  0  0  0  0  0  0  0
   31.4620   27.7960   20.7330 C   0  0  2  0  0  0  0  0  0  0  0  0
   31.0900   26.5650   21.5250 C   0  0  0  0  0  0  0  0  0  0  0  0
   30.2830   28.2990   20.2090 O   0  0  0  0  0  0  0  0  0  0  0  0
   30.2230   26.9810   22.6640 C   0  0  1  0  0  0  0  0  0  0  0  0
   29.0820   27.8740   22.2630 C   0  0  1  0  0  0  0  0  0  0  0  0
   32.2060   27.3230   19.6310 O   0  0  0  0  0  0  0  0  0  0  0  0
   33.1740   27.4230   19.7770 H   0  0  0  0  0  0  0  0  0  0  0  0
   32.2510   28.7800   21.4990 C   0  0  0  0  0  0  0  0  0  0  0  0
   32.0180   30.0130   21.5100 O   0  0  0  0  0  0  0  0  0  0  0  0
   33.3180   28.3400   22.2600 O   0  0  0  0  0  0  0  0  0  0  0  0
   34.1180   28.9260   22.5100 H   0  0  0  0  0  0  0  0  0  0  0  0
   29.7310   25.7990   23.2600 O   0  0  0  0  0  0  0  0  0  0  0  0
   28.7630   25.7050   23.0140 H   0  0  0  0  0  0  0  0  0  0  0  0
   28.7270   28.6920   23.4070 N   0  0  0  0  0  0  0  0  0  0  0  0
   27.7150   28.2990   24.3350 C   0  0  0  0  0  0  0  0  0  0  0  0
   29.2100   29.5980   23.5820 H   0  0  0  0  0  0  0  0  0  0  0  0
   27.3940   29.1730   25.4860 C   0  0  0  0  0  0  0  0  0  0  0  0
   27.1090   27.2200   24.1690 O   0  0  0  0  0  0  0  0  0  0  0  0
   27.2250   29.7610   21.2880 O   0  0  0  0  0  0  0  0  0  0  0  0
   27.7420   30.3100   21.9220 H   0  0  0  0  0  0  0  0  0  0  0  0
   27.8640   27.7390   18.4480 O   0  0  0  0  0  0  0  0  0  0  0  0
   27.3550   28.2940   17.8220 H   0  0  0  0  0  0  0  0  0  0  0  0
   24.4570   30.6040   17.5760 O   0  0  0  0  0  0  0  0  0  0  0  0
   25.2660   31.5360   16.8970 C   0  0  0  0  0  0  0  0  0  0  0  0
   26.6610   31.0690   16.9310 C   0  0  0  0  0  0  0  0  0  0  0  0
   27.6970   31.6000   17.7050 C   0  0  0  0  0  0  0  0  0  0  0  0
   27.2330   30.0520   16.2380 N   0  0  0  0  0  0  0  0  0  0  0  0
   28.7930   30.8980   17.4420 N   0  0  0  0  0  0  0  0  0  0  0  0
   28.5090   29.9610   16.5540 N   0  0  0  0  0  0  0  0  0  0  0  0
   30.0990   31.1090   18.0310 C   0  0  0  0  0  0  0  0  0  0  0  0
   30.7490   32.1960   17.2250 C   0  0  0  0  0  0  0  0  0  0  0  0
   31.1360   33.3430   17.8660 C   0  0  0  0  0  0  0  0  0  0  0  0
   30.9400   32.0220   15.8780 C   0  0  0  0  0  0  0  0  0  0  0  0
   31.7330   34.3640   17.1730 C   0  0  0  0  0  0  0  0  0  0  0  0
   31.5490   33.0560   15.1570 C   0  0  0  0  0  0  0  0  0  0  0  0
   31.9260   34.1930   15.8180 C   0  0  0  0  0  0  0  0  0  0  0  0
   30.9260   33.4800   19.2310 O   0  0  0  0  0  0  0  0  0  0  0  0
   30.1920   34.5850   19.6600 C   0  0  0  0  0  0  0  0  0  0  0  0
   30.7470   35.4560   20.3690 O   0  0  0  0  0  0  0  0  0  0  0  0
   28.7650   34.7400   19.2880 C   0  0  0  0  0  0  0  0  0  0  0  0
   29.8670   25.5550   16.9770 C   0  0  0  0  0  0  0  0  0  0  0  0
   28.3450   25.7220   17.0260 C   0  0  0  0  0  0  0  0  0  0  0  0
   27.6010   24.4010   16.9020 C   0  0  0  0  0  0  0  0  0  0  0  0
   26.6200   24.1960   18.0230 C   0  0  0  0  0  0  0  0  0  0  0  0
   25.2060   24.1280   17.4550 C   0  0  0  0  0  0  0  0  0  0  0  0
   24.5930   25.4770   17.4240 N   0  0  0  0  0  0  0  0  0  0  0  0
  1  2  1  0  0  0  0
  1  5  1  0  0  0  0
  2  3  2  0  0  0  0
  4  1  1  0  0  0  0
  6  5  1  6  0  0  0
  6  7  1  0  0  0  0
  7 27  1  1  0  0  0
  8  7  1  6  0  0  0
  8 13  1  0  0  0  0
  9 14  1  6  0  0  0
  9 16  1  0  0  0  0
  9 10  1  0  0  0  0
 10 12  1  0  0  0  0
 11  9  1  0  0  0  0
 11  8  1  0  0  0  0
 12 20  1  6  0  0  0
 13 12  1  0  0  0  0
 13 22  1  1  0  0  0
 14 15  1  0  0  0  0
 16 17  2  0  0  0  0
 16 18  1  0  0  0  0
 18 19  1  0  0  0  0
 21 20  1  0  0  0  0
 22 24  1  0  0  0  0
 22 23  1  0  0  0  0
 23 25  1  0  0  0  0
 26 23  2  0  0  0  0
 27 28  1  0  0  0  0
 29  6  1  0  0  0  0
 30 29  1  0  0  0  0
 31  2  1  0  0  0  0
 32 33  1  0  0  0  0
 32 31  1  0  0  0  0
 33 34  2  0  0  0  0
 35 37  2  0  0  0  0
 35 33  1  0  0  0  0
 36 34  1  0  0  0  0
 36 38  1  0  0  0  0
 37 36  1  0  0  0  0
 39 40  1  0  0  0  0
 39 38  1  0  0  0  0
 40 45  1  0  0  0  0
 41 39  2  0  0  0  0
 42 40  2  0  0  0  0
 43 44  2  0  0  0  0
 43 41  1  0  0  0  0
 44 42  1  0  0  0  0
 45 46  1  0  0  0  0
 46 47  2  0  0  0  0
 48 46  1  0  0  0  0
 49 50  1  0  0  0  0
 51 50  1  0  0  0  0
 51 52  1  0  0  0  0
 53 52  1  0  0  0  0
 54 53  1  0  0  0  0
M  END
>  <REMARK>
 VINA RESULT:    -4.864      8.264     14.182
 INTER + INTRA:         -15.546
 INTER:                  -9.316
 INTRA:                  -6.230
 UNBOUND:                -6.275
 SMILES CC(=O)N[C@@H]1[C@@H](O)C[C@](O)(C(=O)O)O[C@H]1C(O)[C@H](O)CNC(=O)OCc1cn(Cc2ccccc2OC(C)=O)nn1
 SMILES IDX 21 1 22 2 23 3 20 5 18 6 16 7 15 8 9 9 8 10 14 11 6 12 5 13
 SMILES IDX 10 14 11 16 12 17 13 18 7 20 4 22 2 23 1 25 3 26 17 27 19 29
 SMILES IDX 24 31 25 32 26 33 27 34 41 35 28 36 40 37 29 38 30 39 35 40
 SMILES IDX 31 41 34 42 32 43 33 44 36 45 37 46 39 47 38 48
 H PARENT 21 4 10 15 13 19 7 21 4 24 17 28 19 30
 Flexibility Score: inf
  4 active torsions:
  status: ('A' for Active; 'I' for Inactive)
    1  A    between atoms: CA   and  CB  
    2  A    between atoms: CB   and  CG  
    3  A    between atoms: CG   and  CD  
    4  A    between atoms: CD   and  CE  

>  <TORSDO>
F 18

>  <BEGIN_>
RES LYS A 131

$$$$
ligand_21_pose_2_2HRL.pdbqt
 OpenBabel07062320523D

  6  5  0  0  0  0  0  0  0  0999 V2000
   33.1930   34.6630    9.2900 C   0  0  0  0  0  0  0  0  0  0  0  0
   32.0600   35.3600   10.0340 C   0  0  0  0  0  0  0  0  0  0  0  0
   30.6880   34.9580    9.5560 C   0  0  0  0  0  0  0  0  0  0  0  0
   29.7180   34.8700   10.7230 C   0  0  0  0  0  0  0  0  0  0  0  0
   30.4690   34.8630   12.0410 C   0  0  0  0  0  0  0  0  0  0  0  0
   29.7400   35.6450   13.0780 N   0  0  0  0  0  0  0  0  0  0  0  0
  1  2  1  0  0  0  0
  3  2  1  0  0  0  0
  3  4  1  0  0  0  0
  4  5  1  0  0  0  0
  5  6  1  0  0  0  0
M  END
>  <EGIN_R>
ES LYS A 135

>  <REMARK>
  4 active torsions:
  status: ('A' for Active; 'I' for Inactive)
    5  A    between atoms: CA   and  CB  
    6  A    between atoms: CB   and  CG  
    7  A    between atoms: CG   and  CD  
    8  A    between atoms: CD   and  CE  

$$$$
