ligand_59_pose_13_2HRL.pdbqt
 OpenBabel07062320523D

 52 53  0  0  1  0  0  0  0  0999 V2000
   30.3710   41.3530    7.8410 N   0  0  0  0  0  0  0  0  0  0  0  0
   29.4280   42.3060    8.3540 C   0  0  0  0  0  0  0  0  0  0  0  0
   29.1060   42.1740    9.5570 O   0  0  0  0  0  0  0  0  0  0  0  0
   30.6220   41.5080    6.8410 H   0  0  0  0  0  0  0  0  0  0  0  0
   30.9130   40.3180    8.6780 C   0  0  0  0  0  0  0  0  0  0  0  0
   30.4240   38.9630    8.1920 C   0  0  2  0  0  0  0  0  0  0  0  0
   29.3630   38.5310    9.1620 C   0  0  2  0  0  0  0  0  0  0  0  0
   28.9330   37.0930    9.1110 C   0  0  2  0  0  0  0  0  0  0  0  0
   29.2340   35.3700    7.5280 C   0  0  2  0  0  0  0  0  0  0  0  0
   27.8230   34.8670    7.7010 C   0  0  0  0  0  0  0  0  0  0  0  0
   29.3760   36.6660    7.8870 O   0  0  0  0  0  0  0  0  0  0  0  0
   26.9970   36.1100    7.9740 C   0  0  1  0  0  0  0  0  0  0  0  0
   27.5060   36.7870    9.2710 C   0  0  1  0  0  0  0  0  0  0  0  0
   29.5050   35.2430    6.1290 O   0  0  0  0  0  0  0  0  0  0  0  0
   30.4710   35.0620    6.0030 H   0  0  0  0  0  0  0  0  0  0  0  0
   30.2480   34.5340    8.2020 C   0  0  0  0  0  0  0  0  0  0  0  0
   29.9080   33.8010    9.1510 O   0  0  0  0  0  0  0  0  0  0  0  0
   31.5690   34.5460    7.7980 O   0  0  0  0  0  0  0  0  0  0  0  0
   32.1550   35.3290    8.0600 H   0  0  0  0  0  0  0  0  0  0  0  0
   26.9830   36.9840    6.9150 O   0  0  0  0  0  0  0  0  0  0  0  0
   26.2520   36.7280    6.2830 H   0  0  0  0  0  0  0  0  0  0  0  0
   27.1670   35.8630   10.3030 N   0  0  0  0  0  0  0  0  0  0  0  0
   25.9710   35.9560   11.0330 C   0  0  0  0  0  0  0  0  0  0  0  0
   27.8290   35.1000   10.5260 H   0  0  0  0  0  0  0  0  0  0  0  0
   25.6180   34.9950   12.1050 C   0  0  0  0  0  0  0  0  0  0  0  0
   25.1700   36.8770   10.7740 O   0  0  0  0  0  0  0  0  0  0  0  0
   28.2050   39.2800    8.8860 O   0  0  0  0  0  0  0  0  0  0  0  0
   28.4290   40.1920    8.5570 H   0  0  0  0  0  0  0  0  0  0  0  0
   31.5710   38.1370    8.3500 O   0  0  0  0  0  0  0  0  0  0  0  0
   31.2900   37.2090    8.3030 H   0  0  0  0  0  0  0  0  0  0  0  0
   28.8930   43.3130    7.6000 O   0  0  0  0  0  0  0  0  0  0  0  0
   28.0520   43.1190    6.5050 C   0  0  0  0  0  0  0  0  0  0  0  0
   27.3310   41.8220    6.5270 C   0  0  0  0  0  0  0  0  0  0  0  0
   26.0580   41.6440    7.0740 C   0  0  0  0  0  0  0  0  0  0  0  0
   27.6730   40.6200    6.0810 N   0  0  0  0  0  0  0  0  0  0  0  0
   25.7030   40.3660    6.9370 N   0  0  0  0  0  0  0  0  0  0  0  0
   26.6920   39.7520    6.3330 N   0  0  0  0  0  0  0  0  0  0  0  0
   24.4700   39.7790    7.3790 C   0  0  0  0  0  0  0  0  0  0  0  0
   23.3660   40.5270    7.7300 C   0  0  0  0  0  0  0  0  0  0  0  0
   24.3640   38.4440    7.4760 N   0  0  0  0  0  0  0  0  0  0  0  0
   22.1910   39.9740    8.1640 C   0  0  0  0  0  0  0  0  0  0  0  0
   23.2340   37.8560    7.8950 C   0  0  0  0  0  0  0  0  0  0  0  0
   22.1120   38.5970    8.2520 C   0  0  0  0  0  0  0  0  0  0  0  0
   20.8810   37.8920    8.7110 C   0  0  0  0  0  0  0  0  0  0  0  0
   20.3430   37.1860    7.6430 O   0  0  0  0  0  0  0  0  0  0  0  0
   20.7740   36.2950    7.5760 H   0  0  0  0  0  0  0  0  0  0  0  0
   29.8670   25.5550   16.9770 C   0  0  0  0  0  0  0  0  0  0  0  0
   28.3450   25.7220   17.0260 C   0  0  0  0  0  0  0  0  0  0  0  0
   27.6000   24.4070   16.8540 C   0  0  0  0  0  0  0  0  0  0  0  0
   26.1490   24.5250   17.2280 C   0  0  0  0  0  0  0  0  0  0  0  0
   25.6500   23.1850   17.7590 C   0  0  0  0  0  0  0  0  0  0  0  0
   24.1950   23.0400   17.5160 N   0  0  0  0  0  0  0  0  0  0  0  0
  1  2  1  0  0  0  0
  1  5  1  0  0  0  0
  2  3  2  0  0  0  0
  4  1  1  0  0  0  0
  6 29  1  0  0  0  0
  6  5  1  1  0  0  0
  6  7  1  0  0  0  0
  7 27  1  6  0  0  0
  8  7  1  6  0  0  0
  8 13  1  0  0  0  0
  9 14  1  6  0  0  0
  9 10  1  0  0  0  0
  9 11  1  0  0  0  0
  9 16  1  0  0  0  0
 10 12  1  0  0  0  0
 11  8  1  0  0  0  0
 12 20  1  6  0  0  0
 12 13  1  0  0  0  0
 13 22  1  1  0  0  0
 15 14  1  0  0  0  0
 16 17  2  0  0  0  0
 18 19  1  0  0  0  0
 18 16  1  0  0  0  0
 21 20  1  0  0  0  0
 22 24  1  0  0  0  0
 22 23  1  0  0  0  0
 23 25  1  0  0  0  0
 26 23  2  0  0  0  0
 28 27  1  0  0  0  0
 30 29  1  0  0  0  0
 31  2  1  0  0  0  0
 32 33  1  0  0  0  0
 32 31  1  0  0  0  0
 33 34  2  0  0  0  0
 35 37  2  0  0  0  0
 35 33  1  0  0  0  0
 36 34  1  0  0  0  0
 36 38  1  0  0  0  0
 37 36  1  0  0  0  0
 38 40  2  0  0  0  0
 38 39  1  0  0  0  0
 39 41  2  0  0  0  0
 40 42  1  0  0  0  0
 41 43  1  0  0  0  0
 42 43  2  0  0  0  0
 43 44  1  0  0  0  0
 45 44  1  0  0  0  0
 46 45  1  0  0  0  0
 47 48  1  0  0  0  0
 49 48  1  0  0  0  0
 49 50  1  0  0  0  0
 50 51  1  0  0  0  0
 52 51  1  0  0  0  0
M  END
>  <REMARK>
 VINA RESULT:    -4.893      7.664     13.435
 INTER + INTRA:         -14.632
 INTER:                  -8.920
 INTRA:                  -5.713
 UNBOUND:                -5.735
 SMILES CC(=O)N[C@@H]1[C@@H](O)C[C@](O)(C(=O)O)O[C@H]1C(O)[C@H](O)CNC(=O)OCc1cn(-c2ccc(CO)cn2)nn1
 SMILES IDX 21 1 22 2 23 3 20 5 18 6 16 7 15 8 9 9 8 10 14 11 6 12 5 13
 SMILES IDX 10 14 11 16 12 17 13 18 7 20 4 22 2 23 1 25 3 26 17 27 19 29
 SMILES IDX 24 31 25 32 26 33 27 34 38 35 28 36 37 37 29 38 30 39 36 40
 SMILES IDX 31 41 35 42 32 43 33 44 34 45
 H PARENT 21 4 10 15 13 19 7 21 4 24 17 28 19 30 34 46
 Flexibility Score: inf
  4 active torsions:
  status: ('A' for Active; 'I' for Inactive)
    1  A    between atoms: CA   and  CB  
    2  A    between atoms: CB   and  CG  
    3  A    between atoms: CG   and  CD  
    4  A    between atoms: CD   and  CE  

>  <TORSDO>
F 17

>  <BEGIN_>
RES LYS A 131

$$$$
ligand_59_pose_13_2HRL.pdbqt
 OpenBabel07062320523D

  6  5  0  0  0  0  0  0  0  0999 V2000
   33.1930   34.6630    9.2900 C   0  0  0  0  0  0  0  0  0  0  0  0
   32.0600   35.3600   10.0340 C   0  0  0  0  0  0  0  0  0  0  0  0
   32.4310   35.7910   11.4300 C   0  0  0  0  0  0  0  0  0  0  0  0
   31.9430   37.2060   11.7020 C   0  0  0  0  0  0  0  0  0  0  0  0
   31.5420   37.3600   13.1560 C   0  0  0  0  0  0  0  0  0  0  0  0
   31.2570   36.0370   13.7770 N   0  0  0  0  0  0  0  0  0  0  0  0
  1  2  1  0  0  0  0
  2  3  1  0  0  0  0
  3  4  1  0  0  0  0
  4  5  1  0  0  0  0
  5  6  1  0  0  0  0
M  END
>  <EGIN_R>
ES LYS A 135

>  <REMARK>
  4 active torsions:
  status: ('A' for Active; 'I' for Inactive)
    5  A    between atoms: CA   and  CB  
    6  A    between atoms: CB   and  CG  
    7  A    between atoms: CG   and  CD  
    8  A    between atoms: CD   and  CE  

$$$$
