ligand_50_pose_11_2HRL.pdbqt
 OpenBabel07062320523D

 50 50  0  0  1  0  0  0  0  0999 V2000
   27.1100   39.7220    5.1100 N   0  0  0  0  0  0  0  0  0  0  0  0
   27.3930   41.0420    4.6780 C   0  0  0  0  0  0  0  0  0  0  0  0
   28.2610   41.2680    3.8170 O   0  0  0  0  0  0  0  0  0  0  0  0
   26.3520   39.6330    5.8510 H   0  0  0  0  0  0  0  0  0  0  0  0
   27.8030   38.5970    4.5810 C   0  0  0  0  0  0  0  0  0  0  0  0
   27.9890   37.4740    5.5770 C   0  0  2  0  0  0  0  0  0  0  0  0
   27.1390   37.8310    6.7900 C   0  0  1  0  0  0  0  0  0  0  0  0
   26.3660   36.5990    7.2730 C   0  0  2  0  0  0  0  0  0  0  0  0
   24.5730   37.0510    8.6800 C   0  0  2  0  0  0  0  0  0  0  0  0
   24.6180   35.6460    9.2510 C   0  0  0  0  0  0  0  0  0  0  0  0
   25.0570   36.9720    7.3970 O   0  0  0  0  0  0  0  0  0  0  0  0
   26.0510   35.2620    9.3810 C   0  0  1  0  0  0  0  0  0  0  0  0
   26.9980   36.0510    8.5130 C   0  0  1  0  0  0  0  0  0  0  0  0
   25.3450   37.8490    9.5220 O   0  0  0  0  0  0  0  0  0  0  0  0
   24.8230   38.2370   10.2610 H   0  0  0  0  0  0  0  0  0  0  0  0
   23.1830   37.5710    8.6330 C   0  0  0  0  0  0  0  0  0  0  0  0
   22.6100   37.8540    9.7160 O   0  0  0  0  0  0  0  0  0  0  0  0
   22.5500   37.7360    7.4240 O   0  0  0  0  0  0  0  0  0  0  0  0
   21.6020   38.0950    7.3800 H   0  0  0  0  0  0  0  0  0  0  0  0
   26.4330   35.4770   10.7110 O   0  0  0  0  0  0  0  0  0  0  0  0
   27.1250   36.1620   10.7440 H   0  0  0  0  0  0  0  0  0  0  0  0
   28.0840   35.1550    8.1770 N   0  0  0  0  0  0  0  0  0  0  0  0
   29.3820   35.4150    8.6870 C   0  0  0  0  0  0  0  0  0  0  0  0
   27.9560   34.3150    7.5670 H   0  0  0  0  0  0  0  0  0  0  0  0
   30.5490   34.5200    8.3690 C   0  0  0  0  0  0  0  0  0  0  0  0
   29.6430   36.3980    9.4280 O   0  0  0  0  0  0  0  0  0  0  0  0
   27.9410   38.3690    7.7660 O   0  0  0  0  0  0  0  0  0  0  0  0
   28.8390   37.9340    7.7860 H   0  0  0  0  0  0  0  0  0  0  0  0
   29.3330   37.3500    5.9280 O   0  0  0  0  0  0  0  0  0  0  0  0
   29.8570   37.7970    5.2360 H   0  0  0  0  0  0  0  0  0  0  0  0
   26.6990   42.1400    5.2090 O   0  0  0  0  0  0  0  0  0  0  0  0
   27.3860   43.0070    6.0630 C   0  0  0  0  0  0  0  0  0  0  0  0
   27.9260   42.3030    7.2540 C   0  0  0  0  0  0  0  0  0  0  0  0
   29.1970   42.3770    7.7450 C   0  0  0  0  0  0  0  0  0  0  0  0
   27.2560   41.4690    8.0520 N   0  0  0  0  0  0  0  0  0  0  0  0
   29.2420   41.5720    8.8400 N   0  0  0  0  0  0  0  0  0  0  0  0
   28.0480   41.0230    9.0150 N   0  0  0  0  0  0  0  0  0  0  0  0
   30.4270   41.3630    9.6700 C   0  0  0  0  0  0  0  0  0  0  0  0
   30.7930   39.9000    9.5210 C   0  0  1  0  0  0  0  0  0  0  0  0
   29.7420   39.1130    9.9770 O   0  0  0  0  0  0  0  0  0  0  0  0
   29.3990   39.5180   10.8180 H   0  0  0  0  0  0  0  0  0  0  0  0
   31.0790   39.5760    8.0510 C   0  0  0  0  0  0  0  0  0  0  0  0
   31.4610   38.2370    7.9410 O   0  0  0  0  0  0  0  0  0  0  0  0
   31.4580   37.8180    8.8530 H   0  0  0  0  0  0  0  0  0  0  0  0
   29.8670   25.5550   16.9770 C   0  0  0  0  0  0  0  0  0  0  0  0
   28.3450   25.7220   17.0260 C   0  0  0  0  0  0  0  0  0  0  0  0
   27.6020   24.4000   16.9150 C   0  0  0  0  0  0  0  0  0  0  0  0
   26.5160   24.2720   17.9470 C   0  0  0  0  0  0  0  0  0  0  0  0
   25.4180   23.3540   17.4200 C   0  0  0  0  0  0  0  0  0  0  0  0
   24.2920   24.1510   16.8780 N   0  0  0  0  0  0  0  0  0  0  0  0
  1  4  1  0  0  0  0
  2  1  1  0  0  0  0
  2 31  1  0  0  0  0
  3  2  2  0  0  0  0
  5  1  1  0  0  0  0
  6  5  1  6  0  0  0
  6 29  1  0  0  0  0
  6  7  1  0  0  0  0
  7 27  1  1  0  0  0
  8  7  1  1  0  0  0
  8 11  1  0  0  0  0
  8 13  1  0  0  0  0
  9 16  1  6  0  0  0
  9 10  1  0  0  0  0
  9 14  1  0  0  0  0
 10 12  1  0  0  0  0
 11  9  1  0  0  0  0
 12 20  1  1  0  0  0
 13 22  1  6  0  0  0
 13 12  1  0  0  0  0
 14 15  1  0  0  0  0
 16 17  2  0  0  0  0
 18 16  1  0  0  0  0
 19 18  1  0  0  0  0
 20 21  1  0  0  0  0
 22 23  1  0  0  0  0
 23 26  2  0  0  0  0
 24 22  1  0  0  0  0
 25 23  1  0  0  0  0
 27 28  1  0  0  0  0
 30 29  1  0  0  0  0
 31 32  1  0  0  0  0
 32 33  1  0  0  0  0
 33 34  2  0  0  0  0
 33 35  1  0  0  0  0
 34 36  1  0  0  0  0
 35 37  2  0  0  0  0
 36 37  1  0  0  0  0
 36 38  1  0  0  0  0
 39 42  1  6  0  0  0
 39 38  1  0  0  0  0
 39 40  1  0  0  0  0
 40 41  1  0  0  0  0
 43 42  1  0  0  0  0
 43 44  1  0  0  0  0
 45 46  1  0  0  0  0
 47 46  1  0  0  0  0
 47 48  1  0  0  0  0
 49 48  1  0  0  0  0
 50 49  1  0  0  0  0
M  END
>  <REMARK>
 VINA RESULT:    -4.610      7.873     13.623
 INTER + INTRA:         -14.265
 INTER:                  -8.016
 INTRA:                  -6.248
 UNBOUND:                -5.477
 SMILES CC(=O)N[C@@H]1[C@@H](O)C[C@](O)(C(=O)O)O[C@H]1C(O)[C@H](O)CNC(=O)OCc1cn(CC(O)CO)nn1
 SMILES IDX 21 1 22 2 23 3 20 5 18 6 16 7 15 8 9 9 8 10 14 11 6 12 5 13
 SMILES IDX 10 14 11 16 12 17 13 18 7 20 4 22 2 23 1 25 3 26 17 27 19 29
 SMILES IDX 24 31 25 32 26 33 27 34 35 35 28 36 34 37 29 38 30 39 31 40
 SMILES IDX 32 42 33 43
 H PARENT 21 4 10 15 13 19 7 21 4 24 17 28 19 30 31 41 33 44
 Flexibility Score: inf
  4 active torsions:
  status: ('A' for Active; 'I' for Inactive)
    1  A    between atoms: CA   and  CB  
    2  A    between atoms: CB   and  CG  
    3  A    between atoms: CG   and  CD  
    4  A    between atoms: CD   and  CE  

>  <TORSDO>
F 19

>  <BEGIN_>
RES LYS A 131

$$$$
ligand_50_pose_11_2HRL.pdbqt
 OpenBabel07062320523D

  6  5  0  0  0  0  0  0  0  0999 V2000
   33.1930   34.6630    9.2900 C   0  0  0  0  0  0  0  0  0  0  0  0
   32.0600   35.3600   10.0340 C   0  0  0  0  0  0  0  0  0  0  0  0
   32.4130   35.7430   11.4480 C   0  0  0  0  0  0  0  0  0  0  0  0
   32.2180   37.2350   11.6650 C   0  0  0  0  0  0  0  0  0  0  0  0
   31.4460   37.4900   12.9460 C   0  0  0  0  0  0  0  0  0  0  0  0
   31.4140   36.2740   13.8040 N   0  0  0  0  0  0  0  0  0  0  0  0
  1  2  1  0  0  0  0
  2  3  1  0  0  0  0
  3  4  1  0  0  0  0
  4  5  1  0  0  0  0
  5  6  1  0  0  0  0
M  END
>  <EGIN_R>
ES LYS A 135

>  <REMARK>
  4 active torsions:
  status: ('A' for Active; 'I' for Inactive)
    5  A    between atoms: CA   and  CB  
    6  A    between atoms: CB   and  CG  
    7  A    between atoms: CG   and  CD  
    8  A    between atoms: CD   and  CE  

$$$$
