ligand_48_pose_15_2HRL.pdbqt
 OpenBabel07062320523D

 49 50  0  0  1  0  0  0  0  0999 V2000
   30.0620   31.0270   16.5060 C   0  0  0  0  0  0  0  0  0  0  0  0
   29.4360   32.2760   15.9040 C   0  0  2  0  0  0  0  0  0  0  0  0
   30.4610   32.8930   15.0030 C   0  0  1  0  0  0  0  0  0  0  0  0
   30.8170   34.3270   15.3290 C   0  0  2  0  0  0  0  0  0  0  0  0
   31.2490   35.5210   13.3470 C   0  0  2  0  0  0  0  0  0  0  0  0
   32.5380   36.0800   13.9250 C   0  0  0  0  0  0  0  0  0  0  0  0
   30.4110   35.2050   14.3620 O   0  0  0  0  0  0  0  0  0  0  0  0
   33.1840   35.0970   14.8650 C   0  0  1  0  0  0  0  0  0  0  0  0
   32.1930   34.5290   15.8610 C   0  0  1  0  0  0  0  0  0  0  0  0
   31.5160   34.4950   12.4430 O   0  0  0  0  0  0  0  0  0  0  0  0
   31.4290   34.8750   11.5130 H   0  0  0  0  0  0  0  0  0  0  0  0
   30.6380   36.6500   12.5910 C   0  0  0  0  0  0  0  0  0  0  0  0
   29.3940   36.7380   12.4950 O   0  0  0  0  0  0  0  0  0  0  0  0
   31.4380   37.5870   12.0040 O   0  0  0  0  0  0  0  0  0  0  0  0
   31.8090   38.4040   12.4730 H   0  0  0  0  0  0  0  0  0  0  0  0
   33.8460   34.0960   14.1670 O   0  0  0  0  0  0  0  0  0  0  0  0
   34.3590   33.5290   14.7920 H   0  0  0  0  0  0  0  0  0  0  0  0
   32.1800   35.3760   17.0550 N   0  0  0  0  0  0  0  0  0  0  0  0
   31.8240   34.7930   18.2890 C   0  0  0  0  0  0  0  0  0  0  0  0
   32.4260   36.3840   17.0130 H   0  0  0  0  0  0  0  0  0  0  0  0
   31.7820   35.5750   19.5640 C   0  0  0  0  0  0  0  0  0  0  0  0
   31.5150   33.5640   18.4010 O   0  0  0  0  0  0  0  0  0  0  0  0
   31.5240   32.0690   14.7430 O   0  0  0  0  0  0  0  0  0  0  0  0
   31.9320   32.2210   13.8320 H   0  0  0  0  0  0  0  0  0  0  0  0
   29.0000   33.0690   16.9380 O   0  0  0  0  0  0  0  0  0  0  0  0
   28.0760   33.3210   16.7860 H   0  0  0  0  0  0  0  0  0  0  0  0
   29.0010   30.1020   16.8300 N   0  0  0  0  0  0  0  0  0  0  0  0
   28.3740   29.9880   18.0960 C   0  0  0  0  0  0  0  0  0  0  0  0
   28.6250   29.4320   16.0900 H   0  0  0  0  0  0  0  0  0  0  0  0
   28.7460   30.7300   19.0360 O   0  0  0  0  0  0  0  0  0  0  0  0
   27.3540   29.0680   18.3210 O   0  0  0  0  0  0  0  0  0  0  0  0
   26.0260   29.5140   18.4310 C   0  0  0  0  0  0  0  0  0  0  0  0
   25.4670   29.6530   17.0600 C   0  0  0  0  0  0  0  0  0  0  0  0
   24.2620   29.1070   16.5990 C   0  0  0  0  0  0  0  0  0  0  0  0
   25.9590   30.2980   15.9860 N   0  0  0  0  0  0  0  0  0  0  0  0
   24.0850   29.4380   15.3080 N   0  0  0  0  0  0  0  0  0  0  0  0
   25.1350   30.1620   14.9630 N   0  0  0  0  0  0  0  0  0  0  0  0
   22.9590   29.0700   14.4610 C   0  0  0  0  0  0  0  0  0  0  0  0
   21.8150   30.0260   14.7130 C   0  0  0  0  0  0  0  0  0  0  0  0
   23.3530   29.1810   13.0050 C   0  0  0  0  0  0  0  0  0  0  0  0
   21.6720   31.0340   13.5880 C   0  0  0  0  0  0  0  0  0  0  0  0
   22.0790   29.0220   12.1930 C   0  0  0  0  0  0  0  0  0  0  0  0
   21.3160   30.3270   12.3080 C   0  0  0  0  0  0  0  0  0  0  0  0
   29.8670   25.5550   16.9770 C   0  0  0  0  0  0  0  0  0  0  0  0
   28.3450   25.7220   17.0260 C   0  0  0  0  0  0  0  0  0  0  0  0
   27.6020   24.3980   16.9280 C   0  0  0  0  0  0  0  0  0  0  0  0
   26.6090   24.2230   18.0440 C   0  0  0  0  0  0  0  0  0  0  0  0
   25.9260   25.5560   18.3320 C   0  0  0  0  0  0  0  0  0  0  0  0
   25.9640   25.8550   19.7830 N   0  0  0  0  0  0  0  0  0  0  0  0
  1 27  1  0  0  0  0
  2  1  1  1  0  0  0
  2 25  1  0  0  0  0
  3 23  1  1  0  0  0
  3  2  1  0  0  0  0
  4  3  1  6  0  0  0
  4  9  1  0  0  0  0
  5 10  1  6  0  0  0
  5  6  1  0  0  0  0
  5  7  1  0  0  0  0
  6  8  1  0  0  0  0
  7  4  1  0  0  0  0
  8 16  1  6  0  0  0
  8  9  1  0  0  0  0
  9 18  1  1  0  0  0
 11 10  1  0  0  0  0
 12  5  1  0  0  0  0
 13 12  2  0  0  0  0
 14 15  1  0  0  0  0
 14 12  1  0  0  0  0
 16 17  1  0  0  0  0
 18 19  1  0  0  0  0
 19 22  2  0  0  0  0
 19 21  1  0  0  0  0
 20 18  1  0  0  0  0
 24 23  1  0  0  0  0
 26 25  1  0  0  0  0
 27 28  1  0  0  0  0
 28 31  1  0  0  0  0
 28 30  2  0  0  0  0
 29 27  1  0  0  0  0
 31 32  1  0  0  0  0
 33 32  1  0  0  0  0
 34 33  2  0  0  0  0
 35 33  1  0  0  0  0
 36 34  1  0  0  0  0
 37 36  1  0  0  0  0
 37 35  2  0  0  0  0
 38 39  1  0  0  0  0
 38 36  1  0  0  0  0
 40 38  1  0  0  0  0
 41 39  1  0  0  0  0
 42 43  1  0  0  0  0
 42 40  1  0  0  0  0
 43 41  1  0  0  0  0
 44 45  1  0  0  0  0
 46 45  1  0  0  0  0
 46 47  1  0  0  0  0
 47 48  1  0  0  0  0
 48 49  1  0  0  0  0
M  END
>  <REMARK>
 VINA RESULT:    -4.661      4.150      7.492
 INTER + INTRA:         -13.862
 INTER:                  -9.639
 INTRA:                  -4.223
 UNBOUND:                -5.796
 SMILES CC(=O)N[C@@H]1[C@@H](O)C[C@](O)(C(=O)O)O[C@H]1C(O)[C@H](O)CNC(=O)OCc1cn(C2CCCCC2)nn1
 SMILES IDX 20 1 18 2 16 3 15 4 9 5 8 6 14 7 6 8 5 9 10 10 11 12 12 13
 SMILES IDX 13 14 7 16 4 18 2 19 1 21 3 22 17 23 19 25 21 27 22 28 23 30
 SMILES IDX 24 31 25 32 26 33 27 34 36 35 28 36 35 37 29 38 30 39 34 40
 SMILES IDX 31 41 33 42 32 43
 H PARENT 10 11 13 15 7 17 4 20 17 24 19 26 21 29
 Flexibility Score: inf
  4 active torsions:
  status: ('A' for Active; 'I' for Inactive)
    1  A    between atoms: CA   and  CB  
    2  A    between atoms: CB   and  CG  
    3  A    between atoms: CG   and  CD  
    4  A    between atoms: CD   and  CE  

>  <TORSDO>
F 15

>  <BEGIN_>
RES LYS A 131

$$$$
ligand_48_pose_15_2HRL.pdbqt
 OpenBabel07062320523D

  6  5  0  0  0  0  0  0  0  0999 V2000
   33.1930   34.6630    9.2900 C   0  0  0  0  0  0  0  0  0  0  0  0
   32.0600   35.3600   10.0340 C   0  0  0  0  0  0  0  0  0  0  0  0
   30.7010   35.1080    9.4340 C   0  0  0  0  0  0  0  0  0  0  0  0
   30.1210   36.3930    8.8620 C   0  0  0  0  0  0  0  0  0  0  0  0
   28.6060   36.3240    8.8280 C   0  0  0  0  0  0  0  0  0  0  0  0
   28.1400   35.1140    8.0950 N   0  0  0  0  0  0  0  0  0  0  0  0
  1  2  1  0  0  0  0
  3  2  1  0  0  0  0
  4  3  1  0  0  0  0
  5  4  1  0  0  0  0
  6  5  1  0  0  0  0
M  END
>  <EGIN_R>
ES LYS A 135

>  <REMARK>
  4 active torsions:
  status: ('A' for Active; 'I' for Inactive)
    5  A    between atoms: CA   and  CB  
    6  A    between atoms: CB   and  CG  
    7  A    between atoms: CG   and  CD  
    8  A    between atoms: CD   and  CE  

$$$$
