ligand_63_pose_11_2HRL.pdbqt
 OpenBabel07062320523D

 51 52  0  0  1  0  0  0  0  0999 V2000
   29.9820   38.5350   11.5610 N   0  0  0  0  0  0  0  0  0  0  0  0
   28.7370   38.6200   12.2730 C   0  0  0  0  0  0  0  0  0  0  0  0
   28.1300   39.6900   12.3890 O   0  0  0  0  0  0  0  0  0  0  0  0
   30.3720   37.5350   11.5280 H   0  0  0  0  0  0  0  0  0  0  0  0
   30.6150   39.5910   10.9300 C   0  0  0  0  0  0  0  0  0  0  0  0
   30.3880   39.7740    9.4080 C   0  0  2  0  0  0  0  0  0  0  0  0
   30.3630   38.3910    8.8810 C   0  0  1  0  0  0  0  0  0  0  0  0
   29.0620   37.7080    8.6550 C   0  0  2  0  0  0  0  0  0  0  0  0
   29.0660   35.4070    8.1680 C   0  0  2  0  0  0  0  0  0  0  0  0
   27.7010   35.4240    7.5250 C   0  0  0  0  0  0  0  0  0  0  0  0
   29.1920   36.3840    9.1580 O   0  0  0  0  0  0  0  0  0  0  0  0
   27.1730   36.8710    7.4400 C   0  0  1  0  0  0  0  0  0  0  0  0
   28.4680   37.7110    7.3210 C   0  0  1  0  0  0  0  0  0  0  0  0
   30.0590   35.4510    7.2020 O   0  0  0  0  0  0  0  0  0  0  0  0
   29.8870   36.0570    6.4660 H   0  0  0  0  0  0  0  0  0  0  0  0
   29.1450   34.1330    8.9120 C   0  0  0  0  0  0  0  0  0  0  0  0
   30.0440   33.4350    9.1820 O   0  0  0  0  0  0  0  0  0  0  0  0
   27.8160   33.6960    9.3920 O   0  0  0  0  0  0  0  0  0  0  0  0
   27.1660   34.4500    9.6260 H   0  0  0  0  0  0  0  0  0  0  0  0
   26.3590   37.0380    6.3490 O   0  0  0  0  0  0  0  0  0  0  0  0
   26.0550   36.1870    5.9880 H   0  0  0  0  0  0  0  0  0  0  0  0
   28.0610   39.0430    6.8500 N   0  0  0  0  0  0  0  0  0  0  0  0
   28.7830   39.6310    5.8010 C   0  0  0  0  0  0  0  0  0  0  0  0
   27.2720   39.4990    7.2670 H   0  0  0  0  0  0  0  0  0  0  0  0
   28.6960   40.8360    5.0620 C   0  0  0  0  0  0  0  0  0  0  0  0
   29.7880   38.7850    5.4350 O   0  0  0  0  0  0  0  0  0  0  0  0
   31.3500   38.1840    7.9610 O   0  0  0  0  0  0  0  0  0  0  0  0
   32.1730   37.7950    8.3610 H   0  0  0  0  0  0  0  0  0  0  0  0
   31.3820   40.6140    8.9960 O   0  0  0  0  0  0  0  0  0  0  0  0
   31.9920   40.8030    9.7520 H   0  0  0  0  0  0  0  0  0  0  0  0
   28.2080   37.4580   12.8380 O   0  0  0  0  0  0  0  0  0  0  0  0
   26.8360   37.4080   13.2840 C   0  0  0  0  0  0  0  0  0  0  0  0
   26.1360   36.7360   12.1290 C   0  0  0  0  0  0  0  0  0  0  0  0
   24.9920   37.1540   11.5180 C   0  0  0  0  0  0  0  0  0  0  0  0
   26.5970   35.6670   11.4790 N   0  0  0  0  0  0  0  0  0  0  0  0
   24.7980   36.2920   10.4720 N   0  0  0  0  0  0  0  0  0  0  0  0
   25.8000   35.4020   10.4850 N   0  0  0  0  0  0  0  0  0  0  0  0
   23.7710   36.3250    9.5340 C   0  0  0  0  0  0  0  0  0  0  0  0
   23.8850   37.1180    8.3890 N   0  0  0  0  0  0  0  0  0  0  0  0
   22.5460   35.7040    9.6560 C   0  0  0  0  0  0  0  0  0  0  0  0
   22.9140   37.2180    7.5820 C   0  0  0  0  0  0  0  0  0  0  0  0
   21.5400   35.8200    8.8050 C   0  0  0  0  0  0  0  0  0  0  0  0
   21.6290   36.6220    7.6310 C   0  0  0  0  0  0  0  0  0  0  0  0
   22.3010   34.8800   10.9020 C   0  0  0  0  0  0  0  0  0  0  0  0
   22.1430   34.3150   11.7250 N   0  0  0  0  0  0  0  0  0  0  0  0
   29.8670   25.5550   16.9770 C   0  0  0  0  0  0  0  0  0  0  0  0
   28.3450   25.7220   17.0260 C   0  0  0  0  0  0  0  0  0  0  0  0
   27.6010   24.4030   16.8870 C   0  0  0  0  0  0  0  0  0  0  0  0
   26.6200   24.1850   18.0050 C   0  0  0  0  0  0  0  0  0  0  0  0
   25.7440   22.9780   17.6860 C   0  0  0  0  0  0  0  0  0  0  0  0
   24.6590   22.8450   18.6870 N   0  0  0  0  0  0  0  0  0  0  0  0
  1  2  1  0  0  0  0
  2  3  2  0  0  0  0
  2 31  1  0  0  0  0
  4  1  1  0  0  0  0
  5  1  1  0  0  0  0
  6  5  1  1  0  0  0
  7 27  1  6  0  0  0
  7  6  1  0  0  0  0
  8  7  1  6  0  0  0
  8 11  1  0  0  0  0
  9 14  1  6  0  0  0
  9 16  1  0  0  0  0
  9 11  1  0  0  0  0
 10  9  1  0  0  0  0
 12 20  1  6  0  0  0
 12 10  1  0  0  0  0
 13 22  1  1  0  0  0
 13 12  1  0  0  0  0
 13  8  1  0  0  0  0
 15 14  1  0  0  0  0
 16 17  2  0  0  0  0
 16 18  1  0  0  0  0
 18 19  1  0  0  0  0
 21 20  1  0  0  0  0
 22 24  1  0  0  0  0
 23 22  1  0  0  0  0
 25 23  1  0  0  0  0
 26 23  2  0  0  0  0
 27 28  1  0  0  0  0
 29  6  1  0  0  0  0
 29 30  1  0  0  0  0
 31 32  1  0  0  0  0
 33 32  1  0  0  0  0
 34 33  2  0  0  0  0
 35 33  1  0  0  0  0
 36 37  1  0  0  0  0
 36 34  1  0  0  0  0
 37 35  2  0  0  0  0
 38 40  1  0  0  0  0
 38 36  1  0  0  0  0
 39 38  2  0  0  0  0
 40 44  1  0  0  0  0
 41 43  2  0  0  0  0
 41 39  1  0  0  0  0
 42 40  2  0  0  0  0
 43 42  1  0  0  0  0
 44 45  3  0  0  0  0
 46 47  1  0  0  0  0
 48 47  1  0  0  0  0
 48 49  1  0  0  0  0
 50 49  1  0  0  0  0
 50 51  1  0  0  0  0
M  END
>  <REMARK>
 VINA RESULT:    -4.117      2.117      5.297
 INTER + INTRA:         -14.409
 INTER:                  -9.057
 INTRA:                  -5.352
 UNBOUND:                -7.042
 SMILES CC(=O)N[C@@H]1[C@@H](O)C[C@](O)(C(=O)O)O[C@H]1C(O)[C@H](O)CNC(=O)OCc1cn(-c2ncccc2C#N)nn1
 SMILES IDX 21 1 22 2 23 3 20 5 18 6 16 7 15 8 9 9 8 10 14 11 6 12 5 13
 SMILES IDX 10 14 11 16 12 17 13 18 7 20 4 22 2 23 1 25 3 26 17 27 19 29
 SMILES IDX 24 31 25 32 26 33 27 34 38 35 28 36 37 37 29 38 30 39 34 40
 SMILES IDX 31 41 33 42 32 43 35 44 36 45
 H PARENT 21 4 10 15 13 19 7 21 4 24 17 28 19 30
 Flexibility Score: inf
  4 active torsions:
  status: ('A' for Active; 'I' for Inactive)
    1  A    between atoms: CA   and  CB  
    2  A    between atoms: CB   and  CG  
    3  A    between atoms: CG   and  CD  
    4  A    between atoms: CD   and  CE  

>  <TORSDO>
F 16

>  <BEGIN_>
RES LYS A 131

$$$$
ligand_63_pose_11_2HRL.pdbqt
 OpenBabel07062320523D

  6  5  0  0  0  0  0  0  0  0999 V2000
   33.1930   34.6630    9.2900 C   0  0  0  0  0  0  0  0  0  0  0  0
   32.0600   35.3600   10.0340 C   0  0  0  0  0  0  0  0  0  0  0  0
   32.5250   36.1780   11.2110 C   0  0  0  0  0  0  0  0  0  0  0  0
   31.9540   35.6260   12.5080 C   0  0  0  0  0  0  0  0  0  0  0  0
   30.6390   34.9140   12.2500 C   0  0  0  0  0  0  0  0  0  0  0  0
   30.0610   34.3820   13.5150 N   0  0  0  0  0  0  0  0  0  0  0  0
  1  2  1  0  0  0  0
  2  3  1  0  0  0  0
  3  4  1  0  0  0  0
  5  4  1  0  0  0  0
  5  6  1  0  0  0  0
M  END
>  <EGIN_R>
ES LYS A 135

>  <REMARK>
  4 active torsions:
  status: ('A' for Active; 'I' for Inactive)
    5  A    between atoms: CA   and  CB  
    6  A    between atoms: CB   and  CG  
    7  A    between atoms: CG   and  CD  
    8  A    between atoms: CD   and  CE  

$$$$
