ligand_11_pose_5_2HRL.pdbqt
 OpenBabel07062320523D

 54 54  0  0  1  0  0  0  0  0999 V2000
   25.8400   29.4130   17.5200 O   0  0  0  0  0  0  0  0  0  0  0  0
   26.2670   28.3350   18.3040 C   0  0  0  0  0  0  0  0  0  0  0  0
   25.8900   28.1800   19.6460 N   0  0  0  0  0  0  0  0  0  0  0  0
   25.2570   28.9540   20.0380 H   0  0  0  0  0  0  0  0  0  0  0  0
   27.0070   27.5050   17.7520 O   0  0  0  0  0  0  0  0  0  0  0  0
   26.2580   27.1130   20.5320 C   0  0  0  0  0  0  0  0  0  0  0  0
   27.3100   27.5280   21.4840 C   0  0  2  0  0  0  0  0  0  0  0  0
   28.5800   28.0050   20.8060 C   0  0  1  0  0  0  0  0  0  0  0  0
   29.6100   28.4400   21.8530 C   0  0  2  0  0  0  0  0  0  0  0  0
   30.6360   30.3890   21.0610 C   0  0  2  0  0  0  0  0  0  0  0  0
   31.4300   29.4560   20.1920 C   0  0  0  0  0  0  0  0  0  0  0  0
   29.7750   29.7840   21.9240 O   0  0  0  0  0  0  0  0  0  0  0  0
   31.8850   28.2010   20.8450 C   0  0  1  0  0  0  0  0  0  0  0  0
   30.8580   27.6130   21.7690 C   0  0  1  0  0  0  0  0  0  0  0  0
   29.8830   31.1790   20.1910 O   0  0  0  0  0  0  0  0  0  0  0  0
   30.3800   31.4050   19.3780 H   0  0  0  0  0  0  0  0  0  0  0  0
   31.5550   31.2920   21.7990 C   0  0  0  0  0  0  0  0  0  0  0  0
   31.7100   31.1550   23.0360 O   0  0  0  0  0  0  0  0  0  0  0  0
   32.2650   32.3050   21.1620 O   0  0  0  0  0  0  0  0  0  0  0  0
   32.5910   32.0970   20.2180 H   0  0  0  0  0  0  0  0  0  0  0  0
   32.1720   27.2760   19.8430 O   0  0  0  0  0  0  0  0  0  0  0  0
   31.7480   26.3970   20.0320 H   0  0  0  0  0  0  0  0  0  0  0  0
   31.3540   27.4140   23.0990 N   0  0  0  0  0  0  0  0  0  0  0  0
   30.8060   26.3840   23.9040 C   0  0  0  0  0  0  0  0  0  0  0  0
   32.1260   28.0330   23.4810 H   0  0  0  0  0  0  0  0  0  0  0  0
   31.3140   26.1750   25.2760 C   0  0  0  0  0  0  0  0  0  0  0  0
   29.8870   25.6230   23.4950 O   0  0  0  0  0  0  0  0  0  0  0  0
   29.1060   26.9750   20.0510 O   0  0  0  0  0  0  0  0  0  0  0  0
   28.5410   26.1720   20.1760 H   0  0  0  0  0  0  0  0  0  0  0  0
   27.5320   26.6200   22.4680 O   0  0  0  0  0  0  0  0  0  0  0  0
   28.4530   26.5790   22.8100 H   0  0  0  0  0  0  0  0  0  0  0  0
   26.4080   29.6110   16.2280 C   0  0  0  0  0  0  0  0  0  0  0  0
   27.4070   30.6710   16.2220 C   0  0  0  0  0  0  0  0  0  0  0  0
   28.7040   30.6240   16.6570 C   0  0  0  0  0  0  0  0  0  0  0  0
   27.2320   31.9230   15.7730 N   0  0  0  0  0  0  0  0  0  0  0  0
   29.2900   31.8150   16.4740 N   0  0  0  0  0  0  0  0  0  0  0  0
   28.3650   32.5850   15.9320 N   0  0  0  0  0  0  0  0  0  0  0  0
   30.6350   32.2760   16.7680 C   0  0  1  0  0  0  0  0  0  0  0  0
   31.4160   32.4310   15.5150 C   0  0  0  0  0  0  0  0  0  0  0  0
   31.9700   33.7810   15.2490 C   0  0  0  0  0  0  0  0  0  0  0  0
   31.2020   34.5530   14.2740 C   0  0  0  0  0  0  0  0  0  0  0  0
   30.2110   35.2800   14.6300 O   0  0  0  0  0  0  0  0  0  0  0  0
   31.5460   34.5050   12.9210 O   0  0  0  0  0  0  0  0  0  0  0  0
   31.2670   33.6840   12.4010 H   0  0  0  0  0  0  0  0  0  0  0  0
   30.6840   33.3640   17.7300 C   0  0  0  0  0  0  0  0  0  0  0  0
   31.4250   33.4350   18.7090 O   0  0  0  0  0  0  0  0  0  0  0  0
   29.7920   34.4340   17.5220 O   0  0  0  0  0  0  0  0  0  0  0  0
   29.3370   34.5150   16.6300 H   0  0  0  0  0  0  0  0  0  0  0  0
   29.8670   25.5550   16.9770 C   0  0  0  0  0  0  0  0  0  0  0  0
   28.3450   25.7220   17.0260 C   0  0  0  0  0  0  0  0  0  0  0  0
   27.5990   24.4590   16.6250 C   0  0  0  0  0  0  0  0  0  0  0  0
   27.0750   23.7080   17.8180 C   0  0  0  0  0  0  0  0  0  0  0  0
   25.5690   23.5130   17.6760 C   0  0  0  0  0  0  0  0  0  0  0  0
   24.8370   24.5240   18.4740 N   0  0  0  0  0  0  0  0  0  0  0  0
  1  2  1  0  0  0  0
  2  3  1  0  0  0  0
  3  4  1  0  0  0  0
  3  6  1  0  0  0  0
  5  2  2  0  0  0  0
  7  6  1  6  0  0  0
  7 30  1  0  0  0  0
  8 28  1  1  0  0  0
  8  7  1  0  0  0  0
  9  8  1  6  0  0  0
  9 12  1  0  0  0  0
 10 15  1  6  0  0  0
 10 17  1  0  0  0  0
 10 12  1  0  0  0  0
 11 13  1  0  0  0  0
 11 10  1  0  0  0  0
 13 21  1  6  0  0  0
 13 14  1  0  0  0  0
 14  9  1  0  0  0  0
 14 23  1  1  0  0  0
 16 15  1  0  0  0  0
 17 18  2  0  0  0  0
 19 17  1  0  0  0  0
 20 19  1  0  0  0  0
 21 22  1  0  0  0  0
 23 25  1  0  0  0  0
 23 24  1  0  0  0  0
 24 26  1  0  0  0  0
 27 24  2  0  0  0  0
 28 29  1  0  0  0  0
 30 31  1  0  0  0  0
 32  1  1  0  0  0  0
 33 32  1  0  0  0  0
 33 34  2  0  0  0  0
 35 37  2  0  0  0  0
 35 33  1  0  0  0  0
 36 34  1  0  0  0  0
 36 38  1  0  0  0  0
 37 36  1  0  0  0  0
 38 39  1  6  0  0  0
 38 45  1  0  0  0  0
 40 39  1  0  0  0  0
 41 42  2  0  0  0  0
 41 40  1  0  0  0  0
 43 41  1  0  0  0  0
 44 43  1  0  0  0  0
 45 46  2  0  0  0  0
 47 45  1  0  0  0  0
 48 47  1  0  0  0  0
 49 50  1  0  0  0  0
 51 50  1  0  0  0  0
 51 52  1  0  0  0  0
 53 52  1  0  0  0  0
 53 54  1  0  0  0  0
M  END
>  <REMARK>
 VINA RESULT:    -4.016      6.616     12.562
 INTER + INTRA:         -15.563
 INTER:                  -9.598
 INTRA:                  -5.964
 UNBOUND:                -7.438
 SMILES CC(=O)N[C@@H]1[C@@H](O)C[C@](O)(C(=O)O)O[C@H]1C(O)[C@H](O)CNC(=O)OCc1cn([C@@H](CCC(=O)O)C(=O)O)nn1
 SMILES IDX 24 1 22 2 21 3 23 5 20 6 18 7 16 8 15 9 9 10 8 11 14 12 6 13
 SMILES IDX 5 14 10 15 11 17 12 18 13 19 7 21 4 23 2 24 1 26 3 27 17 28
 SMILES IDX 19 30 25 32 26 33 27 34 39 35 28 36 38 37 29 38 30 39 31 40
 SMILES IDX 32 41 33 42 34 43 35 45 36 46 37 47
 H PARENT 21 4 10 16 13 20 7 22 4 25 17 29 19 31 34 44 37 48
 Flexibility Score: inf
  4 active torsions:
  status: ('A' for Active; 'I' for Inactive)
    1  A    between atoms: CA   and  CB  
    2  A    between atoms: CB   and  CG  
    3  A    between atoms: CG   and  CD  
    4  A    between atoms: CD   and  CE  

>  <TORSDO>
F 21

>  <BEGIN_>
RES LYS A 131

$$$$
ligand_11_pose_5_2HRL.pdbqt
 OpenBabel07062320523D

  6  5  0  0  0  0  0  0  0  0999 V2000
   33.1930   34.6630    9.2900 C   0  0  0  0  0  0  0  0  0  0  0  0
   32.0600   35.3600   10.0340 C   0  0  0  0  0  0  0  0  0  0  0  0
   30.7790   35.4370    9.2450 C   0  0  0  0  0  0  0  0  0  0  0  0
   29.8290   34.3210    9.6520 C   0  0  0  0  0  0  0  0  0  0  0  0
   28.5400   34.8940   10.2090 C   0  0  0  0  0  0  0  0  0  0  0  0
   28.4500   34.6810   11.6800 N   0  0  0  0  0  0  0  0  0  0  0  0
  1  2  1  0  0  0  0
  3  4  1  0  0  0  0
  3  2  1  0  0  0  0
  4  5  1  0  0  0  0
  5  6  1  0  0  0  0
M  END
>  <EGIN_R>
ES LYS A 135

>  <REMARK>
  4 active torsions:
  status: ('A' for Active; 'I' for Inactive)
    5  A    between atoms: CA   and  CB  
    6  A    between atoms: CB   and  CG  
    7  A    between atoms: CG   and  CD  
    8  A    between atoms: CD   and  CE  

$$$$
