ligand_41_pose_17_2HRL.pdbqt
 OpenBabel07062320523D

 52 53  0  0  1  0  0  0  0  0999 V2000
   21.4780   37.8340   11.9550 N   0  0  0  0  0  0  0  0  0  0  0  0
   21.3150   36.9580   13.0830 C   0  0  0  0  0  0  0  0  0  0  0  0
   20.5760   37.3210   14.0290 O   0  0  0  0  0  0  0  0  0  0  0  0
   22.0920   37.4950   11.1880 H   0  0  0  0  0  0  0  0  0  0  0  0
   20.8130   39.1040   11.9340 C   0  0  0  0  0  0  0  0  0  0  0  0
   19.6350   39.2250   11.0250 C   0  0  2  0  0  0  0  0  0  0  0  0
   19.8780   38.7340    9.6280 C   0  0  2  0  0  0  0  0  0  0  0  0
   19.2450   37.4050    9.3130 C   0  0  2  0  0  0  0  0  0  0  0  0
   19.3040   35.1490    9.8030 C   0  0  2  0  0  0  0  0  0  0  0  0
   19.4660   34.7330    8.3530 C   0  0  0  0  0  0  0  0  0  0  0  0
   19.8100   36.3830    9.9950 O   0  0  0  0  0  0  0  0  0  0  0  0
   19.9200   35.8640    7.4920 C   0  0  1  0  0  0  0  0  0  0  0  0
   19.2780   37.1600    7.8200 C   0  0  1  0  0  0  0  0  0  0  0  0
   20.1050   34.1940   10.5180 O   0  0  0  0  0  0  0  0  0  0  0  0
   19.6940   34.0580   11.4270 H   0  0  0  0  0  0  0  0  0  0  0  0
   17.9270   34.8870   10.2350 C   0  0  0  0  0  0  0  0  0  0  0  0
   16.9970   34.6030    9.4470 O   0  0  0  0  0  0  0  0  0  0  0  0
   17.5720   34.9400   11.5850 O   0  0  0  0  0  0  0  0  0  0  0  0
   16.6710   35.3110   11.8650 H   0  0  0  0  0  0  0  0  0  0  0  0
   21.3100   36.0000    7.6480 O   0  0  0  0  0  0  0  0  0  0  0  0
   21.7870   36.0300    6.7840 H   0  0  0  0  0  0  0  0  0  0  0  0
   18.0120   37.3060    7.1750 N   0  0  0  0  0  0  0  0  0  0  0  0
   17.4800   38.5670    6.7880 C   0  0  0  0  0  0  0  0  0  0  0  0
   17.4450   36.4630    6.9700 H   0  0  0  0  0  0  0  0  0  0  0  0
   16.1570   38.6640    6.1190 C   0  0  0  0  0  0  0  0  0  0  0  0
   18.1100   39.6350    6.9970 O   0  0  0  0  0  0  0  0  0  0  0  0
   21.1670   38.8930    9.1870 O   0  0  0  0  0  0  0  0  0  0  0  0
   21.1210   39.0550    8.1980 H   0  0  0  0  0  0  0  0  0  0  0  0
   19.4130   40.6570   10.8830 O   0  0  0  0  0  0  0  0  0  0  0  0
   18.7740   40.7070   10.1230 H   0  0  0  0  0  0  0  0  0  0  0  0
   21.9360   35.7350   13.1760 O   0  0  0  0  0  0  0  0  0  0  0  0
   23.3400   35.5880   12.9750 C   0  0  0  0  0  0  0  0  0  0  0  0
   23.6800   35.5470   11.5310 C   0  0  0  0  0  0  0  0  0  0  0  0
   24.8500   35.9200   10.9240 C   0  0  0  0  0  0  0  0  0  0  0  0
   22.8690   35.1190   10.5250 N   0  0  0  0  0  0  0  0  0  0  0  0
   24.7130   35.7090    9.5740 N   0  0  0  0  0  0  0  0  0  0  0  0
   23.5010   35.2250    9.3840 N   0  0  0  0  0  0  0  0  0  0  0  0
   25.6430   35.9900    8.5420 C   0  0  0  0  0  0  0  0  0  0  0  0
   25.6610   37.1200    7.7990 C   0  0  0  0  0  0  0  0  0  0  0  0
   26.6030   34.9740    8.3370 C   0  0  0  0  0  0  0  0  0  0  0  0
   26.6490   37.2680    6.8200 C   0  0  0  0  0  0  0  0  0  0  0  0
   27.5670   35.1330    7.3730 C   0  0  0  0  0  0  0  0  0  0  0  0
   27.5710   36.2830    6.6290 C   0  0  0  0  0  0  0  0  0  0  0  0
   24.7110   38.2010    7.9390 C   0  0  2  0  0  0  0  0  0  0  0  0
   23.5340   38.0020    7.4330 O   0  0  0  0  0  0  0  0  0  0  0  0
   24.9140   39.4990    8.5840 C   0  0  0  0  0  0  0  0  0  0  0  0
   29.8670   25.5550   16.9770 C   0  0  0  0  0  0  0  0  0  0  0  0
   28.3450   25.7220   17.0260 C   0  0  0  0  0  0  0  0  0  0  0  0
   27.6010   24.4020   16.8930 C   0  0  0  0  0  0  0  0  0  0  0  0
   26.2490   24.4450   17.5500 C   0  0  0  0  0  0  0  0  0  0  0  0
   25.6510   23.0420   17.5750 C   0  0  0  0  0  0  0  0  0  0  0  0
   24.2610   23.0620   17.0610 N   0  0  0  0  0  0  0  0  0  0  0  0
  1  2  1  0  0  0  0
  2 31  1  0  0  0  0
  2  3  2  0  0  0  0
  4  1  1  0  0  0  0
  5  1  1  0  0  0  0
  6  5  1  1  0  0  0
  7 27  1  1  0  0  0
  7  6  1  0  0  0  0
  8  7  1  6  0  0  0
  8 11  1  0  0  0  0
  9 11  1  0  0  0  0
  9 16  1  1  0  0  0
  9 14  1  0  0  0  0
 10  9  1  0  0  0  0
 12 20  1  1  0  0  0
 12 13  1  0  0  0  0
 12 10  1  0  0  0  0
 13 22  1  1  0  0  0
 13  8  1  0  0  0  0
 14 15  1  0  0  0  0
 16 18  1  0  0  0  0
 17 16  2  0  0  0  0
 18 19  1  0  0  0  0
 21 20  1  0  0  0  0
 23 26  2  0  0  0  0
 23 22  1  0  0  0  0
 24 22  1  0  0  0  0
 25 23  1  0  0  0  0
 28 27  1  0  0  0  0
 29  6  1  0  0  0  0
 30 29  1  0  0  0  0
 32 31  1  0  0  0  0
 33 32  1  0  0  0  0
 34 33  2  0  0  0  0
 35 33  1  0  0  0  0
 36 34  1  0  0  0  0
 37 36  1  0  0  0  0
 37 35  2  0  0  0  0
 38 36  1  0  0  0  0
 39 44  1  0  0  0  0
 39 38  2  0  0  0  0
 40 38  1  0  0  0  0
 41 39  1  0  0  0  0
 42 40  2  0  0  0  0
 43 41  2  0  0  0  0
 43 42  1  0  0  0  0
 44 46  1  6  0  0  0
 45 44  1  0  0  0  0
 47 48  1  0  0  0  0
 49 48  1  0  0  0  0
 49 50  1  0  0  0  0
 50 51  1  0  0  0  0
 52 51  1  0  0  0  0
M  END
>  <REMARK>
 VINA RESULT:    -4.279      6.187     10.664
 INTER + INTRA:         -14.460
 INTER:                  -8.050
 INTRA:                  -6.409
 UNBOUND:                -6.804
 SMILES CC(=O)N[C@@H]1[C@@H](O)C[C@](O)(C(=O)O)O[C@H]1C(O)[C@H](O)CNC(=O)OCc1cn(-c2ccccc2C(C)=O)nn1
 SMILES IDX 21 1 22 2 23 3 20 5 18 6 16 7 15 8 9 9 8 10 14 11 6 12 5 13
 SMILES IDX 10 14 11 16 12 17 13 18 7 20 4 22 2 23 1 25 3 26 17 27 19 29
 SMILES IDX 24 31 25 32 26 33 27 34 39 35 28 36 38 37 29 38 34 39 30 40
 SMILES IDX 33 41 31 42 32 43 35 44 37 45 36 46
 H PARENT 21 4 10 15 13 19 7 21 4 24 17 28 19 30
 Flexibility Score: inf
  4 active torsions:
  status: ('A' for Active; 'I' for Inactive)
    1  A    between atoms: CA   and  CB  
    2  A    between atoms: CB   and  CG  
    3  A    between atoms: CG   and  CD  
    4  A    between atoms: CD   and  CE  

>  <TORSDO>
F 16

>  <BEGIN_>
RES LYS A 131

$$$$
ligand_41_pose_17_2HRL.pdbqt
 OpenBabel07062320523D

  6  5  0  0  0  0  0  0  0  0999 V2000
   33.1930   34.6630    9.2900 C   0  0  0  0  0  0  0  0  0  0  0  0
   32.0600   35.3600   10.0340 C   0  0  0  0  0  0  0  0  0  0  0  0
   30.7060   35.1460    9.4080 C   0  0  0  0  0  0  0  0  0  0  0  0
   29.6770   34.7790   10.4660 C   0  0  0  0  0  0  0  0  0  0  0  0
   30.1360   35.2380   11.8370 C   0  0  0  0  0  0  0  0  0  0  0  0
   29.4110   34.5120   12.9160 N   0  0  0  0  0  0  0  0  0  0  0  0
  1  2  1  0  0  0  0
  3  2  1  0  0  0  0
  3  4  1  0  0  0  0
  4  5  1  0  0  0  0
  5  6  1  0  0  0  0
M  END
>  <EGIN_R>
ES LYS A 135

>  <REMARK>
  4 active torsions:
  status: ('A' for Active; 'I' for Inactive)
    5  A    between atoms: CA   and  CB  
    6  A    between atoms: CB   and  CG  
    7  A    between atoms: CG   and  CD  
    8  A    between atoms: CD   and  CE  

$$$$
