ligand_80_pose_1_2HRL.pdbqt
 OpenBabel07062320523D

 56 54  0  0  1  0  0  0  0  0999 V2000
   25.8320   36.4400   16.3620 O   0  0  0  0  0  0  0  0  0  0  0  0
   26.9020   36.4380   17.2240 C   0  0  0  0  0  0  0  0  0  0  0  0
   28.1530   37.0130   16.8190 N   0  0  0  0  0  0  0  0  0  0  0  0
   28.1820   37.4180   15.8540 H   0  0  0  0  0  0  0  0  0  0  0  0
   26.8340   35.9430   18.3770 O   0  0  0  0  0  0  0  0  0  0  0  0
   29.3090   37.0300   17.6960 C   0  0  0  0  0  0  0  0  0  0  0  0
   30.5250   36.6540   16.8860 C   0  0  2  0  0  0  0  0  0  0  0  0
   30.8010   35.1660   16.9100 C   0  0  2  0  0  0  0  0  0  0  0  0
   30.9260   34.6200   15.4790 C   0  0  2  0  0  0  0  0  0  0  0  0
   31.3240   35.5620   13.3680 C   0  0  2  0  0  0  0  0  0  0  0  0
   30.4380   34.4810   12.8330 C   0  0  0  0  0  0  0  0  0  0  0  0
   31.4760   35.5840   14.7270 O   0  0  0  0  0  0  0  0  0  0  0  0
   29.1770   34.5080   13.6810 C   0  0  1  0  0  0  0  0  0  0  0  0
   29.5690   34.1330   15.0880 C   0  0  1  0  0  0  0  0  0  0  0  0
   30.7490   36.8040   13.0260 O   0  0  0  0  0  0  0  0  0  0  0  0
   31.3300   37.4830   13.4580 H   0  0  0  0  0  0  0  0  0  0  0  0
   32.6780   35.5350   12.7610 C   0  0  0  0  0  0  0  0  0  0  0  0
   32.9780   36.3850   11.8950 O   0  0  0  0  0  0  0  0  0  0  0  0
   33.6360   34.5920   13.1220 O   0  0  0  0  0  0  0  0  0  0  0  0
   34.3020   34.8790   13.8540 H   0  0  0  0  0  0  0  0  0  0  0  0
   28.7110   35.8190   13.6820 O   0  0  0  0  0  0  0  0  0  0  0  0
   29.4030   36.3810   14.1060 H   0  0  0  0  0  0  0  0  0  0  0  0
   29.5830   32.6820   15.1480 N   0  0  0  0  0  0  0  0  0  0  0  0
   28.5960   31.9150   15.8210 C   0  0  0  0  0  0  0  0  0  0  0  0
   30.3750   32.1600   14.6610 H   0  0  0  0  0  0  0  0  0  0  0  0
   28.7190   30.4380   15.8130 C   0  0  0  0  0  0  0  0  0  0  0  0
   27.6570   32.5220   16.3990 O   0  0  0  0  0  0  0  0  0  0  0  0
   29.6820   34.5670   17.5000 O   0  0  0  0  0  0  0  0  0  0  0  0
   29.0300   35.2140   17.8440 H   0  0  0  0  0  0  0  0  0  0  0  0
   31.6450   37.3680   17.2950 O   0  0  0  0  0  0  0  0  0  0  0  0
   32.1220   36.9370   18.0350 H   0  0  0  0  0  0  0  0  0  0  0  0
   25.8310   37.2170   15.1760 C   0  0  0  0  0  0  0  0  0  0  0  0
   25.2450   36.4630   14.0400 C   0  0  0  0  0  0  0  0  0  0  0  0
   25.7100   36.5310   12.7220 C   0  0  0  0  0  0  0  0  0  0  0  0
   24.2090   35.6050   14.0010 N   0  0  0  0  0  0  0  0  0  0  0  0
   24.9530   35.7310   11.9520 N   0  0  0  0  0  0  0  0  0  0  0  0
   24.0620   35.1910   12.7550 N   0  0  0  0  0  0  0  0  0  0  0  0
   25.0870   35.5160   10.5280 *   0  0  0  0  0  0  0  0  0  0  0  0
   24.7590   36.7500    9.7600 C   0  0  0  0  0  0  0  0  0  0  0  0
   25.4170   37.4110    8.6960 N   0  0  0  0  0  0  0  0  0  0  0  0
   23.6910   37.2820   10.1530 O   0  0  0  0  0  0  0  0  0  0  0  0
   25.1540   38.3950    8.4730 H   0  0  0  0  0  0  0  0  0  0  0  0
   26.4460   36.8780    7.8430 C   0  0  0  0  0  0  0  0  0  0  0  0
   26.9760   35.6010    7.8710 C   0  0  0  0  0  0  0  0  0  0  0  0
   26.8730   37.8300    6.9380 C   0  0  0  0  0  0  0  0  0  0  0  0
   27.9500   35.2850    6.9750 C   0  0  0  0  0  0  0  0  0  0  0  0
   27.8580   37.5070    6.0300 C   0  0  0  0  0  0  0  0  0  0  0  0
   28.3850   36.2360    6.0600 C   0  0  0  0  0  0  0  0  0  0  0  0
   26.5950   34.5000    8.7960 C   0  0  0  0  0  0  0  0  0  0  0  0
   26.4690   34.9730   10.2350 *   0  0  0  0  0  0  0  0  0  0  0  0
   29.8670   25.5550   16.9770 C   0  0  0  0  0  0  0  0  0  0  0  0
   28.3450   25.7220   17.0260 C   0  0  0  0  0  0  0  0  0  0  0  0
   27.6120   24.4050   17.2300 C   0  0  0  0  0  0  0  0  0  0  0  0
   26.4060   24.5580   18.1140 C   0  0  0  0  0  0  0  0  0  0  0  0
   25.1400   24.3520   17.2890 C   0  0  0  0  0  0  0  0  0  0  0  0
   24.7290   22.9290   17.3170 N   0  0  0  0  0  0  0  0  0  0  0  0
  1  2  1  0  0  0  0
  2  5  2  0  0  0  0
  3  2  1  0  0  0  0
  3  6  1  0  0  0  0
  4  3  1  0  0  0  0
  7  8  1  0  0  0  0
  7 30  1  0  0  0  0
  7  6  1  1  0  0  0
  8 28  1  6  0  0  0
  9  8  1  1  0  0  0
 10 17  1  6  0  0  0
 10 12  1  0  0  0  0
 11 10  1  0  0  0  0
 11 13  1  0  0  0  0
 12  9  1  0  0  0  0
 13 21  1  1  0  0  0
 13 14  1  0  0  0  0
 14 23  1  6  0  0  0
 14  9  1  0  0  0  0
 15 10  1  0  0  0  0
 15 16  1  0  0  0  0
 17 19  1  0  0  0  0
 18 17  2  0  0  0  0
 19 20  1  0  0  0  0
 21 22  1  0  0  0  0
 23 24  1  0  0  0  0
 24 27  2  0  0  0  0
 25 23  1  0  0  0  0
 26 24  1  0  0  0  0
 28 29  1  0  0  0  0
 30 31  1  0  0  0  0
 32  1  1  0  0  0  0
 33 32  1  0  0  0  0
 34 33  2  0  0  0  0
 35 33  1  0  0  0  0
 36 34  1  0  0  0  0
 36 37  2  0  0  0  0
 37 35  1  0  0  0  0
 39 41  2  0  0  0  0
 40 39  1  0  0  0  0
 42 40  1  0  0  0  0
 43 44  1  0  0  0  0
 43 40  1  0  0  0  0
 44 49  1  0  0  0  0
 45 43  2  0  0  0  0
 46 44  2  0  0  0  0
 47 48  2  0  0  0  0
 47 45  1  0  0  0  0
 48 46  1  0  0  0  0
 51 52  1  0  0  0  0
 52 53  1  0  0  0  0
 53 54  1  0  0  0  0
 55 56  1  0  0  0  0
 55 54  1  0  0  0  0
M  END
>  <REMARK>
 VINA RESULT:    -9.358      3.188      5.474
 INTER + INTRA:         -13.829
 INTER:                  -9.687
 INTRA:                  -4.142
 UNBOUND:                 4.555
 SMILES CC(=O)N[C@@H]1[C@@H](O)C[C@](O)(C(=O)O)O[C@H]1C(O)[C@H](O)CNC(=O)OCc1cn(C2CCc3ccccc3NC2=O)nn1
 SMILES IDX 24 1 22 2 21 3 23 5 20 6 18 7 16 8 15 9 9 10 8 11 14 12 6 13
 SMILES IDX 5 14 10 15 11 17 12 18 13 19 7 21 4 23 2 24 1 26 3 27 17 28
 SMILES IDX 19 30 25 32 26 33 27 34 42 35 28 36 41 37 29 38 39 40 38 41
 SMILES IDX 40 42 37 44 32 45 36 46 33 47 35 48 34 49 31 50 30 51
 H PARENT 21 4 10 16 13 20 7 22 4 25 17 29 19 31 38 43
 Flexibility Score: 80.00
  4 active torsions:
  status: ('A' for Active; 'I' for Inactive)
    1  A    between atoms: CA   and  CB  
    2  A    between atoms: CB   and  CG  
    3  A    between atoms: CG   and  CD  
    4  A    between atoms: CD   and  CE  

>  <TORSDO>
F 15

>  <BEGIN_>
RES LYS A 131

$$$$
ligand_80_pose_1_2HRL.pdbqt
 OpenBabel07062320523D

  6  5  0  0  0  0  0  0  0  0999 V2000
   33.1930   34.6630    9.2900 C   0  0  0  0  0  0  0  0  0  0  0  0
   32.0600   35.3600   10.0340 C   0  0  0  0  0  0  0  0  0  0  0  0
   30.7800   35.4410    9.2430 C   0  0  0  0  0  0  0  0  0  0  0  0
   29.8210   36.4390    9.8740 C   0  0  0  0  0  0  0  0  0  0  0  0
   29.9380   37.7910    9.1970 C   0  0  0  0  0  0  0  0  0  0  0  0
   30.2890   38.8540   10.1780 N   0  0  0  0  0  0  0  0  0  0  0  0
  1  2  1  0  0  0  0
  3  4  1  0  0  0  0
  3  2  1  0  0  0  0
  5  4  1  0  0  0  0
  5  6  1  0  0  0  0
M  END
>  <EGIN_R>
ES LYS A 135

>  <REMARK>
  4 active torsions:
  status: ('A' for Active; 'I' for Inactive)
    5  A    between atoms: CA   and  CB  
    6  A    between atoms: CB   and  CG  
    7  A    between atoms: CG   and  CD  
    8  A    between atoms: CD   and  CE  

$$$$
