ligand_86_pose_13_2HRL.pdbqt
 OpenBabel07062320523D

 52 54  0  0  1  0  0  0  0  0999 V2000
   26.4280   37.5120   11.3260 C   0  0  0  0  0  0  0  0  0  0  0  0
   26.1090   36.6020   10.1900 C   0  0  2  0  0  0  0  0  0  0  0  0
   25.6620   37.3100    8.9490 C   0  0  2  0  0  0  0  0  0  0  0  0
   24.1760   37.5840    8.9350 C   0  0  2  0  0  0  0  0  0  0  0  0
   22.1960   36.7950    8.0390 C   0  0  2  0  0  0  0  0  0  0  0  0
   21.7020   38.0440    8.7200 C   0  0  0  0  0  0  0  0  0  0  0  0
   23.5360   36.5390    8.2830 O   0  0  0  0  0  0  0  0  0  0  0  0
   22.5110   39.2630    8.3970 C   0  0  1  0  0  0  0  0  0  0  0  0
   23.9270   38.8360    8.1200 C   0  0  1  0  0  0  0  0  0  0  0  0
   21.9320   36.7910    6.6710 O   0  0  0  0  0  0  0  0  0  0  0  0
   20.9690   36.6620    6.5060 H   0  0  0  0  0  0  0  0  0  0  0  0
   21.4290   35.6490    8.6230 C   0  0  0  0  0  0  0  0  0  0  0  0
   21.3970   35.4640    9.8860 O   0  0  0  0  0  0  0  0  0  0  0  0
   20.7290   34.7470    7.8560 O   0  0  0  0  0  0  0  0  0  0  0  0
   19.8090   35.0350    7.5010 H   0  0  0  0  0  0  0  0  0  0  0  0
   21.9620   40.0510    7.4130 O   0  0  0  0  0  0  0  0  0  0  0  0
   21.9560   39.5260    6.5700 H   0  0  0  0  0  0  0  0  0  0  0  0
   24.8960   39.8690    8.3860 N   0  0  0  0  0  0  0  0  0  0  0  0
   25.3440   40.7770    7.3800 C   0  0  0  0  0  0  0  0  0  0  0  0
   25.3060   39.9840    9.3400 H   0  0  0  0  0  0  0  0  0  0  0  0
   26.3400   41.8140    7.7190 C   0  0  0  0  0  0  0  0  0  0  0  0
   24.8630   40.6560    6.2300 O   0  0  0  0  0  0  0  0  0  0  0  0
   25.9620   36.5190    7.8410 O   0  0  0  0  0  0  0  0  0  0  0  0
   25.1930   36.0060    7.5350 H   0  0  0  0  0  0  0  0  0  0  0  0
   25.1000   35.6780   10.5500 O   0  0  0  0  0  0  0  0  0  0  0  0
   24.2560   36.0610   10.1790 H   0  0  0  0  0  0  0  0  0  0  0  0
   27.8350   37.8220   11.4060 N   0  0  0  0  0  0  0  0  0  0  0  0
   28.7260   36.8990   12.0140 C   0  0  0  0  0  0  0  0  0  0  0  0
   28.2460   38.7090   11.0290 H   0  0  0  0  0  0  0  0  0  0  0  0
   28.3510   35.7990   12.5040 O   0  0  0  0  0  0  0  0  0  0  0  0
   30.0950   37.1460   12.1170 O   0  0  0  0  0  0  0  0  0  0  0  0
   30.7180   37.4940   13.3370 C   0  0  0  0  0  0  0  0  0  0  0  0
   31.4460   36.3190   13.8890 C   0  0  0  0  0  0  0  0  0  0  0  0
   30.9780   35.4940   14.8900 C   0  0  0  0  0  0  0  0  0  0  0  0
   32.6510   35.8230   13.5560 N   0  0  0  0  0  0  0  0  0  0  0  0
   31.9020   34.5250   15.1390 N   0  0  0  0  0  0  0  0  0  0  0  0
   32.8960   34.7730   14.3030 N   0  0  0  0  0  0  0  0  0  0  0  0
   31.8080   33.4490   16.1220 C   0  0  2  0  0  0  0  0  0  0  0  0
   31.0840   32.3160   15.4950 C   0  0  0  0  0  0  0  0  0  0  0  0
   31.1820   34.0090   17.3490 C   0  0  0  0  0  0  0  0  0  0  0  0
   30.2460   31.5020   16.4150 C   0  0  1  0  0  0  0  0  0  0  0  0
   30.1090   33.1380   17.9480 C   0  0  2  0  0  0  0  0  0  0  0  0
   30.5450   31.7600   17.8050 N   0  0  0  0  0  0  0  0  0  0  0  0
   28.8110   31.9910   16.3020 C   0  0  0  0  0  0  0  0  0  0  0  0
   28.8680   33.2770   17.1030 C   0  0  0  0  0  0  0  0  0  0  0  0
   29.7980   30.8620   18.6490 C   0  0  0  0  0  0  0  0  0  0  0  0
   29.8670   25.5550   16.9770 C   0  0  0  0  0  0  0  0  0  0  0  0
   28.3450   25.7220   17.0260 C   0  0  0  0  0  0  0  0  0  0  0  0
   27.6020   24.3970   16.9470 C   0  0  0  0  0  0  0  0  0  0  0  0
   26.5320   24.2840   17.9970 C   0  0  0  0  0  0  0  0  0  0  0  0
   25.1840   24.0410   17.3250 C   0  0  0  0  0  0  0  0  0  0  0  0
   24.8140   22.6090   17.4080 N   0  0  0  0  0  0  0  0  0  0  0  0
  1 27  1  0  0  0  0
  2 25  1  0  0  0  0
  2  1  1  1  0  0  0
  3 23  1  6  0  0  0
  3  2  1  0  0  0  0
  4  3  1  6  0  0  0
  5 10  1  6  0  0  0
  5  7  1  0  0  0  0
  5 12  1  0  0  0  0
  5  6  1  0  0  0  0
  7  4  1  0  0  0  0
  8 16  1  6  0  0  0
  8  6  1  0  0  0  0
  9 18  1  1  0  0  0
  9  8  1  0  0  0  0
  9  4  1  0  0  0  0
 11 10  1  0  0  0  0
 12 13  2  0  0  0  0
 14 12  1  0  0  0  0
 15 14  1  0  0  0  0
 17 16  1  0  0  0  0
 18 20  1  0  0  0  0
 19 21  1  0  0  0  0
 19 18  1  0  0  0  0
 22 19  2  0  0  0  0
 24 23  1  0  0  0  0
 26 25  1  0  0  0  0
 27 28  1  0  0  0  0
 28 31  1  0  0  0  0
 28 30  2  0  0  0  0
 29 27  1  0  0  0  0
 31 32  1  0  0  0  0
 32 33  1  0  0  0  0
 33 34  2  0  0  0  0
 34 36  1  0  0  0  0
 35 33  1  0  0  0  0
 35 37  2  0  0  0  0
 37 36  1  0  0  0  0
 38 36  1  6  0  0  0
 38 40  1  0  0  0  0
 39 38  1  0  0  0  0
 40 42  1  0  0  0  0
 41 39  1  6  0  0  0
 41 43  1  0  0  0  0
 42 45  1  6  0  0  0
 43 42  1  0  0  0  0
 43 46  1  0  0  0  0
 44 41  1  0  0  0  0
 44 45  1  0  0  0  0
 47 48  1  0  0  0  0
 49 48  1  0  0  0  0
 49 50  1  0  0  0  0
 51 52  1  0  0  0  0
 51 50  1  0  0  0  0
M  END
>  <REMARK>
 VINA RESULT:    -4.232      6.174     11.525
 INTER + INTRA:         -13.880
 INTER:                  -9.060
 INTRA:                  -4.820
 UNBOUND:                -6.555
 SMILES CC(=O)N[C@@H]1[C@@H](O)C[C@](O)(C(=O)O)O[C@H]1C(O)[C@H](O)CNC(=O)OCc1cn([C@H]2C[C@H]3CC[C@@H](C2)N3C)nn1
 SMILES IDX 20 1 18 2 16 3 15 4 9 5 8 6 14 7 6 8 5 9 10 10 11 12 12 13
 SMILES IDX 13 14 7 16 4 18 2 19 1 21 3 22 17 23 19 25 21 27 22 28 23 30
 SMILES IDX 24 31 25 32 26 33 27 34 39 35 28 36 38 37 29 38 35 39 30 40
 SMILES IDX 34 41 31 42 36 43 33 44 32 45 37 46
 H PARENT 10 11 13 15 7 17 4 20 17 24 19 26 21 29
 Flexibility Score: inf
  4 active torsions:
  status: ('A' for Active; 'I' for Inactive)
    1  A    between atoms: CA   and  CB  
    2  A    between atoms: CB   and  CG  
    3  A    between atoms: CG   and  CD  
    4  A    between atoms: CD   and  CE  

>  <TORSDO>
F 15

>  <BEGIN_>
RES LYS A 131

$$$$
ligand_86_pose_13_2HRL.pdbqt
 OpenBabel07062320523D

  6  5  0  0  0  0  0  0  0  0999 V2000
   33.1930   34.6630    9.2900 C   0  0  0  0  0  0  0  0  0  0  0  0
   32.0600   35.3600   10.0340 C   0  0  0  0  0  0  0  0  0  0  0  0
   30.7390   34.6420    9.9300 C   0  0  0  0  0  0  0  0  0  0  0  0
   30.3240   34.4910    8.4750 C   0  0  0  0  0  0  0  0  0  0  0  0
   28.8130   34.5210    8.3470 C   0  0  0  0  0  0  0  0  0  0  0  0
   28.1630   33.8200    9.4890 N   0  0  0  0  0  0  0  0  0  0  0  0
  1  2  1  0  0  0  0
  3  2  1  0  0  0  0
  4  3  1  0  0  0  0
  5  4  1  0  0  0  0
  5  6  1  0  0  0  0
M  END
>  <EGIN_R>
ES LYS A 135

>  <REMARK>
  4 active torsions:
  status: ('A' for Active; 'I' for Inactive)
    5  A    between atoms: CA   and  CB  
    6  A    between atoms: CB   and  CG  
    7  A    between atoms: CG   and  CD  
    8  A    between atoms: CD   and  CE  

$$$$
