ligand_74_pose_10_2HRL.pdbqt
 OpenBabel07062320523D

 54 54  0  0  1  0  0  0  0  0999 V2000
   25.8750   36.3870   18.3600 O   0  0  0  0  0  0  0  0  0  0  0  0
   25.1800   35.2980   17.8050 C   0  0  0  0  0  0  0  0  0  0  0  0
   24.6180   35.3670   16.5070 N   0  0  0  0  0  0  0  0  0  0  0  0
   24.7590   36.2890   15.9860 H   0  0  0  0  0  0  0  0  0  0  0  0
   25.0730   34.2580   18.4990 O   0  0  0  0  0  0  0  0  0  0  0  0
   23.8920   34.2810   15.8900 C   0  0  0  0  0  0  0  0  0  0  0  0
   24.5590   33.8960   14.6160 C   0  0  2  0  0  0  0  0  0  0  0  0
   25.6270   32.8270   14.7840 C   0  0  2  0  0  0  0  0  0  0  0  0
   25.2230   31.7950   15.7890 C   0  0  2  0  0  0  0  0  0  0  0  0
   26.7580   30.3330   16.7380 C   0  0  2  0  0  0  0  0  0  0  0  0
   25.7930   29.1730   16.7810 C   0  0  0  0  0  0  0  0  0  0  0  0
   26.1180   31.5620   16.7910 O   0  0  0  0  0  0  0  0  0  0  0  0
   24.4250   29.5600   16.2590 C   0  0  1  0  0  0  0  0  0  0  0  0
   24.7000   30.5350   15.1060 C   0  0  1  0  0  0  0  0  0  0  0  0
   27.6090   30.2340   15.6340 O   0  0  0  0  0  0  0  0  0  0  0  0
   27.4600   30.9290   14.9650 H   0  0  0  0  0  0  0  0  0  0  0  0
   27.6130   30.2390   17.9500 C   0  0  0  0  0  0  0  0  0  0  0  0
   28.3440   31.2290   18.2610 O   0  0  0  0  0  0  0  0  0  0  0  0
   27.6600   29.1300   18.7680 O   0  0  0  0  0  0  0  0  0  0  0  0
   28.2990   28.3560   18.5270 H   0  0  0  0  0  0  0  0  0  0  0  0
   23.6700   28.4840   15.8630 O   0  0  0  0  0  0  0  0  0  0  0  0
   24.3160   27.7630   15.5870 H   0  0  0  0  0  0  0  0  0  0  0  0
   23.4810   30.8560   14.4050 N   0  0  0  0  0  0  0  0  0  0  0  0
   23.1410   30.1860   13.1900 C   0  0  0  0  0  0  0  0  0  0  0  0
   22.7970   31.5790   14.7390 H   0  0  0  0  0  0  0  0  0  0  0  0
   21.9030   30.4910   12.4490 C   0  0  0  0  0  0  0  0  0  0  0  0
   23.9160   29.3100   12.7320 O   0  0  0  0  0  0  0  0  0  0  0  0
   26.8580   33.3970   15.0130 O   0  0  0  0  0  0  0  0  0  0  0  0
   27.4180   32.7610   15.5040 H   0  0  0  0  0  0  0  0  0  0  0  0
   25.2060   35.0410   14.0920 O   0  0  0  0  0  0  0  0  0  0  0  0
   24.5890   35.5760   13.5440 H   0  0  0  0  0  0  0  0  0  0  0  0
   26.5200   37.2650   17.4720 C   0  0  0  0  0  0  0  0  0  0  0  0
   27.6730   36.6400   16.8010 C   0  0  0  0  0  0  0  0  0  0  0  0
   28.9430   36.3590   17.2830 C   0  0  0  0  0  0  0  0  0  0  0  0
   27.6850   36.2110   15.5330 N   0  0  0  0  0  0  0  0  0  0  0  0
   29.6640   35.7800   16.3080 N   0  0  0  0  0  0  0  0  0  0  0  0
   28.8820   35.7020   15.2610 N   0  0  0  0  0  0  0  0  0  0  0  0
   31.0770   35.3340   16.4460 C   0  0  0  0  0  0  0  0  0  0  0  0
   31.3950   34.3410   15.3830 C   0  0  2  0  0  0  0  0  0  0  0  0
   31.5980   32.9930   16.0530 C   0  0  0  0  0  0  0  0  0  0  0  0
   30.4830   32.0880   15.6780 C   0  0  0  0  0  0  0  0  0  0  0  0
   29.5490   32.4840   14.9590 O   0  0  0  0  0  0  0  0  0  0  0  0
   30.5260   30.7780   16.1650 O   0  0  0  0  0  0  0  0  0  0  0  0
   31.3190   30.2020   15.9610 H   0  0  0  0  0  0  0  0  0  0  0  0
   32.4930   34.7590   14.4950 C   0  0  0  0  0  0  0  0  0  0  0  0
   32.1490   35.3920   13.2010 C   0  0  0  0  0  0  0  0  0  0  0  0
   30.8390   34.6970   12.7350 C   0  0  0  0  0  0  0  0  0  0  0  0
   31.8800   36.8580   13.2080 C   0  0  0  0  0  0  0  0  0  0  0  0
   29.8670   25.5550   16.9770 C   0  0  0  0  0  0  0  0  0  0  0  0
   28.3450   25.7220   17.0260 C   0  0  0  0  0  0  0  0  0  0  0  0
   27.6010   24.4040   16.8740 C   0  0  0  0  0  0  0  0  0  0  0  0
   26.6520   24.1550   18.0130 C   0  0  0  0  0  0  0  0  0  0  0  0
   25.3940   23.4700   17.4880 C   0  0  0  0  0  0  0  0  0  0  0  0
   24.5100   24.4530   16.8180 N   0  0  0  0  0  0  0  0  0  0  0  0
  2  1  1  0  0  0  0
  2  5  2  0  0  0  0
  3  2  1  0  0  0  0
  4  3  1  0  0  0  0
  6  3  1  0  0  0  0
  7  8  1  0  0  0  0
  7  6  1  1  0  0  0
  8 28  1  1  0  0  0
  9  8  1  6  0  0  0
  9 12  1  0  0  0  0
 10 15  1  6  0  0  0
 10 11  1  0  0  0  0
 10 12  1  0  0  0  0
 10 17  1  0  0  0  0
 13 21  1  6  0  0  0
 13 11  1  0  0  0  0
 14 23  1  1  0  0  0
 14  9  1  0  0  0  0
 14 13  1  0  0  0  0
 16 15  1  0  0  0  0
 17 18  2  0  0  0  0
 17 19  1  0  0  0  0
 20 19  1  0  0  0  0
 22 21  1  0  0  0  0
 23 25  1  0  0  0  0
 24 23  1  0  0  0  0
 26 24  1  0  0  0  0
 27 24  2  0  0  0  0
 28 29  1  0  0  0  0
 30  7  1  0  0  0  0
 31 30  1  0  0  0  0
 32  1  1  0  0  0  0
 33 34  2  0  0  0  0
 33 32  1  0  0  0  0
 35 33  1  0  0  0  0
 36 38  1  0  0  0  0
 36 34  1  0  0  0  0
 37 35  2  0  0  0  0
 37 36  1  0  0  0  0
 39 45  1  1  0  0  0
 39 40  1  0  0  0  0
 39 38  1  0  0  0  0
 41 40  1  0  0  0  0
 41 43  1  0  0  0  0
 42 41  2  0  0  0  0
 44 43  1  0  0  0  0
 46 48  1  0  0  0  0
 46 45  1  0  0  0  0
 47 46  1  0  0  0  0
 49 50  1  0  0  0  0
 51 50  1  0  0  0  0
 51 52  1  0  0  0  0
 53 52  1  0  0  0  0
 54 53  1  0  0  0  0
M  END
>  <REMARK>
 VINA RESULT:    -4.207      3.930      6.907
 INTER + INTRA:         -15.752
 INTER:                  -7.680
 INTRA:                  -8.072
 UNBOUND:                -7.118
 SMILES CC(=O)N[C@@H]1[C@@H](O)C[C@](O)(C(=O)O)O[C@H]1C(O)[C@H](O)CNC(=O)OCc1cn(C[C@H](CC(=O)O)CC(C)C)nn1
 SMILES IDX 24 1 22 2 21 3 23 5 20 6 18 7 16 8 15 9 9 10 8 11 14 12 6 13
 SMILES IDX 5 14 10 15 11 17 12 18 13 19 7 21 4 23 2 24 1 26 3 27 17 28
 SMILES IDX 19 30 25 32 26 33 27 34 40 35 28 36 39 37 29 38 30 39 31 40
 SMILES IDX 32 41 33 42 34 43 35 45 36 46 37 47 38 48
 H PARENT 21 4 10 16 13 20 7 22 4 25 17 29 19 31 34 44
 Flexibility Score: inf
  4 active torsions:
  status: ('A' for Active; 'I' for Inactive)
    1  A    between atoms: CA   and  CB  
    2  A    between atoms: CB   and  CG  
    3  A    between atoms: CG   and  CD  
    4  A    between atoms: CD   and  CE  

>  <TORSDO>
F 21

>  <BEGIN_>
RES LYS A 131

$$$$
ligand_74_pose_10_2HRL.pdbqt
 OpenBabel07062320523D

  6  5  0  0  0  0  0  0  0  0999 V2000
   33.1930   34.6630    9.2900 C   0  0  0  0  0  0  0  0  0  0  0  0
   32.0600   35.3600   10.0340 C   0  0  0  0  0  0  0  0  0  0  0  0
   30.8020   35.5050    9.2170 C   0  0  0  0  0  0  0  0  0  0  0  0
   30.1490   34.1500    8.9910 C   0  0  0  0  0  0  0  0  0  0  0  0
   28.6850   34.3180    8.6310 C   0  0  0  0  0  0  0  0  0  0  0  0
   27.8070   33.6690    9.6430 N   0  0  0  0  0  0  0  0  0  0  0  0
  1  2  1  0  0  0  0
  3  2  1  0  0  0  0
  4  3  1  0  0  0  0
  5  4  1  0  0  0  0
  5  6  1  0  0  0  0
M  END
>  <EGIN_R>
ES LYS A 135

>  <REMARK>
  4 active torsions:
  status: ('A' for Active; 'I' for Inactive)
    5  A    between atoms: CA   and  CB  
    6  A    between atoms: CB   and  CG  
    7  A    between atoms: CG   and  CD  
    8  A    between atoms: CD   and  CE  

$$$$
