ligand_33_pose_0_2HRL.pdbqt
 OpenBabel07062320523D

 52 52  0  0  1  0  0  0  0  0999 V2000
   25.7280   37.7010   11.1220 C   0  0  0  0  0  0  0  0  0  0  0  0
   25.7180   38.7920   10.2080 O   0  0  0  0  0  0  0  0  0  0  0  0
   24.4930   39.1440    9.6290 C   0  0  0  0  0  0  0  0  0  0  0  0
   24.1020   38.4810    8.4310 N   0  0  0  0  0  0  0  0  0  0  0  0
   24.7560   37.7530    8.0400 H   0  0  0  0  0  0  0  0  0  0  0  0
   23.8020   40.0260   10.1950 O   0  0  0  0  0  0  0  0  0  0  0  0
   22.8590   38.8270    7.8190 C   0  0  0  0  0  0  0  0  0  0  0  0
   21.6550   38.1170    8.3900 C   0  0  2  0  0  0  0  0  0  0  0  0
   21.3670   36.9040    7.5270 C   0  0  2  0  0  0  0  0  0  0  0  0
   21.2790   35.6150    8.2730 C   0  0  2  0  0  0  0  0  0  0  0  0
   18.9650   35.4290    7.9630 C   0  0  2  0  0  0  0  0  0  0  0  0
   18.8170   35.9650    9.3970 C   0  0  0  0  0  0  0  0  0  0  0  0
   20.2090   34.8950    7.7840 O   0  0  0  0  0  0  0  0  0  0  0  0
   19.8330   35.2000   10.2090 C   0  0  1  0  0  0  0  0  0  0  0  0
   21.2200   35.6950    9.7560 C   0  0  1  0  0  0  0  0  0  0  0  0
   18.6030   36.4160    7.0490 O   0  0  0  0  0  0  0  0  0  0  0  0
   17.6020   36.5470    7.0270 H   0  0  0  0  0  0  0  0  0  0  0  0
   17.9820   34.3230    7.8410 C   0  0  0  0  0  0  0  0  0  0  0  0
   17.1060   34.1550    8.7420 O   0  0  0  0  0  0  0  0  0  0  0  0
   18.0430   33.4930    6.7370 O   0  0  0  0  0  0  0  0  0  0  0  0
   18.1340   32.4860    6.9360 H   0  0  0  0  0  0  0  0  0  0  0  0
   19.6710   35.4040   11.5790 O   0  0  0  0  0  0  0  0  0  0  0  0
   18.7760   35.0450   11.8150 H   0  0  0  0  0  0  0  0  0  0  0  0
   22.2460   34.8820   10.3950 N   0  0  0  0  0  0  0  0  0  0  0  0
   22.8270   35.2140   11.6340 C   0  0  0  0  0  0  0  0  0  0  0  0
   22.5630   33.9990    9.9010 H   0  0  0  0  0  0  0  0  0  0  0  0
   23.8900   34.3520   12.2670 C   0  0  0  0  0  0  0  0  0  0  0  0
   22.4390   36.2700   12.2200 O   0  0  0  0  0  0  0  0  0  0  0  0
   22.5330   36.7860    6.7150 O   0  0  0  0  0  0  0  0  0  0  0  0
   22.7150   35.8190    6.6590 H   0  0  0  0  0  0  0  0  0  0  0  0
   20.6110   39.0140    8.4410 O   0  0  0  0  0  0  0  0  0  0  0  0
   20.6010   39.6040    7.6470 H   0  0  0  0  0  0  0  0  0  0  0  0
   26.0560   36.4980   10.3230 C   0  0  0  0  0  0  0  0  0  0  0  0
   27.2430   35.8030   10.4390 C   0  0  0  0  0  0  0  0  0  0  0  0
   25.3200   35.8860    9.3970 N   0  0  0  0  0  0  0  0  0  0  0  0
   27.1540   34.7870    9.5530 N   0  0  0  0  0  0  0  0  0  0  0  0
   25.9970   34.8450    8.9320 N   0  0  0  0  0  0  0  0  0  0  0  0
   28.2400   33.8200    9.3810 C   0  0  0  0  0  0  0  0  0  0  0  0
   29.5350   34.5870    9.3330 C   0  0  0  0  0  0  0  0  0  0  0  0
   30.0500   34.7870    7.9240 C   0  0  0  0  0  0  0  0  0  0  0  0
   28.9930   35.2550    6.9850 C   0  0  0  0  0  0  0  0  0  0  0  0
   28.7110   36.7310    7.0680 C   0  0  0  0  0  0  0  0  0  0  0  0
   27.5470   37.1610    6.2800 C   0  0  0  0  0  0  0  0  0  0  0  0
   27.6830   37.6790    5.1600 O   0  0  0  0  0  0  0  0  0  0  0  0
   26.2430   36.9940    6.7780 O   0  0  0  0  0  0  0  0  0  0  0  0
   26.0370   37.2050    7.7600 H   0  0  0  0  0  0  0  0  0  0  0  0
   29.8670   25.5550   16.9770 C   0  0  0  0  0  0  0  0  0  0  0  0
   28.3450   25.7220   17.0260 C   0  0  0  0  0  0  0  0  0  0  0  0
   27.5990   24.4210   16.7730 C   0  0  0  0  0  0  0  0  0  0  0  0
   26.8110   23.9770   17.9740 C   0  0  0  0  0  0  0  0  0  0  0  0
   25.6710   24.9590   18.2260 C   0  0  0  0  0  0  0  0  0  0  0  0
   24.6400   24.8390   17.1680 N   0  0  0  0  0  0  0  0  0  0  0  0
  2  1  1  0  0  0  0
  3  6  2  0  0  0  0
  3  2  1  0  0  0  0
  4  3  1  0  0  0  0
  5  4  1  0  0  0  0
  7  4  1  0  0  0  0
  8  7  1  6  0  0  0
  8 31  1  0  0  0  0
  9 29  1  6  0  0  0
  9  8  1  0  0  0  0
 10  9  1  6  0  0  0
 10 15  1  0  0  0  0
 11 16  1  6  0  0  0
 11 12  1  0  0  0  0
 12 14  1  0  0  0  0
 13 11  1  0  0  0  0
 13 10  1  0  0  0  0
 14 22  1  1  0  0  0
 15 14  1  0  0  0  0
 15 24  1  1  0  0  0
 17 16  1  0  0  0  0
 18 11  1  0  0  0  0
 18 19  2  0  0  0  0
 20 21  1  0  0  0  0
 20 18  1  0  0  0  0
 22 23  1  0  0  0  0
 24 25  1  0  0  0  0
 25 28  2  0  0  0  0
 25 27  1  0  0  0  0
 26 24  1  0  0  0  0
 30 29  1  0  0  0  0
 32 31  1  0  0  0  0
 33 34  2  0  0  0  0
 33  1  1  0  0  0  0
 35 33  1  0  0  0  0
 36 34  1  0  0  0  0
 37 35  2  0  0  0  0
 37 36  1  0  0  0  0
 38 36  1  0  0  0  0
 39 38  1  0  0  0  0
 40 39  1  0  0  0  0
 41 42  1  0  0  0  0
 41 40  1  0  0  0  0
 43 45  1  0  0  0  0
 43 42  1  0  0  0  0
 44 43  2  0  0  0  0
 45 46  1  0  0  0  0
 47 48  1  0  0  0  0
 49 48  1  0  0  0  0
 49 50  1  0  0  0  0
 50 51  1  0  0  0  0
 52 51  1  0  0  0  0
M  END
>  <REMARK>
 VINA RESULT:    -4.629      0.000      0.000
 INTER + INTRA:         -15.418
 INTER:                 -10.428
 INTRA:                  -4.990
 UNBOUND:                -5.918
 SMILES CC(=O)N[C@@H]1[C@@H](O)C[C@](O)(C(=O)O)O[C@H]1C(O)[C@H](O)CNC(=O)OCc1cn(CCCCCC(=O)O)nn1
 SMILES IDX 25 1 24 2 22 3 21 4 23 6 20 7 18 8 16 9 15 10 9 11 8 12
 SMILES IDX 14 13 6 14 5 15 10 16 11 18 12 19 13 20 7 22 4 24 2 25 1 27
 SMILES IDX 3 28 17 29 19 31 26 33 27 34 38 35 28 36 37 37 29 38 30 39
 SMILES IDX 31 40 32 41 33 42 34 43 35 44 36 45
 H PARENT 21 5 10 17 13 21 7 23 4 26 17 30 19 32 36 46
 Flexibility Score: inf
  4 active torsions:
  status: ('A' for Active; 'I' for Inactive)
    1  A    between atoms: CA   and  CB  
    2  A    between atoms: CB   and  CG  
    3  A    between atoms: CG   and  CD  
    4  A    between atoms: CD   and  CE  

>  <TORSDO>
F 21

>  <BEGIN_>
RES LYS A 131

$$$$
ligand_33_pose_0_2HRL.pdbqt
 OpenBabel07062320523D

  6  5  0  0  0  0  0  0  0  0999 V2000
   33.1930   34.6630    9.2900 C   0  0  0  0  0  0  0  0  0  0  0  0
   32.0600   35.3600   10.0340 C   0  0  0  0  0  0  0  0  0  0  0  0
   32.4580   35.8730   11.3940 C   0  0  0  0  0  0  0  0  0  0  0  0
   31.5520   35.2960   12.4710 C   0  0  0  0  0  0  0  0  0  0  0  0
   30.3020   36.1400   12.6240 C   0  0  0  0  0  0  0  0  0  0  0  0
   29.5290   35.7400   13.8330 N   0  0  0  0  0  0  0  0  0  0  0  0
  1  2  1  0  0  0  0
  2  3  1  0  0  0  0
  3  4  1  0  0  0  0
  4  5  1  0  0  0  0
  5  6  1  0  0  0  0
M  END
>  <EGIN_R>
ES LYS A 135

>  <REMARK>
  4 active torsions:
  status: ('A' for Active; 'I' for Inactive)
    5  A    between atoms: CA   and  CB  
    6  A    between atoms: CB   and  CG  
    7  A    between atoms: CG   and  CD  
    8  A    between atoms: CD   and  CE  

$$$$
