ligand_16_pose_16_2HRL.pdbqt
 OpenBabel07062320523D

 54 55  0  0  1  0  0  0  0  0999 V2000
   27.0630   35.4290    8.6850 N   0  0  0  0  0  0  0  0  0  0  0  0
   27.4270   34.5300    9.7020 C   0  0  0  0  0  0  0  0  0  0  0  0
   28.0800   33.5110    9.4240 O   0  0  0  0  0  0  0  0  0  0  0  0
   26.5010   36.2750    9.0070 H   0  0  0  0  0  0  0  0  0  0  0  0
   27.4080   35.2560    7.2990 C   0  0  0  0  0  0  0  0  0  0  0  0
   27.6140   36.6030    6.6600 C   0  0  2  0  0  0  0  0  0  0  0  0
   26.9660   37.7330    7.3940 C   0  0  1  0  0  0  0  0  0  0  0  0
   27.6740   39.0600    7.0640 C   0  0  2  0  0  0  0  0  0  0  0  0
   29.7080   39.7950    6.2480 C   0  0  2  0  0  0  0  0  0  0  0  0
   30.1650   40.3660    7.5820 C   0  0  0  0  0  0  0  0  0  0  0  0
   28.8990   38.7220    6.5310 O   0  0  0  0  0  0  0  0  0  0  0  0
   28.9850   40.7560    8.4110 C   0  0  1  0  0  0  0  0  0  0  0  0
   27.8470   39.7750    8.3560 C   0  0  1  0  0  0  0  0  0  0  0  0
   30.9040   39.2750    5.6720 O   0  0  0  0  0  0  0  0  0  0  0  0
   30.9410   39.5910    4.7160 H   0  0  0  0  0  0  0  0  0  0  0  0
   29.1430   40.8260    5.3730 C   0  0  0  0  0  0  0  0  0  0  0  0
   28.4570   40.4640    4.3570 O   0  0  0  0  0  0  0  0  0  0  0  0
   29.2700   42.1930    5.5210 O   0  0  0  0  0  0  0  0  0  0  0  0
   30.1880   42.5480    5.7510 H   0  0  0  0  0  0  0  0  0  0  0  0
   29.4280   40.7940    9.7550 O   0  0  0  0  0  0  0  0  0  0  0  0
   28.7860   40.2410   10.2640 H   0  0  0  0  0  0  0  0  0  0  0  0
   26.6370   40.4170    8.8240 N   0  0  0  0  0  0  0  0  0  0  0  0
   26.1420   40.2230   10.1380 C   0  0  0  0  0  0  0  0  0  0  0  0
   26.0890   41.0490    8.2020 H   0  0  0  0  0  0  0  0  0  0  0  0
   24.8800   40.9020   10.6050 C   0  0  0  0  0  0  0  0  0  0  0  0
   26.7720   39.4750   10.9100 O   0  0  0  0  0  0  0  0  0  0  0  0
   25.6060   37.8300    7.2250 O   0  0  0  0  0  0  0  0  0  0  0  0
   25.3520   37.4940    6.3270 H   0  0  0  0  0  0  0  0  0  0  0  0
   27.2160   36.6200    5.3160 O   0  0  0  0  0  0  0  0  0  0  0  0
   27.7370   35.9300    4.8150 H   0  0  0  0  0  0  0  0  0  0  0  0
   27.0930   34.7130   11.0380 O   0  0  0  0  0  0  0  0  0  0  0  0
   27.2200   35.9380   11.7190 C   0  0  0  0  0  0  0  0  0  0  0  0
   28.2920   35.8410   12.7310 C   0  0  0  0  0  0  0  0  0  0  0  0
   29.4180   35.0210   12.6400 C   0  0  0  0  0  0  0  0  0  0  0  0
   28.4320   36.4740   13.9120 N   0  0  0  0  0  0  0  0  0  0  0  0
   30.1660   35.1900   13.7380 N   0  0  0  0  0  0  0  0  0  0  0  0
   29.5500   36.0710   14.4890 N   0  0  0  0  0  0  0  0  0  0  0  0
   31.4310   34.5080   14.0460 C   0  0  0  0  0  0  0  0  0  0  0  0
   31.1370   33.6460   15.2360 C   0  0  0  0  0  0  0  0  0  0  0  0
   30.5380   32.4310   15.0530 C   0  0  0  0  0  0  0  0  0  0  0  0
   31.4490   34.0470   16.5110 C   0  0  0  0  0  0  0  0  0  0  0  0
   30.2460   31.6060   16.1430 C   0  0  0  0  0  0  0  0  0  0  0  0
   31.1580   33.2270   17.5960 C   0  0  0  0  0  0  0  0  0  0  0  0
   30.5540   31.9980   17.4240 C   0  0  0  0  0  0  0  0  0  0  0  0
   30.2570   31.1460   18.5670 C   0  0  0  0  0  0  0  0  0  0  0  0
   30.7920   31.2970   19.6870 O   0  0  0  0  0  0  0  0  0  0  0  0
   29.3380   30.1130   18.4240 O   0  0  0  0  0  0  0  0  0  0  0  0
   29.4710   29.2270   18.8800 H   0  0  0  0  0  0  0  0  0  0  0  0
   29.8670   25.5550   16.9770 C   0  0  0  0  0  0  0  0  0  0  0  0
   28.3450   25.7220   17.0260 C   0  0  0  0  0  0  0  0  0  0  0  0
   27.6020   24.3970   16.9430 C   0  0  0  0  0  0  0  0  0  0  0  0
   26.1570   24.5330   17.3340 C   0  0  0  0  0  0  0  0  0  0  0  0
   25.7760   23.3970   18.2780 C   0  0  0  0  0  0  0  0  0  0  0  0
   25.1480   22.2860   17.5260 N   0  0  0  0  0  0  0  0  0  0  0  0
  1  4  1  0  0  0  0
  1  2  1  0  0  0  0
  2 31  1  0  0  0  0
  3  2  2  0  0  0  0
  5  1  1  0  0  0  0
  6  5  1  1  0  0  0
  6  7  1  0  0  0  0
  7 27  1  6  0  0  0
  8  7  1  1  0  0  0
  8 13  1  0  0  0  0
  9 16  1  6  0  0  0
  9 11  1  0  0  0  0
  9 10  1  0  0  0  0
 10 12  1  0  0  0  0
 11  8  1  0  0  0  0
 12 20  1  1  0  0  0
 13 12  1  0  0  0  0
 13 22  1  6  0  0  0
 14  9  1  0  0  0  0
 15 14  1  0  0  0  0
 16 18  1  0  0  0  0
 17 16  2  0  0  0  0
 18 19  1  0  0  0  0
 20 21  1  0  0  0  0
 22 23  1  0  0  0  0
 23 25  1  0  0  0  0
 23 26  2  0  0  0  0
 24 22  1  0  0  0  0
 28 27  1  0  0  0  0
 29  6  1  0  0  0  0
 30 29  1  0  0  0  0
 31 32  1  0  0  0  0
 32 33  1  0  0  0  0
 33 35  1  0  0  0  0
 34 33  2  0  0  0  0
 34 36  1  0  0  0  0
 35 37  2  0  0  0  0
 36 38  1  0  0  0  0
 36 37  1  0  0  0  0
 38 39  1  0  0  0  0
 39 41  1  0  0  0  0
 40 39  2  0  0  0  0
 40 42  1  0  0  0  0
 41 43  2  0  0  0  0
 42 44  2  0  0  0  0
 44 43  1  0  0  0  0
 44 45  1  0  0  0  0
 45 46  2  0  0  0  0
 47 45  1  0  0  0  0
 47 48  1  0  0  0  0
 49 50  1  0  0  0  0
 51 50  1  0  0  0  0
 51 52  1  0  0  0  0
 52 53  1  0  0  0  0
 54 53  1  0  0  0  0
M  END
>  <REMARK>
 VINA RESULT:    -5.687      4.856     12.666
 INTER + INTRA:         -14.667
 INTER:                 -10.511
 INTRA:                  -4.156
 UNBOUND:                -3.993
 SMILES CC(=O)N[C@@H]1[C@@H](O)C[C@](O)(C(=O)O)O[C@H]1C(O)[C@H](O)CNC(=O)OCc1cn(Cc2ccc(C(=O)O)cc2)nn1
 SMILES IDX 21 1 22 2 23 3 20 5 18 6 16 7 15 8 9 9 8 10 14 11 6 12 5 13
 SMILES IDX 10 14 11 16 12 17 13 18 7 20 4 22 2 23 1 25 3 26 17 27 19 29
 SMILES IDX 24 31 25 32 26 33 27 34 40 35 28 36 39 37 29 38 30 39 31 40
 SMILES IDX 38 41 32 42 37 43 33 44 34 45 35 46 36 47
 H PARENT 21 4 10 15 13 19 7 21 4 24 17 28 19 30 36 48
 Flexibility Score: inf
  4 active torsions:
  status: ('A' for Active; 'I' for Inactive)
    1  A    between atoms: CA   and  CB  
    2  A    between atoms: CB   and  CG  
    3  A    between atoms: CG   and  CD  
    4  A    between atoms: CD   and  CE  

>  <TORSDO>
F 18

>  <BEGIN_>
RES LYS A 131

$$$$
ligand_16_pose_16_2HRL.pdbqt
 OpenBabel07062320523D

  6  5  0  0  0  0  0  0  0  0999 V2000
   33.1930   34.6630    9.2900 C   0  0  0  0  0  0  0  0  0  0  0  0
   32.0600   35.3600   10.0340 C   0  0  0  0  0  0  0  0  0  0  0  0
   30.8520   35.6310    9.1750 C   0  0  0  0  0  0  0  0  0  0  0  0
   30.3090   37.0270    9.4380 C   0  0  0  0  0  0  0  0  0  0  0  0
   31.3100   37.8480   10.2280 C   0  0  0  0  0  0  0  0  0  0  0  0
   30.7640   38.2180   11.5630 N   0  0  0  0  0  0  0  0  0  0  0  0
  1  2  1  0  0  0  0
  3  4  1  0  0  0  0
  3  2  1  0  0  0  0
  4  5  1  0  0  0  0
  5  6  1  0  0  0  0
M  END
>  <EGIN_R>
ES LYS A 135

>  <REMARK>
  4 active torsions:
  status: ('A' for Active; 'I' for Inactive)
    5  A    between atoms: CA   and  CB  
    6  A    between atoms: CB   and  CG  
    7  A    between atoms: CG   and  CD  
    8  A    between atoms: CD   and  CE  

$$$$
