ligand_17_pose_17_2HRL.pdbqt
 OpenBabel07062320523D

 50 50  0  0  1  0  0  0  0  0999 V2000
   30.5760   37.4590   12.2980 N   0  0  0  0  0  0  0  0  0  0  0  0
   29.2050   37.8560   12.2370 C   0  0  0  0  0  0  0  0  0  0  0  0
   28.4190   37.5280   13.1430 O   0  0  0  0  0  0  0  0  0  0  0  0
   31.1710   37.7660   11.5100 H   0  0  0  0  0  0  0  0  0  0  0  0
   31.1330   36.6840   13.3630 C   0  0  0  0  0  0  0  0  0  0  0  0
   31.4710   35.2710   12.9780 C   0  0  2  0  0  0  0  0  0  0  0  0
   30.2710   34.3710   13.1740 C   0  0  1  0  0  0  0  0  0  0  0  0
   29.5730   34.6550   14.4730 C   0  0  2  0  0  0  0  0  0  0  0  0
   30.4690   32.8390   15.6710 C   0  0  2  0  0  0  0  0  0  0  0  0
   29.1660   32.0850   15.4410 C   0  0  0  0  0  0  0  0  0  0  0  0
   30.3440   34.1870   15.5070 O   0  0  0  0  0  0  0  0  0  0  0  0
   28.0410   33.1120   15.6080 C   0  0  1  0  0  0  0  0  0  0  0  0
   28.1890   34.1080   14.5140 C   0  0  1  0  0  0  0  0  0  0  0  0
   31.4420   32.2290   14.8830 O   0  0  0  0  0  0  0  0  0  0  0  0
   31.0410   31.8460   14.0530 H   0  0  0  0  0  0  0  0  0  0  0  0
   30.8570   32.6190   17.1010 C   0  0  0  0  0  0  0  0  0  0  0  0
   31.5230   33.4550   17.7490 O   0  0  0  0  0  0  0  0  0  0  0  0
   30.4640   31.4540   17.7230 O   0  0  0  0  0  0  0  0  0  0  0  0
   31.0180   30.6020   17.7220 H   0  0  0  0  0  0  0  0  0  0  0  0
   26.8300   32.4190   15.5650 O   0  0  0  0  0  0  0  0  0  0  0  0
   27.0390   31.5290   15.1370 H   0  0  0  0  0  0  0  0  0  0  0  0
   27.1720   35.1420   14.5430 N   0  0  0  0  0  0  0  0  0  0  0  0
   25.9970   35.1020   13.7400 C   0  0  0  0  0  0  0  0  0  0  0  0
   27.2640   35.9870   15.1750 H   0  0  0  0  0  0  0  0  0  0  0  0
   24.9800   36.1980   13.8100 C   0  0  0  0  0  0  0  0  0  0  0  0
   25.8000   34.1470   12.9640 O   0  0  0  0  0  0  0  0  0  0  0  0
   29.4450   34.6360   12.0660 O   0  0  0  0  0  0  0  0  0  0  0  0
   29.2640   33.7490   11.6550 H   0  0  0  0  0  0  0  0  0  0  0  0
   32.6100   34.8580   13.6080 O   0  0  0  0  0  0  0  0  0  0  0  0
   33.4040   35.1450   13.0910 H   0  0  0  0  0  0  0  0  0  0  0  0
   28.6960   38.6080   11.1920 O   0  0  0  0  0  0  0  0  0  0  0  0
   28.1730   38.0100   10.0130 C   0  0  0  0  0  0  0  0  0  0  0  0
   26.7120   37.8300   10.2020 C   0  0  0  0  0  0  0  0  0  0  0  0
   26.0470   36.6240    9.9800 C   0  0  0  0  0  0  0  0  0  0  0  0
   25.7630   38.6910   10.5930 N   0  0  0  0  0  0  0  0  0  0  0  0
   24.7570   36.8120   10.2430 N   0  0  0  0  0  0  0  0  0  0  0  0
   24.5980   38.0650   10.6130 N   0  0  0  0  0  0  0  0  0  0  0  0
   23.7150   35.8270   10.1420 C   0  0  0  0  0  0  0  0  0  0  0  0
   22.3720   36.5340   10.1710 C   0  0  0  0  0  0  0  0  0  0  0  0
   21.8440   36.8110    8.8740 N   0  0  0  0  0  0  0  0  0  0  0  0
   20.9070   37.8830    8.8200 C   0  0  0  0  0  0  0  0  0  0  0  0
   20.9180   38.5570   10.2000 C   0  0  0  0  0  0  0  0  0  0  0  0
   21.5260   35.6440    8.1220 C   0  0  0  0  0  0  0  0  0  0  0  0
   20.0790   35.2620    8.1650 C   0  0  0  0  0  0  0  0  0  0  0  0
   29.8670   25.5550   16.9770 C   0  0  0  0  0  0  0  0  0  0  0  0
   28.3450   25.7220   17.0260 C   0  0  0  0  0  0  0  0  0  0  0  0
   27.6030   24.3950   16.9820 C   0  0  0  0  0  0  0  0  0  0  0  0
   26.6560   24.2370   18.1380 C   0  0  0  0  0  0  0  0  0  0  0  0
   25.2700   23.8730   17.6150 C   0  0  0  0  0  0  0  0  0  0  0  0
   25.1230   22.4020   17.5150 N   0  0  0  0  0  0  0  0  0  0  0  0
  1  5  1  0  0  0  0
  2  1  1  0  0  0  0
  2  3  2  0  0  0  0
  4  1  1  0  0  0  0
  6  7  1  0  0  0  0
  6  5  1  1  0  0  0
  6 29  1  0  0  0  0
  7 27  1  6  0  0  0
  8  7  1  6  0  0  0
  8 13  1  0  0  0  0
  8 11  1  0  0  0  0
  9 14  1  6  0  0  0
  9 16  1  0  0  0  0
 10 12  1  0  0  0  0
 10  9  1  0  0  0  0
 11  9  1  0  0  0  0
 12 20  1  6  0  0  0
 13 22  1  1  0  0  0
 13 12  1  0  0  0  0
 15 14  1  0  0  0  0
 16 18  1  0  0  0  0
 16 17  2  0  0  0  0
 19 18  1  0  0  0  0
 21 20  1  0  0  0  0
 22 24  1  0  0  0  0
 23 25  1  0  0  0  0
 23 22  1  0  0  0  0
 26 23  2  0  0  0  0
 28 27  1  0  0  0  0
 30 29  1  0  0  0  0
 31  2  1  0  0  0  0
 32 33  1  0  0  0  0
 32 31  1  0  0  0  0
 33 35  1  0  0  0  0
 34 33  2  0  0  0  0
 34 36  1  0  0  0  0
 35 37  2  0  0  0  0
 36 37  1  0  0  0  0
 38 39  1  0  0  0  0
 38 36  1  0  0  0  0
 40 39  1  0  0  0  0
 41 40  1  0  0  0  0
 41 42  1  0  0  0  0
 43 44  1  0  0  0  0
 43 40  1  0  0  0  0
 45 46  1  0  0  0  0
 47 46  1  0  0  0  0
 47 48  1  0  0  0  0
 49 48  1  0  0  0  0
 50 49  1  0  0  0  0
M  END
>  <REMARK>
 VINA RESULT:    -3.438      4.707      8.339
 INTER + INTRA:         -13.913
 INTER:                  -7.484
 INTRA:                  -6.429
 UNBOUND:                -7.158
 SMILES CCN(CC)CCn1cc(COC(=O)NC[C@@H](O)C(O)[C@@H]2O[C@@](O)(C(=O)O)C[C@H](O)[C@H]2NC(C)=O)nn1
 SMILES IDX 15 1 13 2 14 3 16 5 17 6 19 7 21 8 23 9 28 10 22 11 29 12
 SMILES IDX 31 13 24 14 25 16 26 17 27 18 30 20 32 22 33 23 34 25 35 26
 SMILES IDX 20 27 18 29 12 31 11 32 10 33 9 34 36 35 8 36 37 37 7 38
 SMILES IDX 6 39 3 40 2 41 1 42 4 43 5 44
 H PARENT 15 4 24 15 27 19 30 21 32 24 20 28 18 30
 Flexibility Score: inf
  4 active torsions:
  status: ('A' for Active; 'I' for Inactive)
    1  A    between atoms: CA   and  CB  
    2  A    between atoms: CB   and  CG  
    3  A    between atoms: CG   and  CD  
    4  A    between atoms: CD   and  CE  

>  <TORSDO>
F 19

>  <BEGIN_>
RES LYS A 131

$$$$
ligand_17_pose_17_2HRL.pdbqt
 OpenBabel07062320523D

  6  5  0  0  0  0  0  0  0  0999 V2000
   33.1930   34.6630    9.2900 C   0  0  0  0  0  0  0  0  0  0  0  0
   32.0600   35.3600   10.0340 C   0  0  0  0  0  0  0  0  0  0  0  0
   30.8530   35.6330    9.1740 C   0  0  0  0  0  0  0  0  0  0  0  0
   30.2580   34.3330    8.6550 C   0  0  0  0  0  0  0  0  0  0  0  0
   28.7780   34.5000    8.3720 C   0  0  0  0  0  0  0  0  0  0  0  0
   27.9560   33.7100    9.3290 N   0  0  0  0  0  0  0  0  0  0  0  0
  1  2  1  0  0  0  0
  3  2  1  0  0  0  0
  4  3  1  0  0  0  0
  5  4  1  0  0  0  0
  5  6  1  0  0  0  0
M  END
>  <EGIN_R>
ES LYS A 135

>  <REMARK>
  4 active torsions:
  status: ('A' for Active; 'I' for Inactive)
    5  A    between atoms: CA   and  CB  
    6  A    between atoms: CB   and  CG  
    7  A    between atoms: CG   and  CD  
    8  A    between atoms: CD   and  CE  

$$$$
