ligand_18_pose_17_2HRL.pdbqt
 OpenBabel07062320523D

 54 55  0  0  1  0  0  0  0  0999 V2000
   15.1010   30.6880    6.0310 N   0  0  0  0  0  0  0  0  0  0  0  0
   15.9230   29.6690    5.5060 C   0  0  0  0  0  0  0  0  0  0  0  0
   16.8810   29.9970    4.7640 O   0  0  0  0  0  0  0  0  0  0  0  0
   14.3110   30.3920    6.6450 H   0  0  0  0  0  0  0  0  0  0  0  0
   15.2730   32.1060    5.7860 C   0  0  0  0  0  0  0  0  0  0  0  0
   15.6570   32.8270    7.0470 C   0  0  2  0  0  0  0  0  0  0  0  0
   17.1210   32.8570    7.3290 C   0  0  1  0  0  0  0  0  0  0  0  0
   17.6260   33.8590    8.2970 C   0  0  2  0  0  0  0  0  0  0  0  0
   19.4880   35.2610    8.4970 C   0  0  2  0  0  0  0  0  0  0  0  0
   18.6160   35.8370    9.5980 C   0  0  0  0  0  0  0  0  0  0  0  0
   18.8740   34.3030    7.7470 O   0  0  0  0  0  0  0  0  0  0  0  0
   18.2010   34.7180   10.4890 C   0  0  1  0  0  0  0  0  0  0  0  0
   17.9500   33.4350    9.6710 C   0  0  1  0  0  0  0  0  0  0  0  0
   20.6380   34.7780    9.1510 O   0  0  0  0  0  0  0  0  0  0  0  0
   21.0750   35.5400    9.6220 H   0  0  0  0  0  0  0  0  0  0  0  0
   19.9290   36.3360    7.5710 C   0  0  0  0  0  0  0  0  0  0  0  0
   19.1030   37.2000    7.2100 O   0  0  0  0  0  0  0  0  0  0  0  0
   21.2350   36.4100    7.0940 O   0  0  0  0  0  0  0  0  0  0  0  0
   21.9730   36.3010    7.7910 H   0  0  0  0  0  0  0  0  0  0  0  0
   19.0730   34.4740   11.5270 O   0  0  0  0  0  0  0  0  0  0  0  0
   19.5990   33.6510   11.3710 H   0  0  0  0  0  0  0  0  0  0  0  0
   16.9930   32.6980   10.4090 N   0  0  0  0  0  0  0  0  0  0  0  0
   17.4070   31.6910   11.3060 C   0  0  0  0  0  0  0  0  0  0  0  0
   15.9830   32.8720   10.3160 H   0  0  0  0  0  0  0  0  0  0  0  0
   16.4340   30.8850   12.1060 C   0  0  0  0  0  0  0  0  0  0  0  0
   18.6380   31.4040   11.4910 O   0  0  0  0  0  0  0  0  0  0  0  0
   17.7470   31.6190    7.3450 O   0  0  0  0  0  0  0  0  0  0  0  0
   18.1160   31.3420    6.4970 H   0  0  0  0  0  0  0  0  0  0  0  0
   14.8890   32.4910    8.1550 O   0  0  0  0  0  0  0  0  0  0  0  0
   15.3900   31.9880    8.8370 H   0  0  0  0  0  0  0  0  0  0  0  0
   15.7100   28.3120    5.7820 O   0  0  0  0  0  0  0  0  0  0  0  0
   15.0930   27.9110    6.9920 C   0  0  0  0  0  0  0  0  0  0  0  0
   16.1150   27.9770    8.0740 C   0  0  0  0  0  0  0  0  0  0  0  0
   16.7620   26.9330    8.7010 C   0  0  0  0  0  0  0  0  0  0  0  0
   16.6090   29.0810    8.6580 N   0  0  0  0  0  0  0  0  0  0  0  0
   17.6050   27.4260    9.6210 N   0  0  0  0  0  0  0  0  0  0  0  0
   17.4920   28.7360    9.5740 N   0  0  0  0  0  0  0  0  0  0  0  0
   18.4720   26.6100   10.4860 C   0  0  0  0  0  0  0  0  0  0  0  0
   18.7240   27.4100   11.7080 C   0  0  0  0  0  0  0  0  0  0  0  0
   17.9220   27.2810   12.6910 O   0  0  0  0  0  0  0  0  0  0  0  0
   19.7940   28.3190   11.8810 N   0  0  0  0  0  0  0  0  0  0  0  0
   20.4440   28.4230   11.0820 H   0  0  0  0  0  0  0  0  0  0  0  0
   20.0020   29.0770   13.0930 C   0  0  0  0  0  0  0  0  0  0  0  0
   21.4200   29.6100   13.0280 C   0  0  0  0  0  0  0  0  0  0  0  0
   21.8530   30.8440   12.7990 C   0  0  0  0  0  0  0  0  0  0  0  0
   22.8650   28.6800   13.2480 S   0  0  0  0  0  0  0  0  0  0  0  0
   23.1750   31.1170   12.7800 C   0  0  0  0  0  0  0  0  0  0  0  0
   24.0240   30.0260   13.0160 C   0  0  0  0  0  0  0  0  0  0  0  0
   29.8670   25.5550   16.9770 C   0  0  0  0  0  0  0  0  0  0  0  0
   28.3450   25.7220   17.0260 C   0  0  0  0  0  0  0  0  0  0  0  0
   27.6010   24.4060   16.8590 C   0  0  0  0  0  0  0  0  0  0  0  0
   26.5890   24.1850   17.9500 C   0  0  0  0  0  0  0  0  0  0  0  0
   25.3250   23.5730   17.3550 C   0  0  0  0  0  0  0  0  0  0  0  0
   24.4190   24.6350   16.8580 N   0  0  0  0  0  0  0  0  0  0  0  0
  1  4  1  0  0  0  0
  2 31  1  0  0  0  0
  2  1  1  0  0  0  0
  3  2  2  0  0  0  0
  5  1  1  0  0  0  0
  6  5  1  6  0  0  0
  6  7  1  0  0  0  0
  6 29  1  0  0  0  0
  7 27  1  1  0  0  0
  8  7  1  6  0  0  0
  8 13  1  0  0  0  0
  9 16  1  6  0  0  0
  9 14  1  0  0  0  0
  9 10  1  0  0  0  0
 10 12  1  0  0  0  0
 11  8  1  0  0  0  0
 11  9  1  0  0  0  0
 12 20  1  1  0  0  0
 13 22  1  1  0  0  0
 13 12  1  0  0  0  0
 14 15  1  0  0  0  0
 17 16  2  0  0  0  0
 18 16  1  0  0  0  0
 18 19  1  0  0  0  0
 21 20  1  0  0  0  0
 22 23  1  0  0  0  0
 23 26  2  0  0  0  0
 23 25  1  0  0  0  0
 24 22  1  0  0  0  0
 28 27  1  0  0  0  0
 29 30  1  0  0  0  0
 31 32  1  0  0  0  0
 32 33  1  0  0  0  0
 33 35  1  0  0  0  0
 33 34  2  0  0  0  0
 34 36  1  0  0  0  0
 35 37  2  0  0  0  0
 36 38  1  0  0  0  0
 37 36  1  0  0  0  0
 38 39  1  0  0  0  0
 39 41  1  0  0  0  0
 39 40  2  0  0  0  0
 41 43  1  0  0  0  0
 42 41  1  0  0  0  0
 44 43  1  0  0  0  0
 44 46  1  0  0  0  0
 45 44  2  0  0  0  0
 47 45  1  0  0  0  0
 47 48  2  0  0  0  0
 48 46  1  0  0  0  0
 49 50  1  0  0  0  0
 51 50  1  0  0  0  0
 51 52  1  0  0  0  0
 53 52  1  0  0  0  0
 54 53  1  0  0  0  0
M  END
>  <REMARK>
 VINA RESULT:    -4.126      8.027     11.071
 INTER + INTRA:         -14.653
 INTER:                  -7.865
 INTRA:                  -6.788
 UNBOUND:                -6.788
 SMILES CC(=O)N[C@@H]1[C@@H](O)C[C@](O)(C(=O)O)O[C@H]1C(O)[C@H](O)CNC(=O)OCc1cn(CC(=O)NCc2cccs2)nn1
 SMILES IDX 21 1 22 2 23 3 20 5 18 6 16 7 15 8 9 9 8 10 14 11 6 12 5 13
 SMILES IDX 10 14 11 16 12 17 13 18 7 20 4 22 2 23 1 25 3 26 17 27 19 29
 SMILES IDX 24 31 25 32 26 33 27 34 40 35 28 36 39 37 29 38 30 39 31 40
 SMILES IDX 32 41 33 43 34 44 35 45 38 46 36 47 37 48
 H PARENT 21 4 10 15 13 19 7 21 4 24 17 28 19 30 32 42
 Flexibility Score: inf
  4 active torsions:
  status: ('A' for Active; 'I' for Inactive)
    1  A    between atoms: CA   and  CB  
    2  A    between atoms: CB   and  CG  
    3  A    between atoms: CG   and  CD  
    4  A    between atoms: CD   and  CE  

>  <TORSDO>
F 18

>  <BEGIN_>
RES LYS A 131

$$$$
ligand_18_pose_17_2HRL.pdbqt
 OpenBabel07062320523D

  6  5  0  0  0  0  0  0  0  0999 V2000
   33.1930   34.6630    9.2900 C   0  0  0  0  0  0  0  0  0  0  0  0
   32.0600   35.3600   10.0340 C   0  0  0  0  0  0  0  0  0  0  0  0
   30.8200   35.5520    9.2000 C   0  0  0  0  0  0  0  0  0  0  0  0
   30.1650   34.2130    8.8960 C   0  0  0  0  0  0  0  0  0  0  0  0
   28.6850   34.3960    8.6160 C   0  0  0  0  0  0  0  0  0  0  0  0
   27.8560   33.6650    9.6140 N   0  0  0  0  0  0  0  0  0  0  0  0
  1  2  1  0  0  0  0
  3  2  1  0  0  0  0
  4  3  1  0  0  0  0
  5  4  1  0  0  0  0
  5  6  1  0  0  0  0
M  END
>  <EGIN_R>
ES LYS A 135

>  <REMARK>
  4 active torsions:
  status: ('A' for Active; 'I' for Inactive)
    5  A    between atoms: CA   and  CB  
    6  A    between atoms: CB   and  CG  
    7  A    between atoms: CG   and  CD  
    8  A    between atoms: CD   and  CE  

$$$$
