ligand_84_pose_8_2HRL.pdbqt
 OpenBabel07062320523D

 60 62  0  0  1  0  0  0  0  0999 V2000
   18.0330   33.3620    7.9570 O   0  0  0  0  0  0  0  0  0  0  0  0
   18.5880   34.6300    7.8770 C   0  0  0  0  0  0  0  0  0  0  0  0
   19.9200   34.8930    7.4520 N   0  0  0  0  0  0  0  0  0  0  0  0
   20.4960   34.0680    7.1980 H   0  0  0  0  0  0  0  0  0  0  0  0
   17.8330   35.5840    8.2090 O   0  0  0  0  0  0  0  0  0  0  0  0
   20.3310   36.2580    7.4140 C   0  0  0  0  0  0  0  0  0  0  0  0
   21.7470   36.5340    7.7250 C   0  0  2  0  0  0  0  0  0  0  0  0
   22.0030   37.7570    8.5880 C   0  0  1  0  0  0  0  0  0  0  0  0
   23.1630   37.3370    9.4930 C   0  0  2  0  0  0  0  0  0  0  0  0
   25.3260   36.4900    9.2670 C   0  0  2  0  0  0  0  0  0  0  0  0
   25.0960   35.5930   10.4500 C   0  0  0  0  0  0  0  0  0  0  0  0
   24.1770   36.9350    8.6690 O   0  0  0  0  0  0  0  0  0  0  0  0
   23.9510   35.9790   11.3150 C   0  0  1  0  0  0  0  0  0  0  0  0
   22.7400   36.2210   10.3890 C   0  0  1  0  0  0  0  0  0  0  0  0
   25.9790   35.6680    8.3120 O   0  0  0  0  0  0  0  0  0  0  0  0
   25.5910   35.7800    7.4250 H   0  0  0  0  0  0  0  0  0  0  0  0
   26.2740   37.6050    9.5590 C   0  0  0  0  0  0  0  0  0  0  0  0
   26.7000   38.3340    8.6280 O   0  0  0  0  0  0  0  0  0  0  0  0
   26.7260   37.8940   10.8380 O   0  0  0  0  0  0  0  0  0  0  0  0
   27.5510   38.4460   11.0430 H   0  0  0  0  0  0  0  0  0  0  0  0
   23.6450   34.9110   12.1580 O   0  0  0  0  0  0  0  0  0  0  0  0
   23.2200   35.2340   12.9950 H   0  0  0  0  0  0  0  0  0  0  0  0
   21.5750   36.5320   11.1740 N   0  0  0  0  0  0  0  0  0  0  0  0
   20.4620   35.6630   11.2150 C   0  0  0  0  0  0  0  0  0  0  0  0
   21.5560   37.4110   11.7190 H   0  0  0  0  0  0  0  0  0  0  0  0
   19.3070   36.0840   12.0620 C   0  0  0  0  0  0  0  0  0  0  0  0
   20.4110   34.5840   10.5890 O   0  0  0  0  0  0  0  0  0  0  0  0
   22.3830   38.8220    7.7540 O   0  0  0  0  0  0  0  0  0  0  0  0
   23.1000   39.3050    8.2380 H   0  0  0  0  0  0  0  0  0  0  0  0
   22.3750   36.8610    6.4910 O   0  0  0  0  0  0  0  0  0  0  0  0
   22.7080   37.7930    6.6300 H   0  0  0  0  0  0  0  0  0  0  0  0
   16.8930   33.0190    7.1850 C   0  0  0  0  0  0  0  0  0  0  0  0
   16.9130   31.5790    6.8440 C   0  0  0  0  0  0  0  0  0  0  0  0
   16.9300   30.5540    7.7940 C   0  0  0  0  0  0  0  0  0  0  0  0
   16.9080   30.9360    5.6690 N   0  0  0  0  0  0  0  0  0  0  0  0
   16.9330   29.3580    7.1890 N   0  0  0  0  0  0  0  0  0  0  0  0
   16.9220   29.6290    5.8650 N   0  0  0  0  0  0  0  0  0  0  0  0
   16.9260   28.0260    7.7670 C   0  0  0  0  0  0  0  0  0  0  0  0
   15.6730   27.8590    8.6350 C   0  0  1  0  0  0  0  0  0  0  0  0
   14.5840   27.1610    7.9100 C   0  0  0  0  0  0  0  0  0  0  0  0
   16.0070   27.4500   10.0080 C   0  0  0  0  0  0  0  0  0  0  0  0
   17.1890   28.0680   10.5230 N   0  0  0  0  0  0  0  0  0  0  0  0
   16.8230   29.2840   11.2980 C   0  0  0  0  0  0  0  0  0  0  0  0
   17.8020   27.2030   11.5250 C   0  0  0  0  0  0  0  0  0  0  0  0
   18.0050   29.8680   11.9870 C   0  0  0  0  0  0  0  0  0  0  0  0
   19.2510   27.7050   11.6220 C   0  0  0  0  0  0  0  0  0  0  0  0
   19.2130   29.1040   11.9360 N   0  0  0  0  0  0  0  0  0  0  0  0
   20.4500   29.7480   12.2170 C   0  0  0  0  0  0  0  0  0  0  0  0
   21.6070   29.0030   12.2560 C   0  0  0  0  0  0  0  0  0  0  0  0
   20.5050   31.1130   12.4600 C   0  0  0  0  0  0  0  0  0  0  0  0
   22.7990   29.6300   12.5360 C   0  0  0  0  0  0  0  0  0  0  0  0
   21.6980   31.7270   12.7390 C   0  0  0  0  0  0  0  0  0  0  0  0
   22.8580   30.9690   12.7750 C   0  0  0  0  0  0  0  0  0  0  0  0
   24.3660   31.7640   13.1390 Cl  0  0  0  0  0  0  0  0  0  0  0  0
   29.8670   25.5550   16.9770 C   0  0  0  0  0  0  0  0  0  0  0  0
   28.3450   25.7220   17.0260 C   0  0  0  0  0  0  0  0  0  0  0  0
   27.6010   24.4030   16.8840 C   0  0  0  0  0  0  0  0  0  0  0  0
   26.1500   24.5280   17.2600 C   0  0  0  0  0  0  0  0  0  0  0  0
   26.0150   24.5110   18.7790 C   0  0  0  0  0  0  0  0  0  0  0  0
   25.5520   23.1830   19.2450 N   0  0  0  0  0  0  0  0  0  0  0  0
  2  1  1  0  0  0  0
  2  5  2  0  0  0  0
  3  2  1  0  0  0  0
  4  3  1  0  0  0  0
  6  3  1  0  0  0  0
  7  6  1  6  0  0  0
  7  8  1  0  0  0  0
  8 28  1  6  0  0  0
  9  8  1  6  0  0  0
  9 14  1  0  0  0  0
 10 15  1  6  0  0  0
 10 17  1  0  0  0  0
 10 11  1  0  0  0  0
 11 13  1  0  0  0  0
 12 10  1  0  0  0  0
 12  9  1  0  0  0  0
 13 21  1  1  0  0  0
 14 23  1  1  0  0  0
 14 13  1  0  0  0  0
 16 15  1  0  0  0  0
 17 19  1  0  0  0  0
 18 17  2  0  0  0  0
 19 20  1  0  0  0  0
 21 22  1  0  0  0  0
 23 24  1  0  0  0  0
 23 25  1  0  0  0  0
 24 26  1  0  0  0  0
 27 24  2  0  0  0  0
 28 29  1  0  0  0  0
 30 31  1  0  0  0  0
 30  7  1  0  0  0  0
 32  1  1  0  0  0  0
 33 32  1  0  0  0  0
 33 34  2  0  0  0  0
 35 37  2  0  0  0  0
 35 33  1  0  0  0  0
 36 38  1  0  0  0  0
 36 34  1  0  0  0  0
 37 36  1  0  0  0  0
 38 39  1  0  0  0  0
 39 40  1  6  0  0  0
 39 41  1  0  0  0  0
 41 42  1  0  0  0  0
 42 43  1  0  0  0  0
 42 44  1  0  0  0  0
 43 45  1  0  0  0  0
 44 46  1  0  0  0  0
 46 47  1  0  0  0  0
 47 45  1  0  0  0  0
 47 48  1  0  0  0  0
 48 49  2  0  0  0  0
 48 50  1  0  0  0  0
 49 51  1  0  0  0  0
 50 52  2  0  0  0  0
 51 53  2  0  0  0  0
 52 53  1  0  0  0  0
 53 54  1  0  0  0  0
 55 56  1  0  0  0  0
 57 56  1  0  0  0  0
 57 58  1  0  0  0  0
 58 59  1  0  0  0  0
 59 60  1  0  0  0  0
M  END
>  <REMARK>
 VINA RESULT:    -5.167      5.076      7.685
 INTER + INTRA:         -16.271
 INTER:                 -10.929
 INTRA:                  -5.342
 UNBOUND:                -6.121
 SMILES CC(=O)N[C@@H]1[C@@H](O)C[C@](O)(C(=O)O)O[C@H]1C(O)[C@H](O)CNC(=O)OCc1cn(C[C@@H](C)CN2CCN(c3ccc(Cl)cc3)CC2)nn1
 SMILES IDX 24 1 22 2 21 3 23 5 20 6 18 7 16 8 15 9 9 10 8 11 14 12 6 13
 SMILES IDX 5 14 10 15 11 17 12 18 13 19 7 21 4 23 2 24 1 26 3 27 17 28
 SMILES IDX 19 30 25 32 26 33 27 34 47 35 28 36 46 37 29 38 30 39 31 40
 SMILES IDX 32 41 33 42 34 43 45 44 35 45 44 46 36 47 37 48 38 49 43 50
 SMILES IDX 39 51 42 52 40 53 41 54
 H PARENT 21 4 10 16 13 20 7 22 4 25 17 29 19 31
 Flexibility Score: inf
  4 active torsions:
  status: ('A' for Active; 'I' for Inactive)
    1  A    between atoms: CA   and  CB  
    2  A    between atoms: CB   and  CG  
    3  A    between atoms: CG   and  CD  
    4  A    between atoms: CD   and  CE  

>  <TORSDO>
F 19

>  <BEGIN_>
RES LYS A 131

$$$$
ligand_84_pose_8_2HRL.pdbqt
 OpenBabel07062320523D

  6  5  0  0  0  0  0  0  0  0999 V2000
   33.1930   34.6630    9.2900 C   0  0  0  0  0  0  0  0  0  0  0  0
   32.0600   35.3600   10.0340 C   0  0  0  0  0  0  0  0  0  0  0  0
   30.7090   35.1600    9.3980 C   0  0  0  0  0  0  0  0  0  0  0  0
   29.7290   36.2210    9.8740 C   0  0  0  0  0  0  0  0  0  0  0  0
   29.4480   36.0600   11.3560 C   0  0  0  0  0  0  0  0  0  0  0  0
   28.7560   34.7710   11.6330 N   0  0  0  0  0  0  0  0  0  0  0  0
  1  2  1  0  0  0  0
  3  4  1  0  0  0  0
  3  2  1  0  0  0  0
  4  5  1  0  0  0  0
  5  6  1  0  0  0  0
M  END
>  <EGIN_R>
ES LYS A 135

>  <REMARK>
  4 active torsions:
  status: ('A' for Active; 'I' for Inactive)
    5  A    between atoms: CA   and  CB  
    6  A    between atoms: CB   and  CG  
    7  A    between atoms: CG   and  CD  
    8  A    between atoms: CD   and  CE  

$$$$
