ligand_86_pose_17_2HRL.pdbqt
 OpenBabel07062320523D

 52 54  0  0  1  0  0  0  0  0999 V2000
   23.7660   36.3540    9.2910 C   0  0  0  0  0  0  0  0  0  0  0  0
   25.2530   36.2750    9.3220 C   0  0  2  0  0  0  0  0  0  0  0  0
   25.9340   37.2540    8.4170 C   0  0  2  0  0  0  0  0  0  0  0  0
   27.0960   36.6470    7.6660 C   0  0  2  0  0  0  0  0  0  0  0  0
   29.2630   35.9020    7.9740 C   0  0  2  0  0  0  0  0  0  0  0  0
   29.1480   35.7740    6.4790 C   0  0  0  0  0  0  0  0  0  0  0  0
   28.0750   36.2810    8.5790 O   0  0  0  0  0  0  0  0  0  0  0  0
   28.6160   37.0050    5.8110 C   0  0  1  0  0  0  0  0  0  0  0  0
   27.6980   37.7110    6.7710 C   0  0  1  0  0  0  0  0  0  0  0  0
   30.3060   36.7430    8.3600 O   0  0  0  0  0  0  0  0  0  0  0  0
   29.9640   37.6460    8.5620 H   0  0  0  0  0  0  0  0  0  0  0  0
   29.5970   34.5420    8.5030 C   0  0  0  0  0  0  0  0  0  0  0  0
   28.6830   33.7840    8.9740 O   0  0  0  0  0  0  0  0  0  0  0  0
   30.8750   34.0350    8.5150 O   0  0  0  0  0  0  0  0  0  0  0  0
   31.5300   34.4050    9.2160 H   0  0  0  0  0  0  0  0  0  0  0  0
   29.5910   37.8120    5.2740 O   0  0  0  0  0  0  0  0  0  0  0  0
   30.0160   37.3180    4.5240 H   0  0  0  0  0  0  0  0  0  0  0  0
   26.6940   38.5110    6.1170 N   0  0  0  0  0  0  0  0  0  0  0  0
   26.8900   39.8950    5.8230 C   0  0  0  0  0  0  0  0  0  0  0  0
   25.7790   38.0960    5.8330 H   0  0  0  0  0  0  0  0  0  0  0  0
   25.8210   40.6600    5.1500 C   0  0  0  0  0  0  0  0  0  0  0  0
   27.9810   40.4120    6.1550 O   0  0  0  0  0  0  0  0  0  0  0  0
   26.4230   38.3130    9.1800 O   0  0  0  0  0  0  0  0  0  0  0  0
   25.7670   38.6420    9.8190 H   0  0  0  0  0  0  0  0  0  0  0  0
   25.6990   34.9790    8.9720 O   0  0  0  0  0  0  0  0  0  0  0  0
   24.8960   34.3940    9.0760 H   0  0  0  0  0  0  0  0  0  0  0  0
   23.2910   37.6590    8.8990 N   0  0  0  0  0  0  0  0  0  0  0  0
   22.5480   38.4450    9.8190 C   0  0  0  0  0  0  0  0  0  0  0  0
   23.4700   38.0700    7.9520 H   0  0  0  0  0  0  0  0  0  0  0  0
   22.2690   38.0590   10.9870 O   0  0  0  0  0  0  0  0  0  0  0  0
   22.0670   39.7130    9.4940 O   0  0  0  0  0  0  0  0  0  0  0  0
   22.5550   40.8920   10.1010 C   0  0  0  0  0  0  0  0  0  0  0  0
   24.0150   41.0280    9.8480 C   0  0  0  0  0  0  0  0  0  0  0  0
   24.9540   41.3830   10.7940 C   0  0  0  0  0  0  0  0  0  0  0  0
   24.7080   40.8450    8.7110 N   0  0  0  0  0  0  0  0  0  0  0  0
   26.1860   41.4080   10.2130 N   0  0  0  0  0  0  0  0  0  0  0  0
   25.9780   41.0740    8.9510 N   0  0  0  0  0  0  0  0  0  0  0  0
   27.4560   41.7330   10.8550 C   0  0  2  0  0  0  0  0  0  0  0  0
   28.4770   41.9090    9.7930 C   0  0  0  0  0  0  0  0  0  0  0  0
   27.7460   40.6700   11.8530 C   0  0  0  0  0  0  0  0  0  0  0  0
   29.8600   41.5030   10.1570 C   0  0  1  0  0  0  0  0  0  0  0  0
   29.1670   40.1700   11.8290 C   0  0  2  0  0  0  0  0  0  0  0  0
   30.0210   41.3180   11.5820 N   0  0  0  0  0  0  0  0  0  0  0  0
   30.0930   40.0970    9.6270 C   0  0  0  0  0  0  0  0  0  0  0  0
   29.3240   39.2640   10.6340 C   0  0  0  0  0  0  0  0  0  0  0  0
   31.4020   41.0470   11.8950 C   0  0  0  0  0  0  0  0  0  0  0  0
   29.8670   25.5550   16.9770 C   0  0  0  0  0  0  0  0  0  0  0  0
   28.3450   25.7220   17.0260 C   0  0  0  0  0  0  0  0  0  0  0  0
   27.6010   24.4010   16.9010 C   0  0  0  0  0  0  0  0  0  0  0  0
   26.5530   24.2380   17.9670 C   0  0  0  0  0  0  0  0  0  0  0  0
   25.2040   23.9550   17.3150 C   0  0  0  0  0  0  0  0  0  0  0  0
   24.8380   22.5280   17.4770 N   0  0  0  0  0  0  0  0  0  0  0  0
  2  1  1  6  0  0  0
  3 23  1  1  0  0  0
  3  2  1  0  0  0  0
  4  3  1  1  0  0  0
  4  7  1  0  0  0  0
  5 10  1  1  0  0  0
  5 12  1  0  0  0  0
  5  7  1  0  0  0  0
  6  5  1  0  0  0  0
  8 16  1  1  0  0  0
  8  6  1  0  0  0  0
  8  9  1  0  0  0  0
  9 18  1  6  0  0  0
  9  4  1  0  0  0  0
 10 11  1  0  0  0  0
 12 14  1  0  0  0  0
 12 13  2  0  0  0  0
 14 15  1  0  0  0  0
 17 16  1  0  0  0  0
 19 18  1  0  0  0  0
 19 22  2  0  0  0  0
 20 18  1  0  0  0  0
 21 19  1  0  0  0  0
 23 24  1  0  0  0  0
 25 26  1  0  0  0  0
 25  2  1  0  0  0  0
 27  1  1  0  0  0  0
 27 28  1  0  0  0  0
 28 30  2  0  0  0  0
 29 27  1  0  0  0  0
 31 28  1  0  0  0  0
 31 32  1  0  0  0  0
 33 32  1  0  0  0  0
 33 34  2  0  0  0  0
 35 37  2  0  0  0  0
 35 33  1  0  0  0  0
 36 34  1  0  0  0  0
 36 38  1  0  0  0  0
 37 36  1  0  0  0  0
 38 39  1  6  0  0  0
 38 40  1  0  0  0  0
 39 41  1  0  0  0  0
 41 44  1  6  0  0  0
 41 43  1  0  0  0  0
 42 45  1  6  0  0  0
 42 40  1  0  0  0  0
 43 42  1  0  0  0  0
 43 46  1  0  0  0  0
 44 45  1  0  0  0  0
 47 48  1  0  0  0  0
 49 48  1  0  0  0  0
 49 50  1  0  0  0  0
 51 52  1  0  0  0  0
 51 50  1  0  0  0  0
M  END
>  <REMARK>
 VINA RESULT:    -4.142      7.532     12.149
 INTER + INTRA:         -13.723
 INTER:                  -7.907
 INTRA:                  -5.816
 UNBOUND:                -6.555
 SMILES CC(=O)N[C@@H]1[C@@H](O)C[C@](O)(C(=O)O)O[C@H]1C(O)[C@H](O)CNC(=O)OCc1cn([C@H]2C[C@H]3CC[C@@H](C2)N3C)nn1
 SMILES IDX 20 1 18 2 16 3 15 4 9 5 8 6 14 7 6 8 5 9 10 10 11 12 12 13
 SMILES IDX 13 14 7 16 4 18 2 19 1 21 3 22 17 23 19 25 21 27 22 28 23 30
 SMILES IDX 24 31 25 32 26 33 27 34 39 35 28 36 38 37 29 38 35 39 30 40
 SMILES IDX 34 41 31 42 36 43 33 44 32 45 37 46
 H PARENT 10 11 13 15 7 17 4 20 17 24 19 26 21 29
 Flexibility Score: inf
  4 active torsions:
  status: ('A' for Active; 'I' for Inactive)
    1  A    between atoms: CA   and  CB  
    2  A    between atoms: CB   and  CG  
    3  A    between atoms: CG   and  CD  
    4  A    between atoms: CD   and  CE  

>  <TORSDO>
F 15

>  <BEGIN_>
RES LYS A 131

$$$$
ligand_86_pose_17_2HRL.pdbqt
 OpenBabel07062320523D

  6  5  0  0  0  0  0  0  0  0999 V2000
   33.1930   34.6630    9.2900 C   0  0  0  0  0  0  0  0  0  0  0  0
   32.0600   35.3600   10.0340 C   0  0  0  0  0  0  0  0  0  0  0  0
   32.5270   36.1940   11.1990 C   0  0  0  0  0  0  0  0  0  0  0  0
   31.3670   36.5160   12.1280 C   0  0  0  0  0  0  0  0  0  0  0  0
   30.1910   35.6000   11.8490 C   0  0  0  0  0  0  0  0  0  0  0  0
   30.0650   34.5530   12.9000 N   0  0  0  0  0  0  0  0  0  0  0  0
  1  2  1  0  0  0  0
  2  3  1  0  0  0  0
  3  4  1  0  0  0  0
  5  4  1  0  0  0  0
  5  6  1  0  0  0  0
M  END
>  <EGIN_R>
ES LYS A 135

>  <REMARK>
  4 active torsions:
  status: ('A' for Active; 'I' for Inactive)
    5  A    between atoms: CA   and  CB  
    6  A    between atoms: CB   and  CG  
    7  A    between atoms: CG   and  CD  
    8  A    between atoms: CD   and  CE  

$$$$
