ligand_72_pose_11_2HRL.pdbqt
 OpenBabel07062320523D

 49 49  0  0  1  0  0  0  0  0999 V2000
   30.5820   35.3230   20.5570 N   0  0  0  0  0  0  0  0  0  0  0  0
   31.7380   35.8200   19.8730 C   0  0  0  0  0  0  0  0  0  0  0  0
   32.7420   35.0690   19.6310 O   0  0  0  0  0  0  0  0  0  0  0  0
   29.7900   35.9720   20.7170 H   0  0  0  0  0  0  0  0  0  0  0  0
   30.5470   33.9400   20.9830 C   0  0  0  0  0  0  0  0  0  0  0  0
   29.8590   33.0520   20.0220 C   0  0  2  0  0  0  0  0  0  0  0  0
   30.6760   32.3580   18.9980 C   0  0  1  0  0  0  0  0  0  0  0  0
   30.2300   30.9280   18.8090 C   0  0  2  0  0  0  0  0  0  0  0  0
   28.4360   31.1200   17.2800 C   0  0  2  0  0  0  0  0  0  0  0  0
   27.4620   30.7040   18.3980 C   0  0  0  0  0  0  0  0  0  0  0  0
   29.7180   30.7560   17.5400 O   0  0  0  0  0  0  0  0  0  0  0  0
   28.1840   29.6600   19.1830 C   0  0  1  0  0  0  0  0  0  0  0  0
   29.3540   30.3920   19.9000 C   0  0  1  0  0  0  0  0  0  0  0  0
   28.2260   32.4520   16.9870 O   0  0  0  0  0  0  0  0  0  0  0  0
   27.5330   32.8230   17.5840 H   0  0  0  0  0  0  0  0  0  0  0  0
   28.0320   30.3340   16.0490 C   0  0  0  0  0  0  0  0  0  0  0  0
   26.8330   30.2770   15.6890 O   0  0  0  0  0  0  0  0  0  0  0  0
   29.0210   29.6870   15.3410 O   0  0  0  0  0  0  0  0  0  0  0  0
   29.3880   30.0660   14.4740 H   0  0  0  0  0  0  0  0  0  0  0  0
   27.3930   29.0150   20.1130 O   0  0  0  0  0  0  0  0  0  0  0  0
   26.8980   28.3040   19.6270 H   0  0  0  0  0  0  0  0  0  0  0  0
   29.9800   29.2920   20.6510 N   0  0  0  0  0  0  0  0  0  0  0  0
   30.6760   29.4770   21.8500 C   0  0  0  0  0  0  0  0  0  0  0  0
   29.8830   28.3370   20.2480 H   0  0  0  0  0  0  0  0  0  0  0  0
   31.3190   28.3830   22.6220 C   0  0  0  0  0  0  0  0  0  0  0  0
   30.7720   30.6460   22.3160 O   0  0  0  0  0  0  0  0  0  0  0  0
   31.0410   33.0360   17.8830 O   0  0  0  0  0  0  0  0  0  0  0  0
   31.9990   32.9520   17.6360 H   0  0  0  0  0  0  0  0  0  0  0  0
   28.8450   33.7790   19.3570 O   0  0  0  0  0  0  0  0  0  0  0  0
   28.4710   33.1980   18.6590 H   0  0  0  0  0  0  0  0  0  0  0  0
   31.7440   37.1340   19.4810 O   0  0  0  0  0  0  0  0  0  0  0  0
   30.9250   37.6390   18.4680 C   0  0  0  0  0  0  0  0  0  0  0  0
   30.5490   36.5800   17.4960 C   0  0  0  0  0  0  0  0  0  0  0  0
   31.3040   36.2200   16.4080 C   0  0  0  0  0  0  0  0  0  0  0  0
   29.4660   35.8040   17.4780 N   0  0  0  0  0  0  0  0  0  0  0  0
   30.6680   35.2410   15.7570 N   0  0  0  0  0  0  0  0  0  0  0  0
   29.5440   35.0060   16.4370 N   0  0  0  0  0  0  0  0  0  0  0  0
   31.1340   34.5890   14.5600 C   0  0  0  0  0  0  0  0  0  0  0  0
   32.5890   34.1960   14.6940 C   0  0  0  0  0  0  0  0  0  0  0  0
   30.9520   35.5430   13.3860 C   0  0  0  0  0  0  0  0  0  0  0  0
   30.2800   33.3800   14.2750 C   0  0  0  0  0  0  0  0  0  0  0  0
   30.6950   32.3050   15.0660 O   0  0  0  0  0  0  0  0  0  0  0  0
   30.0580   31.5570   14.9380 H   0  0  0  0  0  0  0  0  0  0  0  0
   29.8670   25.5550   16.9770 C   0  0  0  0  0  0  0  0  0  0  0  0
   28.3450   25.7220   17.0260 C   0  0  0  0  0  0  0  0  0  0  0  0
   27.6010   24.4030   16.8860 C   0  0  0  0  0  0  0  0  0  0  0  0
   26.5380   24.2370   17.9370 C   0  0  0  0  0  0  0  0  0  0  0  0
   25.1620   24.3020   17.2830 C   0  0  0  0  0  0  0  0  0  0  0  0
   24.5410   22.9560   17.2470 N   0  0  0  0  0  0  0  0  0  0  0  0
  1  4  1  0  0  0  0
  1  5  1  0  0  0  0
  2  1  1  0  0  0  0
  3  2  2  0  0  0  0
  6  5  1  6  0  0  0
  7 27  1  6  0  0  0
  7  6  1  0  0  0  0
  8  7  1  1  0  0  0
  8 13  1  0  0  0  0
  9 16  1  6  0  0  0
  9 11  1  0  0  0  0
  9 10  1  0  0  0  0
 10 12  1  0  0  0  0
 11  8  1  0  0  0  0
 12 13  1  0  0  0  0
 12 20  1  1  0  0  0
 13 22  1  1  0  0  0
 14  9  1  0  0  0  0
 14 15  1  0  0  0  0
 17 16  2  0  0  0  0
 18 16  1  0  0  0  0
 19 18  1  0  0  0  0
 21 20  1  0  0  0  0
 22 23  1  0  0  0  0
 23 26  2  0  0  0  0
 23 25  1  0  0  0  0
 24 22  1  0  0  0  0
 28 27  1  0  0  0  0
 29  6  1  0  0  0  0
 30 29  1  0  0  0  0
 31  2  1  0  0  0  0
 32 31  1  0  0  0  0
 33 32  1  0  0  0  0
 34 33  2  0  0  0  0
 35 33  1  0  0  0  0
 36 34  1  0  0  0  0
 36 37  1  0  0  0  0
 37 35  2  0  0  0  0
 38 39  1  0  0  0  0
 38 36  1  0  0  0  0
 40 38  1  0  0  0  0
 41 38  1  0  0  0  0
 41 42  1  0  0  0  0
 43 42  1  0  0  0  0
 44 45  1  0  0  0  0
 46 45  1  0  0  0  0
 46 47  1  0  0  0  0
 48 47  1  0  0  0  0
 49 48  1  0  0  0  0
M  END
>  <REMARK>
 VINA RESULT:    -4.280      6.897     12.053
 INTER + INTRA:         -13.928
 INTER:                  -6.066
 INTRA:                  -7.862
 UNBOUND:                -6.145
 SMILES CC(=O)N[C@@H]1[C@@H](O)C[C@](O)(C(=O)O)O[C@H]1C(O)[C@H](O)CNC(=O)OCc1cn(C(C)(C)CO)nn1
 SMILES IDX 21 1 22 2 23 3 20 5 18 6 16 7 15 8 9 9 8 10 14 11 6 12 5 13
 SMILES IDX 10 14 11 16 12 17 13 18 7 20 4 22 2 23 1 25 3 26 17 27 19 29
 SMILES IDX 24 31 25 32 26 33 27 34 35 35 28 36 34 37 29 38 30 39 31 40
 SMILES IDX 32 41 33 42
 H PARENT 21 4 10 15 13 19 7 21 4 24 17 28 19 30 33 43
 Flexibility Score: inf
  4 active torsions:
  status: ('A' for Active; 'I' for Inactive)
    1  A    between atoms: CA   and  CB  
    2  A    between atoms: CB   and  CG  
    3  A    between atoms: CG   and  CD  
    4  A    between atoms: CD   and  CE  

>  <TORSDO>
F 17

>  <BEGIN_>
RES LYS A 131

$$$$
ligand_72_pose_11_2HRL.pdbqt
 OpenBabel07062320523D

  6  5  0  0  0  0  0  0  0  0999 V2000
   33.1930   34.6630    9.2900 C   0  0  0  0  0  0  0  0  0  0  0  0
   32.0600   35.3600   10.0340 C   0  0  0  0  0  0  0  0  0  0  0  0
   30.7060   34.7520    9.7750 C   0  0  0  0  0  0  0  0  0  0  0  0
   30.5010   34.5090    8.2880 C   0  0  0  0  0  0  0  0  0  0  0  0
   29.1080   34.9340    7.8660 C   0  0  0  0  0  0  0  0  0  0  0  0
   28.3200   35.4220    9.0310 N   0  0  0  0  0  0  0  0  0  0  0  0
  1  2  1  0  0  0  0
  3  2  1  0  0  0  0
  4  3  1  0  0  0  0
  5  4  1  0  0  0  0
  5  6  1  0  0  0  0
M  END
>  <EGIN_R>
ES LYS A 135

>  <REMARK>
  4 active torsions:
  status: ('A' for Active; 'I' for Inactive)
    5  A    between atoms: CA   and  CB  
    6  A    between atoms: CB   and  CG  
    7  A    between atoms: CG   and  CD  
    8  A    between atoms: CD   and  CE  

$$$$
