ligand_24_pose_13_2HRL.pdbqt
 OpenBabel07062320523D

 52 53  0  0  1  0  0  0  0  0999 V2000
   25.0280   33.4500   13.7510 N   0  0  0  0  0  0  0  0  0  0  0  0
   24.7030   32.1230   14.1060 C   0  0  0  0  0  0  0  0  0  0  0  0
   24.6500   31.1830   13.2760 O   0  0  0  0  0  0  0  0  0  0  0  0
   25.0370   34.1560   14.5240 H   0  0  0  0  0  0  0  0  0  0  0  0
   25.3390   33.8780   12.4250 C   0  0  0  0  0  0  0  0  0  0  0  0
   24.2340   34.5790   11.7140 C   0  0  2  0  0  0  0  0  0  0  0  0
   24.7280   35.6860   10.8090 C   0  0  1  0  0  0  0  0  0  0  0  0
   23.6680   36.3280    9.9880 C   0  0  2  0  0  0  0  0  0  0  0  0
   21.6920   35.9500    8.8440 C   0  0  2  0  0  0  0  0  0  0  0  0
   22.1200   36.8130    7.6910 C   0  0  0  0  0  0  0  0  0  0  0  0
   22.6950   35.4150    9.5880 O   0  0  0  0  0  0  0  0  0  0  0  0
   23.3170   37.6800    8.0230 C   0  0  1  0  0  0  0  0  0  0  0  0
   24.3230   36.8010    8.6850 C   0  0  1  0  0  0  0  0  0  0  0  0
   21.0160   34.8530    8.2480 O   0  0  0  0  0  0  0  0  0  0  0  0
   20.2010   35.2390    7.8440 H   0  0  0  0  0  0  0  0  0  0  0  0
   20.6660   36.6960    9.6110 C   0  0  0  0  0  0  0  0  0  0  0  0
   20.0720   37.7110    9.1420 O   0  0  0  0  0  0  0  0  0  0  0  0
   20.2960   36.3190   10.9010 O   0  0  0  0  0  0  0  0  0  0  0  0
   20.0200   37.0050   11.5780 H   0  0  0  0  0  0  0  0  0  0  0  0
   23.7840   38.2910    6.8750 O   0  0  0  0  0  0  0  0  0  0  0  0
   23.3890   37.8690    6.0970 H   0  0  0  0  0  0  0  0  0  0  0  0
   25.6070   37.3970    8.8740 N   0  0  0  0  0  0  0  0  0  0  0  0
   26.6880   37.2910    7.9880 C   0  0  0  0  0  0  0  0  0  0  0  0
   25.7560   37.9670    9.7500 H   0  0  0  0  0  0  0  0  0  0  0  0
   27.9730   37.9590    8.3000 C   0  0  0  0  0  0  0  0  0  0  0  0
   26.5760   36.6410    6.9440 O   0  0  0  0  0  0  0  0  0  0  0  0
   25.4060   36.6200   11.5620 O   0  0  0  0  0  0  0  0  0  0  0  0
   24.9930   36.8520   12.4230 H   0  0  0  0  0  0  0  0  0  0  0  0
   23.2280   34.9960   12.5350 O   0  0  0  0  0  0  0  0  0  0  0  0
   23.6470   35.4250   13.3410 H   0  0  0  0  0  0  0  0  0  0  0  0
   24.4210   31.8150   15.4500 O   0  0  0  0  0  0  0  0  0  0  0  0
   25.1860   32.4430   16.4530 C   0  0  0  0  0  0  0  0  0  0  0  0
   26.4110   31.6920   16.7790 C   0  0  0  0  0  0  0  0  0  0  0  0
   27.6690   31.8300   16.1850 C   0  0  0  0  0  0  0  0  0  0  0  0
   26.5690   30.7280   17.7030 N   0  0  0  0  0  0  0  0  0  0  0  0
   28.5160   30.9650   16.7610 N   0  0  0  0  0  0  0  0  0  0  0  0
   27.8260   30.3110   17.6750 N   0  0  0  0  0  0  0  0  0  0  0  0
   29.9090   30.7630   16.4640 C   0  0  0  0  0  0  0  0  0  0  0  0
   30.6610   32.0360   16.4960 C   0  0  0  0  0  0  0  0  0  0  0  0
   30.7800   32.7480   17.6670 C   0  0  0  0  0  0  0  0  0  0  0  0
   31.2430   32.5110   15.3490 C   0  0  0  0  0  0  0  0  0  0  0  0
   31.4900   33.9460   17.6880 C   0  0  0  0  0  0  0  0  0  0  0  0
   31.9570   33.7080   15.3560 C   0  0  0  0  0  0  0  0  0  0  0  0
   32.0760   34.4160   16.5240 C   0  0  0  0  0  0  0  0  0  0  0  0
   32.7840   35.6190   16.5640 O   0  0  0  0  0  0  0  0  0  0  0  0
   32.6960   36.5170   15.4710 C   0  0  0  0  0  0  0  0  0  0  0  0
   29.8670   25.5550   16.9770 C   0  0  0  0  0  0  0  0  0  0  0  0
   28.3450   25.7220   17.0260 C   0  0  0  0  0  0  0  0  0  0  0  0
   27.6010   24.4020   16.8970 C   0  0  0  0  0  0  0  0  0  0  0  0
   26.1520   24.5280   17.2780 C   0  0  0  0  0  0  0  0  0  0  0  0
   25.6360   23.1800   17.7710 C   0  0  0  0  0  0  0  0  0  0  0  0
   25.5150   23.1790   19.2480 N   0  0  0  0  0  0  0  0  0  0  0  0
  1  2  1  0  0  0  0
  1  4  1  0  0  0  0
  2 31  1  0  0  0  0
  3  2  2  0  0  0  0
  5  1  1  0  0  0  0
  6  5  1  1  0  0  0
  6 29  1  0  0  0  0
  7 27  1  1  0  0  0
  7  6  1  0  0  0  0
  8  7  1  1  0  0  0
  9 14  1  6  0  0  0
  9 11  1  0  0  0  0
  9 16  1  0  0  0  0
 10 12  1  0  0  0  0
 10  9  1  0  0  0  0
 11  8  1  0  0  0  0
 12 20  1  6  0  0  0
 12 13  1  0  0  0  0
 13 22  1  1  0  0  0
 13  8  1  0  0  0  0
 15 14  1  0  0  0  0
 16 18  1  0  0  0  0
 17 16  2  0  0  0  0
 18 19  1  0  0  0  0
 21 20  1  0  0  0  0
 22 24  1  0  0  0  0
 23 25  1  0  0  0  0
 23 22  1  0  0  0  0
 26 23  2  0  0  0  0
 27 28  1  0  0  0  0
 29 30  1  0  0  0  0
 31 32  1  0  0  0  0
 32 33  1  0  0  0  0
 33 35  1  0  0  0  0
 34 36  1  0  0  0  0
 34 33  2  0  0  0  0
 36 37  1  0  0  0  0
 37 35  2  0  0  0  0
 38 39  1  0  0  0  0
 38 36  1  0  0  0  0
 39 40  2  0  0  0  0
 40 42  1  0  0  0  0
 41 43  2  0  0  0  0
 41 39  1  0  0  0  0
 43 44  1  0  0  0  0
 44 45  1  0  0  0  0
 44 42  2  0  0  0  0
 46 45  1  0  0  0  0
 47 48  1  0  0  0  0
 49 48  1  0  0  0  0
 49 50  1  0  0  0  0
 50 51  1  0  0  0  0
 51 52  1  0  0  0  0
M  END
>  <REMARK>
 VINA RESULT:    -4.961      5.253     10.276
 INTER + INTRA:         -14.443
 INTER:                  -9.638
 INTRA:                  -4.805
 UNBOUND:                -5.276
 SMILES COc1ccc(Cn2cc(COC(=O)NC[C@@H](O)C(O)[C@@H]3O[C@@](O)(C(=O)O)C[C@H](O)[C@H]3NC(C)=O)nn2)cc1
 SMILES IDX 15 1 13 2 14 3 16 5 17 6 19 7 21 8 23 9 28 10 22 11 29 12
 SMILES IDX 31 13 24 14 25 16 26 17 27 18 30 20 32 22 33 23 34 25 35 26
 SMILES IDX 20 27 18 29 12 31 11 32 10 33 9 34 36 35 8 36 37 37 7 38
 SMILES IDX 6 39 5 40 38 41 4 42 39 43 3 44 2 45 1 46
 H PARENT 15 4 24 15 27 19 30 21 32 24 20 28 18 30
 Flexibility Score: inf
  4 active torsions:
  status: ('A' for Active; 'I' for Inactive)
    1  A    between atoms: CA   and  CB  
    2  A    between atoms: CB   and  CG  
    3  A    between atoms: CG   and  CD  
    4  A    between atoms: CD   and  CE  

>  <TORSDO>
F 17

>  <BEGIN_>
RES LYS A 131

$$$$
ligand_24_pose_13_2HRL.pdbqt
 OpenBabel07062320523D

  6  5  0  0  0  0  0  0  0  0999 V2000
   33.1930   34.6630    9.2900 C   0  0  0  0  0  0  0  0  0  0  0  0
   32.0600   35.3600   10.0340 C   0  0  0  0  0  0  0  0  0  0  0  0
   30.7980   35.4940    9.2210 C   0  0  0  0  0  0  0  0  0  0  0  0
   30.2150   34.1250    8.9070 C   0  0  0  0  0  0  0  0  0  0  0  0
   28.7050   34.1420    9.0520 C   0  0  0  0  0  0  0  0  0  0  0  0
   28.3010   34.6800   10.3810 N   0  0  0  0  0  0  0  0  0  0  0  0
  1  2  1  0  0  0  0
  3  2  1  0  0  0  0
  4  5  1  0  0  0  0
  4  3  1  0  0  0  0
  5  6  1  0  0  0  0
M  END
>  <EGIN_R>
ES LYS A 135

>  <REMARK>
  4 active torsions:
  status: ('A' for Active; 'I' for Inactive)
    5  A    between atoms: CA   and  CB  
    6  A    between atoms: CB   and  CG  
    7  A    between atoms: CG   and  CD  
    8  A    between atoms: CD   and  CE  

$$$$
