ligand_88_pose_8_2HRL.pdbqt
 OpenBabel07062320523D

 54 55  0  0  1  0  0  0  0  0999 V2000
   26.7320   29.5240   17.7910 N   0  0  0  0  0  0  0  0  0  0  0  0
   25.8770   30.6260   17.5040 C   0  0  0  0  0  0  0  0  0  0  0  0
   24.6410   30.4890   17.6510 O   0  0  0  0  0  0  0  0  0  0  0  0
   27.7490   29.6630   17.6610 H   0  0  0  0  0  0  0  0  0  0  0  0
   26.2210   28.2580   18.2420 C   0  0  0  0  0  0  0  0  0  0  0  0
   26.7370   27.9230   19.6120 C   0  0  2  0  0  0  0  0  0  0  0  0
   28.2460   28.0060   19.6900 C   0  0  1  0  0  0  0  0  0  0  0  0
   28.6440   29.0890   20.7100 C   0  0  2  0  0  0  0  0  0  0  0  0
   28.2990   31.3990   20.4200 C   0  0  2  0  0  0  0  0  0  0  0  0
   29.5760   31.5770   21.2560 C   0  0  0  0  0  0  0  0  0  0  0  0
   27.8290   30.1320   20.5180 O   0  0  0  0  0  0  0  0  0  0  0  0
   30.5860   30.6900   20.5460 C   0  0  1  0  0  0  0  0  0  0  0  0
   30.1010   29.2780   20.7060 C   0  0  1  0  0  0  0  0  0  0  0  0
   28.6320   31.8030   19.1430 O   0  0  0  0  0  0  0  0  0  0  0  0
   28.6500   31.0670   18.4830 H   0  0  0  0  0  0  0  0  0  0  0  0
   27.2530   32.3130   20.9430 C   0  0  0  0  0  0  0  0  0  0  0  0
   27.4760   33.5500   20.9410 O   0  0  0  0  0  0  0  0  0  0  0  0
   26.0350   31.8500   21.4320 O   0  0  0  0  0  0  0  0  0  0  0  0
   25.7720   30.9010   21.1300 H   0  0  0  0  0  0  0  0  0  0  0  0
   30.7130   31.0580   19.2080 O   0  0  0  0  0  0  0  0  0  0  0  0
   30.1640   31.8570   19.0680 H   0  0  0  0  0  0  0  0  0  0  0  0
   30.7550   28.7410   21.8990 N   0  0  0  0  0  0  0  0  0  0  0  0
   31.5580   27.5740   21.8860 C   0  0  0  0  0  0  0  0  0  0  0  0
   30.6480   29.2170   22.8380 H   0  0  0  0  0  0  0  0  0  0  0  0
   32.2070   27.0600   23.1300 C   0  0  0  0  0  0  0  0  0  0  0  0
   31.7320   26.9530   20.8060 O   0  0  0  0  0  0  0  0  0  0  0  0
   28.8620   26.8040   19.9360 O   0  0  0  0  0  0  0  0  0  0  0  0
   28.7300   26.4910   20.8550 H   0  0  0  0  0  0  0  0  0  0  0  0
   26.2170   26.7210   20.0390 O   0  0  0  0  0  0  0  0  0  0  0  0
   25.7770   26.7560   20.9090 H   0  0  0  0  0  0  0  0  0  0  0  0
   26.3940   31.8220   17.0740 O   0  0  0  0  0  0  0  0  0  0  0  0
   26.9270   31.9840   15.7720 C   0  0  0  0  0  0  0  0  0  0  0  0
   28.4080   31.8650   15.8450 C   0  0  0  0  0  0  0  0  0  0  0  0
   29.3420   32.6710   15.2070 C   0  0  0  0  0  0  0  0  0  0  0  0
   29.1560   30.9770   16.5260 N   0  0  0  0  0  0  0  0  0  0  0  0
   30.5770   32.2510   15.5180 N   0  0  0  0  0  0  0  0  0  0  0  0
   30.4380   31.1970   16.3390 N   0  0  0  0  0  0  0  0  0  0  0  0
   31.8320   32.7960   15.0810 C   0  0  0  0  0  0  0  0  0  0  0  0
   31.8660   34.2800   15.1190 C   0  0  0  0  0  0  0  0  0  0  0  0
   32.0850   34.8960   16.3350 C   0  0  0  0  0  0  0  0  0  0  0  0
   31.6900   35.0680   14.0060 C   0  0  0  0  0  0  0  0  0  0  0  0
   32.1350   36.2650   16.4860 C   0  0  0  0  0  0  0  0  0  0  0  0
   31.7350   36.4600   14.1310 C   0  0  0  0  0  0  0  0  0  0  0  0
   32.4400   37.0850   18.1720 Br  0  0  0  0  0  0  0  0  0  0  0  0
   31.9540   37.0480   15.3530 C   0  0  0  0  0  0  0  0  0  0  0  0
   31.4780   37.4840   12.5280 Br  0  0  0  0  0  0  0  0  0  0  0  0
   31.4690   34.4820   12.7740 O   0  0  0  0  0  0  0  0  0  0  0  0
   30.5330   34.4760   12.3910 H   0  0  0  0  0  0  0  0  0  0  0  0
   29.8670   25.5550   16.9770 C   0  0  0  0  0  0  0  0  0  0  0  0
   28.3450   25.7220   17.0260 C   0  0  0  0  0  0  0  0  0  0  0  0
   27.6020   24.3990   16.9200 C   0  0  0  0  0  0  0  0  0  0  0  0
   26.1570   24.5280   17.3170 C   0  0  0  0  0  0  0  0  0  0  0  0
   25.6100   23.1570   17.7010 C   0  0  0  0  0  0  0  0  0  0  0  0
   25.2930   23.1120   19.1480 N   0  0  0  0  0  0  0  0  0  0  0  0
  1  5  1  0  0  0  0
  2  3  2  0  0  0  0
  2  1  1  0  0  0  0
  4  1  1  0  0  0  0
  6  5  1  6  0  0  0
  6  7  1  0  0  0  0
  6 29  1  0  0  0  0
  7 27  1  1  0  0  0
  8  7  1  6  0  0  0
  9 14  1  6  0  0  0
  9 11  1  0  0  0  0
  9 16  1  0  0  0  0
  9 10  1  0  0  0  0
 11  8  1  0  0  0  0
 12 20  1  6  0  0  0
 12 13  1  0  0  0  0
 12 10  1  0  0  0  0
 13  8  1  0  0  0  0
 13 22  1  1  0  0  0
 15 14  1  0  0  0  0
 16 18  1  0  0  0  0
 17 16  2  0  0  0  0
 19 18  1  0  0  0  0
 21 20  1  0  0  0  0
 22 24  1  0  0  0  0
 23 22  1  0  0  0  0
 23 25  1  0  0  0  0
 26 23  2  0  0  0  0
 27 28  1  0  0  0  0
 29 30  1  0  0  0  0
 31  2  1  0  0  0  0
 32 33  1  0  0  0  0
 32 31  1  0  0  0  0
 33 35  1  0  0  0  0
 34 36  1  0  0  0  0
 34 33  2  0  0  0  0
 36 37  1  0  0  0  0
 37 35  2  0  0  0  0
 38 39  1  0  0  0  0
 38 36  1  0  0  0  0
 39 40  2  0  0  0  0
 40 42  1  0  0  0  0
 41 43  2  0  0  0  0
 41 39  1  0  0  0  0
 42 44  1  0  0  0  0
 43 45  1  0  0  0  0
 45 42  2  0  0  0  0
 46 43  1  0  0  0  0
 47 41  1  0  0  0  0
 48 47  1  0  0  0  0
 49 50  1  0  0  0  0
 51 50  1  0  0  0  0
 51 52  1  0  0  0  0
 52 53  1  0  0  0  0
 53 54  1  0  0  0  0
M  END
>  <REMARK>
 VINA RESULT:    -5.152      1.609      3.261
 INTER + INTRA:         -15.163
 INTER:                  -8.346
 INTRA:                  -6.817
 UNBOUND:                -5.794
 SMILES CC(=O)N[C@@H]1[C@@H](O)C[C@](O)(C(=O)O)O[C@H]1C(O)[C@H](O)CNC(=O)OCc1cn(Cc2cc(Br)cc(Br)c2O)nn1
 SMILES IDX 21 1 22 2 23 3 20 5 18 6 16 7 15 8 9 9 8 10 14 11 6 12 5 13
 SMILES IDX 10 14 11 16 12 17 13 18 7 20 4 22 2 23 1 25 3 26 17 27 19 29
 SMILES IDX 24 31 25 32 26 33 27 34 40 35 28 36 39 37 29 38 30 39 31 40
 SMILES IDX 37 41 32 42 35 43 33 44 34 45 36 46 38 47
 H PARENT 21 4 10 15 13 19 7 21 4 24 17 28 19 30 38 48
 Flexibility Score: inf
  4 active torsions:
  status: ('A' for Active; 'I' for Inactive)
    1  A    between atoms: CA   and  CB  
    2  A    between atoms: CB   and  CG  
    3  A    between atoms: CG   and  CD  
    4  A    between atoms: CD   and  CE  

>  <TORSDO>
F 17

>  <BEGIN_>
RES LYS A 131

$$$$
ligand_88_pose_8_2HRL.pdbqt
 OpenBabel07062320523D

  6  5  0  0  0  0  0  0  0  0999 V2000
   33.1930   34.6630    9.2900 C   0  0  0  0  0  0  0  0  0  0  0  0
   32.0600   35.3600   10.0340 C   0  0  0  0  0  0  0  0  0  0  0  0
   30.7820   35.4480    9.2400 C   0  0  0  0  0  0  0  0  0  0  0  0
   30.2010   34.0620    9.0040 C   0  0  0  0  0  0  0  0  0  0  0  0
   28.6930   34.0820    9.1700 C   0  0  0  0  0  0  0  0  0  0  0  0
   28.3120   34.4110   10.5720 N   0  0  0  0  0  0  0  0  0  0  0  0
  1  2  1  0  0  0  0
  3  2  1  0  0  0  0
  4  5  1  0  0  0  0
  4  3  1  0  0  0  0
  5  6  1  0  0  0  0
M  END
>  <EGIN_R>
ES LYS A 135

>  <REMARK>
  4 active torsions:
  status: ('A' for Active; 'I' for Inactive)
    5  A    between atoms: CA   and  CB  
    6  A    between atoms: CB   and  CG  
    7  A    between atoms: CG   and  CD  
    8  A    between atoms: CD   and  CE  

$$$$
