ligand_55_pose_5_2HRL.pdbqt
 OpenBabel07062320523D

 51 51  0  0  1  0  0  0  0  0999 V2000
   25.9690   28.3860   19.4790 N   0  0  0  0  0  0  0  0  0  0  0  0
   26.4450   28.6020   18.1690 C   0  0  0  0  0  0  0  0  0  0  0  0
   27.1830   27.8040   17.5690 O   0  0  0  0  0  0  0  0  0  0  0  0
   25.3340   29.1380   19.8850 H   0  0  0  0  0  0  0  0  0  0  0  0
   26.2580   27.2670   20.2950 C   0  0  0  0  0  0  0  0  0  0  0  0
   27.0070   27.5280   21.5780 C   0  0  2  0  0  0  0  0  0  0  0  0
   28.4630   27.3440   21.2790 C   0  0  2  0  0  0  0  0  0  0  0  0
   29.3080   28.5760   21.2180 C   0  0  2  0  0  0  0  0  0  0  0  0
   29.8920   30.2690   19.7060 C   0  0  2  0  0  0  0  0  0  0  0  0
   31.2490   30.3800   20.3120 C   0  0  0  0  0  0  0  0  0  0  0  0
   29.1330   29.2250   20.0660 O   0  0  0  0  0  0  0  0  0  0  0  0
   31.7580   29.0880   20.8900 C   0  0  1  0  0  0  0  0  0  0  0  0
   30.7160   28.3870   21.6940 C   0  0  1  0  0  0  0  0  0  0  0  0
   30.0330   30.2650   18.3130 O   0  0  0  0  0  0  0  0  0  0  0  0
   29.1420   30.3330   17.9090 H   0  0  0  0  0  0  0  0  0  0  0  0
   29.1430   31.5170   20.0360 C   0  0  0  0  0  0  0  0  0  0  0  0
   29.1000   32.0240   21.1720 O   0  0  0  0  0  0  0  0  0  0  0  0
   28.4290   32.1920   19.0290 O   0  0  0  0  0  0  0  0  0  0  0  0
   28.9010   32.6000   18.2330 H   0  0  0  0  0  0  0  0  0  0  0  0
   32.2930   28.3230   19.8610 O   0  0  0  0  0  0  0  0  0  0  0  0
   33.2770   28.4450   19.8960 H   0  0  0  0  0  0  0  0  0  0  0  0
   30.8840   28.7860   23.0800 N   0  0  0  0  0  0  0  0  0  0  0  0
   31.0900   27.8660   24.1420 C   0  0  0  0  0  0  0  0  0  0  0  0
   30.8610   29.8090   23.3710 H   0  0  0  0  0  0  0  0  0  0  0  0
   31.2580   28.3270   25.5600 C   0  0  0  0  0  0  0  0  0  0  0  0
   31.1250   26.6450   23.8390 O   0  0  0  0  0  0  0  0  0  0  0  0
   28.4840   26.6640   20.0260 O   0  0  0  0  0  0  0  0  0  0  0  0
   28.9560   27.1940   19.3510 H   0  0  0  0  0  0  0  0  0  0  0  0
   26.4890   26.7410   22.5700 O   0  0  0  0  0  0  0  0  0  0  0  0
   27.0150   25.9490   22.7310 H   0  0  0  0  0  0  0  0  0  0  0  0
   26.0840   29.7610   17.4900 O   0  0  0  0  0  0  0  0  0  0  0  0
   26.3410   29.9810   16.1260 C   0  0  0  0  0  0  0  0  0  0  0  0
   27.2730   31.1100   15.9430 C   0  0  0  0  0  0  0  0  0  0  0  0
   28.5140   31.1160   15.3390 C   0  0  0  0  0  0  0  0  0  0  0  0
   27.0600   32.3590   16.3470 N   0  0  0  0  0  0  0  0  0  0  0  0
   29.0150   32.3580   15.3940 N   0  0  0  0  0  0  0  0  0  0  0  0
   28.1010   33.0950   16.0160 N   0  0  0  0  0  0  0  0  0  0  0  0
   30.2650   32.8820   14.9100 C   0  0  0  0  0  0  0  0  0  0  0  0
   31.4170   32.5780   15.8510 C   0  0  0  0  0  0  0  0  0  0  0  0
   30.9170   32.7070   17.2030 N   0  0  0  0  0  0  0  0  0  0  0  0
   31.1960   31.9160   17.8000 H   0  0  0  0  0  0  0  0  0  0  0  0
   31.3790   34.1950   17.9290 S   0  0  0  0  0  0  0  0  0  0  0  0
   31.8480   33.8850   19.3270 O   0  0  0  0  0  0  0  0  0  0  0  0
   32.4540   34.8380   17.1130 O   0  0  0  0  0  0  0  0  0  0  0  0
   29.9900   35.2990   18.0500 C   0  0  0  0  0  0  0  0  0  0  0  0
   29.8670   25.5550   16.9770 C   0  0  0  0  0  0  0  0  0  0  0  0
   28.3450   25.7220   17.0260 C   0  0  0  0  0  0  0  0  0  0  0  0
   27.6010   24.4000   16.9080 C   0  0  0  0  0  0  0  0  0  0  0  0
   26.5300   24.2580   17.9530 C   0  0  0  0  0  0  0  0  0  0  0  0
   25.1860   24.0140   17.2740 C   0  0  0  0  0  0  0  0  0  0  0  0
   24.7510   22.6120   17.4740 N   0  0  0  0  0  0  0  0  0  0  0  0
  1  4  1  0  0  0  0
  1  5  1  0  0  0  0
  2  1  1  0  0  0  0
  3  2  2  0  0  0  0
  6  5  1  6  0  0  0
  6 29  1  0  0  0  0
  7 27  1  6  0  0  0
  7  6  1  0  0  0  0
  8  7  1  6  0  0  0
  8 13  1  0  0  0  0
  9 14  1  6  0  0  0
  9 16  1  0  0  0  0
  9 11  1  0  0  0  0
  9 10  1  0  0  0  0
 10 12  1  0  0  0  0
 11  8  1  0  0  0  0
 12 20  1  6  0  0  0
 12 13  1  0  0  0  0
 13 22  1  1  0  0  0
 15 14  1  0  0  0  0
 16 17  2  0  0  0  0
 18 16  1  0  0  0  0
 19 18  1  0  0  0  0
 20 21  1  0  0  0  0
 22 24  1  0  0  0  0
 22 23  1  0  0  0  0
 23 25  1  0  0  0  0
 26 23  2  0  0  0  0
 28 27  1  0  0  0  0
 29 30  1  0  0  0  0
 31  2  1  0  0  0  0
 32 31  1  0  0  0  0
 33 32  1  0  0  0  0
 33 35  1  0  0  0  0
 34 36  1  0  0  0  0
 34 33  2  0  0  0  0
 36 37  1  0  0  0  0
 37 35  2  0  0  0  0
 38 36  1  0  0  0  0
 38 39  1  0  0  0  0
 39 40  1  0  0  0  0
 40 41  1  0  0  0  0
 40 42  1  0  0  0  0
 42 45  1  0  0  0  0
 42 43  2  0  0  0  0
 44 42  2  0  0  0  0
 46 47  1  0  0  0  0
 48 47  1  0  0  0  0
 48 49  1  0  0  0  0
 50 51  1  0  0  0  0
 50 49  1  0  0  0  0
M  END
>  <REMARK>
 VINA RESULT:    -4.592      2.380      6.210
 INTER + INTRA:         -15.029
 INTER:                  -7.736
 INTRA:                  -7.293
 UNBOUND:                -6.277
 SMILES CC(=O)N[C@@H]1[C@@H](O)C[C@](O)(C(=O)O)O[C@H]1C(O)[C@H](O)CNC(=O)OCc1cn(CCNS(C)(=O)=O)nn1
 SMILES IDX 21 1 22 2 23 3 20 5 18 6 16 7 15 8 9 9 8 10 14 11 6 12 5 13
 SMILES IDX 10 14 11 16 12 17 13 18 7 20 4 22 2 23 1 25 3 26 17 27 19 29
 SMILES IDX 24 31 25 32 26 33 27 34 37 35 28 36 36 37 29 38 30 39 31 40
 SMILES IDX 32 42 34 43 35 44 33 45
 H PARENT 21 4 10 15 13 19 7 21 4 24 17 28 19 30 31 41
 Flexibility Score: inf
  4 active torsions:
  status: ('A' for Active; 'I' for Inactive)
    1  A    between atoms: CA   and  CB  
    2  A    between atoms: CB   and  CG  
    3  A    between atoms: CG   and  CD  
    4  A    between atoms: CD   and  CE  

>  <TORSDO>
F 18

>  <BEGIN_>
RES LYS A 131

$$$$
ligand_55_pose_5_2HRL.pdbqt
 OpenBabel07062320523D

  6  5  0  0  0  0  0  0  0  0999 V2000
   33.1930   34.6630    9.2900 C   0  0  0  0  0  0  0  0  0  0  0  0
   32.0600   35.3600   10.0340 C   0  0  0  0  0  0  0  0  0  0  0  0
   30.7200   34.6940    9.8520 C   0  0  0  0  0  0  0  0  0  0  0  0
   30.2790   34.7640    8.3990 C   0  0  0  0  0  0  0  0  0  0  0  0
   28.7890   34.5080    8.2820 C   0  0  0  0  0  0  0  0  0  0  0  0
   28.2500   33.8940    9.5270 N   0  0  0  0  0  0  0  0  0  0  0  0
  1  2  1  0  0  0  0
  3  2  1  0  0  0  0
  4  3  1  0  0  0  0
  5  4  1  0  0  0  0
  5  6  1  0  0  0  0
M  END
>  <EGIN_R>
ES LYS A 135

>  <REMARK>
  4 active torsions:
  status: ('A' for Active; 'I' for Inactive)
    5  A    between atoms: CA   and  CB  
    6  A    between atoms: CB   and  CG  
    7  A    between atoms: CG   and  CD  
    8  A    between atoms: CD   and  CE  

$$$$
