ligand_6_pose_10_2HRL.pdbqt
 OpenBabel07062320523D

 52 53  0  0  1  0  0  0  0  0999 V2000
   27.8030   31.6890   15.4530 N   0  0  0  0  0  0  0  0  0  0  0  0
   26.9850   31.8420   16.5880 C   0  0  0  0  0  0  0  0  0  0  0  0
   27.4170   31.7850   17.7530 O   0  0  0  0  0  0  0  0  0  0  0  0
   27.3120   31.7880   14.4990 H   0  0  0  0  0  0  0  0  0  0  0  0
   29.1870   31.4180   15.4830 C   0  0  0  0  0  0  0  0  0  0  0  0
   30.1680   32.5090   15.3220 C   0  0  2  0  0  0  0  0  0  0  0  0
   29.9680   33.6260   14.4060 C   0  0  2  0  0  0  0  0  0  0  0  0
   31.0310   34.7180   14.5730 C   0  0  2  0  0  0  0  0  0  0  0  0
   31.9690   35.9860   16.2830 C   0  0  2  0  0  0  0  0  0  0  0  0
   32.7390   36.5950   15.1340 C   0  0  0  0  0  0  0  0  0  0  0  0
   31.3030   34.8280   15.9520 O   0  0  0  0  0  0  0  0  0  0  0  0
   31.8740   36.9010   13.9520 C   0  0  1  0  0  0  0  0  0  0  0  0
   30.5940   36.0600   14.1090 C   0  0  1  0  0  0  0  0  0  0  0  0
   31.1350   36.9690   16.7880 O   0  0  0  0  0  0  0  0  0  0  0  0
   30.5840   36.5870   17.5000 H   0  0  0  0  0  0  0  0  0  0  0  0
   32.9680   35.6390   17.3270 C   0  0  0  0  0  0  0  0  0  0  0  0
   34.1770   35.9570   17.1910 O   0  0  0  0  0  0  0  0  0  0  0  0
   32.5960   34.9580   18.4730 O   0  0  0  0  0  0  0  0  0  0  0  0
   31.7330   35.1740   18.9790 H   0  0  0  0  0  0  0  0  0  0  0  0
   31.5780   38.2350   13.7900 O   0  0  0  0  0  0  0  0  0  0  0  0
   31.3970   38.6220   14.6830 H   0  0  0  0  0  0  0  0  0  0  0  0
   29.9620   36.0860   12.8060 N   0  0  0  0  0  0  0  0  0  0  0  0
   28.6740   36.6930   12.6340 C   0  0  0  0  0  0  0  0  0  0  0  0
   30.3990   35.6800   11.9570 H   0  0  0  0  0  0  0  0  0  0  0  0
   27.9710   36.7570   11.3340 C   0  0  0  0  0  0  0  0  0  0  0  0
   28.1330   37.1890   13.6440 O   0  0  0  0  0  0  0  0  0  0  0  0
   28.7030   34.1460   14.4970 O   0  0  0  0  0  0  0  0  0  0  0  0
   28.5460   34.7920   15.2210 H   0  0  0  0  0  0  0  0  0  0  0  0
   31.4210   31.8570   15.1350 O   0  0  0  0  0  0  0  0  0  0  0  0
   31.6910   31.4050   15.9760 H   0  0  0  0  0  0  0  0  0  0  0  0
   25.6090   32.0720   16.3670 O   0  0  0  0  0  0  0  0  0  0  0  0
   25.1130   31.7100   15.0940 C   0  0  0  0  0  0  0  0  0  0  0  0
   25.1010   32.9080   14.1870 C   0  0  0  0  0  0  0  0  0  0  0  0
   24.2970   33.1200   13.0880 C   0  0  0  0  0  0  0  0  0  0  0  0
   25.8770   34.0170   14.2630 N   0  0  0  0  0  0  0  0  0  0  0  0
   24.5870   34.3200   12.5300 N   0  0  0  0  0  0  0  0  0  0  0  0
   25.5480   34.8180   13.2790 N   0  0  0  0  0  0  0  0  0  0  0  0
   23.9760   34.8990   11.3800 C   0  0  0  0  0  0  0  0  0  0  0  0
   22.6080   35.0140   11.2550 C   0  0  0  0  0  0  0  0  0  0  0  0
   24.7400   35.3760   10.3300 C   0  0  0  0  0  0  0  0  0  0  0  0
   22.0380   35.5800   10.1320 C   0  0  0  0  0  0  0  0  0  0  0  0
   24.1710   35.9430    9.2070 C   0  0  0  0  0  0  0  0  0  0  0  0
   22.8030   36.0590    9.0790 C   0  0  0  0  0  0  0  0  0  0  0  0
   22.2270   36.6410    7.9260 N   0  0  0  0  0  0  0  0  0  0  0  0
   22.9070   37.4380    7.2580 O   0  0  0  0  0  0  0  0  0  0  0  0
   20.9570   36.3770    7.4950 O   0  0  0  0  0  0  0  0  0  0  0  0
   29.8670   25.5550   16.9770 C   0  0  0  0  0  0  0  0  0  0  0  0
   28.3450   25.7220   17.0260 C   0  0  0  0  0  0  0  0  0  0  0  0
   27.6010   24.4060   16.8610 C   0  0  0  0  0  0  0  0  0  0  0  0
   26.5700   24.1990   17.9360 C   0  0  0  0  0  0  0  0  0  0  0  0
   25.2230   23.8790   17.2960 C   0  0  0  0  0  0  0  0  0  0  0  0
   24.8030   22.4990   17.6340 N   0  0  0  0  0  0  0  0  0  0  0  0
  1  5  1  0  0  0  0
  1  2  1  0  0  0  0
  2  3  2  0  0  0  0
  4  1  1  0  0  0  0
  6  5  1  6  0  0  0
  7 27  1  1  0  0  0
  7  6  1  0  0  0  0
  8  7  1  1  0  0  0
  8 11  1  0  0  0  0
  9 14  1  1  0  0  0
  9 16  1  0  0  0  0
 10  9  1  0  0  0  0
 11  9  1  0  0  0  0
 12 20  1  1  0  0  0
 12 13  1  0  0  0  0
 12 10  1  0  0  0  0
 13 22  1  6  0  0  0
 13  8  1  0  0  0  0
 14 15  1  0  0  0  0
 16 18  1  0  0  0  0
 17 16  2  0  0  0  0
 18 19  1  0  0  0  0
 20 21  1  0  0  0  0
 23 22  1  0  0  0  0
 23 26  2  0  0  0  0
 24 22  1  0  0  0  0
 25 23  1  0  0  0  0
 27 28  1  0  0  0  0
 29  6  1  0  0  0  0
 29 30  1  0  0  0  0
 31  2  1  0  0  0  0
 32 31  1  0  0  0  0
 33 35  1  0  0  0  0
 33 32  1  0  0  0  0
 34 33  2  0  0  0  0
 36 34  1  0  0  0  0
 36 37  1  0  0  0  0
 37 35  2  0  0  0  0
 38 36  1  0  0  0  0
 39 38  1  0  0  0  0
 40 38  2  0  0  0  0
 41 39  2  0  0  0  0
 42 40  1  0  0  0  0
 43 42  2  0  0  0  0
 43 41  1  0  0  0  0
 44 43  1  0  0  0  0
 45 44  2  0  0  0  0
 46 44  2  0  0  0  0
 47 48  1  0  0  0  0
 49 48  1  0  0  0  0
 49 50  1  0  0  0  0
 51 52  1  0  0  0  0
 51 50  1  0  0  0  0
M  END
>  <REMARK>
 VINA RESULT:    -5.342      5.186      8.595
 INTER + INTRA:         -14.307
 INTER:                  -8.474
 INTRA:                  -5.833
 UNBOUND:                -4.749
 SMILES CC(=O)N[C@@H]1[C@@H](O)C[C@](O)(C(=O)O)O[C@H]1C(O)[C@H](O)CNC(=O)OCc1cn(-c2ccc([N+](=O)[O-])cc2)nn1
 SMILES IDX 21 1 22 2 23 3 20 5 18 6 16 7 15 8 9 9 8 10 14 11 6 12 5 13
 SMILES IDX 10 14 11 16 12 17 13 18 7 20 4 22 2 23 1 25 3 26 17 27 19 29
 SMILES IDX 24 31 25 32 26 33 27 34 39 35 28 36 38 37 29 38 30 39 37 40
 SMILES IDX 31 41 36 42 32 43 33 44 34 45 35 46
 H PARENT 21 4 10 15 13 19 7 21 4 24 17 28 19 30
 Flexibility Score: inf
  4 active torsions:
  status: ('A' for Active; 'I' for Inactive)
    1  A    between atoms: CA   and  CB  
    2  A    between atoms: CB   and  CG  
    3  A    between atoms: CG   and  CD  
    4  A    between atoms: CD   and  CE  

>  <TORSDO>
F 16

>  <BEGIN_>
RES LYS A 131

$$$$
ligand_6_pose_10_2HRL.pdbqt
 OpenBabel07062320523D

  6  5  0  0  0  0  0  0  0  0999 V2000
   33.1930   34.6630    9.2900 C   0  0  0  0  0  0  0  0  0  0  0  0
   32.0600   35.3600   10.0340 C   0  0  0  0  0  0  0  0  0  0  0  0
   30.8280   35.5720    9.1930 C   0  0  0  0  0  0  0  0  0  0  0  0
   30.2000   34.2400    8.8140 C   0  0  0  0  0  0  0  0  0  0  0  0
   28.7260   34.4140    8.5030 C   0  0  0  0  0  0  0  0  0  0  0  0
   27.8810   33.6590    9.4690 N   0  0  0  0  0  0  0  0  0  0  0  0
  1  2  1  0  0  0  0
  3  2  1  0  0  0  0
  4  3  1  0  0  0  0
  5  4  1  0  0  0  0
  5  6  1  0  0  0  0
M  END
>  <EGIN_R>
ES LYS A 135

>  <REMARK>
  4 active torsions:
  status: ('A' for Active; 'I' for Inactive)
    5  A    between atoms: CA   and  CB  
    6  A    between atoms: CB   and  CG  
    7  A    between atoms: CG   and  CD  
    8  A    between atoms: CD   and  CE  

$$$$
