ligand_33_pose_17_2HRL.pdbqt
 OpenBabel07062320523D

 52 52  0  0  1  0  0  0  0  0999 V2000
   26.4760   37.7810   10.8860 C   0  0  0  0  0  0  0  0  0  0  0  0
   26.1370   36.8150    9.8980 O   0  0  0  0  0  0  0  0  0  0  0  0
   25.2740   37.2140    8.8700 C   0  0  0  0  0  0  0  0  0  0  0  0
   24.1850   38.0680    9.2030 N   0  0  0  0  0  0  0  0  0  0  0  0
   24.0850   38.3630   10.2100 H   0  0  0  0  0  0  0  0  0  0  0  0
   25.5030   36.7960    7.7090 O   0  0  0  0  0  0  0  0  0  0  0  0
   23.2870   38.4830    8.1730 C   0  0  0  0  0  0  0  0  0  0  0  0
   21.8360   38.1510    8.4270 C   0  0  2  0  0  0  0  0  0  0  0  0
   21.4680   36.9560    7.5690 C   0  0  2  0  0  0  0  0  0  0  0  0
   21.3570   35.6660    8.3110 C   0  0  2  0  0  0  0  0  0  0  0  0
   19.0390   35.5280    8.0100 C   0  0  2  0  0  0  0  0  0  0  0  0
   18.9070   36.0600    9.4460 C   0  0  0  0  0  0  0  0  0  0  0  0
   20.2710   34.9700    7.8230 O   0  0  0  0  0  0  0  0  0  0  0  0
   19.9110   35.2720   10.2510 C   0  0  1  0  0  0  0  0  0  0  0  0
   21.3060   35.7420    9.7940 C   0  0  1  0  0  0  0  0  0  0  0  0
   18.6930   36.5240    7.1000 O   0  0  0  0  0  0  0  0  0  0  0  0
   19.4610   36.7390    6.4810 H   0  0  0  0  0  0  0  0  0  0  0  0
   18.0330   34.4410    7.8880 C   0  0  0  0  0  0  0  0  0  0  0  0
   18.3630   33.2440    8.1430 O   0  0  0  0  0  0  0  0  0  0  0  0
   16.7460   34.7630    7.4950 O   0  0  0  0  0  0  0  0  0  0  0  0
   16.1780   35.2670    8.1900 H   0  0  0  0  0  0  0  0  0  0  0  0
   19.7590   35.4750   11.6220 O   0  0  0  0  0  0  0  0  0  0  0  0
   20.6740   35.5360   12.0030 H   0  0  0  0  0  0  0  0  0  0  0  0
   22.3180   34.9060   10.4260 N   0  0  0  0  0  0  0  0  0  0  0  0
   23.2400   35.3980   11.3690 C   0  0  0  0  0  0  0  0  0  0  0  0
   22.3540   33.8810   10.1610 H   0  0  0  0  0  0  0  0  0  0  0  0
   24.2780   34.5070   12.0030 C   0  0  0  0  0  0  0  0  0  0  0  0
   23.1860   36.6270   11.6840 O   0  0  0  0  0  0  0  0  0  0  0  0
   22.5960   36.7970    6.7120 O   0  0  0  0  0  0  0  0  0  0  0  0
   22.6860   37.6550    6.2360 H   0  0  0  0  0  0  0  0  0  0  0  0
   21.0840   39.2720    8.1580 O   0  0  0  0  0  0  0  0  0  0  0  0
   20.4390   39.4590    8.8840 H   0  0  0  0  0  0  0  0  0  0  0  0
   27.7150   37.2900   11.5340 C   0  0  0  0  0  0  0  0  0  0  0  0
   28.8030   38.0920   11.8130 C   0  0  0  0  0  0  0  0  0  0  0  0
   28.0050   36.0580   11.9510 N   0  0  0  0  0  0  0  0  0  0  0  0
   29.7100   37.2780   12.3950 N   0  0  0  0  0  0  0  0  0  0  0  0
   29.2230   36.0600   12.4740 N   0  0  0  0  0  0  0  0  0  0  0  0
   31.0160   37.7740   12.8350 C   0  0  0  0  0  0  0  0  0  0  0  0
   31.8620   36.5820   13.1960 C   0  0  0  0  0  0  0  0  0  0  0  0
   32.2550   36.5580   14.6570 C   0  0  0  0  0  0  0  0  0  0  0  0
   31.4180   35.6270   15.4640 C   0  0  0  0  0  0  0  0  0  0  0  0
   31.9680   34.2300   15.5530 C   0  0  0  0  0  0  0  0  0  0  0  0
   31.0910   33.2050   14.9670 C   0  0  0  0  0  0  0  0  0  0  0  0
   30.0000   33.5060   14.4580 O   0  0  0  0  0  0  0  0  0  0  0  0
   31.4700   31.8510   14.9710 O   0  0  0  0  0  0  0  0  0  0  0  0
   31.8460   31.4250   15.8240 H   0  0  0  0  0  0  0  0  0  0  0  0
   29.8670   25.5550   16.9770 C   0  0  0  0  0  0  0  0  0  0  0  0
   28.3450   25.7220   17.0260 C   0  0  0  0  0  0  0  0  0  0  0  0
   27.6000   24.4090   16.8360 C   0  0  0  0  0  0  0  0  0  0  0  0
   26.1780   24.4910   17.3160 C   0  0  0  0  0  0  0  0  0  0  0  0
   26.1570   24.9370   18.7750 C   0  0  0  0  0  0  0  0  0  0  0  0
   24.7620   25.0600   19.2600 N   0  0  0  0  0  0  0  0  0  0  0  0
  1 33  1  0  0  0  0
  2  1  1  0  0  0  0
  3  4  1  0  0  0  0
  3  2  1  0  0  0  0
  4  5  1  0  0  0  0
  6  3  2  0  0  0  0
  7  4  1  0  0  0  0
  8  7  1  6  0  0  0
  9 29  1  6  0  0  0
  9  8  1  0  0  0  0
 10  9  1  6  0  0  0
 10 15  1  0  0  0  0
 11 16  1  6  0  0  0
 11 12  1  0  0  0  0
 12 14  1  0  0  0  0
 13 11  1  0  0  0  0
 13 10  1  0  0  0  0
 14 22  1  1  0  0  0
 15 14  1  0  0  0  0
 15 24  1  1  0  0  0
 17 16  1  0  0  0  0
 18 11  1  0  0  0  0
 18 19  2  0  0  0  0
 20 18  1  0  0  0  0
 20 21  1  0  0  0  0
 22 23  1  0  0  0  0
 24 25  1  0  0  0  0
 25 28  2  0  0  0  0
 25 27  1  0  0  0  0
 26 24  1  0  0  0  0
 30 29  1  0  0  0  0
 31  8  1  0  0  0  0
 31 32  1  0  0  0  0
 33 34  2  0  0  0  0
 33 35  1  0  0  0  0
 34 36  1  0  0  0  0
 35 37  2  0  0  0  0
 36 37  1  0  0  0  0
 36 38  1  0  0  0  0
 38 39  1  0  0  0  0
 39 40  1  0  0  0  0
 40 41  1  0  0  0  0
 41 42  1  0  0  0  0
 43 45  1  0  0  0  0
 43 42  1  0  0  0  0
 44 43  2  0  0  0  0
 45 46  1  0  0  0  0
 47 48  1  0  0  0  0
 49 48  1  0  0  0  0
 49 50  1  0  0  0  0
 50 51  1  0  0  0  0
 51 52  1  0  0  0  0
M  END
>  <REMARK>
 VINA RESULT:    -4.208      2.458      4.193
 INTER + INTRA:         -14.555
 INTER:                  -9.565
 INTRA:                  -4.990
 UNBOUND:                -5.918
 SMILES CC(=O)N[C@@H]1[C@@H](O)C[C@](O)(C(=O)O)O[C@H]1C(O)[C@H](O)CNC(=O)OCc1cn(CCCCCC(=O)O)nn1
 SMILES IDX 25 1 24 2 22 3 21 4 23 6 20 7 18 8 16 9 15 10 9 11 8 12
 SMILES IDX 14 13 6 14 5 15 10 16 11 18 12 19 13 20 7 22 4 24 2 25 1 27
 SMILES IDX 3 28 17 29 19 31 26 33 27 34 38 35 28 36 37 37 29 38 30 39
 SMILES IDX 31 40 32 41 33 42 34 43 35 44 36 45
 H PARENT 21 5 10 17 13 21 7 23 4 26 17 30 19 32 36 46
 Flexibility Score: inf
  4 active torsions:
  status: ('A' for Active; 'I' for Inactive)
    1  A    between atoms: CA   and  CB  
    2  A    between atoms: CB   and  CG  
    3  A    between atoms: CG   and  CD  
    4  A    between atoms: CD   and  CE  

>  <TORSDO>
F 21

>  <BEGIN_>
RES LYS A 131

$$$$
ligand_33_pose_17_2HRL.pdbqt
 OpenBabel07062320523D

  6  5  0  0  0  0  0  0  0  0999 V2000
   33.1930   34.6630    9.2900 C   0  0  0  0  0  0  0  0  0  0  0  0
   32.0600   35.3600   10.0340 C   0  0  0  0  0  0  0  0  0  0  0  0
   30.7150   34.7140    9.8250 C   0  0  0  0  0  0  0  0  0  0  0  0
   29.9830   35.3620    8.6600 C   0  0  0  0  0  0  0  0  0  0  0  0
   30.1880   36.8650    8.6730 C   0  0  0  0  0  0  0  0  0  0  0  0
   29.0120   37.5710    8.0920 N   0  0  0  0  0  0  0  0  0  0  0  0
  1  2  1  0  0  0  0
  3  2  1  0  0  0  0
  4  5  1  0  0  0  0
  4  3  1  0  0  0  0
  6  5  1  0  0  0  0
M  END
>  <EGIN_R>
ES LYS A 135

>  <REMARK>
  4 active torsions:
  status: ('A' for Active; 'I' for Inactive)
    5  A    between atoms: CA   and  CB  
    6  A    between atoms: CB   and  CG  
    7  A    between atoms: CG   and  CD  
    8  A    between atoms: CD   and  CE  

$$$$
