ligand_59_pose_2_2HRL.pdbqt
 OpenBabel07062320523D

 52 53  0  0  1  0  0  0  0  0999 V2000
   27.9900   27.0310   21.1330 N   0  0  0  0  0  0  0  0  0  0  0  0
   27.0720   27.2600   20.0530 C   0  0  0  0  0  0  0  0  0  0  0  0
   25.8700   27.4100   20.3690 O   0  0  0  0  0  0  0  0  0  0  0  0
   28.9810   26.9250   20.8260 H   0  0  0  0  0  0  0  0  0  0  0  0
   27.5370   26.9890   22.4960 C   0  0  0  0  0  0  0  0  0  0  0  0
   28.2540   28.0600   23.3030 C   0  0  2  0  0  0  0  0  0  0  0  0
   29.6110   27.5010   23.6220 C   0  0  2  0  0  0  0  0  0  0  0  0
   30.7890   28.1310   22.9380 C   0  0  2  0  0  0  0  0  0  0  0  0
   30.9940   29.7400   21.2240 C   0  0  2  0  0  0  0  0  0  0  0  0
   32.1290   28.9980   20.5640 C   0  0  0  0  0  0  0  0  0  0  0  0
   30.2190   28.9400   21.9890 O   0  0  0  0  0  0  0  0  0  0  0  0
   31.8210   27.5310   20.7970 C   0  0  1  0  0  0  0  0  0  0  0  0
   31.7880   27.2500   22.3200 C   0  0  1  0  0  0  0  0  0  0  0  0
   30.2080   30.2540   20.1450 O   0  0  0  0  0  0  0  0  0  0  0  0
   29.4260   29.6610   20.0040 H   0  0  0  0  0  0  0  0  0  0  0  0
   31.4280   30.9250   21.9930 C   0  0  0  0  0  0  0  0  0  0  0  0
   32.6450   31.1700   22.1090 O   0  0  0  0  0  0  0  0  0  0  0  0
   30.5090   31.7710   22.5830 O   0  0  0  0  0  0  0  0  0  0  0  0
   29.8720   32.2910   21.9930 H   0  0  0  0  0  0  0  0  0  0  0  0
   30.6650   27.1230   20.1790 O   0  0  0  0  0  0  0  0  0  0  0  0
   30.1080   27.9230   19.9560 H   0  0  0  0  0  0  0  0  0  0  0  0
   33.1400   27.4340   22.7380 N   0  0  0  0  0  0  0  0  0  0  0  0
   33.6280   26.9220   23.9510 C   0  0  0  0  0  0  0  0  0  0  0  0
   33.7830   27.9670   22.1270 H   0  0  0  0  0  0  0  0  0  0  0  0
   35.0330   27.1110   24.3850 C   0  0  0  0  0  0  0  0  0  0  0  0
   32.8580   26.2820   24.6950 O   0  0  0  0  0  0  0  0  0  0  0  0
   29.6190   26.1520   23.2210 O   0  0  0  0  0  0  0  0  0  0  0  0
   30.5470   25.8120   23.1030 H   0  0  0  0  0  0  0  0  0  0  0  0
   27.4820   28.1290   24.4950 O   0  0  0  0  0  0  0  0  0  0  0  0
   28.0800   28.0370   25.2550 H   0  0  0  0  0  0  0  0  0  0  0  0
   27.4560   27.3170   18.7420 O   0  0  0  0  0  0  0  0  0  0  0  0
   26.9420   28.2170   17.8070 C   0  0  0  0  0  0  0  0  0  0  0  0
   27.5590   29.5650   17.8730 C   0  0  0  0  0  0  0  0  0  0  0  0
   28.4530   30.0630   16.9210 C   0  0  0  0  0  0  0  0  0  0  0  0
   27.4360   30.5440   18.7600 N   0  0  0  0  0  0  0  0  0  0  0  0
   28.8200   31.2940   17.2760 N   0  0  0  0  0  0  0  0  0  0  0  0
   28.1980   31.5780   18.3950 N   0  0  0  0  0  0  0  0  0  0  0  0
   29.7350   32.1420   16.5650 C   0  0  0  0  0  0  0  0  0  0  0  0
   30.8140   32.7540   17.1680 C   0  0  0  0  0  0  0  0  0  0  0  0
   29.5490   32.3750   15.2570 N   0  0  0  0  0  0  0  0  0  0  0  0
   31.6830   33.5740   16.4990 C   0  0  0  0  0  0  0  0  0  0  0  0
   30.3740   33.1690   14.5580 C   0  0  0  0  0  0  0  0  0  0  0  0
   31.4650   33.7940   15.1530 C   0  0  0  0  0  0  0  0  0  0  0  0
   32.3520   34.6660   14.3290 C   0  0  0  0  0  0  0  0  0  0  0  0
   31.8840   34.6750   13.0210 O   0  0  0  0  0  0  0  0  0  0  0  0
   31.2080   35.3920   12.9100 H   0  0  0  0  0  0  0  0  0  0  0  0
   29.8670   25.5550   16.9770 C   0  0  0  0  0  0  0  0  0  0  0  0
   28.3450   25.7220   17.0260 C   0  0  0  0  0  0  0  0  0  0  0  0
   27.5990   24.4360   16.7050 C   0  0  0  0  0  0  0  0  0  0  0  0
   27.0140   23.7980   17.9340 C   0  0  0  0  0  0  0  0  0  0  0  0
   25.6230   24.3700   18.1910 C   0  0  0  0  0  0  0  0  0  0  0  0
   24.7840   24.2620   16.9740 N   0  0  0  0  0  0  0  0  0  0  0  0
  1  5  1  0  0  0  0
  2  3  2  0  0  0  0
  2  1  1  0  0  0  0
  4  1  1  0  0  0  0
  6  5  1  6  0  0  0
  6  7  1  0  0  0  0
  6 29  1  0  0  0  0
  7 27  1  6  0  0  0
  8  7  1  6  0  0  0
  9 14  1  6  0  0  0
  9 11  1  0  0  0  0
  9 16  1  0  0  0  0
 10 12  1  0  0  0  0
 10  9  1  0  0  0  0
 11  8  1  0  0  0  0
 12 20  1  1  0  0  0
 12 13  1  0  0  0  0
 13 22  1  1  0  0  0
 13  8  1  0  0  0  0
 15 14  1  0  0  0  0
 16 17  2  0  0  0  0
 16 18  1  0  0  0  0
 19 18  1  0  0  0  0
 21 20  1  0  0  0  0
 22 23  1  0  0  0  0
 23 25  1  0  0  0  0
 23 26  2  0  0  0  0
 24 22  1  0  0  0  0
 28 27  1  0  0  0  0
 29 30  1  0  0  0  0
 31  2  1  0  0  0  0
 32 33  1  0  0  0  0
 32 31  1  0  0  0  0
 33 35  1  0  0  0  0
 34 36  1  0  0  0  0
 34 33  2  0  0  0  0
 36 37  1  0  0  0  0
 37 35  2  0  0  0  0
 38 39  1  0  0  0  0
 38 36  1  0  0  0  0
 40 38  2  0  0  0  0
 41 39  2  0  0  0  0
 42 43  2  0  0  0  0
 42 40  1  0  0  0  0
 43 41  1  0  0  0  0
 44 43  1  0  0  0  0
 45 44  1  0  0  0  0
 46 45  1  0  0  0  0
 47 48  1  0  0  0  0
 49 48  1  0  0  0  0
 49 50  1  0  0  0  0
 50 51  1  0  0  0  0
 52 51  1  0  0  0  0
M  END
>  <REMARK>
 VINA RESULT:    -5.258      1.911      2.382
 INTER + INTRA:         -15.295
 INTER:                  -9.029
 INTRA:                  -6.266
 UNBOUND:                -5.735
 SMILES CC(=O)N[C@@H]1[C@@H](O)C[C@](O)(C(=O)O)O[C@H]1C(O)[C@H](O)CNC(=O)OCc1cn(-c2ccc(CO)cn2)nn1
 SMILES IDX 21 1 22 2 23 3 20 5 18 6 16 7 15 8 9 9 8 10 14 11 6 12 5 13
 SMILES IDX 10 14 11 16 12 17 13 18 7 20 4 22 2 23 1 25 3 26 17 27 19 29
 SMILES IDX 24 31 25 32 26 33 27 34 38 35 28 36 37 37 29 38 30 39 36 40
 SMILES IDX 31 41 35 42 32 43 33 44 34 45
 H PARENT 21 4 10 15 13 19 7 21 4 24 17 28 19 30 34 46
 Flexibility Score: inf
  4 active torsions:
  status: ('A' for Active; 'I' for Inactive)
    1  A    between atoms: CA   and  CB  
    2  A    between atoms: CB   and  CG  
    3  A    between atoms: CG   and  CD  
    4  A    between atoms: CD   and  CE  

>  <TORSDO>
F 17

>  <BEGIN_>
RES LYS A 131

$$$$
ligand_59_pose_2_2HRL.pdbqt
 OpenBabel07062320523D

  6  5  0  0  0  0  0  0  0  0999 V2000
   33.1930   34.6630    9.2900 C   0  0  0  0  0  0  0  0  0  0  0  0
   32.0600   35.3600   10.0340 C   0  0  0  0  0  0  0  0  0  0  0  0
   30.8430   35.6090    9.1810 C   0  0  0  0  0  0  0  0  0  0  0  0
   30.3060   34.3030    8.6170 C   0  0  0  0  0  0  0  0  0  0  0  0
   28.8900   34.0550    9.1010 C   0  0  0  0  0  0  0  0  0  0  0  0
   27.8960   34.7130    8.2080 N   0  0  0  0  0  0  0  0  0  0  0  0
  1  2  1  0  0  0  0
  3  2  1  0  0  0  0
  4  5  1  0  0  0  0
  4  3  1  0  0  0  0
  6  5  1  0  0  0  0
M  END
>  <EGIN_R>
ES LYS A 135

>  <REMARK>
  4 active torsions:
  status: ('A' for Active; 'I' for Inactive)
    5  A    between atoms: CA   and  CB  
    6  A    between atoms: CB   and  CG  
    7  A    between atoms: CG   and  CD  
    8  A    between atoms: CD   and  CE  

$$$$
