ligand_90_pose_6_2HRL.pdbqt
 OpenBabel07062320523D

 61 62  0  0  1  0  0  0  0  0999 V2000
   31.3020   32.6270   15.2380 C   0  0  0  0  0  0  0  0  0  0  0  0
   31.0890   31.5110   16.0800 O   0  0  0  0  0  0  0  0  0  0  0  0
   29.8230   31.1620   16.5170 C   0  0  0  0  0  0  0  0  0  0  0  0
   29.3250   31.6080   17.7890 N   0  0  0  0  0  0  0  0  0  0  0  0
   29.9720   32.1950   18.3540 H   0  0  0  0  0  0  0  0  0  0  0  0
   29.1190   30.4480   15.7840 O   0  0  0  0  0  0  0  0  0  0  0  0
   28.0290   31.2850   18.2790 C   0  0  0  0  0  0  0  0  0  0  0  0
   27.9980   30.8250   19.6950 C   0  0  2  0  0  0  0  0  0  0  0  0
   28.8920   29.6040   19.8380 C   0  0  1  0  0  0  0  0  0  0  0  0
   29.0050   29.1300   21.2510 C   0  0  2  0  0  0  0  0  0  0  0  0
   31.0010   27.9670   21.5520 C   0  0  2  0  0  0  0  0  0  0  0  0
   30.4100   26.8740   22.4300 C   0  0  0  0  0  0  0  0  0  0  0  0
   30.3120   29.1430   21.6640 O   0  0  0  0  0  0  0  0  0  0  0  0
   28.9660   27.2170   22.7680 C   0  0  1  0  0  0  0  0  0  0  0  0
   28.3640   27.8020   21.4840 C   0  0  1  0  0  0  0  0  0  0  0  0
   30.9190   27.5010   20.2520 O   0  0  0  0  0  0  0  0  0  0  0  0
   30.4690   26.6180   20.2230 H   0  0  0  0  0  0  0  0  0  0  0  0
   32.4350   28.1980   21.8660 C   0  0  0  0  0  0  0  0  0  0  0  0
   32.9990   29.3040   21.6280 O   0  0  0  0  0  0  0  0  0  0  0  0
   33.2100   27.2040   22.4380 O   0  0  0  0  0  0  0  0  0  0  0  0
   33.1500   26.8890   23.3900 H   0  0  0  0  0  0  0  0  0  0  0  0
   28.3290   26.0430   23.1280 O   0  0  0  0  0  0  0  0  0  0  0  0
   28.1720   25.9660   24.0960 H   0  0  0  0  0  0  0  0  0  0  0  0
   26.9200   27.9190   21.6360 N   0  0  0  0  0  0  0  0  0  0  0  0
   26.0710   27.1750   20.7920 C   0  0  0  0  0  0  0  0  0  0  0  0
   26.5350   28.5420   22.3490 H   0  0  0  0  0  0  0  0  0  0  0  0
   24.5700   27.2660   20.9150 C   0  0  0  0  0  0  0  0  0  0  0  0
   26.4900   26.4030   19.8970 O   0  0  0  0  0  0  0  0  0  0  0  0
   28.4530   28.5640   19.0350 O   0  0  0  0  0  0  0  0  0  0  0  0
   28.3320   27.7250   19.5160 H   0  0  0  0  0  0  0  0  0  0  0  0
   26.7360   30.5200   20.1780 O   0  0  0  0  0  0  0  0  0  0  0  0
   26.2530   31.3200   20.5190 H   0  0  0  0  0  0  0  0  0  0  0  0
   31.8190   33.7020   16.1200 C   0  0  0  0  0  0  0  0  0  0  0  0
   32.6530   34.7140   15.6980 C   0  0  0  0  0  0  0  0  0  0  0  0
   31.6330   33.9430   17.4260 N   0  0  0  0  0  0  0  0  0  0  0  0
   32.9550   35.5400   16.7480 N   0  0  0  0  0  0  0  0  0  0  0  0
   32.3200   35.0450   17.7820 N   0  0  0  0  0  0  0  0  0  0  0  0
   33.8220   36.6870   16.5950 C   0  0  0  0  0  0  0  0  0  0  0  0
   35.1630   36.2820   17.1790 C   0  0  0  0  0  0  0  0  0  0  0  0
   35.2180   35.7450   18.3060 O   0  0  0  0  0  0  0  0  0  0  0  0
   36.3650   36.4890   16.4970 N   0  0  0  0  0  0  0  0  0  0  0  0
   36.2190   36.9420   15.5160 H   0  0  0  0  0  0  0  0  0  0  0  0
   37.6980   36.2100   16.8860 C   0  0  0  0  0  0  0  0  0  0  0  0
   38.2290   34.8520   16.7980 C   0  0  1  0  0  0  0  0  0  0  0  0
   37.9760   34.0810   17.9640 O   0  0  0  0  0  0  0  0  0  0  0  0
   38.7980   33.5950   18.2170 H   0  0  0  0  0  0  0  0  0  0  0  0
   38.1960   34.0810   15.5450 C   0  0  0  0  0  0  0  0  0  0  0  0
   38.9380   34.6970   14.4620 N   0  0  0  0  0  0  0  0  0  0  0  0
   39.8300   35.7120   14.5920 C   0  0  0  0  0  0  0  0  0  0  0  0
   38.8470   34.3760   13.1580 C   0  0  0  0  0  0  0  0  0  0  0  0
   40.2840   36.0040   13.3190 C   0  0  0  0  0  0  0  0  0  0  0  0
   39.6840   35.1900   12.4470 N   0  0  0  0  0  0  0  0  0  0  0  0
   38.0530   33.3820   12.5360 N   0  0  0  0  0  0  0  0  0  0  0  0
   36.9010   33.7190   12.1320 O   0  0  0  0  0  0  0  0  0  0  0  0
   38.4020   32.0900   12.3270 O   0  0  0  0  0  0  0  0  0  0  0  0
   29.8670   25.5550   16.9770 C   0  0  0  0  0  0  0  0  0  0  0  0
   28.3450   25.7220   17.0260 C   0  0  0  0  0  0  0  0  0  0  0  0
   27.6010   24.4060   16.8640 C   0  0  0  0  0  0  0  0  0  0  0  0
   26.1390   24.5370   17.1920 C   0  0  0  0  0  0  0  0  0  0  0  0
   25.5960   23.1850   17.6440 C   0  0  0  0  0  0  0  0  0  0  0  0
   25.4780   23.1400   19.1210 N   0  0  0  0  0  0  0  0  0  0  0  0
  1  2  1  0  0  0  0
  1 33  1  0  0  0  0
  2  3  1  0  0  0  0
  3  4  1  0  0  0  0
  4  7  1  0  0  0  0
  4  5  1  0  0  0  0
  6  3  2  0  0  0  0
  8  7  1  6  0  0  0
  8  9  1  0  0  0  0
  8 31  1  0  0  0  0
  9 29  1  6  0  0  0
 10  9  1  6  0  0  0
 10 15  1  0  0  0  0
 10 13  1  0  0  0  0
 11 16  1  6  0  0  0
 11 13  1  0  0  0  0
 11 18  1  0  0  0  0
 11 12  1  0  0  0  0
 12 14  1  0  0  0  0
 14 22  1  6  0  0  0
 15 24  1  1  0  0  0
 15 14  1  0  0  0  0
 17 16  1  0  0  0  0
 18 20  1  0  0  0  0
 19 18  2  0  0  0  0
 20 21  1  0  0  0  0
 22 23  1  0  0  0  0
 24 26  1  0  0  0  0
 25 27  1  0  0  0  0
 25 24  1  0  0  0  0
 28 25  2  0  0  0  0
 29 30  1  0  0  0  0
 31 32  1  0  0  0  0
 33 35  1  0  0  0  0
 34 33  2  0  0  0  0
 34 36  1  0  0  0  0
 35 37  2  0  0  0  0
 36 37  1  0  0  0  0
 38 36  1  0  0  0  0
 38 39  1  0  0  0  0
 39 40  2  0  0  0  0
 41 43  1  0  0  0  0
 41 39  1  0  0  0  0
 42 41  1  0  0  0  0
 44 47  1  6  0  0  0
 44 43  1  0  0  0  0
 44 45  1  0  0  0  0
 45 46  1  0  0  0  0
 48 49  1  0  0  0  0
 48 47  1  0  0  0  0
 50 48  1  0  0  0  0
 51 49  2  0  0  0  0
 52 50  2  0  0  0  0
 52 51  1  0  0  0  0
 53 50  1  0  0  0  0
 54 53  2  0  0  0  0
 55 53  2  0  0  0  0
 56 57  1  0  0  0  0
 58 57  1  0  0  0  0
 58 59  1  0  0  0  0
 59 60  1  0  0  0  0
 60 61  1  0  0  0  0
M  END
>  <REMARK>
 VINA RESULT:    -5.244      7.705     13.827
 INTER + INTRA:         -16.827
 INTER:                 -11.068
 INTRA:                  -5.759
 UNBOUND:                -5.759
 SMILES CC(=O)N[C@@H]1[C@@H](O)C[C@](O)(C(=O)O)O[C@H]1C(O)[C@H](O)CNC(=O)OCc1cn(CC(=O)NCC(O)Cn2ccnc2[N+](=O)[O-])nn1
 SMILES IDX 25 1 24 2 22 3 21 4 23 6 20 7 18 8 16 9 15 10 9 11 8 12
 SMILES IDX 14 13 6 14 5 15 10 16 11 18 12 19 13 20 7 22 4 24 2 25 1 27
 SMILES IDX 3 28 17 29 19 31 26 33 27 34 46 35 28 36 45 37 29 38 30 39
 SMILES IDX 31 40 32 41 33 43 34 44 35 45 36 47 37 48 38 49 41 50 39 51
 SMILES IDX 40 52 42 53 43 54 44 55
 H PARENT 21 5 10 17 13 21 7 23 4 26 17 30 19 32 32 42 35 46
 Flexibility Score: inf
  4 active torsions:
  status: ('A' for Active; 'I' for Inactive)
    1  A    between atoms: CA   and  CB  
    2  A    between atoms: CB   and  CG  
    3  A    between atoms: CG   and  CD  
    4  A    between atoms: CD   and  CE  

>  <TORSDO>
F 22

>  <BEGIN_>
RES LYS A 131

$$$$
ligand_90_pose_6_2HRL.pdbqt
 OpenBabel07062320523D

  6  5  0  0  0  0  0  0  0  0999 V2000
   33.1930   34.6630    9.2900 C   0  0  0  0  0  0  0  0  0  0  0  0
   32.0600   35.3600   10.0340 C   0  0  0  0  0  0  0  0  0  0  0  0
   30.7080   34.7420    9.7890 C   0  0  0  0  0  0  0  0  0  0  0  0
   30.4820   34.5180    8.3010 C   0  0  0  0  0  0  0  0  0  0  0  0
   29.0620   34.8860    7.9170 C   0  0  0  0  0  0  0  0  0  0  0  0
   28.6370   36.1500    8.5800 N   0  0  0  0  0  0  0  0  0  0  0  0
  1  2  1  0  0  0  0
  3  2  1  0  0  0  0
  4  3  1  0  0  0  0
  5  4  1  0  0  0  0
  5  6  1  0  0  0  0
M  END
>  <EGIN_R>
ES LYS A 135

>  <REMARK>
  4 active torsions:
  status: ('A' for Active; 'I' for Inactive)
    5  A    between atoms: CA   and  CB  
    6  A    between atoms: CB   and  CG  
    7  A    between atoms: CG   and  CD  
    8  A    between atoms: CD   and  CE  

$$$$
