ligand_49_pose_17_2HRL.pdbqt
 OpenBabel07062320523D

 48 49  0  0  1  0  0  0  0  0999 V2000
   25.9600   37.8540   11.2430 C   0  0  0  0  0  0  0  0  0  0  0  0
   25.6380   36.4530   10.8050 C   0  0  2  0  0  0  0  0  0  0  0  0
   25.1250   36.5570    9.3820 C   0  0  1  0  0  0  0  0  0  0  0  0
   23.6510   36.8010    9.3190 C   0  0  2  0  0  0  0  0  0  0  0  0
   21.6340   35.6650    9.4270 C   0  0  2  0  0  0  0  0  0  0  0  0
   21.1220   37.0790    9.2030 C   0  0  0  0  0  0  0  0  0  0  0  0
   22.9820   35.6270    9.0670 O   0  0  0  0  0  0  0  0  0  0  0  0
   21.8050   37.6020    7.9560 C   0  0  1  0  0  0  0  0  0  0  0  0
   23.2550   37.8680    8.3380 C   0  0  1  0  0  0  0  0  0  0  0  0
   20.8780   34.8350    8.6080 O   0  0  0  0  0  0  0  0  0  0  0  0
   20.6780   34.0040    9.1390 H   0  0  0  0  0  0  0  0  0  0  0  0
   21.4720   35.2330   10.8210 C   0  0  0  0  0  0  0  0  0  0  0  0
   20.6620   35.8030   11.5950 O   0  0  0  0  0  0  0  0  0  0  0  0
   22.2130   34.1780   11.3260 O   0  0  0  0  0  0  0  0  0  0  0  0
   23.2000   34.0300   11.0780 H   0  0  0  0  0  0  0  0  0  0  0  0
   21.7540   36.5710    7.0030 O   0  0  0  0  0  0  0  0  0  0  0  0
   22.6850   36.2530    6.8720 H   0  0  0  0  0  0  0  0  0  0  0  0
   23.3490   39.1980    8.9060 N   0  0  0  0  0  0  0  0  0  0  0  0
   23.9460   40.2550    8.1850 C   0  0  0  0  0  0  0  0  0  0  0  0
   22.9740   39.3850    9.8530 H   0  0  0  0  0  0  0  0  0  0  0  0
   24.0750   41.6390    8.7050 C   0  0  0  0  0  0  0  0  0  0  0  0
   24.3930   40.0110    7.0410 O   0  0  0  0  0  0  0  0  0  0  0  0
   25.7660   37.6580    8.8100 O   0  0  0  0  0  0  0  0  0  0  0  0
   26.7020   37.7500    9.0770 H   0  0  0  0  0  0  0  0  0  0  0  0
   24.6840   35.8660   11.6030 O   0  0  0  0  0  0  0  0  0  0  0  0
   25.0340   35.7890   12.5310 H   0  0  0  0  0  0  0  0  0  0  0  0
   27.3160   38.2680   11.0660 N   0  0  0  0  0  0  0  0  0  0  0  0
   27.7450   39.4930   10.5430 C   0  0  0  0  0  0  0  0  0  0  0  0
   28.0650   37.5650   11.3650 H   0  0  0  0  0  0  0  0  0  0  0  0
   26.9080   40.3470   10.1710 O   0  0  0  0  0  0  0  0  0  0  0  0
   29.1190   39.7760   10.4320 O   0  0  0  0  0  0  0  0  0  0  0  0
   29.6540   39.8890    9.1260 C   0  0  0  0  0  0  0  0  0  0  0  0
   29.1620   38.7480    8.3230 C   0  0  0  0  0  0  0  0  0  0  0  0
   29.5950   37.4400    8.4980 C   0  0  0  0  0  0  0  0  0  0  0  0
   28.2740   38.7090    7.3360 N   0  0  0  0  0  0  0  0  0  0  0  0
   28.9500   36.6790    7.6140 N   0  0  0  0  0  0  0  0  0  0  0  0
   28.1520   37.4610    6.9140 N   0  0  0  0  0  0  0  0  0  0  0  0
   29.1440   35.2380    7.4940 C   0  0  0  0  0  0  0  0  0  0  0  0
   30.4120   34.8880    8.2200 C   0  0  0  0  0  0  0  0  0  0  0  0
   28.0120   34.5330    8.2090 C   0  0  0  0  0  0  0  0  0  0  0  0
   30.0520   33.8600    9.2440 C   0  0  0  0  0  0  0  0  0  0  0  0
   28.6060   34.1410    9.5500 C   0  0  0  0  0  0  0  0  0  0  0  0
   29.8670   25.5550   16.9770 C   0  0  0  0  0  0  0  0  0  0  0  0
   28.3450   25.7220   17.0260 C   0  0  0  0  0  0  0  0  0  0  0  0
   27.5990   24.4270   16.7410 C   0  0  0  0  0  0  0  0  0  0  0  0
   26.9360   23.8740   17.9720 C   0  0  0  0  0  0  0  0  0  0  0  0
   25.6000   23.2440   17.5900 C   0  0  0  0  0  0  0  0  0  0  0  0
   24.7420   24.2310   16.8920 N   0  0  0  0  0  0  0  0  0  0  0  0
  2  1  1  1  0  0  0
  2 25  1  0  0  0  0
  3 23  1  1  0  0  0
  3  2  1  0  0  0  0
  4  3  1  6  0  0  0
  5 10  1  6  0  0  0
  5 12  1  0  0  0  0
  6  5  1  0  0  0  0
  7  4  1  0  0  0  0
  7  5  1  0  0  0  0
  8 16  1  6  0  0  0
  8  9  1  0  0  0  0
  8  6  1  0  0  0  0
  9 18  1  1  0  0  0
  9  4  1  0  0  0  0
 10 11  1  0  0  0  0
 12 14  1  0  0  0  0
 12 13  2  0  0  0  0
 15 14  1  0  0  0  0
 17 16  1  0  0  0  0
 18 20  1  0  0  0  0
 19 21  1  0  0  0  0
 19 18  1  0  0  0  0
 22 19  2  0  0  0  0
 23 24  1  0  0  0  0
 25 26  1  0  0  0  0
 27  1  1  0  0  0  0
 27 29  1  0  0  0  0
 28 27  1  0  0  0  0
 30 28  2  0  0  0  0
 31 28  1  0  0  0  0
 32 31  1  0  0  0  0
 33 34  2  0  0  0  0
 33 32  1  0  0  0  0
 35 33  1  0  0  0  0
 36 34  1  0  0  0  0
 37 35  2  0  0  0  0
 37 36  1  0  0  0  0
 38 36  1  0  0  0  0
 38 40  1  0  0  0  0
 38 39  1  0  0  0  0
 39 41  1  0  0  0  0
 40 42  1  0  0  0  0
 41 42  1  0  0  0  0
 43 44  1  0  0  0  0
 45 44  1  0  0  0  0
 45 46  1  0  0  0  0
 47 46  1  0  0  0  0
 48 47  1  0  0  0  0
M  END
>  <REMARK>
 VINA RESULT:    -4.851      5.506     10.183
 INTER + INTRA:         -13.421
 INTER:                  -8.481
 INTRA:                  -4.940
 UNBOUND:                -5.026
 SMILES CC(=O)N[C@@H]1[C@@H](O)C[C@](O)(C(=O)O)O[C@H]1C(O)[C@H](O)CNC(=O)OCc1cn(C2CCCC2)nn1
 SMILES IDX 20 1 18 2 16 3 15 4 9 5 8 6 14 7 6 8 5 9 10 10 11 12 12 13
 SMILES IDX 13 14 7 16 4 18 2 19 1 21 3 22 17 23 19 25 21 27 22 28 23 30
 SMILES IDX 24 31 25 32 26 33 27 34 35 35 28 36 34 37 29 38 30 39 33 40
 SMILES IDX 31 41 32 42
 H PARENT 10 11 13 15 7 17 4 20 17 24 19 26 21 29
 Flexibility Score: inf
  4 active torsions:
  status: ('A' for Active; 'I' for Inactive)
    1  A    between atoms: CA   and  CB  
    2  A    between atoms: CB   and  CG  
    3  A    between atoms: CG   and  CD  
    4  A    between atoms: CD   and  CE  

>  <TORSDO>
F 15

>  <BEGIN_>
RES LYS A 131

$$$$
ligand_49_pose_17_2HRL.pdbqt
 OpenBabel07062320523D

  6  5  0  0  0  0  0  0  0  0999 V2000
   33.1930   34.6630    9.2900 C   0  0  0  0  0  0  0  0  0  0  0  0
   32.0600   35.3600   10.0340 C   0  0  0  0  0  0  0  0  0  0  0  0
   32.5100   36.0820   11.2770 C   0  0  0  0  0  0  0  0  0  0  0  0
   31.7290   35.6010   12.4900 C   0  0  0  0  0  0  0  0  0  0  0  0
   32.6160   35.5780   13.7200 C   0  0  0  0  0  0  0  0  0  0  0  0
   32.2550   36.6730   14.6630 N   0  0  0  0  0  0  0  0  0  0  0  0
  1  2  1  0  0  0  0
  2  3  1  0  0  0  0
  3  4  1  0  0  0  0
  4  5  1  0  0  0  0
  5  6  1  0  0  0  0
M  END
>  <EGIN_R>
ES LYS A 135

>  <REMARK>
  4 active torsions:
  status: ('A' for Active; 'I' for Inactive)
    5  A    between atoms: CA   and  CB  
    6  A    between atoms: CB   and  CG  
    7  A    between atoms: CG   and  CD  
    8  A    between atoms: CD   and  CE  

$$$$
