ligand_69_pose_14_2HRL.pdbqt
 OpenBabel07062320523D

 54 51  0  0  1  0  0  0  0  0999 V2000
   31.5250   34.4320   13.4410 N   0  0  0  0  0  0  0  0  0  0  0  0
   32.4180   35.4880   13.7930 C   0  0  0  0  0  0  0  0  0  0  0  0
   32.3340   36.6440   13.3030 O   0  0  0  0  0  0  0  0  0  0  0  0
   31.6190   33.4830   13.8630 H   0  0  0  0  0  0  0  0  0  0  0  0
   30.4890   34.7670   12.4640 C   0  0  0  0  0  0  0  0  0  0  0  0
   29.1580   34.6160   13.1770 C   0  0  2  0  0  0  0  0  0  0  0  0
   28.0480   35.3950   12.5100 C   0  0  2  0  0  0  0  0  0  0  0  0
   28.4600   36.7890   12.1570 C   0  0  2  0  0  0  0  0  0  0  0  0
   28.9830   38.8930   12.8620 C   0  0  2  0  0  0  0  0  0  0  0  0
   29.3110   39.0200   11.3890 C   0  0  0  0  0  0  0  0  0  0  0  0
   28.7610   37.5740   13.2370 O   0  0  0  0  0  0  0  0  0  0  0  0
   28.1740   38.5290   10.5150 C   0  0  1  0  0  0  0  0  0  0  0  0
   27.4240   37.5070   11.3200 C   0  0  1  0  0  0  0  0  0  0  0  0
   27.9260   39.7240   13.2180 O   0  0  0  0  0  0  0  0  0  0  0  0
   28.1120   40.6760   13.0020 H   0  0  0  0  0  0  0  0  0  0  0  0
   30.1830   39.3510   13.6030 C   0  0  0  0  0  0  0  0  0  0  0  0
   30.1350   39.7240   14.8060 O   0  0  0  0  0  0  0  0  0  0  0  0
   31.4020   39.3730   12.9620 O   0  0  0  0  0  0  0  0  0  0  0  0
   31.8160   38.5770   12.4860 H   0  0  0  0  0  0  0  0  0  0  0  0
   27.4200   39.6230   10.1590 O   0  0  0  0  0  0  0  0  0  0  0  0
   28.0410   40.2820    9.7190 H   0  0  0  0  0  0  0  0  0  0  0  0
   26.5910   36.6380   10.5750 N   0  0  0  0  0  0  0  0  0  0  0  0
   25.2540   36.9110   10.1780 C   0  0  0  0  0  0  0  0  0  0  0  0
   26.9780   35.7130   10.2880 H   0  0  0  0  0  0  0  0  0  0  0  0
   24.4550   35.9240    9.3910 C   0  0  0  0  0  0  0  0  0  0  0  0
   24.7690   38.0100   10.5100 O   0  0  0  0  0  0  0  0  0  0  0  0
   26.8680   35.3050   13.2070 O   0  0  0  0  0  0  0  0  0  0  0  0
   26.2070   34.8410   12.6480 H   0  0  0  0  0  0  0  0  0  0  0  0
   29.2670   35.1580   14.4790 O   0  0  0  0  0  0  0  0  0  0  0  0
   29.6460   36.0820   14.4490 H   0  0  0  0  0  0  0  0  0  0  0  0
   33.4180   35.2520   14.7050 O   0  0  0  0  0  0  0  0  0  0  0  0
   33.4140   35.7360   16.0360 C   0  0  0  0  0  0  0  0  0  0  0  0
   32.0900   35.4510   16.6360 C   0  0  0  0  0  0  0  0  0  0  0  0
   31.6060   34.2760   17.1680 C   0  0  0  0  0  0  0  0  0  0  0  0
   31.1010   36.3590   16.7580 N   0  0  0  0  0  0  0  0  0  0  0  0
   30.3490   34.4920   17.5960 N   0  0  0  0  0  0  0  0  0  0  0  0
   30.0810   35.7720   17.3280 N   0  0  0  0  0  0  0  0  0  0  0  0
   29.4680   33.5080   18.2280 C   0  0  2  0  0  0  0  0  0  0  0  0
   30.1250   32.1740   18.1140 C   0  0  0  0  0  0  0  0  0  0  0  0
   29.3040   31.0290   18.5930 *   0  0  0  0  0  0  0  0  0  0  0  0
   30.0950   29.9670   19.0840 O   0  0  0  0  0  0  0  0  0  0  0  0
   31.0080   30.2980   19.2230 H   0  0  0  0  0  0  0  0  0  0  0  0
   28.1370   33.6000   17.5650 C   0  0  0  0  0  0  0  0  0  0  0  0
   27.9870   32.7410   16.3460 C   0  0  1  0  0  0  0  0  0  0  0  0
   27.7660   31.3110   16.6510 C   0  0  0  0  0  0  0  0  0  0  0  0
   28.3160   30.5870   17.6010 *   0  0  0  0  0  0  0  0  0  0  0  0
   27.0210   33.2250   15.4660 O   0  0  0  0  0  0  0  0  0  0  0  0
   26.1050   33.0700   15.8090 H   0  0  0  0  0  0  0  0  0  0  0  0
   29.8670   25.5550   16.9770 C   0  0  0  0  0  0  0  0  0  0  0  0
   28.3450   25.7220   17.0260 C   0  0  0  0  0  0  0  0  0  0  0  0
   27.6000   24.4110   16.8290 C   0  0  0  0  0  0  0  0  0  0  0  0
   26.8740   23.9800   18.0730 C   0  0  0  0  0  0  0  0  0  0  0  0
   25.7130   23.0660   17.6940 C   0  0  0  0  0  0  0  0  0  0  0  0
   24.8470   22.8130   18.8700 N   0  0  0  0  0  0  0  0  0  0  0  0
  1  2  1  0  0  0  0
  1  4  1  0  0  0  0
  2 31  1  0  0  0  0
  3  2  2  0  0  0  0
  5  1  1  0  0  0  0
  6  5  1  6  0  0  0
  6 29  1  0  0  0  0
  7  6  1  0  0  0  0
  7 27  1  1  0  0  0
  8  7  1  1  0  0  0
  8 11  1  0  0  0  0
  9 14  1  1  0  0  0
  9 11  1  0  0  0  0
  9 16  1  0  0  0  0
 10  9  1  0  0  0  0
 12 20  1  1  0  0  0
 12 13  1  0  0  0  0
 12 10  1  0  0  0  0
 13 22  1  6  0  0  0
 13  8  1  0  0  0  0
 15 14  1  0  0  0  0
 16 17  2  0  0  0  0
 18 16  1  0  0  0  0
 19 18  1  0  0  0  0
 21 20  1  0  0  0  0
 23 26  2  0  0  0  0
 23 22  1  0  0  0  0
 24 22  1  0  0  0  0
 25 23  1  0  0  0  0
 28 27  1  0  0  0  0
 30 29  1  0  0  0  0
 31 32  1  0  0  0  0
 32 33  1  0  0  0  0
 33 35  1  0  0  0  0
 33 34  2  0  0  0  0
 34 36  1  0  0  0  0
 35 37  2  0  0  0  0
 36 38  1  0  0  0  0
 37 36  1  0  0  0  0
 38 39  1  6  0  0  0
 41 42  1  0  0  0  0
 43 38  1  0  0  0  0
 44 45  1  1  0  0  0
 44 43  1  0  0  0  0
 47 48  1  0  0  0  0
 47 44  1  0  0  0  0
 49 50  1  0  0  0  0
 51 50  1  0  0  0  0
 51 52  1  0  0  0  0
 53 52  1  0  0  0  0
 53 54  1  0  0  0  0
M  END
>  <REMARK>
 VINA RESULT:    -7.695      3.440      6.431
 INTER + INTRA:         -12.985
 INTER:                  -6.884
 INTRA:                  -6.101
 UNBOUND:                 3.032
 SMILES CC(=O)N[C@@H]1[C@@H](O)C[C@](O)(C(=O)O)O[C@H]1C(O)[C@H](O)CNC(=O)OCc1cn(C2CC(O)C=C[C@@H](O)C2)nn1
 SMILES IDX 21 1 22 2 23 3 20 5 18 6 16 7 15 8 9 9 8 10 14 11 6 12 5 13
 SMILES IDX 10 14 11 16 12 17 13 18 7 20 4 22 2 23 1 25 3 26 17 27 19 29
 SMILES IDX 24 31 25 32 26 33 27 34 39 35 28 36 38 37 29 38 30 39 31 40
 SMILES IDX 32 42 37 44 35 45 34 46 33 47 36 49
 H PARENT 21 4 10 15 13 19 7 21 4 24 17 28 19 30 32 43 36 50
 Flexibility Score: 90.00
  4 active torsions:
  status: ('A' for Active; 'I' for Inactive)
    1  A    between atoms: CA   and  CB  
    2  A    between atoms: CB   and  CG  
    3  A    between atoms: CG   and  CD  
    4  A    between atoms: CD   and  CE  

>  <TORSDO>
F 17

>  <BEGIN_>
RES LYS A 131

$$$$
ligand_69_pose_14_2HRL.pdbqt
 OpenBabel07062320523D

  6  5  0  0  0  0  0  0  0  0999 V2000
   33.1930   34.6630    9.2900 C   0  0  0  0  0  0  0  0  0  0  0  0
   32.0600   35.3600   10.0340 C   0  0  0  0  0  0  0  0  0  0  0  0
   30.8410   35.6050    9.1830 C   0  0  0  0  0  0  0  0  0  0  0  0
   30.1040   34.3020    8.9130 C   0  0  0  0  0  0  0  0  0  0  0  0
   28.6290   34.5630    8.6790 C   0  0  0  0  0  0  0  0  0  0  0  0
   27.7860   33.5950    9.4340 N   0  0  0  0  0  0  0  0  0  0  0  0
  1  2  1  0  0  0  0
  3  2  1  0  0  0  0
  4  3  1  0  0  0  0
  5  4  1  0  0  0  0
  5  6  1  0  0  0  0
M  END
>  <EGIN_R>
ES LYS A 135

>  <REMARK>
  4 active torsions:
  status: ('A' for Active; 'I' for Inactive)
    5  A    between atoms: CA   and  CB  
    6  A    between atoms: CB   and  CG  
    7  A    between atoms: CG   and  CD  
    8  A    between atoms: CD   and  CE  

$$$$
