ligand_16_pose_15_2HRL.pdbqt
 OpenBabel07062320523D

 54 55  0  0  1  0  0  0  0  0999 V2000
   27.9230   33.6000   15.3510 N   0  0  0  0  0  0  0  0  0  0  0  0
   29.2000   33.6020   14.7650 C   0  0  0  0  0  0  0  0  0  0  0  0
   29.9010   32.5780   14.8020 O   0  0  0  0  0  0  0  0  0  0  0  0
   27.3890   34.5190   15.2790 H   0  0  0  0  0  0  0  0  0  0  0  0
   27.3430   32.4590   16.0090 C   0  0  0  0  0  0  0  0  0  0  0  0
   25.8500   32.4740   15.8200 C   0  0  2  0  0  0  0  0  0  0  0  0
   25.4110   32.2570   14.4070 C   0  0  1  0  0  0  0  0  0  0  0  0
   24.1240   31.4120   14.3710 C   0  0  2  0  0  0  0  0  0  0  0  0
   23.2810   29.5650   13.2650 C   0  0  2  0  0  0  0  0  0  0  0  0
   22.2770   30.3700   12.4540 C   0  0  0  0  0  0  0  0  0  0  0  0
   24.3620   30.3840   13.4830 O   0  0  0  0  0  0  0  0  0  0  0  0
   21.8960   31.6160   13.1850 C   0  0  1  0  0  0  0  0  0  0  0  0
   23.0510   32.3040   13.8610 C   0  0  1  0  0  0  0  0  0  0  0  0
   23.7070   28.5450   12.3660 O   0  0  0  0  0  0  0  0  0  0  0  0
   24.1940   28.9960   11.6070 H   0  0  0  0  0  0  0  0  0  0  0  0
   22.6710   28.9590   14.4510 C   0  0  0  0  0  0  0  0  0  0  0  0
   21.4650   28.5420   14.3800 O   0  0  0  0  0  0  0  0  0  0  0  0
   23.2670   28.7790   15.6830 O   0  0  0  0  0  0  0  0  0  0  0  0
   23.3900   29.6010   16.2590 H   0  0  0  0  0  0  0  0  0  0  0  0
   21.3920   32.5170   12.2170 O   0  0  0  0  0  0  0  0  0  0  0  0
   21.2310   31.9760   11.4060 H   0  0  0  0  0  0  0  0  0  0  0  0
   22.5430   33.2230   14.8590 N   0  0  0  0  0  0  0  0  0  0  0  0
   22.3930   34.6080   14.6000 C   0  0  0  0  0  0  0  0  0  0  0  0
   22.2690   32.8870   15.8070 H   0  0  0  0  0  0  0  0  0  0  0  0
   21.8630   35.5460   15.6540 C   0  0  0  0  0  0  0  0  0  0  0  0
   22.7090   35.0430   13.4760 O   0  0  0  0  0  0  0  0  0  0  0  0
   25.2850   33.4010   13.6560 O   0  0  0  0  0  0  0  0  0  0  0  0
   26.1040   33.9540   13.7430 H   0  0  0  0  0  0  0  0  0  0  0  0
   25.2630   33.6430   16.3240 O   0  0  0  0  0  0  0  0  0  0  0  0
   25.9790   34.2260   16.7060 H   0  0  0  0  0  0  0  0  0  0  0  0
   29.7450   34.7090   14.1270 O   0  0  0  0  0  0  0  0  0  0  0  0
   29.8440   34.8420   12.7300 C   0  0  0  0  0  0  0  0  0  0  0  0
   28.4970   34.9870   12.1420 C   0  0  0  0  0  0  0  0  0  0  0  0
   28.1200   34.5590   10.8680 C   0  0  0  0  0  0  0  0  0  0  0  0
   27.3790   35.5370   12.6550 N   0  0  0  0  0  0  0  0  0  0  0  0
   26.8310   34.8600   10.6740 N   0  0  0  0  0  0  0  0  0  0  0  0
   26.4060   35.4500   11.7650 N   0  0  0  0  0  0  0  0  0  0  0  0
   26.0440   34.5920    9.4610 C   0  0  0  0  0  0  0  0  0  0  0  0
   26.6350   35.4720    8.4020 C   0  0  0  0  0  0  0  0  0  0  0  0
   27.5360   34.9470    7.5190 C   0  0  0  0  0  0  0  0  0  0  0  0
   26.3000   36.7990    8.2970 C   0  0  0  0  0  0  0  0  0  0  0  0
   28.1100   35.7430    6.5230 C   0  0  0  0  0  0  0  0  0  0  0  0
   26.8690   37.5920    7.3070 C   0  0  0  0  0  0  0  0  0  0  0  0
   27.7810   37.0720    6.4090 C   0  0  0  0  0  0  0  0  0  0  0  0
   28.3690   37.9120    5.3750 C   0  0  0  0  0  0  0  0  0  0  0  0
   27.6990   38.4310    4.4550 O   0  0  0  0  0  0  0  0  0  0  0  0
   29.7380   38.1570    5.3960 O   0  0  0  0  0  0  0  0  0  0  0  0
   30.2740   38.2090    4.5470 H   0  0  0  0  0  0  0  0  0  0  0  0
   29.8670   25.5550   16.9770 C   0  0  0  0  0  0  0  0  0  0  0  0
   28.3450   25.7220   17.0260 C   0  0  0  0  0  0  0  0  0  0  0  0
   27.6250   24.4540   17.4600 C   0  0  0  0  0  0  0  0  0  0  0  0
   26.1960   24.4260   16.9930 C   0  0  0  0  0  0  0  0  0  0  0  0
   25.4510   23.3010   17.7040 C   0  0  0  0  0  0  0  0  0  0  0  0
   24.0880   23.1460   17.1420 N   0  0  0  0  0  0  0  0  0  0  0  0
  1  5  1  0  0  0  0
  2  3  2  0  0  0  0
  2  1  1  0  0  0  0
  4  1  1  0  0  0  0
  6  5  1  6  0  0  0
  6 29  1  0  0  0  0
  7 27  1  1  0  0  0
  7  6  1  0  0  0  0
  8  7  1  6  0  0  0
  9 14  1  6  0  0  0
  9 11  1  0  0  0  0
  9 16  1  0  0  0  0
 10 12  1  0  0  0  0
 10  9  1  0  0  0  0
 11  8  1  0  0  0  0
 12 20  1  6  0  0  0
 12 13  1  0  0  0  0
 13  8  1  0  0  0  0
 13 22  1  1  0  0  0
 15 14  1  0  0  0  0
 16 18  1  0  0  0  0
 17 16  2  0  0  0  0
 18 19  1  0  0  0  0
 21 20  1  0  0  0  0
 22 24  1  0  0  0  0
 23 22  1  0  0  0  0
 23 25  1  0  0  0  0
 26 23  2  0  0  0  0
 27 28  1  0  0  0  0
 29 30  1  0  0  0  0
 31  2  1  0  0  0  0
 32 31  1  0  0  0  0
 33 35  1  0  0  0  0
 33 32  1  0  0  0  0
 34 33  2  0  0  0  0
 36 34  1  0  0  0  0
 36 37  1  0  0  0  0
 37 35  2  0  0  0  0
 38 36  1  0  0  0  0
 39 38  1  0  0  0  0
 40 39  2  0  0  0  0
 41 39  1  0  0  0  0
 42 40  1  0  0  0  0
 43 41  2  0  0  0  0
 44 42  2  0  0  0  0
 44 43  1  0  0  0  0
 45 47  1  0  0  0  0
 45 44  1  0  0  0  0
 46 45  2  0  0  0  0
 48 47  1  0  0  0  0
 49 50  1  0  0  0  0
 50 51  1  0  0  0  0
 52 51  1  0  0  0  0
 52 53  1  0  0  0  0
 54 53  1  0  0  0  0
M  END
>  <REMARK>
 VINA RESULT:    -5.735      4.998      8.837
 INTER + INTRA:         -14.758
 INTER:                 -10.154
 INTRA:                  -4.604
 UNBOUND:                -3.993
 SMILES CC(=O)N[C@@H]1[C@@H](O)C[C@](O)(C(=O)O)O[C@H]1C(O)[C@H](O)CNC(=O)OCc1cn(Cc2ccc(C(=O)O)cc2)nn1
 SMILES IDX 21 1 22 2 23 3 20 5 18 6 16 7 15 8 9 9 8 10 14 11 6 12 5 13
 SMILES IDX 10 14 11 16 12 17 13 18 7 20 4 22 2 23 1 25 3 26 17 27 19 29
 SMILES IDX 24 31 25 32 26 33 27 34 40 35 28 36 39 37 29 38 30 39 31 40
 SMILES IDX 38 41 32 42 37 43 33 44 34 45 35 46 36 47
 H PARENT 21 4 10 15 13 19 7 21 4 24 17 28 19 30 36 48
 Flexibility Score: inf
  4 active torsions:
  status: ('A' for Active; 'I' for Inactive)
    1  A    between atoms: CA   and  CB  
    2  A    between atoms: CB   and  CG  
    3  A    between atoms: CG   and  CD  
    4  A    between atoms: CD   and  CE  

>  <TORSDO>
F 18

>  <BEGIN_>
RES LYS A 131

$$$$
ligand_16_pose_15_2HRL.pdbqt
 OpenBabel07062320523D

  6  5  0  0  0  0  0  0  0  0999 V2000
   33.1930   34.6630    9.2900 C   0  0  0  0  0  0  0  0  0  0  0  0
   32.0600   35.3600   10.0340 C   0  0  0  0  0  0  0  0  0  0  0  0
   30.8380   35.5980    9.1850 C   0  0  0  0  0  0  0  0  0  0  0  0
   30.4340   37.0640    9.2250 C   0  0  0  0  0  0  0  0  0  0  0  0
   30.9230   37.7160   10.5040 C   0  0  0  0  0  0  0  0  0  0  0  0
   29.7940   38.3220   11.2630 N   0  0  0  0  0  0  0  0  0  0  0  0
  1  2  1  0  0  0  0
  3  4  1  0  0  0  0
  3  2  1  0  0  0  0
  4  5  1  0  0  0  0
  5  6  1  0  0  0  0
M  END
>  <EGIN_R>
ES LYS A 135

>  <REMARK>
  4 active torsions:
  status: ('A' for Active; 'I' for Inactive)
    5  A    between atoms: CA   and  CB  
    6  A    between atoms: CB   and  CG  
    7  A    between atoms: CG   and  CD  
    8  A    between atoms: CD   and  CE  

$$$$
