ligand_3_pose_12_2HRL.pdbqt
 OpenBabel07062320523D

 49 50  0  0  1  0  0  0  0  0999 V2000
   30.8200   31.4650   15.8630 C   0  0  0  0  0  0  0  0  0  0  0  0
   29.3110   31.4620   15.7220 C   0  0  2  0  0  0  0  0  0  0  0  0
   28.6260   31.9360   16.9840 C   0  0  1  0  0  0  0  0  0  0  0  0
   28.9830   31.1150   18.1780 C   0  0  2  0  0  0  0  0  0  0  0  0
   27.2760   29.5400   18.5220 C   0  0  2  0  0  0  0  0  0  0  0  0
   26.6180   30.3590   19.5750 C   0  0  0  0  0  0  0  0  0  0  0  0
   28.5370   29.8460   18.1790 O   0  0  0  0  0  0  0  0  0  0  0  0
   27.2010   31.7270   19.7670 C   0  0  1  0  0  0  0  0  0  0  0  0
   28.6680   31.7870   19.4830 C   0  0  1  0  0  0  0  0  0  0  0  0
   26.4690   29.6520   17.3680 O   0  0  0  0  0  0  0  0  0  0  0  0
   27.0570   29.9970   16.6390 H   0  0  0  0  0  0  0  0  0  0  0  0
   27.2270   28.1010   18.8970 C   0  0  0  0  0  0  0  0  0  0  0  0
   26.1560   27.4580   18.9700 O   0  0  0  0  0  0  0  0  0  0  0  0
   28.3960   27.4280   19.1780 O   0  0  0  0  0  0  0  0  0  0  0  0
   29.1020   27.7550   19.8260 H   0  0  0  0  0  0  0  0  0  0  0  0
   26.5210   32.6610   18.9660 O   0  0  0  0  0  0  0  0  0  0  0  0
   25.8050   33.1180   19.4500 H   0  0  0  0  0  0  0  0  0  0  0  0
   29.3500   31.0300   20.5350 N   0  0  0  0  0  0  0  0  0  0  0  0
   30.6490   31.3860   20.9910 C   0  0  0  0  0  0  0  0  0  0  0  0
   28.9010   30.2030   20.9830 H   0  0  0  0  0  0  0  0  0  0  0  0
   31.3580   30.6310   22.0570 C   0  0  0  0  0  0  0  0  0  0  0  0
   31.2570   32.3750   20.4970 O   0  0  0  0  0  0  0  0  0  0  0  0
   29.0380   33.2690   17.1480 O   0  0  0  0  0  0  0  0  0  0  0  0
   29.3630   33.5460   16.2390 H   0  0  0  0  0  0  0  0  0  0  0  0
   28.8470   30.2410   15.2650 O   0  0  0  0  0  0  0  0  0  0  0  0
   28.1980   30.3210   14.5370 H   0  0  0  0  0  0  0  0  0  0  0  0
   31.4730   32.4140   15.0160 N   0  0  0  0  0  0  0  0  0  0  0  0
   32.0110   33.6450   15.4800 C   0  0  0  0  0  0  0  0  0  0  0  0
   31.5800   32.2210   13.9930 H   0  0  0  0  0  0  0  0  0  0  0  0
   31.9410   33.9710   16.6710 O   0  0  0  0  0  0  0  0  0  0  0  0
   32.6360   34.5330   14.6120 O   0  0  0  0  0  0  0  0  0  0  0  0
   32.7600   35.9020   14.9660 C   0  0  0  0  0  0  0  0  0  0  0  0
   31.8720   36.6730   14.0680 C   0  0  0  0  0  0  0  0  0  0  0  0
   31.9700   36.7910   12.6990 C   0  0  0  0  0  0  0  0  0  0  0  0
   30.8030   37.3980   14.4540 N   0  0  0  0  0  0  0  0  0  0  0  0
   30.9550   37.5830   12.3190 N   0  0  0  0  0  0  0  0  0  0  0  0
   30.2620   37.9400   13.3810 N   0  0  0  0  0  0  0  0  0  0  0  0
   30.6840   37.9660   10.9750 C   0  0  0  0  0  0  0  0  0  0  0  0
   29.3750   37.9750   10.5250 C   0  0  0  0  0  0  0  0  0  0  0  0
   31.7110   38.3250   10.1230 C   0  0  0  0  0  0  0  0  0  0  0  0
   29.1470   38.3530    9.2140 C   0  0  0  0  0  0  0  0  0  0  0  0
   31.4670   38.6980    8.8260 C   0  0  0  0  0  0  0  0  0  0  0  0
   30.1670   38.7100    8.3710 C   0  0  0  0  0  0  0  0  0  0  0  0
   29.8670   25.5550   16.9770 C   0  0  0  0  0  0  0  0  0  0  0  0
   28.3450   25.7220   17.0260 C   0  0  0  0  0  0  0  0  0  0  0  0
   27.6010   24.4010   16.9040 C   0  0  0  0  0  0  0  0  0  0  0  0
   26.1530   24.5290   17.2850 C   0  0  0  0  0  0  0  0  0  0  0  0
   25.7820   23.4150   18.2600 C   0  0  0  0  0  0  0  0  0  0  0  0
   24.8810   22.4350   17.6090 N   0  0  0  0  0  0  0  0  0  0  0  0
  2  1  1  1  0  0  0
  2  3  1  0  0  0  0
  3 23  1  1  0  0  0
  4  3  1  6  0  0  0
  4  7  1  0  0  0  0
  4  9  1  0  0  0  0
  5 10  1  6  0  0  0
  5 12  1  0  0  0  0
  5  6  1  0  0  0  0
  6  8  1  0  0  0  0
  7  5  1  0  0  0  0
  8 16  1  6  0  0  0
  9  8  1  0  0  0  0
  9 18  1  1  0  0  0
 11 10  1  0  0  0  0
 12 13  2  0  0  0  0
 12 14  1  0  0  0  0
 14 15  1  0  0  0  0
 16 17  1  0  0  0  0
 18 20  1  0  0  0  0
 18 19  1  0  0  0  0
 19 21  1  0  0  0  0
 22 19  2  0  0  0  0
 24 23  1  0  0  0  0
 25  2  1  0  0  0  0
 26 25  1  0  0  0  0
 27 28  1  0  0  0  0
 27  1  1  0  0  0  0
 28 30  2  0  0  0  0
 29 27  1  0  0  0  0
 31 32  1  0  0  0  0
 31 28  1  0  0  0  0
 33 35  1  0  0  0  0
 33 32  1  0  0  0  0
 34 33  2  0  0  0  0
 36 34  1  0  0  0  0
 36 37  1  0  0  0  0
 37 35  2  0  0  0  0
 38 36  1  0  0  0  0
 39 38  1  0  0  0  0
 40 38  2  0  0  0  0
 41 39  2  0  0  0  0
 42 40  1  0  0  0  0
 43 42  2  0  0  0  0
 43 41  1  0  0  0  0
 44 45  1  0  0  0  0
 46 45  1  0  0  0  0
 46 47  1  0  0  0  0
 47 48  1  0  0  0  0
 49 48  1  0  0  0  0
M  END
>  <REMARK>
 VINA RESULT:    -5.387      8.943     12.341
 INTER + INTRA:         -13.808
 INTER:                  -8.500
 INTRA:                  -5.308
 UNBOUND:                -4.485
 SMILES CC(=O)N[C@@H]1[C@@H](O)C[C@](O)(C(=O)O)O[C@H]1C(O)[C@H](O)CNC(=O)OCc1cn(-c2ccccc2)nn1
 SMILES IDX 20 1 18 2 16 3 15 4 9 5 8 6 14 7 6 8 5 9 10 10 11 12 12 13
 SMILES IDX 13 14 7 16 4 18 2 19 1 21 3 22 17 23 19 25 21 27 22 28 23 30
 SMILES IDX 24 31 25 32 26 33 27 34 36 35 28 36 35 37 29 38 30 39 34 40
 SMILES IDX 31 41 33 42 32 43
 H PARENT 10 11 13 15 7 17 4 20 17 24 19 26 21 29
 Flexibility Score: inf
  4 active torsions:
  status: ('A' for Active; 'I' for Inactive)
    1  A    between atoms: CA   and  CB  
    2  A    between atoms: CB   and  CG  
    3  A    between atoms: CG   and  CD  
    4  A    between atoms: CD   and  CE  

>  <TORSDO>
F 15

>  <BEGIN_>
RES LYS A 131

$$$$
ligand_3_pose_12_2HRL.pdbqt
 OpenBabel07062320523D

  6  5  0  0  0  0  0  0  0  0999 V2000
   33.1930   34.6630    9.2900 C   0  0  0  0  0  0  0  0  0  0  0  0
   32.0600   35.3600   10.0340 C   0  0  0  0  0  0  0  0  0  0  0  0
   30.7260   34.6780    9.8760 C   0  0  0  0  0  0  0  0  0  0  0  0
   30.3240   34.6190    8.4100 C   0  0  0  0  0  0  0  0  0  0  0  0
   28.8130   34.6320    8.2710 C   0  0  0  0  0  0  0  0  0  0  0  0
   28.1670   33.8670    9.3730 N   0  0  0  0  0  0  0  0  0  0  0  0
  1  2  1  0  0  0  0
  3  2  1  0  0  0  0
  4  3  1  0  0  0  0
  5  4  1  0  0  0  0
  5  6  1  0  0  0  0
M  END
>  <EGIN_R>
ES LYS A 135

>  <REMARK>
  4 active torsions:
  status: ('A' for Active; 'I' for Inactive)
    5  A    between atoms: CA   and  CB  
    6  A    between atoms: CB   and  CG  
    7  A    between atoms: CG   and  CD  
    8  A    between atoms: CD   and  CE  

$$$$
