ligand_30_pose_18_2HRL.pdbqt
 OpenBabel07062320523D

 57 57  0  0  1  0  0  0  0  0999 V2000
   31.1530   39.5420   11.7730 C   0  0  0  0  0  0  0  0  0  0  0  0
   30.9280   40.1290   10.4800 N   0  0  0  0  0  0  0  0  0  0  0  0
   30.6320   40.5130    8.3400 C   0  0  0  0  0  0  0  0  0  0  0  0
   30.8660   39.5250    9.2590 C   0  0  0  0  0  0  0  0  0  0  0  0
   30.5580   41.6820    9.0130 N   0  0  0  0  0  0  0  0  0  0  0  0
   30.7370   41.4170   10.2790 N   0  0  0  0  0  0  0  0  0  0  0  0
   30.4930   40.3040    6.8840 C   0  0  0  0  0  0  0  0  0  0  0  0
   29.6440   41.2800    6.3190 O   0  0  0  0  0  0  0  0  0  0  0  0
   28.3840   40.9360    5.8480 C   0  0  0  0  0  0  0  0  0  0  0  0
   27.4870   40.1520    6.6210 N   0  0  0  0  0  0  0  0  0  0  0  0
   27.7630   39.8150    7.5680 H   0  0  0  0  0  0  0  0  0  0  0  0
   28.0430   41.3480    4.6860 O   0  0  0  0  0  0  0  0  0  0  0  0
   26.1990   39.8230    6.0980 C   0  0  0  0  0  0  0  0  0  0  0  0
   25.1070   39.9030    7.1440 C   0  0  2  0  0  0  0  0  0  0  0  0
   25.5360   39.1890    8.3900 C   0  0  2  0  0  0  0  0  0  0  0  0
   24.8960   37.8180    8.4450 C   0  0  2  0  0  0  0  0  0  0  0  0
   23.0920   36.7080    9.3830 C   0  0  2  0  0  0  0  0  0  0  0  0
   23.9580   35.4880    9.1610 C   0  0  0  0  0  0  0  0  0  0  0  0
   23.8060   37.8900    9.2680 O   0  0  0  0  0  0  0  0  0  0  0  0
   25.3100   35.7540    9.7630 C   0  0  1  0  0  0  0  0  0  0  0  0
   25.9560   36.8440    8.8940 C   0  0  1  0  0  0  0  0  0  0  0  0
   22.6310   36.6360   10.6950 O   0  0  0  0  0  0  0  0  0  0  0  0
   23.3710   36.4940   11.3270 H   0  0  0  0  0  0  0  0  0  0  0  0
   21.9530   36.6220    8.4700 C   0  0  0  0  0  0  0  0  0  0  0  0
   21.3530   35.5280    8.3350 O   0  0  0  0  0  0  0  0  0  0  0  0
   21.4730   37.6890    7.7210 O   0  0  0  0  0  0  0  0  0  0  0  0
   22.0020   38.5750    7.7360 H   0  0  0  0  0  0  0  0  0  0  0  0
   25.2030   36.1410   11.0810 O   0  0  0  0  0  0  0  0  0  0  0  0
   24.3480   35.7910   11.4350 H   0  0  0  0  0  0  0  0  0  0  0  0
   26.5400   36.1470    7.7680 N   0  0  0  0  0  0  0  0  0  0  0  0
   27.8040   36.5720    7.2950 C   0  0  0  0  0  0  0  0  0  0  0  0
   26.0570   35.3420    7.2980 H   0  0  0  0  0  0  0  0  0  0  0  0
   28.4420   35.8780    6.1340 C   0  0  0  0  0  0  0  0  0  0  0  0
   28.3910   37.5250    7.8430 O   0  0  0  0  0  0  0  0  0  0  0  0
   25.1760   39.9810    9.4850 O   0  0  0  0  0  0  0  0  0  0  0  0
   24.5800   40.7140    9.2540 H   0  0  0  0  0  0  0  0  0  0  0  0
   23.9250   39.3150    6.6930 O   0  0  0  0  0  0  0  0  0  0  0  0
   23.8990   38.3620    6.8990 H   0  0  0  0  0  0  0  0  0  0  0  0
   30.2930   38.3150   11.9110 C   0  0  0  0  0  0  0  0  0  0  0  0
   30.9550   37.2220   12.7010 C   0  0  0  0  0  0  0  0  0  0  0  0
   32.3170   36.8640   12.1620 C   0  0  0  0  0  0  0  0  0  0  0  0
   32.7390   35.5020   12.7040 C   0  0  0  0  0  0  0  0  0  0  0  0
   32.0630   35.2760   14.0300 C   0  0  0  0  0  0  0  0  0  0  0  0
   33.0350   35.3730   15.1710 C   0  0  0  0  0  0  0  0  0  0  0  0
   32.4600   34.7620   16.4060 C   0  0  0  0  0  0  0  0  0  0  0  0
   31.7490   33.4500   16.0880 C   0  0  0  0  0  0  0  0  0  0  0  0
   30.9750   32.9240   17.2670 C   0  0  0  0  0  0  0  0  0  0  0  0
   30.1620   31.7730   16.7630 C   0  0  0  0  0  0  0  0  0  0  0  0
   29.1780   31.3070   17.3740 O   0  0  0  0  0  0  0  0  0  0  0  0
   30.5090   31.1800   15.5480 O   0  0  0  0  0  0  0  0  0  0  0  0
   29.9210   31.3340   14.7470 H   0  0  0  0  0  0  0  0  0  0  0  0
   29.8670   25.5550   16.9770 C   0  0  0  0  0  0  0  0  0  0  0  0
   28.3450   25.7220   17.0260 C   0  0  0  0  0  0  0  0  0  0  0  0
   27.6010   24.4030   16.8810 C   0  0  0  0  0  0  0  0  0  0  0  0
   26.5180   24.2480   17.9130 C   0  0  0  0  0  0  0  0  0  0  0  0
   25.1560   24.2620   17.2270 C   0  0  0  0  0  0  0  0  0  0  0  0
   24.5730   22.9000   17.2010 N   0  0  0  0  0  0  0  0  0  0  0  0
  1 39  1  0  0  0  0
  2  1  1  0  0  0  0
  3  5  1  0  0  0  0
  3  4  2  0  0  0  0
  4  2  1  0  0  0  0
  5  6  2  0  0  0  0
  6  2  1  0  0  0  0
  7  3  1  0  0  0  0
  8  7  1  0  0  0  0
  9  8  1  0  0  0  0
  9 10  1  0  0  0  0
 10 11  1  0  0  0  0
 12  9  2  0  0  0  0
 13 10  1  0  0  0  0
 14 13  1  6  0  0  0
 14 15  1  0  0  0  0
 15 35  1  1  0  0  0
 16 15  1  1  0  0  0
 16 21  1  0  0  0  0
 16 19  1  0  0  0  0
 17 24  1  6  0  0  0
 17 22  1  0  0  0  0
 18 17  1  0  0  0  0
 18 20  1  0  0  0  0
 19 17  1  0  0  0  0
 20 28  1  1  0  0  0
 21 30  1  6  0  0  0
 21 20  1  0  0  0  0
 22 23  1  0  0  0  0
 25 24  2  0  0  0  0
 26 27  1  0  0  0  0
 26 24  1  0  0  0  0
 28 29  1  0  0  0  0
 31 30  1  0  0  0  0
 31 34  2  0  0  0  0
 32 30  1  0  0  0  0
 33 31  1  0  0  0  0
 36 35  1  0  0  0  0
 37 38  1  0  0  0  0
 37 14  1  0  0  0  0
 39 40  1  0  0  0  0
 41 40  1  0  0  0  0
 41 42  1  0  0  0  0
 42 43  1  0  0  0  0
 43 44  1  0  0  0  0
 44 45  1  0  0  0  0
 46 45  1  0  0  0  0
 46 47  1  0  0  0  0
 48 47  1  0  0  0  0
 48 49  2  0  0  0  0
 50 48  1  0  0  0  0
 51 50  1  0  0  0  0
 52 53  1  0  0  0  0
 54 53  1  0  0  0  0
 54 55  1  0  0  0  0
 56 55  1  0  0  0  0
 57 56  1  0  0  0  0
M  END
>  <REMARK>
 VINA RESULT:    -3.593      5.741     10.933
 INTER + INTRA:         -16.721
 INTER:                 -10.824
 INTRA:                  -5.897
 UNBOUND:                -8.298
 SMILES CC(=O)N[C@@H]1[C@@H](O)C[C@](O)(C(=O)O)O[C@H]1C(O)[C@H](O)CNC(=O)OCc1cn(CCCCCCCCCCC(=O)O)nn1
 SMILES IDX 29 1 28 2 26 3 27 4 43 5 42 6 25 7 24 8 22 9 21 10 23 12
 SMILES IDX 20 13 18 14 16 15 15 16 9 17 8 18 14 19 6 20 5 21 10 22
 SMILES IDX 11 24 12 25 13 26 7 28 4 30 2 31 1 33 3 34 17 35 19 37 30 39
 SMILES IDX 31 40 32 41 33 42 34 43 35 44 36 45 37 46 38 47 39 48 40 49
 SMILES IDX 41 50
 H PARENT 21 11 10 23 13 27 7 29 4 32 17 36 19 38 41 51
 Flexibility Score: inf
  4 active torsions:
  status: ('A' for Active; 'I' for Inactive)
    1  A    between atoms: CA   and  CB  
    2  A    between atoms: CB   and  CG  
    3  A    between atoms: CG   and  CD  
    4  A    between atoms: CD   and  CE  

>  <TORSDO>
F 26

>  <BEGIN_>
RES LYS A 131

$$$$
ligand_30_pose_18_2HRL.pdbqt
 OpenBabel07062320523D

  6  5  0  0  0  0  0  0  0  0999 V2000
   33.1930   34.6630    9.2900 C   0  0  0  0  0  0  0  0  0  0  0  0
   32.0600   35.3600   10.0340 C   0  0  0  0  0  0  0  0  0  0  0  0
   30.7780   35.4350    9.2460 C   0  0  0  0  0  0  0  0  0  0  0  0
   30.1640   34.0520    9.0870 C   0  0  0  0  0  0  0  0  0  0  0  0
   28.7430   34.0360    9.6170 C   0  0  0  0  0  0  0  0  0  0  0  0
   28.6510   34.7390   10.9260 N   0  0  0  0  0  0  0  0  0  0  0  0
  1  2  1  0  0  0  0
  3  2  1  0  0  0  0
  4  3  1  0  0  0  0
  4  5  1  0  0  0  0
  5  6  1  0  0  0  0
M  END
>  <EGIN_R>
ES LYS A 135

>  <REMARK>
  4 active torsions:
  status: ('A' for Active; 'I' for Inactive)
    5  A    between atoms: CA   and  CB  
    6  A    between atoms: CB   and  CG  
    7  A    between atoms: CG   and  CD  
    8  A    between atoms: CD   and  CE  

$$$$
