ligand_43_pose_1_2HRL.pdbqt
 OpenBabel07062320523D

 49 49  0  0  1  0  0  0  0  0999 V2000
   29.5950   34.2890   13.0600 O   0  0  0  0  0  0  0  0  0  0  0  0
   30.4570   33.9000   14.0670 C   0  0  0  0  0  0  0  0  0  0  0  0
   30.2010   32.6380   14.6970 N   0  0  0  0  0  0  0  0  0  0  0  0
   29.3890   32.0790   14.3720 H   0  0  0  0  0  0  0  0  0  0  0  0
   31.4410   34.6250   14.4260 O   0  0  0  0  0  0  0  0  0  0  0  0
   31.0260   32.1410   15.7450 C   0  0  0  0  0  0  0  0  0  0  0  0
   30.3120   31.1630   16.6810 C   0  0  2  0  0  0  0  0  0  0  0  0
   28.8790   31.1230   16.2140 C   0  0  2  0  0  0  0  0  0  0  0  0
   27.9000   30.7630   17.2840 C   0  0  2  0  0  0  0  0  0  0  0  0
   27.3420   28.7970   18.3850 C   0  0  2  0  0  0  0  0  0  0  0  0
   26.1130   29.5740   18.8090 C   0  0  0  0  0  0  0  0  0  0  0  0
   28.3390   29.6670   17.9780 O   0  0  0  0  0  0  0  0  0  0  0  0
   25.4810   30.1380   17.5580 C   0  0  1  0  0  0  0  0  0  0  0  0
   26.5690   30.4880   16.5700 C   0  0  1  0  0  0  0  0  0  0  0  0
   27.0280   27.8550   17.4110 O   0  0  0  0  0  0  0  0  0  0  0  0
   26.1990   27.3830   17.6490 H   0  0  0  0  0  0  0  0  0  0  0  0
   27.8110   28.0490   19.5790 C   0  0  0  0  0  0  0  0  0  0  0  0
   27.7110   28.5120   20.7440 O   0  0  0  0  0  0  0  0  0  0  0  0
   28.3950   26.7760   19.4780 O   0  0  0  0  0  0  0  0  0  0  0  0
   29.2530   26.6130   20.0000 H   0  0  0  0  0  0  0  0  0  0  0  0
   24.6850   29.1670   16.9790 O   0  0  0  0  0  0  0  0  0  0  0  0
   24.1760   29.5580   16.2270 H   0  0  0  0  0  0  0  0  0  0  0  0
   26.2340   31.6710   15.7970 N   0  0  0  0  0  0  0  0  0  0  0  0
   25.3570   31.6480   14.6760 C   0  0  0  0  0  0  0  0  0  0  0  0
   26.6320   32.6230   16.0350 H   0  0  0  0  0  0  0  0  0  0  0  0
   25.0210   32.8710   13.8880 C   0  0  0  0  0  0  0  0  0  0  0  0
   24.8660   30.5270   14.3650 O   0  0  0  0  0  0  0  0  0  0  0  0
   28.8480   30.2280   15.1320 O   0  0  0  0  0  0  0  0  0  0  0  0
   29.3320   30.5870   14.3460 H   0  0  0  0  0  0  0  0  0  0  0  0
   30.4610   31.5220   18.0030 O   0  0  0  0  0  0  0  0  0  0  0  0
   31.3280   31.3280   18.3970 H   0  0  0  0  0  0  0  0  0  0  0  0
   28.2570   34.5980   13.3510 C   0  0  0  0  0  0  0  0  0  0  0  0
   27.6980   35.2760   12.1350 C   0  0  0  0  0  0  0  0  0  0  0  0
   26.9890   34.6180   11.1430 C   0  0  0  0  0  0  0  0  0  0  0  0
   27.7480   36.5540   11.7600 N   0  0  0  0  0  0  0  0  0  0  0  0
   26.6370   35.5120   10.2100 N   0  0  0  0  0  0  0  0  0  0  0  0
   27.1100   36.6770   10.6090 N   0  0  0  0  0  0  0  0  0  0  0  0
   25.8870   35.3190    8.9770 C   0  0  0  0  0  0  0  0  0  0  0  0
   24.4380   35.6620    9.2000 C   0  0  0  0  0  0  0  0  0  0  0  0
   24.0970   37.0140    8.6250 C   0  0  0  0  0  0  0  0  0  0  0  0
   22.7940   37.0020    7.8680 C   0  0  0  0  0  0  0  0  0  0  0  0
   21.7740   36.2420    8.6250 C   0  0  0  0  0  0  0  0  0  0  0  0
   20.9400   35.4020    8.0530 C   0  0  0  0  0  0  0  0  0  0  0  0
   29.8670   25.5550   16.9770 C   0  0  0  0  0  0  0  0  0  0  0  0
   28.3450   25.7220   17.0260 C   0  0  0  0  0  0  0  0  0  0  0  0
   27.5990   24.4310   16.7240 C   0  0  0  0  0  0  0  0  0  0  0  0
   26.9290   23.8650   17.9450 C   0  0  0  0  0  0  0  0  0  0  0  0
   25.5830   23.2630   17.5540 C   0  0  0  0  0  0  0  0  0  0  0  0
   24.7100   24.2940   16.9460 N   0  0  0  0  0  0  0  0  0  0  0  0
  1 32  1  0  0  0  0
  1  2  1  0  0  0  0
  2  5  2  0  0  0  0
  2  3  1  0  0  0  0
  3  6  1  0  0  0  0
  4  3  1  0  0  0  0
  7  6  1  6  0  0  0
  7 30  1  0  0  0  0
  8 28  1  6  0  0  0
  8  7  1  0  0  0  0
  9  8  1  6  0  0  0
  9 12  1  0  0  0  0
 10 15  1  6  0  0  0
 10 11  1  0  0  0  0
 10 17  1  0  0  0  0
 12 10  1  0  0  0  0
 13 21  1  6  0  0  0
 13 11  1  0  0  0  0
 14 23  1  1  0  0  0
 14  9  1  0  0  0  0
 14 13  1  0  0  0  0
 15 16  1  0  0  0  0
 17 18  2  0  0  0  0
 19 17  1  0  0  0  0
 19 20  1  0  0  0  0
 22 21  1  0  0  0  0
 23 25  1  0  0  0  0
 24 23  1  0  0  0  0
 26 24  1  0  0  0  0
 27 24  2  0  0  0  0
 29 28  1  0  0  0  0
 30 31  1  0  0  0  0
 33 32  1  0  0  0  0
 34 33  2  0  0  0  0
 35 33  1  0  0  0  0
 36 37  1  0  0  0  0
 36 34  1  0  0  0  0
 37 35  2  0  0  0  0
 38 39  1  0  0  0  0
 38 36  1  0  0  0  0
 40 39  1  0  0  0  0
 41 40  1  0  0  0  0
 41 42  1  0  0  0  0
 43 42  2  0  0  0  0
 44 45  1  0  0  0  0
 46 45  1  0  0  0  0
 46 47  1  0  0  0  0
 48 47  1  0  0  0  0
 49 48  1  0  0  0  0
M  END
>  <REMARK>
 VINA RESULT:    -5.207      4.087      8.455
 INTER + INTRA:         -15.015
 INTER:                  -9.656
 INTRA:                  -5.359
 UNBOUND:                -4.785
 SMILES C=CCCCCn1cc(COC(=O)NC[C@@H](O)C(O)[C@@H]2O[C@@](O)(C(=O)O)C[C@H](O)[C@H]2NC(C)=O)nn1
 SMILES IDX 11 1 12 2 14 3 13 5 15 6 16 7 18 8 20 9 22 10 27 11 21 12
 SMILES IDX 28 13 30 14 23 15 24 17 25 18 26 19 29 21 31 23 32 24 33 26
 SMILES IDX 34 27 19 28 17 30 10 32 9 33 8 34 35 35 7 36 36 37 6 38 5 39
 SMILES IDX 4 40 3 41 2 42 1 43
 H PARENT 14 4 23 16 26 20 29 22 31 25 19 29 17 31
 Flexibility Score: inf
  4 active torsions:
  status: ('A' for Active; 'I' for Inactive)
    1  A    between atoms: CA   and  CB  
    2  A    between atoms: CB   and  CG  
    3  A    between atoms: CG   and  CD  
    4  A    between atoms: CD   and  CE  

>  <TORSDO>
F 19

>  <BEGIN_>
RES LYS A 131

$$$$
ligand_43_pose_1_2HRL.pdbqt
 OpenBabel07062320523D

  6  5  0  0  0  0  0  0  0  0999 V2000
   33.1930   34.6630    9.2900 C   0  0  0  0  0  0  0  0  0  0  0  0
   32.0600   35.3600   10.0340 C   0  0  0  0  0  0  0  0  0  0  0  0
   30.6970   34.8020    9.7150 C   0  0  0  0  0  0  0  0  0  0  0  0
   30.5900   34.4580    8.2380 C   0  0  0  0  0  0  0  0  0  0  0  0
   29.3520   35.0900    7.6320 C   0  0  0  0  0  0  0  0  0  0  0  0
   29.3160   36.5560    7.8920 N   0  0  0  0  0  0  0  0  0  0  0  0
  1  2  1  0  0  0  0
  3  2  1  0  0  0  0
  4  3  1  0  0  0  0
  5  6  1  0  0  0  0
  5  4  1  0  0  0  0
M  END
>  <EGIN_R>
ES LYS A 135

>  <REMARK>
  4 active torsions:
  status: ('A' for Active; 'I' for Inactive)
    5  A    between atoms: CA   and  CB  
    6  A    between atoms: CB   and  CG  
    7  A    between atoms: CG   and  CD  
    8  A    between atoms: CD   and  CE  

$$$$
