ligand_5_pose_15_2HRL.pdbqt
 OpenBabel07062320523D

 51 52  0  0  1  0  0  0  0  0999 V2000
   30.6320   31.8600   15.3330 N   0  0  0  0  0  0  0  0  0  0  0  0
   29.4210   31.5930   16.0080 C   0  0  0  0  0  0  0  0  0  0  0  0
   29.0560   32.2450   16.9980 O   0  0  0  0  0  0  0  0  0  0  0  0
   30.8340   31.2020   14.5130 H   0  0  0  0  0  0  0  0  0  0  0  0
   31.5880   32.8590   15.5920 C   0  0  0  0  0  0  0  0  0  0  0  0
   31.7250   33.9970   14.6860 C   0  0  2  0  0  0  0  0  0  0  0  0
   30.7850   34.1820   13.6020 C   0  0  1  0  0  0  0  0  0  0  0  0
   29.6420   35.1890   13.8530 C   0  0  2  0  0  0  0  0  0  0  0  0
   29.5890   37.0590   15.2880 C   0  0  2  0  0  0  0  0  0  0  0  0
   28.8100   36.2600   16.3450 C   0  0  0  0  0  0  0  0  0  0  0  0
   30.2910   36.1780   14.5700 O   0  0  0  0  0  0  0  0  0  0  0  0
   27.8250   35.4480   15.5960 C   0  0  1  0  0  0  0  0  0  0  0  0
   28.4440   34.6180   14.4560 C   0  0  1  0  0  0  0  0  0  0  0  0
   30.5470   37.7620   16.0690 O   0  0  0  0  0  0  0  0  0  0  0  0
   31.2610   37.1560   16.3830 H   0  0  0  0  0  0  0  0  0  0  0  0
   28.7860   38.0410   14.5870 C   0  0  0  0  0  0  0  0  0  0  0  0
   28.1160   38.8890   15.2280 O   0  0  0  0  0  0  0  0  0  0  0  0
   28.6690   38.1530   13.2010 O   0  0  0  0  0  0  0  0  0  0  0  0
   28.6670   39.0580   12.7230 H   0  0  0  0  0  0  0  0  0  0  0  0
   27.1140   34.5420   16.3980 O   0  0  0  0  0  0  0  0  0  0  0  0
   27.7360   34.3380   17.1650 H   0  0  0  0  0  0  0  0  0  0  0  0
   27.3140   34.3890   13.6090 N   0  0  0  0  0  0  0  0  0  0  0  0
   27.0110   35.0180   12.4020 C   0  0  0  0  0  0  0  0  0  0  0  0
   26.6360   33.6480   13.9590 H   0  0  0  0  0  0  0  0  0  0  0  0
   25.7800   34.6740   11.6250 C   0  0  0  0  0  0  0  0  0  0  0  0
   27.8030   35.8770   11.9970 O   0  0  0  0  0  0  0  0  0  0  0  0
   31.4590   34.4950   12.4260 O   0  0  0  0  0  0  0  0  0  0  0  0
   32.3630   34.8620   12.5970 H   0  0  0  0  0  0  0  0  0  0  0  0
   33.0830   34.1200   14.2760 O   0  0  0  0  0  0  0  0  0  0  0  0
   33.6710   34.1800   15.0740 H   0  0  0  0  0  0  0  0  0  0  0  0
   28.5620   30.5600   15.5810 O   0  0  0  0  0  0  0  0  0  0  0  0
   27.3310   30.3650   16.2320 C   0  0  0  0  0  0  0  0  0  0  0  0
   26.2460   30.9490   15.4290 C   0  0  0  0  0  0  0  0  0  0  0  0
   25.1740   30.2060   14.9220 C   0  0  0  0  0  0  0  0  0  0  0  0
   26.0240   32.1950   15.0200 N   0  0  0  0  0  0  0  0  0  0  0  0
   24.3660   31.0380   14.2390 N   0  0  0  0  0  0  0  0  0  0  0  0
   24.9210   32.2450   14.3240 N   0  0  0  0  0  0  0  0  0  0  0  0
   23.1620   30.7070   13.5620 C   0  0  0  0  0  0  0  0  0  0  0  0
   22.1310   31.6020   13.3830 C   0  0  0  0  0  0  0  0  0  0  0  0
   22.9760   29.4260   13.0370 C   0  0  0  0  0  0  0  0  0  0  0  0
   20.9610   31.2600   12.7160 C   0  0  0  0  0  0  0  0  0  0  0  0
   21.8120   29.0890   12.3740 C   0  0  0  0  0  0  0  0  0  0  0  0
   20.7920   29.9950   12.2030 C   0  0  0  0  0  0  0  0  0  0  0  0
   19.6440   29.6650   11.5500 O   0  0  0  0  0  0  0  0  0  0  0  0
   18.4280   29.5760   12.2620 C   0  0  0  0  0  0  0  0  0  0  0  0
   29.8670   25.5550   16.9770 C   0  0  0  0  0  0  0  0  0  0  0  0
   28.3450   25.7220   17.0260 C   0  0  0  0  0  0  0  0  0  0  0  0
   27.6020   24.4000   16.9130 C   0  0  0  0  0  0  0  0  0  0  0  0
   26.4280   24.3280   17.8490 C   0  0  0  0  0  0  0  0  0  0  0  0
   25.9850   25.7400   18.2200 C   0  0  0  0  0  0  0  0  0  0  0  0
   26.0010   25.9190   19.6910 N   0  0  0  0  0  0  0  0  0  0  0  0
  1  5  1  0  0  0  0
  1  2  1  0  0  0  0
  2  3  2  0  0  0  0
  4  1  1  0  0  0  0
  6  5  1  6  0  0  0
  7 27  1  6  0  0  0
  7  6  1  0  0  0  0
  8  7  1  1  0  0  0
  8 13  1  0  0  0  0
  8 11  1  0  0  0  0
  9 16  1  6  0  0  0
  9 14  1  0  0  0  0
  9 10  1  0  0  0  0
 11  9  1  0  0  0  0
 12 10  1  0  0  0  0
 12 20  1  1  0  0  0
 13 22  1  6  0  0  0
 13 12  1  0  0  0  0
 14 15  1  0  0  0  0
 16 17  2  0  0  0  0
 18 16  1  0  0  0  0
 19 18  1  0  0  0  0
 20 21  1  0  0  0  0
 22 24  1  0  0  0  0
 23 22  1  0  0  0  0
 25 23  1  0  0  0  0
 26 23  2  0  0  0  0
 27 28  1  0  0  0  0
 29  6  1  0  0  0  0
 29 30  1  0  0  0  0
 31  2  1  0  0  0  0
 31 32  1  0  0  0  0
 33 32  1  0  0  0  0
 34 33  2  0  0  0  0
 35 33  1  0  0  0  0
 36 37  1  0  0  0  0
 36 34  1  0  0  0  0
 37 35  2  0  0  0  0
 38 36  1  0  0  0  0
 39 38  1  0  0  0  0
 40 38  2  0  0  0  0
 41 39  2  0  0  0  0
 42 40  1  0  0  0  0
 43 42  2  0  0  0  0
 43 41  1  0  0  0  0
 44 43  1  0  0  0  0
 44 45  1  0  0  0  0
 46 47  1  0  0  0  0
 48 47  1  0  0  0  0
 48 49  1  0  0  0  0
 49 50  1  0  0  0  0
 50 51  1  0  0  0  0
M  END
>  <REMARK>
 VINA RESULT:    -4.847      6.139     10.162
 INTER + INTRA:         -13.899
 INTER:                  -8.603
 INTRA:                  -5.295
 UNBOUND:                -5.226
 SMILES COc1ccc(-n2cc(COC(=O)NC[C@@H](O)C(O)[C@@H]3O[C@@](O)(C(=O)O)C[C@H](O)[C@H]3NC(C)=O)nn2)cc1
 SMILES IDX 14 1 12 2 13 3 15 5 16 6 18 7 20 8 22 9 27 10 21 11 28 12
 SMILES IDX 30 13 23 14 24 16 25 17 26 18 29 20 31 22 32 23 33 25 34 26
 SMILES IDX 19 27 17 29 11 31 10 32 9 33 8 34 35 35 7 36 36 37 6 38 5 39
 SMILES IDX 37 40 4 41 38 42 3 43 2 44 1 45
 H PARENT 14 4 23 15 26 19 29 21 31 24 19 28 17 30
 Flexibility Score: inf
  4 active torsions:
  status: ('A' for Active; 'I' for Inactive)
    1  A    between atoms: CA   and  CB  
    2  A    between atoms: CB   and  CG  
    3  A    between atoms: CG   and  CD  
    4  A    between atoms: CD   and  CE  

>  <TORSDO>
F 16

>  <BEGIN_>
RES LYS A 131

$$$$
ligand_5_pose_15_2HRL.pdbqt
 OpenBabel07062320523D

  6  5  0  0  0  0  0  0  0  0999 V2000
   33.1930   34.6630    9.2900 C   0  0  0  0  0  0  0  0  0  0  0  0
   32.0600   35.3600   10.0340 C   0  0  0  0  0  0  0  0  0  0  0  0
   30.7920   35.4750    9.2290 C   0  0  0  0  0  0  0  0  0  0  0  0
   30.2290   34.0980    8.9140 C   0  0  0  0  0  0  0  0  0  0  0  0
   28.7210   34.0880    9.0800 C   0  0  0  0  0  0  0  0  0  0  0  0
   28.1210   35.3690    8.6130 N   0  0  0  0  0  0  0  0  0  0  0  0
  1  2  1  0  0  0  0
  3  2  1  0  0  0  0
  4  5  1  0  0  0  0
  4  3  1  0  0  0  0
  6  5  1  0  0  0  0
M  END
>  <EGIN_R>
ES LYS A 135

>  <REMARK>
  4 active torsions:
  status: ('A' for Active; 'I' for Inactive)
    5  A    between atoms: CA   and  CB  
    6  A    between atoms: CB   and  CG  
    7  A    between atoms: CG   and  CD  
    8  A    between atoms: CD   and  CE  

$$$$
