ligand_41_pose_15_2HRL.pdbqt
 OpenBabel07062320523D

 52 53  0  0  1  0  0  0  0  0999 V2000
   29.3460   29.4700   19.6230 N   0  0  0  0  0  0  0  0  0  0  0  0
   30.2190   30.5910   19.4060 C   0  0  0  0  0  0  0  0  0  0  0  0
   30.8260   31.0820   20.3880 O   0  0  0  0  0  0  0  0  0  0  0  0
   28.8670   29.0860   18.7840 H   0  0  0  0  0  0  0  0  0  0  0  0
   29.1700   28.9450   20.9450 C   0  0  0  0  0  0  0  0  0  0  0  0
   29.6090   27.5350   21.1670 C   0  0  2  0  0  0  0  0  0  0  0  0
   31.0970   27.3530   21.2290 C   0  0  2  0  0  0  0  0  0  0  0  0
   31.7760   28.1240   22.3300 C   0  0  2  0  0  0  0  0  0  0  0  0
   33.5300   29.5520   22.7960 C   0  0  2  0  0  0  0  0  0  0  0  0
   34.0940   28.6670   23.8920 C   0  0  0  0  0  0  0  0  0  0  0  0
   32.8580   28.8090   21.8950 O   0  0  0  0  0  0  0  0  0  0  0  0
   33.5720   27.2720   23.8120 C   0  0  1  0  0  0  0  0  0  0  0  0
   32.1310   27.1920   23.4680 C   0  0  1  0  0  0  0  0  0  0  0  0
   34.7020   30.1040   22.1740 O   0  0  0  0  0  0  0  0  0  0  0  0
   34.4430   30.4440   21.2630 H   0  0  0  0  0  0  0  0  0  0  0  0
   32.8460   30.7000   23.4000 C   0  0  0  0  0  0  0  0  0  0  0  0
   32.4580   30.7270   24.5900 O   0  0  0  0  0  0  0  0  0  0  0  0
   32.5860   31.8560   22.6590 O   0  0  0  0  0  0  0  0  0  0  0  0
   31.8270   31.8760   21.9880 H   0  0  0  0  0  0  0  0  0  0  0  0
   34.3060   26.5870   22.8290 O   0  0  0  0  0  0  0  0  0  0  0  0
   34.6210   27.1830   22.1070 H   0  0  0  0  0  0  0  0  0  0  0  0
   31.2990   27.3330   24.6200 N   0  0  0  0  0  0  0  0  0  0  0  0
   30.2230   26.4490   24.9120 C   0  0  0  0  0  0  0  0  0  0  0  0
   31.4780   28.1080   25.2850 H   0  0  0  0  0  0  0  0  0  0  0  0
   29.3870   26.6400   26.1260 C   0  0  0  0  0  0  0  0  0  0  0  0
   29.9470   25.4820   24.1570 O   0  0  0  0  0  0  0  0  0  0  0  0
   31.7250   27.3890   20.0100 O   0  0  0  0  0  0  0  0  0  0  0  0
   31.5750   26.4960   19.5770 H   0  0  0  0  0  0  0  0  0  0  0  0
   29.1950   26.8180   19.9700 O   0  0  0  0  0  0  0  0  0  0  0  0
   29.6450   27.3250   19.2420 H   0  0  0  0  0  0  0  0  0  0  0  0
   30.4210   31.1540   18.1690 O   0  0  0  0  0  0  0  0  0  0  0  0
   30.7290   32.5380   18.0150 C   0  0  0  0  0  0  0  0  0  0  0  0
   30.5830   32.9720   16.6030 C   0  0  0  0  0  0  0  0  0  0  0  0
   29.9240   34.0710   16.1180 C   0  0  0  0  0  0  0  0  0  0  0  0
   31.0900   32.3410   15.5090 N   0  0  0  0  0  0  0  0  0  0  0  0
   30.0500   34.0710   14.7500 N   0  0  0  0  0  0  0  0  0  0  0  0
   30.7620   33.0070   14.4330 N   0  0  0  0  0  0  0  0  0  0  0  0
   29.4980   34.9830   13.8170 C   0  0  0  0  0  0  0  0  0  0  0  0
   30.1800   35.9790   13.2060 C   0  0  0  0  0  0  0  0  0  0  0  0
   28.1290   34.7700   13.5420 C   0  0  0  0  0  0  0  0  0  0  0  0
   29.5060   36.7980   12.2950 C   0  0  0  0  0  0  0  0  0  0  0  0
   27.4800   35.5810   12.6450 C   0  0  0  0  0  0  0  0  0  0  0  0
   28.1850   36.5850   12.0350 C   0  0  0  0  0  0  0  0  0  0  0  0
   31.5770   36.2690   13.4380 C   0  0  2  0  0  0  0  0  0  0  0  0
   31.8390   37.1230   14.3790 O   0  0  0  0  0  0  0  0  0  0  0  0
   32.7390   35.7170   12.7400 C   0  0  0  0  0  0  0  0  0  0  0  0
   29.8670   25.5550   16.9770 C   0  0  0  0  0  0  0  0  0  0  0  0
   28.3450   25.7220   17.0260 C   0  0  0  0  0  0  0  0  0  0  0  0
   27.6010   24.4020   16.8910 C   0  0  0  0  0  0  0  0  0  0  0  0
   26.5790   24.2150   17.9780 C   0  0  0  0  0  0  0  0  0  0  0  0
   26.2360   25.5680   18.5930 C   0  0  0  0  0  0  0  0  0  0  0  0
   24.8510   25.9620   18.2400 N   0  0  0  0  0  0  0  0  0  0  0  0
  1  5  1  0  0  0  0
  2  1  1  0  0  0  0
  2  3  2  0  0  0  0
  4  1  1  0  0  0  0
  6  5  1  6  0  0  0
  6  7  1  0  0  0  0
  7 27  1  6  0  0  0
  8  7  1  6  0  0  0
  8 13  1  0  0  0  0
  9 14  1  6  0  0  0
  9 16  1  0  0  0  0
  9 10  1  0  0  0  0
 11  8  1  0  0  0  0
 11  9  1  0  0  0  0
 12 20  1  6  0  0  0
 12 10  1  0  0  0  0
 13 12  1  0  0  0  0
 13 22  1  1  0  0  0
 15 14  1  0  0  0  0
 16 17  2  0  0  0  0
 18 16  1  0  0  0  0
 19 18  1  0  0  0  0
 21 20  1  0  0  0  0
 22 23  1  0  0  0  0
 22 24  1  0  0  0  0
 23 25  1  0  0  0  0
 26 23  2  0  0  0  0
 28 27  1  0  0  0  0
 29  6  1  0  0  0  0
 30 29  1  0  0  0  0
 31  2  1  0  0  0  0
 32 31  1  0  0  0  0
 33 32  1  0  0  0  0
 34 33  2  0  0  0  0
 35 33  1  0  0  0  0
 36 34  1  0  0  0  0
 37 36  1  0  0  0  0
 37 35  2  0  0  0  0
 38 36  1  0  0  0  0
 39 44  1  0  0  0  0
 39 38  2  0  0  0  0
 40 38  1  0  0  0  0
 41 39  1  0  0  0  0
 42 40  2  0  0  0  0
 43 41  2  0  0  0  0
 43 42  1  0  0  0  0
 44 46  1  6  0  0  0
 44 45  1  0  0  0  0
 47 48  1  0  0  0  0
 49 48  1  0  0  0  0
 49 50  1  0  0  0  0
 50 51  1  0  0  0  0
 52 51  1  0  0  0  0
M  END
>  <REMARK>
 VINA RESULT:    -4.319      4.957      8.399
 INTER + INTRA:         -14.532
 INTER:                  -9.429
 INTRA:                  -5.103
 UNBOUND:                -6.804
 SMILES CC(=O)N[C@@H]1[C@@H](O)C[C@](O)(C(=O)O)O[C@H]1C(O)[C@H](O)CNC(=O)OCc1cn(-c2ccccc2C(C)=O)nn1
 SMILES IDX 21 1 22 2 23 3 20 5 18 6 16 7 15 8 9 9 8 10 14 11 6 12 5 13
 SMILES IDX 10 14 11 16 12 17 13 18 7 20 4 22 2 23 1 25 3 26 17 27 19 29
 SMILES IDX 24 31 25 32 26 33 27 34 39 35 28 36 38 37 29 38 34 39 30 40
 SMILES IDX 33 41 31 42 32 43 35 44 37 45 36 46
 H PARENT 21 4 10 15 13 19 7 21 4 24 17 28 19 30
 Flexibility Score: inf
  4 active torsions:
  status: ('A' for Active; 'I' for Inactive)
    1  A    between atoms: CA   and  CB  
    2  A    between atoms: CB   and  CG  
    3  A    between atoms: CG   and  CD  
    4  A    between atoms: CD   and  CE  

>  <TORSDO>
F 16

>  <BEGIN_>
RES LYS A 131

$$$$
ligand_41_pose_15_2HRL.pdbqt
 OpenBabel07062320523D

  6  5  0  0  0  0  0  0  0  0999 V2000
   33.1930   34.6630    9.2900 C   0  0  0  0  0  0  0  0  0  0  0  0
   32.0600   35.3600   10.0340 C   0  0  0  0  0  0  0  0  0  0  0  0
   30.7850   35.4560    9.2370 C   0  0  0  0  0  0  0  0  0  0  0  0
   29.8920   34.2550    9.5050 C   0  0  0  0  0  0  0  0  0  0  0  0
   28.5570   34.4160    8.8040 C   0  0  0  0  0  0  0  0  0  0  0  0
   27.4740   33.7100    9.5440 N   0  0  0  0  0  0  0  0  0  0  0  0
  1  2  1  0  0  0  0
  3  4  1  0  0  0  0
  3  2  1  0  0  0  0
  5  4  1  0  0  0  0
  5  6  1  0  0  0  0
M  END
>  <EGIN_R>
ES LYS A 135

>  <REMARK>
  4 active torsions:
  status: ('A' for Active; 'I' for Inactive)
    5  A    between atoms: CA   and  CB  
    6  A    between atoms: CB   and  CG  
    7  A    between atoms: CG   and  CD  
    8  A    between atoms: CD   and  CE  

$$$$
