ligand_67_pose_10_2HRL.pdbqt
 OpenBabel07062320523D

 50 51  0  0  1  0  0  0  0  0999 V2000
   29.6160   39.6120    6.5340 N   0  0  0  0  0  0  0  0  0  0  0  0
   30.9940   39.9300    6.5910 C   0  0  0  0  0  0  0  0  0  0  0  0
   31.6850   39.8930    5.5160 O   0  0  0  0  0  0  0  0  0  0  0  0
   29.0480   39.6390    7.3970 H   0  0  0  0  0  0  0  0  0  0  0  0
   29.0240   39.2580    5.2870 C   0  0  0  0  0  0  0  0  0  0  0  0
   28.4040   37.8870    5.2780 C   0  0  2  0  0  0  0  0  0  0  0  0
   27.1340   37.8110    6.0700 C   0  0  1  0  0  0  0  0  0  0  0  0
   27.3970   37.2170    7.4370 C   0  0  2  0  0  0  0  0  0  0  0  0
   27.1770   35.2010    8.5760 C   0  0  2  0  0  0  0  0  0  0  0  0
   26.7140   35.9740    9.7770 C   0  0  0  0  0  0  0  0  0  0  0  0
   27.0960   35.8810    7.3890 O   0  0  0  0  0  0  0  0  0  0  0  0
   25.7470   37.0350    9.2920 C   0  0  1  0  0  0  0  0  0  0  0  0
   26.5500   37.9990    8.4300 C   0  0  1  0  0  0  0  0  0  0  0  0
   26.3260   34.0780    8.4560 O   0  0  0  0  0  0  0  0  0  0  0  0
   26.8310   33.2490    8.3490 H   0  0  0  0  0  0  0  0  0  0  0  0
   28.5380   34.6310    8.8250 C   0  0  0  0  0  0  0  0  0  0  0  0
   29.3940   34.4480    7.9320 O   0  0  0  0  0  0  0  0  0  0  0  0
   28.8500   34.2900   10.1340 O   0  0  0  0  0  0  0  0  0  0  0  0
   29.5330   34.7820   10.7020 H   0  0  0  0  0  0  0  0  0  0  0  0
   24.7840   36.4150    8.4820 O   0  0  0  0  0  0  0  0  0  0  0  0
   24.5050   36.9900    7.7310 H   0  0  0  0  0  0  0  0  0  0  0  0
   27.3760   38.8110    9.3090 N   0  0  0  0  0  0  0  0  0  0  0  0
   27.2780   40.2240    9.2390 C   0  0  0  0  0  0  0  0  0  0  0  0
   28.0470   38.3610    9.9970 H   0  0  0  0  0  0  0  0  0  0  0  0
   28.0790   41.1380   10.0920 C   0  0  0  0  0  0  0  0  0  0  0  0
   26.4650   40.7190    8.4060 O   0  0  0  0  0  0  0  0  0  0  0  0
   26.5070   39.0550    6.1400 O   0  0  0  0  0  0  0  0  0  0  0  0
   25.6290   39.0810    5.7030 H   0  0  0  0  0  0  0  0  0  0  0  0
   29.3210   36.9740    5.7780 O   0  0  0  0  0  0  0  0  0  0  0  0
   30.1560   36.9360    5.2760 H   0  0  0  0  0  0  0  0  0  0  0  0
   31.6620   40.2810    7.7290 O   0  0  0  0  0  0  0  0  0  0  0  0
   32.2800   39.3930    8.6410 C   0  0  0  0  0  0  0  0  0  0  0  0
   31.3070   38.7630    9.5630 C   0  0  0  0  0  0  0  0  0  0  0  0
   31.1330   39.0520   10.8960 C   0  0  0  0  0  0  0  0  0  0  0  0
   30.4200   37.7960    9.2760 N   0  0  0  0  0  0  0  0  0  0  0  0
   30.1520   38.2580   11.3780 N   0  0  0  0  0  0  0  0  0  0  0  0
   29.7390   37.5070   10.3740 N   0  0  0  0  0  0  0  0  0  0  0  0
   29.6100   38.2010   12.7290 C   0  0  0  0  0  0  0  0  0  0  0  0
   28.2920   37.4560   12.7410 C   0  0  0  0  0  0  0  0  0  0  0  0
   28.3580   36.2500   13.6150 C   0  0  0  0  0  0  0  0  0  0  0  0
   29.2810   36.3460   14.6490 O   0  0  0  0  0  0  0  0  0  0  0  0
   28.6380   35.0710   12.9400 O   0  0  0  0  0  0  0  0  0  0  0  0
   29.5900   35.0400   15.0210 C   0  0  0  0  0  0  0  0  0  0  0  0
   29.2300   34.2040   13.8270 C   0  0  0  0  0  0  0  0  0  0  0  0
   29.8670   25.5550   16.9770 C   0  0  0  0  0  0  0  0  0  0  0  0
   28.3450   25.7220   17.0260 C   0  0  0  0  0  0  0  0  0  0  0  0
   27.5990   24.4650   16.6050 C   0  0  0  0  0  0  0  0  0  0  0  0
   27.0410   23.7160   17.7830 C   0  0  0  0  0  0  0  0  0  0  0  0
   25.6990   24.3210   18.1820 C   0  0  0  0  0  0  0  0  0  0  0  0
   24.7690   24.3280   17.0290 N   0  0  0  0  0  0  0  0  0  0  0  0
  1  2  1  0  0  0  0
  1  4  1  0  0  0  0
  2 31  1  0  0  0  0
  3  2  2  0  0  0  0
  5  1  1  0  0  0  0
  6  5  1  1  0  0  0
  6 29  1  0  0  0  0
  6  7  1  0  0  0  0
  7 27  1  1  0  0  0
  8  7  1  6  0  0  0
  8 13  1  0  0  0  0
  9 14  1  6  0  0  0
  9 16  1  0  0  0  0
  9 10  1  0  0  0  0
 11  8  1  0  0  0  0
 11  9  1  0  0  0  0
 12 20  1  6  0  0  0
 12 10  1  0  0  0  0
 13 12  1  0  0  0  0
 13 22  1  1  0  0  0
 15 14  1  0  0  0  0
 16 18  1  0  0  0  0
 17 16  2  0  0  0  0
 18 19  1  0  0  0  0
 21 20  1  0  0  0  0
 22 24  1  0  0  0  0
 23 22  1  0  0  0  0
 23 25  1  0  0  0  0
 26 23  2  0  0  0  0
 28 27  1  0  0  0  0
 30 29  1  0  0  0  0
 31 32  1  0  0  0  0
 32 33  1  0  0  0  0
 33 34  2  0  0  0  0
 34 36  1  0  0  0  0
 35 33  1  0  0  0  0
 35 37  2  0  0  0  0
 36 38  1  0  0  0  0
 37 36  1  0  0  0  0
 38 39  1  0  0  0  0
 39 40  1  0  0  0  0
 40 41  1  0  0  0  0
 41 43  1  0  0  0  0
 42 40  1  0  0  0  0
 42 44  1  0  0  0  0
 44 43  1  0  0  0  0
 45 46  1  0  0  0  0
 47 46  1  0  0  0  0
 47 48  1  0  0  0  0
 48 49  1  0  0  0  0
 50 49  1  0  0  0  0
M  END
>  <REMARK>
 VINA RESULT:    -4.315      3.675      8.850
 INTER + INTRA:         -14.265
 INTER:                  -7.842
 INTRA:                  -6.423
 UNBOUND:                -6.292
 SMILES CC(=O)N[C@@H]1[C@@H](O)C[C@](O)(C(=O)O)O[C@H]1C(O)[C@H](O)CNC(=O)OCc1cn(CCC2OCCO2)nn1
 SMILES IDX 21 1 22 2 23 3 20 5 18 6 16 7 15 8 9 9 8 10 14 11 6 12 5 13
 SMILES IDX 10 14 11 16 12 17 13 18 7 20 4 22 2 23 1 25 3 26 17 27 19 29
 SMILES IDX 24 31 25 32 26 33 27 34 37 35 28 36 36 37 29 38 30 39 31 40
 SMILES IDX 32 41 35 42 33 43 34 44
 H PARENT 21 4 10 15 13 19 7 21 4 24 17 28 19 30
 Flexibility Score: inf
  4 active torsions:
  status: ('A' for Active; 'I' for Inactive)
    1  A    between atoms: CA   and  CB  
    2  A    between atoms: CB   and  CG  
    3  A    between atoms: CG   and  CD  
    4  A    between atoms: CD   and  CE  

>  <TORSDO>
F 17

>  <BEGIN_>
RES LYS A 131

$$$$
ligand_67_pose_10_2HRL.pdbqt
 OpenBabel07062320523D

  6  5  0  0  0  0  0  0  0  0999 V2000
   33.1930   34.6630    9.2900 C   0  0  0  0  0  0  0  0  0  0  0  0
   32.0600   35.3600   10.0340 C   0  0  0  0  0  0  0  0  0  0  0  0
   31.9300   34.9310   11.4730 C   0  0  0  0  0  0  0  0  0  0  0  0
   32.6180   35.9270   12.3940 C   0  0  0  0  0  0  0  0  0  0  0  0
   32.9510   35.2800   13.7240 C   0  0  0  0  0  0  0  0  0  0  0  0
   34.2280   34.5180   13.6450 N   0  0  0  0  0  0  0  0  0  0  0  0
  1  2  1  0  0  0  0
  2  3  1  0  0  0  0
  3  4  1  0  0  0  0
  4  5  1  0  0  0  0
  6  5  1  0  0  0  0
M  END
>  <EGIN_R>
ES LYS A 135

>  <REMARK>
  4 active torsions:
  status: ('A' for Active; 'I' for Inactive)
    5  A    between atoms: CA   and  CB  
    6  A    between atoms: CB   and  CG  
    7  A    between atoms: CG   and  CD  
    8  A    between atoms: CD   and  CE  

$$$$
