ligand_47_pose_2_2HRL.pdbqt
 OpenBabel07062320523D

 62 64  0  0  1  0  0  0  0  0999 V2000
   25.5310   30.9690   16.4780 N   0  0  0  0  0  0  0  0  0  0  0  0
   24.9510   31.5260   15.3080 C   0  0  0  0  0  0  0  0  0  0  0  0
   25.0760   30.9270   14.2000 O   0  0  0  0  0  0  0  0  0  0  0  0
   25.3810   31.5330   17.3650 H   0  0  0  0  0  0  0  0  0  0  0  0
   26.2710   29.7300   16.4870 C   0  0  0  0  0  0  0  0  0  0  0  0
   27.7330   29.9250   16.8930 C   0  0  2  0  0  0  0  0  0  0  0  0
   27.7120   30.4900   18.2800 C   0  0  2  0  0  0  0  0  0  0  0  0
   29.0160   30.3360   19.0090 C   0  0  2  0  0  0  0  0  0  0  0  0
   29.9480   29.0920   20.7290 C   0  0  2  0  0  0  0  0  0  0  0  0
   31.1560   29.9770   20.5630 C   0  0  0  0  0  0  0  0  0  0  0  0
   29.0370   29.1630   19.7110 O   0  0  0  0  0  0  0  0  0  0  0  0
   30.8130   31.3930   20.2520 C   0  0  1  0  0  0  0  0  0  0  0  0
   29.3220   31.4910   19.9340 C   0  0  1  0  0  0  0  0  0  0  0  0
   29.3570   29.4070   21.9570 O   0  0  0  0  0  0  0  0  0  0  0  0
   29.1850   28.5840   22.4910 H   0  0  0  0  0  0  0  0  0  0  0  0
   30.4410   27.6950   20.8090 C   0  0  0  0  0  0  0  0  0  0  0  0
   31.6760   27.4770   20.7690 O   0  0  0  0  0  0  0  0  0  0  0  0
   29.5800   26.6250   20.9270 O   0  0  0  0  0  0  0  0  0  0  0  0
   29.6610   25.9930   21.7350 H   0  0  0  0  0  0  0  0  0  0  0  0
   31.2110   32.3100   21.1920 O   0  0  0  0  0  0  0  0  0  0  0  0
   31.4130   31.8680   22.0570 H   0  0  0  0  0  0  0  0  0  0  0  0
   29.0370   32.7670   19.2930 N   0  0  0  0  0  0  0  0  0  0  0  0
   28.5690   33.8360   20.0940 C   0  0  0  0  0  0  0  0  0  0  0  0
   29.1840   32.8620   18.2760 H   0  0  0  0  0  0  0  0  0  0  0  0
   28.2650   35.1540   19.4970 C   0  0  0  0  0  0  0  0  0  0  0  0
   28.4040   33.6810   21.3290 O   0  0  0  0  0  0  0  0  0  0  0  0
   26.6250   30.0110   18.9820 O   0  0  0  0  0  0  0  0  0  0  0  0
   26.3080   29.1230   18.6510 H   0  0  0  0  0  0  0  0  0  0  0  0
   28.2640   30.8530   15.9790 O   0  0  0  0  0  0  0  0  0  0  0  0
   27.5180   31.0110   15.3270 H   0  0  0  0  0  0  0  0  0  0  0  0
   24.2500   32.7140   15.3500 O   0  0  0  0  0  0  0  0  0  0  0  0
   24.8480   33.9510   14.9430 C   0  0  0  0  0  0  0  0  0  0  0  0
   26.2970   33.9570   15.2460 C   0  0  0  0  0  0  0  0  0  0  0  0
   27.3190   34.1590   14.3060 C   0  0  0  0  0  0  0  0  0  0  0  0
   26.9440   33.7830   16.4030 N   0  0  0  0  0  0  0  0  0  0  0  0
   28.5090   34.1050   14.9030 N   0  0  0  0  0  0  0  0  0  0  0  0
   28.2490   33.8700   16.2100 N   0  0  0  0  0  0  0  0  0  0  0  0
   29.8560   34.2600   14.4350 C   0  0  0  0  0  0  0  0  0  0  0  0
   30.9370   34.1440   15.4570 C   0  0  1  0  0  0  0  0  0  0  0  0
   31.1600   32.7500   15.8440 C   0  0  0  0  0  0  0  0  0  0  0  0
   30.9790   32.2670   16.9760 O   0  0  0  0  0  0  0  0  0  0  0  0
   31.6240   31.8300   14.8800 O   0  0  0  0  0  0  0  0  0  0  0  0
   31.0080   31.0630   14.5980 H   0  0  0  0  0  0  0  0  0  0  0  0
   32.2170   34.8280   15.0100 C   0  0  0  0  0  0  0  0  0  0  0  0
   32.9880   35.3470   16.1640 C   0  0  0  0  0  0  0  0  0  0  0  0
   32.4170   35.4430   17.4380 C   0  0  0  0  0  0  0  0  0  0  0  0
   34.3020   35.7580   16.0430 C   0  0  0  0  0  0  0  0  0  0  0  0
   33.1330   35.9240   18.5120 C   0  0  0  0  0  0  0  0  0  0  0  0
   35.0290   36.2390   17.1010 C   0  0  0  0  0  0  0  0  0  0  0  0
   34.4590   36.3290   18.3450 C   0  0  0  0  0  0  0  0  0  0  0  0
   32.0020   35.9230   14.0580 C   0  0  0  0  0  0  0  0  0  0  0  0
   32.5550   35.7860   12.7780 C   0  0  0  0  0  0  0  0  0  0  0  0
   31.2930   37.0670   14.3490 C   0  0  0  0  0  0  0  0  0  0  0  0
   32.3740   36.7900   11.8560 C   0  0  0  0  0  0  0  0  0  0  0  0
   31.1110   38.0740   13.4280 C   0  0  0  0  0  0  0  0  0  0  0  0
   31.6560   37.9470   12.1550 C   0  0  0  0  0  0  0  0  0  0  0  0
   29.8670   25.5550   16.9770 C   0  0  0  0  0  0  0  0  0  0  0  0
   28.3450   25.7220   17.0260 C   0  0  0  0  0  0  0  0  0  0  0  0
   27.6010   24.4020   16.8920 C   0  0  0  0  0  0  0  0  0  0  0  0
   26.2440   24.4490   17.5370 C   0  0  0  0  0  0  0  0  0  0  0  0
   26.0600   25.7900   18.2390 C   0  0  0  0  0  0  0  0  0  0  0  0
   24.8520   26.4820   17.7290 N   0  0  0  0  0  0  0  0  0  0  0  0
  1  5  1  0  0  0  0
  1  4  1  0  0  0  0
  2 31  1  0  0  0  0
  2  1  1  0  0  0  0
  3  2  2  0  0  0  0
  6  5  1  6  0  0  0
  6  7  1  0  0  0  0
  7 27  1  1  0  0  0
  8  7  1  1  0  0  0
  8 11  1  0  0  0  0
  8 13  1  0  0  0  0
  9 16  1  1  0  0  0
  9 14  1  0  0  0  0
 10  9  1  0  0  0  0
 11  9  1  0  0  0  0
 12 10  1  0  0  0  0
 12 20  1  1  0  0  0
 13 22  1  6  0  0  0
 13 12  1  0  0  0  0
 14 15  1  0  0  0  0
 16 18  1  0  0  0  0
 17 16  2  0  0  0  0
 18 19  1  0  0  0  0
 20 21  1  0  0  0  0
 22 23  1  0  0  0  0
 23 26  2  0  0  0  0
 24 22  1  0  0  0  0
 25 23  1  0  0  0  0
 28 27  1  0  0  0  0
 29  6  1  0  0  0  0
 30 29  1  0  0  0  0
 32 33  1  0  0  0  0
 32 31  1  0  0  0  0
 33 35  1  0  0  0  0
 34 36  1  0  0  0  0
 34 33  2  0  0  0  0
 36 37  1  0  0  0  0
 37 35  2  0  0  0  0
 38 36  1  0  0  0  0
 39 38  1  6  0  0  0
 39 40  1  0  0  0  0
 40 41  2  0  0  0  0
 42 40  1  0  0  0  0
 43 42  1  0  0  0  0
 44 39  1  0  0  0  0
 44 45  1  0  0  0  0
 45 46  1  0  0  0  0
 46 48  2  0  0  0  0
 47 45  2  0  0  0  0
 47 49  1  0  0  0  0
 49 50  2  0  0  0  0
 50 48  1  0  0  0  0
 51 53  1  0  0  0  0
 51 44  1  0  0  0  0
 52 51  2  0  0  0  0
 54 56  2  0  0  0  0
 54 52  1  0  0  0  0
 55 53  2  0  0  0  0
 56 55  1  0  0  0  0
 57 58  1  0  0  0  0
 59 58  1  0  0  0  0
 59 60  1  0  0  0  0
 60 61  1  0  0  0  0
 62 61  1  0  0  0  0
M  END
>  <REMARK>
 VINA RESULT:    -5.723      2.474      6.601
 INTER + INTRA:         -18.044
 INTER:                 -10.852
 INTRA:                  -7.192
 UNBOUND:                -6.299
 SMILES CC(=O)N[C@@H]1[C@@H](O)C[C@](O)(C(=O)O)O[C@H]1C(O)[C@H](O)CNC(=O)OCc1cn(C[C@@H](C(=O)O)C(c2ccccc2)c2ccccc2)nn1
 SMILES IDX 21 1 22 2 23 3 20 5 18 6 16 7 15 8 9 9 8 10 14 11 6 12 5 13
 SMILES IDX 10 14 11 16 12 17 13 18 7 20 4 22 2 23 1 25 3 26 17 27 19 29
 SMILES IDX 24 31 25 32 26 33 27 34 48 35 28 36 47 37 29 38 30 39 31 40
 SMILES IDX 32 41 33 42 34 44 35 45 36 46 40 47 37 48 39 49 38 50 41 51
 SMILES IDX 42 52 46 53 43 54 45 55 44 56
 H PARENT 21 4 10 15 13 19 7 21 4 24 17 28 19 30 33 43
 Flexibility Score: inf
  4 active torsions:
  status: ('A' for Active; 'I' for Inactive)
    1  A    between atoms: CA   and  CB  
    2  A    between atoms: CB   and  CG  
    3  A    between atoms: CG   and  CD  
    4  A    between atoms: CD   and  CE  

>  <TORSDO>
F 21

>  <BEGIN_>
RES LYS A 131

$$$$
ligand_47_pose_2_2HRL.pdbqt
 OpenBabel07062320523D

  6  5  0  0  0  0  0  0  0  0999 V2000
   33.1930   34.6630    9.2900 C   0  0  0  0  0  0  0  0  0  0  0  0
   32.0600   35.3600   10.0340 C   0  0  0  0  0  0  0  0  0  0  0  0
   30.6960   34.8110    9.7050 C   0  0  0  0  0  0  0  0  0  0  0  0
   30.3700   35.0300    8.2350 C   0  0  0  0  0  0  0  0  0  0  0  0
   28.8910   34.8110    7.9800 C   0  0  0  0  0  0  0  0  0  0  0  0
   28.4600   35.4780    6.7200 N   0  0  0  0  0  0  0  0  0  0  0  0
  1  2  1  0  0  0  0
  3  2  1  0  0  0  0
  4  3  1  0  0  0  0
  5  4  1  0  0  0  0
  6  5  1  0  0  0  0
M  END
>  <EGIN_R>
ES LYS A 135

>  <REMARK>
  4 active torsions:
  status: ('A' for Active; 'I' for Inactive)
    5  A    between atoms: CA   and  CB  
    6  A    between atoms: CB   and  CG  
    7  A    between atoms: CG   and  CD  
    8  A    between atoms: CD   and  CE  

$$$$
