ligand_49_pose_1_2HRL.pdbqt
 OpenBabel07062320523D

 48 49  0  0  1  0  0  0  0  0999 V2000
   24.6530   40.8110   10.7270 C   0  0  0  0  0  0  0  0  0  0  0  0
   23.4840   40.1020   10.1030 C   0  0  2  0  0  0  0  0  0  0  0  0
   23.1910   38.9040   10.9860 C   0  0  1  0  0  0  0  0  0  0  0  0
   23.4110   37.6040   10.2800 C   0  0  2  0  0  0  0  0  0  0  0  0
   22.2690   36.0180    9.0330 C   0  0  2  0  0  0  0  0  0  0  0  0
   23.6480   35.3780    9.0660 C   0  0  0  0  0  0  0  0  0  0  0  0
   22.2090   36.9770   10.0470 O   0  0  0  0  0  0  0  0  0  0  0  0
   24.0490   35.2710   10.5230 C   0  0  1  0  0  0  0  0  0  0  0  0
   24.3690   36.6860   10.9870 C   0  0  1  0  0  0  0  0  0  0  0  0
   21.3530   34.9990    9.2610 O   0  0  0  0  0  0  0  0  0  0  0  0
   21.8820   34.1480    9.3620 H   0  0  0  0  0  0  0  0  0  0  0  0
   21.9790   36.6380    7.7350 C   0  0  0  0  0  0  0  0  0  0  0  0
   22.8290   37.3460    7.1400 O   0  0  0  0  0  0  0  0  0  0  0  0
   20.7490   36.4590    7.1240 O   0  0  0  0  0  0  0  0  0  0  0  0
   20.5210   36.8780    6.2130 H   0  0  0  0  0  0  0  0  0  0  0  0
   22.9260   34.7930   11.2190 O   0  0  0  0  0  0  0  0  0  0  0  0
   22.5080   35.5760   11.6640 H   0  0  0  0  0  0  0  0  0  0  0  0
   25.7500   36.9800   10.6620 N   0  0  0  0  0  0  0  0  0  0  0  0
   26.7200   37.1230   11.6790 C   0  0  0  0  0  0  0  0  0  0  0  0
   26.0390   37.0870    9.6740 H   0  0  0  0  0  0  0  0  0  0  0  0
   28.1490   37.4230   11.4180 C   0  0  0  0  0  0  0  0  0  0  0  0
   26.3530   36.9900   12.8680 O   0  0  0  0  0  0  0  0  0  0  0  0
   24.0890   38.9700   12.0530 O   0  0  0  0  0  0  0  0  0  0  0  0
   24.3730   38.0940   12.3820 H   0  0  0  0  0  0  0  0  0  0  0  0
   23.7550   39.6820    8.8220 O   0  0  0  0  0  0  0  0  0  0  0  0
   24.6810   39.9530    8.5770 H   0  0  0  0  0  0  0  0  0  0  0  0
   25.9450   40.3890   10.2880 N   0  0  0  0  0  0  0  0  0  0  0  0
   26.8590   41.1530    9.5540 C   0  0  0  0  0  0  0  0  0  0  0  0
   26.2300   39.3930   10.5520 H   0  0  0  0  0  0  0  0  0  0  0  0
   26.5710   42.3230    9.2130 O   0  0  0  0  0  0  0  0  0  0  0  0
   28.1080   40.6150    9.1930 O   0  0  0  0  0  0  0  0  0  0  0  0
   28.2480   40.1320    7.8690 C   0  0  0  0  0  0  0  0  0  0  0  0
   27.6720   38.7710    7.8080 C   0  0  0  0  0  0  0  0  0  0  0  0
   28.4340   37.6170    7.6910 C   0  0  0  0  0  0  0  0  0  0  0  0
   26.4070   38.3700    7.8460 N   0  0  0  0  0  0  0  0  0  0  0  0
   27.5980   36.5800    7.6650 N   0  0  0  0  0  0  0  0  0  0  0  0
   26.3690   37.0500    7.7590 N   0  0  0  0  0  0  0  0  0  0  0  0
   28.0330   35.1920    7.5490 C   0  0  0  0  0  0  0  0  0  0  0  0
   29.4250   35.1040    8.1060 C   0  0  0  0  0  0  0  0  0  0  0  0
   27.1480   34.3290    8.4200 C   0  0  0  0  0  0  0  0  0  0  0  0
   29.3910   34.0740    9.1890 C   0  0  0  0  0  0  0  0  0  0  0  0
   27.9680   34.1070    9.6790 C   0  0  0  0  0  0  0  0  0  0  0  0
   29.8670   25.5550   16.9770 C   0  0  0  0  0  0  0  0  0  0  0  0
   28.3450   25.7220   17.0260 C   0  0  0  0  0  0  0  0  0  0  0  0
   27.6010   24.4020   16.8900 C   0  0  0  0  0  0  0  0  0  0  0  0
   26.1490   24.5300   17.2600 C   0  0  0  0  0  0  0  0  0  0  0  0
   26.0070   24.5180   18.7780 C   0  0  0  0  0  0  0  0  0  0  0  0
   25.5360   23.1920   19.2450 N   0  0  0  0  0  0  0  0  0  0  0  0
  2  1  1  1  0  0  0
  2  3  1  0  0  0  0
  3 23  1  1  0  0  0
  4  3  1  1  0  0  0
  4  9  1  0  0  0  0
  5 12  1  6  0  0  0
  5  6  1  0  0  0  0
  5 10  1  0  0  0  0
  5  7  1  0  0  0  0
  6  8  1  0  0  0  0
  7  4  1  0  0  0  0
  8  9  1  0  0  0  0
  8 16  1  1  0  0  0
  9 18  1  6  0  0  0
 10 11  1  0  0  0  0
 13 12  2  0  0  0  0
 14 12  1  0  0  0  0
 15 14  1  0  0  0  0
 16 17  1  0  0  0  0
 18 19  1  0  0  0  0
 19 22  2  0  0  0  0
 20 18  1  0  0  0  0
 21 19  1  0  0  0  0
 23 24  1  0  0  0  0
 25  2  1  0  0  0  0
 26 25  1  0  0  0  0
 27 29  1  0  0  0  0
 27  1  1  0  0  0  0
 28 27  1  0  0  0  0
 30 28  2  0  0  0  0
 31 28  1  0  0  0  0
 32 31  1  0  0  0  0
 33 35  1  0  0  0  0
 33 32  1  0  0  0  0
 34 33  2  0  0  0  0
 36 34  1  0  0  0  0
 36 37  1  0  0  0  0
 37 35  2  0  0  0  0
 38 36  1  0  0  0  0
 38 39  1  0  0  0  0
 38 40  1  0  0  0  0
 39 41  1  0  0  0  0
 40 42  1  0  0  0  0
 41 42  1  0  0  0  0
 43 44  1  0  0  0  0
 45 44  1  0  0  0  0
 45 46  1  0  0  0  0
 46 47  1  0  0  0  0
 47 48  1  0  0  0  0
M  END
>  <REMARK>
 VINA RESULT:    -5.487      5.821      9.841
 INTER + INTRA:         -14.523
 INTER:                  -8.313
 INTRA:                  -6.210
 UNBOUND:                -5.026
 SMILES CC(=O)N[C@@H]1[C@@H](O)C[C@](O)(C(=O)O)O[C@H]1C(O)[C@H](O)CNC(=O)OCc1cn(C2CCCC2)nn1
 SMILES IDX 20 1 18 2 16 3 15 4 9 5 8 6 14 7 6 8 5 9 10 10 11 12 12 13
 SMILES IDX 13 14 7 16 4 18 2 19 1 21 3 22 17 23 19 25 21 27 22 28 23 30
 SMILES IDX 24 31 25 32 26 33 27 34 35 35 28 36 34 37 29 38 30 39 33 40
 SMILES IDX 31 41 32 42
 H PARENT 10 11 13 15 7 17 4 20 17 24 19 26 21 29
 Flexibility Score: inf
  4 active torsions:
  status: ('A' for Active; 'I' for Inactive)
    1  A    between atoms: CA   and  CB  
    2  A    between atoms: CB   and  CG  
    3  A    between atoms: CG   and  CD  
    4  A    between atoms: CD   and  CE  

>  <TORSDO>
F 15

>  <BEGIN_>
RES LYS A 131

$$$$
ligand_49_pose_1_2HRL.pdbqt
 OpenBabel07062320523D

  6  5  0  0  0  0  0  0  0  0999 V2000
   33.1930   34.6630    9.2900 C   0  0  0  0  0  0  0  0  0  0  0  0
   32.0600   35.3600   10.0340 C   0  0  0  0  0  0  0  0  0  0  0  0
   32.5060   36.0590   11.2930 C   0  0  0  0  0  0  0  0  0  0  0  0
   31.9090   37.4550   11.3710 C   0  0  0  0  0  0  0  0  0  0  0  0
   31.5020   37.9390    9.9930 C   0  0  0  0  0  0  0  0  0  0  0  0
   31.2280   39.4030    9.9970 N   0  0  0  0  0  0  0  0  0  0  0  0
  1  2  1  0  0  0  0
  2  3  1  0  0  0  0
  3  4  1  0  0  0  0
  5  6  1  0  0  0  0
  5  4  1  0  0  0  0
M  END
>  <EGIN_R>
ES LYS A 135

>  <REMARK>
  4 active torsions:
  status: ('A' for Active; 'I' for Inactive)
    5  A    between atoms: CA   and  CB  
    6  A    between atoms: CB   and  CG  
    7  A    between atoms: CG   and  CD  
    8  A    between atoms: CD   and  CE  

$$$$
