ligand_51_pose_16_2HRL.pdbqt
 OpenBabel07062320523D

 53 56  0  0  1  0  0  0  0  0999 V2000
   27.8940   27.6980   19.7560 C   0  0  0  0  0  0  0  0  0  0  0  0
   28.9480   27.8130   20.8270 C   0  0  2  0  0  0  0  0  0  0  0  0
   29.8170   29.0430   20.6610 C   0  0  1  0  0  0  0  0  0  0  0  0
   30.1930   29.6120   22.0330 C   0  0  2  0  0  0  0  0  0  0  0  0
   31.0180   31.8050   21.9210 C   0  0  2  0  0  0  0  0  0  0  0  0
   32.3150   31.1920   21.4580 C   0  0  0  0  0  0  0  0  0  0  0  0
   29.9900   30.9520   22.1290 O   0  0  0  0  0  0  0  0  0  0  0  0
   32.6650   30.0400   22.3330 C   0  0  1  0  0  0  0  0  0  0  0  0
   31.4990   29.1090   22.5270 C   0  0  1  0  0  0  0  0  0  0  0  0
   30.6340   32.6740   20.8740 O   0  0  0  0  0  0  0  0  0  0  0  0
   30.6050   32.1260   20.0460 H   0  0  0  0  0  0  0  0  0  0  0  0
   31.3350   32.6620   23.0910 C   0  0  0  0  0  0  0  0  0  0  0  0
   32.0890   33.6690   23.0030 O   0  0  0  0  0  0  0  0  0  0  0  0
   30.7980   32.3640   24.3250 O   0  0  0  0  0  0  0  0  0  0  0  0
   29.8470   32.6260   24.5910 H   0  0  0  0  0  0  0  0  0  0  0  0
   33.7720   29.3840   21.7480 O   0  0  0  0  0  0  0  0  0  0  0  0
   34.4790   30.0340   21.5510 H   0  0  0  0  0  0  0  0  0  0  0  0
   31.3640   28.7830   23.9410 N   0  0  0  0  0  0  0  0  0  0  0  0
   31.0740   27.4690   24.3950 C   0  0  0  0  0  0  0  0  0  0  0  0
   31.4860   29.5470   24.6680 H   0  0  0  0  0  0  0  0  0  0  0  0
   30.9560   27.2300   25.8400 C   0  0  0  0  0  0  0  0  0  0  0  0
   30.9270   26.5550   23.5280 O   0  0  0  0  0  0  0  0  0  0  0  0
   30.9010   28.8400   19.8620 O   0  0  0  0  0  0  0  0  0  0  0  0
   31.3470   27.9830   19.9310 H   0  0  0  0  0  0  0  0  0  0  0  0
   29.6970   26.6400   20.8110 O   0  0  0  0  0  0  0  0  0  0  0  0
   30.4450   26.7520   20.1410 H   0  0  0  0  0  0  0  0  0  0  0  0
   28.1290   28.7750   18.8100 N   0  0  0  0  0  0  0  0  0  0  0  0
   27.3590   28.9080   17.6040 C   0  0  0  0  0  0  0  0  0  0  0  0
   28.8630   29.5090   18.9470 H   0  0  0  0  0  0  0  0  0  0  0  0
   26.4640   28.0530   17.3930 O   0  0  0  0  0  0  0  0  0  0  0  0
   27.5690   29.9210   16.7010 O   0  0  0  0  0  0  0  0  0  0  0  0
   27.3550   31.2560   17.1000 C   0  0  0  0  0  0  0  0  0  0  0  0
   28.7020   31.8920   17.2620 C   0  0  0  0  0  0  0  0  0  0  0  0
   29.2000   32.8750   16.4290 C   0  0  0  0  0  0  0  0  0  0  0  0
   29.6540   31.6760   18.1660 N   0  0  0  0  0  0  0  0  0  0  0  0
   30.4100   33.2040   16.8580 N   0  0  0  0  0  0  0  0  0  0  0  0
   30.6750   32.4670   17.9160 N   0  0  0  0  0  0  0  0  0  0  0  0
   31.2660   34.2150   16.2330 C   0  0  2  0  0  0  0  0  0  0  0  0
   30.3290   35.2340   15.5980 C   0  0  0  0  0  0  0  0  0  0  0  0
   32.1490   33.5990   15.1930 C   0  0  0  0  0  0  0  0  0  0  0  0
   32.1270   34.8620   17.2890 C   0  0  0  0  0  0  0  0  0  0  0  0
   31.1520   36.3310   14.9520 C   0  0  1  0  0  0  0  0  0  0  0  0
   32.9250   34.7060   14.5140 C   0  0  1  0  0  0  0  0  0  0  0  0
   32.9380   35.9670   16.6480 C   0  0  2  0  0  0  0  0  0  0  0  0
   31.9980   36.9750   16.0120 C   0  0  0  0  0  0  0  0  0  0  0  0
   31.9960   35.6950   13.8760 C   0  0  0  0  0  0  0  0  0  0  0  0
   33.7940   35.3560   15.5650 C   0  0  0  0  0  0  0  0  0  0  0  0
   29.8670   25.5550   16.9770 C   0  0  0  0  0  0  0  0  0  0  0  0
   28.3450   25.7220   17.0260 C   0  0  0  0  0  0  0  0  0  0  0  0
   27.5990   24.4370   16.7010 C   0  0  0  0  0  0  0  0  0  0  0  0
   27.0230   23.7910   17.9310 C   0  0  0  0  0  0  0  0  0  0  0  0
   25.8570   24.6280   18.4470 C   0  0  0  0  0  0  0  0  0  0  0  0
   24.8180   24.7720   17.3990 N   0  0  0  0  0  0  0  0  0  0  0  0
  2  1  1  6  0  0  0
  3 23  1  1  0  0  0
  3  2  1  0  0  0  0
  4  3  1  6  0  0  0
  4  7  1  0  0  0  0
  4  9  1  0  0  0  0
  5 10  1  6  0  0  0
  5  7  1  0  0  0  0
  5 12  1  0  0  0  0
  6  5  1  0  0  0  0
  6  8  1  0  0  0  0
  8 16  1  6  0  0  0
  8  9  1  0  0  0  0
  9 18  1  1  0  0  0
 11 10  1  0  0  0  0
 12 14  1  0  0  0  0
 13 12  2  0  0  0  0
 14 15  1  0  0  0  0
 17 16  1  0  0  0  0
 18 19  1  0  0  0  0
 18 20  1  0  0  0  0
 19 21  1  0  0  0  0
 22 19  2  0  0  0  0
 23 24  1  0  0  0  0
 25  2  1  0  0  0  0
 26 25  1  0  0  0  0
 27 29  1  0  0  0  0
 27  1  1  0  0  0  0
 28 27  1  0  0  0  0
 30 28  2  0  0  0  0
 31 32  1  0  0  0  0
 31 28  1  0  0  0  0
 32 33  1  0  0  0  0
 33 35  1  0  0  0  0
 34 36  1  0  0  0  0
 34 33  2  0  0  0  0
 36 37  1  0  0  0  0
 37 35  2  0  0  0  0
 38 40  1  6  0  0  0
 38 36  1  0  0  0  0
 38 41  1  0  0  0  0
 39 38  1  0  0  0  0
 42 46  1  6  0  0  0
 42 39  1  0  0  0  0
 42 45  1  0  0  0  0
 43 46  1  1  0  0  0
 43 40  1  0  0  0  0
 43 47  1  0  0  0  0
 44 47  1  6  0  0  0
 44 41  1  0  0  0  0
 45 44  1  0  0  0  0
 48 49  1  0  0  0  0
 50 49  1  0  0  0  0
 50 51  1  0  0  0  0
 51 52  1  0  0  0  0
 53 52  1  0  0  0  0
M  END
>  <REMARK>
 VINA RESULT:    -4.572      1.754      2.459
 INTER + INTRA:         -14.468
 INTER:                  -8.548
 INTRA:                  -5.920
 UNBOUND:                -6.554
 SMILES CC(=O)N[C@@H]1[C@@H](O)C[C@](O)(C(=O)O)O[C@H]1C(O)[C@H](O)CNC(=O)OCc1cn(C23CC4CC(CC(C4)C2)C3)nn1
 SMILES IDX 20 1 18 2 16 3 15 4 9 5 8 6 14 7 6 8 5 9 10 10 11 12 12 13
 SMILES IDX 13 14 7 16 4 18 2 19 1 21 3 22 17 23 19 25 21 27 22 28 23 30
 SMILES IDX 24 31 25 32 26 33 27 34 40 35 28 36 39 37 29 38 38 39 37 40
 SMILES IDX 30 41 33 42 35 43 31 44 32 45 34 46 36 47
 H PARENT 10 11 13 15 7 17 4 20 17 24 19 26 21 29
 Flexibility Score: inf
  4 active torsions:
  status: ('A' for Active; 'I' for Inactive)
    1  A    between atoms: CA   and  CB  
    2  A    between atoms: CB   and  CG  
    3  A    between atoms: CG   and  CD  
    4  A    between atoms: CD   and  CE  

>  <TORSDO>
F 15

>  <BEGIN_>
RES LYS A 131

$$$$
ligand_51_pose_16_2HRL.pdbqt
 OpenBabel07062320523D

  6  5  0  0  0  0  0  0  0  0999 V2000
   33.1930   34.6630    9.2900 C   0  0  0  0  0  0  0  0  0  0  0  0
   32.0600   35.3600   10.0340 C   0  0  0  0  0  0  0  0  0  0  0  0
   30.7130   34.7220    9.8140 C   0  0  0  0  0  0  0  0  0  0  0  0
   30.4810   34.4530    8.3350 C   0  0  0  0  0  0  0  0  0  0  0  0
   29.0990   34.9200    7.9190 C   0  0  0  0  0  0  0  0  0  0  0  0
   28.5380   35.8830    8.9060 N   0  0  0  0  0  0  0  0  0  0  0  0
  1  2  1  0  0  0  0
  3  2  1  0  0  0  0
  4  3  1  0  0  0  0
  5  4  1  0  0  0  0
  5  6  1  0  0  0  0
M  END
>  <EGIN_R>
ES LYS A 135

>  <REMARK>
  4 active torsions:
  status: ('A' for Active; 'I' for Inactive)
    5  A    between atoms: CA   and  CB  
    6  A    between atoms: CB   and  CG  
    7  A    between atoms: CG   and  CD  
    8  A    between atoms: CD   and  CE  

$$$$
