ligand_72_pose_8_2HRL.pdbqt
 OpenBabel07062320523D

 49 49  0  0  1  0  0  0  0  0999 V2000
   27.9040   28.9640   18.1140 N   0  0  0  0  0  0  0  0  0  0  0  0
   27.3720   30.2080   17.6440 C   0  0  0  0  0  0  0  0  0  0  0  0
   26.6990   30.9760   18.4110 O   0  0  0  0  0  0  0  0  0  0  0  0
   28.4530   28.3840   17.4530 H   0  0  0  0  0  0  0  0  0  0  0  0
   27.6780   28.5660   19.4870 C   0  0  0  0  0  0  0  0  0  0  0  0
   28.9030   28.6060   20.3140 C   0  0  2  0  0  0  0  0  0  0  0  0
   29.7170   29.8440   20.3040 C   0  0  1  0  0  0  0  0  0  0  0  0
   30.2710   30.1560   21.6730 C   0  0  2  0  0  0  0  0  0  0  0  0
   32.3970   29.1210   21.6440 C   0  0  2  0  0  0  0  0  0  0  0  0
   31.8930   28.0970   22.6780 C   0  0  0  0  0  0  0  0  0  0  0  0
   31.6450   30.2510   21.6190 O   0  0  0  0  0  0  0  0  0  0  0  0
   31.0140   28.8680   23.6030 C   0  0  1  0  0  0  0  0  0  0  0  0
   29.7620   29.2730   22.7730 C   0  0  1  0  0  0  0  0  0  0  0  0
   32.5750   28.4770   20.4370 O   0  0  0  0  0  0  0  0  0  0  0  0
   32.3990   27.5120   20.5410 H   0  0  0  0  0  0  0  0  0  0  0  0
   33.7710   29.5570   22.1130 C   0  0  0  0  0  0  0  0  0  0  0  0
   34.1010   30.7660   22.0970 O   0  0  0  0  0  0  0  0  0  0  0  0
   34.6420   28.5850   22.5550 O   0  0  0  0  0  0  0  0  0  0  0  0
   35.6460   28.6880   22.4580 H   0  0  0  0  0  0  0  0  0  0  0  0
   30.6250   28.1600   24.7230 O   0  0  0  0  0  0  0  0  0  0  0  0
   31.2630   27.4050   24.8240 H   0  0  0  0  0  0  0  0  0  0  0  0
   28.9630   30.0010   23.7720 N   0  0  0  0  0  0  0  0  0  0  0  0
   27.5920   29.7940   23.9590 C   0  0  0  0  0  0  0  0  0  0  0  0
   29.4690   30.6980   24.3560 H   0  0  0  0  0  0  0  0  0  0  0  0
   26.7660   30.5200   24.9570 C   0  0  0  0  0  0  0  0  0  0  0  0
   27.0090   28.9380   23.2380 O   0  0  0  0  0  0  0  0  0  0  0  0
   30.5330   30.0820   19.2480 O   0  0  0  0  0  0  0  0  0  0  0  0
   31.4530   29.7200   19.3390 H   0  0  0  0  0  0  0  0  0  0  0  0
   29.7420   27.5250   19.9580 O   0  0  0  0  0  0  0  0  0  0  0  0
   29.5080   26.7650   20.5360 H   0  0  0  0  0  0  0  0  0  0  0  0
   27.6020   30.5600   16.3390 O   0  0  0  0  0  0  0  0  0  0  0  0
   28.8160   30.3390   15.6840 C   0  0  0  0  0  0  0  0  0  0  0  0
   29.7280   31.5030   15.8290 C   0  0  0  0  0  0  0  0  0  0  0  0
   29.7550   32.5810   14.9800 C   0  0  0  0  0  0  0  0  0  0  0  0
   30.6580   31.7280   16.7570 N   0  0  0  0  0  0  0  0  0  0  0  0
   30.6920   33.4340   15.4090 N   0  0  0  0  0  0  0  0  0  0  0  0
   31.2280   32.8840   16.5010 N   0  0  0  0  0  0  0  0  0  0  0  0
   31.0300   34.6890   14.7890 C   0  0  0  0  0  0  0  0  0  0  0  0
   30.3050   35.8340   15.4640 C   0  0  0  0  0  0  0  0  0  0  0  0
   30.6500   34.6210   13.3160 C   0  0  0  0  0  0  0  0  0  0  0  0
   32.5210   34.8980   14.8450 C   0  0  0  0  0  0  0  0  0  0  0  0
   33.1800   33.7880   14.3080 O   0  0  0  0  0  0  0  0  0  0  0  0
   34.1130   33.7840   14.6420 H   0  0  0  0  0  0  0  0  0  0  0  0
   29.8670   25.5550   16.9770 C   0  0  0  0  0  0  0  0  0  0  0  0
   28.3450   25.7220   17.0260 C   0  0  0  0  0  0  0  0  0  0  0  0
   27.6040   24.3930   17.0250 C   0  0  0  0  0  0  0  0  0  0  0  0
   26.1140   24.5760   17.1060 C   0  0  0  0  0  0  0  0  0  0  0  0
   25.7890   25.6620   18.1260 C   0  0  0  0  0  0  0  0  0  0  0  0
   25.7800   25.1010   19.4970 N   0  0  0  0  0  0  0  0  0  0  0  0
  1  5  1  0  0  0  0
  2  1  1  0  0  0  0
  2  3  2  0  0  0  0
  4  1  1  0  0  0  0
  6  5  1  6  0  0  0
  7 27  1  6  0  0  0
  7  6  1  0  0  0  0
  8  7  1  6  0  0  0
  8 13  1  0  0  0  0
  9 14  1  6  0  0  0
  9 16  1  0  0  0  0
  9 10  1  0  0  0  0
 10 12  1  0  0  0  0
 11  9  1  0  0  0  0
 11  8  1  0  0  0  0
 12 20  1  1  0  0  0
 13 12  1  0  0  0  0
 13 22  1  1  0  0  0
 14 15  1  0  0  0  0
 16 18  1  0  0  0  0
 17 16  2  0  0  0  0
 19 18  1  0  0  0  0
 20 21  1  0  0  0  0
 22 23  1  0  0  0  0
 22 24  1  0  0  0  0
 23 25  1  0  0  0  0
 26 23  2  0  0  0  0
 27 28  1  0  0  0  0
 29  6  1  0  0  0  0
 29 30  1  0  0  0  0
 31  2  1  0  0  0  0
 32 33  1  0  0  0  0
 32 31  1  0  0  0  0
 33 35  1  0  0  0  0
 34 36  1  0  0  0  0
 34 33  2  0  0  0  0
 36 37  1  0  0  0  0
 37 35  2  0  0  0  0
 38 41  1  0  0  0  0
 38 36  1  0  0  0  0
 38 39  1  0  0  0  0
 40 38  1  0  0  0  0
 42 43  1  0  0  0  0
 42 41  1  0  0  0  0
 44 45  1  0  0  0  0
 46 45  1  0  0  0  0
 46 47  1  0  0  0  0
 47 48  1  0  0  0  0
 48 49  1  0  0  0  0
M  END
>  <REMARK>
 VINA RESULT:    -4.379      8.064     13.972
 INTER + INTRA:         -14.108
 INTER:                  -8.497
 INTRA:                  -5.611
 UNBOUND:                -6.145
 SMILES CC(=O)N[C@@H]1[C@@H](O)C[C@](O)(C(=O)O)O[C@H]1C(O)[C@H](O)CNC(=O)OCc1cn(C(C)(C)CO)nn1
 SMILES IDX 21 1 22 2 23 3 20 5 18 6 16 7 15 8 9 9 8 10 14 11 6 12 5 13
 SMILES IDX 10 14 11 16 12 17 13 18 7 20 4 22 2 23 1 25 3 26 17 27 19 29
 SMILES IDX 24 31 25 32 26 33 27 34 35 35 28 36 34 37 29 38 30 39 31 40
 SMILES IDX 32 41 33 42
 H PARENT 21 4 10 15 13 19 7 21 4 24 17 28 19 30 33 43
 Flexibility Score: inf
  4 active torsions:
  status: ('A' for Active; 'I' for Inactive)
    1  A    between atoms: CA   and  CB  
    2  A    between atoms: CB   and  CG  
    3  A    between atoms: CG   and  CD  
    4  A    between atoms: CD   and  CE  

>  <TORSDO>
F 17

>  <BEGIN_>
RES LYS A 131

$$$$
ligand_72_pose_8_2HRL.pdbqt
 OpenBabel07062320523D

  6  5  0  0  0  0  0  0  0  0999 V2000
   33.1930   34.6630    9.2900 C   0  0  0  0  0  0  0  0  0  0  0  0
   32.0600   35.3600   10.0340 C   0  0  0  0  0  0  0  0  0  0  0  0
   30.7980   35.4950    9.2210 C   0  0  0  0  0  0  0  0  0  0  0  0
   30.1920   34.1280    8.9400 C   0  0  0  0  0  0  0  0  0  0  0  0
   28.6820   34.2260    8.8390 C   0  0  0  0  0  0  0  0  0  0  0  0
   28.0470   34.1400   10.1830 N   0  0  0  0  0  0  0  0  0  0  0  0
  1  2  1  0  0  0  0
  3  2  1  0  0  0  0
  4  3  1  0  0  0  0
  5  4  1  0  0  0  0
  5  6  1  0  0  0  0
M  END
>  <EGIN_R>
ES LYS A 135

>  <REMARK>
  4 active torsions:
  status: ('A' for Active; 'I' for Inactive)
    5  A    between atoms: CA   and  CB  
    6  A    between atoms: CB   and  CG  
    7  A    between atoms: CG   and  CD  
    8  A    between atoms: CD   and  CE  

$$$$
