ligand_53_pose_7_2HRL.pdbqt
 OpenBabel07062320523D

 48 48  0  0  1  0  0  0  0  0999 V2000
   29.7040   33.8680   18.3500 N   0  0  0  0  0  0  0  0  0  0  0  0
   30.3680   33.6860   17.1220 C   0  0  0  0  0  0  0  0  0  0  0  0
   31.4750   33.1550   17.0470 O   0  0  0  0  0  0  0  0  0  0  0  0
   28.7480   34.3330   18.2780 H   0  0  0  0  0  0  0  0  0  0  0  0
   30.1870   33.4980   19.6550 C   0  0  0  0  0  0  0  0  0  0  0  0
   29.8110   32.1280   20.1230 C   0  0  2  0  0  0  0  0  0  0  0  0
   30.7680   31.0690   19.7220 C   0  0  1  0  0  0  0  0  0  0  0  0
   31.0510   30.0250   20.7680 C   0  0  2  0  0  0  0  0  0  0  0  0
   29.9240   28.5250   22.1890 C   0  0  2  0  0  0  0  0  0  0  0  0
   30.9410   28.6930   23.2680 C   0  0  0  0  0  0  0  0  0  0  0  0
   29.8460   29.4790   21.2340 O   0  0  0  0  0  0  0  0  0  0  0  0
   32.2190   29.2460   22.7200 C   0  0  1  0  0  0  0  0  0  0  0  0
   31.8160   30.5260   21.9630 C   0  0  1  0  0  0  0  0  0  0  0  0
   28.6690   28.3740   22.8490 O   0  0  0  0  0  0  0  0  0  0  0  0
   28.3150   29.3000   22.9440 H   0  0  0  0  0  0  0  0  0  0  0  0
   30.1490   27.1970   21.5440 C   0  0  0  0  0  0  0  0  0  0  0  0
   30.7690   26.2500   22.0710 O   0  0  0  0  0  0  0  0  0  0  0  0
   29.6420   26.9880   20.2790 O   0  0  0  0  0  0  0  0  0  0  0  0
   29.5020   27.7400   19.6070 H   0  0  0  0  0  0  0  0  0  0  0  0
   33.1450   29.5470   23.7140 O   0  0  0  0  0  0  0  0  0  0  0  0
   32.7640   29.2220   24.5710 H   0  0  0  0  0  0  0  0  0  0  0  0
   32.9880   31.2970   21.7060 N   0  0  0  0  0  0  0  0  0  0  0  0
   33.1000   32.6710   22.0790 C   0  0  0  0  0  0  0  0  0  0  0  0
   33.8060   30.8600   21.2440 H   0  0  0  0  0  0  0  0  0  0  0  0
   34.2990   33.5020   21.8290 C   0  0  0  0  0  0  0  0  0  0  0  0
   32.1200   33.2000   22.6550 O   0  0  0  0  0  0  0  0  0  0  0  0
   30.4580   30.5400   18.4810 O   0  0  0  0  0  0  0  0  0  0  0  0
   31.1920   29.9810   18.1190 H   0  0  0  0  0  0  0  0  0  0  0  0
   28.5120   31.8480   19.6680 O   0  0  0  0  0  0  0  0  0  0  0  0
   27.8740   32.5510   19.9250 H   0  0  0  0  0  0  0  0  0  0  0  0
   29.7870   34.1030   15.9270 O   0  0  0  0  0  0  0  0  0  0  0  0
   28.9710   33.3180   15.1160 C   0  0  0  0  0  0  0  0  0  0  0  0
   28.2830   32.2090   15.8210 C   0  0  0  0  0  0  0  0  0  0  0  0
   28.3860   30.8640   15.6440 C   0  0  0  0  0  0  0  0  0  0  0  0
   27.3760   32.3660   16.8290 N   0  0  0  0  0  0  0  0  0  0  0  0
   27.5680   30.2510   16.5170 N   0  0  0  0  0  0  0  0  0  0  0  0
   26.9650   31.1680   17.2260 N   0  0  0  0  0  0  0  0  0  0  0  0
   27.3960   28.8180   16.6390 C   0  0  0  0  0  0  0  0  0  0  0  0
   27.2530   28.4510   18.0610 C   0  0  0  0  0  0  0  0  0  0  0  0
   26.3050   27.6920   18.4100 O   0  0  0  0  0  0  0  0  0  0  0  0
   28.1420   28.9270   19.0020 O   0  0  0  0  0  0  0  0  0  0  0  0
   29.1260   28.6720   18.8760 H   0  0  0  0  0  0  0  0  0  0  0  0
   29.8670   25.5550   16.9770 C   0  0  0  0  0  0  0  0  0  0  0  0
   28.3450   25.7220   17.0260 C   0  0  0  0  0  0  0  0  0  0  0  0
   27.6010   24.4010   16.9040 C   0  0  0  0  0  0  0  0  0  0  0  0
   26.6750   24.1630   18.0640 C   0  0  0  0  0  0  0  0  0  0  0  0
   25.5370   23.2460   17.6270 C   0  0  0  0  0  0  0  0  0  0  0  0
   24.4980   24.0180   16.9040 N   0  0  0  0  0  0  0  0  0  0  0  0
  1  5  1  0  0  0  0
  2  1  1  0  0  0  0
  3  2  2  0  0  0  0
  4  1  1  0  0  0  0
  6  5  1  6  0  0  0
  7 27  1  6  0  0  0
  7  6  1  0  0  0  0
  8  7  1  6  0  0  0
  8 11  1  0  0  0  0
  8 13  1  0  0  0  0
  9 16  1  6  0  0  0
  9 14  1  0  0  0  0
  9 10  1  0  0  0  0
 11  9  1  0  0  0  0
 12 10  1  0  0  0  0
 12 20  1  1  0  0  0
 13 22  1  6  0  0  0
 13 12  1  0  0  0  0
 14 15  1  0  0  0  0
 16 17  2  0  0  0  0
 18 16  1  0  0  0  0
 19 18  1  0  0  0  0
 20 21  1  0  0  0  0
 22 23  1  0  0  0  0
 23 26  2  0  0  0  0
 24 22  1  0  0  0  0
 25 23  1  0  0  0  0
 28 27  1  0  0  0  0
 29 30  1  0  0  0  0
 29  6  1  0  0  0  0
 31  2  1  0  0  0  0
 32 33  1  0  0  0  0
 32 31  1  0  0  0  0
 33 35  1  0  0  0  0
 34 33  2  0  0  0  0
 34 36  1  0  0  0  0
 35 37  2  0  0  0  0
 36 38  1  0  0  0  0
 36 37  1  0  0  0  0
 38 39  1  0  0  0  0
 39 40  2  0  0  0  0
 39 41  1  0  0  0  0
 42 41  1  0  0  0  0
 43 44  1  0  0  0  0
 45 44  1  0  0  0  0
 45 46  1  0  0  0  0
 47 46  1  0  0  0  0
 48 47  1  0  0  0  0
M  END
>  <REMARK>
 VINA RESULT:    -4.118      3.395      6.634
 INTER + INTRA:         -13.850
 INTER:                  -6.555
 INTRA:                  -7.295
 UNBOUND:                -6.362
 SMILES CC(=O)N[C@@H]1[C@@H](O)C[C@](O)(C(=O)O)O[C@H]1C(O)[C@H](O)CNC(=O)OCc1cn(CC(=O)O)nn1
 SMILES IDX 21 1 22 2 23 3 20 5 18 6 16 7 15 8 9 9 8 10 14 11 6 12 5 13
 SMILES IDX 10 14 11 16 12 17 13 18 7 20 4 22 2 23 1 25 3 26 17 27 19 29
 SMILES IDX 24 31 25 32 26 33 27 34 34 35 28 36 33 37 29 38 30 39 31 40
 SMILES IDX 32 41
 H PARENT 21 4 10 15 13 19 7 21 4 24 17 28 19 30 32 42
 Flexibility Score: inf
  4 active torsions:
  status: ('A' for Active; 'I' for Inactive)
    1  A    between atoms: CA   and  CB  
    2  A    between atoms: CB   and  CG  
    3  A    between atoms: CG   and  CD  
    4  A    between atoms: CD   and  CE  

>  <TORSDO>
F 17

>  <BEGIN_>
RES LYS A 131

$$$$
ligand_53_pose_7_2HRL.pdbqt
 OpenBabel07062320523D

  6  5  0  0  0  0  0  0  0  0999 V2000
   33.1930   34.6630    9.2900 C   0  0  0  0  0  0  0  0  0  0  0  0
   32.0600   35.3600   10.0340 C   0  0  0  0  0  0  0  0  0  0  0  0
   30.7580   34.6020    9.9960 C   0  0  0  0  0  0  0  0  0  0  0  0
   30.2680   34.4490    8.5640 C   0  0  0  0  0  0  0  0  0  0  0  0
   29.5760   35.7160    8.1000 C   0  0  0  0  0  0  0  0  0  0  0  0
   28.8900   35.5050    6.7950 N   0  0  0  0  0  0  0  0  0  0  0  0
  1  2  1  0  0  0  0
  3  2  1  0  0  0  0
  4  3  1  0  0  0  0
  5  4  1  0  0  0  0
  6  5  1  0  0  0  0
M  END
>  <EGIN_R>
ES LYS A 135

>  <REMARK>
  4 active torsions:
  status: ('A' for Active; 'I' for Inactive)
    5  A    between atoms: CA   and  CB  
    6  A    between atoms: CB   and  CG  
    7  A    between atoms: CG   and  CD  
    8  A    between atoms: CD   and  CE  

$$$$
