ligand_65_pose_15_2HRL.pdbqt
 OpenBabel07062320523D

 53 54  0  0  1  0  0  0  0  0999 V2000
   25.9650   33.9030   16.6030 N   0  0  0  0  0  0  0  0  0  0  0  0
   24.7640   33.1690   16.6660 C   0  0  0  0  0  0  0  0  0  0  0  0
   23.7360   33.4470   16.0090 O   0  0  0  0  0  0  0  0  0  0  0  0
   26.8220   33.6340   17.1730 H   0  0  0  0  0  0  0  0  0  0  0  0
   26.0520   35.0630   15.7420 C   0  0  0  0  0  0  0  0  0  0  0  0
   26.8170   34.6940   14.5100 C   0  0  2  0  0  0  0  0  0  0  0  0
   28.2440   35.1910   14.6100 C   0  0  2  0  0  0  0  0  0  0  0  0
   29.1680   34.0050   14.3810 C   0  0  2  0  0  0  0  0  0  0  0  0
   29.3770   32.5930   16.2550 C   0  0  2  0  0  0  0  0  0  0  0  0
   30.7100   33.1780   16.5970 C   0  0  0  0  0  0  0  0  0  0  0  0
   28.7650   32.9910   15.1440 O   0  0  0  0  0  0  0  0  0  0  0  0
   31.4360   33.4560   15.2870 C   0  0  1  0  0  0  0  0  0  0  0  0
   30.5670   34.5130   14.6090 C   0  0  1  0  0  0  0  0  0  0  0  0
   28.5310   32.8810   17.3530 O   0  0  0  0  0  0  0  0  0  0  0  0
   28.3890   32.0850   17.9160 H   0  0  0  0  0  0  0  0  0  0  0  0
   29.5370   31.1170   16.2330 C   0  0  0  0  0  0  0  0  0  0  0  0
   28.8240   30.4050   15.4810 O   0  0  0  0  0  0  0  0  0  0  0  0
   30.4640   30.4640   17.0280 O   0  0  0  0  0  0  0  0  0  0  0  0
   31.4680   30.4890   16.8390 H   0  0  0  0  0  0  0  0  0  0  0  0
   32.6880   33.9980   15.4990 O   0  0  0  0  0  0  0  0  0  0  0  0
   32.5570   34.8670   15.9760 H   0  0  0  0  0  0  0  0  0  0  0  0
   31.1680   34.9630   13.3730 N   0  0  0  0  0  0  0  0  0  0  0  0
   31.6920   36.2750   13.2470 C   0  0  0  0  0  0  0  0  0  0  0  0
   31.1900   34.2660   12.5930 H   0  0  0  0  0  0  0  0  0  0  0  0
   32.2940   36.6720   11.9550 C   0  0  0  0  0  0  0  0  0  0  0  0
   31.6600   37.0980   14.1880 O   0  0  0  0  0  0  0  0  0  0  0  0
   28.4510   35.6830   15.9270 O   0  0  0  0  0  0  0  0  0  0  0  0
   27.8250   36.4590   15.9930 H   0  0  0  0  0  0  0  0  0  0  0  0
   26.1700   35.2400   13.3910 O   0  0  0  0  0  0  0  0  0  0  0  0
   26.7360   35.1970   12.6010 H   0  0  0  0  0  0  0  0  0  0  0  0
   24.7050   32.0520   17.5170 O   0  0  0  0  0  0  0  0  0  0  0  0
   24.5820   30.7810   16.9170 C   0  0  0  0  0  0  0  0  0  0  0  0
   25.7160   29.9190   17.3860 C   0  0  0  0  0  0  0  0  0  0  0  0
   26.5780   30.1640   18.4370 C   0  0  0  0  0  0  0  0  0  0  0  0
   26.1270   28.7320   16.8810 N   0  0  0  0  0  0  0  0  0  0  0  0
   27.4660   29.1550   18.5470 N   0  0  0  0  0  0  0  0  0  0  0  0
   27.1660   28.3050   17.5910 N   0  0  0  0  0  0  0  0  0  0  0  0
   28.5160   29.0440   19.5140 C   0  0  0  0  0  0  0  0  0  0  0  0
   28.7170   27.9140   20.2160 N   0  0  0  0  0  0  0  0  0  0  0  0
   29.3450   30.0790   19.7550 N   0  0  0  0  0  0  0  0  0  0  0  0
   29.6890   27.7700   21.1310 C   0  0  0  0  0  0  0  0  0  0  0  0
   30.3470   29.9950   20.6680 C   0  0  0  0  0  0  0  0  0  0  0  0
   30.4970   28.8470   21.3340 N   0  0  0  0  0  0  0  0  0  0  0  0
   31.2680   31.1300   20.9420 C   0  0  0  0  0  0  0  0  0  0  0  0
   29.9030   26.5870   21.8680 N   0  0  0  0  0  0  0  0  0  0  0  0
   29.9560   25.6810   21.3850 H   0  0  0  0  0  0  0  0  0  0  0  0
   30.0040   26.6340   22.8920 H   0  0  0  0  0  0  0  0  0  0  0  0
   29.8670   25.5550   16.9770 C   0  0  0  0  0  0  0  0  0  0  0  0
   28.3450   25.7220   17.0260 C   0  0  0  0  0  0  0  0  0  0  0  0
   27.6000   24.4100   16.8300 C   0  0  0  0  0  0  0  0  0  0  0  0
   26.8230   24.0120   18.0540 C   0  0  0  0  0  0  0  0  0  0  0  0
   25.7180   25.0330   18.3100 C   0  0  0  0  0  0  0  0  0  0  0  0
   25.8700   25.6360   19.6550 N   0  0  0  0  0  0  0  0  0  0  0  0
  1  2  1  0  0  0  0
  1  4  1  0  0  0  0
  2 31  1  0  0  0  0
  3  2  2  0  0  0  0
  5  1  1  0  0  0  0
  6  7  1  0  0  0  0
  6  5  1  1  0  0  0
  7 27  1  1  0  0  0
  8 13  1  0  0  0  0
  8  7  1  1  0  0  0
  8 11  1  0  0  0  0
  9 16  1  6  0  0  0
  9 10  1  0  0  0  0
  9 14  1  0  0  0  0
 11  9  1  0  0  0  0
 12 20  1  1  0  0  0
 12 10  1  0  0  0  0
 13 22  1  6  0  0  0
 13 12  1  0  0  0  0
 14 15  1  0  0  0  0
 16 18  1  0  0  0  0
 17 16  2  0  0  0  0
 19 18  1  0  0  0  0
 20 21  1  0  0  0  0
 23 22  1  0  0  0  0
 23 26  2  0  0  0  0
 24 22  1  0  0  0  0
 25 23  1  0  0  0  0
 27 28  1  0  0  0  0
 29  6  1  0  0  0  0
 30 29  1  0  0  0  0
 32 33  1  0  0  0  0
 32 31  1  0  0  0  0
 33 34  2  0  0  0  0
 34 36  1  0  0  0  0
 35 33  1  0  0  0  0
 35 37  2  0  0  0  0
 36 38  1  0  0  0  0
 37 36  1  0  0  0  0
 38 40  1  0  0  0  0
 38 39  2  0  0  0  0
 39 41  2  0  0  0  0
 40 42  2  0  0  0  0
 41 43  1  0  0  0  0
 41 45  1  0  0  0  0
 42 44  1  0  0  0  0
 42 43  1  0  0  0  0
 45 47  1  0  0  0  0
 46 45  1  0  0  0  0
 48 49  1  0  0  0  0
 50 49  1  0  0  0  0
 50 51  1  0  0  0  0
 51 52  1  0  0  0  0
 52 53  1  0  0  0  0
M  END
>  <REMARK>
 VINA RESULT:    -5.019      2.955      7.541
 INTER + INTRA:         -13.968
 INTER:                  -7.690
 INTRA:                  -6.278
 UNBOUND:                -5.134
 SMILES CC(=O)N[C@@H]1[C@@H](O)C[C@](O)(C(=O)O)O[C@H]1C(O)[C@H](O)CNC(=O)OCc1cn(-c2nc(C)nc(N)n2)nn1
 SMILES IDX 21 1 22 2 23 3 20 5 18 6 16 7 15 8 9 9 8 10 14 11 6 12 5 13
 SMILES IDX 10 14 11 16 12 17 13 18 7 20 4 22 2 23 1 25 3 26 17 27 19 29
 SMILES IDX 24 31 25 32 26 33 27 34 38 35 28 36 37 37 29 38 36 39 30 40
 SMILES IDX 34 41 31 42 33 43 32 44 35 45
 H PARENT 21 4 10 15 13 19 7 21 4 24 17 28 19 30 35 46 35 47
 Flexibility Score: inf
  4 active torsions:
  status: ('A' for Active; 'I' for Inactive)
    1  A    between atoms: CA   and  CB  
    2  A    between atoms: CB   and  CG  
    3  A    between atoms: CG   and  CD  
    4  A    between atoms: CD   and  CE  

>  <TORSDO>
F 16

>  <BEGIN_>
RES LYS A 131

$$$$
ligand_65_pose_15_2HRL.pdbqt
 OpenBabel07062320523D

  6  5  0  0  0  0  0  0  0  0999 V2000
   33.1930   34.6630    9.2900 C   0  0  0  0  0  0  0  0  0  0  0  0
   32.0600   35.3600   10.0340 C   0  0  0  0  0  0  0  0  0  0  0  0
   30.7670   35.3990    9.2620 C   0  0  0  0  0  0  0  0  0  0  0  0
   30.0630   34.0530    9.3250 C   0  0  0  0  0  0  0  0  0  0  0  0
   28.6250   34.1810    8.8590 C   0  0  0  0  0  0  0  0  0  0  0  0
   28.4910   35.2340    7.8150 N   0  0  0  0  0  0  0  0  0  0  0  0
  1  2  1  0  0  0  0
  3  4  1  0  0  0  0
  3  2  1  0  0  0  0
  5  4  1  0  0  0  0
  6  5  1  0  0  0  0
M  END
>  <EGIN_R>
ES LYS A 135

>  <REMARK>
  4 active torsions:
  status: ('A' for Active; 'I' for Inactive)
    5  A    between atoms: CA   and  CB  
    6  A    between atoms: CB   and  CG  
    7  A    between atoms: CG   and  CD  
    8  A    between atoms: CD   and  CE  

$$$$
