ligand_28_pose_5_2HRL.pdbqt
 OpenBabel07062320523D

 53 55  0  0  1  0  0  0  0  0999 V2000
   25.7640   30.1880   18.5160 N   0  0  0  0  0  0  0  0  0  0  0  0
   24.8770   30.6710   17.5140 C   0  0  0  0  0  0  0  0  0  0  0  0
   23.9800   29.8980   17.0440 O   0  0  0  0  0  0  0  0  0  0  0  0
   26.4790   30.8360   18.8770 H   0  0  0  0  0  0  0  0  0  0  0  0
   25.5940   28.8250   18.9510 C   0  0  0  0  0  0  0  0  0  0  0  0
   26.7860   27.9590   18.6920 C   0  0  2  0  0  0  0  0  0  0  0  0
   27.3150   27.3030   19.9470 C   0  0  2  0  0  0  0  0  0  0  0  0
   28.1630   28.2860   20.7500 C   0  0  2  0  0  0  0  0  0  0  0  0
   30.3360   27.7410   21.3590 C   0  0  2  0  0  0  0  0  0  0  0  0
   30.2450   28.4420   22.6950 C   0  0  0  0  0  0  0  0  0  0  0  0
   29.4830   28.2310   20.4120 O   0  0  0  0  0  0  0  0  0  0  0  0
   28.8840   29.0670   22.9190 C   0  0  1  0  0  0  0  0  0  0  0  0
   27.8770   28.1800   22.2240 C   0  0  1  0  0  0  0  0  0  0  0  0
   30.1750   26.3510   21.5180 O   0  0  0  0  0  0  0  0  0  0  0  0
   30.7750   25.9800   22.1910 H   0  0  0  0  0  0  0  0  0  0  0  0
   31.7270   27.9380   20.8670 C   0  0  0  0  0  0  0  0  0  0  0  0
   32.5390   28.6630   21.5170 O   0  0  0  0  0  0  0  0  0  0  0  0
   32.2150   27.3630   19.7060 O   0  0  0  0  0  0  0  0  0  0  0  0
   33.0770   27.7520   19.3090 H   0  0  0  0  0  0  0  0  0  0  0  0
   28.6110   29.2270   24.2740 O   0  0  0  0  0  0  0  0  0  0  0  0
   29.1370   28.5500   24.7640 H   0  0  0  0  0  0  0  0  0  0  0  0
   26.5260   28.5200   22.4950 N   0  0  0  0  0  0  0  0  0  0  0  0
   25.6370   27.6390   23.1640 C   0  0  0  0  0  0  0  0  0  0  0  0
   26.1910   29.4760   22.1730 H   0  0  0  0  0  0  0  0  0  0  0  0
   24.2160   28.0300   23.4350 C   0  0  0  0  0  0  0  0  0  0  0  0
   26.1050   26.5260   23.5140 O   0  0  0  0  0  0  0  0  0  0  0  0
   28.1580   26.2640   19.5570 O   0  0  0  0  0  0  0  0  0  0  0  0
   28.6080   26.4990   18.7090 H   0  0  0  0  0  0  0  0  0  0  0  0
   27.7760   28.7610   18.1250 O   0  0  0  0  0  0  0  0  0  0  0  0
   27.8480   28.6300   17.1480 H   0  0  0  0  0  0  0  0  0  0  0  0
   24.9420   31.9670   17.0140 O   0  0  0  0  0  0  0  0  0  0  0  0
   25.5370   32.1720   15.7380 C   0  0  0  0  0  0  0  0  0  0  0  0
   26.9060   31.6080   15.7080 C   0  0  0  0  0  0  0  0  0  0  0  0
   28.0530   32.3400   15.8170 C   0  0  0  0  0  0  0  0  0  0  0  0
   27.2820   30.3370   15.5720 N   0  0  0  0  0  0  0  0  0  0  0  0
   29.0900   31.4940   15.7440 N   0  0  0  0  0  0  0  0  0  0  0  0
   28.6080   30.2830   15.5950 N   0  0  0  0  0  0  0  0  0  0  0  0
   30.4840   31.8720   15.8180 C   0  0  0  0  0  0  0  0  0  0  0  0
   30.7430   32.3080   17.2190 C   0  0  0  0  0  0  0  0  0  0  0  0
   31.2640   33.5630   17.4340 C   0  0  0  0  0  0  0  0  0  0  0  0
   30.4800   31.4990   18.2960 C   0  0  0  0  0  0  0  0  0  0  0  0
   31.5130   33.9910   18.7340 C   0  0  0  0  0  0  0  0  0  0  0  0
   30.7290   31.9280   19.5840 C   0  0  0  0  0  0  0  0  0  0  0  0
   31.2470   33.1730   19.8130 C   0  0  0  0  0  0  0  0  0  0  0  0
   30.5440   31.2920   20.7970 O   0  0  0  0  0  0  0  0  0  0  0  0
   31.4020   33.3600   21.1710 O   0  0  0  0  0  0  0  0  0  0  0  0
   30.7540   32.2630   21.7980 C   0  0  0  0  0  0  0  0  0  0  0  0
   29.8670   25.5550   16.9770 C   0  0  0  0  0  0  0  0  0  0  0  0
   28.3450   25.7220   17.0260 C   0  0  0  0  0  0  0  0  0  0  0  0
   27.5990   24.4840   16.5530 C   0  0  0  0  0  0  0  0  0  0  0  0
   27.0380   23.6880   17.6990 C   0  0  0  0  0  0  0  0  0  0  0  0
   25.7030   24.2880   18.1300 C   0  0  0  0  0  0  0  0  0  0  0  0
   24.6830   24.0970   17.0720 N   0  0  0  0  0  0  0  0  0  0  0  0
  1  4  1  0  0  0  0
  1  5  1  0  0  0  0
  2  1  1  0  0  0  0
  3  2  2  0  0  0  0
  6  5  1  1  0  0  0
  6  7  1  0  0  0  0
  7 27  1  6  0  0  0
  8  7  1  6  0  0  0
  8 13  1  0  0  0  0
  9 16  1  6  0  0  0
  9 14  1  0  0  0  0
  9 10  1  0  0  0  0
 10 12  1  0  0  0  0
 11  8  1  0  0  0  0
 11  9  1  0  0  0  0
 12 20  1  1  0  0  0
 13 22  1  6  0  0  0
 13 12  1  0  0  0  0
 14 15  1  0  0  0  0
 16 17  2  0  0  0  0
 18 16  1  0  0  0  0
 19 18  1  0  0  0  0
 20 21  1  0  0  0  0
 22 23  1  0  0  0  0
 23 25  1  0  0  0  0
 23 26  2  0  0  0  0
 24 22  1  0  0  0  0
 28 27  1  0  0  0  0
 29  6  1  0  0  0  0
 30 29  1  0  0  0  0
 31  2  1  0  0  0  0
 32 31  1  0  0  0  0
 33 32  1  0  0  0  0
 33 34  2  0  0  0  0
 35 37  2  0  0  0  0
 35 33  1  0  0  0  0
 36 34  1  0  0  0  0
 36 38  1  0  0  0  0
 37 36  1  0  0  0  0
 38 39  1  0  0  0  0
 39 40  2  0  0  0  0
 39 41  1  0  0  0  0
 40 42  1  0  0  0  0
 41 43  2  0  0  0  0
 42 44  2  0  0  0  0
 43 44  1  0  0  0  0
 43 45  1  0  0  0  0
 44 46  1  0  0  0  0
 45 47  1  0  0  0  0
 46 47  1  0  0  0  0
 48 49  1  0  0  0  0
 50 49  1  0  0  0  0
 50 51  1  0  0  0  0
 51 52  1  0  0  0  0
 53 52  1  0  0  0  0
M  END
>  <REMARK>
 VINA RESULT:    -5.214      5.432     11.384
 INTER + INTRA:         -15.332
 INTER:                  -8.856
 INTRA:                  -6.476
 UNBOUND:                -6.003
 SMILES CC(=O)N[C@@H]1[C@@H](O)C[C@](O)(C(=O)O)O[C@H]1C(O)[C@H](O)CNC(=O)OCc1cn(Cc2ccc3c(c2)OCO3)nn1
 SMILES IDX 21 1 22 2 23 3 20 5 18 6 16 7 15 8 9 9 8 10 14 11 6 12 5 13
 SMILES IDX 10 14 11 16 12 17 13 18 7 20 4 22 2 23 1 25 3 26 17 27 19 29
 SMILES IDX 24 31 25 32 26 33 27 34 40 35 28 36 39 37 29 38 30 39 31 40
 SMILES IDX 35 41 32 42 34 43 33 44 36 45 38 46 37 47
 H PARENT 21 4 10 15 13 19 7 21 4 24 17 28 19 30
 Flexibility Score: inf
  4 active torsions:
  status: ('A' for Active; 'I' for Inactive)
    1  A    between atoms: CA   and  CB  
    2  A    between atoms: CB   and  CG  
    3  A    between atoms: CG   and  CD  
    4  A    between atoms: CD   and  CE  

>  <TORSDO>
F 16

>  <BEGIN_>
RES LYS A 131

$$$$
ligand_28_pose_5_2HRL.pdbqt
 OpenBabel07062320523D

  6  5  0  0  0  0  0  0  0  0999 V2000
   33.1930   34.6630    9.2900 C   0  0  0  0  0  0  0  0  0  0  0  0
   32.0600   35.3600   10.0340 C   0  0  0  0  0  0  0  0  0  0  0  0
   30.7200   34.6950    9.8520 C   0  0  0  0  0  0  0  0  0  0  0  0
   30.3170   34.6940    8.3850 C   0  0  0  0  0  0  0  0  0  0  0  0
   28.8200   34.4930    8.2450 C   0  0  0  0  0  0  0  0  0  0  0  0
   28.2450   33.8730    9.4710 N   0  0  0  0  0  0  0  0  0  0  0  0
  1  2  1  0  0  0  0
  3  2  1  0  0  0  0
  4  3  1  0  0  0  0
  5  4  1  0  0  0  0
  5  6  1  0  0  0  0
M  END
>  <EGIN_R>
ES LYS A 135

>  <REMARK>
  4 active torsions:
  status: ('A' for Active; 'I' for Inactive)
    5  A    between atoms: CA   and  CB  
    6  A    between atoms: CB   and  CG  
    7  A    between atoms: CG   and  CD  
    8  A    between atoms: CD   and  CE  

$$$$
