ligand_68_pose_6_2HRL.pdbqt
 OpenBabel07062320523D

 53 54  0  0  1  0  0  0  0  0999 V2000
   26.8900   28.4700   18.1890 N   0  0  0  0  0  0  0  0  0  0  0  0
   26.0230   29.2740   17.4080 C   0  0  0  0  0  0  0  0  0  0  0  0
   24.9530   29.6780   17.9170 O   0  0  0  0  0  0  0  0  0  0  0  0
   27.7810   28.1720   17.6810 H   0  0  0  0  0  0  0  0  0  0  0  0
   26.6380   28.0640   19.5520 C   0  0  0  0  0  0  0  0  0  0  0  0
   27.9140   27.7200   20.2910 C   0  0  2  0  0  0  0  0  0  0  0  0
   28.8040   28.9590   20.4140 C   0  0  2  0  0  0  0  0  0  0  0  0
   29.4880   29.0850   21.7490 C   0  0  2  0  0  0  0  0  0  0  0  0
   31.1930   30.5010   20.9950 C   0  0  2  0  0  0  0  0  0  0  0  0
   31.8780   29.3170   20.4400 C   0  0  0  0  0  0  0  0  0  0  0  0
   30.1130   30.3330   21.7930 O   0  0  0  0  0  0  0  0  0  0  0  0
   31.6300   28.0000   21.1070 C   0  0  1  0  0  0  0  0  0  0  0  0
   30.4240   27.9840   22.0150 C   0  0  1  0  0  0  0  0  0  0  0  0
   30.7290   31.2490   19.8720 O   0  0  0  0  0  0  0  0  0  0  0  0
   31.4520   31.1930   19.2100 H   0  0  0  0  0  0  0  0  0  0  0  0
   32.2290   31.4020   21.6240 C   0  0  0  0  0  0  0  0  0  0  0  0
   32.2660   32.6340   21.4000 O   0  0  0  0  0  0  0  0  0  0  0  0
   33.1820   30.8620   22.4840 O   0  0  0  0  0  0  0  0  0  0  0  0
   33.0480   30.0050   22.9980 H   0  0  0  0  0  0  0  0  0  0  0  0
   31.5130   26.9830   20.1180 O   0  0  0  0  0  0  0  0  0  0  0  0
   32.3290   27.0200   19.5840 H   0  0  0  0  0  0  0  0  0  0  0  0
   30.9490   27.9670   23.3710 N   0  0  0  0  0  0  0  0  0  0  0  0
   30.7380   26.9100   24.2900 C   0  0  0  0  0  0  0  0  0  0  0  0
   31.5100   28.8040   23.6430 H   0  0  0  0  0  0  0  0  0  0  0  0
   31.2890   26.9240   25.6670 C   0  0  0  0  0  0  0  0  0  0  0  0
   30.0490   25.9450   23.8670 O   0  0  0  0  0  0  0  0  0  0  0  0
   27.8220   30.0220   20.3770 O   0  0  0  0  0  0  0  0  0  0  0  0
   27.0190   29.7410   19.9140 H   0  0  0  0  0  0  0  0  0  0  0  0
   28.5310   26.6690   19.6530 O   0  0  0  0  0  0  0  0  0  0  0  0
   27.8630   25.9530   19.5380 H   0  0  0  0  0  0  0  0  0  0  0  0
   26.3030   29.6390   16.0990 O   0  0  0  0  0  0  0  0  0  0  0  0
   26.6440   30.9620   15.7340 C   0  0  0  0  0  0  0  0  0  0  0  0
   28.0300   31.2320   16.1690 C   0  0  0  0  0  0  0  0  0  0  0  0
   28.6840   32.4530   16.1180 C   0  0  0  0  0  0  0  0  0  0  0  0
   28.9430   30.3840   16.6970 N   0  0  0  0  0  0  0  0  0  0  0  0
   29.9320   32.3140   16.6000 N   0  0  0  0  0  0  0  0  0  0  0  0
   30.0580   31.0550   16.9410 N   0  0  0  0  0  0  0  0  0  0  0  0
   30.9260   33.3910   16.7070 C   0  0  0  0  0  0  0  0  0  0  0  0
   31.8600   33.3110   15.5240 C   0  0  1  0  0  0  0  0  0  0  0  0
   31.5440   32.1190   14.8320 O   0  0  0  0  0  0  0  0  0  0  0  0
   31.3820   31.3940   15.4960 H   0  0  0  0  0  0  0  0  0  0  0  0
   31.6070   34.4420   14.6090 C   0  0  0  0  0  0  0  0  0  0  0  0
   32.3270   35.6180   14.6640 C   0  0  0  0  0  0  0  0  0  0  0  0
   30.5970   34.3190   13.6460 C   0  0  0  0  0  0  0  0  0  0  0  0
   32.0770   36.6580   13.8030 C   0  0  0  0  0  0  0  0  0  0  0  0
   30.3480   35.3530   12.7890 C   0  0  0  0  0  0  0  0  0  0  0  0
   31.0810   36.5140   12.8660 C   0  0  0  0  0  0  0  0  0  0  0  0
   29.8670   25.5550   16.9770 C   0  0  0  0  0  0  0  0  0  0  0  0
   28.3450   25.7220   17.0260 C   0  0  0  0  0  0  0  0  0  0  0  0
   27.6000   24.4070   16.8510 C   0  0  0  0  0  0  0  0  0  0  0  0
   26.1590   24.5140   17.2630 C   0  0  0  0  0  0  0  0  0  0  0  0
   26.0500   24.3610   18.7770 C   0  0  0  0  0  0  0  0  0  0  0  0
   24.7510   24.8880   19.2600 N   0  0  0  0  0  0  0  0  0  0  0  0
  1  5  1  0  0  0  0
  2  3  2  0  0  0  0
  2  1  1  0  0  0  0
  4  1  1  0  0  0  0
  6  5  1  6  0  0  0
  6  7  1  0  0  0  0
  7 27  1  1  0  0  0
  8  7  1  6  0  0  0
  8 11  1  0  0  0  0
  8 13  1  0  0  0  0
  9 14  1  6  0  0  0
  9 16  1  0  0  0  0
  9 11  1  0  0  0  0
 10  9  1  0  0  0  0
 10 12  1  0  0  0  0
 12 20  1  6  0  0  0
 12 13  1  0  0  0  0
 13 22  1  1  0  0  0
 15 14  1  0  0  0  0
 16 18  1  0  0  0  0
 17 16  2  0  0  0  0
 18 19  1  0  0  0  0
 21 20  1  0  0  0  0
 22 24  1  0  0  0  0
 22 23  1  0  0  0  0
 23 25  1  0  0  0  0
 26 23  2  0  0  0  0
 28 27  1  0  0  0  0
 29  6  1  0  0  0  0
 30 29  1  0  0  0  0
 31  2  1  0  0  0  0
 32 31  1  0  0  0  0
 32 33  1  0  0  0  0
 33 35  1  0  0  0  0
 34 33  2  0  0  0  0
 34 36  1  0  0  0  0
 35 37  2  0  0  0  0
 36 38  1  0  0  0  0
 36 37  1  0  0  0  0
 39 38  1  1  0  0  0
 40 41  1  0  0  0  0
 40 39  1  0  0  0  0
 42 43  1  0  0  0  0
 42 39  1  0  0  0  0
 44 42  2  0  0  0  0
 45 43  2  0  0  0  0
 46 47  2  0  0  0  0
 46 44  1  0  0  0  0
 47 45  1  0  0  0  0
 48 49  1  0  0  0  0
 50 49  1  0  0  0  0
 50 51  1  0  0  0  0
 51 52  1  0  0  0  0
 52 53  1  0  0  0  0
M  END
>  <REMARK>
 VINA RESULT:    -5.673      1.589      2.316
 INTER + INTRA:         -15.659
 INTER:                  -9.901
 INTRA:                  -5.757
 UNBOUND:                -5.012
 SMILES CC(=O)N[C@@H]1[C@@H](O)C[C@](O)(C(=O)O)O[C@H]1C(O)[C@H](O)CNC(=O)OCc1cn(CC(O)c2ccccc2)nn1
 SMILES IDX 21 1 22 2 23 3 20 5 18 6 16 7 15 8 9 9 8 10 14 11 6 12 5 13
 SMILES IDX 10 14 11 16 12 17 13 18 7 20 4 22 2 23 1 25 3 26 17 27 19 29
 SMILES IDX 24 31 25 32 26 33 27 34 39 35 28 36 38 37 29 38 30 39 31 40
 SMILES IDX 32 42 33 43 37 44 34 45 36 46 35 47
 H PARENT 21 4 10 15 13 19 7 21 4 24 17 28 19 30 31 41
 Flexibility Score: inf
  4 active torsions:
  status: ('A' for Active; 'I' for Inactive)
    1  A    between atoms: CA   and  CB  
    2  A    between atoms: CB   and  CG  
    3  A    between atoms: CG   and  CD  
    4  A    between atoms: CD   and  CE  

>  <TORSDO>
F 18

>  <BEGIN_>
RES LYS A 131

$$$$
ligand_68_pose_6_2HRL.pdbqt
 OpenBabel07062320523D

  6  5  0  0  0  0  0  0  0  0999 V2000
   33.1930   34.6630    9.2900 C   0  0  0  0  0  0  0  0  0  0  0  0
   32.0600   35.3600   10.0340 C   0  0  0  0  0  0  0  0  0  0  0  0
   30.8730   35.6780    9.1620 C   0  0  0  0  0  0  0  0  0  0  0  0
   30.2590   34.4030    8.6040 C   0  0  0  0  0  0  0  0  0  0  0  0
   28.8490   34.6630    8.1100 C   0  0  0  0  0  0  0  0  0  0  0  0
   28.8610   35.4190    6.8270 N   0  0  0  0  0  0  0  0  0  0  0  0
  1  2  1  0  0  0  0
  3  2  1  0  0  0  0
  4  3  1  0  0  0  0
  5  4  1  0  0  0  0
  6  5  1  0  0  0  0
M  END
>  <EGIN_R>
ES LYS A 135

>  <REMARK>
  4 active torsions:
  status: ('A' for Active; 'I' for Inactive)
    5  A    between atoms: CA   and  CB  
    6  A    between atoms: CB   and  CG  
    7  A    between atoms: CG   and  CD  
    8  A    between atoms: CD   and  CE  

$$$$
