ligand_36_pose_2_2HRL.pdbqt
 OpenBabel07062320523D

 52 53  0  0  1  0  0  0  0  0999 V2000
   27.2220   37.3270   12.7490 N   0  0  0  0  0  0  0  0  0  0  0  0
   27.9550   38.5480   12.6970 C   0  0  0  0  0  0  0  0  0  0  0  0
   27.5560   39.4800   11.9140 O   0  0  0  0  0  0  0  0  0  0  0  0
   27.5630   36.5900   13.3930 H   0  0  0  0  0  0  0  0  0  0  0  0
   26.0720   37.1660   11.9360 C   0  0  0  0  0  0  0  0  0  0  0  0
   26.2550   36.3690   10.6670 C   0  0  2  0  0  0  0  0  0  0  0  0
   26.1160   37.2050    9.4110 C   0  0  2  0  0  0  0  0  0  0  0  0
   26.9240   36.6810    8.2730 C   0  0  2  0  0  0  0  0  0  0  0  0
   29.0930   36.0400    7.7220 C   0  0  2  0  0  0  0  0  0  0  0  0
   28.4380   35.6780    6.4080 C   0  0  0  0  0  0  0  0  0  0  0  0
   28.2030   36.3200    8.7150 O   0  0  0  0  0  0  0  0  0  0  0  0
   27.5010   36.7220    5.9140 C   0  0  1  0  0  0  0  0  0  0  0  0
   27.1120   37.6050    7.1120 C   0  0  1  0  0  0  0  0  0  0  0  0
   29.9910   37.1040    7.4900 O   0  0  0  0  0  0  0  0  0  0  0  0
   30.9040   36.7860    7.7520 H   0  0  0  0  0  0  0  0  0  0  0  0
   29.8990   34.8710    8.1330 C   0  0  0  0  0  0  0  0  0  0  0  0
   29.3560   33.9430    8.7730 O   0  0  0  0  0  0  0  0  0  0  0  0
   31.2350   34.7990    7.8160 O   0  0  0  0  0  0  0  0  0  0  0  0
   31.8130   35.5800    7.5640 H   0  0  0  0  0  0  0  0  0  0  0  0
   27.9970   37.4870    4.8760 O   0  0  0  0  0  0  0  0  0  0  0  0
   27.5280   38.3760    4.9190 H   0  0  0  0  0  0  0  0  0  0  0  0
   25.9990   38.4390    6.7820 N   0  0  0  0  0  0  0  0  0  0  0  0
   26.1850   39.8070    6.3840 C   0  0  0  0  0  0  0  0  0  0  0  0
   24.9990   38.0890    6.8050 H   0  0  0  0  0  0  0  0  0  0  0  0
   25.0150   40.6690    6.0400 C   0  0  0  0  0  0  0  0  0  0  0  0
   27.3340   40.3070    6.3180 O   0  0  0  0  0  0  0  0  0  0  0  0
   26.2780   38.5220    9.6920 O   0  0  0  0  0  0  0  0  0  0  0  0
   25.8110   39.1440    9.1310 H   0  0  0  0  0  0  0  0  0  0  0  0
   25.2050   35.4150   10.7050 O   0  0  0  0  0  0  0  0  0  0  0  0
   25.1700   34.8790    9.8920 H   0  0  0  0  0  0  0  0  0  0  0  0
   29.0900   38.8150   13.4410 O   0  0  0  0  0  0  0  0  0  0  0  0
   29.2030   38.2600   14.7330 C   0  0  0  0  0  0  0  0  0  0  0  0
   30.3960   37.3900   14.8620 C   0  0  0  0  0  0  0  0  0  0  0  0
   30.4530   36.0060   14.8360 C   0  0  0  0  0  0  0  0  0  0  0  0
   31.6560   37.8120   15.0270 N   0  0  0  0  0  0  0  0  0  0  0  0
   31.7290   35.6390   14.9830 N   0  0  0  0  0  0  0  0  0  0  0  0
   32.4270   36.7480   15.0960 N   0  0  0  0  0  0  0  0  0  0  0  0
   32.2590   34.2930   15.0080 C   0  0  0  0  0  0  0  0  0  0  0  0
   31.5900   33.4060   15.9600 C   0  0  0  0  0  0  0  0  0  0  0  0
   31.0620   32.2150   15.5350 C   0  0  0  0  0  0  0  0  0  0  0  0
   31.4860   33.7760   17.2920 C   0  0  0  0  0  0  0  0  0  0  0  0
   30.4220   31.3700   16.4220 C   0  0  0  0  0  0  0  0  0  0  0  0
   30.8480   32.9440   18.2040 C   0  0  0  0  0  0  0  0  0  0  0  0
   30.3180   31.7360   17.7470 C   0  0  0  0  0  0  0  0  0  0  0  0
   29.6550   30.8690   18.6760 C   0  0  0  0  0  0  0  0  0  0  0  0
   29.0970   30.1630   19.4260 N   0  0  0  0  0  0  0  0  0  0  0  0
   29.8670   25.5550   16.9770 C   0  0  0  0  0  0  0  0  0  0  0  0
   28.3450   25.7220   17.0260 C   0  0  0  0  0  0  0  0  0  0  0  0
   27.5990   24.4530   16.6440 C   0  0  0  0  0  0  0  0  0  0  0  0
   26.6770   23.9870   17.7370 C   0  0  0  0  0  0  0  0  0  0  0  0
   25.2370   24.3250   17.3670 C   0  0  0  0  0  0  0  0  0  0  0  0
   24.4050   23.0990   17.3440 N   0  0  0  0  0  0  0  0  0  0  0  0
  1  4  1  0  0  0  0
  2  1  1  0  0  0  0
  2 31  1  0  0  0  0
  3  2  2  0  0  0  0
  5  1  1  0  0  0  0
  6 29  1  0  0  0  0
  6  5  1  1  0  0  0
  7 27  1  1  0  0  0
  7  6  1  0  0  0  0
  8 11  1  0  0  0  0
  8  7  1  1  0  0  0
  9 14  1  6  0  0  0
  9 16  1  0  0  0  0
  9 11  1  0  0  0  0
 10  9  1  0  0  0  0
 12 20  1  6  0  0  0
 12 10  1  0  0  0  0
 12 13  1  0  0  0  0
 13 22  1  6  0  0  0
 13  8  1  0  0  0  0
 14 15  1  0  0  0  0
 16 17  2  0  0  0  0
 18 16  1  0  0  0  0
 19 18  1  0  0  0  0
 20 21  1  0  0  0  0
 22 24  1  0  0  0  0
 23 22  1  0  0  0  0
 25 23  1  0  0  0  0
 26 23  2  0  0  0  0
 28 27  1  0  0  0  0
 30 29  1  0  0  0  0
 31 32  1  0  0  0  0
 32 33  1  0  0  0  0
 33 35  1  0  0  0  0
 34 33  2  0  0  0  0
 34 36  1  0  0  0  0
 35 37  2  0  0  0  0
 36 38  1  0  0  0  0
 36 37  1  0  0  0  0
 38 39  1  0  0  0  0
 39 41  1  0  0  0  0
 40 39  2  0  0  0  0
 40 42  1  0  0  0  0
 41 43  2  0  0  0  0
 42 44  2  0  0  0  0
 44 43  1  0  0  0  0
 44 45  1  0  0  0  0
 45 46  3  0  0  0  0
 47 48  1  0  0  0  0
 49 48  1  0  0  0  0
 49 50  1  0  0  0  0
 51 50  1  0  0  0  0
 52 51  1  0  0  0  0
M  END
>  <REMARK>
 VINA RESULT:    -4.542      6.552     11.861
 INTER + INTRA:         -15.372
 INTER:                 -11.604
 INTRA:                  -3.768
 UNBOUND:                -6.980
 SMILES CC(=O)N[C@@H]1[C@@H](O)C[C@](O)(C(=O)O)O[C@H]1C(O)[C@H](O)CNC(=O)OCc1cn(Cc2ccc(C#N)cc2)nn1
 SMILES IDX 21 1 22 2 23 3 20 5 18 6 16 7 15 8 9 9 8 10 14 11 6 12 5 13
 SMILES IDX 10 14 11 16 12 17 13 18 7 20 4 22 2 23 1 25 3 26 17 27 19 29
 SMILES IDX 24 31 25 32 26 33 27 34 39 35 28 36 38 37 29 38 30 39 31 40
 SMILES IDX 37 41 32 42 36 43 33 44 34 45 35 46
 H PARENT 21 4 10 15 13 19 7 21 4 24 17 28 19 30
 Flexibility Score: inf
  4 active torsions:
  status: ('A' for Active; 'I' for Inactive)
    1  A    between atoms: CA   and  CB  
    2  A    between atoms: CB   and  CG  
    3  A    between atoms: CG   and  CD  
    4  A    between atoms: CD   and  CE  

>  <TORSDO>
F 17

>  <BEGIN_>
RES LYS A 131

$$$$
ligand_36_pose_2_2HRL.pdbqt
 OpenBabel07062320523D

  6  5  0  0  0  0  0  0  0  0999 V2000
   33.1930   34.6630    9.2900 C   0  0  0  0  0  0  0  0  0  0  0  0
   32.0600   35.3600   10.0340 C   0  0  0  0  0  0  0  0  0  0  0  0
   32.4980   36.0220   11.3150 C   0  0  0  0  0  0  0  0  0  0  0  0
   31.7410   37.3230   11.5330 C   0  0  0  0  0  0  0  0  0  0  0  0
   31.8450   38.2110   10.3080 C   0  0  0  0  0  0  0  0  0  0  0  0
   30.6490   39.0890   10.1780 N   0  0  0  0  0  0  0  0  0  0  0  0
  1  2  1  0  0  0  0
  2  3  1  0  0  0  0
  3  4  1  0  0  0  0
  5  4  1  0  0  0  0
  6  5  1  0  0  0  0
M  END
>  <EGIN_R>
ES LYS A 135

>  <REMARK>
  4 active torsions:
  status: ('A' for Active; 'I' for Inactive)
    5  A    between atoms: CA   and  CB  
    6  A    between atoms: CB   and  CG  
    7  A    between atoms: CG   and  CD  
    8  A    between atoms: CD   and  CE  

$$$$
