ligand_47_pose_8_2HRL.pdbqt
 OpenBabel07062320523D

 62 64  0  0  1  0  0  0  0  0999 V2000
   30.5940   31.8020   19.5870 N   0  0  0  0  0  0  0  0  0  0  0  0
   31.0560   33.0960   19.2340 C   0  0  0  0  0  0  0  0  0  0  0  0
   31.9650   33.6460   19.9230 O   0  0  0  0  0  0  0  0  0  0  0  0
   29.8300   31.4120   18.9600 H   0  0  0  0  0  0  0  0  0  0  0  0
   31.1070   31.0500   20.7070 C   0  0  0  0  0  0  0  0  0  0  0  0
   31.0650   29.5400   20.4690 C   0  0  2  0  0  0  0  0  0  0  0  0
   29.7340   29.0730   20.9750 C   0  0  2  0  0  0  0  0  0  0  0  0
   28.8510   28.5040   19.9010 C   0  0  2  0  0  0  0  0  0  0  0  0
   27.4460   29.2180   18.2010 C   0  0  2  0  0  0  0  0  0  0  0  0
   27.1020   27.7620   18.0270 C   0  0  0  0  0  0  0  0  0  0  0  0
   28.5470   29.4620   18.9730 O   0  0  0  0  0  0  0  0  0  0  0  0
   27.0290   27.0130   19.3130 C   0  0  1  0  0  0  0  0  0  0  0  0
   27.5800   27.8900   20.4370 C   0  0  1  0  0  0  0  0  0  0  0  0
   26.3160   29.8610   18.7170 O   0  0  0  0  0  0  0  0  0  0  0  0
   25.7330   30.2000   17.9850 H   0  0  0  0  0  0  0  0  0  0  0  0
   27.7000   29.7680   16.8480 C   0  0  0  0  0  0  0  0  0  0  0  0
   26.7410   29.9080   16.0510 O   0  0  0  0  0  0  0  0  0  0  0  0
   28.9650   30.1330   16.4360 O   0  0  0  0  0  0  0  0  0  0  0  0
   29.7770   29.5720   16.7280 H   0  0  0  0  0  0  0  0  0  0  0  0
   25.7970   26.4870   19.6130 O   0  0  0  0  0  0  0  0  0  0  0  0
   25.8590   25.8410   20.3640 H   0  0  0  0  0  0  0  0  0  0  0  0
   27.8450   27.0740   21.6130 N   0  0  0  0  0  0  0  0  0  0  0  0
   27.2840   27.4700   22.8500 C   0  0  0  0  0  0  0  0  0  0  0  0
   28.4320   26.2310   21.5170 H   0  0  0  0  0  0  0  0  0  0  0  0
   27.5200   26.6790   24.0770 C   0  0  0  0  0  0  0  0  0  0  0  0
   26.5750   28.5030   22.9270 O   0  0  0  0  0  0  0  0  0  0  0  0
   29.1280   30.0580   21.7260 O   0  0  0  0  0  0  0  0  0  0  0  0
   28.1490   30.1400   21.5430 H   0  0  0  0  0  0  0  0  0  0  0  0
   32.1130   29.0030   21.2360 O   0  0  0  0  0  0  0  0  0  0  0  0
   31.8450   29.1870   22.1850 H   0  0  0  0  0  0  0  0  0  0  0  0
   30.5350   33.7760   18.1520 O   0  0  0  0  0  0  0  0  0  0  0  0
   29.3000   34.4980   18.2450 C   0  0  0  0  0  0  0  0  0  0  0  0
   28.3710   34.0880   17.1680 C   0  0  0  0  0  0  0  0  0  0  0  0
   27.0450   34.5250   17.0350 C   0  0  0  0  0  0  0  0  0  0  0  0
   28.5510   33.2610   16.1320 N   0  0  0  0  0  0  0  0  0  0  0  0
   26.4850   33.9700   15.9610 N   0  0  0  0  0  0  0  0  0  0  0  0
   27.4430   33.1880   15.4150 N   0  0  0  0  0  0  0  0  0  0  0  0
   25.1880   34.0790   15.3560 C   0  0  0  0  0  0  0  0  0  0  0  0
   24.4920   32.8000   15.0300 C   0  0  1  0  0  0  0  0  0  0  0  0
   23.8080   32.2490   16.2010 C   0  0  0  0  0  0  0  0  0  0  0  0
   22.7610   32.6860   16.7090 O   0  0  0  0  0  0  0  0  0  0  0  0
   24.3480   31.1180   16.8480 O   0  0  0  0  0  0  0  0  0  0  0  0
   24.6300   31.2020   17.8290 H   0  0  0  0  0  0  0  0  0  0  0  0
   23.5640   32.9460   13.8370 C   0  0  0  0  0  0  0  0  0  0  0  0
   23.1600   31.6270   13.2960 C   0  0  0  0  0  0  0  0  0  0  0  0
   24.0760   30.5740   13.1870 C   0  0  0  0  0  0  0  0  0  0  0  0
   21.8690   31.3710   12.8770 C   0  0  0  0  0  0  0  0  0  0  0  0
   23.7010   29.3470   12.6860 C   0  0  0  0  0  0  0  0  0  0  0  0
   21.4800   30.1560   12.3760 C   0  0  0  0  0  0  0  0  0  0  0  0
   22.3850   29.1300   12.2730 C   0  0  0  0  0  0  0  0  0  0  0  0
   24.1250   33.7500   12.7460 C   0  0  0  0  0  0  0  0  0  0  0  0
   23.2420   34.5570   12.0160 C   0  0  0  0  0  0  0  0  0  0  0  0
   25.4590   33.7560   12.4020 C   0  0  0  0  0  0  0  0  0  0  0  0
   23.7300   35.3270   10.9860 C   0  0  0  0  0  0  0  0  0  0  0  0
   25.9500   34.5250   11.3710 C   0  0  0  0  0  0  0  0  0  0  0  0
   25.0810   35.3300   10.6410 C   0  0  0  0  0  0  0  0  0  0  0  0
   29.8670   25.5550   16.9770 C   0  0  0  0  0  0  0  0  0  0  0  0
   28.3450   25.7220   17.0260 C   0  0  0  0  0  0  0  0  0  0  0  0
   27.5990   24.4850   16.5490 C   0  0  0  0  0  0  0  0  0  0  0  0
   27.0070   23.7060   17.6900 C   0  0  0  0  0  0  0  0  0  0  0  0
   25.4890   23.6650   17.5450 C   0  0  0  0  0  0  0  0  0  0  0  0
   24.9950   22.2720   17.6450 N   0  0  0  0  0  0  0  0  0  0  0  0
  1  5  1  0  0  0  0
  2  1  1  0  0  0  0
  2  3  2  0  0  0  0
  4  1  1  0  0  0  0
  6  5  1  1  0  0  0
  6  7  1  0  0  0  0
  6 29  1  0  0  0  0
  7 27  1  6  0  0  0
  8 13  1  0  0  0  0
  8  7  1  1  0  0  0
  9 16  1  6  0  0  0
  9 14  1  0  0  0  0
  9 11  1  0  0  0  0
 10  9  1  0  0  0  0
 10 12  1  0  0  0  0
 11  8  1  0  0  0  0
 12 20  1  1  0  0  0
 12 13  1  0  0  0  0
 13 22  1  1  0  0  0
 15 14  1  0  0  0  0
 17 16  2  0  0  0  0
 18 19  1  0  0  0  0
 18 16  1  0  0  0  0
 20 21  1  0  0  0  0
 22 23  1  0  0  0  0
 23 26  2  0  0  0  0
 23 25  1  0  0  0  0
 24 22  1  0  0  0  0
 28 27  1  0  0  0  0
 29 30  1  0  0  0  0
 31 32  1  0  0  0  0
 31  2  1  0  0  0  0
 33 32  1  0  0  0  0
 34 33  2  0  0  0  0
 35 33  1  0  0  0  0
 36 34  1  0  0  0  0
 37 36  1  0  0  0  0
 37 35  2  0  0  0  0
 38 36  1  0  0  0  0
 39 38  1  1  0  0  0
 39 40  1  0  0  0  0
 40 41  2  0  0  0  0
 40 42  1  0  0  0  0
 42 43  1  0  0  0  0
 44 39  1  0  0  0  0
 45 44  1  0  0  0  0
 46 45  1  0  0  0  0
 47 45  2  0  0  0  0
 48 46  2  0  0  0  0
 49 47  1  0  0  0  0
 50 49  2  0  0  0  0
 50 48  1  0  0  0  0
 51 44  1  0  0  0  0
 52 51  2  0  0  0  0
 53 51  1  0  0  0  0
 54 52  1  0  0  0  0
 55 53  2  0  0  0  0
 56 54  2  0  0  0  0
 56 55  1  0  0  0  0
 57 58  1  0  0  0  0
 59 58  1  0  0  0  0
 59 60  1  0  0  0  0
 61 62  1  0  0  0  0
 61 60  1  0  0  0  0
M  END
>  <REMARK>
 VINA RESULT:    -5.436      2.517      4.070
 INTER + INTRA:         -17.455
 INTER:                 -10.160
 INTRA:                  -7.295
 UNBOUND:                -6.299
 SMILES CC(=O)N[C@@H]1[C@@H](O)C[C@](O)(C(=O)O)O[C@H]1C(O)[C@H](O)CNC(=O)OCc1cn(C[C@@H](C(=O)O)C(c2ccccc2)c2ccccc2)nn1
 SMILES IDX 21 1 22 2 23 3 20 5 18 6 16 7 15 8 9 9 8 10 14 11 6 12 5 13
 SMILES IDX 10 14 11 16 12 17 13 18 7 20 4 22 2 23 1 25 3 26 17 27 19 29
 SMILES IDX 24 31 25 32 26 33 27 34 48 35 28 36 47 37 29 38 30 39 31 40
 SMILES IDX 32 41 33 42 34 44 35 45 36 46 40 47 37 48 39 49 38 50 41 51
 SMILES IDX 42 52 46 53 43 54 45 55 44 56
 H PARENT 21 4 10 15 13 19 7 21 4 24 17 28 19 30 33 43
 Flexibility Score: inf
  4 active torsions:
  status: ('A' for Active; 'I' for Inactive)
    1  A    between atoms: CA   and  CB  
    2  A    between atoms: CB   and  CG  
    3  A    between atoms: CG   and  CD  
    4  A    between atoms: CD   and  CE  

>  <TORSDO>
F 21

>  <BEGIN_>
RES LYS A 131

$$$$
ligand_47_pose_8_2HRL.pdbqt
 OpenBabel07062320523D

  6  5  0  0  0  0  0  0  0  0999 V2000
   33.1930   34.6630    9.2900 C   0  0  0  0  0  0  0  0  0  0  0  0
   32.0600   35.3600   10.0340 C   0  0  0  0  0  0  0  0  0  0  0  0
   30.7960   35.4880    9.2240 C   0  0  0  0  0  0  0  0  0  0  0  0
   30.2300   34.1160    8.8920 C   0  0  0  0  0  0  0  0  0  0  0  0
   28.7240   34.1020    9.0730 C   0  0  0  0  0  0  0  0  0  0  0  0
   28.0460   34.8550    7.9820 N   0  0  0  0  0  0  0  0  0  0  0  0
  1  2  1  0  0  0  0
  3  2  1  0  0  0  0
  4  5  1  0  0  0  0
  4  3  1  0  0  0  0
  6  5  1  0  0  0  0
M  END
>  <EGIN_R>
ES LYS A 135

>  <REMARK>
  4 active torsions:
  status: ('A' for Active; 'I' for Inactive)
    5  A    between atoms: CA   and  CB  
    6  A    between atoms: CB   and  CG  
    7  A    between atoms: CG   and  CD  
    8  A    between atoms: CD   and  CE  

$$$$
