ligand_0_pose_0_2HRL.pdbqt
 OpenBabel07062320523D

 54 55  0  0  1  0  0  0  0  0999 V2000
   25.2350   28.0240   17.7910 N   0  0  0  0  0  0  0  0  0  0  0  0
   24.6310   29.2780   17.5110 C   0  0  0  0  0  0  0  0  0  0  0  0
   24.4450   30.0810   18.4420 O   0  0  0  0  0  0  0  0  0  0  0  0
   25.3640   27.3870   16.9530 H   0  0  0  0  0  0  0  0  0  0  0  0
   25.6640   27.5910   19.0980 C   0  0  0  0  0  0  0  0  0  0  0  0
   27.1310   27.8870   19.3560 C   0  0  2  0  0  0  0  0  0  0  0  0
   27.3130   28.9320   20.4160 C   0  0  1  0  0  0  0  0  0  0  0  0
   28.4170   28.6680   21.3670 C   0  0  2  0  0  0  0  0  0  0  0  0
   30.4960   27.5930   21.3680 C   0  0  2  0  0  0  0  0  0  0  0  0
   30.5840   28.2410   22.7180 C   0  0  0  0  0  0  0  0  0  0  0  0
   29.3990   27.9390   20.6440 O   0  0  0  0  0  0  0  0  0  0  0  0
   29.3390   28.1370   23.5310 C   0  0  1  0  0  0  0  0  0  0  0  0
   28.1550   27.9010   22.5990 C   0  0  1  0  0  0  0  0  0  0  0  0
   30.6250   26.1920   21.5200 O   0  0  0  0  0  0  0  0  0  0  0  0
   29.7090   25.7970   21.4350 H   0  0  0  0  0  0  0  0  0  0  0  0
   31.7030   28.0240   20.6050 C   0  0  0  0  0  0  0  0  0  0  0  0
   32.2180   29.1480   20.8900 O   0  0  0  0  0  0  0  0  0  0  0  0
   32.2900   27.2720   19.6110 O   0  0  0  0  0  0  0  0  0  0  0  0
   33.2650   27.3790   19.3820 H   0  0  0  0  0  0  0  0  0  0  0  0
   29.4800   27.1030   24.4420 O   0  0  0  0  0  0  0  0  0  0  0  0
   29.5930   26.2140   24.0200 H   0  0  0  0  0  0  0  0  0  0  0  0
   26.9080   28.0370   23.2480 N   0  0  0  0  0  0  0  0  0  0  0  0
   25.9100   27.0440   23.1750 C   0  0  0  0  0  0  0  0  0  0  0  0
   26.6940   28.8750   23.8240 H   0  0  0  0  0  0  0  0  0  0  0  0
   24.5890   27.1340   23.8330 C   0  0  0  0  0  0  0  0  0  0  0  0
   26.1580   26.0160   22.5080 O   0  0  0  0  0  0  0  0  0  0  0  0
   27.1300   30.2320   20.0050 O   0  0  0  0  0  0  0  0  0  0  0  0
   26.3620   30.6440   20.5060 H   0  0  0  0  0  0  0  0  0  0  0  0
   27.8400   28.0730   18.2030 O   0  0  0  0  0  0  0  0  0  0  0  0
   27.4700   28.8280   17.6680 H   0  0  0  0  0  0  0  0  0  0  0  0
   24.2390   29.6440   16.2290 O   0  0  0  0  0  0  0  0  0  0  0  0
   24.8360   30.7270   15.5370 C   0  0  0  0  0  0  0  0  0  0  0  0
   26.3220   30.6790   15.6840 C   0  0  0  0  0  0  0  0  0  0  0  0
   27.1560   31.7780   15.7660 C   0  0  0  0  0  0  0  0  0  0  0  0
   27.1130   29.5980   15.7630 N   0  0  0  0  0  0  0  0  0  0  0  0
   28.4350   31.3120   15.8930 N   0  0  0  0  0  0  0  0  0  0  0  0
   28.3740   30.0120   15.8890 N   0  0  0  0  0  0  0  0  0  0  0  0
   29.6000   32.1380   15.9990 C   0  0  0  0  0  0  0  0  0  0  0  0
   30.2570   32.3230   17.1930 C   0  0  0  0  0  0  0  0  0  0  0  0
   30.0640   32.7620   14.8460 C   0  0  0  0  0  0  0  0  0  0  0  0
   31.3890   33.1450   17.2150 C   0  0  0  0  0  0  0  0  0  0  0  0
   31.1770   33.5650   14.8880 C   0  0  0  0  0  0  0  0  0  0  0  0
   31.8310   33.7500   16.0770 C   0  0  0  0  0  0  0  0  0  0  0  0
   29.8260   31.7000   18.4340 C   0  0  0  0  0  0  0  0  0  0  0  0
   29.1930   32.4280   19.2660 O   0  0  0  0  0  0  0  0  0  0  0  0
   30.0810   30.3370   18.7440 N   0  0  0  0  0  0  0  0  0  0  0  0
   29.5950   29.5590   18.2700 H   0  0  0  0  0  0  0  0  0  0  0  0
   30.8030   30.1540   19.5050 H   0  0  0  0  0  0  0  0  0  0  0  0
   29.8670   25.5550   16.9770 C   0  0  0  0  0  0  0  0  0  0  0  0
   28.3450   25.7220   17.0260 C   0  0  0  0  0  0  0  0  0  0  0  0
   27.6000   24.4080   16.8450 C   0  0  0  0  0  0  0  0  0  0  0  0
   26.5960   24.1710   17.9390 C   0  0  0  0  0  0  0  0  0  0  0  0
   25.2050   24.0240   17.3300 C   0  0  0  0  0  0  0  0  0  0  0  0
   24.7130   22.6360   17.4890 N   0  0  0  0  0  0  0  0  0  0  0  0
  1  5  1  0  0  0  0
  2  1  1  0  0  0  0
  2  3  2  0  0  0  0
  4  1  1  0  0  0  0
  6  5  1  6  0  0  0
  6  7  1  0  0  0  0
  7 27  1  6  0  0  0
  8  7  1  6  0  0  0
  8 13  1  0  0  0  0
  9 16  1  6  0  0  0
  9 14  1  0  0  0  0
  9 10  1  0  0  0  0
 10 12  1  0  0  0  0
 11  8  1  0  0  0  0
 11  9  1  0  0  0  0
 12 20  1  1  0  0  0
 13 22  1  1  0  0  0
 13 12  1  0  0  0  0
 15 14  1  0  0  0  0
 16 17  2  0  0  0  0
 18 16  1  0  0  0  0
 19 18  1  0  0  0  0
 21 20  1  0  0  0  0
 22 24  1  0  0  0  0
 23 22  1  0  0  0  0
 23 25  1  0  0  0  0
 26 23  2  0  0  0  0
 27 28  1  0  0  0  0
 29  6  1  0  0  0  0
 30 29  1  0  0  0  0
 31  2  1  0  0  0  0
 32 33  1  0  0  0  0
 32 31  1  0  0  0  0
 33 35  1  0  0  0  0
 33 34  2  0  0  0  0
 34 36  1  0  0  0  0
 35 37  2  0  0  0  0
 36 38  1  0  0  0  0
 37 36  1  0  0  0  0
 38 39  2  0  0  0  0
 39 41  1  0  0  0  0
 39 44  1  0  0  0  0
 40 42  2  0  0  0  0
 40 38  1  0  0  0  0
 42 43  1  0  0  0  0
 43 41  2  0  0  0  0
 44 46  1  0  0  0  0
 44 45  2  0  0  0  0
 46 48  1  0  0  0  0
 47 46  1  0  0  0  0
 49 50  1  0  0  0  0
 51 50  1  0  0  0  0
 51 52  1  0  0  0  0
 53 54  1  0  0  0  0
 53 52  1  0  0  0  0
M  END
>  <REMARK>
 VINA RESULT:    -6.026      0.000      0.000
 INTER + INTRA:         -16.195
 INTER:                  -8.836
 INTRA:                  -7.359
 UNBOUND:                -5.414
 SMILES CC(=O)N[C@@H]1[C@@H](O)C[C@](O)(C(=O)O)O[C@H]1C(O)[C@H](O)CNC(=O)OCc1cn(-c2ccccc2C(N)=O)nn1
 SMILES IDX 21 1 22 2 23 3 20 5 18 6 16 7 15 8 9 9 8 10 14 11 6 12 5 13
 SMILES IDX 10 14 11 16 12 17 13 18 7 20 4 22 2 23 1 25 3 26 17 27 19 29
 SMILES IDX 24 31 25 32 26 33 27 34 39 35 28 36 38 37 29 38 34 39 30 40
 SMILES IDX 33 41 31 42 32 43 35 44 37 45 36 46
 H PARENT 21 4 10 15 13 19 7 21 4 24 17 28 19 30 36 47 36 48
 Flexibility Score: inf
  4 active torsions:
  status: ('A' for Active; 'I' for Inactive)
    1  A    between atoms: CA   and  CB  
    2  A    between atoms: CB   and  CG  
    3  A    between atoms: CG   and  CD  
    4  A    between atoms: CD   and  CE  

>  <TORSDO>
F 16

>  <BEGIN_>
RES LYS A 131

$$$$
ligand_0_pose_0_2HRL.pdbqt
 OpenBabel07062320523D

  6  5  0  0  0  0  0  0  0  0999 V2000
   33.1930   34.6630    9.2900 C   0  0  0  0  0  0  0  0  0  0  0  0
   32.0600   35.3600   10.0340 C   0  0  0  0  0  0  0  0  0  0  0  0
   30.7060   34.7510    9.7760 C   0  0  0  0  0  0  0  0  0  0  0  0
   30.5210   34.4620    8.2940 C   0  0  0  0  0  0  0  0  0  0  0  0
   29.3500   35.2510    7.7400 C   0  0  0  0  0  0  0  0  0  0  0  0
   28.0530   34.6740    8.1910 N   0  0  0  0  0  0  0  0  0  0  0  0
  1  2  1  0  0  0  0
  3  2  1  0  0  0  0
  4  3  1  0  0  0  0
  5  6  1  0  0  0  0
  5  4  1  0  0  0  0
M  END
>  <EGIN_R>
ES LYS A 135

>  <REMARK>
  4 active torsions:
  status: ('A' for Active; 'I' for Inactive)
    5  A    between atoms: CA   and  CB  
    6  A    between atoms: CB   and  CG  
    7  A    between atoms: CG   and  CD  
    8  A    between atoms: CD   and  CE  

$$$$
