ligand_10_pose_11_2HRL.pdbqt
 OpenBabel07062320523D

 53 53  0  0  1  0  0  0  0  0999 V2000
   30.6810   37.5580   12.0160 N   0  0  0  0  0  0  0  0  0  0  0  0
   30.1380   38.7980   12.4680 C   0  0  0  0  0  0  0  0  0  0  0  0
   30.6820   39.3720   13.4180 O   0  0  0  0  0  0  0  0  0  0  0  0
   30.1650   37.1270   11.2040 H   0  0  0  0  0  0  0  0  0  0  0  0
   31.8250   36.9150   12.5830 C   0  0  0  0  0  0  0  0  0  0  0  0
   31.4430   35.5970   13.2240 C   0  0  2  0  0  0  0  0  0  0  0  0
   31.5370   35.6760   14.7370 C   0  0  2  0  0  0  0  0  0  0  0  0
   30.2740   35.3470   15.4470 C   0  0  2  0  0  0  0  0  0  0  0  0
   31.3650   34.6460   17.3740 C   0  0  2  0  0  0  0  0  0  0  0  0
   31.5370   33.3020   16.8010 C   0  0  0  0  0  0  0  0  0  0  0  0
   30.4050   35.4620   16.8340 O   0  0  0  0  0  0  0  0  0  0  0  0
   30.6690   32.8900   15.6790 C   0  0  1  0  0  0  0  0  0  0  0  0
   29.7730   33.9650   15.1310 C   0  0  1  0  0  0  0  0  0  0  0  0
   32.5730   35.3870   17.3060 O   0  0  0  0  0  0  0  0  0  0  0  0
   33.1490   34.8740   16.6780 H   0  0  0  0  0  0  0  0  0  0  0  0
   31.0740   34.5700   18.8320 C   0  0  0  0  0  0  0  0  0  0  0  0
   30.2140   35.2680   19.4170 O   0  0  0  0  0  0  0  0  0  0  0  0
   31.8040   33.6640   19.5860 O   0  0  0  0  0  0  0  0  0  0  0  0
   31.8760   33.7360   20.6090 H   0  0  0  0  0  0  0  0  0  0  0  0
   31.4290   32.3480   14.6470 O   0  0  0  0  0  0  0  0  0  0  0  0
   31.8510   31.4970   14.8570 H   0  0  0  0  0  0  0  0  0  0  0  0
   28.4070   33.8210   15.6900 N   0  0  0  0  0  0  0  0  0  0  0  0
   27.2670   34.0660   14.8920 C   0  0  0  0  0  0  0  0  0  0  0  0
   28.2520   33.5380   16.6810 H   0  0  0  0  0  0  0  0  0  0  0  0
   25.8740   33.9350   15.4110 C   0  0  0  0  0  0  0  0  0  0  0  0
   27.4370   34.4070   13.7020 O   0  0  0  0  0  0  0  0  0  0  0  0
   31.8640   37.0440   14.9610 O   0  0  0  0  0  0  0  0  0  0  0  0
   32.7180   37.2700   14.5220 H   0  0  0  0  0  0  0  0  0  0  0  0
   32.2320   34.6000   12.6680 O   0  0  0  0  0  0  0  0  0  0  0  0
   31.7110   33.8350   12.3200 H   0  0  0  0  0  0  0  0  0  0  0  0
   29.0260   39.3790   11.8820 O   0  0  0  0  0  0  0  0  0  0  0  0
   29.1710   40.1950   10.7470 C   0  0  0  0  0  0  0  0  0  0  0  0
   28.8950   39.4710    9.4830 C   0  0  0  0  0  0  0  0  0  0  0  0
   28.1180   38.3390    9.4290 C   0  0  0  0  0  0  0  0  0  0  0  0
   29.2920   39.7230    8.2380 N   0  0  0  0  0  0  0  0  0  0  0  0
   28.0660   37.9330    8.1340 N   0  0  0  0  0  0  0  0  0  0  0  0
   28.7800   38.7860    7.4570 N   0  0  0  0  0  0  0  0  0  0  0  0
   27.3210   36.7520    7.7100 C   0  0  1  0  0  0  0  0  0  0  0  0
   25.8570   37.0870    7.6240 C   0  0  0  0  0  0  0  0  0  0  0  0
   25.0540   36.3630    8.6210 C   0  0  0  0  0  0  0  0  0  0  0  0
   25.4850   35.2730    9.0720 O   0  0  0  0  0  0  0  0  0  0  0  0
   23.8450   36.8980    9.0380 O   0  0  0  0  0  0  0  0  0  0  0  0
   23.1120   37.0810    8.3350 H   0  0  0  0  0  0  0  0  0  0  0  0
   27.7670   36.3870    6.3370 C   0  0  0  0  0  0  0  0  0  0  0  0
   28.6470   35.5240    6.0930 O   0  0  0  0  0  0  0  0  0  0  0  0
   27.1800   37.0370    5.2660 O   0  0  0  0  0  0  0  0  0  0  0  0
   26.4000   37.6750    5.3730 H   0  0  0  0  0  0  0  0  0  0  0  0
   29.8670   25.5550   16.9770 C   0  0  0  0  0  0  0  0  0  0  0  0
   28.3450   25.7220   17.0260 C   0  0  0  0  0  0  0  0  0  0  0  0
   27.6010   24.4030   16.8840 C   0  0  0  0  0  0  0  0  0  0  0  0
   26.1490   24.5290   17.2550 C   0  0  0  0  0  0  0  0  0  0  0  0
   25.8530   23.6440   18.4610 C   0  0  0  0  0  0  0  0  0  0  0  0
   25.0400   22.4720   18.0570 N   0  0  0  0  0  0  0  0  0  0  0  0
  1  2  1  0  0  0  0
  1  5  1  0  0  0  0
  2  3  2  0  0  0  0
  4  1  1  0  0  0  0
  6  5  1  6  0  0  0
  6  7  1  0  0  0  0
  7 27  1  6  0  0  0
  8  7  1  6  0  0  0
  8 11  1  0  0  0  0
  9 14  1  6  0  0  0
  9 16  1  0  0  0  0
 10  9  1  0  0  0  0
 11  9  1  0  0  0  0
 12 20  1  6  0  0  0
 12 10  1  0  0  0  0
 13  8  1  0  0  0  0
 13 12  1  0  0  0  0
 13 22  1  1  0  0  0
 15 14  1  0  0  0  0
 16 17  2  0  0  0  0
 16 18  1  0  0  0  0
 18 19  1  0  0  0  0
 20 21  1  0  0  0  0
 22 24  1  0  0  0  0
 23 25  1  0  0  0  0
 23 22  1  0  0  0  0
 26 23  2  0  0  0  0
 28 27  1  0  0  0  0
 29  6  1  0  0  0  0
 30 29  1  0  0  0  0
 31  2  1  0  0  0  0
 32 31  1  0  0  0  0
 33 32  1  0  0  0  0
 34 33  2  0  0  0  0
 35 33  1  0  0  0  0
 36 34  1  0  0  0  0
 37 36  1  0  0  0  0
 37 35  2  0  0  0  0
 38 39  1  6  0  0  0
 38 36  1  0  0  0  0
 39 40  1  0  0  0  0
 40 42  1  0  0  0  0
 40 41  2  0  0  0  0
 43 42  1  0  0  0  0
 44 38  1  0  0  0  0
 45 44  2  0  0  0  0
 46 47  1  0  0  0  0
 46 44  1  0  0  0  0
 48 49  1  0  0  0  0
 50 49  1  0  0  0  0
 50 51  1  0  0  0  0
 51 52  1  0  0  0  0
 53 52  1  0  0  0  0
M  END
>  <REMARK>
 VINA RESULT:    -4.626      3.180      6.439
 INTER + INTRA:         -14.832
 INTER:                  -9.161
 INTRA:                  -5.671
 UNBOUND:                -5.744
 SMILES CC(=O)N[C@@H]1[C@@H](O)C[C@](O)(C(=O)O)O[C@H]1C(O)[C@H](O)CNC(=O)OCc1cn([C@@H](CC(=O)O)C(=O)O)nn1
 SMILES IDX 21 1 22 2 23 3 20 5 18 6 16 7 15 8 9 9 8 10 14 11 6 12 5 13
 SMILES IDX 10 14 11 16 12 17 13 18 7 20 4 22 2 23 1 25 3 26 17 27 19 29
 SMILES IDX 24 31 25 32 26 33 27 34 38 35 28 36 37 37 29 38 30 39 31 40
 SMILES IDX 32 41 33 42 34 44 35 45 36 46
 H PARENT 21 4 10 15 13 19 7 21 4 24 17 28 19 30 33 43 36 47
 Flexibility Score: inf
  4 active torsions:
  status: ('A' for Active; 'I' for Inactive)
    1  A    between atoms: CA   and  CB  
    2  A    between atoms: CB   and  CG  
    3  A    between atoms: CG   and  CD  
    4  A    between atoms: CD   and  CE  

>  <TORSDO>
F 20

>  <BEGIN_>
RES LYS A 131

$$$$
ligand_10_pose_11_2HRL.pdbqt
 OpenBabel07062320523D

  6  5  0  0  0  0  0  0  0  0999 V2000
   33.1930   34.6630    9.2900 C   0  0  0  0  0  0  0  0  0  0  0  0
   32.0600   35.3600   10.0340 C   0  0  0  0  0  0  0  0  0  0  0  0
   30.7900   35.4720    9.2300 C   0  0  0  0  0  0  0  0  0  0  0  0
   30.2350   34.0920    8.9090 C   0  0  0  0  0  0  0  0  0  0  0  0
   28.8110   33.9610    9.4140 C   0  0  0  0  0  0  0  0  0  0  0  0
   28.5680   34.8600   10.5760 N   0  0  0  0  0  0  0  0  0  0  0  0
  1  2  1  0  0  0  0
  3  2  1  0  0  0  0
  4  3  1  0  0  0  0
  4  5  1  0  0  0  0
  5  6  1  0  0  0  0
M  END
>  <EGIN_R>
ES LYS A 135

>  <REMARK>
  4 active torsions:
  status: ('A' for Active; 'I' for Inactive)
    5  A    between atoms: CA   and  CB  
    6  A    between atoms: CB   and  CG  
    7  A    between atoms: CG   and  CD  
    8  A    between atoms: CD   and  CE  

$$$$
