ligand_84_pose_19_2HRL.pdbqt
 OpenBabel07062320523D

 60 62  0  0  1  0  0  0  0  0999 V2000
   24.7000   36.1690   10.7250 O   0  0  0  0  0  0  0  0  0  0  0  0
   25.3370   36.3820   11.9370 C   0  0  0  0  0  0  0  0  0  0  0  0
   25.0580   35.6520   13.1260 N   0  0  0  0  0  0  0  0  0  0  0  0
   24.3200   34.9240   13.0600 H   0  0  0  0  0  0  0  0  0  0  0  0
   26.2150   37.2880   11.9470 O   0  0  0  0  0  0  0  0  0  0  0  0
   25.8140   35.9890   14.2870 C   0  0  0  0  0  0  0  0  0  0  0  0
   26.7580   34.9680   14.7840 C   0  0  2  0  0  0  0  0  0  0  0  0
   28.2180   35.2020   14.4430 C   0  0  1  0  0  0  0  0  0  0  0  0
   28.8840   33.8500   14.7060 C   0  0  2  0  0  0  0  0  0  0  0  0
   28.8900   32.2090   16.3650 C   0  0  2  0  0  0  0  0  0  0  0  0
   30.3690   32.0280   16.1790 C   0  0  0  0  0  0  0  0  0  0  0  0
   28.4100   33.4070   15.9100 O   0  0  0  0  0  0  0  0  0  0  0  0
   30.9100   32.5680   14.9040 C   0  0  1  0  0  0  0  0  0  0  0  0
   30.3680   34.0060   14.7520 C   0  0  1  0  0  0  0  0  0  0  0  0
   28.7020   32.2140   17.7720 O   0  0  0  0  0  0  0  0  0  0  0  0
   28.2900   33.0450   18.0710 H   0  0  0  0  0  0  0  0  0  0  0  0
   28.0940   31.0550   15.8530 C   0  0  0  0  0  0  0  0  0  0  0  0
   28.6430   29.9390   15.6700 O   0  0  0  0  0  0  0  0  0  0  0  0
   26.7410   31.1430   15.5590 O   0  0  0  0  0  0  0  0  0  0  0  0
   26.3450   31.0060   14.6370 H   0  0  0  0  0  0  0  0  0  0  0  0
   32.3000   32.6380   15.0000 O   0  0  0  0  0  0  0  0  0  0  0  0
   32.5730   33.3670   15.6170 H   0  0  0  0  0  0  0  0  0  0  0  0
   30.9130   34.6130   13.5660 N   0  0  0  0  0  0  0  0  0  0  0  0
   31.8200   35.6930   13.6440 C   0  0  0  0  0  0  0  0  0  0  0  0
   30.6320   34.2490   12.6400 H   0  0  0  0  0  0  0  0  0  0  0  0
   32.3230   36.2480   12.3530 C   0  0  0  0  0  0  0  0  0  0  0  0
   32.2090   36.1860   14.7240 O   0  0  0  0  0  0  0  0  0  0  0  0
   28.3110   35.5460   13.0850 O   0  0  0  0  0  0  0  0  0  0  0  0
   27.5170   36.1060   12.8890 H   0  0  0  0  0  0  0  0  0  0  0  0
   26.4450   33.7610   14.0980 O   0  0  0  0  0  0  0  0  0  0  0  0
   26.1690   34.0670   13.1870 H   0  0  0  0  0  0  0  0  0  0  0  0
   25.2210   35.2440    9.7840 C   0  0  0  0  0  0  0  0  0  0  0  0
   25.9030   35.9570    8.6810 C   0  0  0  0  0  0  0  0  0  0  0  0
   25.6730   37.2970    8.3600 C   0  0  0  0  0  0  0  0  0  0  0  0
   26.8300   35.5630    7.7970 N   0  0  0  0  0  0  0  0  0  0  0  0
   26.4420   37.6670    7.3260 N   0  0  0  0  0  0  0  0  0  0  0  0
   27.1500   36.5640    6.9970 N   0  0  0  0  0  0  0  0  0  0  0  0
   26.5570   38.9580    6.6720 C   0  0  0  0  0  0  0  0  0  0  0  0
   27.9120   39.0430    5.9580 C   0  0  1  0  0  0  0  0  0  0  0  0
   27.7730   38.9330    4.4860 C   0  0  0  0  0  0  0  0  0  0  0  0
   28.7670   40.0960    6.5280 C   0  0  0  0  0  0  0  0  0  0  0  0
   30.1630   39.9010    6.2870 N   0  0  0  0  0  0  0  0  0  0  0  0
   30.6410   40.8850    5.2800 C   0  0  0  0  0  0  0  0  0  0  0  0
   30.9230   40.2480    7.4840 C   0  0  0  0  0  0  0  0  0  0  0  0
   32.1190   40.8250    5.1180 C   0  0  0  0  0  0  0  0  0  0  0  0
   32.2760   39.5460    7.2870 C   0  0  0  0  0  0  0  0  0  0  0  0
   32.8270   39.9920    6.0400 N   0  0  0  0  0  0  0  0  0  0  0  0
   34.1500   39.5790    5.7210 C   0  0  0  0  0  0  0  0  0  0  0  0
   34.4590   39.2420    4.4210 C   0  0  0  0  0  0  0  0  0  0  0  0
   35.1300   39.5010    6.7010 C   0  0  0  0  0  0  0  0  0  0  0  0
   35.7380   38.8350    4.1200 C   0  0  0  0  0  0  0  0  0  0  0  0
   36.4000   39.0930    6.3890 C   0  0  0  0  0  0  0  0  0  0  0  0
   36.7030   38.7580    5.0790 C   0  0  0  0  0  0  0  0  0  0  0  0
   38.3220   38.2330    4.7010 Cl  0  0  0  0  0  0  0  0  0  0  0  0
   29.8670   25.5550   16.9770 C   0  0  0  0  0  0  0  0  0  0  0  0
   28.3450   25.7220   17.0260 C   0  0  0  0  0  0  0  0  0  0  0  0
   27.6010   24.4030   16.8870 C   0  0  0  0  0  0  0  0  0  0  0  0
   26.1600   24.5190   17.2980 C   0  0  0  0  0  0  0  0  0  0  0  0
   26.0800   24.9530   18.7590 C   0  0  0  0  0  0  0  0  0  0  0  0
   25.4510   23.8920   19.5810 N   0  0  0  0  0  0  0  0  0  0  0  0
  1  2  1  0  0  0  0
  2  5  2  0  0  0  0
  2  3  1  0  0  0  0
  3  6  1  0  0  0  0
  4  3  1  0  0  0  0
  7  6  1  6  0  0  0
  8 28  1  6  0  0  0
  8  7  1  0  0  0  0
  9  8  1  1  0  0  0
  9 14  1  0  0  0  0
  9 12  1  0  0  0  0
 10 17  1  6  0  0  0
 10 15  1  0  0  0  0
 11 10  1  0  0  0  0
 12 10  1  0  0  0  0
 13 21  1  1  0  0  0
 13 11  1  0  0  0  0
 14 23  1  6  0  0  0
 14 13  1  0  0  0  0
 15 16  1  0  0  0  0
 18 17  2  0  0  0  0
 19 17  1  0  0  0  0
 20 19  1  0  0  0  0
 21 22  1  0  0  0  0
 23 24  1  0  0  0  0
 24 27  2  0  0  0  0
 25 23  1  0  0  0  0
 26 24  1  0  0  0  0
 29 28  1  0  0  0  0
 30  7  1  0  0  0  0
 31 30  1  0  0  0  0
 32  1  1  0  0  0  0
 33 32  1  0  0  0  0
 34 33  2  0  0  0  0
 35 33  1  0  0  0  0
 36 34  1  0  0  0  0
 37 36  1  0  0  0  0
 37 35  2  0  0  0  0
 38 36  1  0  0  0  0
 39 40  1  6  0  0  0
 39 41  1  0  0  0  0
 39 38  1  0  0  0  0
 42 41  1  0  0  0  0
 42 44  1  0  0  0  0
 43 42  1  0  0  0  0
 45 43  1  0  0  0  0
 45 47  1  0  0  0  0
 46 44  1  0  0  0  0
 47 46  1  0  0  0  0
 48 47  1  0  0  0  0
 48 50  2  0  0  0  0
 49 48  1  0  0  0  0
 51 49  2  0  0  0  0
 51 53  1  0  0  0  0
 52 50  1  0  0  0  0
 53 52  2  0  0  0  0
 54 53  1  0  0  0  0
 55 56  1  0  0  0  0
 57 56  1  0  0  0  0
 57 58  1  0  0  0  0
 58 59  1  0  0  0  0
 59 60  1  0  0  0  0
M  END
>  <REMARK>
 VINA RESULT:    -4.804      4.649      9.950
 INTER + INTRA:         -15.558
 INTER:                 -10.618
 INTRA:                  -4.940
 UNBOUND:                -6.121
 SMILES CC(=O)N[C@@H]1[C@@H](O)C[C@](O)(C(=O)O)O[C@H]1C(O)[C@H](O)CNC(=O)OCc1cn(C[C@@H](C)CN2CCN(c3ccc(Cl)cc3)CC2)nn1
 SMILES IDX 24 1 22 2 21 3 23 5 20 6 18 7 16 8 15 9 9 10 8 11 14 12 6 13
 SMILES IDX 5 14 10 15 11 17 12 18 13 19 7 21 4 23 2 24 1 26 3 27 17 28
 SMILES IDX 19 30 25 32 26 33 27 34 47 35 28 36 46 37 29 38 30 39 31 40
 SMILES IDX 32 41 33 42 34 43 45 44 35 45 44 46 36 47 37 48 38 49 43 50
 SMILES IDX 39 51 42 52 40 53 41 54
 H PARENT 21 4 10 16 13 20 7 22 4 25 17 29 19 31
 Flexibility Score: inf
  4 active torsions:
  status: ('A' for Active; 'I' for Inactive)
    1  A    between atoms: CA   and  CB  
    2  A    between atoms: CB   and  CG  
    3  A    between atoms: CG   and  CD  
    4  A    between atoms: CD   and  CE  

>  <TORSDO>
F 19

>  <BEGIN_>
RES LYS A 131

$$$$
ligand_84_pose_19_2HRL.pdbqt
 OpenBabel07062320523D

  6  5  0  0  0  0  0  0  0  0999 V2000
   33.1930   34.6630    9.2900 C   0  0  0  0  0  0  0  0  0  0  0  0
   32.0600   35.3600   10.0340 C   0  0  0  0  0  0  0  0  0  0  0  0
   30.7390   35.3030    9.3100 C   0  0  0  0  0  0  0  0  0  0  0  0
   30.2590   36.7030    8.9590 C   0  0  0  0  0  0  0  0  0  0  0  0
   29.2550   37.1940    9.9840 C   0  0  0  0  0  0  0  0  0  0  0  0
   29.7560   38.4070   10.6880 N   0  0  0  0  0  0  0  0  0  0  0  0
  1  2  1  0  0  0  0
  3  2  1  0  0  0  0
  4  3  1  0  0  0  0
  4  5  1  0  0  0  0
  5  6  1  0  0  0  0
M  END
>  <EGIN_R>
ES LYS A 135

>  <REMARK>
  4 active torsions:
  status: ('A' for Active; 'I' for Inactive)
    5  A    between atoms: CA   and  CB  
    6  A    between atoms: CB   and  CG  
    7  A    between atoms: CG   and  CD  
    8  A    between atoms: CD   and  CE  

$$$$
