ligand_37_pose_8_2HRL.pdbqt
 OpenBabel07062320523D

 55 56  0  0  1  0  0  0  0  0999 V2000
   28.2310   37.6800   10.3470 O   0  0  0  0  0  0  0  0  0  0  0  0
   27.2520   37.7510    9.3280 C   0  0  0  0  0  0  0  0  0  0  0  0
   26.1600   36.8570    9.3240 N   0  0  0  0  0  0  0  0  0  0  0  0
   26.1500   36.1430   10.1190 H   0  0  0  0  0  0  0  0  0  0  0  0
   27.4320   38.6360    8.4710 O   0  0  0  0  0  0  0  0  0  0  0  0
   25.1260   36.8810    8.3390 C   0  0  0  0  0  0  0  0  0  0  0  0
   24.0390   37.8440    8.6830 C   0  0  2  0  0  0  0  0  0  0  0  0
   22.7090   37.3560    8.1140 C   0  0  2  0  0  0  0  0  0  0  0  0
   22.3110   35.9990    8.6070 C   0  0  2  0  0  0  0  0  0  0  0  0
   20.0000   36.1780    8.2690 C   0  0  2  0  0  0  0  0  0  0  0  0
   19.8320   36.4250    9.7340 C   0  0  0  0  0  0  0  0  0  0  0  0
   21.1670   35.5360    7.9350 O   0  0  0  0  0  0  0  0  0  0  0  0
   20.7520   35.4960   10.4980 C   0  0  1  0  0  0  0  0  0  0  0  0
   22.1710   35.8560   10.0860 C   0  0  1  0  0  0  0  0  0  0  0  0
   19.8510   37.3500    7.5650 O   0  0  0  0  0  0  0  0  0  0  0  0
   20.6930   37.8810    7.5070 H   0  0  0  0  0  0  0  0  0  0  0  0
   18.8930   35.2550    7.8260 C   0  0  0  0  0  0  0  0  0  0  0  0
   17.7700   35.2820    8.3910 O   0  0  0  0  0  0  0  0  0  0  0  0
   19.0620   34.3470    6.7900 O   0  0  0  0  0  0  0  0  0  0  0  0
   18.9720   34.6290    5.8020 H   0  0  0  0  0  0  0  0  0  0  0  0
   20.5600   35.6240   11.8600 O   0  0  0  0  0  0  0  0  0  0  0  0
   19.6670   35.3180   12.1570 H   0  0  0  0  0  0  0  0  0  0  0  0
   23.0980   34.8720   10.6540 N   0  0  0  0  0  0  0  0  0  0  0  0
   23.8600   35.1250   11.8330 C   0  0  0  0  0  0  0  0  0  0  0  0
   23.2330   33.9320   10.1990 H   0  0  0  0  0  0  0  0  0  0  0  0
   24.7900   34.0810   12.3640 C   0  0  0  0  0  0  0  0  0  0  0  0
   23.7430   36.2260   12.4210 O   0  0  0  0  0  0  0  0  0  0  0  0
   22.8100   37.3050    6.7180 O   0  0  0  0  0  0  0  0  0  0  0  0
   22.4730   36.4240    6.4020 H   0  0  0  0  0  0  0  0  0  0  0  0
   24.3380   39.0990    8.1540 O   0  0  0  0  0  0  0  0  0  0  0  0
   25.0220   39.0510    7.4240 H   0  0  0  0  0  0  0  0  0  0  0  0
   27.8290   37.3000   11.6460 C   0  0  0  0  0  0  0  0  0  0  0  0
   28.7190   36.2770   12.2270 C   0  0  0  0  0  0  0  0  0  0  0  0
   30.0750   36.3360   12.4470 C   0  0  0  0  0  0  0  0  0  0  0  0
   28.3360   35.0650   12.6590 N   0  0  0  0  0  0  0  0  0  0  0  0
   30.4820   35.1700   13.0010 N   0  0  0  0  0  0  0  0  0  0  0  0
   29.4170   34.4250   13.1170 N   0  0  0  0  0  0  0  0  0  0  0  0
   31.8320   34.8450   13.3780 C   0  0  1  0  0  0  0  0  0  0  0  0
   32.8010   35.8100   12.7310 C   0  0  0  0  0  0  0  0  0  0  0  0
   31.9390   34.8240   14.8430 C   0  0  0  0  0  0  0  0  0  0  0  0
   31.8820   35.9140   15.4880 O   0  0  0  0  0  0  0  0  0  0  0  0
   32.1030   33.6590   15.5610 O   0  0  0  0  0  0  0  0  0  0  0  0
   31.4560   32.4460   15.3390 C   0  0  0  0  0  0  0  0  0  0  0  0
   30.6640   32.0860   16.5480 C   0  0  0  0  0  0  0  0  0  0  0  0
   29.7180   31.0860   16.4890 C   0  0  0  0  0  0  0  0  0  0  0  0
   30.8770   32.7460   17.7280 C   0  0  0  0  0  0  0  0  0  0  0  0
   28.9890   30.7490   17.6030 C   0  0  0  0  0  0  0  0  0  0  0  0
   30.1660   32.4310   18.8520 C   0  0  0  0  0  0  0  0  0  0  0  0
   29.2230   31.4340   18.7870 C   0  0  0  0  0  0  0  0  0  0  0  0
   29.8670   25.5550   16.9770 C   0  0  0  0  0  0  0  0  0  0  0  0
   28.3450   25.7220   17.0260 C   0  0  0  0  0  0  0  0  0  0  0  0
   27.6000   24.4110   16.8280 C   0  0  0  0  0  0  0  0  0  0  0  0
   26.2930   24.3850   17.5700 C   0  0  0  0  0  0  0  0  0  0  0  0
   25.7380   22.9640   17.5740 C   0  0  0  0  0  0  0  0  0  0  0  0
   24.5260   22.8820   18.4230 N   0  0  0  0  0  0  0  0  0  0  0  0
  1 32  1  0  0  0  0
  2  1  1  0  0  0  0
  3  2  1  0  0  0  0
  3  4  1  0  0  0  0
  5  2  2  0  0  0  0
  6  3  1  0  0  0  0
  7  6  1  6  0  0  0
  8 28  1  6  0  0  0
  8  7  1  0  0  0  0
  9  8  1  1  0  0  0
  9 14  1  0  0  0  0
 10 15  1  6  0  0  0
 10 11  1  0  0  0  0
 11 13  1  0  0  0  0
 12 10  1  0  0  0  0
 12  9  1  0  0  0  0
 13 21  1  1  0  0  0
 14 13  1  0  0  0  0
 14 23  1  6  0  0  0
 16 15  1  0  0  0  0
 17 10  1  0  0  0  0
 17 18  2  0  0  0  0
 19 17  1  0  0  0  0
 20 19  1  0  0  0  0
 21 22  1  0  0  0  0
 23 24  1  0  0  0  0
 24 26  1  0  0  0  0
 24 27  2  0  0  0  0
 25 23  1  0  0  0  0
 29 28  1  0  0  0  0
 30  7  1  0  0  0  0
 31 30  1  0  0  0  0
 32 33  1  0  0  0  0
 33 34  2  0  0  0  0
 33 35  1  0  0  0  0
 34 36  1  0  0  0  0
 35 37  2  0  0  0  0
 36 37  1  0  0  0  0
 36 38  1  0  0  0  0
 38 39  1  6  0  0  0
 38 40  1  0  0  0  0
 40 41  2  0  0  0  0
 40 42  1  0  0  0  0
 43 42  1  0  0  0  0
 43 44  1  0  0  0  0
 44 46  1  0  0  0  0
 45 44  2  0  0  0  0
 45 47  1  0  0  0  0
 46 48  2  0  0  0  0
 47 49  2  0  0  0  0
 49 48  1  0  0  0  0
 50 51  1  0  0  0  0
 52 51  1  0  0  0  0
 52 53  1  0  0  0  0
 53 54  1  0  0  0  0
 54 55  1  0  0  0  0
M  END
>  <REMARK>
 VINA RESULT:    -5.643      3.366      5.529
 INTER + INTRA:         -16.195
 INTER:                 -10.880
 INTRA:                  -5.315
 UNBOUND:                -5.110
 SMILES CC(=O)N[C@@H]1[C@@H](O)C[C@](O)(C(=O)O)O[C@H]1C(O)[C@H](O)CNC(=O)OCc1cn([C@@H](C)C(=O)OCc2ccccc2)nn1
 SMILES IDX 24 1 22 2 21 3 23 5 20 6 18 7 16 8 15 9 9 10 8 11 14 12 6 13
 SMILES IDX 5 14 10 15 11 17 12 18 13 19 7 21 4 23 2 24 1 26 3 27 17 28
 SMILES IDX 19 30 25 32 26 33 27 34 42 35 28 36 41 37 29 38 30 39 31 40
 SMILES IDX 32 41 33 42 34 43 35 44 36 45 40 46 37 47 39 48 38 49
 H PARENT 21 4 10 16 13 20 7 22 4 25 17 29 19 31
 Flexibility Score: inf
  4 active torsions:
  status: ('A' for Active; 'I' for Inactive)
    1  A    between atoms: CA   and  CB  
    2  A    between atoms: CB   and  CG  
    3  A    between atoms: CG   and  CD  
    4  A    between atoms: CD   and  CE  

>  <TORSDO>
F 19

>  <BEGIN_>
RES LYS A 131

$$$$
ligand_37_pose_8_2HRL.pdbqt
 OpenBabel07062320523D

  6  5  0  0  0  0  0  0  0  0999 V2000
   33.1930   34.6630    9.2900 C   0  0  0  0  0  0  0  0  0  0  0  0
   32.0600   35.3600   10.0340 C   0  0  0  0  0  0  0  0  0  0  0  0
   30.7940   35.4810    9.2260 C   0  0  0  0  0  0  0  0  0  0  0  0
   30.0860   34.1390    9.1330 C   0  0  0  0  0  0  0  0  0  0  0  0
   28.6550   34.3220    8.6640 C   0  0  0  0  0  0  0  0  0  0  0  0
   27.6960   33.6790    9.6040 N   0  0  0  0  0  0  0  0  0  0  0  0
  1  2  1  0  0  0  0
  3  2  1  0  0  0  0
  4  3  1  0  0  0  0
  5  4  1  0  0  0  0
  5  6  1  0  0  0  0
M  END
>  <EGIN_R>
ES LYS A 135

>  <REMARK>
  4 active torsions:
  status: ('A' for Active; 'I' for Inactive)
    5  A    between atoms: CA   and  CB  
    6  A    between atoms: CB   and  CG  
    7  A    between atoms: CG   and  CD  
    8  A    between atoms: CD   and  CE  

$$$$
