ligand_23_pose_0_2HRL.pdbqt
 OpenBabel07062320523D

 55 56  0  0  1  0  0  0  0  0999 V2000
   25.6770   37.1720   10.8040 N   0  0  0  0  0  0  0  0  0  0  0  0
   26.1170   38.3350   11.4860 C   0  0  0  0  0  0  0  0  0  0  0  0
   25.3300   39.2890   11.6130 O   0  0  0  0  0  0  0  0  0  0  0  0
   26.3950   36.4010   10.7340 H   0  0  0  0  0  0  0  0  0  0  0  0
   24.3540   37.0440   10.2470 C   0  0  0  0  0  0  0  0  0  0  0  0
   24.4140   36.5710    8.8100 C   0  0  2  0  0  0  0  0  0  0  0  0
   25.2940   37.5200    8.0080 C   0  0  1  0  0  0  0  0  0  0  0  0
   26.3340   36.6920    7.2560 C   0  0  2  0  0  0  0  0  0  0  0  0
   28.0580   35.6820    8.4310 C   0  0  2  0  0  0  0  0  0  0  0  0
   29.0350   35.8240    7.2880 C   0  0  0  0  0  0  0  0  0  0  0  0
   26.7440   35.6370    8.0110 O   0  0  0  0  0  0  0  0  0  0  0  0
   28.5370   36.7140    6.2000 C   0  0  1  0  0  0  0  0  0  0  0  0
   27.4250   37.5950    6.7690 C   0  0  1  0  0  0  0  0  0  0  0  0
   28.2160   36.6900    9.3780 O   0  0  0  0  0  0  0  0  0  0  0  0
   27.8060   37.5360    9.0170 H   0  0  0  0  0  0  0  0  0  0  0  0
   28.3570   34.3870    9.0980 C   0  0  0  0  0  0  0  0  0  0  0  0
   29.4540   33.7940    8.9280 O   0  0  0  0  0  0  0  0  0  0  0  0
   27.4360   33.7650    9.9430 O   0  0  0  0  0  0  0  0  0  0  0  0
   26.4410   33.8760    9.7890 H   0  0  0  0  0  0  0  0  0  0  0  0
   29.5190   37.4880    5.6070 O   0  0  0  0  0  0  0  0  0  0  0  0
   29.5500   38.4230    5.9580 H   0  0  0  0  0  0  0  0  0  0  0  0
   26.8760   38.4110    5.6990 N   0  0  0  0  0  0  0  0  0  0  0  0
   27.2620   39.7690    5.4980 C   0  0  0  0  0  0  0  0  0  0  0  0
   26.1640   37.9800    5.0470 H   0  0  0  0  0  0  0  0  0  0  0  0
   26.6350   40.5060    4.3710 C   0  0  0  0  0  0  0  0  0  0  0  0
   28.1010   40.2600    6.2730 O   0  0  0  0  0  0  0  0  0  0  0  0
   24.4910   38.1550    7.0770 O   0  0  0  0  0  0  0  0  0  0  0  0
   23.5390   37.9360    7.2150 H   0  0  0  0  0  0  0  0  0  0  0  0
   23.1060   36.5850    8.2930 O   0  0  0  0  0  0  0  0  0  0  0  0
   22.4350   36.3600    9.0100 H   0  0  0  0  0  0  0  0  0  0  0  0
   27.4080   38.4260   12.0140 O   0  0  0  0  0  0  0  0  0  0  0  0
   27.6980   37.9800   13.3230 C   0  0  0  0  0  0  0  0  0  0  0  0
   28.2100   36.5870   13.2840 C   0  0  0  0  0  0  0  0  0  0  0  0
   28.6170   35.8620   14.3870 C   0  0  0  0  0  0  0  0  0  0  0  0
   28.3750   35.7840   12.2260 N   0  0  0  0  0  0  0  0  0  0  0  0
   29.0010   34.6660   13.9130 N   0  0  0  0  0  0  0  0  0  0  0  0
   28.8580   34.6080   12.5980 N   0  0  0  0  0  0  0  0  0  0  0  0
   29.5000   33.5880   14.7010 C   0  0  0  0  0  0  0  0  0  0  0  0
   28.6770   32.7250   15.3910 C   0  0  0  0  0  0  0  0  0  0  0  0
   30.8640   33.3690   14.8030 C   0  0  0  0  0  0  0  0  0  0  0  0
   29.1730   31.6740   16.1600 C   0  0  0  0  0  0  0  0  0  0  0  0
   31.3750   32.3430   15.5510 C   0  0  0  0  0  0  0  0  0  0  0  0
   30.5280   31.4980   16.2270 C   0  0  0  0  0  0  0  0  0  0  0  0
   28.1320   30.5910   17.0250 S   0  0  0  0  0  0  0  0  0  0  0  0
   27.7670   29.4510   16.1080 O   0  0  0  0  0  0  0  0  0  0  0  0
   26.8400   31.3000   17.3580 O   0  0  0  0  0  0  0  0  0  0  0  0
   28.8910   29.9620   18.4300 N   0  0  0  0  0  0  0  0  0  0  0  0
   29.6710   29.3380   18.1570 H   0  0  0  0  0  0  0  0  0  0  0  0
   28.2210   29.4790   19.0640 H   0  0  0  0  0  0  0  0  0  0  0  0
   29.8670   25.5550   16.9770 C   0  0  0  0  0  0  0  0  0  0  0  0
   28.3450   25.7220   17.0260 C   0  0  0  0  0  0  0  0  0  0  0  0
   27.6020   24.3990   16.9180 C   0  0  0  0  0  0  0  0  0  0  0  0
   26.1540   24.5300   17.3030 C   0  0  0  0  0  0  0  0  0  0  0  0
   25.7910   23.4320   18.2980 C   0  0  0  0  0  0  0  0  0  0  0  0
   24.9400   22.4060   17.6490 N   0  0  0  0  0  0  0  0  0  0  0  0
  1  2  1  0  0  0  0
  2  3  2  0  0  0  0
  2 31  1  0  0  0  0
  4  1  1  0  0  0  0
  5  1  1  0  0  0  0
  6  5  1  1  0  0  0
  7 27  1  6  0  0  0
  7  6  1  0  0  0  0
  8  7  1  1  0  0  0
  8 11  1  0  0  0  0
  9 16  1  1  0  0  0
  9 14  1  0  0  0  0
 10  9  1  0  0  0  0
 11  9  1  0  0  0  0
 12 20  1  1  0  0  0
 12 13  1  0  0  0  0
 12 10  1  0  0  0  0
 13 22  1  6  0  0  0
 13  8  1  0  0  0  0
 15 14  1  0  0  0  0
 16 18  1  0  0  0  0
 17 16  2  0  0  0  0
 19 18  1  0  0  0  0
 20 21  1  0  0  0  0
 23 22  1  0  0  0  0
 23 26  2  0  0  0  0
 24 22  1  0  0  0  0
 25 23  1  0  0  0  0
 27 28  1  0  0  0  0
 29  6  1  0  0  0  0
 29 30  1  0  0  0  0
 31 32  1  0  0  0  0
 33 32  1  0  0  0  0
 33 34  2  0  0  0  0
 35 37  2  0  0  0  0
 35 33  1  0  0  0  0
 36 34  1  0  0  0  0
 36 38  1  0  0  0  0
 37 36  1  0  0  0  0
 38 40  2  0  0  0  0
 38 39  1  0  0  0  0
 39 41  2  0  0  0  0
 40 42  1  0  0  0  0
 41 43  1  0  0  0  0
 41 44  1  0  0  0  0
 42 43  2  0  0  0  0
 44 46  2  0  0  0  0
 44 47  1  0  0  0  0
 45 44  2  0  0  0  0
 47 49  1  0  0  0  0
 48 47  1  0  0  0  0
 50 51  1  0  0  0  0
 52 51  1  0  0  0  0
 52 53  1  0  0  0  0
 53 54  1  0  0  0  0
 55 54  1  0  0  0  0
M  END
>  <REMARK>
 VINA RESULT:    -5.024      0.000      0.000
 INTER + INTRA:         -15.759
 INTER:                 -10.923
 INTRA:                  -4.836
 UNBOUND:                -6.624
 SMILES CC(=O)N[C@@H]1[C@@H](O)C[C@](O)(C(=O)O)O[C@H]1C(O)[C@H](O)CNC(=O)OCc1cn(-c2cccc(S(N)(=O)=O)c2)nn1
 SMILES IDX 21 1 22 2 23 3 20 5 18 6 16 7 15 8 9 9 8 10 14 11 6 12 5 13
 SMILES IDX 10 14 11 16 12 17 13 18 7 20 4 22 2 23 1 25 3 26 17 27 19 29
 SMILES IDX 24 31 25 32 26 33 27 34 40 35 28 36 39 37 29 38 38 39 30 40
 SMILES IDX 33 41 31 42 32 43 34 44 36 45 37 46 35 47
 H PARENT 21 4 10 15 13 19 7 21 4 24 17 28 19 30 35 48 35 49
 Flexibility Score: inf
  4 active torsions:
  status: ('A' for Active; 'I' for Inactive)
    1  A    between atoms: CA   and  CB  
    2  A    between atoms: CB   and  CG  
    3  A    between atoms: CG   and  CD  
    4  A    between atoms: CD   and  CE  

>  <TORSDO>
F 17

>  <BEGIN_>
RES LYS A 131

$$$$
ligand_23_pose_0_2HRL.pdbqt
 OpenBabel07062320523D

  6  5  0  0  0  0  0  0  0  0999 V2000
   33.1930   34.6630    9.2900 C   0  0  0  0  0  0  0  0  0  0  0  0
   32.0600   35.3600   10.0340 C   0  0  0  0  0  0  0  0  0  0  0  0
   32.5360   36.3490   11.0660 C   0  0  0  0  0  0  0  0  0  0  0  0
   31.4880   37.4260   11.3010 C   0  0  0  0  0  0  0  0  0  0  0  0
   31.5090   37.8840   12.7470 C   0  0  0  0  0  0  0  0  0  0  0  0
   31.9300   36.7800   13.6530 N   0  0  0  0  0  0  0  0  0  0  0  0
  1  2  1  0  0  0  0
  2  3  1  0  0  0  0
  3  4  1  0  0  0  0
  4  5  1  0  0  0  0
  5  6  1  0  0  0  0
M  END
>  <EGIN_R>
ES LYS A 135

>  <REMARK>
  4 active torsions:
  status: ('A' for Active; 'I' for Inactive)
    5  A    between atoms: CA   and  CB  
    6  A    between atoms: CB   and  CG  
    7  A    between atoms: CG   and  CD  
    8  A    between atoms: CD   and  CE  

$$$$
