ligand_54_pose_10_2HRL.pdbqt
 OpenBabel07062320523D

 52 52  0  0  1  0  0  0  0  0999 V2000
   26.1610   35.0130   14.8610 O   0  0  0  0  0  0  0  0  0  0  0  0
   27.3920   34.7080   15.4590 C   0  0  0  0  0  0  0  0  0  0  0  0
   28.5210   34.3450   14.6940 N   0  0  0  0  0  0  0  0  0  0  0  0
   28.3670   34.3330   13.6350 H   0  0  0  0  0  0  0  0  0  0  0  0
   27.4600   34.7680   16.6890 O   0  0  0  0  0  0  0  0  0  0  0  0
   29.8220   33.9990   15.1690 C   0  0  0  0  0  0  0  0  0  0  0  0
   30.0980   32.5320   15.0000 C   0  0  2  0  0  0  0  0  0  0  0  0
   29.8590   31.8990   16.3690 C   0  0  2  0  0  0  0  0  0  0  0  0
   28.6690   30.9910   16.3650 C   0  0  2  0  0  0  0  0  0  0  0  0
   26.3550   31.1290   16.2940 C   0  0  2  0  0  0  0  0  0  0  0  0
   26.3060   29.7270   16.8050 C   0  0  0  0  0  0  0  0  0  0  0  0
   27.5710   31.5050   15.7420 O   0  0  0  0  0  0  0  0  0  0  0  0
   27.4820   29.3180   17.6440 C   0  0  1  0  0  0  0  0  0  0  0  0
   28.3790   30.5280   17.7890 C   0  0  1  0  0  0  0  0  0  0  0  0
   25.9330   32.0260   17.2780 O   0  0  0  0  0  0  0  0  0  0  0  0
   24.9300   32.0260   17.2530 H   0  0  0  0  0  0  0  0  0  0  0  0
   25.3640   31.2080   15.1820 C   0  0  0  0  0  0  0  0  0  0  0  0
   24.9880   30.1810   14.5790 O   0  0  0  0  0  0  0  0  0  0  0  0
   24.8560   32.4700   14.8190 O   0  0  0  0  0  0  0  0  0  0  0  0
   24.7400   33.1310   15.5850 H   0  0  0  0  0  0  0  0  0  0  0  0
   27.1220   28.7710   18.8690 O   0  0  0  0  0  0  0  0  0  0  0  0
   27.9440   28.7610   19.4230 H   0  0  0  0  0  0  0  0  0  0  0  0
   29.6460   30.1980   18.4070 N   0  0  0  0  0  0  0  0  0  0  0  0
   29.8120   30.3980   19.8040 C   0  0  0  0  0  0  0  0  0  0  0  0
   30.4580   29.8170   17.8910 H   0  0  0  0  0  0  0  0  0  0  0  0
   31.0670   30.0900   20.5180 C   0  0  0  0  0  0  0  0  0  0  0  0
   28.8420   30.8610   20.4650 O   0  0  0  0  0  0  0  0  0  0  0  0
   29.7490   32.9120   17.3080 O   0  0  0  0  0  0  0  0  0  0  0  0
   29.5540   32.5710   18.2220 H   0  0  0  0  0  0  0  0  0  0  0  0
   31.4140   32.3140   14.6840 O   0  0  0  0  0  0  0  0  0  0  0  0
   31.9090   31.8210   15.3870 H   0  0  0  0  0  0  0  0  0  0  0  0
   26.0570   36.0930   13.9380 C   0  0  0  0  0  0  0  0  0  0  0  0
   26.0990   35.5660   12.5630 C   0  0  0  0  0  0  0  0  0  0  0  0
   25.7960   36.3610   11.4530 C   0  0  0  0  0  0  0  0  0  0  0  0
   26.3900   34.3730   12.0640 N   0  0  0  0  0  0  0  0  0  0  0  0
   25.9190   35.6090   10.3400 N   0  0  0  0  0  0  0  0  0  0  0  0
   26.2770   34.4190   10.7300 N   0  0  0  0  0  0  0  0  0  0  0  0
   25.6790   36.0990    9.0120 C   0  0  0  0  0  0  0  0  0  0  0  0
   26.7670   35.7190    8.0360 C   0  0  0  0  0  0  0  0  0  0  0  0
   28.0360   36.4860    8.2430 C   0  0  0  0  0  0  0  0  0  0  0  0
   28.5830   36.7690    6.9970 O   0  0  0  0  0  0  0  0  0  0  0  0
   28.1880   38.0440    6.5730 C   0  0  0  0  0  0  0  0  0  0  0  0
   27.8560   38.0620    5.1040 C   0  0  0  0  0  0  0  0  0  0  0  0
   28.9580   35.8000    8.9900 O   0  0  0  0  0  0  0  0  0  0  0  0
   29.2220   34.5330    8.4710 C   0  0  0  0  0  0  0  0  0  0  0  0
   30.7290   34.3850    8.2860 C   0  0  0  0  0  0  0  0  0  0  0  0
   29.8670   25.5550   16.9770 C   0  0  0  0  0  0  0  0  0  0  0  0
   28.3450   25.7220   17.0260 C   0  0  0  0  0  0  0  0  0  0  0  0
   27.6000   24.4070   16.8500 C   0  0  0  0  0  0  0  0  0  0  0  0
   26.6850   24.1150   18.0070 C   0  0  0  0  0  0  0  0  0  0  0  0
   26.4350   25.3980   18.7940 C   0  0  0  0  0  0  0  0  0  0  0  0
   25.1050   25.3540   19.4470 N   0  0  0  0  0  0  0  0  0  0  0  0
  1  2  1  0  0  0  0
  2  5  2  0  0  0  0
  3  6  1  0  0  0  0
  3  2  1  0  0  0  0
  4  3  1  0  0  0  0
  7  6  1  1  0  0  0
  7  8  1  0  0  0  0
  8 28  1  1  0  0  0
  9  8  1  1  0  0  0
  9 14  1  0  0  0  0
 10 17  1  6  0  0  0
 10 11  1  0  0  0  0
 10 15  1  0  0  0  0
 11 13  1  0  0  0  0
 12 10  1  0  0  0  0
 12  9  1  0  0  0  0
 13 14  1  0  0  0  0
 13 21  1  1  0  0  0
 14 23  1  6  0  0  0
 16 15  1  0  0  0  0
 18 17  2  0  0  0  0
 19 17  1  0  0  0  0
 19 20  1  0  0  0  0
 21 22  1  0  0  0  0
 23 24  1  0  0  0  0
 24 27  2  0  0  0  0
 24 26  1  0  0  0  0
 25 23  1  0  0  0  0
 28 29  1  0  0  0  0
 30  7  1  0  0  0  0
 30 31  1  0  0  0  0
 32  1  1  0  0  0  0
 33 32  1  0  0  0  0
 34 33  2  0  0  0  0
 35 33  1  0  0  0  0
 36 37  1  0  0  0  0
 36 34  1  0  0  0  0
 37 35  2  0  0  0  0
 38 36  1  0  0  0  0
 39 40  1  0  0  0  0
 39 38  1  0  0  0  0
 40 44  1  0  0  0  0
 41 40  1  0  0  0  0
 42 41  1  0  0  0  0
 43 42  1  0  0  0  0
 45 44  1  0  0  0  0
 46 45  1  0  0  0  0
 47 48  1  0  0  0  0
 49 48  1  0  0  0  0
 49 50  1  0  0  0  0
 50 51  1  0  0  0  0
 51 52  1  0  0  0  0
M  END
>  <REMARK>
 VINA RESULT:    -4.220      3.243      6.700
 INTER + INTRA:         -14.722
 INTER:                  -9.490
 INTRA:                  -5.233
 UNBOUND:                -5.938
 SMILES CCOC(CCn1cc(COC(=O)NC[C@@H](O)C(O)[C@@H]2O[C@@](O)(C(=O)O)C[C@H](O)[C@H]2NC(C)=O)nn1)OCC
 SMILES IDX 11 1 12 2 14 3 13 5 15 6 16 7 18 8 20 9 22 10 27 11 21 12
 SMILES IDX 28 13 30 14 23 15 24 17 25 18 26 19 29 21 31 23 32 24 33 26
 SMILES IDX 34 27 19 28 17 30 10 32 9 33 8 34 35 35 7 36 36 37 6 38 5 39
 SMILES IDX 4 40 3 41 2 42 1 43 37 44 38 45 39 46
 H PARENT 14 4 23 16 26 20 29 22 31 25 19 29 17 31
 Flexibility Score: inf
  4 active torsions:
  status: ('A' for Active; 'I' for Inactive)
    1  A    between atoms: CA   and  CB  
    2  A    between atoms: CB   and  CG  
    3  A    between atoms: CG   and  CD  
    4  A    between atoms: CD   and  CE  

>  <TORSDO>
F 21

>  <BEGIN_>
RES LYS A 131

$$$$
ligand_54_pose_10_2HRL.pdbqt
 OpenBabel07062320523D

  6  5  0  0  0  0  0  0  0  0999 V2000
   33.1930   34.6630    9.2900 C   0  0  0  0  0  0  0  0  0  0  0  0
   32.0600   35.3600   10.0340 C   0  0  0  0  0  0  0  0  0  0  0  0
   32.5240   36.1650   11.2210 C   0  0  0  0  0  0  0  0  0  0  0  0
   31.8810   35.6530   12.5000 C   0  0  0  0  0  0  0  0  0  0  0  0
   31.8720   36.7370   13.5620 C   0  0  0  0  0  0  0  0  0  0  0  0
   32.5970   36.2950   14.7850 N   0  0  0  0  0  0  0  0  0  0  0  0
  1  2  1  0  0  0  0
  2  3  1  0  0  0  0
  3  4  1  0  0  0  0
  4  5  1  0  0  0  0
  5  6  1  0  0  0  0
M  END
>  <EGIN_R>
ES LYS A 135

>  <REMARK>
  4 active torsions:
  status: ('A' for Active; 'I' for Inactive)
    5  A    between atoms: CA   and  CB  
    6  A    between atoms: CB   and  CG  
    7  A    between atoms: CG   and  CD  
    8  A    between atoms: CD   and  CE  

$$$$
