ligand_82_pose_11_2HRL.pdbqt
 OpenBabel07062320523D

 53 55  0  0  1  0  0  0  0  0999 V2000
   25.9560   31.1550   17.1380 N   0  0  0  0  0  0  0  0  0  0  0  0
   25.7950   32.5810   17.2320 C   0  0  0  0  0  0  0  0  0  0  0  0
   26.1670   33.2910   16.2630 O   0  0  0  0  0  0  0  0  0  0  0  0
   25.6480   30.5620   17.9380 H   0  0  0  0  0  0  0  0  0  0  0  0
   26.5370   30.5740   15.9470 C   0  0  0  0  0  0  0  0  0  0  0  0
   27.4000   29.4170   16.3640 C   0  0  2  0  0  0  0  0  0  0  0  0
   27.4070   29.2170   17.8630 C   0  0  1  0  0  0  0  0  0  0  0  0
   27.1250   27.7550   18.1210 C   0  0  2  0  0  0  0  0  0  0  0  0
   24.8310   27.5960   18.4010 C   0  0  2  0  0  0  0  0  0  0  0  0
   24.9370   27.0700   19.8150 C   0  0  0  0  0  0  0  0  0  0  0  0
   25.9310   27.3170   17.6270 O   0  0  0  0  0  0  0  0  0  0  0  0
   26.2860   26.4130   19.9680 C   0  0  1  0  0  0  0  0  0  0  0  0
   27.3290   27.4430   19.5860 C   0  0  1  0  0  0  0  0  0  0  0  0
   24.5240   28.9590   18.4340 O   0  0  0  0  0  0  0  0  0  0  0  0
   24.4450   29.1950   19.3980 H   0  0  0  0  0  0  0  0  0  0  0  0
   23.6610   26.9110   17.7770 C   0  0  0  0  0  0  0  0  0  0  0  0
   23.3320   27.2130   16.5800 O   0  0  0  0  0  0  0  0  0  0  0  0
   22.9110   25.9590   18.4340 O   0  0  0  0  0  0  0  0  0  0  0  0
   21.9100   25.8690   18.2850 H   0  0  0  0  0  0  0  0  0  0  0  0
   26.5300   26.0030   21.2640 O   0  0  0  0  0  0  0  0  0  0  0  0
   26.7800   26.8070   21.7870 H   0  0  0  0  0  0  0  0  0  0  0  0
   28.6620   26.9890   19.8850 N   0  0  0  0  0  0  0  0  0  0  0  0
   29.5010   27.6810   20.7950 C   0  0  0  0  0  0  0  0  0  0  0  0
   29.0030   26.1250   19.4100 H   0  0  0  0  0  0  0  0  0  0  0  0
   30.8650   27.1410   21.0450 C   0  0  0  0  0  0  0  0  0  0  0  0
   29.0970   28.7220   21.3700 O   0  0  0  0  0  0  0  0  0  0  0  0
   28.6610   29.5070   18.3950 O   0  0  0  0  0  0  0  0  0  0  0  0
   28.7780   29.1890   19.3060 H   0  0  0  0  0  0  0  0  0  0  0  0
   28.7140   29.7290   15.9550 O   0  0  0  0  0  0  0  0  0  0  0  0
   29.3750   29.3230   16.5820 H   0  0  0  0  0  0  0  0  0  0  0  0
   25.2530   33.1990   18.3260 O   0  0  0  0  0  0  0  0  0  0  0  0
   26.0060   33.9290   19.2780 C   0  0  0  0  0  0  0  0  0  0  0  0
   27.3750   33.3840   19.3730 C   0  0  0  0  0  0  0  0  0  0  0  0
   28.5670   33.9870   19.0460 C   0  0  0  0  0  0  0  0  0  0  0  0
   27.6930   32.1570   19.8120 N   0  0  0  0  0  0  0  0  0  0  0  0
   29.5890   33.1150   19.2930 N   0  0  0  0  0  0  0  0  0  0  0  0
   29.0200   32.0130   19.7570 N   0  0  0  0  0  0  0  0  0  0  0  0
   30.9870   33.3950   19.0720 C   0  0  0  0  0  0  0  0  0  0  0  0
   31.2460   33.7490   17.6320 C   0  0  0  0  0  0  0  0  0  0  0  0
   32.1780   34.6360   17.2960 C   0  0  0  0  0  0  0  0  0  0  0  0
   30.4740   33.1240   16.5400 C   0  0  2  0  0  0  0  0  0  0  0  0
   32.5570   34.7620   15.8620 C   0  0  0  0  0  0  0  0  0  0  0  0
   31.5090   32.5510   15.5610 C   0  0  0  0  0  0  0  0  0  0  0  0
   30.1760   34.1650   15.4790 C   0  0  0  0  0  0  0  0  0  0  0  0
   31.6240   33.9620   15.0070 C   0  0  1  0  0  0  0  0  0  0  0  0
   29.2220   33.6980   14.4160 C   0  0  0  0  0  0  0  0  0  0  0  0
   29.8670   35.5360   15.9780 C   0  0  0  0  0  0  0  0  0  0  0  0
   29.8670   25.5550   16.9770 C   0  0  0  0  0  0  0  0  0  0  0  0
   28.3450   25.7220   17.0260 C   0  0  0  0  0  0  0  0  0  0  0  0
   27.5990   24.4770   16.5700 C   0  0  0  0  0  0  0  0  0  0  0  0
   27.0220   23.7080   17.7260 C   0  0  0  0  0  0  0  0  0  0  0  0
   25.5050   23.6340   17.5810 C   0  0  0  0  0  0  0  0  0  0  0  0
   24.9070   22.9330   18.7420 N   0  0  0  0  0  0  0  0  0  0  0  0
  1  2  1  0  0  0  0
  1  4  1  0  0  0  0
  2 31  1  0  0  0  0
  3  2  2  0  0  0  0
  5  1  1  0  0  0  0
  6  5  1  1  0  0  0
  6  7  1  0  0  0  0
  7 27  1  6  0  0  0
  8  7  1  1  0  0  0
  8 13  1  0  0  0  0
  9 16  1  6  0  0  0
  9 14  1  0  0  0  0
  9 10  1  0  0  0  0
 10 12  1  0  0  0  0
 11  8  1  0  0  0  0
 11  9  1  0  0  0  0
 12 20  1  1  0  0  0
 13 22  1  6  0  0  0
 13 12  1  0  0  0  0
 14 15  1  0  0  0  0
 16 18  1  0  0  0  0
 17 16  2  0  0  0  0
 19 18  1  0  0  0  0
 20 21  1  0  0  0  0
 22 23  1  0  0  0  0
 23 25  1  0  0  0  0
 23 26  2  0  0  0  0
 24 22  1  0  0  0  0
 27 28  1  0  0  0  0
 29  6  1  0  0  0  0
 29 30  1  0  0  0  0
 31 32  1  0  0  0  0
 32 33  1  0  0  0  0
 33 35  1  0  0  0  0
 34 36  1  0  0  0  0
 34 33  2  0  0  0  0
 36 37  1  0  0  0  0
 37 35  2  0  0  0  0
 38 36  1  0  0  0  0
 39 38  1  0  0  0  0
 40 39  2  0  0  0  0
 41 43  1  6  0  0  0
 41 39  1  0  0  0  0
 42 40  1  0  0  0  0
 44 47  1  0  0  0  0
 44 41  1  0  0  0  0
 45 44  1  0  0  0  0
 45 43  1  1  0  0  0
 45 42  1  0  0  0  0
 46 44  1  0  0  0  0
 48 49  1  0  0  0  0
 50 49  1  0  0  0  0
 50 51  1  0  0  0  0
 52 51  1  0  0  0  0
 52 53  1  0  0  0  0
M  END
>  <REMARK>
 VINA RESULT:    -5.393      2.109      4.582
 INTER + INTRA:         -14.985
 INTER:                  -9.561
 INTRA:                  -5.425
 UNBOUND:                -5.337
 SMILES CC(=O)N[C@@H]1[C@@H](O)C[C@](O)(C(=O)O)O[C@H]1C(O)[C@H](O)CNC(=O)OCc1cn(CC2=CC[C@H]3C[C@@H]2C3(C)C)nn1
 SMILES IDX 21 1 22 2 23 3 20 5 18 6 16 7 15 8 9 9 8 10 14 11 6 12 5 13
 SMILES IDX 10 14 11 16 12 17 13 18 7 20 4 22 2 23 1 25 3 26 17 27 19 29
 SMILES IDX 24 31 25 32 26 33 27 34 40 35 28 36 39 37 29 38 30 39 31 40
 SMILES IDX 35 41 32 42 34 43 36 44 33 45 37 46 38 47
 H PARENT 21 4 10 15 13 19 7 21 4 24 17 28 19 30
 Flexibility Score: inf
  4 active torsions:
  status: ('A' for Active; 'I' for Inactive)
    1  A    between atoms: CA   and  CB  
    2  A    between atoms: CB   and  CG  
    3  A    between atoms: CG   and  CD  
    4  A    between atoms: CD   and  CE  

>  <TORSDO>
F 16

>  <BEGIN_>
RES LYS A 131

$$$$
ligand_82_pose_11_2HRL.pdbqt
 OpenBabel07062320523D

  6  5  0  0  0  0  0  0  0  0999 V2000
   33.1930   34.6630    9.2900 C   0  0  0  0  0  0  0  0  0  0  0  0
   32.0600   35.3600   10.0340 C   0  0  0  0  0  0  0  0  0  0  0  0
   30.7110   35.1720    9.3900 C   0  0  0  0  0  0  0  0  0  0  0  0
   29.8560   36.4180    9.5610 C   0  0  0  0  0  0  0  0  0  0  0  0
   28.6250   36.1100   10.3920 C   0  0  0  0  0  0  0  0  0  0  0  0
   28.5790   34.6700   10.7690 N   0  0  0  0  0  0  0  0  0  0  0  0
  1  2  1  0  0  0  0
  3  4  1  0  0  0  0
  3  2  1  0  0  0  0
  4  5  1  0  0  0  0
  5  6  1  0  0  0  0
M  END
>  <EGIN_R>
ES LYS A 135

>  <REMARK>
  4 active torsions:
  status: ('A' for Active; 'I' for Inactive)
    5  A    between atoms: CA   and  CB  
    6  A    between atoms: CB   and  CG  
    7  A    between atoms: CG   and  CD  
    8  A    between atoms: CD   and  CE  

$$$$
