ligand_2_pose_3_2HRL.pdbqt
 OpenBabel07062320523D

 50 51  0  0  1  0  0  0  0  0999 V2000
   28.3560   29.0040   20.2930 C   0  0  0  0  0  0  0  0  0  0  0  0
   28.0210   27.9250   19.3120 C   0  0  2  0  0  0  0  0  0  0  0  0
   26.4980   27.9320   19.1050 C   0  0  2  0  0  0  0  0  0  0  0  0
   26.1470   28.1010   17.6290 C   0  0  2  0  0  0  0  0  0  0  0  0
   26.7900   30.1880   16.7680 C   0  0  2  0  0  0  0  0  0  0  0  0
   25.6150   30.3350   15.8260 C   0  0  0  0  0  0  0  0  0  0  0  0
   27.1210   28.9180   17.0920 O   0  0  0  0  0  0  0  0  0  0  0  0
   24.7160   29.1620   15.9860 C   0  0  1  0  0  0  0  0  0  0  0  0
   24.8070   28.6750   17.4190 C   0  0  1  0  0  0  0  0  0  0  0  0
   26.5210   31.0150   17.8570 O   0  0  0  0  0  0  0  0  0  0  0  0
   26.3890   31.9240   17.4860 H   0  0  0  0  0  0  0  0  0  0  0  0
   27.9510   30.7800   16.0540 C   0  0  0  0  0  0  0  0  0  0  0  0
   28.7080   30.0090   15.4230 O   0  0  0  0  0  0  0  0  0  0  0  0
   28.2080   32.1230   16.0720 O   0  0  0  0  0  0  0  0  0  0  0  0
   28.2610   32.6160   16.9670 H   0  0  0  0  0  0  0  0  0  0  0  0
   23.4050   29.4100   15.6000 O   0  0  0  0  0  0  0  0  0  0  0  0
   22.8980   29.8210   16.3300 H   0  0  0  0  0  0  0  0  0  0  0  0
   23.6800   27.8410   17.6600 N   0  0  0  0  0  0  0  0  0  0  0  0
   22.7720   28.0480   18.7260 C   0  0  0  0  0  0  0  0  0  0  0  0
   23.5530   27.0400   16.9870 H   0  0  0  0  0  0  0  0  0  0  0  0
   21.6120   27.1610   18.9460 C   0  0  0  0  0  0  0  0  0  0  0  0
   23.0380   29.0410   19.4580 O   0  0  0  0  0  0  0  0  0  0  0  0
   25.9270   28.9680   19.8510 O   0  0  0  0  0  0  0  0  0  0  0  0
   26.1700   28.9010   20.8170 H   0  0  0  0  0  0  0  0  0  0  0  0
   28.4640   26.6810   19.6990 O   0  0  0  0  0  0  0  0  0  0  0  0
   28.9870   26.1800   19.0500 H   0  0  0  0  0  0  0  0  0  0  0  0
   28.4640   30.3250   19.7700 N   0  0  0  0  0  0  0  0  0  0  0  0
   29.6760   30.9540   19.3920 C   0  0  0  0  0  0  0  0  0  0  0  0
   27.5840   30.8990   19.6460 H   0  0  0  0  0  0  0  0  0  0  0  0
   30.7710   30.3750   19.4850 O   0  0  0  0  0  0  0  0  0  0  0  0
   29.6610   32.2720   18.8940 O   0  0  0  0  0  0  0  0  0  0  0  0
   30.8770   32.9950   18.7170 C   0  0  0  0  0  0  0  0  0  0  0  0
   31.0600   33.1720   17.2560 C   0  0  0  0  0  0  0  0  0  0  0  0
   31.1420   34.3630   16.5960 C   0  0  0  0  0  0  0  0  0  0  0  0
   31.1730   32.2130   16.3490 N   0  0  0  0  0  0  0  0  0  0  0  0
   31.3060   34.0800   15.2870 N   0  0  0  0  0  0  0  0  0  0  0  0
   31.3220   32.7660   15.1530 N   0  0  0  0  0  0  0  0  0  0  0  0
   31.4310   35.0860   14.2790 C   0  0  0  0  0  0  0  0  0  0  0  0
   30.4130   35.9910   14.0970 C   0  0  0  0  0  0  0  0  0  0  0  0
   32.5800   35.1030   13.5300 C   0  0  0  0  0  0  0  0  0  0  0  0
   30.5750   36.9470   13.1120 C   0  0  0  0  0  0  0  0  0  0  0  0
   32.7110   36.0710   12.5540 C   0  0  0  0  0  0  0  0  0  0  0  0
   31.7220   36.9970   12.3330 C   0  0  0  0  0  0  0  0  0  0  0  0
   31.9480   38.1930   11.0860 Cl  0  0  0  0  0  0  0  0  0  0  0  0
   29.8670   25.5550   16.9770 C   0  0  0  0  0  0  0  0  0  0  0  0
   28.3450   25.7220   17.0260 C   0  0  0  0  0  0  0  0  0  0  0  0
   27.6010   24.4020   16.8920 C   0  0  0  0  0  0  0  0  0  0  0  0
   26.6880   24.1450   18.0590 C   0  0  0  0  0  0  0  0  0  0  0  0
   25.2580   24.5130   17.6770 C   0  0  0  0  0  0  0  0  0  0  0  0
   24.4100   24.6220   18.8870 N   0  0  0  0  0  0  0  0  0  0  0  0
  2 25  1  0  0  0  0
  2  1  1  1  0  0  0
  3  2  1  0  0  0  0
  3 23  1  1  0  0  0
  4  3  1  1  0  0  0
  5 12  1  6  0  0  0
  5  7  1  0  0  0  0
  5 10  1  0  0  0  0
  6  8  1  0  0  0  0
  6  5  1  0  0  0  0
  7  4  1  0  0  0  0
  8 16  1  1  0  0  0
  8  9  1  0  0  0  0
  9  4  1  0  0  0  0
  9 18  1  6  0  0  0
 11 10  1  0  0  0  0
 12 14  1  0  0  0  0
 13 12  2  0  0  0  0
 14 15  1  0  0  0  0
 16 17  1  0  0  0  0
 18 19  1  0  0  0  0
 19 21  1  0  0  0  0
 19 22  2  0  0  0  0
 20 18  1  0  0  0  0
 23 24  1  0  0  0  0
 26 25  1  0  0  0  0
 27  1  1  0  0  0  0
 28 30  2  0  0  0  0
 28 27  1  0  0  0  0
 29 27  1  0  0  0  0
 31 28  1  0  0  0  0
 32 31  1  0  0  0  0
 33 32  1  0  0  0  0
 34 33  2  0  0  0  0
 35 33  1  0  0  0  0
 36 34  1  0  0  0  0
 37 36  1  0  0  0  0
 37 35  2  0  0  0  0
 38 36  1  0  0  0  0
 39 38  1  0  0  0  0
 40 38  2  0  0  0  0
 41 39  2  0  0  0  0
 42 40  1  0  0  0  0
 43 42  2  0  0  0  0
 43 41  1  0  0  0  0
 44 43  1  0  0  0  0
 45 46  1  0  0  0  0
 47 46  1  0  0  0  0
 47 48  1  0  0  0  0
 49 48  1  0  0  0  0
 49 50  1  0  0  0  0
M  END
>  <REMARK>
 VINA RESULT:    -4.538      3.621      7.090
 INTER + INTRA:         -14.862
 INTER:                  -8.409
 INTRA:                  -6.453
 UNBOUND:                -7.007
 SMILES CC(=O)N[C@@H]1[C@@H](O)C[C@](O)(C(=O)O)O[C@H]1C(O)[C@H](O)CNC(=O)OCc1cn(-c2ccc(Cl)cc2)nn1
 SMILES IDX 20 1 18 2 16 3 15 4 9 5 8 6 14 7 6 8 5 9 10 10 11 12 12 13
 SMILES IDX 13 14 7 16 4 18 2 19 1 21 3 22 17 23 19 25 21 27 22 28 23 30
 SMILES IDX 24 31 25 32 26 33 27 34 37 35 28 36 36 37 29 38 30 39 35 40
 SMILES IDX 31 41 34 42 32 43 33 44
 H PARENT 10 11 13 15 7 17 4 20 17 24 19 26 21 29
 Flexibility Score: inf
  4 active torsions:
  status: ('A' for Active; 'I' for Inactive)
    1  A    between atoms: CA   and  CB  
    2  A    between atoms: CB   and  CG  
    3  A    between atoms: CG   and  CD  
    4  A    between atoms: CD   and  CE  

>  <TORSDO>
F 15

>  <BEGIN_>
RES LYS A 131

$$$$
ligand_2_pose_3_2HRL.pdbqt
 OpenBabel07062320523D

  6  5  0  0  0  0  0  0  0  0999 V2000
   33.1930   34.6630    9.2900 C   0  0  0  0  0  0  0  0  0  0  0  0
   32.0600   35.3600   10.0340 C   0  0  0  0  0  0  0  0  0  0  0  0
   30.7090   34.7390    9.7920 C   0  0  0  0  0  0  0  0  0  0  0  0
   30.5060   34.4530    8.3120 C   0  0  0  0  0  0  0  0  0  0  0  0
   29.4090   35.3330    7.7450 C   0  0  0  0  0  0  0  0  0  0  0  0
   28.0640   34.7520    8.0110 N   0  0  0  0  0  0  0  0  0  0  0  0
  1  2  1  0  0  0  0
  3  2  1  0  0  0  0
  4  3  1  0  0  0  0
  5  6  1  0  0  0  0
  5  4  1  0  0  0  0
M  END
>  <EGIN_R>
ES LYS A 135

>  <REMARK>
  4 active torsions:
  status: ('A' for Active; 'I' for Inactive)
    5  A    between atoms: CA   and  CB  
    6  A    between atoms: CB   and  CG  
    7  A    between atoms: CG   and  CD  
    8  A    between atoms: CD   and  CE  

$$$$
