ligand_66_pose_9_2HRL.pdbqt
 OpenBabel07062320523D

 52 53  0  0  1  0  0  0  0  0999 V2000
   28.8520   26.9850   19.9130 N   0  0  0  0  0  0  0  0  0  0  0  0
   29.2770   27.0740   21.2440 C   0  0  0  0  0  0  0  0  0  0  0  0
   28.5300   27.5490   22.1230 O   0  0  0  0  0  0  0  0  0  0  0  0
   29.5420   26.5640   19.2220 H   0  0  0  0  0  0  0  0  0  0  0  0
   27.5610   27.4230   19.4510 C   0  0  0  0  0  0  0  0  0  0  0  0
   27.6380   28.5960   18.5150 C   0  0  2  0  0  0  0  0  0  0  0  0
   27.5440   29.9310   19.1430 C   0  0  2  0  0  0  0  0  0  0  0  0
   28.0080   31.1010   18.2600 C   0  0  2  0  0  0  0  0  0  0  0  0
   29.0750   31.5390   16.2960 C   0  0  2  0  0  0  0  0  0  0  0  0
   30.2180   32.2200   17.0210 C   0  0  0  0  0  0  0  0  0  0  0  0
   28.5490   30.6000   17.1440 O   0  0  0  0  0  0  0  0  0  0  0  0
   29.7330   32.9310   18.2560 C   0  0  1  0  0  0  0  0  0  0  0  0
   28.7420   32.1230   19.0410 C   0  0  1  0  0  0  0  0  0  0  0  0
   29.6190   30.8880   15.1600 O   0  0  0  0  0  0  0  0  0  0  0  0
   28.9210   31.0060   14.4540 H   0  0  0  0  0  0  0  0  0  0  0  0
   28.1470   32.5530   15.7830 C   0  0  0  0  0  0  0  0  0  0  0  0
   28.5410   33.6700   15.3740 O   0  0  0  0  0  0  0  0  0  0  0  0
   26.7530   32.3590   15.7120 O   0  0  0  0  0  0  0  0  0  0  0  0
   26.4570   31.5880   15.1080 H   0  0  0  0  0  0  0  0  0  0  0  0
   30.8490   33.2220   19.0390 O   0  0  0  0  0  0  0  0  0  0  0  0
   31.4170   32.4380   19.1910 H   0  0  0  0  0  0  0  0  0  0  0  0
   27.8240   33.0290   19.7040 N   0  0  0  0  0  0  0  0  0  0  0  0
   28.0620   33.5340   21.0350 C   0  0  0  0  0  0  0  0  0  0  0  0
   26.9290   33.3800   19.2780 H   0  0  0  0  0  0  0  0  0  0  0  0
   27.0830   34.4660   21.6790 C   0  0  0  0  0  0  0  0  0  0  0  0
   29.0880   33.1970   21.6570 O   0  0  0  0  0  0  0  0  0  0  0  0
   28.2630   30.0320   20.3350 O   0  0  0  0  0  0  0  0  0  0  0  0
   27.7290   29.7850   21.1290 H   0  0  0  0  0  0  0  0  0  0  0  0
   26.7570   28.3620   17.4600 O   0  0  0  0  0  0  0  0  0  0  0  0
   26.1010   27.6860   17.7590 H   0  0  0  0  0  0  0  0  0  0  0  0
   30.5370   26.6480   21.6620 O   0  0  0  0  0  0  0  0  0  0  0  0
   31.6690   27.1400   20.9920 C   0  0  0  0  0  0  0  0  0  0  0  0
   31.6750   28.6140   21.0800 C   0  0  0  0  0  0  0  0  0  0  0  0
   32.1230   29.4040   22.1160 C   0  0  0  0  0  0  0  0  0  0  0  0
   31.2320   29.4620   20.1340 N   0  0  0  0  0  0  0  0  0  0  0  0
   31.9430   30.6930   21.7740 N   0  0  0  0  0  0  0  0  0  0  0  0
   31.3990   30.6810   20.5630 N   0  0  0  0  0  0  0  0  0  0  0  0
   32.2490   31.9020   22.4900 C   0  0  0  0  0  0  0  0  0  0  0  0
   33.5250   32.5090   21.9830 C   0  0  0  0  0  0  0  0  0  0  0  0
   33.5010   33.7380   21.3630 C   0  0  0  0  0  0  0  0  0  0  0  0
   34.7300   31.8740   22.1240 C   0  0  0  0  0  0  0  0  0  0  0  0
   34.6880   34.3120   20.8950 C   0  0  0  0  0  0  0  0  0  0  0  0
   35.9190   32.4100   21.6750 C   0  0  0  0  0  0  0  0  0  0  0  0
   35.8940   33.6390   21.0570 C   0  0  0  0  0  0  0  0  0  0  0  0
   37.1920   31.7660   21.8120 C   0  0  0  0  0  0  0  0  0  0  0  0
   38.2270   31.2410   21.9420 N   0  0  0  0  0  0  0  0  0  0  0  0
   29.8670   25.5550   16.9770 C   0  0  0  0  0  0  0  0  0  0  0  0
   28.3450   25.7220   17.0260 C   0  0  0  0  0  0  0  0  0  0  0  0
   27.6020   24.3980   16.9280 C   0  0  0  0  0  0  0  0  0  0  0  0
   26.1570   24.5300   17.3230 C   0  0  0  0  0  0  0  0  0  0  0  0
   25.9490   23.9200   18.7050 C   0  0  0  0  0  0  0  0  0  0  0  0
   24.7550   24.5080   19.3570 N   0  0  0  0  0  0  0  0  0  0  0  0
  1  2  1  0  0  0  0
  2 31  1  0  0  0  0
  2  3  2  0  0  0  0
  4  1  1  0  0  0  0
  5  1  1  0  0  0  0
  6  7  1  0  0  0  0
  6  5  1  1  0  0  0
  7 27  1  1  0  0  0
  8 13  1  0  0  0  0
  8  7  1  1  0  0  0
  9 14  1  6  0  0  0
  9 10  1  0  0  0  0
  9 11  1  0  0  0  0
 10 12  1  0  0  0  0
 11  8  1  0  0  0  0
 12 20  1  1  0  0  0
 12 13  1  0  0  0  0
 13 22  1  6  0  0  0
 15 14  1  0  0  0  0
 16  9  1  0  0  0  0
 17 16  2  0  0  0  0
 18 16  1  0  0  0  0
 19 18  1  0  0  0  0
 20 21  1  0  0  0  0
 22 23  1  0  0  0  0
 23 26  2  0  0  0  0
 23 25  1  0  0  0  0
 24 22  1  0  0  0  0
 27 28  1  0  0  0  0
 29 30  1  0  0  0  0
 29  6  1  0  0  0  0
 32 33  1  0  0  0  0
 32 31  1  0  0  0  0
 33 34  2  0  0  0  0
 35 37  2  0  0  0  0
 35 33  1  0  0  0  0
 36 34  1  0  0  0  0
 36 38  1  0  0  0  0
 37 36  1  0  0  0  0
 39 41  1  0  0  0  0
 39 38  1  0  0  0  0
 40 39  2  0  0  0  0
 42 44  2  0  0  0  0
 42 40  1  0  0  0  0
 43 45  1  0  0  0  0
 43 41  2  0  0  0  0
 44 43  1  0  0  0  0
 45 46  3  0  0  0  0
 47 48  1  0  0  0  0
 49 48  1  0  0  0  0
 49 50  1  0  0  0  0
 50 51  1  0  0  0  0
 51 52  1  0  0  0  0
M  END
>  <REMARK>
 VINA RESULT:    -5.009      4.446      8.956
 INTER + INTRA:         -14.466
 INTER:                  -7.916
 INTRA:                  -6.550
 UNBOUND:                -5.212
 SMILES CC(=O)N[C@@H]1[C@@H](O)C[C@](O)(C(=O)O)O[C@H]1C(O)[C@H](O)CNC(=O)OCc1cn(Cc2cccc(C#N)c2)nn1
 SMILES IDX 21 1 22 2 23 3 20 5 18 6 16 7 15 8 9 9 8 10 14 11 6 12 5 13
 SMILES IDX 10 14 11 16 12 17 13 18 7 20 4 22 2 23 1 25 3 26 17 27 19 29
 SMILES IDX 24 31 25 32 26 33 27 34 39 35 28 36 38 37 29 38 30 39 31 40
 SMILES IDX 37 41 32 42 34 43 33 44 35 45 36 46
 H PARENT 21 4 10 15 13 19 7 21 4 24 17 28 19 30
 Flexibility Score: inf
  4 active torsions:
  status: ('A' for Active; 'I' for Inactive)
    1  A    between atoms: CA   and  CB  
    2  A    between atoms: CB   and  CG  
    3  A    between atoms: CG   and  CD  
    4  A    between atoms: CD   and  CE  

>  <TORSDO>
F 17

>  <BEGIN_>
RES LYS A 131

$$$$
ligand_66_pose_9_2HRL.pdbqt
 OpenBabel07062320523D

  6  5  0  0  0  0  0  0  0  0999 V2000
   33.1930   34.6630    9.2900 C   0  0  0  0  0  0  0  0  0  0  0  0
   32.0600   35.3600   10.0340 C   0  0  0  0  0  0  0  0  0  0  0  0
   30.8290   35.5750    9.1920 C   0  0  0  0  0  0  0  0  0  0  0  0
   30.2940   34.2480    8.6760 C   0  0  0  0  0  0  0  0  0  0  0  0
   28.8390   34.0710    9.0690 C   0  0  0  0  0  0  0  0  0  0  0  0
   28.0480   35.2940    8.7580 N   0  0  0  0  0  0  0  0  0  0  0  0
  1  2  1  0  0  0  0
  3  2  1  0  0  0  0
  4  5  1  0  0  0  0
  4  3  1  0  0  0  0
  6  5  1  0  0  0  0
M  END
>  <EGIN_R>
ES LYS A 135

>  <REMARK>
  4 active torsions:
  status: ('A' for Active; 'I' for Inactive)
    5  A    between atoms: CA   and  CB  
    6  A    between atoms: CB   and  CG  
    7  A    between atoms: CG   and  CD  
    8  A    between atoms: CD   and  CE  

$$$$
