ligand_79_pose_4_2HRL.pdbqt
 OpenBabel07062320523D

 58 60  0  0  1  0  0  0  0  0999 V2000
   24.8880   33.9980   12.9980 N   0  0  0  0  0  0  0  0  0  0  0  0
   25.2230   34.4310   14.3030 C   0  0  0  0  0  0  0  0  0  0  0  0
   24.4310   34.3030   15.2400 O   0  0  0  0  0  0  0  0  0  0  0  0
   25.6550   34.1500   12.2580 H   0  0  0  0  0  0  0  0  0  0  0  0
   23.6470   33.3930   12.5990 C   0  0  0  0  0  0  0  0  0  0  0  0
   22.7260   34.2550   11.8180 C   0  0  2  0  0  0  0  0  0  0  0  0
   23.4070   35.4590   11.1860 C   0  0  1  0  0  0  0  0  0  0  0  0
   23.2540   35.4610    9.6860 C   0  0  2  0  0  0  0  0  0  0  0  0
   24.1900   37.2700    8.5820 C   0  0  2  0  0  0  0  0  0  0  0  0
   23.0470   37.4160    7.6010 C   0  0  0  0  0  0  0  0  0  0  0  0
   24.3350   35.9600    9.0190 O   0  0  0  0  0  0  0  0  0  0  0  0
   22.0360   36.2980    7.7550 C   0  0  1  0  0  0  0  0  0  0  0  0
   21.9260   36.0510    9.2600 C   0  0  1  0  0  0  0  0  0  0  0  0
   24.0840   38.1460    9.6610 O   0  0  0  0  0  0  0  0  0  0  0  0
   24.0800   37.6440   10.5260 H   0  0  0  0  0  0  0  0  0  0  0  0
   25.4360   37.6290    7.8540 C   0  0  0  0  0  0  0  0  0  0  0  0
   25.9560   38.7760    8.0340 O   0  0  0  0  0  0  0  0  0  0  0  0
   26.0750   36.7810    6.9800 O   0  0  0  0  0  0  0  0  0  0  0  0
   25.9830   35.7730    7.0160 H   0  0  0  0  0  0  0  0  0  0  0  0
   20.8160   36.6090    7.2030 O   0  0  0  0  0  0  0  0  0  0  0  0
   20.4260   37.3770    7.7300 H   0  0  0  0  0  0  0  0  0  0  0  0
   20.8640   35.1310    9.5680 N   0  0  0  0  0  0  0  0  0  0  0  0
   19.5660   35.5820    9.9990 C   0  0  0  0  0  0  0  0  0  0  0  0
   20.9640   34.0890    9.4990 H   0  0  0  0  0  0  0  0  0  0  0  0
   18.4600   34.6800   10.3220 C   0  0  0  0  0  0  0  0  0  0  0  0
   19.4170   36.8420   10.0910 O   0  0  0  0  0  0  0  0  0  0  0  0
   22.7630   36.5770   11.7240 O   0  0  0  0  0  0  0  0  0  0  0  0
   21.7990   36.5710   11.5710 H   0  0  0  0  0  0  0  0  0  0  0  0
   21.7170   34.7530   12.6200 O   0  0  0  0  0  0  0  0  0  0  0  0
   21.5110   35.6720   12.3080 H   0  0  0  0  0  0  0  0  0  0  0  0
   26.4560   35.0180   14.5930 O   0  0  0  0  0  0  0  0  0  0  0  0
   27.0450   35.9250   13.7090 C   0  0  0  0  0  0  0  0  0  0  0  0
   28.4560   35.5460   13.4380 C   0  0  0  0  0  0  0  0  0  0  0  0
   29.5800   36.2820   13.7790 C   0  0  0  0  0  0  0  0  0  0  0  0
   28.9420   34.4450   12.8280 N   0  0  0  0  0  0  0  0  0  0  0  0
   30.6840   35.6220   13.3750 N   0  0  0  0  0  0  0  0  0  0  0  0
   30.2610   34.5100   12.8000 N   0  0  0  0  0  0  0  0  0  0  0  0
   32.0780   36.0730   13.5510 C   0  0  0  0  0  0  0  0  0  0  0  0
   32.7000   36.2720   12.2120 C   0  0  0  0  0  0  0  0  0  0  0  0
   31.9300   37.4170   14.2890 C   0  0  0  0  0  0  0  0  0  0  0  0
   32.7340   35.1230   14.4460 C   0  0  0  0  0  0  0  0  0  0  0  0
   33.8050   34.5160   14.0910 O   0  0  0  0  0  0  0  0  0  0  0  0
   32.2660   34.7660   15.7800 C   0  0  0  0  0  0  0  0  0  0  0  0
   32.4240   35.5570   16.9180 C   0  0  0  0  0  0  0  0  0  0  0  0
   31.6310   33.5990   16.1150 C   0  0  0  0  0  0  0  0  0  0  0  0
   31.8900   34.8700   17.9260 N   0  0  0  0  0  0  0  0  0  0  0  0
   31.4020   33.6890   17.4910 C   0  0  0  0  0  0  0  0  0  0  0  0
   31.2120   32.4710   15.4140 C   0  0  0  0  0  0  0  0  0  0  0  0
   31.8470   35.1820   18.9070 H   0  0  0  0  0  0  0  0  0  0  0  0
   30.7590   32.6380   18.1150 C   0  0  0  0  0  0  0  0  0  0  0  0
   30.5800   31.4520   16.0630 C   0  0  0  0  0  0  0  0  0  0  0  0
   30.3540   31.5330   17.4050 C   0  0  0  0  0  0  0  0  0  0  0  0
   29.8670   25.5550   16.9770 C   0  0  0  0  0  0  0  0  0  0  0  0
   28.3450   25.7220   17.0260 C   0  0  0  0  0  0  0  0  0  0  0  0
   27.6010   24.4020   16.8920 C   0  0  0  0  0  0  0  0  0  0  0  0
   26.5970   24.2040   17.9940 C   0  0  0  0  0  0  0  0  0  0  0  0
   25.2200   23.9520   17.3880 C   0  0  0  0  0  0  0  0  0  0  0  0
   24.8260   22.5340   17.5650 N   0  0  0  0  0  0  0  0  0  0  0  0
  1  2  1  0  0  0  0
  2 31  1  0  0  0  0
  2  3  2  0  0  0  0
  4  1  1  0  0  0  0
  5  1  1  0  0  0  0
  6  5  1  1  0  0  0
  6 29  1  0  0  0  0
  7 27  1  1  0  0  0
  7  6  1  0  0  0  0
  8  7  1  1  0  0  0
  9 16  1  6  0  0  0
  9 11  1  0  0  0  0
  9 14  1  0  0  0  0
 10 12  1  0  0  0  0
 10  9  1  0  0  0  0
 11  8  1  0  0  0  0
 12 20  1  1  0  0  0
 12 13  1  0  0  0  0
 13 22  1  6  0  0  0
 13  8  1  0  0  0  0
 14 15  1  0  0  0  0
 16 17  2  0  0  0  0
 18 19  1  0  0  0  0
 18 16  1  0  0  0  0
 20 21  1  0  0  0  0
 22 23  1  0  0  0  0
 23 26  2  0  0  0  0
 23 25  1  0  0  0  0
 24 22  1  0  0  0  0
 28 27  1  0  0  0  0
 30 29  1  0  0  0  0
 32 31  1  0  0  0  0
 33 32  1  0  0  0  0
 33 34  2  0  0  0  0
 35 33  1  0  0  0  0
 36 38  1  0  0  0  0
 36 34  1  0  0  0  0
 37 35  2  0  0  0  0
 37 36  1  0  0  0  0
 38 40  1  0  0  0  0
 38 41  1  0  0  0  0
 39 38  1  0  0  0  0
 41 43  1  0  0  0  0
 42 41  2  0  0  0  0
 43 45  1  0  0  0  0
 43 44  2  0  0  0  0
 44 46  1  0  0  0  0
 45 47  2  0  0  0  0
 46 49  1  0  0  0  0
 47 46  1  0  0  0  0
 47 50  1  0  0  0  0
 48 51  2  0  0  0  0
 48 45  1  0  0  0  0
 51 52  1  0  0  0  0
 52 50  2  0  0  0  0
 53 54  1  0  0  0  0
 55 54  1  0  0  0  0
 55 56  1  0  0  0  0
 57 58  1  0  0  0  0
 57 56  1  0  0  0  0
M  END
>  <REMARK>
 VINA RESULT:    -6.341      2.231      4.271
 INTER + INTRA:         -16.494
 INTER:                 -11.227
 INTRA:                  -5.267
 UNBOUND:                -4.777
 SMILES CC(=O)N[C@@H]1[C@@H](O)C[C@](O)(C(=O)O)O[C@H]1C(O)[C@H](O)CNC(=O)OCc1cn(C(C)(C)C(=O)c2c[nH]c3ccccc23)nn1
 SMILES IDX 21 1 22 2 23 3 20 5 18 6 16 7 15 8 9 9 8 10 14 11 6 12 5 13
 SMILES IDX 10 14 11 16 12 17 13 18 7 20 4 22 2 23 1 25 3 26 17 27 19 29
 SMILES IDX 24 31 25 32 26 33 27 34 44 35 28 36 43 37 29 38 30 39 31 40
 SMILES IDX 32 41 33 42 34 43 35 44 42 45 36 46 37 47 41 48 38 50 40 51
 SMILES IDX 39 52
 H PARENT 21 4 10 15 13 19 7 21 4 24 17 28 19 30 36 49
 Flexibility Score: inf
  4 active torsions:
  status: ('A' for Active; 'I' for Inactive)
    1  A    between atoms: CA   and  CB  
    2  A    between atoms: CB   and  CG  
    3  A    between atoms: CG   and  CD  
    4  A    between atoms: CD   and  CE  

>  <TORSDO>
F 17

>  <BEGIN_>
RES LYS A 131

$$$$
ligand_79_pose_4_2HRL.pdbqt
 OpenBabel07062320523D

  6  5  0  0  0  0  0  0  0  0999 V2000
   33.1930   34.6630    9.2900 C   0  0  0  0  0  0  0  0  0  0  0  0
   32.0600   35.3600   10.0340 C   0  0  0  0  0  0  0  0  0  0  0  0
   30.7840   35.4530    9.2380 C   0  0  0  0  0  0  0  0  0  0  0  0
   30.1480   34.0800    9.0810 C   0  0  0  0  0  0  0  0  0  0  0  0
   28.6410   34.2010    8.9610 C   0  0  0  0  0  0  0  0  0  0  0  0
   28.1650   35.5120    9.4840 N   0  0  0  0  0  0  0  0  0  0  0  0
  1  2  1  0  0  0  0
  3  2  1  0  0  0  0
  4  3  1  0  0  0  0
  5  4  1  0  0  0  0
  5  6  1  0  0  0  0
M  END
>  <EGIN_R>
ES LYS A 135

>  <REMARK>
  4 active torsions:
  status: ('A' for Active; 'I' for Inactive)
    5  A    between atoms: CA   and  CB  
    6  A    between atoms: CB   and  CG  
    7  A    between atoms: CG   and  CD  
    8  A    between atoms: CD   and  CE  

$$$$
