ligand_19_pose_15_2HRL.pdbqt
 OpenBabel07062320523D

 49 49  0  0  1  0  0  0  0  0999 V2000
   31.2770   30.2050   22.3530 N   0  0  0  0  0  0  0  0  0  0  0  0
   32.4530   30.7050   21.7490 C   0  0  0  0  0  0  0  0  0  0  0  0
   33.3970   29.9460   21.4850 O   0  0  0  0  0  0  0  0  0  0  0  0
   30.5240   30.9210   22.5480 H   0  0  0  0  0  0  0  0  0  0  0  0
   31.0500   28.8200   22.7040 C   0  0  0  0  0  0  0  0  0  0  0  0
   29.6330   28.4260   22.5220 C   0  0  2  0  0  0  0  0  0  0  0  0
   29.1040   28.4660   21.1060 C   0  0  2  0  0  0  0  0  0  0  0  0
   28.2060   27.3260   20.7310 C   0  0  2  0  0  0  0  0  0  0  0  0
   27.3180   28.4940   18.9250 C   0  0  2  0  0  0  0  0  0  0  0  0
   26.3330   29.1300   19.8280 C   0  0  0  0  0  0  0  0  0  0  0  0
   27.8980   27.3350   19.3720 O   0  0  0  0  0  0  0  0  0  0  0  0
   26.0310   28.4220   21.0990 C   0  0  1  0  0  0  0  0  0  0  0  0
   26.8880   27.2510   21.4330 C   0  0  1  0  0  0  0  0  0  0  0  0
   28.3840   29.3710   18.6090 O   0  0  0  0  0  0  0  0  0  0  0  0
   28.8960   29.0500   17.8300 H   0  0  0  0  0  0  0  0  0  0  0  0
   26.6940   28.1770   17.6100 C   0  0  0  0  0  0  0  0  0  0  0  0
   27.3930   28.1370   16.5410 O   0  0  0  0  0  0  0  0  0  0  0  0
   25.3440   27.9060   17.4430 O   0  0  0  0  0  0  0  0  0  0  0  0
   24.7210   28.1350   18.2240 H   0  0  0  0  0  0  0  0  0  0  0  0
   26.1330   29.3450   22.1440 O   0  0  0  0  0  0  0  0  0  0  0  0
   26.0010   30.2830   21.8030 H   0  0  0  0  0  0  0  0  0  0  0  0
   26.3060   25.9740   21.0940 N   0  0  0  0  0  0  0  0  0  0  0  0
   25.5790   25.1970   22.0010 C   0  0  0  0  0  0  0  0  0  0  0  0
   26.4500   25.6360   20.1240 H   0  0  0  0  0  0  0  0  0  0  0  0
   24.9680   23.8820   21.6790 C   0  0  0  0  0  0  0  0  0  0  0  0
   25.4400   25.6490   23.1540 O   0  0  0  0  0  0  0  0  0  0  0  0
   30.2960   28.2040   20.3270 O   0  0  0  0  0  0  0  0  0  0  0  0
   30.1410   28.7690   19.5100 H   0  0  0  0  0  0  0  0  0  0  0  0
   28.7260   28.8290   23.4550 O   0  0  0  0  0  0  0  0  0  0  0  0
   29.1170   29.0320   24.3180 H   0  0  0  0  0  0  0  0  0  0  0  0
   32.5660   32.0790   21.4380 O   0  0  0  0  0  0  0  0  0  0  0  0
   31.4040   32.8180   21.0590 C   0  0  0  0  0  0  0  0  0  0  0  0
   31.0240   32.3960   19.6970 C   0  0  0  0  0  0  0  0  0  0  0  0
   30.9980   33.2060   18.5730 C   0  0  0  0  0  0  0  0  0  0  0  0
   30.6330   31.1810   19.2890 N   0  0  0  0  0  0  0  0  0  0  0  0
   30.5950   32.4530   17.5390 N   0  0  0  0  0  0  0  0  0  0  0  0
   30.3820   31.2410   17.9960 N   0  0  0  0  0  0  0  0  0  0  0  0
   30.4380   32.9310   16.1840 C   0  0  0  0  0  0  0  0  0  0  0  0
   29.4730   32.0190   15.4650 C   0  0  0  0  0  0  0  0  0  0  0  0
   28.1770   32.5360   15.5560 O   0  0  0  0  0  0  0  0  0  0  0  0
   27.1810   31.8670   16.2050 C   0  0  0  0  0  0  0  0  0  0  0  0
   27.1530   31.7920   17.4480 O   0  0  0  0  0  0  0  0  0  0  0  0
   26.0810   31.1980   15.4280 C   0  0  0  0  0  0  0  0  0  0  0  0
   29.8670   25.5550   16.9770 C   0  0  0  0  0  0  0  0  0  0  0  0
   28.3450   25.7220   17.0260 C   0  0  0  0  0  0  0  0  0  0  0  0
   27.6010   24.4020   16.8930 C   0  0  0  0  0  0  0  0  0  0  0  0
   26.5430   24.2400   17.9490 C   0  0  0  0  0  0  0  0  0  0  0  0
   25.1630   24.3480   17.3070 C   0  0  0  0  0  0  0  0  0  0  0  0
   24.1560   24.7680   18.3090 N   0  0  0  0  0  0  0  0  0  0  0  0
  1  4  1  0  0  0  0
  1  5  1  0  0  0  0
  2  1  1  0  0  0  0
  3  2  2  0  0  0  0
  6  5  1  6  0  0  0
  6 29  1  0  0  0  0
  7 27  1  6  0  0  0
  7  6  1  0  0  0  0
  8  7  1  1  0  0  0
  8 13  1  0  0  0  0
  9 16  1  6  0  0  0
  9 11  1  0  0  0  0
  9 10  1  0  0  0  0
 10 12  1  0  0  0  0
 11  8  1  0  0  0  0
 12 13  1  0  0  0  0
 12 20  1  1  0  0  0
 13 22  1  6  0  0  0
 14  9  1  0  0  0  0
 15 14  1  0  0  0  0
 17 16  2  0  0  0  0
 18 16  1  0  0  0  0
 18 19  1  0  0  0  0
 21 20  1  0  0  0  0
 22 23  1  0  0  0  0
 23 26  2  0  0  0  0
 24 22  1  0  0  0  0
 25 23  1  0  0  0  0
 28 27  1  0  0  0  0
 29 30  1  0  0  0  0
 31  2  1  0  0  0  0
 32 31  1  0  0  0  0
 33 32  1  0  0  0  0
 34 33  2  0  0  0  0
 35 33  1  0  0  0  0
 36 37  1  0  0  0  0
 36 34  1  0  0  0  0
 37 35  2  0  0  0  0
 38 36  1  0  0  0  0
 39 40  1  0  0  0  0
 39 38  1  0  0  0  0
 40 41  1  0  0  0  0
 41 42  2  0  0  0  0
 43 41  1  0  0  0  0
 44 45  1  0  0  0  0
 46 45  1  0  0  0  0
 46 47  1  0  0  0  0
 48 47  1  0  0  0  0
 48 49  1  0  0  0  0
M  END
>  <REMARK>
 VINA RESULT:    -3.989      2.751      5.731
 INTER + INTRA:         -13.663
 INTER:                  -7.140
 INTRA:                  -6.522
 UNBOUND:                -6.059
 SMILES CC(=O)N[C@@H]1[C@@H](O)C[C@](O)(C(=O)O)O[C@H]1C(O)[C@H](O)CNC(=O)OCc1cn(CCOC(C)=O)nn1
 SMILES IDX 21 1 22 2 23 3 20 5 18 6 16 7 15 8 9 9 8 10 14 11 6 12 5 13
 SMILES IDX 10 14 11 16 12 17 13 18 7 20 4 22 2 23 1 25 3 26 17 27 19 29
 SMILES IDX 24 31 25 32 26 33 27 34 36 35 28 36 35 37 29 38 30 39 31 40
 SMILES IDX 32 41 34 42 33 43
 H PARENT 21 4 10 15 13 19 7 21 4 24 17 28 19 30
 Flexibility Score: inf
  4 active torsions:
  status: ('A' for Active; 'I' for Inactive)
    1  A    between atoms: CA   and  CB  
    2  A    between atoms: CB   and  CG  
    3  A    between atoms: CG   and  CD  
    4  A    between atoms: CD   and  CE  

>  <TORSDO>
F 18

>  <BEGIN_>
RES LYS A 131

$$$$
ligand_19_pose_15_2HRL.pdbqt
 OpenBabel07062320523D

  6  5  0  0  0  0  0  0  0  0999 V2000
   33.1930   34.6630    9.2900 C   0  0  0  0  0  0  0  0  0  0  0  0
   32.0600   35.3600   10.0340 C   0  0  0  0  0  0  0  0  0  0  0  0
   30.7210   34.6920    9.8550 C   0  0  0  0  0  0  0  0  0  0  0  0
   30.2650   34.7820    8.4070 C   0  0  0  0  0  0  0  0  0  0  0  0
   28.7710   34.5440    8.3030 C   0  0  0  0  0  0  0  0  0  0  0  0
   28.2520   33.8540    9.5170 N   0  0  0  0  0  0  0  0  0  0  0  0
  1  2  1  0  0  0  0
  3  2  1  0  0  0  0
  4  3  1  0  0  0  0
  5  4  1  0  0  0  0
  5  6  1  0  0  0  0
M  END
>  <EGIN_R>
ES LYS A 135

>  <REMARK>
  4 active torsions:
  status: ('A' for Active; 'I' for Inactive)
    5  A    between atoms: CA   and  CB  
    6  A    between atoms: CB   and  CG  
    7  A    between atoms: CG   and  CD  
    8  A    between atoms: CD   and  CE  

$$$$
