ligand_93_pose_0_2HRL.pdbqt
 OpenBabel07062320523D

 50 51  0  0  1  0  0  0  0  0999 V2000
   30.5800   32.9260   14.6570 C   0  0  0  0  0  0  0  0  0  0  0  0
   31.4950   32.8990   15.8590 C   0  0  2  0  0  0  0  0  0  0  0  0
   30.7100   32.8070   17.1200 C   0  0  1  0  0  0  0  0  0  0  0  0
   30.4100   31.4140   17.6090 C   0  0  2  0  0  0  0  0  0  0  0  0
   28.1790   30.7970   17.1640 C   0  0  2  0  0  0  0  0  0  0  0  0
   27.9570   30.4480   18.6210 C   0  0  0  0  0  0  0  0  0  0  0  0
   29.4710   30.8880   16.7860 O   0  0  0  0  0  0  0  0  0  0  0  0
   28.7680   31.4220   19.4350 C   0  0  1  0  0  0  0  0  0  0  0  0
   30.2180   31.2460   19.0630 C   0  0  1  0  0  0  0  0  0  0  0  0
   27.5730   32.0400   16.9770 O   0  0  0  0  0  0  0  0  0  0  0  0
   26.6000   31.9160   17.1940 H   0  0  0  0  0  0  0  0  0  0  0  0
   27.4040   29.8020   16.3580 C   0  0  0  0  0  0  0  0  0  0  0  0
   27.4600   28.5690   16.5570 O   0  0  0  0  0  0  0  0  0  0  0  0
   26.5930   30.2710   15.3470 O   0  0  0  0  0  0  0  0  0  0  0  0
   26.1500   31.1920   15.3710 H   0  0  0  0  0  0  0  0  0  0  0  0
   28.2820   32.6970   19.1360 O   0  0  0  0  0  0  0  0  0  0  0  0
   27.3000   32.7550   19.2350 H   0  0  0  0  0  0  0  0  0  0  0  0
   30.5870   29.8770   19.4660 N   0  0  0  0  0  0  0  0  0  0  0  0
   31.4740   29.6260   20.5410 C   0  0  0  0  0  0  0  0  0  0  0  0
   30.1940   29.0620   18.9540 H   0  0  0  0  0  0  0  0  0  0  0  0
   31.7940   28.2220   20.8840 C   0  0  0  0  0  0  0  0  0  0  0  0
   31.9880   30.5770   21.2030 O   0  0  0  0  0  0  0  0  0  0  0  0
   31.1720   33.6650   18.1080 O   0  0  0  0  0  0  0  0  0  0  0  0
   30.6050   34.4840   18.1800 H   0  0  0  0  0  0  0  0  0  0  0  0
   32.2310   34.1110   15.7970 O   0  0  0  0  0  0  0  0  0  0  0  0
   33.2040   33.9010   15.8230 H   0  0  0  0  0  0  0  0  0  0  0  0
   29.3130   33.5780   14.9020 N   0  0  0  0  0  0  0  0  0  0  0  0
   28.9190   34.6600   14.0540 C   0  0  0  0  0  0  0  0  0  0  0  0
   28.7220   33.2400   15.6800 H   0  0  0  0  0  0  0  0  0  0  0  0
   29.6840   35.0010   13.1360 O   0  0  0  0  0  0  0  0  0  0  0  0
   27.7010   35.2670   14.3100 O   0  0  0  0  0  0  0  0  0  0  0  0
   26.6600   35.1160   13.3800 C   0  0  0  0  0  0  0  0  0  0  0  0
   25.8340   33.9570   13.7980 C   0  0  0  0  0  0  0  0  0  0  0  0
   25.0480   33.1980   12.9230 C   0  0  0  0  0  0  0  0  0  0  0  0
   25.6610   33.4140   15.0080 N   0  0  0  0  0  0  0  0  0  0  0  0
   24.4700   32.2630   13.6840 N   0  0  0  0  0  0  0  0  0  0  0  0
   24.8340   32.3840   14.9460 N   0  0  0  0  0  0  0  0  0  0  0  0
   23.5830   31.2670   13.2080 C   0  0  0  0  0  0  0  0  0  0  0  0
   24.0640   29.9740   13.0110 C   0  0  0  0  0  0  0  0  0  0  0  0
   22.2790   31.5940   12.9530 C   0  0  0  0  0  0  0  0  0  0  0  0
   23.2070   28.9980   12.5480 C   0  0  0  0  0  0  0  0  0  0  0  0
   21.4360   30.6020   12.4880 C   0  0  0  0  0  0  0  0  0  0  0  0
   21.5070   33.5330   13.2330 I   0  0  0  0  0  0  0  0  0  0  0  0
   21.8920   29.3110   12.2860 C   0  0  0  0  0  0  0  0  0  0  0  0
   29.8670   25.5550   16.9770 C   0  0  0  0  0  0  0  0  0  0  0  0
   28.3450   25.7220   17.0260 C   0  0  0  0  0  0  0  0  0  0  0  0
   27.6010   24.4000   16.9080 C   0  0  0  0  0  0  0  0  0  0  0  0
   26.5310   24.2580   17.9540 C   0  0  0  0  0  0  0  0  0  0  0  0
   25.2100   24.7870   17.4060 C   0  0  0  0  0  0  0  0  0  0  0  0
   24.8280   26.0430   18.0940 N   0  0  0  0  0  0  0  0  0  0  0  0
  1 27  1  0  0  0  0
  2  1  1  6  0  0  0
  2  3  1  0  0  0  0
  3 23  1  1  0  0  0
  4  3  1  1  0  0  0
  4  9  1  0  0  0  0
  5 12  1  6  0  0  0
  5  6  1  0  0  0  0
  6  8  1  0  0  0  0
  7  5  1  0  0  0  0
  7  4  1  0  0  0  0
  8 16  1  6  0  0  0
  9  8  1  0  0  0  0
  9 18  1  6  0  0  0
 10  5  1  0  0  0  0
 10 11  1  0  0  0  0
 12 13  2  0  0  0  0
 14 15  1  0  0  0  0
 14 12  1  0  0  0  0
 16 17  1  0  0  0  0
 18 19  1  0  0  0  0
 19 21  1  0  0  0  0
 19 22  2  0  0  0  0
 20 18  1  0  0  0  0
 23 24  1  0  0  0  0
 25 26  1  0  0  0  0
 25  2  1  0  0  0  0
 27 29  1  0  0  0  0
 28 31  1  0  0  0  0
 28 27  1  0  0  0  0
 30 28  2  0  0  0  0
 32 33  1  0  0  0  0
 32 31  1  0  0  0  0
 33 35  1  0  0  0  0
 34 36  1  0  0  0  0
 34 33  2  0  0  0  0
 36 37  1  0  0  0  0
 37 35  2  0  0  0  0
 38 36  1  0  0  0  0
 39 38  1  0  0  0  0
 40 38  2  0  0  0  0
 40 43  1  0  0  0  0
 41 39  2  0  0  0  0
 42 40  1  0  0  0  0
 44 42  2  0  0  0  0
 44 41  1  0  0  0  0
 45 46  1  0  0  0  0
 47 46  1  0  0  0  0
 47 48  1  0  0  0  0
 49 48  1  0  0  0  0
 49 50  1  0  0  0  0
M  END
>  <REMARK>
 VINA RESULT:    -5.003      0.000      0.000
 INTER + INTRA:         -14.944
 INTER:                  -9.395
 INTRA:                  -5.548
 UNBOUND:                -6.285
 SMILES CC(=O)N[C@@H]1[C@@H](O)C[C@](O)(C(=O)O)O[C@H]1C(O)[C@H](O)CNC(=O)OCc1cn(-c2ccccc2I)nn1
 SMILES IDX 20 1 18 2 16 3 15 4 9 5 8 6 14 7 6 8 5 9 10 10 11 12 12 13
 SMILES IDX 13 14 7 16 4 18 2 19 1 21 3 22 17 23 19 25 21 27 22 28 23 30
 SMILES IDX 24 31 25 32 26 33 27 34 37 35 28 36 36 37 29 38 30 39 34 40
 SMILES IDX 31 41 33 42 35 43 32 44
 H PARENT 10 11 13 15 7 17 4 20 17 24 19 26 21 29
 Flexibility Score: inf
  4 active torsions:
  status: ('A' for Active; 'I' for Inactive)
    1  A    between atoms: CA   and  CB  
    2  A    between atoms: CB   and  CG  
    3  A    between atoms: CG   and  CD  
    4  A    between atoms: CD   and  CE  

>  <TORSDO>
F 15

>  <BEGIN_>
RES LYS A 131

$$$$
ligand_93_pose_0_2HRL.pdbqt
 OpenBabel07062320523D

  6  5  0  0  0  0  0  0  0  0999 V2000
   33.1930   34.6630    9.2900 C   0  0  0  0  0  0  0  0  0  0  0  0
   32.0600   35.3600   10.0340 C   0  0  0  0  0  0  0  0  0  0  0  0
   30.7750   35.4270    9.2490 C   0  0  0  0  0  0  0  0  0  0  0  0
   30.1990   34.0350    9.0440 C   0  0  0  0  0  0  0  0  0  0  0  0
   28.7110   34.0250    9.3380 C   0  0  0  0  0  0  0  0  0  0  0  0
   28.2710   35.3250    9.9180 N   0  0  0  0  0  0  0  0  0  0  0  0
  1  2  1  0  0  0  0
  3  2  1  0  0  0  0
  4  3  1  0  0  0  0
  4  5  1  0  0  0  0
  5  6  1  0  0  0  0
M  END
>  <EGIN_R>
ES LYS A 135

>  <REMARK>
  4 active torsions:
  status: ('A' for Active; 'I' for Inactive)
    5  A    between atoms: CA   and  CB  
    6  A    between atoms: CB   and  CG  
    7  A    between atoms: CG   and  CD  
    8  A    between atoms: CD   and  CE  

$$$$
