ligand_79_pose_16_2HRL.pdbqt
 OpenBabel07062320523D

 58 60  0  0  1  0  0  0  0  0999 V2000
   21.0460   34.7780   10.5150 N   0  0  0  0  0  0  0  0  0  0  0  0
   21.0530   35.1330   11.8850 C   0  0  0  0  0  0  0  0  0  0  0  0
   20.7970   36.2840   12.2480 O   0  0  0  0  0  0  0  0  0  0  0  0
   21.2760   33.7470   10.3120 H   0  0  0  0  0  0  0  0  0  0  0  0
   20.7650   35.6590    9.4140 C   0  0  0  0  0  0  0  0  0  0  0  0
   21.7830   35.6950    8.3360 C   0  0  2  0  0  0  0  0  0  0  0  0
   23.0470   36.4500    8.7150 C   0  0  1  0  0  0  0  0  0  0  0  0
   23.3860   37.5130    7.7020 C   0  0  2  0  0  0  0  0  0  0  0  0
   25.5440   38.3500    7.8060 C   0  0  2  0  0  0  0  0  0  0  0  0
   25.1300   39.7820    7.5450 C   0  0  0  0  0  0  0  0  0  0  0  0
   24.6640   37.4420    7.2300 O   0  0  0  0  0  0  0  0  0  0  0  0
   23.6500   39.8850    7.2350 C   0  0  1  0  0  0  0  0  0  0  0  0
   22.9660   38.8890    8.1740 C   0  0  1  0  0  0  0  0  0  0  0  0
   25.7190   38.0820    9.1630 O   0  0  0  0  0  0  0  0  0  0  0  0
   26.5560   37.5570    9.3160 H   0  0  0  0  0  0  0  0  0  0  0  0
   26.8660   38.1540    7.1520 C   0  0  0  0  0  0  0  0  0  0  0  0
   27.9100   38.6270    7.7020 O   0  0  0  0  0  0  0  0  0  0  0  0
   27.0320   37.4780    5.9660 O   0  0  0  0  0  0  0  0  0  0  0  0
   27.1730   37.9420    5.0770 H   0  0  0  0  0  0  0  0  0  0  0  0
   23.1620   41.1590    7.4070 O   0  0  0  0  0  0  0  0  0  0  0  0
   23.9470   41.7670    7.5890 H   0  0  0  0  0  0  0  0  0  0  0  0
   21.5340   39.0080    8.1150 N   0  0  0  0  0  0  0  0  0  0  0  0
   20.7560   39.4180    9.2550 C   0  0  0  0  0  0  0  0  0  0  0  0
   20.9720   38.8050    7.2520 H   0  0  0  0  0  0  0  0  0  0  0  0
   19.2990   39.5510    9.2380 C   0  0  0  0  0  0  0  0  0  0  0  0
   21.4120   39.6700   10.3160 O   0  0  0  0  0  0  0  0  0  0  0  0
   22.7680   37.0480    9.9470 O   0  0  0  0  0  0  0  0  0  0  0  0
   22.1190   37.7750    9.8790 H   0  0  0  0  0  0  0  0  0  0  0  0
   21.2820   36.3120    7.2050 O   0  0  0  0  0  0  0  0  0  0  0  0
   22.0440   36.7400    6.7340 H   0  0  0  0  0  0  0  0  0  0  0  0
   21.3480   34.2060   12.8870 O   0  0  0  0  0  0  0  0  0  0  0  0
   22.1380   33.0850   12.6180 C   0  0  0  0  0  0  0  0  0  0  0  0
   23.5520   33.3440   12.9900 C   0  0  0  0  0  0  0  0  0  0  0  0
   24.4000   34.2630   12.3900 C   0  0  0  0  0  0  0  0  0  0  0  0
   24.3000   32.7730   13.9560 N   0  0  0  0  0  0  0  0  0  0  0  0
   25.6030   34.2190   12.9940 N   0  0  0  0  0  0  0  0  0  0  0  0
   25.5100   33.3030   13.9420 N   0  0  0  0  0  0  0  0  0  0  0  0
   26.7790   35.0420   12.6490 C   0  0  0  0  0  0  0  0  0  0  0  0
   27.4390   34.4700   11.4420 C   0  0  0  0  0  0  0  0  0  0  0  0
   26.1710   36.4230   12.3360 C   0  0  0  0  0  0  0  0  0  0  0  0
   27.5980   35.1590   13.8530 C   0  0  0  0  0  0  0  0  0  0  0  0
   27.1940   35.8380   14.8620 O   0  0  0  0  0  0  0  0  0  0  0  0
   28.9110   34.5500   14.0380 C   0  0  0  0  0  0  0  0  0  0  0  0
   30.0760   34.9580   13.3900 C   0  0  0  0  0  0  0  0  0  0  0  0
   29.1830   33.4790   14.8480 C   0  0  0  0  0  0  0  0  0  0  0  0
   31.0390   34.1390   13.8070 N   0  0  0  0  0  0  0  0  0  0  0  0
   30.5500   33.2350   14.6830 C   0  0  0  0  0  0  0  0  0  0  0  0
   28.4360   32.6850   15.7140 C   0  0  0  0  0  0  0  0  0  0  0  0
   32.0260   34.1760   13.5120 H   0  0  0  0  0  0  0  0  0  0  0  0
   31.1170   32.1970   15.3950 C   0  0  0  0  0  0  0  0  0  0  0  0
   29.0300   31.6680   16.4020 C   0  0  0  0  0  0  0  0  0  0  0  0
   30.3620   31.4240   16.2440 C   0  0  0  0  0  0  0  0  0  0  0  0
   29.8670   25.5550   16.9770 C   0  0  0  0  0  0  0  0  0  0  0  0
   28.3450   25.7220   17.0260 C   0  0  0  0  0  0  0  0  0  0  0  0
   27.6010   24.4010   16.9030 C   0  0  0  0  0  0  0  0  0  0  0  0
   26.2970   24.4130   17.6510 C   0  0  0  0  0  0  0  0  0  0  0  0
   26.2100   25.6770   18.5000 C   0  0  0  0  0  0  0  0  0  0  0  0
   25.6280   25.3710   19.8290 N   0  0  0  0  0  0  0  0  0  0  0  0
  1  2  1  0  0  0  0
  2  3  2  0  0  0  0
  2 31  1  0  0  0  0
  4  1  1  0  0  0  0
  5  1  1  0  0  0  0
  6  7  1  0  0  0  0
  6  5  1  1  0  0  0
  7 27  1  1  0  0  0
  8 13  1  0  0  0  0
  8  7  1  1  0  0  0
  9 16  1  6  0  0  0
  9 14  1  0  0  0  0
 10  9  1  0  0  0  0
 11  8  1  0  0  0  0
 11  9  1  0  0  0  0
 12 20  1  1  0  0  0
 12 10  1  0  0  0  0
 12 13  1  0  0  0  0
 13 22  1  6  0  0  0
 14 15  1  0  0  0  0
 16 17  2  0  0  0  0
 18 16  1  0  0  0  0
 19 18  1  0  0  0  0
 20 21  1  0  0  0  0
 22 23  1  0  0  0  0
 23 26  2  0  0  0  0
 24 22  1  0  0  0  0
 25 23  1  0  0  0  0
 28 27  1  0  0  0  0
 29  6  1  0  0  0  0
 30 29  1  0  0  0  0
 32 31  1  0  0  0  0
 32 33  1  0  0  0  0
 33 35  1  0  0  0  0
 34 33  2  0  0  0  0
 34 36  1  0  0  0  0
 36 37  1  0  0  0  0
 37 35  2  0  0  0  0
 38 36  1  0  0  0  0
 38 41  1  0  0  0  0
 39 38  1  0  0  0  0
 40 38  1  0  0  0  0
 41 43  1  0  0  0  0
 41 42  2  0  0  0  0
 43 45  1  0  0  0  0
 44 46  1  0  0  0  0
 44 43  2  0  0  0  0
 45 48  1  0  0  0  0
 46 47  1  0  0  0  0
 47 45  2  0  0  0  0
 47 50  1  0  0  0  0
 48 51  2  0  0  0  0
 49 46  1  0  0  0  0
 50 52  2  0  0  0  0
 52 51  1  0  0  0  0
 53 54  1  0  0  0  0
 55 54  1  0  0  0  0
 55 56  1  0  0  0  0
 56 57  1  0  0  0  0
 57 58  1  0  0  0  0
M  END
>  <REMARK>
 VINA RESULT:    -5.887      2.746      4.773
 INTER + INTRA:         -15.653
 INTER:                  -9.839
 INTRA:                  -5.814
 UNBOUND:                -4.777
 SMILES CC(=O)N[C@@H]1[C@@H](O)C[C@](O)(C(=O)O)O[C@H]1C(O)[C@H](O)CNC(=O)OCc1cn(C(C)(C)C(=O)c2c[nH]c3ccccc23)nn1
 SMILES IDX 21 1 22 2 23 3 20 5 18 6 16 7 15 8 9 9 8 10 14 11 6 12 5 13
 SMILES IDX 10 14 11 16 12 17 13 18 7 20 4 22 2 23 1 25 3 26 17 27 19 29
 SMILES IDX 24 31 25 32 26 33 27 34 44 35 28 36 43 37 29 38 30 39 31 40
 SMILES IDX 32 41 33 42 34 43 35 44 42 45 36 46 37 47 41 48 38 50 40 51
 SMILES IDX 39 52
 H PARENT 21 4 10 15 13 19 7 21 4 24 17 28 19 30 36 49
 Flexibility Score: inf
  4 active torsions:
  status: ('A' for Active; 'I' for Inactive)
    1  A    between atoms: CA   and  CB  
    2  A    between atoms: CB   and  CG  
    3  A    between atoms: CG   and  CD  
    4  A    between atoms: CD   and  CE  

>  <TORSDO>
F 17

>  <BEGIN_>
RES LYS A 131

$$$$
ligand_79_pose_16_2HRL.pdbqt
 OpenBabel07062320523D

  6  5  0  0  0  0  0  0  0  0999 V2000
   33.1930   34.6630    9.2900 C   0  0  0  0  0  0  0  0  0  0  0  0
   32.0600   35.3600   10.0340 C   0  0  0  0  0  0  0  0  0  0  0  0
   30.7070   34.7450    9.7840 C   0  0  0  0  0  0  0  0  0  0  0  0
   30.4970   34.4970    8.2980 C   0  0  0  0  0  0  0  0  0  0  0  0
   29.4410   35.4350    7.7450 C   0  0  0  0  0  0  0  0  0  0  0  0
   28.0780   34.8560    7.8940 N   0  0  0  0  0  0  0  0  0  0  0  0
  1  2  1  0  0  0  0
  3  2  1  0  0  0  0
  4  3  1  0  0  0  0
  5  6  1  0  0  0  0
  5  4  1  0  0  0  0
M  END
>  <EGIN_R>
ES LYS A 135

>  <REMARK>
  4 active torsions:
  status: ('A' for Active; 'I' for Inactive)
    5  A    between atoms: CA   and  CB  
    6  A    between atoms: CB   and  CG  
    7  A    between atoms: CG   and  CD  
    8  A    between atoms: CD   and  CE  

$$$$
