ligand_67_pose_17_2HRL.pdbqt
 OpenBabel07062320523D

 50 51  0  0  1  0  0  0  0  0999 V2000
   28.8640   27.5550   19.5780 N   0  0  0  0  0  0  0  0  0  0  0  0
   27.5110   27.8870   19.3250 C   0  0  0  0  0  0  0  0  0  0  0  0
   26.7110   28.0330   20.3110 O   0  0  0  0  0  0  0  0  0  0  0  0
   29.5190   27.4360   18.7880 H   0  0  0  0  0  0  0  0  0  0  0  0
   29.3100   27.3900   20.9220 C   0  0  0  0  0  0  0  0  0  0  0  0
   30.7210   27.8550   21.1530 C   0  0  2  0  0  0  0  0  0  0  0  0
   30.8970   29.3280   20.9330 C   0  0  1  0  0  0  0  0  0  0  0  0
   32.0570   29.8510   21.7520 C   0  0  2  0  0  0  0  0  0  0  0  0
   33.3490   29.2600   23.5940 C   0  0  2  0  0  0  0  0  0  0  0  0
   33.3030   30.6930   24.0390 C   0  0  0  0  0  0  0  0  0  0  0  0
   32.3810   28.9070   22.6910 O   0  0  0  0  0  0  0  0  0  0  0  0
   31.8830   31.1850   23.8470 C   0  0  1  0  0  0  0  0  0  0  0  0
   31.6150   31.1790   22.3480 C   0  0  1  0  0  0  0  0  0  0  0  0
   33.1380   28.4640   24.7440 O   0  0  0  0  0  0  0  0  0  0  0  0
   33.5980   28.8260   25.5260 H   0  0  0  0  0  0  0  0  0  0  0  0
   34.7290   28.9100   23.1300 C   0  0  0  0  0  0  0  0  0  0  0  0
   35.6220   29.7540   22.8920 O   0  0  0  0  0  0  0  0  0  0  0  0
   35.0140   27.5630   22.9580 O   0  0  0  0  0  0  0  0  0  0  0  0
   35.0140   26.8820   23.7100 H   0  0  0  0  0  0  0  0  0  0  0  0
   31.0140   30.2660   24.4550 O   0  0  0  0  0  0  0  0  0  0  0  0
   30.0990   30.3250   24.0920 H   0  0  0  0  0  0  0  0  0  0  0  0
   32.3370   32.2940   21.7560 N   0  0  0  0  0  0  0  0  0  0  0  0
   31.7270   33.0360   20.7130 C   0  0  0  0  0  0  0  0  0  0  0  0
   33.3080   32.5560   22.0940 H   0  0  0  0  0  0  0  0  0  0  0  0
   32.3820   34.1890   20.0450 C   0  0  0  0  0  0  0  0  0  0  0  0
   30.5670   32.6910   20.3430 O   0  0  0  0  0  0  0  0  0  0  0  0
   31.0250   29.6250   19.5770 O   0  0  0  0  0  0  0  0  0  0  0  0
   31.7200   29.1040   19.1200 H   0  0  0  0  0  0  0  0  0  0  0  0
   31.5720   27.1530   20.3120 O   0  0  0  0  0  0  0  0  0  0  0  0
   32.0730   26.4450   20.7570 H   0  0  0  0  0  0  0  0  0  0  0  0
   26.9780   28.0690   18.0810 O   0  0  0  0  0  0  0  0  0  0  0  0
   26.6780   29.3110   17.4750 C   0  0  0  0  0  0  0  0  0  0  0  0
   27.8930   30.1150   17.2030 C   0  0  0  0  0  0  0  0  0  0  0  0
   28.3590   30.5080   15.9700 C   0  0  0  0  0  0  0  0  0  0  0  0
   28.7630   30.6050   18.1010 N   0  0  0  0  0  0  0  0  0  0  0  0
   29.4910   31.2210   16.1530 N   0  0  0  0  0  0  0  0  0  0  0  0
   29.7130   31.2640   17.4530 N   0  0  0  0  0  0  0  0  0  0  0  0
   30.3420   31.8500   15.1500 C   0  0  0  0  0  0  0  0  0  0  0  0
   31.4000   32.7060   15.8130 C   0  0  0  0  0  0  0  0  0  0  0  0
   31.5050   34.0420   15.1590 C   0  0  0  0  0  0  0  0  0  0  0  0
   31.0180   35.0920   15.9260 O   0  0  0  0  0  0  0  0  0  0  0  0
   30.8750   34.1240   13.9250 O   0  0  0  0  0  0  0  0  0  0  0  0
   30.7110   36.1180   15.0360 C   0  0  0  0  0  0  0  0  0  0  0  0
   30.5340   35.4380   13.7100 C   0  0  0  0  0  0  0  0  0  0  0  0
   29.8670   25.5550   16.9770 C   0  0  0  0  0  0  0  0  0  0  0  0
   28.3450   25.7220   17.0260 C   0  0  0  0  0  0  0  0  0  0  0  0
   27.5990   24.4770   16.5700 C   0  0  0  0  0  0  0  0  0  0  0  0
   27.0240   23.7070   17.7260 C   0  0  0  0  0  0  0  0  0  0  0  0
   26.2300   24.6510   18.6230 C   0  0  0  0  0  0  0  0  0  0  0  0
   24.7930   24.6210   18.2630 N   0  0  0  0  0  0  0  0  0  0  0  0
  1  5  1  0  0  0  0
  2  1  1  0  0  0  0
  2  3  2  0  0  0  0
  4  1  1  0  0  0  0
  6  5  1  6  0  0  0
  7 27  1  6  0  0  0
  7  6  1  0  0  0  0
  8  7  1  1  0  0  0
  8 13  1  0  0  0  0
  8 11  1  0  0  0  0
  9 16  1  6  0  0  0
  9 10  1  0  0  0  0
  9 14  1  0  0  0  0
 11  9  1  0  0  0  0
 12 10  1  0  0  0  0
 12 20  1  1  0  0  0
 13 22  1  6  0  0  0
 13 12  1  0  0  0  0
 14 15  1  0  0  0  0
 17 16  2  0  0  0  0
 18 16  1  0  0  0  0
 18 19  1  0  0  0  0
 21 20  1  0  0  0  0
 22 24  1  0  0  0  0
 23 22  1  0  0  0  0
 25 23  1  0  0  0  0
 26 23  2  0  0  0  0
 28 27  1  0  0  0  0
 29 30  1  0  0  0  0
 29  6  1  0  0  0  0
 31  2  1  0  0  0  0
 32 31  1  0  0  0  0
 33 32  1  0  0  0  0
 33 35  1  0  0  0  0
 34 36  1  0  0  0  0
 34 33  2  0  0  0  0
 36 37  1  0  0  0  0
 37 35  2  0  0  0  0
 38 39  1  0  0  0  0
 38 36  1  0  0  0  0
 40 39  1  0  0  0  0
 40 41  1  0  0  0  0
 42 40  1  0  0  0  0
 43 41  1  0  0  0  0
 44 42  1  0  0  0  0
 44 43  1  0  0  0  0
 45 46  1  0  0  0  0
 47 46  1  0  0  0  0
 47 48  1  0  0  0  0
 48 49  1  0  0  0  0
 50 49  1  0  0  0  0
M  END
>  <REMARK>
 VINA RESULT:    -4.177      3.168      7.432
 INTER + INTRA:         -14.010
 INTER:                  -8.456
 INTRA:                  -5.553
 UNBOUND:                -6.292
 SMILES CC(=O)N[C@@H]1[C@@H](O)C[C@](O)(C(=O)O)O[C@H]1C(O)[C@H](O)CNC(=O)OCc1cn(CCC2OCCO2)nn1
 SMILES IDX 21 1 22 2 23 3 20 5 18 6 16 7 15 8 9 9 8 10 14 11 6 12 5 13
 SMILES IDX 10 14 11 16 12 17 13 18 7 20 4 22 2 23 1 25 3 26 17 27 19 29
 SMILES IDX 24 31 25 32 26 33 27 34 37 35 28 36 36 37 29 38 30 39 31 40
 SMILES IDX 32 41 35 42 33 43 34 44
 H PARENT 21 4 10 15 13 19 7 21 4 24 17 28 19 30
 Flexibility Score: inf
  4 active torsions:
  status: ('A' for Active; 'I' for Inactive)
    1  A    between atoms: CA   and  CB  
    2  A    between atoms: CB   and  CG  
    3  A    between atoms: CG   and  CD  
    4  A    between atoms: CD   and  CE  

>  <TORSDO>
F 17

>  <BEGIN_>
RES LYS A 131

$$$$
ligand_67_pose_17_2HRL.pdbqt
 OpenBabel07062320523D

  6  5  0  0  0  0  0  0  0  0999 V2000
   33.1930   34.6630    9.2900 C   0  0  0  0  0  0  0  0  0  0  0  0
   32.0600   35.3600   10.0340 C   0  0  0  0  0  0  0  0  0  0  0  0
   30.7650   35.3940    9.2640 C   0  0  0  0  0  0  0  0  0  0  0  0
   29.7270   34.4960    9.9190 C   0  0  0  0  0  0  0  0  0  0  0  0
   28.6340   34.1370    8.9320 C   0  0  0  0  0  0  0  0  0  0  0  0
   27.3760   33.7640    9.6360 N   0  0  0  0  0  0  0  0  0  0  0  0
  1  2  1  0  0  0  0
  3  4  1  0  0  0  0
  3  2  1  0  0  0  0
  5  6  1  0  0  0  0
  5  4  1  0  0  0  0
M  END
>  <EGIN_R>
ES LYS A 135

>  <REMARK>
  4 active torsions:
  status: ('A' for Active; 'I' for Inactive)
    5  A    between atoms: CA   and  CB  
    6  A    between atoms: CB   and  CG  
    7  A    between atoms: CG   and  CD  
    8  A    between atoms: CD   and  CE  

$$$$
