ligand_57_pose_18_2HRL.pdbqt
 OpenBabel07062320523D

 50 51  0  0  1  0  0  0  0  0999 V2000
   30.0260   34.7720   20.8920 C   0  0  0  0  0  0  0  0  0  0  0  0
   29.1690   34.8140   19.6710 C   0  0  2  0  0  0  0  0  0  0  0  0
   29.9780   34.9490   18.3970 C   0  0  2  0  0  0  0  0  0  0  0  0
   29.7960   33.7110   17.5460 C   0  0  2  0  0  0  0  0  0  0  0  0
   29.5050   31.3950   17.6200 C   0  0  2  0  0  0  0  0  0  0  0  0
   30.5180   31.2080   16.5320 C   0  0  0  0  0  0  0  0  0  0  0  0
   29.5420   32.5910   18.2730 O   0  0  0  0  0  0  0  0  0  0  0  0
   30.6350   32.4360   15.6700 C   0  0  1  0  0  0  0  0  0  0  0  0
   30.9530   33.6010   16.6040 C   0  0  1  0  0  0  0  0  0  0  0  0
   29.6580   30.3140   18.5330 O   0  0  0  0  0  0  0  0  0  0  0  0
   29.2400   29.4900   18.1810 H   0  0  0  0  0  0  0  0  0  0  0  0
   28.1520   31.2590   17.0230 C   0  0  0  0  0  0  0  0  0  0  0  0
   27.1860   31.8970   17.5110 O   0  0  0  0  0  0  0  0  0  0  0  0
   27.8560   30.4570   15.9310 O   0  0  0  0  0  0  0  0  0  0  0  0
   26.9090   30.1410   15.7220 H   0  0  0  0  0  0  0  0  0  0  0  0
   31.6570   32.3080   14.7250 O   0  0  0  0  0  0  0  0  0  0  0  0
   32.0640   31.4140   14.7320 H   0  0  0  0  0  0  0  0  0  0  0  0
   30.9940   34.7790   15.7260 N   0  0  0  0  0  0  0  0  0  0  0  0
   32.1490   35.5760   15.5940 C   0  0  0  0  0  0  0  0  0  0  0  0
   30.1340   34.9950   15.2070 H   0  0  0  0  0  0  0  0  0  0  0  0
   32.1740   36.7790   14.6900 C   0  0  0  0  0  0  0  0  0  0  0  0
   33.1720   35.2610   16.2540 O   0  0  0  0  0  0  0  0  0  0  0  0
   31.2930   35.1770   18.7300 O   0  0  0  0  0  0  0  0  0  0  0  0
   31.8880   34.5260   18.2790 H   0  0  0  0  0  0  0  0  0  0  0  0
   28.3310   35.9500   19.7630 O   0  0  0  0  0  0  0  0  0  0  0  0
   27.5600   35.7710   20.3630 H   0  0  0  0  0  0  0  0  0  0  0  0
   30.4060   33.3990   21.1440 N   0  0  0  0  0  0  0  0  0  0  0  0
   31.7480   32.9330   21.1930 C   0  0  0  0  0  0  0  0  0  0  0  0
   29.6790   32.6390   21.3120 H   0  0  0  0  0  0  0  0  0  0  0  0
   32.6750   33.7370   21.0130 O   0  0  0  0  0  0  0  0  0  0  0  0
   32.0640   31.6030   21.4370 O   0  0  0  0  0  0  0  0  0  0  0  0
   31.3590   30.8630   22.4140 C   0  0  0  0  0  0  0  0  0  0  0  0
   30.6010   29.7510   21.7860 C   0  0  0  0  0  0  0  0  0  0  0  0
   29.2680   29.4700   21.8870 C   0  0  0  0  0  0  0  0  0  0  0  0
   31.1150   28.7990   20.9860 N   0  0  0  0  0  0  0  0  0  0  0  0
   28.9960   28.3720   21.1620 N   0  0  0  0  0  0  0  0  0  0  0  0
   30.1560   27.9880   20.6220 N   0  0  0  0  0  0  0  0  0  0  0  0
   27.6990   27.7510   21.0090 C   0  0  0  0  0  0  0  0  0  0  0  0
   27.6020   26.9860   19.7080 C   0  0  0  0  0  0  0  0  0  0  0  0
   26.5900   28.7450   21.1750 C   0  0  0  0  0  0  0  0  0  0  0  0
   27.2320   27.8730   18.5430 C   0  0  0  0  0  0  0  0  0  0  0  0
   26.3400   29.5890   19.9650 C   0  0  0  0  0  0  0  0  0  0  0  0
   26.1300   28.7420   18.8310 N   0  0  0  0  0  0  0  0  0  0  0  0
   24.8810   28.0480   18.9650 C   0  0  0  0  0  0  0  0  0  0  0  0
   29.8670   25.5550   16.9770 C   0  0  0  0  0  0  0  0  0  0  0  0
   28.3450   25.7220   17.0260 C   0  0  0  0  0  0  0  0  0  0  0  0
   27.5990   24.4530   16.6430 C   0  0  0  0  0  0  0  0  0  0  0  0
   27.0050   23.7620   17.8390 C   0  0  0  0  0  0  0  0  0  0  0  0
   25.6570   24.3910   18.1730 C   0  0  0  0  0  0  0  0  0  0  0  0
   24.7500   24.3280   17.0030 N   0  0  0  0  0  0  0  0  0  0  0  0
  1 27  1  0  0  0  0
  2 25  1  0  0  0  0
  2  1  1  1  0  0  0
  3 23  1  1  0  0  0
  3  2  1  0  0  0  0
  4  7  1  0  0  0  0
  4  3  1  1  0  0  0
  5 12  1  6  0  0  0
  5  7  1  0  0  0  0
  5 10  1  0  0  0  0
  6  5  1  0  0  0  0
  8 16  1  6  0  0  0
  8  6  1  0  0  0  0
  8  9  1  0  0  0  0
  9 18  1  6  0  0  0
  9  4  1  0  0  0  0
 11 10  1  0  0  0  0
 12 13  2  0  0  0  0
 14 12  1  0  0  0  0
 15 14  1  0  0  0  0
 16 17  1  0  0  0  0
 19 18  1  0  0  0  0
 19 22  2  0  0  0  0
 20 18  1  0  0  0  0
 21 19  1  0  0  0  0
 24 23  1  0  0  0  0
 25 26  1  0  0  0  0
 27 28  1  0  0  0  0
 27 29  1  0  0  0  0
 28 31  1  0  0  0  0
 30 28  2  0  0  0  0
 31 32  1  0  0  0  0
 33 34  2  0  0  0  0
 33 32  1  0  0  0  0
 35 33  1  0  0  0  0
 36 34  1  0  0  0  0
 37 35  2  0  0  0  0
 37 36  1  0  0  0  0
 38 36  1  0  0  0  0
 38 40  1  0  0  0  0
 39 38  1  0  0  0  0
 41 43  1  0  0  0  0
 41 39  1  0  0  0  0
 42 40  1  0  0  0  0
 43 44  1  0  0  0  0
 43 42  1  0  0  0  0
 45 46  1  0  0  0  0
 47 46  1  0  0  0  0
 47 48  1  0  0  0  0
 48 49  1  0  0  0  0
 50 49  1  0  0  0  0
M  END
>  <REMARK>
 VINA RESULT:    -4.203      2.737      7.792
 INTER + INTRA:         -13.060
 INTER:                  -6.957
 INTRA:                  -6.104
 UNBOUND:                -5.786
 SMILES CC(=O)N[C@@H]1[C@@H](O)C[C@](O)(C(=O)O)O[C@H]1C(O)[C@H](O)CNC(=O)OCc1cn(C2CCN(C)CC2)nn1
 SMILES IDX 20 1 18 2 16 3 15 4 9 5 8 6 14 7 6 8 5 9 10 10 11 12 12 13
 SMILES IDX 13 14 7 16 4 18 2 19 1 21 3 22 17 23 19 25 21 27 22 28 23 30
 SMILES IDX 24 31 25 32 26 33 27 34 37 35 28 36 36 37 29 38 30 39 35 40
 SMILES IDX 31 41 34 42 32 43 33 44
 H PARENT 10 11 13 15 7 17 4 20 17 24 19 26 21 29
 Flexibility Score: inf
  4 active torsions:
  status: ('A' for Active; 'I' for Inactive)
    1  A    between atoms: CA   and  CB  
    2  A    between atoms: CB   and  CG  
    3  A    between atoms: CG   and  CD  
    4  A    between atoms: CD   and  CE  

>  <TORSDO>
F 15

>  <BEGIN_>
RES LYS A 131

$$$$
ligand_57_pose_18_2HRL.pdbqt
 OpenBabel07062320523D

  6  5  0  0  0  0  0  0  0  0999 V2000
   33.1930   34.6630    9.2900 C   0  0  0  0  0  0  0  0  0  0  0  0
   32.0600   35.3600   10.0340 C   0  0  0  0  0  0  0  0  0  0  0  0
   30.6900   34.8780    9.6340 C   0  0  0  0  0  0  0  0  0  0  0  0
   29.6220   35.4930   10.5250 C   0  0  0  0  0  0  0  0  0  0  0  0
   28.4410   34.5530   10.6690 C   0  0  0  0  0  0  0  0  0  0  0  0
   28.2050   33.7920    9.4110 N   0  0  0  0  0  0  0  0  0  0  0  0
  1  2  1  0  0  0  0
  3  2  1  0  0  0  0
  3  4  1  0  0  0  0
  4  5  1  0  0  0  0
  6  5  1  0  0  0  0
M  END
>  <EGIN_R>
ES LYS A 135

>  <REMARK>
  4 active torsions:
  status: ('A' for Active; 'I' for Inactive)
    5  A    between atoms: CA   and  CB  
    6  A    between atoms: CB   and  CG  
    7  A    between atoms: CG   and  CD  
    8  A    between atoms: CD   and  CE  

$$$$
