ligand_3_pose_10_2HRL.pdbqt
 OpenBabel07062320523D

 49 50  0  0  1  0  0  0  0  0999 V2000
   19.4770   40.6460    8.7730 C   0  0  0  0  0  0  0  0  0  0  0  0
   18.9420   39.3060    9.2380 C   0  0  2  0  0  0  0  0  0  0  0  0
   19.5490   38.1570    8.4630 C   0  0  1  0  0  0  0  0  0  0  0  0
   19.4800   36.8620    9.2020 C   0  0  2  0  0  0  0  0  0  0  0  0
   21.5420   36.5180   10.2710 C   0  0  2  0  0  0  0  0  0  0  0  0
   22.0400   35.6100    9.2020 C   0  0  0  0  0  0  0  0  0  0  0  0
   20.2260   36.7770   10.3180 O   0  0  0  0  0  0  0  0  0  0  0  0
   21.1480   35.5030    8.0000 C   0  0  1  0  0  0  0  0  0  0  0  0
   19.6970   35.6620    8.3270 C   0  0  1  0  0  0  0  0  0  0  0  0
   22.2240   37.7430   10.1030 O   0  0  0  0  0  0  0  0  0  0  0  0
   22.3620   37.8630    9.1220 H   0  0  0  0  0  0  0  0  0  0  0  0
   21.9690   36.0100   11.6030 C   0  0  0  0  0  0  0  0  0  0  0  0
   21.6020   36.5370   12.6760 O   0  0  0  0  0  0  0  0  0  0  0  0
   22.8010   34.9150   11.6820 O   0  0  0  0  0  0  0  0  0  0  0  0
   22.7430   34.2020   12.3980 H   0  0  0  0  0  0  0  0  0  0  0  0
   21.5260   36.4470    7.0300 O   0  0  0  0  0  0  0  0  0  0  0  0
   21.2590   36.1840    6.1280 H   0  0  0  0  0  0  0  0  0  0  0  0
   19.2900   34.4850    9.0990 N   0  0  0  0  0  0  0  0  0  0  0  0
   18.0120   33.8860    8.9290 C   0  0  0  0  0  0  0  0  0  0  0  0
   19.9280   34.0510    9.7990 H   0  0  0  0  0  0  0  0  0  0  0  0
   17.5800   32.6910    9.7020 C   0  0  0  0  0  0  0  0  0  0  0  0
   17.1850   34.3550    8.1000 O   0  0  0  0  0  0  0  0  0  0  0  0
   18.8180   38.0940    7.2660 O   0  0  0  0  0  0  0  0  0  0  0  0
   17.9650   37.6270    7.5150 H   0  0  0  0  0  0  0  0  0  0  0  0
   17.5590   39.2920    9.2570 O   0  0  0  0  0  0  0  0  0  0  0  0
   17.1700   38.6140    8.6680 H   0  0  0  0  0  0  0  0  0  0  0  0
   20.6280   40.5430    7.9310 N   0  0  0  0  0  0  0  0  0  0  0  0
   21.4520   41.6480    7.5840 C   0  0  0  0  0  0  0  0  0  0  0  0
   20.9070   39.6170    7.5310 H   0  0  0  0  0  0  0  0  0  0  0  0
   21.2130   42.7870    8.0030 O   0  0  0  0  0  0  0  0  0  0  0  0
   22.5600   41.4920    6.7580 O   0  0  0  0  0  0  0  0  0  0  0  0
   23.8580   41.4040    7.3250 C   0  0  0  0  0  0  0  0  0  0  0  0
   24.2160   39.9690    7.3860 C   0  0  0  0  0  0  0  0  0  0  0  0
   25.4570   39.4090    7.1760 C   0  0  0  0  0  0  0  0  0  0  0  0
   23.3670   38.9590    7.6640 N   0  0  0  0  0  0  0  0  0  0  0  0
   25.3010   38.0850    7.3360 N   0  0  0  0  0  0  0  0  0  0  0  0
   24.0430   37.8290    7.6290 N   0  0  0  0  0  0  0  0  0  0  0  0
   26.3430   37.1240    7.2060 C   0  0  0  0  0  0  0  0  0  0  0  0
   27.3720   37.3590    6.3110 C   0  0  0  0  0  0  0  0  0  0  0  0
   26.3320   35.9660    7.9610 C   0  0  0  0  0  0  0  0  0  0  0  0
   28.3680   36.4040    6.2100 C   0  0  0  0  0  0  0  0  0  0  0  0
   27.3290   35.0300    7.8480 C   0  0  0  0  0  0  0  0  0  0  0  0
   28.3560   35.2570    6.9590 C   0  0  0  0  0  0  0  0  0  0  0  0
   29.8670   25.5550   16.9770 C   0  0  0  0  0  0  0  0  0  0  0  0
   28.3450   25.7220   17.0260 C   0  0  0  0  0  0  0  0  0  0  0  0
   27.6020   24.3970   16.9500 C   0  0  0  0  0  0  0  0  0  0  0  0
   26.4980   24.3070   17.9670 C   0  0  0  0  0  0  0  0  0  0  0  0
   25.1970   23.9210   17.2720 C   0  0  0  0  0  0  0  0  0  0  0  0
   24.8570   22.5060   17.5530 N   0  0  0  0  0  0  0  0  0  0  0  0
  2  1  1  6  0  0  0
  2 25  1  0  0  0  0
  3 23  1  6  0  0  0
  3  2  1  0  0  0  0
  4  3  1  6  0  0  0
  4  7  1  0  0  0  0
  5 10  1  6  0  0  0
  5  7  1  0  0  0  0
  5 12  1  0  0  0  0
  6  5  1  0  0  0  0
  8 16  1  6  0  0  0
  8  9  1  0  0  0  0
  8  6  1  0  0  0  0
  9 18  1  1  0  0  0
  9  4  1  0  0  0  0
 11 10  1  0  0  0  0
 12 14  1  0  0  0  0
 12 13  2  0  0  0  0
 14 15  1  0  0  0  0
 17 16  1  0  0  0  0
 18 20  1  0  0  0  0
 19 18  1  0  0  0  0
 19 21  1  0  0  0  0
 22 19  2  0  0  0  0
 23 24  1  0  0  0  0
 26 25  1  0  0  0  0
 27  1  1  0  0  0  0
 28 27  1  0  0  0  0
 28 30  2  0  0  0  0
 29 27  1  0  0  0  0
 31 32  1  0  0  0  0
 31 28  1  0  0  0  0
 32 33  1  0  0  0  0
 33 35  1  0  0  0  0
 34 36  1  0  0  0  0
 34 33  2  0  0  0  0
 36 37  1  0  0  0  0
 37 35  2  0  0  0  0
 38 36  1  0  0  0  0
 38 40  2  0  0  0  0
 39 38  1  0  0  0  0
 41 39  2  0  0  0  0
 41 43  1  0  0  0  0
 42 40  1  0  0  0  0
 43 42  2  0  0  0  0
 44 45  1  0  0  0  0
 46 45  1  0  0  0  0
 46 47  1  0  0  0  0
 48 49  1  0  0  0  0
 48 47  1  0  0  0  0
M  END
>  <REMARK>
 VINA RESULT:    -5.511      3.054      5.914
 INTER + INTRA:         -14.023
 INTER:                  -8.808
 INTRA:                  -5.215
 UNBOUND:                -4.485
 SMILES CC(=O)N[C@@H]1[C@@H](O)C[C@](O)(C(=O)O)O[C@H]1C(O)[C@H](O)CNC(=O)OCc1cn(-c2ccccc2)nn1
 SMILES IDX 20 1 18 2 16 3 15 4 9 5 8 6 14 7 6 8 5 9 10 10 11 12 12 13
 SMILES IDX 13 14 7 16 4 18 2 19 1 21 3 22 17 23 19 25 21 27 22 28 23 30
 SMILES IDX 24 31 25 32 26 33 27 34 36 35 28 36 35 37 29 38 30 39 34 40
 SMILES IDX 31 41 33 42 32 43
 H PARENT 10 11 13 15 7 17 4 20 17 24 19 26 21 29
 Flexibility Score: inf
  4 active torsions:
  status: ('A' for Active; 'I' for Inactive)
    1  A    between atoms: CA   and  CB  
    2  A    between atoms: CB   and  CG  
    3  A    between atoms: CG   and  CD  
    4  A    between atoms: CD   and  CE  

>  <TORSDO>
F 15

>  <BEGIN_>
RES LYS A 131

$$$$
ligand_3_pose_10_2HRL.pdbqt
 OpenBabel07062320523D

  6  5  0  0  0  0  0  0  0  0999 V2000
   33.1930   34.6630    9.2900 C   0  0  0  0  0  0  0  0  0  0  0  0
   32.0600   35.3600   10.0340 C   0  0  0  0  0  0  0  0  0  0  0  0
   30.6920   34.8440    9.6690 C   0  0  0  0  0  0  0  0  0  0  0  0
   29.6230   35.5040   10.5250 C   0  0  0  0  0  0  0  0  0  0  0  0
   29.4500   36.9590   10.1330 C   0  0  0  0  0  0  0  0  0  0  0  0
   29.7240   37.8620   11.2860 N   0  0  0  0  0  0  0  0  0  0  0  0
  1  2  1  0  0  0  0
  3  2  1  0  0  0  0
  3  4  1  0  0  0  0
  5  4  1  0  0  0  0
  5  6  1  0  0  0  0
M  END
>  <EGIN_R>
ES LYS A 135

>  <REMARK>
  4 active torsions:
  status: ('A' for Active; 'I' for Inactive)
    5  A    between atoms: CA   and  CB  
    6  A    between atoms: CB   and  CG  
    7  A    between atoms: CG   and  CD  
    8  A    between atoms: CD   and  CE  

$$$$
