ligand_18_pose_3_2HRL.pdbqt
 OpenBabel07062320523D

 54 55  0  0  1  0  0  0  0  0999 V2000
   24.5240   36.2440   13.2260 N   0  0  0  0  0  0  0  0  0  0  0  0
   25.4230   35.6450   14.1340 C   0  0  0  0  0  0  0  0  0  0  0  0
   25.0940   34.5620   14.6750 O   0  0  0  0  0  0  0  0  0  0  0  0
   24.8180   37.1450   12.7890 H   0  0  0  0  0  0  0  0  0  0  0  0
   23.2310   35.7040   12.8570 C   0  0  0  0  0  0  0  0  0  0  0  0
   23.3410   34.8300   11.6400 C   0  0  2  0  0  0  0  0  0  0  0  0
   24.0440   35.4550   10.4830 C   0  0  1  0  0  0  0  0  0  0  0  0
   23.3370   36.5140    9.7260 C   0  0  2  0  0  0  0  0  0  0  0  0
   21.5090   36.6520    8.2720 C   0  0  2  0  0  0  0  0  0  0  0  0
   21.7290   38.1290    8.5450 C   0  0  0  0  0  0  0  0  0  0  0  0
   22.2950   35.8270    9.0190 O   0  0  0  0  0  0  0  0  0  0  0  0
   23.1580   38.4400    8.2650 C   0  0  1  0  0  0  0  0  0  0  0  0
   24.0640   37.2660    8.6860 C   0  0  1  0  0  0  0  0  0  0  0  0
   21.7240   36.4950    6.8890 O   0  0  0  0  0  0  0  0  0  0  0  0
   22.3610   35.7400    6.7540 H   0  0  0  0  0  0  0  0  0  0  0  0
   20.0950   36.2830    8.5410 C   0  0  0  0  0  0  0  0  0  0  0  0
   19.1940   36.7820    7.8350 O   0  0  0  0  0  0  0  0  0  0  0  0
   19.7430   35.3970    9.5550 O   0  0  0  0  0  0  0  0  0  0  0  0
   19.0530   34.6860    9.3100 H   0  0  0  0  0  0  0  0  0  0  0  0
   23.4080   38.8080    6.9610 O   0  0  0  0  0  0  0  0  0  0  0  0
   22.6140   39.2310    6.5480 H   0  0  0  0  0  0  0  0  0  0  0  0
   25.3140   37.8480    9.0040 N   0  0  0  0  0  0  0  0  0  0  0  0
   26.3770   37.8020    8.0780 C   0  0  0  0  0  0  0  0  0  0  0  0
   25.4830   38.3150    9.9050 H   0  0  0  0  0  0  0  0  0  0  0  0
   27.7160   38.4010    8.3680 C   0  0  0  0  0  0  0  0  0  0  0  0
   26.2640   37.2450    6.9340 O   0  0  0  0  0  0  0  0  0  0  0  0
   25.4120   35.6220   10.6410 O   0  0  0  0  0  0  0  0  0  0  0  0
   25.7680   35.2780   11.4690 H   0  0  0  0  0  0  0  0  0  0  0  0
   22.1600   34.1890   11.2870 O   0  0  0  0  0  0  0  0  0  0  0  0
   22.0770   34.0330   10.3180 H   0  0  0  0  0  0  0  0  0  0  0  0
   26.6650   36.2140   14.4490 O   0  0  0  0  0  0  0  0  0  0  0  0
   27.4790   36.7750   13.4360 C   0  0  0  0  0  0  0  0  0  0  0  0
   28.7220   35.9600   13.3400 C   0  0  0  0  0  0  0  0  0  0  0  0
   29.7500   35.8610   14.2550 C   0  0  0  0  0  0  0  0  0  0  0  0
   29.0890   35.1550   12.3300 N   0  0  0  0  0  0  0  0  0  0  0  0
   30.6810   35.0210   13.7810 N   0  0  0  0  0  0  0  0  0  0  0  0
   30.2550   34.6050   12.6080 N   0  0  0  0  0  0  0  0  0  0  0  0
   31.9230   34.6620   14.4860 C   0  0  0  0  0  0  0  0  0  0  0  0
   31.5820   33.5520   15.4060 C   0  0  0  0  0  0  0  0  0  0  0  0
   31.8890   33.6720   16.6390 O   0  0  0  0  0  0  0  0  0  0  0  0
   30.9350   32.3520   15.0310 N   0  0  0  0  0  0  0  0  0  0  0  0
   30.6870   32.2550   14.0300 H   0  0  0  0  0  0  0  0  0  0  0  0
   30.6200   31.2950   15.9650 C   0  0  0  0  0  0  0  0  0  0  0  0
   29.1100   31.1600   15.9670 C   0  0  0  0  0  0  0  0  0  0  0  0
   28.3550   30.0700   16.0370 C   0  0  0  0  0  0  0  0  0  0  0  0
   27.9730   32.4650   15.8720 S   0  0  0  0  0  0  0  0  0  0  0  0
   27.0090   30.1630   16.0240 C   0  0  0  0  0  0  0  0  0  0  0  0
   26.4900   31.4630   15.9330 C   0  0  0  0  0  0  0  0  0  0  0  0
   29.8670   25.5550   16.9770 C   0  0  0  0  0  0  0  0  0  0  0  0
   28.3450   25.7220   17.0260 C   0  0  0  0  0  0  0  0  0  0  0  0
   27.5990   24.4300   16.7310 C   0  0  0  0  0  0  0  0  0  0  0  0
   26.9470   23.8590   17.9590 C   0  0  0  0  0  0  0  0  0  0  0  0
   25.5840   23.2810   17.5910 C   0  0  0  0  0  0  0  0  0  0  0  0
   24.7400   24.3150   16.9460 N   0  0  0  0  0  0  0  0  0  0  0  0
  1  2  1  0  0  0  0
  2 31  1  0  0  0  0
  2  3  2  0  0  0  0
  4  1  1  0  0  0  0
  5  1  1  0  0  0  0
  6  5  1  1  0  0  0
  7 27  1  1  0  0  0
  7  6  1  0  0  0  0
  8  7  1  6  0  0  0
  9 14  1  6  0  0  0
  9 16  1  0  0  0  0
  9 10  1  0  0  0  0
  9 11  1  0  0  0  0
 11  8  1  0  0  0  0
 12 20  1  6  0  0  0
 12 10  1  0  0  0  0
 12 13  1  0  0  0  0
 13 22  1  1  0  0  0
 13  8  1  0  0  0  0
 15 14  1  0  0  0  0
 16 18  1  0  0  0  0
 17 16  2  0  0  0  0
 19 18  1  0  0  0  0
 21 20  1  0  0  0  0
 22 24  1  0  0  0  0
 23 25  1  0  0  0  0
 23 22  1  0  0  0  0
 26 23  2  0  0  0  0
 27 28  1  0  0  0  0
 29  6  1  0  0  0  0
 30 29  1  0  0  0  0
 32 31  1  0  0  0  0
 33 32  1  0  0  0  0
 33 34  2  0  0  0  0
 35 37  2  0  0  0  0
 35 33  1  0  0  0  0
 36 34  1  0  0  0  0
 36 38  1  0  0  0  0
 37 36  1  0  0  0  0
 38 39  1  0  0  0  0
 39 40  2  0  0  0  0
 41 39  1  0  0  0  0
 41 43  1  0  0  0  0
 42 41  1  0  0  0  0
 43 44  1  0  0  0  0
 44 45  2  0  0  0  0
 46 48  1  0  0  0  0
 46 44  1  0  0  0  0
 47 45  1  0  0  0  0
 48 47  2  0  0  0  0
 49 50  1  0  0  0  0
 51 50  1  0  0  0  0
 51 52  1  0  0  0  0
 53 52  1  0  0  0  0
 54 53  1  0  0  0  0
M  END
>  <REMARK>
 VINA RESULT:    -4.549      2.246      4.381
 INTER + INTRA:         -15.459
 INTER:                  -9.349
 INTRA:                  -6.110
 UNBOUND:                -6.788
 SMILES CC(=O)N[C@@H]1[C@@H](O)C[C@](O)(C(=O)O)O[C@H]1C(O)[C@H](O)CNC(=O)OCc1cn(CC(=O)NCc2cccs2)nn1
 SMILES IDX 21 1 22 2 23 3 20 5 18 6 16 7 15 8 9 9 8 10 14 11 6 12 5 13
 SMILES IDX 10 14 11 16 12 17 13 18 7 20 4 22 2 23 1 25 3 26 17 27 19 29
 SMILES IDX 24 31 25 32 26 33 27 34 40 35 28 36 39 37 29 38 30 39 31 40
 SMILES IDX 32 41 33 43 34 44 35 45 38 46 36 47 37 48
 H PARENT 21 4 10 15 13 19 7 21 4 24 17 28 19 30 32 42
 Flexibility Score: inf
  4 active torsions:
  status: ('A' for Active; 'I' for Inactive)
    1  A    between atoms: CA   and  CB  
    2  A    between atoms: CB   and  CG  
    3  A    between atoms: CG   and  CD  
    4  A    between atoms: CD   and  CE  

>  <TORSDO>
F 18

>  <BEGIN_>
RES LYS A 131

$$$$
ligand_18_pose_3_2HRL.pdbqt
 OpenBabel07062320523D

  6  5  0  0  0  0  0  0  0  0999 V2000
   33.1930   34.6630    9.2900 C   0  0  0  0  0  0  0  0  0  0  0  0
   32.0600   35.3600   10.0340 C   0  0  0  0  0  0  0  0  0  0  0  0
   30.8470   35.6190    9.1780 C   0  0  0  0  0  0  0  0  0  0  0  0
   30.0840   34.3270    8.9250 C   0  0  0  0  0  0  0  0  0  0  0  0
   28.7910   34.6090    8.1830 C   0  0  0  0  0  0  0  0  0  0  0  0
   29.0480   35.3650    6.9260 N   0  0  0  0  0  0  0  0  0  0  0  0
  1  2  1  0  0  0  0
  3  2  1  0  0  0  0
  4  3  1  0  0  0  0
  5  4  1  0  0  0  0
  6  5  1  0  0  0  0
M  END
>  <EGIN_R>
ES LYS A 135

>  <REMARK>
  4 active torsions:
  status: ('A' for Active; 'I' for Inactive)
    5  A    between atoms: CA   and  CB  
    6  A    between atoms: CB   and  CG  
    7  A    between atoms: CG   and  CD  
    8  A    between atoms: CD   and  CE  

$$$$
