ligand_31_pose_11_2HRL.pdbqt
 OpenBabel07062320523D

 57 58  0  0  1  0  0  0  0  0999 V2000
   26.3480   35.9180   15.3660 O   0  0  0  0  0  0  0  0  0  0  0  0
   27.1760   35.8610   14.2490 C   0  0  0  0  0  0  0  0  0  0  0  0
   26.8140   35.2890   13.0210 N   0  0  0  0  0  0  0  0  0  0  0  0
   25.8790   34.8740   12.9020 H   0  0  0  0  0  0  0  0  0  0  0  0
   28.3270   36.3600   14.3590 O   0  0  0  0  0  0  0  0  0  0  0  0
   27.7680   35.2840   11.9070 C   0  0  0  0  0  0  0  0  0  0  0  0
   27.2270   36.1500   10.8010 C   0  0  2  0  0  0  0  0  0  0  0  0
   27.9290   37.4770   10.7150 C   0  0  1  0  0  0  0  0  0  0  0  0
   27.4210   38.3310    9.5890 C   0  0  2  0  0  0  0  0  0  0  0  0
   26.0410   38.1220    7.7150 C   0  0  2  0  0  0  0  0  0  0  0  0
   26.7210   39.2670    7.0370 C   0  0  0  0  0  0  0  0  0  0  0  0
   26.7670   37.4890    8.6720 O   0  0  0  0  0  0  0  0  0  0  0  0
   27.7880   39.9290    7.8110 C   0  0  1  0  0  0  0  0  0  0  0  0
   28.5020   38.9970    8.7730 C   0  0  1  0  0  0  0  0  0  0  0  0
   25.8150   37.1630    6.6930 O   0  0  0  0  0  0  0  0  0  0  0  0
   24.8460   37.0410    6.5360 H   0  0  0  0  0  0  0  0  0  0  0  0
   24.7070   38.4800    8.2550 C   0  0  0  0  0  0  0  0  0  0  0  0
   24.1410   39.5680    7.9510 O   0  0  0  0  0  0  0  0  0  0  0  0
   24.0010   37.6540    9.1210 O   0  0  0  0  0  0  0  0  0  0  0  0
   23.9240   36.6610    8.9250 H   0  0  0  0  0  0  0  0  0  0  0  0
   28.7270   40.5090    6.9320 O   0  0  0  0  0  0  0  0  0  0  0  0
   28.3320   41.2320    6.4050 H   0  0  0  0  0  0  0  0  0  0  0  0
   29.4940   39.6980    9.5130 N   0  0  0  0  0  0  0  0  0  0  0  0
   30.8560   39.6140    9.0890 C   0  0  0  0  0  0  0  0  0  0  0  0
   29.3030   40.2860   10.3510 H   0  0  0  0  0  0  0  0  0  0  0  0
   31.9600   40.3060    9.7880 C   0  0  0  0  0  0  0  0  0  0  0  0
   31.1540   38.9240    8.0710 O   0  0  0  0  0  0  0  0  0  0  0  0
   28.0220   38.1360   11.9270 O   0  0  0  0  0  0  0  0  0  0  0  0
   27.2280   38.6850   12.1480 H   0  0  0  0  0  0  0  0  0  0  0  0
   25.8920   36.4600   11.1810 O   0  0  0  0  0  0  0  0  0  0  0  0
   25.5430   36.9950   10.4040 H   0  0  0  0  0  0  0  0  0  0  0  0
   25.7810   34.7510   15.9220 C   0  0  0  0  0  0  0  0  0  0  0  0
   26.8800   33.8200   16.2620 C   0  0  0  0  0  0  0  0  0  0  0  0
   27.2320   32.6790   15.5940 C   0  0  0  0  0  0  0  0  0  0  0  0
   27.7280   33.9400   17.2960 N   0  0  0  0  0  0  0  0  0  0  0  0
   28.2810   32.1380   16.2380 N   0  0  0  0  0  0  0  0  0  0  0  0
   28.5800   32.9080   17.2720 N   0  0  0  0  0  0  0  0  0  0  0  0
   28.9960   30.9080   15.8830 C   0  0  0  0  0  0  0  0  0  0  0  0
   30.4470   31.1130   16.2310 C   0  0  0  0  0  0  0  0  0  0  0  0
   31.0760   31.9110   15.2090 N   0  0  0  0  0  0  0  0  0  0  0  0
   31.7380   33.1380   15.4510 C   0  0  0  0  0  0  0  0  0  0  0  0
   31.0580   31.5820   14.2030 H   0  0  0  0  0  0  0  0  0  0  0  0
   31.7860   33.5680   16.6430 O   0  0  0  0  0  0  0  0  0  0  0  0
   32.3250   33.8530   14.3750 N   0  0  0  0  0  0  0  0  0  0  0  0
   32.3000   33.5240   13.3930 H   0  0  0  0  0  0  0  0  0  0  0  0
   32.9930   35.1030   14.6610 C   0  0  0  0  0  0  0  0  0  0  0  0
   32.4070   36.1540   13.8020 C   0  0  0  0  0  0  0  0  0  0  0  0
   32.5550   36.1970   12.4190 C   0  0  0  0  0  0  0  0  0  0  0  0
   31.6900   37.1660   14.1760 O   0  0  0  0  0  0  0  0  0  0  0  0
   31.8650   37.3180   12.0120 C   0  0  0  0  0  0  0  0  0  0  0  0
   31.3430   37.8870   13.1550 C   0  0  0  0  0  0  0  0  0  0  0  0
   29.8670   25.5550   16.9770 C   0  0  0  0  0  0  0  0  0  0  0  0
   28.3450   25.7220   17.0260 C   0  0  0  0  0  0  0  0  0  0  0  0
   27.5990   24.4590   16.6260 C   0  0  0  0  0  0  0  0  0  0  0  0
   27.0000   23.7540   17.8120 C   0  0  0  0  0  0  0  0  0  0  0  0
   26.2270   24.7570   18.6620 C   0  0  0  0  0  0  0  0  0  0  0  0
   24.8320   24.2990   18.8640 N   0  0  0  0  0  0  0  0  0  0  0  0
  1 32  1  0  0  0  0
  2  5  2  0  0  0  0
  2  1  1  0  0  0  0
  3  2  1  0  0  0  0
  4  3  1  0  0  0  0
  6  3  1  0  0  0  0
  7 30  1  0  0  0  0
  7  6  1  1  0  0  0
  8  7  1  0  0  0  0
  8 28  1  1  0  0  0
  9  8  1  1  0  0  0
 10 15  1  6  0  0  0
 10 17  1  0  0  0  0
 10 12  1  0  0  0  0
 11 10  1  0  0  0  0
 11 13  1  0  0  0  0
 12  9  1  0  0  0  0
 13 21  1  6  0  0  0
 13 14  1  0  0  0  0
 14 23  1  1  0  0  0
 14  9  1  0  0  0  0
 16 15  1  0  0  0  0
 17 19  1  0  0  0  0
 18 17  2  0  0  0  0
 20 19  1  0  0  0  0
 22 21  1  0  0  0  0
 23 25  1  0  0  0  0
 24 23  1  0  0  0  0
 24 26  1  0  0  0  0
 27 24  2  0  0  0  0
 28 29  1  0  0  0  0
 31 30  1  0  0  0  0
 32 33  1  0  0  0  0
 33 35  1  0  0  0  0
 34 36  1  0  0  0  0
 34 33  2  0  0  0  0
 36 37  1  0  0  0  0
 37 35  2  0  0  0  0
 38 39  1  0  0  0  0
 38 36  1  0  0  0  0
 40 41  1  0  0  0  0
 40 39  1  0  0  0  0
 41 43  2  0  0  0  0
 42 40  1  0  0  0  0
 44 46  1  0  0  0  0
 44 41  1  0  0  0  0
 45 44  1  0  0  0  0
 47 49  1  0  0  0  0
 47 46  1  0  0  0  0
 48 47  2  0  0  0  0
 50 48  1  0  0  0  0
 50 51  2  0  0  0  0
 51 49  1  0  0  0  0
 52 53  1  0  0  0  0
 54 53  1  0  0  0  0
 54 55  1  0  0  0  0
 55 56  1  0  0  0  0
 56 57  1  0  0  0  0
M  END
>  <REMARK>
 VINA RESULT:    -4.993      5.277     11.622
 INTER + INTRA:         -15.718
 INTER:                  -9.278
 INTRA:                  -6.439
 UNBOUND:                -5.909
 SMILES CC(=O)N[C@@H]1[C@@H](O)C[C@](O)(C(=O)O)O[C@H]1C(O)[C@H](O)CNC(=O)OCc1cn(CCNC(=O)NCc2ccco2)nn1
 SMILES IDX 24 1 22 2 21 3 23 5 20 6 18 7 16 8 15 9 9 10 8 11 14 12 6 13
 SMILES IDX 5 14 10 15 11 17 12 18 13 19 7 21 4 23 2 24 1 26 3 27 17 28
 SMILES IDX 19 30 25 32 26 33 27 34 42 35 28 36 41 37 29 38 30 39 31 40
 SMILES IDX 32 41 33 43 34 44 35 46 36 47 37 48 40 49 38 50 39 51
 H PARENT 21 4 10 16 13 20 7 22 4 25 17 29 19 31 31 42 34 45
 Flexibility Score: inf
  4 active torsions:
  status: ('A' for Active; 'I' for Inactive)
    1  A    between atoms: CA   and  CB  
    2  A    between atoms: CB   and  CG  
    3  A    between atoms: CG   and  CD  
    4  A    between atoms: CD   and  CE  

>  <TORSDO>
F 19

>  <BEGIN_>
RES LYS A 131

$$$$
ligand_31_pose_11_2HRL.pdbqt
 OpenBabel07062320523D

  6  5  0  0  0  0  0  0  0  0999 V2000
   33.1930   34.6630    9.2900 C   0  0  0  0  0  0  0  0  0  0  0  0
   32.0600   35.3600   10.0340 C   0  0  0  0  0  0  0  0  0  0  0  0
   30.6890   34.8850    9.6260 C   0  0  0  0  0  0  0  0  0  0  0  0
   30.1820   35.6750    8.4290 C   0  0  0  0  0  0  0  0  0  0  0  0
   29.0330   34.9480    7.7590 C   0  0  0  0  0  0  0  0  0  0  0  0
   28.6890   35.5750    6.4530 N   0  0  0  0  0  0  0  0  0  0  0  0
  1  2  1  0  0  0  0
  3  2  1  0  0  0  0
  4  3  1  0  0  0  0
  5  4  1  0  0  0  0
  6  5  1  0  0  0  0
M  END
>  <EGIN_R>
ES LYS A 135

>  <REMARK>
  4 active torsions:
  status: ('A' for Active; 'I' for Inactive)
    5  A    between atoms: CA   and  CB  
    6  A    between atoms: CB   and  CG  
    7  A    between atoms: CG   and  CD  
    8  A    between atoms: CD   and  CE  

$$$$
