ligand_50_pose_2_2HRL.pdbqt
 OpenBabel07062320523D

 50 50  0  0  1  0  0  0  0  0999 V2000
   25.8950   34.3040   13.8660 N   0  0  0  0  0  0  0  0  0  0  0  0
   25.0830   33.1440   13.9010 C   0  0  0  0  0  0  0  0  0  0  0  0
   24.8010   32.5210   12.8620 O   0  0  0  0  0  0  0  0  0  0  0  0
   26.0770   34.7670   14.8070 H   0  0  0  0  0  0  0  0  0  0  0  0
   26.4250   34.8100   12.6460 C   0  0  0  0  0  0  0  0  0  0  0  0
   27.9370   34.8100   12.5930 C   0  0  2  0  0  0  0  0  0  0  0  0
   28.4160   34.6830   14.0340 C   0  0  1  0  0  0  0  0  0  0  0  0
   29.6490   33.7760   14.1020 C   0  0  2  0  0  0  0  0  0  0  0  0
   30.0650   32.8330   16.1850 C   0  0  2  0  0  0  0  0  0  0  0  0
   31.5250   32.6200   15.8390 C   0  0  0  0  0  0  0  0  0  0  0  0
   29.3680   32.7870   15.0020 O   0  0  0  0  0  0  0  0  0  0  0  0
   31.9770   33.8040   15.0560 C   0  0  1  0  0  0  0  0  0  0  0  0
   30.8690   34.5880   14.4020 C   0  0  1  0  0  0  0  0  0  0  0  0
   29.9820   34.0630   16.8350 O   0  0  0  0  0  0  0  0  0  0  0  0
   30.7770   34.2570   17.3820 H   0  0  0  0  0  0  0  0  0  0  0  0
   29.5580   31.7600   17.0780 C   0  0  0  0  0  0  0  0  0  0  0  0
   29.2630   32.0540   18.2640 O   0  0  0  0  0  0  0  0  0  0  0  0
   29.4190   30.4770   16.6030 O   0  0  0  0  0  0  0  0  0  0  0  0
   29.7110   29.6830   17.1630 H   0  0  0  0  0  0  0  0  0  0  0  0
   32.6360   34.6730   15.9340 O   0  0  0  0  0  0  0  0  0  0  0  0
   33.0080   34.1640   16.6770 H   0  0  0  0  0  0  0  0  0  0  0  0
   31.4240   35.1400   13.1840 N   0  0  0  0  0  0  0  0  0  0  0  0
   31.6570   36.5370   13.0970 C   0  0  0  0  0  0  0  0  0  0  0  0
   31.6640   34.5500   12.3540 H   0  0  0  0  0  0  0  0  0  0  0  0
   32.2300   37.1650   11.8560 C   0  0  0  0  0  0  0  0  0  0  0  0
   31.4030   37.3330   14.0370 O   0  0  0  0  0  0  0  0  0  0  0  0
   28.6520   35.9360   14.5470 O   0  0  0  0  0  0  0  0  0  0  0  0
   29.6190   36.1780   14.4960 H   0  0  0  0  0  0  0  0  0  0  0  0
   28.4060   35.9880   12.0130 O   0  0  0  0  0  0  0  0  0  0  0  0
   29.2200   35.7650   11.5210 H   0  0  0  0  0  0  0  0  0  0  0  0
   24.5700   32.6570   15.1130 O   0  0  0  0  0  0  0  0  0  0  0  0
   25.3410   32.8140   16.2690 C   0  0  0  0  0  0  0  0  0  0  0  0
   25.8180   31.5120   16.8010 C   0  0  0  0  0  0  0  0  0  0  0  0
   25.8480   31.1210   18.1080 C   0  0  0  0  0  0  0  0  0  0  0  0
   26.3030   30.4940   16.0860 N   0  0  0  0  0  0  0  0  0  0  0  0
   26.3590   29.8610   18.1290 N   0  0  0  0  0  0  0  0  0  0  0  0
   26.6320   29.4910   16.8850 N   0  0  0  0  0  0  0  0  0  0  0  0
   26.5620   29.0670   19.3380 C   0  0  0  0  0  0  0  0  0  0  0  0
   28.0570   29.0510   19.5860 C   0  0  1  0  0  0  0  0  0  0  0  0
   28.4280   30.2200   20.2390 O   0  0  0  0  0  0  0  0  0  0  0  0
   27.7750   30.9290   19.9920 H   0  0  0  0  0  0  0  0  0  0  0  0
   28.4360   27.8400   20.4450 C   0  0  0  0  0  0  0  0  0  0  0  0
   28.5110   26.7060   19.6340 O   0  0  0  0  0  0  0  0  0  0  0  0
   29.1690   26.8730   18.8950 H   0  0  0  0  0  0  0  0  0  0  0  0
   29.8670   25.5550   16.9770 C   0  0  0  0  0  0  0  0  0  0  0  0
   28.3450   25.7220   17.0260 C   0  0  0  0  0  0  0  0  0  0  0  0
   27.6020   24.4000   16.9170 C   0  0  0  0  0  0  0  0  0  0  0  0
   26.5570   24.2470   17.9870 C   0  0  0  0  0  0  0  0  0  0  0  0
   25.2300   23.8470   17.3500 C   0  0  0  0  0  0  0  0  0  0  0  0
   24.9790   22.3990   17.5390 N   0  0  0  0  0  0  0  0  0  0  0  0
  1  2  1  0  0  0  0
  1  4  1  0  0  0  0
  2 31  1  0  0  0  0
  3  2  2  0  0  0  0
  5  1  1  0  0  0  0
  6  5  1  1  0  0  0
  6  7  1  0  0  0  0
  7 27  1  6  0  0  0
  8  7  1  1  0  0  0
  8 13  1  0  0  0  0
  8 11  1  0  0  0  0
  9 14  1  1  0  0  0
  9 16  1  0  0  0  0
 10  9  1  0  0  0  0
 11  9  1  0  0  0  0
 12 10  1  0  0  0  0
 12 20  1  1  0  0  0
 13 22  1  6  0  0  0
 13 12  1  0  0  0  0
 14 15  1  0  0  0  0
 16 17  2  0  0  0  0
 18 16  1  0  0  0  0
 18 19  1  0  0  0  0
 20 21  1  0  0  0  0
 23 22  1  0  0  0  0
 23 26  2  0  0  0  0
 24 22  1  0  0  0  0
 25 23  1  0  0  0  0
 28 27  1  0  0  0  0
 29  6  1  0  0  0  0
 30 29  1  0  0  0  0
 31 32  1  0  0  0  0
 32 33  1  0  0  0  0
 33 34  2  0  0  0  0
 34 36  1  0  0  0  0
 35 33  1  0  0  0  0
 35 37  2  0  0  0  0
 36 38  1  0  0  0  0
 37 36  1  0  0  0  0
 39 38  1  1  0  0  0
 39 40  1  0  0  0  0
 39 42  1  0  0  0  0
 41 40  1  0  0  0  0
 43 42  1  0  0  0  0
 44 43  1  0  0  0  0
 45 46  1  0  0  0  0
 47 46  1  0  0  0  0
 47 48  1  0  0  0  0
 49 50  1  0  0  0  0
 49 48  1  0  0  0  0
M  END
>  <REMARK>
 VINA RESULT:    -4.775      2.963      7.335
 INTER + INTRA:         -14.580
 INTER:                  -7.772
 INTRA:                  -6.808
 UNBOUND:                -5.477
 SMILES CC(=O)N[C@@H]1[C@@H](O)C[C@](O)(C(=O)O)O[C@H]1C(O)[C@H](O)CNC(=O)OCc1cn(CC(O)CO)nn1
 SMILES IDX 21 1 22 2 23 3 20 5 18 6 16 7 15 8 9 9 8 10 14 11 6 12 5 13
 SMILES IDX 10 14 11 16 12 17 13 18 7 20 4 22 2 23 1 25 3 26 17 27 19 29
 SMILES IDX 24 31 25 32 26 33 27 34 35 35 28 36 34 37 29 38 30 39 31 40
 SMILES IDX 32 42 33 43
 H PARENT 21 4 10 15 13 19 7 21 4 24 17 28 19 30 31 41 33 44
 Flexibility Score: inf
  4 active torsions:
  status: ('A' for Active; 'I' for Inactive)
    1  A    between atoms: CA   and  CB  
    2  A    between atoms: CB   and  CG  
    3  A    between atoms: CG   and  CD  
    4  A    between atoms: CD   and  CE  

>  <TORSDO>
F 19

>  <BEGIN_>
RES LYS A 131

$$$$
ligand_50_pose_2_2HRL.pdbqt
 OpenBabel07062320523D

  6  5  0  0  0  0  0  0  0  0999 V2000
   33.1930   34.6630    9.2900 C   0  0  0  0  0  0  0  0  0  0  0  0
   32.0600   35.3600   10.0340 C   0  0  0  0  0  0  0  0  0  0  0  0
   30.7800   35.4410    9.2430 C   0  0  0  0  0  0  0  0  0  0  0  0
   30.1240   34.0720    9.1420 C   0  0  0  0  0  0  0  0  0  0  0  0
   28.6380   34.2130    8.8720 C   0  0  0  0  0  0  0  0  0  0  0  0
   28.3890   35.0380    7.6580 N   0  0  0  0  0  0  0  0  0  0  0  0
  1  2  1  0  0  0  0
  3  2  1  0  0  0  0
  4  3  1  0  0  0  0
  5  4  1  0  0  0  0
  6  5  1  0  0  0  0
M  END
>  <EGIN_R>
ES LYS A 135

>  <REMARK>
  4 active torsions:
  status: ('A' for Active; 'I' for Inactive)
    5  A    between atoms: CA   and  CB  
    6  A    between atoms: CB   and  CG  
    7  A    between atoms: CG   and  CD  
    8  A    between atoms: CD   and  CE  

$$$$
