ligand_26_pose_16_2HRL.pdbqt
 OpenBabel07062320523D

 54 55  0  0  1  0  0  0  0  0999 V2000
   27.1570   30.3210   22.1300 N   0  0  0  0  0  0  0  0  0  0  0  0
   26.1870   31.3570   22.0110 C   0  0  0  0  0  0  0  0  0  0  0  0
   25.1890   31.1610   21.2930 O   0  0  0  0  0  0  0  0  0  0  0  0
   27.9800   30.5640   22.7630 H   0  0  0  0  0  0  0  0  0  0  0  0
   27.0690   29.0380   21.4680 C   0  0  0  0  0  0  0  0  0  0  0  0
   27.9760   28.9620   20.2600 C   0  0  2  0  0  0  0  0  0  0  0  0
   29.1080   27.9780   20.4650 C   0  0  1  0  0  0  0  0  0  0  0  0
   29.6650   28.0050   21.8570 C   0  0  2  0  0  0  0  0  0  0  0  0
   31.4520   29.5040   21.7960 C   0  0  2  0  0  0  0  0  0  0  0  0
   32.4660   28.4010   21.9670 C   0  0  0  0  0  0  0  0  0  0  0  0
   30.1910   29.2150   22.2220 O   0  0  0  0  0  0  0  0  0  0  0  0
   31.9710   27.0690   21.4890 C   0  0  1  0  0  0  0  0  0  0  0  0
   30.6130   26.8470   22.1150 C   0  0  1  0  0  0  0  0  0  0  0  0
   31.5100   29.9880   20.4700 O   0  0  0  0  0  0  0  0  0  0  0  0
   32.1430   30.7240   20.3720 H   0  0  0  0  0  0  0  0  0  0  0  0
   31.9470   30.6430   22.6550 C   0  0  0  0  0  0  0  0  0  0  0  0
   32.0000   30.5950   23.8910 O   0  0  0  0  0  0  0  0  0  0  0  0
   32.3530   31.7820   21.9400 O   0  0  0  0  0  0  0  0  0  0  0  0
   33.1620   32.3110   22.2270 H   0  0  0  0  0  0  0  0  0  0  0  0
   31.9540   26.9570   20.1190 O   0  0  0  0  0  0  0  0  0  0  0  0
   31.1420   27.3860   19.7570 H   0  0  0  0  0  0  0  0  0  0  0  0
   30.8470   26.8440   23.5680 N   0  0  0  0  0  0  0  0  0  0  0  0
   30.1760   25.8840   24.3740 C   0  0  0  0  0  0  0  0  0  0  0  0
   31.4880   27.5210   24.0250 H   0  0  0  0  0  0  0  0  0  0  0  0
   30.4250   25.8940   25.8380 C   0  0  0  0  0  0  0  0  0  0  0  0
   29.4040   25.0680   23.8240 O   0  0  0  0  0  0  0  0  0  0  0  0
   28.6050   26.7150   20.1440 O   0  0  0  0  0  0  0  0  0  0  0  0
   27.6240   26.6950   20.3520 H   0  0  0  0  0  0  0  0  0  0  0  0
   28.4930   30.2480   20.0010 O   0  0  0  0  0  0  0  0  0  0  0  0
   28.7740   30.7050   20.8320 H   0  0  0  0  0  0  0  0  0  0  0  0
   26.3060   32.5670   22.6560 O   0  0  0  0  0  0  0  0  0  0  0  0
   26.9260   33.7200   22.1340 C   0  0  0  0  0  0  0  0  0  0  0  0
   28.1430   33.4630   21.3580 C   0  0  0  0  0  0  0  0  0  0  0  0
   28.4480   34.0150   20.1070 C   0  0  0  0  0  0  0  0  0  0  0  0
   29.2030   32.6700   21.6580 N   0  0  0  0  0  0  0  0  0  0  0  0
   29.6230   33.5540   19.7260 N   0  0  0  0  0  0  0  0  0  0  0  0
   30.0590   32.7560   20.6570 N   0  0  0  0  0  0  0  0  0  0  0  0
   30.3110   33.9060   18.4430 C   0  0  1  0  0  0  0  0  0  0  0  0
   31.4400   34.8090   18.8660 C   0  0  0  0  0  0  0  0  0  0  0  0
   30.7640   32.6540   17.8530 C   0  0  0  0  0  0  0  0  0  0  0  0
   30.8990   32.5200   16.4360 C   0  0  2  0  0  0  0  0  0  0  0  0
   30.7390   31.2570   16.0280 O   0  0  0  0  0  0  0  0  0  0  0  0
   31.1680   33.4300   15.3670 C   0  0  0  0  0  0  0  0  0  0  0  0
   32.4260   34.0830   15.3360 C   0  0  0  0  0  0  0  0  0  0  0  0
   30.3130   33.7250   14.3340 C   0  0  0  0  0  0  0  0  0  0  0  0
   32.7560   34.9550   14.3310 C   0  0  0  0  0  0  0  0  0  0  0  0
   30.6810   34.6130   13.3330 C   0  0  0  0  0  0  0  0  0  0  0  0
   31.8850   35.2370   13.3080 C   0  0  0  0  0  0  0  0  0  0  0  0
   29.8670   25.5550   16.9770 C   0  0  0  0  0  0  0  0  0  0  0  0
   28.3450   25.7220   17.0260 C   0  0  0  0  0  0  0  0  0  0  0  0
   27.6020   24.4000   16.9130 C   0  0  0  0  0  0  0  0  0  0  0  0
   26.6490   24.1870   18.0560 C   0  0  0  0  0  0  0  0  0  0  0  0
   25.8480   25.4620   18.2970 C   0  0  0  0  0  0  0  0  0  0  0  0
   25.4260   25.5510   19.7150 N   0  0  0  0  0  0  0  0  0  0  0  0
  1  4  1  0  0  0  0
  2  1  1  0  0  0  0
  2 31  1  0  0  0  0
  3  2  2  0  0  0  0
  5  1  1  0  0  0  0
  6  7  1  0  0  0  0
  6  5  1  1  0  0  0
  7 27  1  1  0  0  0
  8  7  1  6  0  0  0
  8 13  1  0  0  0  0
  8 11  1  0  0  0  0
  9 14  1  6  0  0  0
  9 10  1  0  0  0  0
  9 11  1  0  0  0  0
  9 16  1  0  0  0  0
 12 20  1  6  0  0  0
 12 10  1  0  0  0  0
 12 13  1  0  0  0  0
 13 22  1  1  0  0  0
 15 14  1  0  0  0  0
 16 17  2  0  0  0  0
 18 19  1  0  0  0  0
 18 16  1  0  0  0  0
 21 20  1  0  0  0  0
 22 24  1  0  0  0  0
 22 23  1  0  0  0  0
 23 25  1  0  0  0  0
 26 23  2  0  0  0  0
 27 28  1  0  0  0  0
 29  6  1  0  0  0  0
 29 30  1  0  0  0  0
 32 31  1  0  0  0  0
 33 35  1  0  0  0  0
 33 32  1  0  0  0  0
 34 33  2  0  0  0  0
 36 34  1  0  0  0  0
 36 37  1  0  0  0  0
 37 35  2  0  0  0  0
 38 39  1  1  0  0  0
 38 36  1  0  0  0  0
 40 38  1  0  0  0  0
 41 42  1  1  0  0  0
 41 40  1  0  0  0  0
 43 41  1  0  0  0  0
 44 43  1  0  0  0  0
 45 43  2  0  0  0  0
 46 44  2  0  0  0  0
 47 45  1  0  0  0  0
 48 47  2  0  0  0  0
 48 46  1  0  0  0  0
 49 50  1  0  0  0  0
 51 50  1  0  0  0  0
 51 52  1  0  0  0  0
 52 53  1  0  0  0  0
 53 54  1  0  0  0  0
M  END
>  <REMARK>
 VINA RESULT:    -4.540      2.605      3.961
 INTER + INTRA:         -15.588
 INTER:                  -8.463
 INTRA:                  -7.124
 UNBOUND:                -6.934
 SMILES CC(=O)N[C@@H]1[C@@H](O)C[C@](O)(C(=O)O)O[C@H]1C(O)[C@H](O)CNC(=O)OCc1cn(C(C)CC(=O)c2ccccc2)nn1
 SMILES IDX 21 1 22 2 23 3 20 5 18 6 16 7 15 8 9 9 8 10 14 11 6 12 5 13
 SMILES IDX 10 14 11 16 12 17 13 18 7 20 4 22 2 23 1 25 3 26 17 27 19 29
 SMILES IDX 24 31 25 32 26 33 27 34 41 35 28 36 40 37 29 38 30 39 31 40
 SMILES IDX 32 41 33 42 34 43 35 44 39 45 36 46 38 47 37 48
 H PARENT 21 4 10 15 13 19 7 21 4 24 17 28 19 30
 Flexibility Score: inf
  4 active torsions:
  status: ('A' for Active; 'I' for Inactive)
    1  A    between atoms: CA   and  CB  
    2  A    between atoms: CB   and  CG  
    3  A    between atoms: CG   and  CD  
    4  A    between atoms: CD   and  CE  

>  <TORSDO>
F 18

>  <BEGIN_>
RES LYS A 131

$$$$
ligand_26_pose_16_2HRL.pdbqt
 OpenBabel07062320523D

  6  5  0  0  0  0  0  0  0  0999 V2000
   33.1930   34.6630    9.2900 C   0  0  0  0  0  0  0  0  0  0  0  0
   32.0600   35.3600   10.0340 C   0  0  0  0  0  0  0  0  0  0  0  0
   30.7010   34.7750    9.7470 C   0  0  0  0  0  0  0  0  0  0  0  0
   30.5380   34.5020    8.2590 C   0  0  0  0  0  0  0  0  0  0  0  0
   29.3570   35.2720    7.7020 C   0  0  0  0  0  0  0  0  0  0  0  0
   28.0690   34.7080    8.1920 N   0  0  0  0  0  0  0  0  0  0  0  0
  1  2  1  0  0  0  0
  3  2  1  0  0  0  0
  4  3  1  0  0  0  0
  5  6  1  0  0  0  0
  5  4  1  0  0  0  0
M  END
>  <EGIN_R>
ES LYS A 135

>  <REMARK>
  4 active torsions:
  status: ('A' for Active; 'I' for Inactive)
    5  A    between atoms: CA   and  CB  
    6  A    between atoms: CB   and  CG  
    7  A    between atoms: CG   and  CD  
    8  A    between atoms: CD   and  CE  

$$$$
