ligand_63_pose_1_2HRL.pdbqt
 OpenBabel07062320523D

 51 52  0  0  1  0  0  0  0  0999 V2000
   27.8340   28.2560   18.3500 N   0  0  0  0  0  0  0  0  0  0  0  0
   26.8560   28.7380   17.4160 C   0  0  0  0  0  0  0  0  0  0  0  0
   25.7260   28.2420   17.3490 O   0  0  0  0  0  0  0  0  0  0  0  0
   28.7570   28.8040   18.3030 H   0  0  0  0  0  0  0  0  0  0  0  0
   27.6330   27.2350   19.2630 C   0  0  0  0  0  0  0  0  0  0  0  0
   27.5910   27.6000   20.7680 C   0  0  2  0  0  0  0  0  0  0  0  0
   28.9820   28.0010   21.0780 C   0  0  1  0  0  0  0  0  0  0  0  0
   29.2720   29.3950   21.5030 C   0  0  2  0  0  0  0  0  0  0  0  0
   29.2530   31.0960   19.8780 C   0  0  2  0  0  0  0  0  0  0  0  0
   30.1030   32.0400   20.6920 C   0  0  0  0  0  0  0  0  0  0  0  0
   28.4850   30.2530   20.6860 O   0  0  0  0  0  0  0  0  0  0  0  0
   30.5800   31.3460   21.9840 C   0  0  1  0  0  0  0  0  0  0  0  0
   30.6560   29.8550   21.5740 C   0  0  1  0  0  0  0  0  0  0  0  0
   30.0270   30.4290   18.9410 O   0  0  0  0  0  0  0  0  0  0  0  0
   30.0470   30.8380   18.0630 H   0  0  0  0  0  0  0  0  0  0  0  0
   28.2540   31.9420   19.1940 C   0  0  0  0  0  0  0  0  0  0  0  0
   27.0890   31.8710   19.1120 O   0  0  0  0  0  0  0  0  0  0  0  0
   28.8860   33.0840   18.4990 O   0  0  0  0  0  0  0  0  0  0  0  0
   28.3280   33.5020   17.7500 H   0  0  0  0  0  0  0  0  0  0  0  0
   31.8010   31.8250   22.3830 O   0  0  0  0  0  0  0  0  0  0  0  0
   32.5070   31.5890   21.7550 H   0  0  0  0  0  0  0  0  0  0  0  0
   31.4590   29.1790   22.6030 N   0  0  0  0  0  0  0  0  0  0  0  0
   32.8030   28.8900   22.3200 C   0  0  0  0  0  0  0  0  0  0  0  0
   31.0470   28.9530   23.4880 H   0  0  0  0  0  0  0  0  0  0  0  0
   33.8830   28.3030   23.0230 C   0  0  0  0  0  0  0  0  0  0  0  0
   33.0830   29.3130   21.0540 O   0  0  0  0  0  0  0  0  0  0  0  0
   29.6690   26.9980   21.6980 O   0  0  0  0  0  0  0  0  0  0  0  0
   29.7810   26.1960   21.1230 H   0  0  0  0  0  0  0  0  0  0  0  0
   27.0730   26.4990   21.3890 O   0  0  0  0  0  0  0  0  0  0  0  0
   26.4830   26.7840   22.1310 H   0  0  0  0  0  0  0  0  0  0  0  0
   27.2000   29.7950   16.5720 O   0  0  0  0  0  0  0  0  0  0  0  0
   28.4190   29.7620   15.8000 C   0  0  0  0  0  0  0  0  0  0  0  0
   28.7280   31.2260   15.6040 C   0  0  0  0  0  0  0  0  0  0  0  0
   29.9040   31.7570   15.1630 C   0  0  0  0  0  0  0  0  0  0  0  0
   27.8480   32.2150   15.7550 N   0  0  0  0  0  0  0  0  0  0  0  0
   29.6810   33.1030   15.0520 N   0  0  0  0  0  0  0  0  0  0  0  0
   28.4140   33.3390   15.4230 N   0  0  0  0  0  0  0  0  0  0  0  0
   30.5780   34.0710   14.6120 C   0  0  0  0  0  0  0  0  0  0  0  0
   30.6180   34.4370   13.2630 N   0  0  0  0  0  0  0  0  0  0  0  0
   31.5500   34.6780   15.3780 C   0  0  0  0  0  0  0  0  0  0  0  0
   31.4950   35.2510   12.8480 C   0  0  0  0  0  0  0  0  0  0  0  0
   32.4620   35.5250   14.9300 C   0  0  0  0  0  0  0  0  0  0  0  0
   32.5260   35.9140   13.5610 C   0  0  0  0  0  0  0  0  0  0  0  0
   31.6330   34.2890   16.8390 C   0  0  0  0  0  0  0  0  0  0  0  0
   31.7050   34.0350   17.8150 N   0  0  0  0  0  0  0  0  0  0  0  0
   29.8670   25.5550   16.9770 C   0  0  0  0  0  0  0  0  0  0  0  0
   28.3450   25.7220   17.0260 C   0  0  0  0  0  0  0  0  0  0  0  0
   27.6010   24.4060   16.8620 C   0  0  0  0  0  0  0  0  0  0  0  0
   26.1530   24.5210   17.2540 C   0  0  0  0  0  0  0  0  0  0  0  0
   25.9640   23.9800   18.6670 C   0  0  0  0  0  0  0  0  0  0  0  0
   24.8770   24.7110   19.3610 N   0  0  0  0  0  0  0  0  0  0  0  0
  1  5  1  0  0  0  0
  2  1  1  0  0  0  0
  3  2  2  0  0  0  0
  4  1  1  0  0  0  0
  6  5  1  6  0  0  0
  6  7  1  0  0  0  0
  6 29  1  0  0  0  0
  7 27  1  1  0  0  0
  8  7  1  6  0  0  0
  8 13  1  0  0  0  0
  9 14  1  6  0  0  0
  9 11  1  0  0  0  0
  9 10  1  0  0  0  0
 10 12  1  0  0  0  0
 11  8  1  0  0  0  0
 12 20  1  6  0  0  0
 13 12  1  0  0  0  0
 13 22  1  1  0  0  0
 15 14  1  0  0  0  0
 16  9  1  0  0  0  0
 17 16  2  0  0  0  0
 18 16  1  0  0  0  0
 19 18  1  0  0  0  0
 21 20  1  0  0  0  0
 22 24  1  0  0  0  0
 23 22  1  0  0  0  0
 23 25  1  0  0  0  0
 26 23  2  0  0  0  0
 28 27  1  0  0  0  0
 29 30  1  0  0  0  0
 31  2  1  0  0  0  0
 32 31  1  0  0  0  0
 33 35  1  0  0  0  0
 33 32  1  0  0  0  0
 34 33  2  0  0  0  0
 36 34  1  0  0  0  0
 36 37  1  0  0  0  0
 37 35  2  0  0  0  0
 38 36  1  0  0  0  0
 38 40  2  0  0  0  0
 39 38  1  0  0  0  0
 40 44  1  0  0  0  0
 41 39  2  0  0  0  0
 41 43  1  0  0  0  0
 42 40  1  0  0  0  0
 43 42  2  0  0  0  0
 44 45  3  0  0  0  0
 46 47  1  0  0  0  0
 48 47  1  0  0  0  0
 48 49  1  0  0  0  0
 49 50  1  0  0  0  0
 50 51  1  0  0  0  0
M  END
>  <REMARK>
 VINA RESULT:    -4.387      6.469     11.321
 INTER + INTRA:         -14.892
 INTER:                  -8.303
 INTRA:                  -6.588
 UNBOUND:                -7.042
 SMILES CC(=O)N[C@@H]1[C@@H](O)C[C@](O)(C(=O)O)O[C@H]1C(O)[C@H](O)CNC(=O)OCc1cn(-c2ncccc2C#N)nn1
 SMILES IDX 21 1 22 2 23 3 20 5 18 6 16 7 15 8 9 9 8 10 14 11 6 12 5 13
 SMILES IDX 10 14 11 16 12 17 13 18 7 20 4 22 2 23 1 25 3 26 17 27 19 29
 SMILES IDX 24 31 25 32 26 33 27 34 38 35 28 36 37 37 29 38 30 39 34 40
 SMILES IDX 31 41 33 42 32 43 35 44 36 45
 H PARENT 21 4 10 15 13 19 7 21 4 24 17 28 19 30
 Flexibility Score: inf
  4 active torsions:
  status: ('A' for Active; 'I' for Inactive)
    1  A    between atoms: CA   and  CB  
    2  A    between atoms: CB   and  CG  
    3  A    between atoms: CG   and  CD  
    4  A    between atoms: CD   and  CE  

>  <TORSDO>
F 16

>  <BEGIN_>
RES LYS A 131

$$$$
ligand_63_pose_1_2HRL.pdbqt
 OpenBabel07062320523D

  6  5  0  0  0  0  0  0  0  0999 V2000
   33.1930   34.6630    9.2900 C   0  0  0  0  0  0  0  0  0  0  0  0
   32.0600   35.3600   10.0340 C   0  0  0  0  0  0  0  0  0  0  0  0
   30.7870   35.4620    9.2340 C   0  0  0  0  0  0  0  0  0  0  0  0
   30.1830   34.0840    9.0090 C   0  0  0  0  0  0  0  0  0  0  0  0
   28.7460   34.0470    9.4920 C   0  0  0  0  0  0  0  0  0  0  0  0
   27.8130   34.5410    8.4420 N   0  0  0  0  0  0  0  0  0  0  0  0
  1  2  1  0  0  0  0
  3  2  1  0  0  0  0
  4  3  1  0  0  0  0
  4  5  1  0  0  0  0
  6  5  1  0  0  0  0
M  END
>  <EGIN_R>
ES LYS A 135

>  <REMARK>
  4 active torsions:
  status: ('A' for Active; 'I' for Inactive)
    5  A    between atoms: CA   and  CB  
    6  A    between atoms: CB   and  CG  
    7  A    between atoms: CG   and  CD  
    8  A    between atoms: CD   and  CE  

$$$$
