ligand_56_pose_15_2HRL.pdbqt
 OpenBabel07062320523D

 49 50  0  0  1  0  0  0  0  0999 V2000
   18.0220   39.6020    9.4890 C   0  0  0  0  0  0  0  0  0  0  0  0
   17.6760   39.4370    8.0510 C   0  0  2  0  0  0  0  0  0  0  0  0
   17.1090   38.0620    7.7390 C   0  0  2  0  0  0  0  0  0  0  0  0
   17.9130   36.9450    8.2990 C   0  0  2  0  0  0  0  0  0  0  0  0
   19.6970   35.5320    7.9200 C   0  0  2  0  0  0  0  0  0  0  0  0
   19.2670   34.9010    9.2200 C   0  0  0  0  0  0  0  0  0  0  0  0
   19.1140   36.7460    7.6770 O   0  0  0  0  0  0  0  0  0  0  0  0
   17.7750   34.7470    9.3260 C   0  0  1  0  0  0  0  0  0  0  0  0
   17.1490   35.6320    8.2660 C   0  0  1  0  0  0  0  0  0  0  0  0
   19.5360   34.6610    6.8420 O   0  0  0  0  0  0  0  0  0  0  0  0
   19.0590   35.0950    6.0840 H   0  0  0  0  0  0  0  0  0  0  0  0
   21.1780   35.7730    8.0400 C   0  0  0  0  0  0  0  0  0  0  0  0
   21.8590   35.3750    8.9970 O   0  0  0  0  0  0  0  0  0  0  0  0
   21.7610   36.4840    6.9940 O   0  0  0  0  0  0  0  0  0  0  0  0
   22.5960   37.0410    7.1540 H   0  0  0  0  0  0  0  0  0  0  0  0
   17.3720   33.4230    9.1510 O   0  0  0  0  0  0  0  0  0  0  0  0
   16.4240   33.3300    9.4130 H   0  0  0  0  0  0  0  0  0  0  0  0
   15.7350   35.8200    8.4910 N   0  0  0  0  0  0  0  0  0  0  0  0
   14.7750   35.0530    7.7760 C   0  0  0  0  0  0  0  0  0  0  0  0
   15.3800   36.5140    9.1740 H   0  0  0  0  0  0  0  0  0  0  0  0
   13.3020   35.2220    7.9850 C   0  0  0  0  0  0  0  0  0  0  0  0
   15.1780   34.2040    6.9410 O   0  0  0  0  0  0  0  0  0  0  0  0
   16.7600   37.9570    6.4180 O   0  0  0  0  0  0  0  0  0  0  0  0
   15.7680   37.9420    6.3430 H   0  0  0  0  0  0  0  0  0  0  0  0
   18.7620   39.5950    7.2090 O   0  0  0  0  0  0  0  0  0  0  0  0
   19.2670   38.7670    7.0510 H   0  0  0  0  0  0  0  0  0  0  0  0
   19.4160   39.8910    9.6620 N   0  0  0  0  0  0  0  0  0  0  0  0
   20.3970   39.0920   10.2600 C   0  0  0  0  0  0  0  0  0  0  0  0
   19.7740   40.8390    9.2900 H   0  0  0  0  0  0  0  0  0  0  0  0
   20.1150   37.9900   10.7330 O   0  0  0  0  0  0  0  0  0  0  0  0
   21.7440   39.4900   10.3580 O   0  0  0  0  0  0  0  0  0  0  0  0
   22.4720   39.7920    9.1620 C   0  0  0  0  0  0  0  0  0  0  0  0
   23.4340   38.7320    8.8470 C   0  0  0  0  0  0  0  0  0  0  0  0
   24.1630   37.9290    9.6960 C   0  0  0  0  0  0  0  0  0  0  0  0
   23.7770   38.3520    7.5990 N   0  0  0  0  0  0  0  0  0  0  0  0
   24.9080   37.1070    8.9220 N   0  0  0  0  0  0  0  0  0  0  0  0
   24.6690   37.3700    7.6620 N   0  0  0  0  0  0  0  0  0  0  0  0
   25.8180   36.1030    9.3760 C   0  0  0  0  0  0  0  0  0  0  0  0
   26.2910   36.1750   10.6650 C   0  0  0  0  0  0  0  0  0  0  0  0
   26.2160   35.0780    8.5260 C   0  0  0  0  0  0  0  0  0  0  0  0
   27.1680   35.1990   11.0860 C   0  0  0  0  0  0  0  0  0  0  0  0
   27.0860   34.1350    8.9910 C   0  0  0  0  0  0  0  0  0  0  0  0
   27.5420   34.2150   10.2580 N   0  0  0  0  0  0  0  0  0  0  0  0
   29.8670   25.5550   16.9770 C   0  0  0  0  0  0  0  0  0  0  0  0
   28.3450   25.7220   17.0260 C   0  0  0  0  0  0  0  0  0  0  0  0
   27.5990   24.4390   16.6930 C   0  0  0  0  0  0  0  0  0  0  0  0
   26.8110   23.9220   17.8650 C   0  0  0  0  0  0  0  0  0  0  0  0
   25.3550   23.7290   17.4540 C   0  0  0  0  0  0  0  0  0  0  0  0
   24.9080   22.3490   17.7590 N   0  0  0  0  0  0  0  0  0  0  0  0
  1 27  1  0  0  0  0
  2  1  1  1  0  0  0
  3 23  1  6  0  0  0
  3  2  1  0  0  0  0
  4  3  1  6  0  0  0
  5 10  1  6  0  0  0
  5 12  1  0  0  0  0
  5  6  1  0  0  0  0
  6  8  1  0  0  0  0
  7  5  1  0  0  0  0
  7  4  1  0  0  0  0
  8 16  1  6  0  0  0
  9  4  1  0  0  0  0
  9 18  1  1  0  0  0
  9  8  1  0  0  0  0
 11 10  1  0  0  0  0
 12 13  2  0  0  0  0
 14 15  1  0  0  0  0
 14 12  1  0  0  0  0
 16 17  1  0  0  0  0
 18 20  1  0  0  0  0
 19 21  1  0  0  0  0
 19 18  1  0  0  0  0
 22 19  2  0  0  0  0
 24 23  1  0  0  0  0
 25  2  1  0  0  0  0
 26 25  1  0  0  0  0
 27 28  1  0  0  0  0
 28 31  1  0  0  0  0
 28 30  2  0  0  0  0
 29 27  1  0  0  0  0
 32 31  1  0  0  0  0
 33 32  1  0  0  0  0
 33 34  2  0  0  0  0
 35 37  2  0  0  0  0
 35 33  1  0  0  0  0
 36 38  1  0  0  0  0
 36 34  1  0  0  0  0
 37 36  1  0  0  0  0
 38 39  2  0  0  0  0
 39 41  1  0  0  0  0
 40 42  2  0  0  0  0
 40 38  1  0  0  0  0
 42 43  1  0  0  0  0
 43 41  2  0  0  0  0
 44 45  1  0  0  0  0
 46 45  1  0  0  0  0
 46 47  1  0  0  0  0
 48 49  1  0  0  0  0
 48 47  1  0  0  0  0
M  END
>  <REMARK>
 VINA RESULT:    -4.763     10.902     16.721
 INTER + INTRA:         -13.516
 INTER:                  -8.132
 INTRA:                  -5.383
 UNBOUND:                -5.272
 SMILES CC(=O)N[C@@H]1[C@@H](O)C[C@](O)(C(=O)O)O[C@H]1C(O)[C@H](O)CNC(=O)OCc1cn(-c2ccncc2)nn1
 SMILES IDX 20 1 18 2 16 3 15 4 9 5 8 6 14 7 6 8 5 9 10 10 11 12 12 13
 SMILES IDX 13 14 7 16 4 18 2 19 1 21 3 22 17 23 19 25 21 27 22 28 23 30
 SMILES IDX 24 31 25 32 26 33 27 34 36 35 28 36 35 37 29 38 30 39 34 40
 SMILES IDX 31 41 33 42 32 43
 H PARENT 10 11 13 15 7 17 4 20 17 24 19 26 21 29
 Flexibility Score: inf
  4 active torsions:
  status: ('A' for Active; 'I' for Inactive)
    1  A    between atoms: CA   and  CB  
    2  A    between atoms: CB   and  CG  
    3  A    between atoms: CG   and  CD  
    4  A    between atoms: CD   and  CE  

>  <TORSDO>
F 15

>  <BEGIN_>
RES LYS A 131

$$$$
ligand_56_pose_15_2HRL.pdbqt
 OpenBabel07062320523D

  6  5  0  0  0  0  0  0  0  0999 V2000
   33.1930   34.6630    9.2900 C   0  0  0  0  0  0  0  0  0  0  0  0
   32.0600   35.3600   10.0340 C   0  0  0  0  0  0  0  0  0  0  0  0
   30.7710   35.4140    9.2550 C   0  0  0  0  0  0  0  0  0  0  0  0
   30.2010   36.8240    9.2580 C   0  0  0  0  0  0  0  0  0  0  0  0
   29.3170   37.0430    8.0450 C   0  0  0  0  0  0  0  0  0  0  0  0
   28.4990   38.2790    8.1940 N   0  0  0  0  0  0  0  0  0  0  0  0
  1  2  1  0  0  0  0
  3  4  1  0  0  0  0
  3  2  1  0  0  0  0
  5  6  1  0  0  0  0
  5  4  1  0  0  0  0
M  END
>  <EGIN_R>
ES LYS A 135

>  <REMARK>
  4 active torsions:
  status: ('A' for Active; 'I' for Inactive)
    5  A    between atoms: CA   and  CB  
    6  A    between atoms: CB   and  CG  
    7  A    between atoms: CG   and  CD  
    8  A    between atoms: CD   and  CE  

$$$$
