ligand_65_pose_3_2HRL.pdbqt
 OpenBabel07062320523D

 53 54  0  0  1  0  0  0  0  0999 V2000
   27.5770   35.2400    7.1490 N   0  0  0  0  0  0  0  0  0  0  0  0
   27.9370   34.7900    8.4340 C   0  0  0  0  0  0  0  0  0  0  0  0
   29.0680   34.9540    8.9440 O   0  0  0  0  0  0  0  0  0  0  0  0
   26.6030   35.0880    6.7490 H   0  0  0  0  0  0  0  0  0  0  0  0
   28.5510   35.9320    6.3320 C   0  0  0  0  0  0  0  0  0  0  0  0
   27.8750   37.0690    5.6330 C   0  0  2  0  0  0  0  0  0  0  0  0
   28.7410   38.3110    5.6950 C   0  0  2  0  0  0  0  0  0  0  0  0
   29.4180   38.3390    7.0570 C   0  0  2  0  0  0  0  0  0  0  0  0
   28.0450   39.1820    8.7770 C   0  0  2  0  0  0  0  0  0  0  0  0
   28.7430   40.5040    8.7400 C   0  0  0  0  0  0  0  0  0  0  0  0
   28.4900   38.1970    8.0020 O   0  0  0  0  0  0  0  0  0  0  0  0
   30.2200   40.2330    8.4840 C   0  0  1  0  0  0  0  0  0  0  0  0
   30.2360   39.6020    7.0920 C   0  0  1  0  0  0  0  0  0  0  0  0
   26.6980   39.4430    8.4310 O   0  0  0  0  0  0  0  0  0  0  0  0
   26.2890   38.6750    7.9690 H   0  0  0  0  0  0  0  0  0  0  0  0
   28.0290   38.7320   10.1920 C   0  0  0  0  0  0  0  0  0  0  0  0
   27.5830   39.4800   11.0980 O   0  0  0  0  0  0  0  0  0  0  0  0
   28.5000   37.4870   10.5740 O   0  0  0  0  0  0  0  0  0  0  0  0
   28.3960   37.1250   11.5240 H   0  0  0  0  0  0  0  0  0  0  0  0
   30.9550   41.4010    8.4360 O   0  0  0  0  0  0  0  0  0  0  0  0
   31.4190   41.4220    7.5500 H   0  0  0  0  0  0  0  0  0  0  0  0
   31.5910   39.3600    6.6490 N   0  0  0  0  0  0  0  0  0  0  0  0
   32.1160   40.0130    5.5050 C   0  0  0  0  0  0  0  0  0  0  0  0
   32.1460   38.6830    7.2200 H   0  0  0  0  0  0  0  0  0  0  0  0
   33.5100   39.7210    5.1050 C   0  0  0  0  0  0  0  0  0  0  0  0
   31.4420   40.8220    4.8310 O   0  0  0  0  0  0  0  0  0  0  0  0
   27.8960   39.4470    5.5810 O   0  0  0  0  0  0  0  0  0  0  0  0
   26.9790   39.0780    5.7280 H   0  0  0  0  0  0  0  0  0  0  0  0
   26.6270   37.2940    6.2300 O   0  0  0  0  0  0  0  0  0  0  0  0
   26.1850   36.4550    6.4500 H   0  0  0  0  0  0  0  0  0  0  0  0
   26.9730   34.1140    9.2020 O   0  0  0  0  0  0  0  0  0  0  0  0
   26.2790   34.8580   10.1800 C   0  0  0  0  0  0  0  0  0  0  0  0
   25.2390   35.6950    9.4960 C   0  0  0  0  0  0  0  0  0  0  0  0
   23.8820   35.4500    9.4200 C   0  0  0  0  0  0  0  0  0  0  0  0
   25.4130   36.8530    8.8180 N   0  0  0  0  0  0  0  0  0  0  0  0
   23.2780   36.4320    8.7210 N   0  0  0  0  0  0  0  0  0  0  0  0
   24.2310   37.2660    8.3710 N   0  0  0  0  0  0  0  0  0  0  0  0
   21.8800   36.5340    8.4270 C   0  0  0  0  0  0  0  0  0  0  0  0
   21.1960   35.5190    7.8680 N   0  0  0  0  0  0  0  0  0  0  0  0
   21.1970   37.6620    8.7030 N   0  0  0  0  0  0  0  0  0  0  0  0
   19.8870   35.5740    7.5770 C   0  0  0  0  0  0  0  0  0  0  0  0
   19.8720   37.7810    8.4320 C   0  0  0  0  0  0  0  0  0  0  0  0
   19.2470   36.7380    7.8770 N   0  0  0  0  0  0  0  0  0  0  0  0
   19.1080   39.0210    8.7320 C   0  0  0  0  0  0  0  0  0  0  0  0
   19.1680   34.5120    6.9920 N   0  0  0  0  0  0  0  0  0  0  0  0
   19.1860   34.3780    5.9720 H   0  0  0  0  0  0  0  0  0  0  0  0
   18.6250   33.8720    7.5880 H   0  0  0  0  0  0  0  0  0  0  0  0
   29.8670   25.5550   16.9770 C   0  0  0  0  0  0  0  0  0  0  0  0
   28.3450   25.7220   17.0260 C   0  0  0  0  0  0  0  0  0  0  0  0
   27.6010   24.4020   16.8890 C   0  0  0  0  0  0  0  0  0  0  0  0
   26.6150   24.1900   18.0040 C   0  0  0  0  0  0  0  0  0  0  0  0
   25.3050   23.6580   17.4310 C   0  0  0  0  0  0  0  0  0  0  0  0
   24.2670   23.5910   18.4870 N   0  0  0  0  0  0  0  0  0  0  0  0
  1  2  1  0  0  0  0
  2  3  2  0  0  0  0
  2 31  1  0  0  0  0
  4  1  1  0  0  0  0
  5  1  1  0  0  0  0
  6  7  1  0  0  0  0
  6 29  1  0  0  0  0
  6  5  1  1  0  0  0
  7 27  1  1  0  0  0
  8  7  1  6  0  0  0
  8 13  1  0  0  0  0
  8 11  1  0  0  0  0
  9 14  1  6  0  0  0
  9 16  1  0  0  0  0
 10  9  1  0  0  0  0
 11  9  1  0  0  0  0
 12 20  1  6  0  0  0
 12 10  1  0  0  0  0
 13 22  1  1  0  0  0
 13 12  1  0  0  0  0
 15 14  1  0  0  0  0
 16 18  1  0  0  0  0
 16 17  2  0  0  0  0
 18 19  1  0  0  0  0
 21 20  1  0  0  0  0
 22 24  1  0  0  0  0
 23 22  1  0  0  0  0
 25 23  1  0  0  0  0
 26 23  2  0  0  0  0
 27 28  1  0  0  0  0
 29 30  1  0  0  0  0
 31 32  1  0  0  0  0
 33 32  1  0  0  0  0
 34 33  2  0  0  0  0
 35 33  1  0  0  0  0
 36 34  1  0  0  0  0
 37 36  1  0  0  0  0
 37 35  2  0  0  0  0
 38 40  1  0  0  0  0
 38 36  1  0  0  0  0
 39 38  2  0  0  0  0
 41 39  2  0  0  0  0
 41 43  1  0  0  0  0
 42 40  2  0  0  0  0
 42 44  1  0  0  0  0
 43 42  1  0  0  0  0
 45 41  1  0  0  0  0
 45 47  1  0  0  0  0
 46 45  1  0  0  0  0
 48 49  1  0  0  0  0
 50 49  1  0  0  0  0
 50 51  1  0  0  0  0
 52 51  1  0  0  0  0
 52 53  1  0  0  0  0
M  END
>  <REMARK>
 VINA RESULT:    -5.232      7.975     14.141
 INTER + INTRA:         -14.343
 INTER:                  -9.425
 INTRA:                  -4.918
 UNBOUND:                -5.134
 SMILES CC(=O)N[C@@H]1[C@@H](O)C[C@](O)(C(=O)O)O[C@H]1C(O)[C@H](O)CNC(=O)OCc1cn(-c2nc(C)nc(N)n2)nn1
 SMILES IDX 21 1 22 2 23 3 20 5 18 6 16 7 15 8 9 9 8 10 14 11 6 12 5 13
 SMILES IDX 10 14 11 16 12 17 13 18 7 20 4 22 2 23 1 25 3 26 17 27 19 29
 SMILES IDX 24 31 25 32 26 33 27 34 38 35 28 36 37 37 29 38 36 39 30 40
 SMILES IDX 34 41 31 42 33 43 32 44 35 45
 H PARENT 21 4 10 15 13 19 7 21 4 24 17 28 19 30 35 46 35 47
 Flexibility Score: inf
  4 active torsions:
  status: ('A' for Active; 'I' for Inactive)
    1  A    between atoms: CA   and  CB  
    2  A    between atoms: CB   and  CG  
    3  A    between atoms: CG   and  CD  
    4  A    between atoms: CD   and  CE  

>  <TORSDO>
F 16

>  <BEGIN_>
RES LYS A 131

$$$$
ligand_65_pose_3_2HRL.pdbqt
 OpenBabel07062320523D

  6  5  0  0  0  0  0  0  0  0999 V2000
   33.1930   34.6630    9.2900 C   0  0  0  0  0  0  0  0  0  0  0  0
   32.0600   35.3600   10.0340 C   0  0  0  0  0  0  0  0  0  0  0  0
   32.2160   35.3310   11.5330 C   0  0  0  0  0  0  0  0  0  0  0  0
   32.2670   36.7440   12.0940 C   0  0  0  0  0  0  0  0  0  0  0  0
   31.9380   37.7580   11.0150 C   0  0  0  0  0  0  0  0  0  0  0  0
   31.4470   39.0330   11.6080 N   0  0  0  0  0  0  0  0  0  0  0  0
  1  2  1  0  0  0  0
  2  3  1  0  0  0  0
  3  4  1  0  0  0  0
  5  6  1  0  0  0  0
  5  4  1  0  0  0  0
M  END
>  <EGIN_R>
ES LYS A 135

>  <REMARK>
  4 active torsions:
  status: ('A' for Active; 'I' for Inactive)
    5  A    between atoms: CA   and  CB  
    6  A    between atoms: CB   and  CG  
    7  A    between atoms: CG   and  CD  
    8  A    between atoms: CD   and  CE  

$$$$
