ligand_33_pose_18_2HRL.pdbqt
 OpenBabel07062320523D

 52 52  0  0  1  0  0  0  0  0999 V2000
   23.4820   29.6390   17.9810 C   0  0  0  0  0  0  0  0  0  0  0  0
   24.5850   29.7240   18.8760 O   0  0  0  0  0  0  0  0  0  0  0  0
   25.8330   29.2920   18.4110 C   0  0  0  0  0  0  0  0  0  0  0  0
   26.8540   30.2670   18.2250 N   0  0  0  0  0  0  0  0  0  0  0  0
   26.6200   31.2690   18.4530 H   0  0  0  0  0  0  0  0  0  0  0  0
   25.9880   28.0680   18.1790 O   0  0  0  0  0  0  0  0  0  0  0  0
   28.1330   29.8520   17.7460 C   0  0  0  0  0  0  0  0  0  0  0  0
   29.0650   30.9800   17.3750 C   0  0  2  0  0  0  0  0  0  0  0  0
   28.8300   31.3280   15.9180 C   0  0  2  0  0  0  0  0  0  0  0  0
   28.5620   32.7730   15.6580 C   0  0  2  0  0  0  0  0  0  0  0  0
   30.7750   33.2160   15.0300 C   0  0  2  0  0  0  0  0  0  0  0  0
   30.9730   33.7800   16.4460 C   0  0  0  0  0  0  0  0  0  0  0  0
   29.4500   33.2190   14.7000 O   0  0  0  0  0  0  0  0  0  0  0  0
   29.7600   34.6410   16.7000 C   0  0  1  0  0  0  0  0  0  0  0  0
   28.5620   33.6820   16.8330 C   0  0  1  0  0  0  0  0  0  0  0  0
   31.4130   31.9830   14.9160 O   0  0  0  0  0  0  0  0  0  0  0  0
   31.5700   31.5650   15.8220 H   0  0  0  0  0  0  0  0  0  0  0  0
   31.4650   34.1630   14.1170 C   0  0  0  0  0  0  0  0  0  0  0  0
   32.5050   34.7720   14.5090 O   0  0  0  0  0  0  0  0  0  0  0  0
   30.9520   34.3620   12.8480 O   0  0  0  0  0  0  0  0  0  0  0  0
   29.9570   34.1290   12.7240 H   0  0  0  0  0  0  0  0  0  0  0  0
   29.8950   35.4090   17.8560 O   0  0  0  0  0  0  0  0  0  0  0  0
   30.8210   35.2670   18.1850 H   0  0  0  0  0  0  0  0  0  0  0  0
   27.3370   34.4650   16.9250 N   0  0  0  0  0  0  0  0  0  0  0  0
   26.3200   34.1930   17.8610 C   0  0  0  0  0  0  0  0  0  0  0  0
   27.2120   35.2770   16.2560 H   0  0  0  0  0  0  0  0  0  0  0  0
   25.0620   35.0200   17.9290 C   0  0  0  0  0  0  0  0  0  0  0  0
   26.4800   33.2210   18.6620 O   0  0  0  0  0  0  0  0  0  0  0  0
   27.6090   30.6610   15.6060 O   0  0  0  0  0  0  0  0  0  0  0  0
   27.1350   30.5670   16.4650 H   0  0  0  0  0  0  0  0  0  0  0  0
   30.3550   30.5770   17.6410 O   0  0  0  0  0  0  0  0  0  0  0  0
   30.7750   30.1600   16.8490 H   0  0  0  0  0  0  0  0  0  0  0  0
   23.9300   30.2650   16.7160 C   0  0  0  0  0  0  0  0  0  0  0  0
   23.7800   29.6770   15.4760 C   0  0  0  0  0  0  0  0  0  0  0  0
   24.5260   31.4430   16.5340 N   0  0  0  0  0  0  0  0  0  0  0  0
   24.3080   30.5550   14.5950 N   0  0  0  0  0  0  0  0  0  0  0  0
   24.7530   31.6110   15.2380 N   0  0  0  0  0  0  0  0  0  0  0  0
   24.3360   30.2770   13.1570 C   0  0  0  0  0  0  0  0  0  0  0  0
   22.9880   29.7280   12.7690 C   0  0  0  0  0  0  0  0  0  0  0  0
   21.9800   30.8110   12.4500 C   0  0  0  0  0  0  0  0  0  0  0  0
   20.5750   30.3180   12.4810 C   0  0  0  0  0  0  0  0  0  0  0  0
   20.4130   28.9020   11.9970 C   0  0  0  0  0  0  0  0  0  0  0  0
   19.7300   28.0190   12.9550 C   0  0  0  0  0  0  0  0  0  0  0  0
   18.6360   27.4990   12.6850 O   0  0  0  0  0  0  0  0  0  0  0  0
   20.3050   27.7410   14.2080 O   0  0  0  0  0  0  0  0  0  0  0  0
   19.9030   28.1480   15.0590 H   0  0  0  0  0  0  0  0  0  0  0  0
   29.8670   25.5550   16.9770 C   0  0  0  0  0  0  0  0  0  0  0  0
   28.3450   25.7220   17.0260 C   0  0  0  0  0  0  0  0  0  0  0  0
   27.6010   24.4010   16.8980 C   0  0  0  0  0  0  0  0  0  0  0  0
   26.1560   24.5240   17.2950 C   0  0  0  0  0  0  0  0  0  0  0  0
   25.9740   24.0110   18.7190 C   0  0  0  0  0  0  0  0  0  0  0  0
   25.0890   24.9180   19.4880 N   0  0  0  0  0  0  0  0  0  0  0  0
  1  2  1  0  0  0  0
  3  2  1  0  0  0  0
  4  3  1  0  0  0  0
  4  5  1  0  0  0  0
  6  3  2  0  0  0  0
  7  4  1  0  0  0  0
  8 31  1  0  0  0  0
  8  7  1  6  0  0  0
  9 29  1  1  0  0  0
  9  8  1  0  0  0  0
 10  9  1  1  0  0  0
 10 15  1  0  0  0  0
 11 18  1  6  0  0  0
 11 12  1  0  0  0  0
 12 14  1  0  0  0  0
 13 11  1  0  0  0  0
 13 10  1  0  0  0  0
 14 15  1  0  0  0  0
 14 22  1  1  0  0  0
 15 24  1  6  0  0  0
 16 11  1  0  0  0  0
 16 17  1  0  0  0  0
 18 19  2  0  0  0  0
 20 18  1  0  0  0  0
 21 20  1  0  0  0  0
 22 23  1  0  0  0  0
 24 25  1  0  0  0  0
 25 27  1  0  0  0  0
 25 28  2  0  0  0  0
 26 24  1  0  0  0  0
 29 30  1  0  0  0  0
 32 31  1  0  0  0  0
 33  1  1  0  0  0  0
 34 33  2  0  0  0  0
 35 33  1  0  0  0  0
 36 37  1  0  0  0  0
 36 34  1  0  0  0  0
 37 35  2  0  0  0  0
 38 36  1  0  0  0  0
 39 38  1  0  0  0  0
 40 41  1  0  0  0  0
 40 39  1  0  0  0  0
 42 41  1  0  0  0  0
 42 43  1  0  0  0  0
 43 45  1  0  0  0  0
 44 43  2  0  0  0  0
 45 46  1  0  0  0  0
 47 48  1  0  0  0  0
 49 48  1  0  0  0  0
 49 50  1  0  0  0  0
 50 51  1  0  0  0  0
 51 52  1  0  0  0  0
M  END
>  <REMARK>
 VINA RESULT:    -4.158      6.172     10.939
 INTER + INTRA:         -14.451
 INTER:                  -8.533
 INTRA:                  -5.918
 UNBOUND:                -5.918
 SMILES CC(=O)N[C@@H]1[C@@H](O)C[C@](O)(C(=O)O)O[C@H]1C(O)[C@H](O)CNC(=O)OCc1cn(CCCCCC(=O)O)nn1
 SMILES IDX 25 1 24 2 22 3 21 4 23 6 20 7 18 8 16 9 15 10 9 11 8 12
 SMILES IDX 14 13 6 14 5 15 10 16 11 18 12 19 13 20 7 22 4 24 2 25 1 27
 SMILES IDX 3 28 17 29 19 31 26 33 27 34 38 35 28 36 37 37 29 38 30 39
 SMILES IDX 31 40 32 41 33 42 34 43 35 44 36 45
 H PARENT 21 5 10 17 13 21 7 23 4 26 17 30 19 32 36 46
 Flexibility Score: inf
  4 active torsions:
  status: ('A' for Active; 'I' for Inactive)
    1  A    between atoms: CA   and  CB  
    2  A    between atoms: CB   and  CG  
    3  A    between atoms: CG   and  CD  
    4  A    between atoms: CD   and  CE  

>  <TORSDO>
F 21

>  <BEGIN_>
RES LYS A 131

$$$$
ligand_33_pose_18_2HRL.pdbqt
 OpenBabel07062320523D

  6  5  0  0  0  0  0  0  0  0999 V2000
   33.1930   34.6630    9.2900 C   0  0  0  0  0  0  0  0  0  0  0  0
   32.0600   35.3600   10.0340 C   0  0  0  0  0  0  0  0  0  0  0  0
   30.8000   35.5000    9.2190 C   0  0  0  0  0  0  0  0  0  0  0  0
   30.1480   34.1440    9.0010 C   0  0  0  0  0  0  0  0  0  0  0  0
   28.7700   34.1080    9.6330 C   0  0  0  0  0  0  0  0  0  0  0  0
   27.7110   34.4000    8.6270 N   0  0  0  0  0  0  0  0  0  0  0  0
  1  2  1  0  0  0  0
  3  2  1  0  0  0  0
  4  3  1  0  0  0  0
  4  5  1  0  0  0  0
  6  5  1  0  0  0  0
M  END
>  <EGIN_R>
ES LYS A 135

>  <REMARK>
  4 active torsions:
  status: ('A' for Active; 'I' for Inactive)
    5  A    between atoms: CA   and  CB  
    6  A    between atoms: CB   and  CG  
    7  A    between atoms: CG   and  CD  
    8  A    between atoms: CD   and  CE  

$$$$
