ligand_51_pose_15_2HRL.pdbqt
 OpenBabel07062320523D

 53 56  0  0  1  0  0  0  0  0999 V2000
   29.7420   35.5770   19.6170 C   0  0  0  0  0  0  0  0  0  0  0  0
   30.6930   34.4290   19.8370 C   0  0  2  0  0  0  0  0  0  0  0  0
   31.1210   33.7690   18.5420 C   0  0  1  0  0  0  0  0  0  0  0  0
   29.8980   33.5020   17.6570 C   0  0  2  0  0  0  0  0  0  0  0  0
   29.3770   31.2220   17.4800 C   0  0  2  0  0  0  0  0  0  0  0  0
   30.5150   31.1360   16.4940 C   0  0  0  0  0  0  0  0  0  0  0  0
   29.1740   32.4260   18.0600 O   0  0  0  0  0  0  0  0  0  0  0  0
   30.4190   32.2580   15.5210 C   0  0  1  0  0  0  0  0  0  0  0  0
   30.2080   33.5800   16.2080 C   0  0  1  0  0  0  0  0  0  0  0  0
   29.7200   30.3150   18.5090 O   0  0  0  0  0  0  0  0  0  0  0  0
   29.1050   30.5000   19.2670 H   0  0  0  0  0  0  0  0  0  0  0  0
   28.1750   30.6680   16.8060 C   0  0  0  0  0  0  0  0  0  0  0  0
   27.1540   31.3690   16.5680 O   0  0  0  0  0  0  0  0  0  0  0  0
   28.1550   29.3460   16.4200 O   0  0  0  0  0  0  0  0  0  0  0  0
   28.9340   28.9000   15.9340 H   0  0  0  0  0  0  0  0  0  0  0  0
   31.6020   32.2490   14.7470 O   0  0  0  0  0  0  0  0  0  0  0  0
   31.4590   31.7340   13.9240 H   0  0  0  0  0  0  0  0  0  0  0  0
   29.1350   34.3090   15.5440 N   0  0  0  0  0  0  0  0  0  0  0  0
   29.3080   34.9340   14.2810 C   0  0  0  0  0  0  0  0  0  0  0  0
   28.1840   34.3810   16.0120 H   0  0  0  0  0  0  0  0  0  0  0  0
   28.1700   35.6480   13.6840 C   0  0  0  0  0  0  0  0  0  0  0  0
   30.4420   34.8490   13.7210 O   0  0  0  0  0  0  0  0  0  0  0  0
   32.1040   34.4450   17.8860 O   0  0  0  0  0  0  0  0  0  0  0  0
   32.5240   33.9990   17.1360 H   0  0  0  0  0  0  0  0  0  0  0  0
   30.0760   33.5280   20.7010 O   0  0  0  0  0  0  0  0  0  0  0  0
   29.9330   33.9900   21.5880 H   0  0  0  0  0  0  0  0  0  0  0  0
   30.5390   36.7170   19.2020 N   0  0  0  0  0  0  0  0  0  0  0  0
   30.3000   37.4010   17.9620 C   0  0  0  0  0  0  0  0  0  0  0  0
   31.3270   37.1050   19.7740 H   0  0  0  0  0  0  0  0  0  0  0  0
   29.3650   36.9760   17.2390 O   0  0  0  0  0  0  0  0  0  0  0  0
   31.0450   38.4810   17.5560 O   0  0  0  0  0  0  0  0  0  0  0  0
   31.5650   38.5060   16.2460 C   0  0  0  0  0  0  0  0  0  0  0  0
   32.6440   37.4700   16.1760 C   0  0  0  0  0  0  0  0  0  0  0  0
   33.8950   37.6150   16.7440 C   0  0  0  0  0  0  0  0  0  0  0  0
   32.6520   36.2720   15.5970 N   0  0  0  0  0  0  0  0  0  0  0  0
   34.5930   36.5180   16.4870 N   0  0  0  0  0  0  0  0  0  0  0  0
   33.8250   35.7080   15.7890 N   0  0  0  0  0  0  0  0  0  0  0  0
   35.9720   36.2900   16.9250 C   0  0  2  0  0  0  0  0  0  0  0  0
   36.6380   37.6590   16.9670 C   0  0  0  0  0  0  0  0  0  0  0  0
   36.6930   35.3870   15.9720 C   0  0  0  0  0  0  0  0  0  0  0  0
   35.9630   35.6550   18.2930 C   0  0  0  0  0  0  0  0  0  0  0  0
   38.0700   37.5000   17.4400 C   0  0  1  0  0  0  0  0  0  0  0  0
   38.1340   35.2800   16.4190 C   0  0  1  0  0  0  0  0  0  0  0  0
   37.3910   35.5100   18.7730 C   0  0  2  0  0  0  0  0  0  0  0  0
   38.0510   36.8770   18.8060 C   0  0  0  0  0  0  0  0  0  0  0  0
   38.7880   36.6290   16.4400 C   0  0  0  0  0  0  0  0  0  0  0  0
   38.1340   34.6400   17.7880 C   0  0  0  0  0  0  0  0  0  0  0  0
   29.8670   25.5550   16.9770 C   0  0  0  0  0  0  0  0  0  0  0  0
   28.3450   25.7220   17.0260 C   0  0  0  0  0  0  0  0  0  0  0  0
   27.6010   24.4010   16.9060 C   0  0  0  0  0  0  0  0  0  0  0  0
   26.5330   24.2550   17.9540 C   0  0  0  0  0  0  0  0  0  0  0  0
   25.2010   23.9350   17.2820 C   0  0  0  0  0  0  0  0  0  0  0  0
   24.8460   22.5110   17.4870 N   0  0  0  0  0  0  0  0  0  0  0  0
  2  1  1  6  0  0  0
  2 25  1  0  0  0  0
  3 23  1  6  0  0  0
  3  2  1  0  0  0  0
  4  7  1  0  0  0  0
  4  3  1  1  0  0  0
  5 12  1  6  0  0  0
  5  7  1  0  0  0  0
  5 10  1  0  0  0  0
  6  5  1  0  0  0  0
  8 16  1  1  0  0  0
  8  9  1  0  0  0  0
  8  6  1  0  0  0  0
  9 18  1  6  0  0  0
  9  4  1  0  0  0  0
 10 11  1  0  0  0  0
 13 12  2  0  0  0  0
 14 12  1  0  0  0  0
 15 14  1  0  0  0  0
 17 16  1  0  0  0  0
 18 20  1  0  0  0  0
 19 18  1  0  0  0  0
 21 19  1  0  0  0  0
 22 19  2  0  0  0  0
 24 23  1  0  0  0  0
 25 26  1  0  0  0  0
 27  1  1  0  0  0  0
 27 29  1  0  0  0  0
 28 27  1  0  0  0  0
 30 28  2  0  0  0  0
 31 28  1  0  0  0  0
 32 31  1  0  0  0  0
 33 32  1  0  0  0  0
 33 34  2  0  0  0  0
 35 37  2  0  0  0  0
 35 33  1  0  0  0  0
 36 34  1  0  0  0  0
 36 38  1  0  0  0  0
 37 36  1  0  0  0  0
 38 40  1  6  0  0  0
 38 39  1  0  0  0  0
 38 41  1  0  0  0  0
 39 42  1  0  0  0  0
 41 44  1  0  0  0  0
 42 46  1  6  0  0  0
 42 45  1  0  0  0  0
 43 40  1  1  0  0  0
 43 46  1  0  0  0  0
 43 47  1  0  0  0  0
 44 47  1  6  0  0  0
 44 45  1  0  0  0  0
 48 49  1  0  0  0  0
 50 49  1  0  0  0  0
 50 51  1  0  0  0  0
 52 53  1  0  0  0  0
 52 51  1  0  0  0  0
M  END
>  <REMARK>
 VINA RESULT:    -4.639      4.194      7.284
 INTER + INTRA:         -14.583
 INTER:                  -7.678
 INTRA:                  -6.905
 UNBOUND:                -6.554
 SMILES CC(=O)N[C@@H]1[C@@H](O)C[C@](O)(C(=O)O)O[C@H]1C(O)[C@H](O)CNC(=O)OCc1cn(C23CC4CC(CC(C4)C2)C3)nn1
 SMILES IDX 20 1 18 2 16 3 15 4 9 5 8 6 14 7 6 8 5 9 10 10 11 12 12 13
 SMILES IDX 13 14 7 16 4 18 2 19 1 21 3 22 17 23 19 25 21 27 22 28 23 30
 SMILES IDX 24 31 25 32 26 33 27 34 40 35 28 36 39 37 29 38 38 39 37 40
 SMILES IDX 30 41 33 42 35 43 31 44 32 45 34 46 36 47
 H PARENT 10 11 13 15 7 17 4 20 17 24 19 26 21 29
 Flexibility Score: inf
  4 active torsions:
  status: ('A' for Active; 'I' for Inactive)
    1  A    between atoms: CA   and  CB  
    2  A    between atoms: CB   and  CG  
    3  A    between atoms: CG   and  CD  
    4  A    between atoms: CD   and  CE  

>  <TORSDO>
F 15

>  <BEGIN_>
RES LYS A 131

$$$$
ligand_51_pose_15_2HRL.pdbqt
 OpenBabel07062320523D

  6  5  0  0  0  0  0  0  0  0999 V2000
   33.1930   34.6630    9.2900 C   0  0  0  0  0  0  0  0  0  0  0  0
   32.0600   35.3600   10.0340 C   0  0  0  0  0  0  0  0  0  0  0  0
   30.8030   35.5080    9.2160 C   0  0  0  0  0  0  0  0  0  0  0  0
   30.1300   34.1590    9.0170 C   0  0  0  0  0  0  0  0  0  0  0  0
   28.6590   34.3410    8.6930 C   0  0  0  0  0  0  0  0  0  0  0  0
   27.8010   33.6030    9.6600 N   0  0  0  0  0  0  0  0  0  0  0  0
  1  2  1  0  0  0  0
  3  2  1  0  0  0  0
  4  3  1  0  0  0  0
  5  4  1  0  0  0  0
  5  6  1  0  0  0  0
M  END
>  <EGIN_R>
ES LYS A 135

>  <REMARK>
  4 active torsions:
  status: ('A' for Active; 'I' for Inactive)
    5  A    between atoms: CA   and  CB  
    6  A    between atoms: CB   and  CG  
    7  A    between atoms: CG   and  CD  
    8  A    between atoms: CD   and  CE  

$$$$
