ligand_78_pose_14_2HRL.pdbqt
 OpenBabel07062320523D

 53 54  0  0  1  0  0  0  0  0999 V2000
   27.4510   28.5660   17.3520 N   0  0  0  0  0  0  0  0  0  0  0  0
   26.7430   29.6820   16.7780 C   0  0  0  0  0  0  0  0  0  0  0  0
   25.6370   29.9930   17.2430 O   0  0  0  0  0  0  0  0  0  0  0  0
   28.3710   28.3740   16.9100 H   0  0  0  0  0  0  0  0  0  0  0  0
   26.8760   27.8190   18.4570 C   0  0  0  0  0  0  0  0  0  0  0  0
   27.7800   27.7560   19.6410 C   0  0  2  0  0  0  0  0  0  0  0  0
   28.5540   29.0050   19.8940 C   0  0  2  0  0  0  0  0  0  0  0  0
   29.1460   29.1700   21.2470 C   0  0  2  0  0  0  0  0  0  0  0  0
   30.8790   30.5730   20.5400 C   0  0  2  0  0  0  0  0  0  0  0  0
   31.7120   29.3650   20.2600 C   0  0  0  0  0  0  0  0  0  0  0  0
   29.7900   30.4000   21.3560 O   0  0  0  0  0  0  0  0  0  0  0  0
   31.4120   28.1470   21.0430 C   0  0  1  0  0  0  0  0  0  0  0  0
   30.0920   28.1600   21.7610 C   0  0  1  0  0  0  0  0  0  0  0  0
   30.4100   31.1530   19.3610 O   0  0  0  0  0  0  0  0  0  0  0  0
   30.0340   32.0400   19.4750 H   0  0  0  0  0  0  0  0  0  0  0  0
   31.7310   31.5940   21.2050 C   0  0  0  0  0  0  0  0  0  0  0  0
   32.3590   31.2850   22.2400 O   0  0  0  0  0  0  0  0  0  0  0  0
   31.8690   32.8920   20.7300 O   0  0  0  0  0  0  0  0  0  0  0  0
   31.0520   33.5120   20.6430 H   0  0  0  0  0  0  0  0  0  0  0  0
   31.5220   27.0320   20.2160 O   0  0  0  0  0  0  0  0  0  0  0  0
   32.3240   27.0450   19.6620 H   0  0  0  0  0  0  0  0  0  0  0  0
   30.2700   28.3920   23.1980 N   0  0  0  0  0  0  0  0  0  0  0  0
   30.1970   27.3410   24.1380 C   0  0  0  0  0  0  0  0  0  0  0  0
   30.4560   29.3520   23.5480 H   0  0  0  0  0  0  0  0  0  0  0  0
   30.3760   27.5610   25.6050 C   0  0  0  0  0  0  0  0  0  0  0  0
   29.9710   26.1890   23.6950 O   0  0  0  0  0  0  0  0  0  0  0  0
   27.5020   30.0230   19.9010 O   0  0  0  0  0  0  0  0  0  0  0  0
   27.9660   30.8750   19.9760 H   0  0  0  0  0  0  0  0  0  0  0  0
   28.5350   26.6070   19.7630 O   0  0  0  0  0  0  0  0  0  0  0  0
   29.1010   26.4390   18.9710 H   0  0  0  0  0  0  0  0  0  0  0  0
   27.2750   30.4040   15.7270 O   0  0  0  0  0  0  0  0  0  0  0  0
   27.4630   31.8070   15.7800 C   0  0  0  0  0  0  0  0  0  0  0  0
   28.8450   32.1590   16.1380 C   0  0  0  0  0  0  0  0  0  0  0  0
   29.3830   33.3490   16.5390 C   0  0  0  0  0  0  0  0  0  0  0  0
   29.8750   31.2870   16.1220 N   0  0  0  0  0  0  0  0  0  0  0  0
   30.7110   33.1680   16.7520 N   0  0  0  0  0  0  0  0  0  0  0  0
   30.9810   31.9000   16.4880 N   0  0  0  0  0  0  0  0  0  0  0  0
   31.6190   34.1960   17.1860 C   0  0  0  0  0  0  0  0  0  0  0  0
   32.2630   35.0910   15.7790 S   0  0  0  0  0  0  0  0  0  0  0  0
   31.1140   35.8160   15.1280 O   0  0  0  0  0  0  0  0  0  0  0  0
   32.8390   34.1000   14.8380 O   0  0  0  0  0  0  0  0  0  0  0  0
   33.4710   36.2290   16.3490 C   0  0  0  0  0  0  0  0  0  0  0  0
   33.0540   37.5180   16.6640 C   0  0  0  0  0  0  0  0  0  0  0  0
   34.7840   35.8440   16.4740 C   0  0  0  0  0  0  0  0  0  0  0  0
   34.0010   38.4080   17.1100 C   0  0  0  0  0  0  0  0  0  0  0  0
   35.6940   36.7750   16.9250 C   0  0  0  0  0  0  0  0  0  0  0  0
   35.3410   38.0620   17.2510 C   0  0  0  0  0  0  0  0  0  0  0  0
   29.8670   25.5550   16.9770 C   0  0  0  0  0  0  0  0  0  0  0  0
   28.3450   25.7220   17.0260 C   0  0  0  0  0  0  0  0  0  0  0  0
   27.6000   24.4110   16.8250 C   0  0  0  0  0  0  0  0  0  0  0  0
   26.6520   24.1200   17.9550 C   0  0  0  0  0  0  0  0  0  0  0  0
   25.2810   23.7640   17.3910 C   0  0  0  0  0  0  0  0  0  0  0  0
   24.4920   24.9920   17.1300 N   0  0  0  0  0  0  0  0  0  0  0  0
  1  5  1  0  0  0  0
  2  3  2  0  0  0  0
  2  1  1  0  0  0  0
  4  1  1  0  0  0  0
  6  5  1  6  0  0  0
  6 29  1  0  0  0  0
  6  7  1  0  0  0  0
  7 27  1  1  0  0  0
  8  7  1  6  0  0  0
  8 11  1  0  0  0  0
  8 13  1  0  0  0  0
  9 14  1  6  0  0  0
  9 16  1  0  0  0  0
  9 11  1  0  0  0  0
 10  9  1  0  0  0  0
 10 12  1  0  0  0  0
 12 20  1  6  0  0  0
 12 13  1  0  0  0  0
 13 22  1  1  0  0  0
 14 15  1  0  0  0  0
 16 17  2  0  0  0  0
 18 16  1  0  0  0  0
 19 18  1  0  0  0  0
 21 20  1  0  0  0  0
 22 24  1  0  0  0  0
 22 23  1  0  0  0  0
 23 25  1  0  0  0  0
 26 23  2  0  0  0  0
 27 28  1  0  0  0  0
 30 29  1  0  0  0  0
 31 32  1  0  0  0  0
 31  2  1  0  0  0  0
 32 33  1  0  0  0  0
 33 34  2  0  0  0  0
 34 36  1  0  0  0  0
 35 33  1  0  0  0  0
 35 37  2  0  0  0  0
 36 38  1  0  0  0  0
 37 36  1  0  0  0  0
 39 42  1  0  0  0  0
 39 38  1  0  0  0  0
 40 39  2  0  0  0  0
 41 39  2  0  0  0  0
 42 44  2  0  0  0  0
 42 43  1  0  0  0  0
 43 45  2  0  0  0  0
 44 46  1  0  0  0  0
 45 47  1  0  0  0  0
 46 47  2  0  0  0  0
 48 49  1  0  0  0  0
 50 49  1  0  0  0  0
 50 51  1  0  0  0  0
 52 51  1  0  0  0  0
 53 52  1  0  0  0  0
M  END
>  <REMARK>
 VINA RESULT:    -5.212      2.891      5.073
 INTER + INTRA:         -14.642
 INTER:                  -8.874
 INTRA:                  -5.768
 UNBOUND:                -5.011
 SMILES CC(=O)N[C@@H]1[C@@H](O)C[C@](O)(C(=O)O)O[C@H]1C(O)[C@H](O)CNC(=O)OCc1cn(CS(=O)(=O)c2ccccc2)nn1
 SMILES IDX 21 1 22 2 23 3 20 5 18 6 16 7 15 8 9 9 8 10 14 11 6 12 5 13
 SMILES IDX 10 14 11 16 12 17 13 18 7 20 4 22 2 23 1 25 3 26 17 27 19 29
 SMILES IDX 24 31 25 32 26 33 27 34 40 35 28 36 39 37 29 38 30 39 31 40
 SMILES IDX 32 41 33 42 34 43 38 44 35 45 37 46 36 47
 H PARENT 21 4 10 15 13 19 7 21 4 24 17 28 19 30
 Flexibility Score: inf
  4 active torsions:
  status: ('A' for Active; 'I' for Inactive)
    1  A    between atoms: CA   and  CB  
    2  A    between atoms: CB   and  CG  
    3  A    between atoms: CG   and  CD  
    4  A    between atoms: CD   and  CE  

>  <TORSDO>
F 17

>  <BEGIN_>
RES LYS A 131

$$$$
ligand_78_pose_14_2HRL.pdbqt
 OpenBabel07062320523D

  6  5  0  0  0  0  0  0  0  0999 V2000
   33.1930   34.6630    9.2900 C   0  0  0  0  0  0  0  0  0  0  0  0
   32.0600   35.3600   10.0340 C   0  0  0  0  0  0  0  0  0  0  0  0
   30.7090   34.7350    9.7970 C   0  0  0  0  0  0  0  0  0  0  0  0
   30.4700   34.5230    8.3100 C   0  0  0  0  0  0  0  0  0  0  0  0
   29.0270   34.8260    7.9540 C   0  0  0  0  0  0  0  0  0  0  0  0
   28.9340   35.5330    6.6460 N   0  0  0  0  0  0  0  0  0  0  0  0
  1  2  1  0  0  0  0
  3  2  1  0  0  0  0
  4  3  1  0  0  0  0
  5  4  1  0  0  0  0
  6  5  1  0  0  0  0
M  END
>  <EGIN_R>
ES LYS A 135

>  <REMARK>
  4 active torsions:
  status: ('A' for Active; 'I' for Inactive)
    5  A    between atoms: CA   and  CB  
    6  A    between atoms: CB   and  CG  
    7  A    between atoms: CG   and  CD  
    8  A    between atoms: CD   and  CE  

$$$$
