ligand_57_pose_19_2HRL.pdbqt
 OpenBabel07062320523D

 50 51  0  0  1  0  0  0  0  0999 V2000
   28.4030   36.4430   17.6040 C   0  0  0  0  0  0  0  0  0  0  0  0
   28.8580   35.5850   18.7370 C   0  0  2  0  0  0  0  0  0  0  0  0
   30.1950   34.9260   18.4690 C   0  0  2  0  0  0  0  0  0  0  0  0
   29.9810   33.6370   17.7040 C   0  0  2  0  0  0  0  0  0  0  0  0
   29.8170   31.3170   17.9210 C   0  0  2  0  0  0  0  0  0  0  0  0
   30.7100   31.1180   16.7350 C   0  0  0  0  0  0  0  0  0  0  0  0
   29.8660   32.5470   18.5080 O   0  0  0  0  0  0  0  0  0  0  0  0
   30.6700   32.3030   15.8080 C   0  0  1  0  0  0  0  0  0  0  0  0
   31.0310   33.5290   16.6430 C   0  0  1  0  0  0  0  0  0  0  0  0
   30.1230   30.2940   18.8610 O   0  0  0  0  0  0  0  0  0  0  0  0
   29.3600   30.1280   19.4660 H   0  0  0  0  0  0  0  0  0  0  0  0
   28.4140   31.0900   17.4870 C   0  0  0  0  0  0  0  0  0  0  0  0
   28.1280   30.0790   16.7980 O   0  0  0  0  0  0  0  0  0  0  0  0
   27.3550   31.9320   17.7920 O   0  0  0  0  0  0  0  0  0  0  0  0
   26.8220   32.4250   17.0760 H   0  0  0  0  0  0  0  0  0  0  0  0
   31.5860   32.1700   14.7610 O   0  0  0  0  0  0  0  0  0  0  0  0
   31.4030   32.7890   14.0200 H   0  0  0  0  0  0  0  0  0  0  0  0
   30.9170   34.6580   15.7110 N   0  0  0  0  0  0  0  0  0  0  0  0
   32.0230   35.4570   15.3600 C   0  0  0  0  0  0  0  0  0  0  0  0
   29.9820   34.8400   15.3220 H   0  0  0  0  0  0  0  0  0  0  0  0
   31.8880   36.6110   14.4030 C   0  0  0  0  0  0  0  0  0  0  0  0
   33.1420   35.1860   15.8680 O   0  0  0  0  0  0  0  0  0  0  0  0
   30.8410   34.7320   19.6670 O   0  0  0  0  0  0  0  0  0  0  0  0
   31.8210   34.8310   19.5590 H   0  0  0  0  0  0  0  0  0  0  0  0
   27.9050   34.5540   18.9160 O   0  0  0  0  0  0  0  0  0  0  0  0
   26.9950   34.8710   18.6740 H   0  0  0  0  0  0  0  0  0  0  0  0
   27.2750   35.8040   16.9620 N   0  0  0  0  0  0  0  0  0  0  0  0
   27.2650   35.3570   15.6130 C   0  0  0  0  0  0  0  0  0  0  0  0
   26.3620   35.6280   17.4820 H   0  0  0  0  0  0  0  0  0  0  0  0
   28.2790   35.5100   14.9170 O   0  0  0  0  0  0  0  0  0  0  0  0
   26.1550   34.7490   15.0400 O   0  0  0  0  0  0  0  0  0  0  0  0
   25.2920   33.9460   15.8200 C   0  0  0  0  0  0  0  0  0  0  0  0
   24.9710   32.6790   15.1140 C   0  0  0  0  0  0  0  0  0  0  0  0
   24.1040   32.4810   14.0780 C   0  0  0  0  0  0  0  0  0  0  0  0
   25.4970   31.4700   15.3850 N   0  0  0  0  0  0  0  0  0  0  0  0
   24.1130   31.1810   13.7410 N   0  0  0  0  0  0  0  0  0  0  0  0
   24.9830   30.5910   14.5650 N   0  0  0  0  0  0  0  0  0  0  0  0
   23.3330   30.5670   12.6900 C   0  0  0  0  0  0  0  0  0  0  0  0
   21.9660   31.2030   12.5720 C   0  0  0  0  0  0  0  0  0  0  0  0
   23.2610   29.0780   12.8580 C   0  0  0  0  0  0  0  0  0  0  0  0
   20.9710   30.6230   13.5500 C   0  0  0  0  0  0  0  0  0  0  0  0
   22.2640   28.6260   13.8790 C   0  0  0  0  0  0  0  0  0  0  0  0
   20.9840   29.1900   13.5740 N   0  0  0  0  0  0  0  0  0  0  0  0
   20.4630   28.5980   12.3760 C   0  0  0  0  0  0  0  0  0  0  0  0
   29.8670   25.5550   16.9770 C   0  0  0  0  0  0  0  0  0  0  0  0
   28.3450   25.7220   17.0260 C   0  0  0  0  0  0  0  0  0  0  0  0
   27.6010   24.4040   16.8780 C   0  0  0  0  0  0  0  0  0  0  0  0
   26.6310   24.1710   18.0030 C   0  0  0  0  0  0  0  0  0  0  0  0
   25.3410   24.9380   17.7290 C   0  0  0  0  0  0  0  0  0  0  0  0
   24.4630   24.1690   16.8160 N   0  0  0  0  0  0  0  0  0  0  0  0
  2  1  1  6  0  0  0
  2 25  1  0  0  0  0
  3  2  1  0  0  0  0
  3 23  1  1  0  0  0
  4  3  1  1  0  0  0
  4  7  1  0  0  0  0
  5 12  1  6  0  0  0
  5  7  1  0  0  0  0
  5 10  1  0  0  0  0
  6  5  1  0  0  0  0
  8 16  1  6  0  0  0
  8  9  1  0  0  0  0
  8  6  1  0  0  0  0
  9 18  1  6  0  0  0
  9  4  1  0  0  0  0
 10 11  1  0  0  0  0
 12 14  1  0  0  0  0
 13 12  2  0  0  0  0
 15 14  1  0  0  0  0
 17 16  1  0  0  0  0
 19 18  1  0  0  0  0
 19 22  2  0  0  0  0
 20 18  1  0  0  0  0
 21 19  1  0  0  0  0
 24 23  1  0  0  0  0
 26 25  1  0  0  0  0
 27 29  1  0  0  0  0
 27  1  1  0  0  0  0
 28 27  1  0  0  0  0
 30 28  2  0  0  0  0
 31 28  1  0  0  0  0
 31 32  1  0  0  0  0
 33 35  1  0  0  0  0
 33 32  1  0  0  0  0
 34 33  2  0  0  0  0
 36 34  1  0  0  0  0
 36 37  1  0  0  0  0
 37 35  2  0  0  0  0
 38 40  1  0  0  0  0
 38 36  1  0  0  0  0
 39 38  1  0  0  0  0
 39 41  1  0  0  0  0
 40 42  1  0  0  0  0
 41 43  1  0  0  0  0
 43 42  1  0  0  0  0
 44 43  1  0  0  0  0
 45 46  1  0  0  0  0
 47 46  1  0  0  0  0
 47 48  1  0  0  0  0
 49 48  1  0  0  0  0
 50 49  1  0  0  0  0
M  END
>  <REMARK>
 VINA RESULT:    -4.177      4.096      8.044
 INTER + INTRA:         -13.016
 INTER:                  -7.230
 INTRA:                  -5.786
 UNBOUND:                -5.786
 SMILES CC(=O)N[C@@H]1[C@@H](O)C[C@](O)(C(=O)O)O[C@H]1C(O)[C@H](O)CNC(=O)OCc1cn(C2CCN(C)CC2)nn1
 SMILES IDX 20 1 18 2 16 3 15 4 9 5 8 6 14 7 6 8 5 9 10 10 11 12 12 13
 SMILES IDX 13 14 7 16 4 18 2 19 1 21 3 22 17 23 19 25 21 27 22 28 23 30
 SMILES IDX 24 31 25 32 26 33 27 34 37 35 28 36 36 37 29 38 30 39 35 40
 SMILES IDX 31 41 34 42 32 43 33 44
 H PARENT 10 11 13 15 7 17 4 20 17 24 19 26 21 29
 Flexibility Score: inf
  4 active torsions:
  status: ('A' for Active; 'I' for Inactive)
    1  A    between atoms: CA   and  CB  
    2  A    between atoms: CB   and  CG  
    3  A    between atoms: CG   and  CD  
    4  A    between atoms: CD   and  CE  

>  <TORSDO>
F 15

>  <BEGIN_>
RES LYS A 131

$$$$
ligand_57_pose_19_2HRL.pdbqt
 OpenBabel07062320523D

  6  5  0  0  0  0  0  0  0  0999 V2000
   33.1930   34.6630    9.2900 C   0  0  0  0  0  0  0  0  0  0  0  0
   32.0600   35.3600   10.0340 C   0  0  0  0  0  0  0  0  0  0  0  0
   30.7210   34.6930    9.8530 C   0  0  0  0  0  0  0  0  0  0  0  0
   30.3040   34.7130    8.3910 C   0  0  0  0  0  0  0  0  0  0  0  0
   28.8070   34.5110    8.2600 C   0  0  0  0  0  0  0  0  0  0  0  0
   28.2400   33.8900    9.4890 N   0  0  0  0  0  0  0  0  0  0  0  0
  1  2  1  0  0  0  0
  3  2  1  0  0  0  0
  4  3  1  0  0  0  0
  5  4  1  0  0  0  0
  5  6  1  0  0  0  0
M  END
>  <EGIN_R>
ES LYS A 135

>  <REMARK>
  4 active torsions:
  status: ('A' for Active; 'I' for Inactive)
    5  A    between atoms: CA   and  CB  
    6  A    between atoms: CB   and  CG  
    7  A    between atoms: CG   and  CD  
    8  A    between atoms: CD   and  CE  

$$$$
