ligand_30_pose_15_2HRL.pdbqt
 OpenBabel07062320523D

 57 57  0  0  1  0  0  0  0  0999 V2000
   30.3940   31.3430   16.7460 C   0  0  0  0  0  0  0  0  0  0  0  0
   29.0380   31.1560   16.3060 N   0  0  0  0  0  0  0  0  0  0  0  0
   26.9180   31.3860   15.7900 C   0  0  0  0  0  0  0  0  0  0  0  0
   28.0020   32.0420   16.3090 C   0  0  0  0  0  0  0  0  0  0  0  0
   27.3140   30.1310   15.4850 N   0  0  0  0  0  0  0  0  0  0  0  0
   28.5760   30.0290   15.8030 N   0  0  0  0  0  0  0  0  0  0  0  0
   25.5740   31.9740   15.6110 C   0  0  0  0  0  0  0  0  0  0  0  0
   24.6000   31.2050   16.2830 O   0  0  0  0  0  0  0  0  0  0  0  0
   24.8800   30.6230   17.5120 C   0  0  0  0  0  0  0  0  0  0  0  0
   25.3410   29.2840   17.6150 N   0  0  0  0  0  0  0  0  0  0  0  0
   25.4770   28.7050   16.7590 H   0  0  0  0  0  0  0  0  0  0  0  0
   24.7120   31.3300   18.5650 O   0  0  0  0  0  0  0  0  0  0  0  0
   25.6180   28.7240   18.9010 C   0  0  0  0  0  0  0  0  0  0  0  0
   27.0950   28.4830   19.1260 C   0  0  2  0  0  0  0  0  0  0  0  0
   27.7270   29.7000   19.7320 C   0  0  2  0  0  0  0  0  0  0  0  0
   28.7960   29.2870   20.7220 C   0  0  2  0  0  0  0  0  0  0  0  0
   30.3390   27.6020   21.1080 C   0  0  2  0  0  0  0  0  0  0  0  0
   30.2380   28.0840   22.5380 C   0  0  0  0  0  0  0  0  0  0  0  0
   29.3140   28.0880   20.3130 O   0  0  0  0  0  0  0  0  0  0  0  0
   28.7830   28.1280   22.9180 C   0  0  1  0  0  0  0  0  0  0  0  0
   28.1600   29.2600   22.0880 C   0  0  1  0  0  0  0  0  0  0  0  0
   30.2060   26.2170   21.1440 O   0  0  0  0  0  0  0  0  0  0  0  0
   31.0670   25.7790   21.3330 H   0  0  0  0  0  0  0  0  0  0  0  0
   31.6730   27.9430   20.6130 C   0  0  0  0  0  0  0  0  0  0  0  0
   32.3090   28.8790   21.1550 O   0  0  0  0  0  0  0  0  0  0  0  0
   32.3040   27.2900   19.5630 O   0  0  0  0  0  0  0  0  0  0  0  0
   33.1000   27.7570   19.1020 H   0  0  0  0  0  0  0  0  0  0  0  0
   28.1680   26.9170   22.6830 O   0  0  0  0  0  0  0  0  0  0  0  0
   28.8560   26.2810   22.3630 H   0  0  0  0  0  0  0  0  0  0  0  0
   28.4380   30.4770   22.8210 N   0  0  0  0  0  0  0  0  0  0  0  0
   27.3590   31.1550   23.4360 C   0  0  0  0  0  0  0  0  0  0  0  0
   29.4090   30.8660   22.9090 H   0  0  0  0  0  0  0  0  0  0  0  0
   27.6040   32.4160   24.2020 C   0  0  0  0  0  0  0  0  0  0  0  0
   26.2010   30.7050   23.3410 O   0  0  0  0  0  0  0  0  0  0  0  0
   26.7160   30.4550   20.3350 O   0  0  0  0  0  0  0  0  0  0  0  0
   25.9870   30.6790   19.7310 H   0  0  0  0  0  0  0  0  0  0  0  0
   27.7550   28.2040   17.9290 O   0  0  0  0  0  0  0  0  0  0  0  0
   27.1390   27.8640   17.2530 H   0  0  0  0  0  0  0  0  0  0  0  0
   31.1340   32.1600   15.7220 C   0  0  0  0  0  0  0  0  0  0  0  0
   31.5790   33.4950   16.2490 C   0  0  0  0  0  0  0  0  0  0  0  0
   31.2880   33.6610   17.7190 C   0  0  0  0  0  0  0  0  0  0  0  0
   30.4560   34.9220   17.9360 C   0  0  0  0  0  0  0  0  0  0  0  0
   29.9300   35.3910   16.6050 C   0  0  0  0  0  0  0  0  0  0  0  0
   30.2870   36.8250   16.3430 C   0  0  0  0  0  0  0  0  0  0  0  0
   29.8820   37.2250   14.9630 C   0  0  0  0  0  0  0  0  0  0  0  0
   30.5870   36.3680   13.9150 C   0  0  0  0  0  0  0  0  0  0  0  0
   32.0710   36.6180   13.8820 C   0  0  0  0  0  0  0  0  0  0  0  0
   32.7060   35.3470   13.4140 C   0  0  0  0  0  0  0  0  0  0  0  0
   33.8120   34.9390   13.8240 O   0  0  0  0  0  0  0  0  0  0  0  0
   32.0390   34.5640   12.4700 O   0  0  0  0  0  0  0  0  0  0  0  0
   31.0340   34.5890   12.4400 H   0  0  0  0  0  0  0  0  0  0  0  0
   29.8670   25.5550   16.9770 C   0  0  0  0  0  0  0  0  0  0  0  0
   28.3450   25.7220   17.0260 C   0  0  0  0  0  0  0  0  0  0  0  0
   27.6020   24.3990   16.9200 C   0  0  0  0  0  0  0  0  0  0  0  0
   26.1580   24.5270   17.3190 C   0  0  0  0  0  0  0  0  0  0  0  0
   25.8940   23.6760   18.5570 C   0  0  0  0  0  0  0  0  0  0  0  0
   24.9570   22.5730   18.2380 N   0  0  0  0  0  0  0  0  0  0  0  0
  2  4  1  0  0  0  0
  2  1  1  0  0  0  0
  3  4  2  0  0  0  0
  5  3  1  0  0  0  0
  5  6  2  0  0  0  0
  6  2  1  0  0  0  0
  7  3  1  0  0  0  0
  7  8  1  0  0  0  0
  8  9  1  0  0  0  0
  9 10  1  0  0  0  0
  9 12  2  0  0  0  0
 10 13  1  0  0  0  0
 11 10  1  0  0  0  0
 14 13  1  6  0  0  0
 14 15  1  0  0  0  0
 15 35  1  1  0  0  0
 16 15  1  6  0  0  0
 16 21  1  0  0  0  0
 17 24  1  6  0  0  0
 17 22  1  0  0  0  0
 17 18  1  0  0  0  0
 18 20  1  0  0  0  0
 19 16  1  0  0  0  0
 19 17  1  0  0  0  0
 20 28  1  6  0  0  0
 21 30  1  1  0  0  0
 21 20  1  0  0  0  0
 22 23  1  0  0  0  0
 24 25  2  0  0  0  0
 26 24  1  0  0  0  0
 27 26  1  0  0  0  0
 29 28  1  0  0  0  0
 30 32  1  0  0  0  0
 30 31  1  0  0  0  0
 31 33  1  0  0  0  0
 34 31  2  0  0  0  0
 36 35  1  0  0  0  0
 37 14  1  0  0  0  0
 38 37  1  0  0  0  0
 39 40  1  0  0  0  0
 39  1  1  0  0  0  0
 40 41  1  0  0  0  0
 41 42  1  0  0  0  0
 43 42  1  0  0  0  0
 44 43  1  0  0  0  0
 45 44  1  0  0  0  0
 46 45  1  0  0  0  0
 47 46  1  0  0  0  0
 48 49  2  0  0  0  0
 48 47  1  0  0  0  0
 50 48  1  0  0  0  0
 51 50  1  0  0  0  0
 52 53  1  0  0  0  0
 54 53  1  0  0  0  0
 54 55  1  0  0  0  0
 55 56  1  0  0  0  0
 57 56  1  0  0  0  0
M  END
>  <REMARK>
 VINA RESULT:    -3.657      2.354      3.561
 INTER + INTRA:         -16.871
 INTER:                 -10.066
 INTRA:                  -6.805
 UNBOUND:                -8.298
 SMILES CC(=O)N[C@@H]1[C@@H](O)C[C@](O)(C(=O)O)O[C@H]1C(O)[C@H](O)CNC(=O)OCc1cn(CCCCCCCCCCC(=O)O)nn1
 SMILES IDX 29 1 28 2 26 3 27 4 43 5 42 6 25 7 24 8 22 9 21 10 23 12
 SMILES IDX 20 13 18 14 16 15 15 16 9 17 8 18 14 19 6 20 5 21 10 22
 SMILES IDX 11 24 12 25 13 26 7 28 4 30 2 31 1 33 3 34 17 35 19 37 30 39
 SMILES IDX 31 40 32 41 33 42 34 43 35 44 36 45 37 46 38 47 39 48 40 49
 SMILES IDX 41 50
 H PARENT 21 11 10 23 13 27 7 29 4 32 17 36 19 38 41 51
 Flexibility Score: inf
  4 active torsions:
  status: ('A' for Active; 'I' for Inactive)
    1  A    between atoms: CA   and  CB  
    2  A    between atoms: CB   and  CG  
    3  A    between atoms: CG   and  CD  
    4  A    between atoms: CD   and  CE  

>  <TORSDO>
F 26

>  <BEGIN_>
RES LYS A 131

$$$$
ligand_30_pose_15_2HRL.pdbqt
 OpenBabel07062320523D

  6  5  0  0  0  0  0  0  0  0999 V2000
   33.1930   34.6630    9.2900 C   0  0  0  0  0  0  0  0  0  0  0  0
   32.0600   35.3600   10.0340 C   0  0  0  0  0  0  0  0  0  0  0  0
   30.7300   35.2670    9.3310 C   0  0  0  0  0  0  0  0  0  0  0  0
   29.6190   35.8200   10.2090 C   0  0  0  0  0  0  0  0  0  0  0  0
   28.2620   35.3920    9.6840 C   0  0  0  0  0  0  0  0  0  0  0  0
   28.1430   33.9070    9.6520 N   0  0  0  0  0  0  0  0  0  0  0  0
  1  2  1  0  0  0  0
  3  2  1  0  0  0  0
  3  4  1  0  0  0  0
  5  4  1  0  0  0  0
  6  5  1  0  0  0  0
M  END
>  <EGIN_R>
ES LYS A 135

>  <REMARK>
  4 active torsions:
  status: ('A' for Active; 'I' for Inactive)
    5  A    between atoms: CA   and  CB  
    6  A    between atoms: CB   and  CG  
    7  A    between atoms: CG   and  CD  
    8  A    between atoms: CD   and  CE  

$$$$
