ligand_14_pose_8_2HRL.pdbqt
 OpenBabel07062320523D

 50 51  0  0  1  0  0  0  0  0999 V2000
   19.8270   34.5480   10.1160 N   0  0  0  0  0  0  0  0  0  0  0  0
   20.2930   34.2570   11.4110 C   0  0  0  0  0  0  0  0  0  0  0  0
   19.7380   33.3930   12.1010 O   0  0  0  0  0  0  0  0  0  0  0  0
   20.3780   35.3240    9.6140 H   0  0  0  0  0  0  0  0  0  0  0  0
   18.7300   33.9310    9.4400 C   0  0  0  0  0  0  0  0  0  0  0  0
   18.4940   34.5710    8.1030 C   0  0  2  0  0  0  0  0  0  0  0  0
   17.6910   35.8620    8.2380 C   0  0  1  0  0  0  0  0  0  0  0  0
   18.5560   36.9750    7.6210 C   0  0  2  0  0  0  0  0  0  0  0  0
   19.9760   38.0570    9.1420 C   0  0  2  0  0  0  0  0  0  0  0  0
   18.7380   38.8130    9.5840 C   0  0  0  0  0  0  0  0  0  0  0  0
   19.7490   37.0550    8.2510 O   0  0  0  0  0  0  0  0  0  0  0  0
   17.9840   39.3110    8.4000 C   0  0  1  0  0  0  0  0  0  0  0  0
   17.7830   38.2230    7.3960 C   0  0  1  0  0  0  0  0  0  0  0  0
   20.4460   37.4300   10.3230 O   0  0  0  0  0  0  0  0  0  0  0  0
   21.1030   38.0520   10.7620 H   0  0  0  0  0  0  0  0  0  0  0  0
   21.0450   38.9840    8.7020 C   0  0  0  0  0  0  0  0  0  0  0  0
   21.1000   40.1370    9.1820 O   0  0  0  0  0  0  0  0  0  0  0  0
   21.9860   38.5930    7.7680 O   0  0  0  0  0  0  0  0  0  0  0  0
   22.9660   38.6670    8.0030 H   0  0  0  0  0  0  0  0  0  0  0  0
   16.7670   39.8150    8.8450 O   0  0  0  0  0  0  0  0  0  0  0  0
   16.2690   40.2300    8.0900 H   0  0  0  0  0  0  0  0  0  0  0  0
   17.9440   38.7110    6.0270 N   0  0  0  0  0  0  0  0  0  0  0  0
   16.9220   39.3660    5.3310 C   0  0  0  0  0  0  0  0  0  0  0  0
   18.8670   38.5470    5.5830 H   0  0  0  0  0  0  0  0  0  0  0  0
   17.1740   39.8290    3.9420 C   0  0  0  0  0  0  0  0  0  0  0  0
   15.7900   39.5640    5.8820 O   0  0  0  0  0  0  0  0  0  0  0  0
   16.5200   35.7050    7.5050 O   0  0  0  0  0  0  0  0  0  0  0  0
   15.8360   36.3710    7.6920 H   0  0  0  0  0  0  0  0  0  0  0  0
   17.9490   33.7380    7.1510 O   0  0  0  0  0  0  0  0  0  0  0  0
   18.4930   33.6210    6.3380 H   0  0  0  0  0  0  0  0  0  0  0  0
   21.3870   34.9160   11.9800 O   0  0  0  0  0  0  0  0  0  0  0  0
   22.7070   34.5150   11.6720 C   0  0  0  0  0  0  0  0  0  0  0  0
   23.2940   35.3090   10.5630 C   0  0  0  0  0  0  0  0  0  0  0  0
   24.5960   35.8050   10.4800 C   0  0  0  0  0  0  0  0  0  0  0  0
   22.7130   35.7170    9.4210 N   0  0  0  0  0  0  0  0  0  0  0  0
   24.7640   36.4780    9.3280 N   0  0  0  0  0  0  0  0  0  0  0  0
   23.5770   36.3980    8.7080 N   0  0  0  0  0  0  0  0  0  0  0  0
   25.9420   37.1570    8.8290 C   0  0  0  0  0  0  0  0  0  0  0  0
   26.1100   37.0220    7.3530 C   0  0  0  0  0  0  0  0  0  0  0  0
   27.0220   37.9710    6.7640 N   0  0  0  0  0  0  0  0  0  0  0  0
   28.0090   38.3270    7.7700 C   0  0  0  0  0  0  0  0  0  0  0  0
   27.7710   37.4000    5.6620 C   0  0  0  0  0  0  0  0  0  0  0  0
   29.3510   38.3390    7.1120 C   0  0  0  0  0  0  0  0  0  0  0  0
   29.0010   38.2850    5.6390 C   0  0  0  0  0  0  0  0  0  0  0  0
   29.8670   25.5550   16.9770 C   0  0  0  0  0  0  0  0  0  0  0  0
   28.3450   25.7220   17.0260 C   0  0  0  0  0  0  0  0  0  0  0  0
   27.6100   24.3980   17.1670 C   0  0  0  0  0  0  0  0  0  0  0  0
   26.1270   24.5880   17.3340 C   0  0  0  0  0  0  0  0  0  0  0  0
   25.5410   23.3930   18.0780 C   0  0  0  0  0  0  0  0  0  0  0  0
   24.5310   22.7050   17.2390 N   0  0  0  0  0  0  0  0  0  0  0  0
  1  2  1  0  0  0  0
  2 31  1  0  0  0  0
  2  3  2  0  0  0  0
  4  1  1  0  0  0  0
  5  1  1  0  0  0  0
  6  7  1  0  0  0  0
  6  5  1  1  0  0  0
  7 27  1  6  0  0  0
  8  7  1  1  0  0  0
  8 11  1  0  0  0  0
  9 16  1  6  0  0  0
  9 10  1  0  0  0  0
  9 14  1  0  0  0  0
 11  9  1  0  0  0  0
 12 20  1  1  0  0  0
 12 10  1  0  0  0  0
 13 22  1  6  0  0  0
 13  8  1  0  0  0  0
 13 12  1  0  0  0  0
 14 15  1  0  0  0  0
 16 17  2  0  0  0  0
 18 19  1  0  0  0  0
 18 16  1  0  0  0  0
 21 20  1  0  0  0  0
 23 26  2  0  0  0  0
 23 22  1  0  0  0  0
 24 22  1  0  0  0  0
 25 23  1  0  0  0  0
 27 28  1  0  0  0  0
 29  6  1  0  0  0  0
 30 29  1  0  0  0  0
 32 31  1  0  0  0  0
 33 32  1  0  0  0  0
 34 33  2  0  0  0  0
 35 33  1  0  0  0  0
 36 34  1  0  0  0  0
 37 36  1  0  0  0  0
 37 35  2  0  0  0  0
 38 36  1  0  0  0  0
 39 38  1  0  0  0  0
 40 39  1  0  0  0  0
 40 41  1  0  0  0  0
 42 40  1  0  0  0  0
 43 41  1  0  0  0  0
 44 42  1  0  0  0  0
 44 43  1  0  0  0  0
 45 46  1  0  0  0  0
 46 47  1  0  0  0  0
 47 48  1  0  0  0  0
 48 49  1  0  0  0  0
 50 49  1  0  0  0  0
M  END
>  <REMARK>
 VINA RESULT:    -4.444      6.035     10.206
 INTER + INTRA:         -14.204
 INTER:                  -8.020
 INTRA:                  -6.184
 UNBOUND:                -5.994
 SMILES CC(=O)N[C@@H]1[C@@H](O)C[C@](O)(C(=O)O)O[C@H]1C(O)[C@H](O)CNC(=O)OCc1cn(CCN2CCCC2)nn1
 SMILES IDX 21 1 22 2 23 3 20 5 18 6 16 7 15 8 9 9 8 10 14 11 6 12 5 13
 SMILES IDX 10 14 11 16 12 17 13 18 7 20 4 22 2 23 1 25 3 26 17 27 19 29
 SMILES IDX 24 31 25 32 26 33 27 34 37 35 28 36 36 37 29 38 30 39 31 40
 SMILES IDX 32 41 35 42 33 43 34 44
 H PARENT 21 4 10 15 13 19 7 21 4 24 17 28 19 30
 Flexibility Score: inf
  4 active torsions:
  status: ('A' for Active; 'I' for Inactive)
    1  A    between atoms: CA   and  CB  
    2  A    between atoms: CB   and  CG  
    3  A    between atoms: CG   and  CD  
    4  A    between atoms: CD   and  CE  

>  <TORSDO>
F 17

>  <BEGIN_>
RES LYS A 131

$$$$
ligand_14_pose_8_2HRL.pdbqt
 OpenBabel07062320523D

  6  5  0  0  0  0  0  0  0  0999 V2000
   33.1930   34.6630    9.2900 C   0  0  0  0  0  0  0  0  0  0  0  0
   32.0600   35.3600   10.0340 C   0  0  0  0  0  0  0  0  0  0  0  0
   30.7150   34.7130    9.8270 C   0  0  0  0  0  0  0  0  0  0  0  0
   30.4760   34.4340    8.3510 C   0  0  0  0  0  0  0  0  0  0  0  0
   29.0380   34.7420    7.9770 C   0  0  0  0  0  0  0  0  0  0  0  0
   28.0890   34.1340    8.9500 N   0  0  0  0  0  0  0  0  0  0  0  0
  1  2  1  0  0  0  0
  3  2  1  0  0  0  0
  4  3  1  0  0  0  0
  5  4  1  0  0  0  0
  5  6  1  0  0  0  0
M  END
>  <EGIN_R>
ES LYS A 135

>  <REMARK>
  4 active torsions:
  status: ('A' for Active; 'I' for Inactive)
    5  A    between atoms: CA   and  CB  
    6  A    between atoms: CB   and  CG  
    7  A    between atoms: CG   and  CD  
    8  A    between atoms: CD   and  CE  

$$$$
