ligand_10_pose_4_2HRL.pdbqt
 OpenBabel07062320523D

 53 53  0  0  1  0  0  0  0  0999 V2000
   31.4910   35.2750   14.7620 N   0  0  0  0  0  0  0  0  0  0  0  0
   30.8790   35.4120   13.4810 C   0  0  0  0  0  0  0  0  0  0  0  0
   30.9040   34.4490   12.7050 O   0  0  0  0  0  0  0  0  0  0  0  0
   31.4310   36.1360   15.3680 H   0  0  0  0  0  0  0  0  0  0  0  0
   32.1430   34.0930   15.2310 C   0  0  0  0  0  0  0  0  0  0  0  0
   31.4180   33.5130   16.4280 C   0  0  2  0  0  0  0  0  0  0  0  0
   30.3460   32.5290   15.9970 C   0  0  2  0  0  0  0  0  0  0  0  0
   30.3280   31.2640   16.7760 C   0  0  2  0  0  0  0  0  0  0  0  0
   28.0500   30.9300   16.4620 C   0  0  2  0  0  0  0  0  0  0  0  0
   27.7540   31.7900   17.6180 C   0  0  0  0  0  0  0  0  0  0  0  0
   29.3100   30.4020   16.3550 O   0  0  0  0  0  0  0  0  0  0  0  0
   28.8190   32.0420   18.6110 C   0  0  1  0  0  0  0  0  0  0  0  0
   30.1720   31.4940   18.2530 C   0  0  1  0  0  0  0  0  0  0  0  0
   27.8240   31.6200   15.2430 O   0  0  0  0  0  0  0  0  0  0  0  0
   27.3790   32.4680   15.5110 H   0  0  0  0  0  0  0  0  0  0  0  0
   27.1090   29.7770   16.4020 C   0  0  0  0  0  0  0  0  0  0  0  0
   25.9190   29.8570   16.0200 O   0  0  0  0  0  0  0  0  0  0  0  0
   27.5880   28.5370   16.7930 O   0  0  0  0  0  0  0  0  0  0  0  0
   28.2640   28.4290   17.5610 H   0  0  0  0  0  0  0  0  0  0  0  0
   28.9250   33.4030   18.8800 O   0  0  0  0  0  0  0  0  0  0  0  0
   28.6950   33.9830   18.1340 H   0  0  0  0  0  0  0  0  0  0  0  0
   30.4010   30.2080   18.9560 N   0  0  0  0  0  0  0  0  0  0  0  0
   31.0610   30.1710   20.2050 C   0  0  0  0  0  0  0  0  0  0  0  0
   30.0850   29.3030   18.5490 H   0  0  0  0  0  0  0  0  0  0  0  0
   31.3140   28.9010   20.9470 C   0  0  0  0  0  0  0  0  0  0  0  0
   31.4460   31.2490   20.7050 O   0  0  0  0  0  0  0  0  0  0  0  0
   30.7020   32.2480   14.6460 O   0  0  0  0  0  0  0  0  0  0  0  0
   30.0280   32.6190   14.0290 H   0  0  0  0  0  0  0  0  0  0  0  0
   30.9320   34.5660   17.1920 O   0  0  0  0  0  0  0  0  0  0  0  0
   30.2010   34.3030   17.8040 H   0  0  0  0  0  0  0  0  0  0  0  0
   30.2590   36.5820   13.0750 O   0  0  0  0  0  0  0  0  0  0  0  0
   29.2150   37.1300   13.8410 C   0  0  0  0  0  0  0  0  0  0  0  0
   28.2160   36.1170   14.2550 C   0  0  0  0  0  0  0  0  0  0  0  0
   27.0370   35.9140   13.5780 C   0  0  0  0  0  0  0  0  0  0  0  0
   28.2270   35.2580   15.2720 N   0  0  0  0  0  0  0  0  0  0  0  0
   26.3600   34.9240   14.2140 N   0  0  0  0  0  0  0  0  0  0  0  0
   27.1040   34.5600   15.2190 N   0  0  0  0  0  0  0  0  0  0  0  0
   25.0570   34.4460   13.7600 C   0  0  1  0  0  0  0  0  0  0  0  0
   24.9960   34.5040   12.2580 C   0  0  0  0  0  0  0  0  0  0  0  0
   23.8090   35.2240   11.7700 C   0  0  0  0  0  0  0  0  0  0  0  0
   22.8700   34.5670   11.2560 O   0  0  0  0  0  0  0  0  0  0  0  0
   23.7570   36.6040   11.8880 O   0  0  0  0  0  0  0  0  0  0  0  0
   22.8940   37.0410   12.2480 H   0  0  0  0  0  0  0  0  0  0  0  0
   24.9230   33.0160   14.1490 C   0  0  0  0  0  0  0  0  0  0  0  0
   24.7130   32.0840   13.3310 O   0  0  0  0  0  0  0  0  0  0  0  0
   25.0350   32.6900   15.4890 O   0  0  0  0  0  0  0  0  0  0  0  0
   24.9060   33.3700   16.2300 H   0  0  0  0  0  0  0  0  0  0  0  0
   29.8670   25.5550   16.9770 C   0  0  0  0  0  0  0  0  0  0  0  0
   28.3450   25.7220   17.0260 C   0  0  0  0  0  0  0  0  0  0  0  0
   27.6010   24.4020   16.8900 C   0  0  0  0  0  0  0  0  0  0  0  0
   26.5000   24.2650   17.9050 C   0  0  0  0  0  0  0  0  0  0  0  0
   26.1530   25.6390   18.4680 C   0  0  0  0  0  0  0  0  0  0  0  0
   25.7340   25.5280   19.8860 N   0  0  0  0  0  0  0  0  0  0  0  0
  1  5  1  0  0  0  0
  1  4  1  0  0  0  0
  2  1  1  0  0  0  0
  3  2  2  0  0  0  0
  6  5  1  6  0  0  0
  6 29  1  0  0  0  0
  7 27  1  6  0  0  0
  7  6  1  0  0  0  0
  8  7  1  6  0  0  0
  8 13  1  0  0  0  0
  9 14  1  6  0  0  0
  9 10  1  0  0  0  0
 10 12  1  0  0  0  0
 11  9  1  0  0  0  0
 11  8  1  0  0  0  0
 12 20  1  6  0  0  0
 13 12  1  0  0  0  0
 13 22  1  1  0  0  0
 14 15  1  0  0  0  0
 16  9  1  0  0  0  0
 16 18  1  0  0  0  0
 17 16  2  0  0  0  0
 18 19  1  0  0  0  0
 21 20  1  0  0  0  0
 22 23  1  0  0  0  0
 23 26  2  0  0  0  0
 23 25  1  0  0  0  0
 24 22  1  0  0  0  0
 28 27  1  0  0  0  0
 29 30  1  0  0  0  0
 31  2  1  0  0  0  0
 31 32  1  0  0  0  0
 32 33  1  0  0  0  0
 33 35  1  0  0  0  0
 34 36  1  0  0  0  0
 34 33  2  0  0  0  0
 36 37  1  0  0  0  0
 37 35  2  0  0  0  0
 38 39  1  6  0  0  0
 38 44  1  0  0  0  0
 38 36  1  0  0  0  0
 40 42  1  0  0  0  0
 40 39  1  0  0  0  0
 41 40  2  0  0  0  0
 42 43  1  0  0  0  0
 44 46  1  0  0  0  0
 45 44  2  0  0  0  0
 46 47  1  0  0  0  0
 48 49  1  0  0  0  0
 50 49  1  0  0  0  0
 50 51  1  0  0  0  0
 51 52  1  0  0  0  0
 52 53  1  0  0  0  0
M  END
>  <REMARK>
 VINA RESULT:    -4.865      2.109      5.197
 INTER + INTRA:         -15.302
 INTER:                  -7.899
 INTRA:                  -7.403
 UNBOUND:                -5.744
 SMILES CC(=O)N[C@@H]1[C@@H](O)C[C@](O)(C(=O)O)O[C@H]1C(O)[C@H](O)CNC(=O)OCc1cn([C@@H](CC(=O)O)C(=O)O)nn1
 SMILES IDX 21 1 22 2 23 3 20 5 18 6 16 7 15 8 9 9 8 10 14 11 6 12 5 13
 SMILES IDX 10 14 11 16 12 17 13 18 7 20 4 22 2 23 1 25 3 26 17 27 19 29
 SMILES IDX 24 31 25 32 26 33 27 34 38 35 28 36 37 37 29 38 30 39 31 40
 SMILES IDX 32 41 33 42 34 44 35 45 36 46
 H PARENT 21 4 10 15 13 19 7 21 4 24 17 28 19 30 33 43 36 47
 Flexibility Score: inf
  4 active torsions:
  status: ('A' for Active; 'I' for Inactive)
    1  A    between atoms: CA   and  CB  
    2  A    between atoms: CB   and  CG  
    3  A    between atoms: CG   and  CD  
    4  A    between atoms: CD   and  CE  

>  <TORSDO>
F 20

>  <BEGIN_>
RES LYS A 131

$$$$
ligand_10_pose_4_2HRL.pdbqt
 OpenBabel07062320523D

  6  5  0  0  0  0  0  0  0  0999 V2000
   33.1930   34.6630    9.2900 C   0  0  0  0  0  0  0  0  0  0  0  0
   32.0600   35.3600   10.0340 C   0  0  0  0  0  0  0  0  0  0  0  0
   30.8040   35.5090    9.2150 C   0  0  0  0  0  0  0  0  0  0  0  0
   30.1140   34.1650    9.0410 C   0  0  0  0  0  0  0  0  0  0  0  0
   28.6630   34.3590    8.6430 C   0  0  0  0  0  0  0  0  0  0  0  0
   27.7490   33.6820    9.6040 N   0  0  0  0  0  0  0  0  0  0  0  0
  1  2  1  0  0  0  0
  3  2  1  0  0  0  0
  4  3  1  0  0  0  0
  5  4  1  0  0  0  0
  5  6  1  0  0  0  0
M  END
>  <EGIN_R>
ES LYS A 135

>  <REMARK>
  4 active torsions:
  status: ('A' for Active; 'I' for Inactive)
    5  A    between atoms: CA   and  CB  
    6  A    between atoms: CB   and  CG  
    7  A    between atoms: CG   and  CD  
    8  A    between atoms: CD   and  CE  

$$$$
