ligand_19_pose_8_2HRL.pdbqt
 OpenBabel07062320523D

 49 49  0  0  1  0  0  0  0  0999 V2000
   31.5580   33.9030   18.1830 N   0  0  0  0  0  0  0  0  0  0  0  0
   32.2190   34.3980   19.3300 C   0  0  0  0  0  0  0  0  0  0  0  0
   32.0080   33.8970   20.4440 O   0  0  0  0  0  0  0  0  0  0  0  0
   31.7920   34.3910   17.2750 H   0  0  0  0  0  0  0  0  0  0  0  0
   30.6160   32.8050   18.1790 C   0  0  0  0  0  0  0  0  0  0  0  0
   30.2020   32.4340   16.8060 C   0  0  2  0  0  0  0  0  0  0  0  0
   30.9590   33.0990   15.6770 C   0  0  2  0  0  0  0  0  0  0  0  0
   30.1000   33.7190   14.6160 C   0  0  2  0  0  0  0  0  0  0  0  0
   31.8050   35.1500   13.9390 C   0  0  2  0  0  0  0  0  0  0  0  0
   31.4080   36.1120   14.9920 C   0  0  0  0  0  0  0  0  0  0  0  0
   30.8620   34.2290   13.5670 O   0  0  0  0  0  0  0  0  0  0  0  0
   30.0140   36.0180   15.4970 C   0  0  1  0  0  0  0  0  0  0  0  0
   29.2150   34.8460   15.0440 C   0  0  1  0  0  0  0  0  0  0  0  0
   32.9540   34.4100   14.3110 O   0  0  0  0  0  0  0  0  0  0  0  0
   33.7380   34.9970   14.4280 H   0  0  0  0  0  0  0  0  0  0  0  0
   32.2100   35.8700   12.6990 C   0  0  0  0  0  0  0  0  0  0  0  0
   31.5020   36.8260   12.2310 O   0  0  0  0  0  0  0  0  0  0  0  0
   33.3530   35.5720   11.9740 O   0  0  0  0  0  0  0  0  0  0  0  0
   34.2550   35.7460   12.4300 H   0  0  0  0  0  0  0  0  0  0  0  0
   30.0600   35.9960   16.8940 O   0  0  0  0  0  0  0  0  0  0  0  0
   30.9600   36.3020   17.2250 H   0  0  0  0  0  0  0  0  0  0  0  0
   28.3300   35.1250   13.9370 N   0  0  0  0  0  0  0  0  0  0  0  0
   27.0580   34.5570   13.8100 C   0  0  0  0  0  0  0  0  0  0  0  0
   28.6770   35.7790   13.2120 H   0  0  0  0  0  0  0  0  0  0  0  0
   26.1270   34.8270   12.6850 C   0  0  0  0  0  0  0  0  0  0  0  0
   26.6930   33.7740   14.7080 O   0  0  0  0  0  0  0  0  0  0  0  0
   31.5440   31.9650   14.9920 O   0  0  0  0  0  0  0  0  0  0  0  0
   32.5150   32.0510   15.2390 H   0  0  0  0  0  0  0  0  0  0  0  0
   28.8730   32.2740   16.5520 O   0  0  0  0  0  0  0  0  0  0  0  0
   28.6460   31.3990   16.2020 H   0  0  0  0  0  0  0  0  0  0  0  0
   33.1300   35.4730   19.2190 O   0  0  0  0  0  0  0  0  0  0  0  0
   33.4180   36.0290   17.9360 C   0  0  0  0  0  0  0  0  0  0  0  0
   34.8760   35.9470   17.7240 C   0  0  0  0  0  0  0  0  0  0  0  0
   35.5260   36.0390   16.5040 C   0  0  0  0  0  0  0  0  0  0  0  0
   35.8340   35.7640   18.6430 N   0  0  0  0  0  0  0  0  0  0  0  0
   36.8410   35.9100   16.7330 N   0  0  0  0  0  0  0  0  0  0  0  0
   36.9990   35.7450   18.0260 N   0  0  0  0  0  0  0  0  0  0  0  0
   37.8630   35.9510   15.7120 C   0  0  0  0  0  0  0  0  0  0  0  0
   38.5800   34.6220   15.7010 C   0  0  0  0  0  0  0  0  0  0  0  0
   37.8350   33.6890   14.9730 O   0  0  0  0  0  0  0  0  0  0  0  0
   37.6450   33.8140   13.6290 C   0  0  0  0  0  0  0  0  0  0  0  0
   36.5040   33.8210   13.1320 O   0  0  0  0  0  0  0  0  0  0  0  0
   38.8230   33.9480   12.7030 C   0  0  0  0  0  0  0  0  0  0  0  0
   29.8670   25.5550   16.9770 C   0  0  0  0  0  0  0  0  0  0  0  0
   28.3450   25.7220   17.0260 C   0  0  0  0  0  0  0  0  0  0  0  0
   27.6010   24.4010   16.9020 C   0  0  0  0  0  0  0  0  0  0  0  0
   26.1460   24.5350   17.2540 C   0  0  0  0  0  0  0  0  0  0  0  0
   26.0050   24.7800   18.7530 C   0  0  0  0  0  0  0  0  0  0  0  0
   25.0450   25.8790   19.0110 N   0  0  0  0  0  0  0  0  0  0  0  0
  1  2  1  0  0  0  0
  2  3  2  0  0  0  0
  4  1  1  0  0  0  0
  5  1  1  0  0  0  0
  6  5  1  1  0  0  0
  7 27  1  6  0  0  0
  7  6  1  0  0  0  0
  8 13  1  0  0  0  0
  8  7  1  1  0  0  0
  9 16  1  6  0  0  0
  9 14  1  0  0  0  0
  9 10  1  0  0  0  0
 10 12  1  0  0  0  0
 11  9  1  0  0  0  0
 11  8  1  0  0  0  0
 12 20  1  1  0  0  0
 13 22  1  6  0  0  0
 13 12  1  0  0  0  0
 14 15  1  0  0  0  0
 17 16  2  0  0  0  0
 18 19  1  0  0  0  0
 18 16  1  0  0  0  0
 20 21  1  0  0  0  0
 23 22  1  0  0  0  0
 23 26  2  0  0  0  0
 24 22  1  0  0  0  0
 25 23  1  0  0  0  0
 27 28  1  0  0  0  0
 29  6  1  0  0  0  0
 30 29  1  0  0  0  0
 31  2  1  0  0  0  0
 32 31  1  0  0  0  0
 33 32  1  0  0  0  0
 33 35  1  0  0  0  0
 34 36  1  0  0  0  0
 34 33  2  0  0  0  0
 36 37  1  0  0  0  0
 37 35  2  0  0  0  0
 38 36  1  0  0  0  0
 39 38  1  0  0  0  0
 40 39  1  0  0  0  0
 41 40  1  0  0  0  0
 42 41  2  0  0  0  0
 43 41  1  0  0  0  0
 44 45  1  0  0  0  0
 46 45  1  0  0  0  0
 46 47  1  0  0  0  0
 47 48  1  0  0  0  0
 48 49  1  0  0  0  0
M  END
>  <REMARK>
 VINA RESULT:    -4.190      3.030      7.158
 INTER + INTRA:         -14.045
 INTER:                  -8.752
 INTRA:                  -5.293
 UNBOUND:                -6.059
 SMILES CC(=O)N[C@@H]1[C@@H](O)C[C@](O)(C(=O)O)O[C@H]1C(O)[C@H](O)CNC(=O)OCc1cn(CCOC(C)=O)nn1
 SMILES IDX 21 1 22 2 23 3 20 5 18 6 16 7 15 8 9 9 8 10 14 11 6 12 5 13
 SMILES IDX 10 14 11 16 12 17 13 18 7 20 4 22 2 23 1 25 3 26 17 27 19 29
 SMILES IDX 24 31 25 32 26 33 27 34 36 35 28 36 35 37 29 38 30 39 31 40
 SMILES IDX 32 41 34 42 33 43
 H PARENT 21 4 10 15 13 19 7 21 4 24 17 28 19 30
 Flexibility Score: inf
  4 active torsions:
  status: ('A' for Active; 'I' for Inactive)
    1  A    between atoms: CA   and  CB  
    2  A    between atoms: CB   and  CG  
    3  A    between atoms: CG   and  CD  
    4  A    between atoms: CD   and  CE  

>  <TORSDO>
F 18

>  <BEGIN_>
RES LYS A 131

$$$$
ligand_19_pose_8_2HRL.pdbqt
 OpenBabel07062320523D

  6  5  0  0  0  0  0  0  0  0999 V2000
   33.1930   34.6630    9.2900 C   0  0  0  0  0  0  0  0  0  0  0  0
   32.0600   35.3600   10.0340 C   0  0  0  0  0  0  0  0  0  0  0  0
   30.7850   35.4560    9.2360 C   0  0  0  0  0  0  0  0  0  0  0  0
   30.0000   34.1560    9.3200 C   0  0  0  0  0  0  0  0  0  0  0  0
   28.7180   34.3570   10.1050 C   0  0  0  0  0  0  0  0  0  0  0  0
   27.5400   33.8560    9.3460 N   0  0  0  0  0  0  0  0  0  0  0  0
  1  2  1  0  0  0  0
  3  4  1  0  0  0  0
  3  2  1  0  0  0  0
  4  5  1  0  0  0  0
  6  5  1  0  0  0  0
M  END
>  <EGIN_R>
ES LYS A 135

>  <REMARK>
  4 active torsions:
  status: ('A' for Active; 'I' for Inactive)
    5  A    between atoms: CA   and  CB  
    6  A    between atoms: CB   and  CG  
    7  A    between atoms: CG   and  CD  
    8  A    between atoms: CD   and  CE  

$$$$
