ligand_88_pose_3_2HRL.pdbqt
 OpenBabel07062320523D

 54 55  0  0  1  0  0  0  0  0999 V2000
   24.9320   27.9990   18.8630 N   0  0  0  0  0  0  0  0  0  0  0  0
   24.0550   29.0960   18.6280 C   0  0  0  0  0  0  0  0  0  0  0  0
   23.3390   29.5120   19.5670 O   0  0  0  0  0  0  0  0  0  0  0  0
   25.5130   27.6730   18.0700 H   0  0  0  0  0  0  0  0  0  0  0  0
   25.0190   27.3520   20.1440 C   0  0  0  0  0  0  0  0  0  0  0  0
   26.3970   27.4890   20.7260 C   0  0  2  0  0  0  0  0  0  0  0  0
   27.3300   28.2530   19.8130 C   0  0  1  0  0  0  0  0  0  0  0  0
   28.5050   28.8100   20.6370 C   0  0  2  0  0  0  0  0  0  0  0  0
   30.1850   27.5010   21.6380 C   0  0  2  0  0  0  0  0  0  0  0  0
   30.2320   28.5930   22.7170 C   0  0  0  0  0  0  0  0  0  0  0  0
   29.5060   27.9280   20.5470 O   0  0  0  0  0  0  0  0  0  0  0  0
   28.7780   28.7280   23.1440 C   0  0  1  0  0  0  0  0  0  0  0  0
   28.0330   29.2610   21.9540 C   0  0  1  0  0  0  0  0  0  0  0  0
   29.6550   26.3880   22.2590 O   0  0  0  0  0  0  0  0  0  0  0  0
   30.0710   26.1800   23.1310 H   0  0  0  0  0  0  0  0  0  0  0  0
   31.5720   27.1840   21.2160 C   0  0  0  0  0  0  0  0  0  0  0  0
   32.4330   26.9480   22.1000 O   0  0  0  0  0  0  0  0  0  0  0  0
   31.9520   27.1400   19.8780 O   0  0  0  0  0  0  0  0  0  0  0  0
   32.6390   26.4110   19.6400 H   0  0  0  0  0  0  0  0  0  0  0  0
   28.2750   27.5040   23.5790 O   0  0  0  0  0  0  0  0  0  0  0  0
   28.9320   27.1160   24.1940 H   0  0  0  0  0  0  0  0  0  0  0  0
   28.0090   30.7170   22.0890 N   0  0  0  0  0  0  0  0  0  0  0  0
   26.8490   31.4990   21.8620 C   0  0  0  0  0  0  0  0  0  0  0  0
   28.8780   31.2510   22.3690 H   0  0  0  0  0  0  0  0  0  0  0  0
   26.8700   32.9860   22.0120 C   0  0  0  0  0  0  0  0  0  0  0  0
   25.7770   30.9350   21.5260 O   0  0  0  0  0  0  0  0  0  0  0  0
   27.7500   27.5410   18.7170 O   0  0  0  0  0  0  0  0  0  0  0  0
   27.2430   26.7130   18.5860 H   0  0  0  0  0  0  0  0  0  0  0  0
   26.8750   26.2580   21.1180 O   0  0  0  0  0  0  0  0  0  0  0  0
   27.8180   26.2500   21.3670 H   0  0  0  0  0  0  0  0  0  0  0  0
   23.9920   29.6930   17.3930 O   0  0  0  0  0  0  0  0  0  0  0  0
   24.7410   30.8540   17.0820 C   0  0  0  0  0  0  0  0  0  0  0  0
   26.1250   30.4460   16.7210 C   0  0  0  0  0  0  0  0  0  0  0  0
   27.2350   31.2730   16.6110 C   0  0  0  0  0  0  0  0  0  0  0  0
   26.6010   29.2220   16.4290 N   0  0  0  0  0  0  0  0  0  0  0  0
   28.3040   30.5380   16.2680 N   0  0  0  0  0  0  0  0  0  0  0  0
   27.8860   29.2650   16.1600 N   0  0  0  0  0  0  0  0  0  0  0  0
   29.6510   30.9850   16.0500 C   0  0  0  0  0  0  0  0  0  0  0  0
   30.1210   31.9410   17.0860 C   0  0  0  0  0  0  0  0  0  0  0  0
   30.2130   33.2760   16.7460 C   0  0  0  0  0  0  0  0  0  0  0  0
   30.4680   31.5630   18.3610 C   0  0  0  0  0  0  0  0  0  0  0  0
   30.6370   34.2470   17.6260 C   0  0  0  0  0  0  0  0  0  0  0  0
   30.9030   32.5290   19.2740 C   0  0  0  0  0  0  0  0  0  0  0  0
   30.7530   36.0790   17.1310 Br  0  0  0  0  0  0  0  0  0  0  0  0
   30.9860   33.8510   18.9100 C   0  0  0  0  0  0  0  0  0  0  0  0
   31.3680   31.9140   21.0320 Br  0  0  0  0  0  0  0  0  0  0  0  0
   30.3860   30.2340   18.7330 O   0  0  0  0  0  0  0  0  0  0  0  0
   30.7760   29.9450   19.6200 H   0  0  0  0  0  0  0  0  0  0  0  0
   29.8670   25.5550   16.9770 C   0  0  0  0  0  0  0  0  0  0  0  0
   28.3450   25.7220   17.0260 C   0  0  0  0  0  0  0  0  0  0  0  0
   27.5990   24.4760   16.5740 C   0  0  0  0  0  0  0  0  0  0  0  0
   27.1460   23.6350   17.7350 C   0  0  0  0  0  0  0  0  0  0  0  0
   25.9070   24.2620   18.3660 C   0  0  0  0  0  0  0  0  0  0  0  0
   25.4920   23.4990   19.5660 N   0  0  0  0  0  0  0  0  0  0  0  0
  1  5  1  0  0  0  0
  2  1  1  0  0  0  0
  2  3  2  0  0  0  0
  4  1  1  0  0  0  0
  6  5  1  6  0  0  0
  6 29  1  0  0  0  0
  7 27  1  6  0  0  0
  7  6  1  0  0  0  0
  8  7  1  1  0  0  0
  8 13  1  0  0  0  0
  9 16  1  6  0  0  0
  9 14  1  0  0  0  0
  9 10  1  0  0  0  0
 10 12  1  0  0  0  0
 11  8  1  0  0  0  0
 11  9  1  0  0  0  0
 12 20  1  6  0  0  0
 13 22  1  6  0  0  0
 13 12  1  0  0  0  0
 14 15  1  0  0  0  0
 16 17  2  0  0  0  0
 18 16  1  0  0  0  0
 19 18  1  0  0  0  0
 20 21  1  0  0  0  0
 22 24  1  0  0  0  0
 23 25  1  0  0  0  0
 23 22  1  0  0  0  0
 26 23  2  0  0  0  0
 28 27  1  0  0  0  0
 29 30  1  0  0  0  0
 31  2  1  0  0  0  0
 32 31  1  0  0  0  0
 33 32  1  0  0  0  0
 34 33  2  0  0  0  0
 35 33  1  0  0  0  0
 36 34  1  0  0  0  0
 37 36  1  0  0  0  0
 37 35  2  0  0  0  0
 38 36  1  0  0  0  0
 38 39  1  0  0  0  0
 39 41  1  0  0  0  0
 40 39  2  0  0  0  0
 40 42  1  0  0  0  0
 41 47  1  0  0  0  0
 41 43  2  0  0  0  0
 42 45  2  0  0  0  0
 43 46  1  0  0  0  0
 44 42  1  0  0  0  0
 45 43  1  0  0  0  0
 47 48  1  0  0  0  0
 49 50  1  0  0  0  0
 51 50  1  0  0  0  0
 51 52  1  0  0  0  0
 52 53  1  0  0  0  0
 53 54  1  0  0  0  0
M  END
>  <REMARK>
 VINA RESULT:    -5.332      2.027      2.842
 INTER + INTRA:         -15.491
 INTER:                  -8.236
 INTRA:                  -7.255
 UNBOUND:                -5.794
 SMILES CC(=O)N[C@@H]1[C@@H](O)C[C@](O)(C(=O)O)O[C@H]1C(O)[C@H](O)CNC(=O)OCc1cn(Cc2cc(Br)cc(Br)c2O)nn1
 SMILES IDX 21 1 22 2 23 3 20 5 18 6 16 7 15 8 9 9 8 10 14 11 6 12 5 13
 SMILES IDX 10 14 11 16 12 17 13 18 7 20 4 22 2 23 1 25 3 26 17 27 19 29
 SMILES IDX 24 31 25 32 26 33 27 34 40 35 28 36 39 37 29 38 30 39 31 40
 SMILES IDX 37 41 32 42 35 43 33 44 34 45 36 46 38 47
 H PARENT 21 4 10 15 13 19 7 21 4 24 17 28 19 30 38 48
 Flexibility Score: inf
  4 active torsions:
  status: ('A' for Active; 'I' for Inactive)
    1  A    between atoms: CA   and  CB  
    2  A    between atoms: CB   and  CG  
    3  A    between atoms: CG   and  CD  
    4  A    between atoms: CD   and  CE  

>  <TORSDO>
F 17

>  <BEGIN_>
RES LYS A 131

$$$$
ligand_88_pose_3_2HRL.pdbqt
 OpenBabel07062320523D

  6  5  0  0  0  0  0  0  0  0999 V2000
   33.1930   34.6630    9.2900 C   0  0  0  0  0  0  0  0  0  0  0  0
   32.0600   35.3600   10.0340 C   0  0  0  0  0  0  0  0  0  0  0  0
   30.7800   35.4410    9.2430 C   0  0  0  0  0  0  0  0  0  0  0  0
   30.1840   34.0560    9.0430 C   0  0  0  0  0  0  0  0  0  0  0  0
   28.6690   34.1270    9.0170 C   0  0  0  0  0  0  0  0  0  0  0  0
   28.1900   34.9720    7.8890 N   0  0  0  0  0  0  0  0  0  0  0  0
  1  2  1  0  0  0  0
  3  2  1  0  0  0  0
  4  3  1  0  0  0  0
  5  4  1  0  0  0  0
  6  5  1  0  0  0  0
M  END
>  <EGIN_R>
ES LYS A 135

>  <REMARK>
  4 active torsions:
  status: ('A' for Active; 'I' for Inactive)
    5  A    between atoms: CA   and  CB  
    6  A    between atoms: CB   and  CG  
    7  A    between atoms: CG   and  CD  
    8  A    between atoms: CD   and  CE  

$$$$
