ligand_93_pose_5_2HRL.pdbqt
 OpenBabel07062320523D

 50 51  0  0  1  0  0  0  0  0999 V2000
   26.6980   28.2090   19.6460 C   0  0  0  0  0  0  0  0  0  0  0  0
   27.4370   27.6910   20.8580 C   0  0  2  0  0  0  0  0  0  0  0  0
   28.9070   27.8450   20.6860 C   0  0  1  0  0  0  0  0  0  0  0  0
   29.5640   28.8950   21.5440 C   0  0  2  0  0  0  0  0  0  0  0  0
   30.4640   30.6420   20.2440 C   0  0  2  0  0  0  0  0  0  0  0  0
   31.8190   30.4660   20.8970 C   0  0  0  0  0  0  0  0  0  0  0  0
   29.4310   30.0820   20.9060 O   0  0  0  0  0  0  0  0  0  0  0  0
   31.9890   28.9940   21.1680 C   0  0  1  0  0  0  0  0  0  0  0  0
   30.8880   28.5630   22.1050 C   0  0  1  0  0  0  0  0  0  0  0  0
   30.5690   30.0390   18.9910 O   0  0  0  0  0  0  0  0  0  0  0  0
   29.6370   29.9960   18.6180 H   0  0  0  0  0  0  0  0  0  0  0  0
   30.2830   32.1100   20.0140 C   0  0  0  0  0  0  0  0  0  0  0  0
   30.7630   32.9850   20.7680 O   0  0  0  0  0  0  0  0  0  0  0  0
   29.5500   32.5130   18.9190 O   0  0  0  0  0  0  0  0  0  0  0  0
   28.8660   33.2710   18.9560 H   0  0  0  0  0  0  0  0  0  0  0  0
   31.9310   28.3490   19.9310 O   0  0  0  0  0  0  0  0  0  0  0  0
   31.3290   27.5660   19.9450 H   0  0  0  0  0  0  0  0  0  0  0  0
   31.1020   29.2990   23.3640 N   0  0  0  0  0  0  0  0  0  0  0  0
   31.3460   28.6310   24.5890 C   0  0  0  0  0  0  0  0  0  0  0  0
   31.0760   30.3380   23.3680 H   0  0  0  0  0  0  0  0  0  0  0  0
   31.5520   29.4430   25.8100 C   0  0  0  0  0  0  0  0  0  0  0  0
   31.3890   27.3670   24.6500 O   0  0  0  0  0  0  0  0  0  0  0  0
   29.5790   26.6300   20.6670 O   0  0  0  0  0  0  0  0  0  0  0  0
   29.2350   26.0310   19.9460 H   0  0  0  0  0  0  0  0  0  0  0  0
   27.0700   26.3240   20.9650 O   0  0  0  0  0  0  0  0  0  0  0  0
   26.7450   26.0060   20.0780 H   0  0  0  0  0  0  0  0  0  0  0  0
   27.2420   29.4350   19.1100 N   0  0  0  0  0  0  0  0  0  0  0  0
   27.5590   29.4980   17.7160 C   0  0  0  0  0  0  0  0  0  0  0  0
   27.3820   30.2380   19.7470 H   0  0  0  0  0  0  0  0  0  0  0  0
   27.3540   28.4910   17.0170 O   0  0  0  0  0  0  0  0  0  0  0  0
   28.0790   30.6850   17.2270 O   0  0  0  0  0  0  0  0  0  0  0  0
   28.3600   30.7890   15.8560 C   0  0  0  0  0  0  0  0  0  0  0  0
   29.5220   31.6960   15.6910 C   0  0  0  0  0  0  0  0  0  0  0  0
   29.4610   32.9410   15.0560 C   0  0  0  0  0  0  0  0  0  0  0  0
   30.7940   31.5450   16.0780 N   0  0  0  0  0  0  0  0  0  0  0  0
   30.7030   33.4320   15.1170 N   0  0  0  0  0  0  0  0  0  0  0  0
   31.5170   32.5960   15.7320 N   0  0  0  0  0  0  0  0  0  0  0  0
   31.1040   34.6860   14.5920 C   0  0  0  0  0  0  0  0  0  0  0  0
   31.2450   34.8240   13.2120 C   0  0  0  0  0  0  0  0  0  0  0  0
   31.3400   35.7270   15.4450 C   0  0  0  0  0  0  0  0  0  0  0  0
   31.6330   36.0400   12.6920 C   0  0  0  0  0  0  0  0  0  0  0  0
   31.7300   36.9390   14.9050 C   0  0  0  0  0  0  0  0  0  0  0  0
   31.1410   35.5660   17.5360 I   0  0  0  0  0  0  0  0  0  0  0  0
   31.8760   37.1000   13.5390 C   0  0  0  0  0  0  0  0  0  0  0  0
   29.8670   25.5550   16.9770 C   0  0  0  0  0  0  0  0  0  0  0  0
   28.3450   25.7220   17.0260 C   0  0  0  0  0  0  0  0  0  0  0  0
   27.6110   24.4000   17.1900 C   0  0  0  0  0  0  0  0  0  0  0  0
   26.1340   24.5390   16.9440 C   0  0  0  0  0  0  0  0  0  0  0  0
   25.3870   23.4470   17.7040 C   0  0  0  0  0  0  0  0  0  0  0  0
   25.8750   23.3610   19.1010 N   0  0  0  0  0  0  0  0  0  0  0  0
  2  1  1  6  0  0  0
  2 25  1  0  0  0  0
  3 23  1  1  0  0  0
  3  2  1  0  0  0  0
  4  3  1  6  0  0  0
  4  9  1  0  0  0  0
  5 10  1  6  0  0  0
  5  6  1  0  0  0  0
  5  7  1  0  0  0  0
  6  8  1  0  0  0  0
  7  4  1  0  0  0  0
  8 16  1  6  0  0  0
  8  9  1  0  0  0  0
  9 18  1  1  0  0  0
 11 10  1  0  0  0  0
 12  5  1  0  0  0  0
 12 13  2  0  0  0  0
 14 15  1  0  0  0  0
 14 12  1  0  0  0  0
 16 17  1  0  0  0  0
 18 20  1  0  0  0  0
 18 19  1  0  0  0  0
 19 22  2  0  0  0  0
 19 21  1  0  0  0  0
 24 23  1  0  0  0  0
 26 25  1  0  0  0  0
 27  1  1  0  0  0  0
 27 29  1  0  0  0  0
 28 27  1  0  0  0  0
 30 28  2  0  0  0  0
 31 28  1  0  0  0  0
 32 31  1  0  0  0  0
 33 32  1  0  0  0  0
 33 35  1  0  0  0  0
 34 36  1  0  0  0  0
 34 33  2  0  0  0  0
 36 37  1  0  0  0  0
 37 35  2  0  0  0  0
 38 36  1  0  0  0  0
 38 40  2  0  0  0  0
 39 38  1  0  0  0  0
 40 43  1  0  0  0  0
 41 39  2  0  0  0  0
 41 44  1  0  0  0  0
 42 40  1  0  0  0  0
 44 42  2  0  0  0  0
 45 46  1  0  0  0  0
 46 47  1  0  0  0  0
 48 47  1  0  0  0  0
 48 49  1  0  0  0  0
 49 50  1  0  0  0  0
M  END
>  <REMARK>
 VINA RESULT:    -4.728      3.908      6.448
 INTER + INTRA:         -14.468
 INTER:                  -8.728
 INTRA:                  -5.740
 UNBOUND:                -6.285
 SMILES CC(=O)N[C@@H]1[C@@H](O)C[C@](O)(C(=O)O)O[C@H]1C(O)[C@H](O)CNC(=O)OCc1cn(-c2ccccc2I)nn1
 SMILES IDX 20 1 18 2 16 3 15 4 9 5 8 6 14 7 6 8 5 9 10 10 11 12 12 13
 SMILES IDX 13 14 7 16 4 18 2 19 1 21 3 22 17 23 19 25 21 27 22 28 23 30
 SMILES IDX 24 31 25 32 26 33 27 34 37 35 28 36 36 37 29 38 30 39 34 40
 SMILES IDX 31 41 33 42 35 43 32 44
 H PARENT 10 11 13 15 7 17 4 20 17 24 19 26 21 29
 Flexibility Score: inf
  4 active torsions:
  status: ('A' for Active; 'I' for Inactive)
    1  A    between atoms: CA   and  CB  
    2  A    between atoms: CB   and  CG  
    3  A    between atoms: CG   and  CD  
    4  A    between atoms: CD   and  CE  

>  <TORSDO>
F 15

>  <BEGIN_>
RES LYS A 131

$$$$
ligand_93_pose_5_2HRL.pdbqt
 OpenBabel07062320523D

  6  5  0  0  0  0  0  0  0  0999 V2000
   33.1930   34.6630    9.2900 C   0  0  0  0  0  0  0  0  0  0  0  0
   32.0600   35.3600   10.0340 C   0  0  0  0  0  0  0  0  0  0  0  0
   30.8100   35.5280    9.2080 C   0  0  0  0  0  0  0  0  0  0  0  0
   30.0710   34.2050    9.0790 C   0  0  0  0  0  0  0  0  0  0  0  0
   28.6090   34.4410    8.7530 C   0  0  0  0  0  0  0  0  0  0  0  0
   27.7230   33.7610    9.7380 N   0  0  0  0  0  0  0  0  0  0  0  0
  1  2  1  0  0  0  0
  3  2  1  0  0  0  0
  4  3  1  0  0  0  0
  5  4  1  0  0  0  0
  5  6  1  0  0  0  0
M  END
>  <EGIN_R>
ES LYS A 135

>  <REMARK>
  4 active torsions:
  status: ('A' for Active; 'I' for Inactive)
    5  A    between atoms: CA   and  CB  
    6  A    between atoms: CB   and  CG  
    7  A    between atoms: CG   and  CD  
    8  A    between atoms: CD   and  CE  

$$$$
