ligand_7_pose_17_2HRL.pdbqt
 OpenBabel07062320523D

 52 53  0  0  1  0  0  0  0  0999 V2000
   27.4890   36.4410   16.6490 C   0  0  0  0  0  0  0  0  0  0  0  0
   27.0360   35.0440   16.4270 C   0  0  2  0  0  0  0  0  0  0  0  0
   27.4600   34.0550   17.4650 C   0  0  1  0  0  0  0  0  0  0  0  0
   28.5560   33.1340   17.0810 C   0  0  2  0  0  0  0  0  0  0  0  0
   30.4390   33.2180   15.6970 C   0  0  2  0  0  0  0  0  0  0  0  0
   30.5720   31.7230   15.7500 C   0  0  0  0  0  0  0  0  0  0  0  0
   29.7020   33.7680   16.7020 O   0  0  0  0  0  0  0  0  0  0  0  0
   29.3360   31.0230   16.2020 C   0  0  1  0  0  0  0  0  0  0  0  0
   28.1680   32.0230   16.1520 C   0  0  1  0  0  0  0  0  0  0  0  0
   29.9080   33.5540   14.4540 O   0  0  0  0  0  0  0  0  0  0  0  0
   30.3950   33.0190   13.7630 H   0  0  0  0  0  0  0  0  0  0  0  0
   31.8160   33.7740   15.7840 C   0  0  0  0  0  0  0  0  0  0  0  0
   32.2470   34.2330   16.8600 O   0  0  0  0  0  0  0  0  0  0  0  0
   32.6530   33.7940   14.6600 O   0  0  0  0  0  0  0  0  0  0  0  0
   32.4470   33.1470   13.8860 H   0  0  0  0  0  0  0  0  0  0  0  0
   29.0470   29.8630   15.5120 O   0  0  0  0  0  0  0  0  0  0  0  0
   29.1150   30.0750   14.5340 H   0  0  0  0  0  0  0  0  0  0  0  0
   27.0280   31.2870   16.6320 N   0  0  0  0  0  0  0  0  0  0  0  0
   25.8230   31.3450   15.8820 C   0  0  0  0  0  0  0  0  0  0  0  0
   27.0550   30.7100   17.5090 H   0  0  0  0  0  0  0  0  0  0  0  0
   24.5900   30.6230   16.2930 C   0  0  0  0  0  0  0  0  0  0  0  0
   25.7620   32.0250   14.8270 O   0  0  0  0  0  0  0  0  0  0  0  0
   27.8260   34.7640   18.6070 O   0  0  0  0  0  0  0  0  0  0  0  0
   28.5260   35.4130   18.3480 H   0  0  0  0  0  0  0  0  0  0  0  0
   27.3230   34.6160   15.1300 O   0  0  0  0  0  0  0  0  0  0  0  0
   28.1060   35.0860   14.7490 H   0  0  0  0  0  0  0  0  0  0  0  0
   28.8820   36.6490   16.3050 N   0  0  0  0  0  0  0  0  0  0  0  0
   29.8450   37.1430   17.2290 C   0  0  0  0  0  0  0  0  0  0  0  0
   29.2640   36.4410   15.3350 H   0  0  0  0  0  0  0  0  0  0  0  0
   29.5120   37.4210   18.3960 O   0  0  0  0  0  0  0  0  0  0  0  0
   31.1790   37.3250   16.8520 O   0  0  0  0  0  0  0  0  0  0  0  0
   31.4870   38.2780   15.8220 C   0  0  0  0  0  0  0  0  0  0  0  0
   31.0950   37.6920   14.5150 C   0  0  0  0  0  0  0  0  0  0  0  0
   30.4770   38.3750   13.4810 C   0  0  0  0  0  0  0  0  0  0  0  0
   31.2510   36.4480   14.0850 N   0  0  0  0  0  0  0  0  0  0  0  0
   30.2730   37.5400   12.4590 N   0  0  0  0  0  0  0  0  0  0  0  0
   30.7680   36.3630   12.8780 N   0  0  0  0  0  0  0  0  0  0  0  0
   29.6770   37.7730   11.1900 C   0  0  0  0  0  0  0  0  0  0  0  0
   28.3310   37.5490   11.0030 C   0  0  0  0  0  0  0  0  0  0  0  0
   30.4150   38.2260   10.1070 C   0  0  0  0  0  0  0  0  0  0  0  0
   27.5210   37.0670   12.1440 C   0  0  0  0  0  0  0  0  0  0  0  0
   27.7480   37.7800    9.7500 C   0  0  0  0  0  0  0  0  0  0  0  0
   29.8300   38.4500    8.8760 C   0  0  0  0  0  0  0  0  0  0  0  0
   31.8850   38.4650   10.3310 C   0  0  0  0  0  0  0  0  0  0  0  0
   28.4850   38.2310    8.6760 C   0  0  0  0  0  0  0  0  0  0  0  0
   27.8380   38.4690    7.3500 C   0  0  0  0  0  0  0  0  0  0  0  0
   29.8670   25.5550   16.9770 C   0  0  0  0  0  0  0  0  0  0  0  0
   28.3450   25.7220   17.0260 C   0  0  0  0  0  0  0  0  0  0  0  0
   27.6020   24.3990   16.9230 C   0  0  0  0  0  0  0  0  0  0  0  0
   26.5210   24.2740   17.9610 C   0  0  0  0  0  0  0  0  0  0  0  0
   26.3580   25.6040   18.6880 C   0  0  0  0  0  0  0  0  0  0  0  0
   25.0140   26.1740   18.4320 N   0  0  0  0  0  0  0  0  0  0  0  0
  2  1  1  1  0  0  0
  2  3  1  0  0  0  0
  3 23  1  1  0  0  0
  4  3  1  6  0  0  0
  5 10  1  6  0  0  0
  5  6  1  0  0  0  0
  5 12  1  0  0  0  0
  5  7  1  0  0  0  0
  6  8  1  0  0  0  0
  7  4  1  0  0  0  0
  8 16  1  6  0  0  0
  9  8  1  0  0  0  0
  9 18  1  1  0  0  0
  9  4  1  0  0  0  0
 11 10  1  0  0  0  0
 12 13  2  0  0  0  0
 14 12  1  0  0  0  0
 15 14  1  0  0  0  0
 17 16  1  0  0  0  0
 18 20  1  0  0  0  0
 19 21  1  0  0  0  0
 19 18  1  0  0  0  0
 22 19  2  0  0  0  0
 24 23  1  0  0  0  0
 25  2  1  0  0  0  0
 26 25  1  0  0  0  0
 27  1  1  0  0  0  0
 27 28  1  0  0  0  0
 28 30  2  0  0  0  0
 29 27  1  0  0  0  0
 31 28  1  0  0  0  0
 32 31  1  0  0  0  0
 33 32  1  0  0  0  0
 34 33  2  0  0  0  0
 35 33  1  0  0  0  0
 36 37  1  0  0  0  0
 36 34  1  0  0  0  0
 37 35  2  0  0  0  0
 38 36  1  0  0  0  0
 39 38  1  0  0  0  0
 39 41  1  0  0  0  0
 40 44  1  0  0  0  0
 40 38  2  0  0  0  0
 42 39  2  0  0  0  0
 43 40  1  0  0  0  0
 45 43  2  0  0  0  0
 45 42  1  0  0  0  0
 46 45  1  0  0  0  0
 47 48  1  0  0  0  0
 49 48  1  0  0  0  0
 49 50  1  0  0  0  0
 50 51  1  0  0  0  0
 52 51  1  0  0  0  0
M  END
>  <REMARK>
 VINA RESULT:    -4.587      4.368      6.522
 INTER + INTRA:         -13.857
 INTER:                  -7.830
 INTRA:                  -6.027
 UNBOUND:                -5.917
 SMILES CC(=O)N[C@@H]1[C@@H](O)C[C@](O)(C(=O)O)O[C@H]1C(O)[C@H](O)CNC(=O)OCc1cn(-c2c(C)cc(C)cc2C)nn1
 SMILES IDX 20 1 18 2 16 3 15 4 9 5 8 6 14 7 6 8 5 9 10 10 11 12 12 13
 SMILES IDX 13 14 7 16 4 18 2 19 1 21 3 22 17 23 19 25 21 27 22 28 23 30
 SMILES IDX 24 31 25 32 26 33 27 34 39 35 28 36 38 37 29 38 30 39 36 40
 SMILES IDX 31 41 32 42 35 43 37 44 33 45 34 46
 H PARENT 10 11 13 15 7 17 4 20 17 24 19 26 21 29
 Flexibility Score: inf
  4 active torsions:
  status: ('A' for Active; 'I' for Inactive)
    1  A    between atoms: CA   and  CB  
    2  A    between atoms: CB   and  CG  
    3  A    between atoms: CG   and  CD  
    4  A    between atoms: CD   and  CE  

>  <TORSDO>
F 15

>  <BEGIN_>
RES LYS A 131

$$$$
ligand_7_pose_17_2HRL.pdbqt
 OpenBabel07062320523D

  6  5  0  0  0  0  0  0  0  0999 V2000
   33.1930   34.6630    9.2900 C   0  0  0  0  0  0  0  0  0  0  0  0
   32.0600   35.3600   10.0340 C   0  0  0  0  0  0  0  0  0  0  0  0
   30.7530   34.6110    9.9800 C   0  0  0  0  0  0  0  0  0  0  0  0
   30.0900   34.7860    8.6230 C   0  0  0  0  0  0  0  0  0  0  0  0
   28.6500   34.3110    8.6690 C   0  0  0  0  0  0  0  0  0  0  0  0
   28.2040   34.0870   10.0720 N   0  0  0  0  0  0  0  0  0  0  0  0
  1  2  1  0  0  0  0
  3  2  1  0  0  0  0
  4  5  1  0  0  0  0
  4  3  1  0  0  0  0
  5  6  1  0  0  0  0
M  END
>  <EGIN_R>
ES LYS A 135

>  <REMARK>
  4 active torsions:
  status: ('A' for Active; 'I' for Inactive)
    5  A    between atoms: CA   and  CB  
    6  A    between atoms: CB   and  CG  
    7  A    between atoms: CG   and  CD  
    8  A    between atoms: CD   and  CE  

$$$$
