ligand_26_pose_1_2HRL.pdbqt
 OpenBabel07062320523D

 54 55  0  0  1  0  0  0  0  0999 V2000
   27.3700   32.6680   15.5280 N   0  0  0  0  0  0  0  0  0  0  0  0
   26.5540   33.2680   16.5290 C   0  0  0  0  0  0  0  0  0  0  0  0
   26.6200   32.8330   17.6930 O   0  0  0  0  0  0  0  0  0  0  0  0
   27.2580   33.0970   14.5590 H   0  0  0  0  0  0  0  0  0  0  0  0
   28.2830   31.5720   15.7650 C   0  0  0  0  0  0  0  0  0  0  0  0
   29.6620   32.0580   16.1510 C   0  0  2  0  0  0  0  0  0  0  0  0
   30.2970   32.8830   15.0510 C   0  0  1  0  0  0  0  0  0  0  0  0
   30.4410   34.3310   15.4110 C   0  0  2  0  0  0  0  0  0  0  0  0
   28.9080   35.4730   14.0700 C   0  0  2  0  0  0  0  0  0  0  0  0
   30.0030   36.1030   13.2460 C   0  0  0  0  0  0  0  0  0  0  0  0
   29.2780   35.0470   15.3110 O   0  0  0  0  0  0  0  0  0  0  0  0
   31.2710   35.3030   13.2440 C   0  0  1  0  0  0  0  0  0  0  0  0
   31.6010   34.9870   14.6850 C   0  0  1  0  0  0  0  0  0  0  0  0
   28.2540   34.4850   13.3000 O   0  0  0  0  0  0  0  0  0  0  0  0
   28.2520   33.6140   13.7390 H   0  0  0  0  0  0  0  0  0  0  0  0
   27.8820   36.5600   14.2750 C   0  0  0  0  0  0  0  0  0  0  0  0
   27.5440   37.3570   13.3910 O   0  0  0  0  0  0  0  0  0  0  0  0
   27.3240   36.6040   15.5640 O   0  0  0  0  0  0  0  0  0  0  0  0
   26.3250   36.6470   15.6930 H   0  0  0  0  0  0  0  0  0  0  0  0
   31.2030   34.1810   12.4520 O   0  0  0  0  0  0  0  0  0  0  0  0
   31.1570   34.4430   11.5010 H   0  0  0  0  0  0  0  0  0  0  0  0
   31.7890   36.2930   15.3380 N   0  0  0  0  0  0  0  0  0  0  0  0
   33.0130   36.5580   16.0120 C   0  0  0  0  0  0  0  0  0  0  0  0
   31.0570   37.0280   15.3240 H   0  0  0  0  0  0  0  0  0  0  0  0
   33.1870   37.8810   16.6650 C   0  0  0  0  0  0  0  0  0  0  0  0
   33.8970   35.6730   16.0300 O   0  0  0  0  0  0  0  0  0  0  0  0
   31.5380   32.3010   14.7790 O   0  0  0  0  0  0  0  0  0  0  0  0
   31.3890   31.3740   14.4250 H   0  0  0  0  0  0  0  0  0  0  0  0
   30.4700   30.9410   16.4470 O   0  0  0  0  0  0  0  0  0  0  0  0
   31.4280   31.1830   16.4960 H   0  0  0  0  0  0  0  0  0  0  0  0
   25.6950   34.3110   16.2640 O   0  0  0  0  0  0  0  0  0  0  0  0
   24.4830   34.2170   15.5500 C   0  0  0  0  0  0  0  0  0  0  0  0
   24.6220   34.3170   14.0940 C   0  0  0  0  0  0  0  0  0  0  0  0
   23.7810   35.0410   13.2390 C   0  0  0  0  0  0  0  0  0  0  0  0
   25.5530   33.7600   13.2780 N   0  0  0  0  0  0  0  0  0  0  0  0
   24.2210   34.8970   12.0050 N   0  0  0  0  0  0  0  0  0  0  0  0
   25.2740   34.1330   12.0440 N   0  0  0  0  0  0  0  0  0  0  0  0
   23.5980   35.5160   10.7920 C   0  0  1  0  0  0  0  0  0  0  0  0
   22.2550   35.9990   11.2740 C   0  0  0  0  0  0  0  0  0  0  0  0
   24.4810   36.5950   10.3710 C   0  0  0  0  0  0  0  0  0  0  0  0
   24.8580   36.7390    9.0000 C   0  0  2  0  0  0  0  0  0  0  0  0
   23.9670   37.4500    8.3010 O   0  0  0  0  0  0  0  0  0  0  0  0
   25.9670   36.2930    8.2160 C   0  0  0  0  0  0  0  0  0  0  0  0
   26.4190   37.1170    7.1550 C   0  0  0  0  0  0  0  0  0  0  0  0
   26.6630   35.1250    8.4080 C   0  0  0  0  0  0  0  0  0  0  0  0
   27.4870   36.7580    6.3740 C   0  0  0  0  0  0  0  0  0  0  0  0
   27.7400   34.7940    7.5980 C   0  0  0  0  0  0  0  0  0  0  0  0
   28.1690   35.5840    6.5820 C   0  0  0  0  0  0  0  0  0  0  0  0
   29.8670   25.5550   16.9770 C   0  0  0  0  0  0  0  0  0  0  0  0
   28.3450   25.7220   17.0260 C   0  0  0  0  0  0  0  0  0  0  0  0
   27.6040   24.3940   17.0070 C   0  0  0  0  0  0  0  0  0  0  0  0
   26.3880   24.4110   17.8920 C   0  0  0  0  0  0  0  0  0  0  0  0
   25.3880   23.3680   17.4030 C   0  0  0  0  0  0  0  0  0  0  0  0
   24.1150   24.0160   17.0090 N   0  0  0  0  0  0  0  0  0  0  0  0
  1  5  1  0  0  0  0
  1  2  1  0  0  0  0
  2  3  2  0  0  0  0
  4  1  1  0  0  0  0
  6  5  1  6  0  0  0
  6 29  1  0  0  0  0
  7 27  1  1  0  0  0
  7  6  1  0  0  0  0
  8  7  1  6  0  0  0
  9 14  1  6  0  0  0
  9 16  1  0  0  0  0
  9 11  1  0  0  0  0
 10  9  1  0  0  0  0
 11  8  1  0  0  0  0
 12 20  1  6  0  0  0
 12 10  1  0  0  0  0
 12 13  1  0  0  0  0
 13 22  1  1  0  0  0
 13  8  1  0  0  0  0
 14 15  1  0  0  0  0
 16 18  1  0  0  0  0
 17 16  2  0  0  0  0
 18 19  1  0  0  0  0
 21 20  1  0  0  0  0
 22 23  1  0  0  0  0
 23 26  2  0  0  0  0
 23 25  1  0  0  0  0
 24 22  1  0  0  0  0
 28 27  1  0  0  0  0
 29 30  1  0  0  0  0
 31  2  1  0  0  0  0
 32 31  1  0  0  0  0
 33 32  1  0  0  0  0
 34 33  2  0  0  0  0
 35 33  1  0  0  0  0
 36 37  1  0  0  0  0
 36 34  1  0  0  0  0
 37 35  2  0  0  0  0
 38 39  1  1  0  0  0
 38 36  1  0  0  0  0
 40 38  1  0  0  0  0
 41 42  1  6  0  0  0
 41 40  1  0  0  0  0
 43 45  1  0  0  0  0
 43 41  1  0  0  0  0
 44 43  2  0  0  0  0
 46 48  2  0  0  0  0
 46 44  1  0  0  0  0
 47 45  2  0  0  0  0
 48 47  1  0  0  0  0
 49 50  1  0  0  0  0
 51 50  1  0  0  0  0
 51 52  1  0  0  0  0
 53 52  1  0  0  0  0
 54 53  1  0  0  0  0
M  END
>  <REMARK>
 VINA RESULT:    -5.018      4.284      8.377
 INTER + INTRA:         -16.500
 INTER:                 -10.485
 INTRA:                  -6.015
 UNBOUND:                -6.934
 SMILES CC(=O)N[C@@H]1[C@@H](O)C[C@](O)(C(=O)O)O[C@H]1C(O)[C@H](O)CNC(=O)OCc1cn(C(C)CC(=O)c2ccccc2)nn1
 SMILES IDX 21 1 22 2 23 3 20 5 18 6 16 7 15 8 9 9 8 10 14 11 6 12 5 13
 SMILES IDX 10 14 11 16 12 17 13 18 7 20 4 22 2 23 1 25 3 26 17 27 19 29
 SMILES IDX 24 31 25 32 26 33 27 34 41 35 28 36 40 37 29 38 30 39 31 40
 SMILES IDX 32 41 33 42 34 43 35 44 39 45 36 46 38 47 37 48
 H PARENT 21 4 10 15 13 19 7 21 4 24 17 28 19 30
 Flexibility Score: inf
  4 active torsions:
  status: ('A' for Active; 'I' for Inactive)
    1  A    between atoms: CA   and  CB  
    2  A    between atoms: CB   and  CG  
    3  A    between atoms: CG   and  CD  
    4  A    between atoms: CD   and  CE  

>  <TORSDO>
F 18

>  <BEGIN_>
RES LYS A 131

$$$$
ligand_26_pose_1_2HRL.pdbqt
 OpenBabel07062320523D

  6  5  0  0  0  0  0  0  0  0999 V2000
   33.1930   34.6630    9.2900 C   0  0  0  0  0  0  0  0  0  0  0  0
   32.0600   35.3600   10.0340 C   0  0  0  0  0  0  0  0  0  0  0  0
   30.8110   35.5290    9.2080 C   0  0  0  0  0  0  0  0  0  0  0  0
   30.4640   37.0020    9.0560 C   0  0  0  0  0  0  0  0  0  0  0  0
   29.2470   37.3510    9.8920 C   0  0  0  0  0  0  0  0  0  0  0  0
   28.6670   38.6580    9.4750 N   0  0  0  0  0  0  0  0  0  0  0  0
  1  2  1  0  0  0  0
  3  2  1  0  0  0  0
  4  3  1  0  0  0  0
  4  5  1  0  0  0  0
  6  5  1  0  0  0  0
M  END
>  <EGIN_R>
ES LYS A 135

>  <REMARK>
  4 active torsions:
  status: ('A' for Active; 'I' for Inactive)
    5  A    between atoms: CA   and  CB  
    6  A    between atoms: CB   and  CG  
    7  A    between atoms: CG   and  CD  
    8  A    between atoms: CD   and  CE  

$$$$
