ligand_49_pose_7_2HRL.pdbqt
 OpenBabel07062320523D

 48 49  0  0  1  0  0  0  0  0999 V2000
   25.5360   33.9520   15.6120 C   0  0  0  0  0  0  0  0  0  0  0  0
   25.2570   32.5040   15.9040 C   0  0  2  0  0  0  0  0  0  0  0  0
   26.4720   31.7300   15.4300 C   0  0  1  0  0  0  0  0  0  0  0  0
   27.6560   31.9160   16.3250 C   0  0  2  0  0  0  0  0  0  0  0  0
   29.5860   33.1860   16.5150 C   0  0  2  0  0  0  0  0  0  0  0  0
   29.7290   32.3110   17.7500 C   0  0  0  0  0  0  0  0  0  0  0  0
   28.6560   32.5870   15.6620 O   0  0  0  0  0  0  0  0  0  0  0  0
   29.6300   30.8720   17.2850 C   0  0  1  0  0  0  0  0  0  0  0  0
   28.1700   30.6360   16.9220 C   0  0  1  0  0  0  0  0  0  0  0  0
   30.8410   33.2410   15.9200 O   0  0  0  0  0  0  0  0  0  0  0  0
   31.4470   33.7240   16.5630 H   0  0  0  0  0  0  0  0  0  0  0  0
   29.1570   34.5490   16.8500 C   0  0  0  0  0  0  0  0  0  0  0  0
   29.2300   34.9910   18.0240 O   0  0  0  0  0  0  0  0  0  0  0  0
   28.6560   35.3940   15.8740 O   0  0  0  0  0  0  0  0  0  0  0  0
   27.6490   35.4850   15.6900 H   0  0  0  0  0  0  0  0  0  0  0  0
   30.4220   30.7640   16.1300 O   0  0  0  0  0  0  0  0  0  0  0  0
   31.3620   30.9290   16.4070 H   0  0  0  0  0  0  0  0  0  0  0  0
   27.4480   30.2630   18.1230 N   0  0  0  0  0  0  0  0  0  0  0  0
   26.9430   28.9550   18.2880 C   0  0  0  0  0  0  0  0  0  0  0  0
   27.2980   30.9580   18.8750 H   0  0  0  0  0  0  0  0  0  0  0  0
   26.1970   28.5050   19.4900 C   0  0  0  0  0  0  0  0  0  0  0  0
   27.1340   28.1270   17.3690 O   0  0  0  0  0  0  0  0  0  0  0  0
   26.1190   30.3800   15.4620 O   0  0  0  0  0  0  0  0  0  0  0  0
   26.8540   29.7870   15.7130 H   0  0  0  0  0  0  0  0  0  0  0  0
   24.1330   32.0510   15.2540 O   0  0  0  0  0  0  0  0  0  0  0  0
   23.5850   31.5090   15.8830 H   0  0  0  0  0  0  0  0  0  0  0  0
   26.2090   34.2220   14.3810 N   0  0  0  0  0  0  0  0  0  0  0  0
   25.6030   34.4360   13.1380 C   0  0  0  0  0  0  0  0  0  0  0  0
   27.2770   34.2610   14.4270 H   0  0  0  0  0  0  0  0  0  0  0  0
   24.3560   34.3930   13.0290 O   0  0  0  0  0  0  0  0  0  0  0  0
   26.3880   34.7020   12.0000 O   0  0  0  0  0  0  0  0  0  0  0  0
   27.1700   35.8820   12.0140 C   0  0  0  0  0  0  0  0  0  0  0  0
   28.5240   35.5370   12.4990 C   0  0  0  0  0  0  0  0  0  0  0  0
   29.5470   36.4630   12.6490 C   0  0  0  0  0  0  0  0  0  0  0  0
   29.0330   34.3680   12.8700 N   0  0  0  0  0  0  0  0  0  0  0  0
   30.6190   35.8130   13.1010 N   0  0  0  0  0  0  0  0  0  0  0  0
   30.2940   34.5410   13.2300 N   0  0  0  0  0  0  0  0  0  0  0  0
   31.8970   36.4570   13.3820 C   0  0  0  0  0  0  0  0  0  0  0  0
   32.0110   36.6120   14.8720 C   0  0  0  0  0  0  0  0  0  0  0  0
   33.0140   35.5360   12.9440 C   0  0  0  0  0  0  0  0  0  0  0  0
   33.2740   35.9260   15.2810 C   0  0  0  0  0  0  0  0  0  0  0  0
   33.4730   34.8700   14.2290 C   0  0  0  0  0  0  0  0  0  0  0  0
   29.8670   25.5550   16.9770 C   0  0  0  0  0  0  0  0  0  0  0  0
   28.3450   25.7220   17.0260 C   0  0  0  0  0  0  0  0  0  0  0  0
   27.6010   24.4020   16.8920 C   0  0  0  0  0  0  0  0  0  0  0  0
   26.1510   24.5280   17.2680 C   0  0  0  0  0  0  0  0  0  0  0  0
   26.0350   24.7790   18.7680 C   0  0  0  0  0  0  0  0  0  0  0  0
   25.5250   23.5710   19.4580 N   0  0  0  0  0  0  0  0  0  0  0  0
  2  1  1  6  0  0  0
  3 23  1  1  0  0  0
  3  2  1  0  0  0  0
  4  3  1  6  0  0  0
  4  9  1  0  0  0  0
  5 10  1  6  0  0  0
  5 12  1  0  0  0  0
  5  6  1  0  0  0  0
  7  4  1  0  0  0  0
  7  5  1  0  0  0  0
  8 16  1  6  0  0  0
  8  6  1  0  0  0  0
  9  8  1  0  0  0  0
  9 18  1  1  0  0  0
 10 11  1  0  0  0  0
 12 13  2  0  0  0  0
 14 12  1  0  0  0  0
 15 14  1  0  0  0  0
 16 17  1  0  0  0  0
 18 19  1  0  0  0  0
 18 20  1  0  0  0  0
 19 21  1  0  0  0  0
 22 19  2  0  0  0  0
 23 24  1  0  0  0  0
 25 26  1  0  0  0  0
 25  2  1  0  0  0  0
 27 29  1  0  0  0  0
 27  1  1  0  0  0  0
 28 27  1  0  0  0  0
 30 28  2  0  0  0  0
 31 32  1  0  0  0  0
 31 28  1  0  0  0  0
 32 33  1  0  0  0  0
 33 34  2  0  0  0  0
 33 35  1  0  0  0  0
 34 36  1  0  0  0  0
 35 37  2  0  0  0  0
 36 37  1  0  0  0  0
 36 38  1  0  0  0  0
 38 39  1  0  0  0  0
 39 41  1  0  0  0  0
 40 38  1  0  0  0  0
 40 42  1  0  0  0  0
 42 41  1  0  0  0  0
 43 44  1  0  0  0  0
 45 44  1  0  0  0  0
 45 46  1  0  0  0  0
 46 47  1  0  0  0  0
 47 48  1  0  0  0  0
M  END
>  <REMARK>
 VINA RESULT:    -5.174      2.556      6.628
 INTER + INTRA:         -13.981
 INTER:                  -7.303
 INTRA:                  -6.678
 UNBOUND:                -5.026
 SMILES CC(=O)N[C@@H]1[C@@H](O)C[C@](O)(C(=O)O)O[C@H]1C(O)[C@H](O)CNC(=O)OCc1cn(C2CCCC2)nn1
 SMILES IDX 20 1 18 2 16 3 15 4 9 5 8 6 14 7 6 8 5 9 10 10 11 12 12 13
 SMILES IDX 13 14 7 16 4 18 2 19 1 21 3 22 17 23 19 25 21 27 22 28 23 30
 SMILES IDX 24 31 25 32 26 33 27 34 35 35 28 36 34 37 29 38 30 39 33 40
 SMILES IDX 31 41 32 42
 H PARENT 10 11 13 15 7 17 4 20 17 24 19 26 21 29
 Flexibility Score: inf
  4 active torsions:
  status: ('A' for Active; 'I' for Inactive)
    1  A    between atoms: CA   and  CB  
    2  A    between atoms: CB   and  CG  
    3  A    between atoms: CG   and  CD  
    4  A    between atoms: CD   and  CE  

>  <TORSDO>
F 15

>  <BEGIN_>
RES LYS A 131

$$$$
ligand_49_pose_7_2HRL.pdbqt
 OpenBabel07062320523D

  6  5  0  0  0  0  0  0  0  0999 V2000
   33.1930   34.6630    9.2900 C   0  0  0  0  0  0  0  0  0  0  0  0
   32.0600   35.3600   10.0340 C   0  0  0  0  0  0  0  0  0  0  0  0
   30.7910   35.4750    9.2290 C   0  0  0  0  0  0  0  0  0  0  0  0
   30.2590   34.0970    8.8660 C   0  0  0  0  0  0  0  0  0  0  0  0
   28.7770   34.0010    9.1710 C   0  0  0  0  0  0  0  0  0  0  0  0
   27.9710   34.7270    8.1510 N   0  0  0  0  0  0  0  0  0  0  0  0
  1  2  1  0  0  0  0
  3  2  1  0  0  0  0
  4  5  1  0  0  0  0
  4  3  1  0  0  0  0
  6  5  1  0  0  0  0
M  END
>  <EGIN_R>
ES LYS A 135

>  <REMARK>
  4 active torsions:
  status: ('A' for Active; 'I' for Inactive)
    5  A    between atoms: CA   and  CB  
    6  A    between atoms: CB   and  CG  
    7  A    between atoms: CG   and  CD  
    8  A    between atoms: CD   and  CE  

$$$$
