ligand_23_pose_4_2HRL.pdbqt
 OpenBabel07062320523D

 55 56  0  0  1  0  0  0  0  0999 V2000
   30.1600   36.3830   17.1980 N   0  0  0  0  0  0  0  0  0  0  0  0
   30.0550   37.6410   16.5500 C   0  0  0  0  0  0  0  0  0  0  0  0
   30.4590   38.6560   17.1420 O   0  0  0  0  0  0  0  0  0  0  0  0
   29.7990   35.5650   16.6360 H   0  0  0  0  0  0  0  0  0  0  0  0
   30.7130   36.2270   18.5180 C   0  0  0  0  0  0  0  0  0  0  0  0
   31.6440   35.0350   18.5790 C   0  0  2  0  0  0  0  0  0  0  0  0
   30.8230   33.7690   18.7820 C   0  0  1  0  0  0  0  0  0  0  0  0
   31.0330   32.8600   17.5740 C   0  0  2  0  0  0  0  0  0  0  0  0
   30.2030   33.4970   15.5050 C   0  0  2  0  0  0  0  0  0  0  0  0
   29.9390   32.0720   15.0770 C   0  0  0  0  0  0  0  0  0  0  0  0
   31.2100   33.5970   16.4440 O   0  0  0  0  0  0  0  0  0  0  0  0
   30.0580   31.0930   16.1950 C   0  0  1  0  0  0  0  0  0  0  0  0
   29.9260   31.8520   17.5160 C   0  0  1  0  0  0  0  0  0  0  0  0
   29.0510   34.1170   15.9810 O   0  0  0  0  0  0  0  0  0  0  0  0
   29.3150   34.7790   16.6940 H   0  0  0  0  0  0  0  0  0  0  0  0
   30.6470   34.2380   14.2950 C   0  0  0  0  0  0  0  0  0  0  0  0
   31.6800   34.9570   14.3030 O   0  0  0  0  0  0  0  0  0  0  0  0
   29.9410   34.1720   13.0920 O   0  0  0  0  0  0  0  0  0  0  0  0
   30.0180   33.3560   12.4960 H   0  0  0  0  0  0  0  0  0  0  0  0
   29.1480   30.0530   16.1370 O   0  0  0  0  0  0  0  0  0  0  0  0
   29.1950   29.4420   16.9260 H   0  0  0  0  0  0  0  0  0  0  0  0
   30.1210   30.9220   18.6160 N   0  0  0  0  0  0  0  0  0  0  0  0
   29.0300   30.3330   19.3200 C   0  0  0  0  0  0  0  0  0  0  0  0
   31.1080   30.6750   18.9020 H   0  0  0  0  0  0  0  0  0  0  0  0
   29.3480   29.3950   20.4280 C   0  0  0  0  0  0  0  0  0  0  0  0
   27.8760   30.6340   18.9700 O   0  0  0  0  0  0  0  0  0  0  0  0
   31.3140   33.1230   19.9020 O   0  0  0  0  0  0  0  0  0  0  0  0
   31.6800   33.7640   20.5560 H   0  0  0  0  0  0  0  0  0  0  0  0
   32.5140   35.2170   19.6690 O   0  0  0  0  0  0  0  0  0  0  0  0
   32.4230   36.1460   20.0480 H   0  0  0  0  0  0  0  0  0  0  0  0
   29.5110   37.7580   15.2670 O   0  0  0  0  0  0  0  0  0  0  0  0
   28.1140   37.7830   15.0630 C   0  0  0  0  0  0  0  0  0  0  0  0
   27.7300   36.7790   14.0390 C   0  0  0  0  0  0  0  0  0  0  0  0
   27.7640   36.9870   12.6740 C   0  0  0  0  0  0  0  0  0  0  0  0
   27.2920   35.5270   14.2170 N   0  0  0  0  0  0  0  0  0  0  0  0
   27.3420   35.8380   12.1220 N   0  0  0  0  0  0  0  0  0  0  0  0
   27.0520   34.9420   13.0530 N   0  0  0  0  0  0  0  0  0  0  0  0
   27.2150   35.5940   10.7230 C   0  0  0  0  0  0  0  0  0  0  0  0
   27.0090   36.6010    9.8060 C   0  0  0  0  0  0  0  0  0  0  0  0
   27.2970   34.3030   10.2280 C   0  0  0  0  0  0  0  0  0  0  0  0
   26.8850   36.3540    8.4400 C   0  0  0  0  0  0  0  0  0  0  0  0
   27.1790   34.0350    8.8920 C   0  0  0  0  0  0  0  0  0  0  0  0
   26.9740   35.0610    8.0010 C   0  0  0  0  0  0  0  0  0  0  0  0
   26.6250   37.6260    7.2910 S   0  0  0  0  0  0  0  0  0  0  0  0
   27.5510   38.7660    7.6310 O   0  0  0  0  0  0  0  0  0  0  0  0
   25.2200   38.1580    7.4440 O   0  0  0  0  0  0  0  0  0  0  0  0
   26.9370   37.1080    5.6840 N   0  0  0  0  0  0  0  0  0  0  0  0
   26.9060   36.0740    5.6380 H   0  0  0  0  0  0  0  0  0  0  0  0
   27.8350   37.4790    5.3120 H   0  0  0  0  0  0  0  0  0  0  0  0
   29.8670   25.5550   16.9770 C   0  0  0  0  0  0  0  0  0  0  0  0
   28.3450   25.7220   17.0260 C   0  0  0  0  0  0  0  0  0  0  0  0
   27.5990   24.4250   16.7530 C   0  0  0  0  0  0  0  0  0  0  0  0
   26.9140   23.8960   17.9820 C   0  0  0  0  0  0  0  0  0  0  0  0
   25.5450   23.3410   17.6030 C   0  0  0  0  0  0  0  0  0  0  0  0
   24.7500   24.3670   16.8880 N   0  0  0  0  0  0  0  0  0  0  0  0
  1  5  1  0  0  0  0
  2  3  2  0  0  0  0
  2  1  1  0  0  0  0
  4  1  1  0  0  0  0
  6  5  1  1  0  0  0
  6  7  1  0  0  0  0
  6 29  1  0  0  0  0
  7 27  1  1  0  0  0
  8  7  1  1  0  0  0
  9 16  1  6  0  0  0
  9 14  1  0  0  0  0
  9 11  1  0  0  0  0
 10  9  1  0  0  0  0
 10 12  1  0  0  0  0
 11  8  1  0  0  0  0
 12 20  1  6  0  0  0
 12 13  1  0  0  0  0
 13  8  1  0  0  0  0
 13 22  1  1  0  0  0
 14 15  1  0  0  0  0
 16 17  2  0  0  0  0
 18 16  1  0  0  0  0
 19 18  1  0  0  0  0
 20 21  1  0  0  0  0
 22 24  1  0  0  0  0
 22 23  1  0  0  0  0
 23 25  1  0  0  0  0
 26 23  2  0  0  0  0
 27 28  1  0  0  0  0
 29 30  1  0  0  0  0
 31  2  1  0  0  0  0
 32 31  1  0  0  0  0
 33 35  1  0  0  0  0
 33 32  1  0  0  0  0
 34 33  2  0  0  0  0
 36 34  1  0  0  0  0
 36 37  1  0  0  0  0
 37 35  2  0  0  0  0
 38 36  1  0  0  0  0
 39 38  2  0  0  0  0
 40 38  1  0  0  0  0
 41 39  1  0  0  0  0
 42 40  2  0  0  0  0
 43 41  2  0  0  0  0
 43 42  1  0  0  0  0
 44 46  2  0  0  0  0
 44 45  2  0  0  0  0
 44 41  1  0  0  0  0
 47 44  1  0  0  0  0
 48 47  1  0  0  0  0
 49 47  1  0  0  0  0
 50 51  1  0  0  0  0
 52 51  1  0  0  0  0
 52 53  1  0  0  0  0
 54 53  1  0  0  0  0
 55 54  1  0  0  0  0
M  END
>  <REMARK>
 VINA RESULT:    -4.633      3.457      9.436
 INTER + INTRA:         -15.049
 INTER:                  -9.288
 INTRA:                  -5.761
 UNBOUND:                -6.624
 SMILES CC(=O)N[C@@H]1[C@@H](O)C[C@](O)(C(=O)O)O[C@H]1C(O)[C@H](O)CNC(=O)OCc1cn(-c2cccc(S(N)(=O)=O)c2)nn1
 SMILES IDX 21 1 22 2 23 3 20 5 18 6 16 7 15 8 9 9 8 10 14 11 6 12 5 13
 SMILES IDX 10 14 11 16 12 17 13 18 7 20 4 22 2 23 1 25 3 26 17 27 19 29
 SMILES IDX 24 31 25 32 26 33 27 34 40 35 28 36 39 37 29 38 38 39 30 40
 SMILES IDX 33 41 31 42 32 43 34 44 36 45 37 46 35 47
 H PARENT 21 4 10 15 13 19 7 21 4 24 17 28 19 30 35 48 35 49
 Flexibility Score: inf
  4 active torsions:
  status: ('A' for Active; 'I' for Inactive)
    1  A    between atoms: CA   and  CB  
    2  A    between atoms: CB   and  CG  
    3  A    between atoms: CG   and  CD  
    4  A    between atoms: CD   and  CE  

>  <TORSDO>
F 17

>  <BEGIN_>
RES LYS A 131

$$$$
ligand_23_pose_4_2HRL.pdbqt
 OpenBabel07062320523D

  6  5  0  0  0  0  0  0  0  0999 V2000
   33.1930   34.6630    9.2900 C   0  0  0  0  0  0  0  0  0  0  0  0
   32.0600   35.3600   10.0340 C   0  0  0  0  0  0  0  0  0  0  0  0
   30.7560   35.3630    9.2790 C   0  0  0  0  0  0  0  0  0  0  0  0
   30.4300   36.7600    8.7760 C   0  0  0  0  0  0  0  0  0  0  0  0
   31.0060   37.8100    9.7070 C   0  0  0  0  0  0  0  0  0  0  0  0
   29.9380   38.7020   10.2370 N   0  0  0  0  0  0  0  0  0  0  0  0
  1  2  1  0  0  0  0
  3  2  1  0  0  0  0
  4  3  1  0  0  0  0
  4  5  1  0  0  0  0
  5  6  1  0  0  0  0
M  END
>  <EGIN_R>
ES LYS A 135

>  <REMARK>
  4 active torsions:
  status: ('A' for Active; 'I' for Inactive)
    5  A    between atoms: CA   and  CB  
    6  A    between atoms: CB   and  CG  
    7  A    between atoms: CG   and  CD  
    8  A    between atoms: CD   and  CE  

$$$$
