ligand_19_pose_5_2HRL.pdbqt
 OpenBabel07062320523D

 49 49  0  0  1  0  0  0  0  0999 V2000
   25.4540   33.8730   14.3040 N   0  0  0  0  0  0  0  0  0  0  0  0
   24.8530   35.0340   13.7680 C   0  0  0  0  0  0  0  0  0  0  0  0
   24.5300   35.9750   14.5070 O   0  0  0  0  0  0  0  0  0  0  0  0
   25.6940   33.1170   13.6050 H   0  0  0  0  0  0  0  0  0  0  0  0
   25.7540   33.6670   15.7050 C   0  0  0  0  0  0  0  0  0  0  0  0
   26.9460   32.8080   15.8970 C   0  0  2  0  0  0  0  0  0  0  0  0
   28.2810   33.4310   15.5560 C   0  0  2  0  0  0  0  0  0  0  0  0
   29.2420   33.5410   16.7010 C   0  0  2  0  0  0  0  0  0  0  0  0
   31.0730   33.7010   15.2750 C   0  0  2  0  0  0  0  0  0  0  0  0
   31.1400   32.2250   15.2040 C   0  0  0  0  0  0  0  0  0  0  0  0
   30.3980   34.2320   16.3420 O   0  0  0  0  0  0  0  0  0  0  0  0
   30.5200   31.4700   16.3230 C   0  0  1  0  0  0  0  0  0  0  0  0
   29.7200   32.2580   17.3010 C   0  0  1  0  0  0  0  0  0  0  0  0
   30.4760   34.2560   14.1160 O   0  0  0  0  0  0  0  0  0  0  0  0
   30.6520   33.7010   13.3200 H   0  0  0  0  0  0  0  0  0  0  0  0
   32.4430   34.2860   15.3040 C   0  0  0  0  0  0  0  0  0  0  0  0
   32.8730   34.9050   16.3370 O   0  0  0  0  0  0  0  0  0  0  0  0
   33.3370   34.2090   14.2480 O   0  0  0  0  0  0  0  0  0  0  0  0
   32.9410   34.1710   13.3020 H   0  0  0  0  0  0  0  0  0  0  0  0
   29.6870   30.4890   15.7750 O   0  0  0  0  0  0  0  0  0  0  0  0
   28.7890   30.4910   16.2290 H   0  0  0  0  0  0  0  0  0  0  0  0
   30.4330   32.6030   18.5090 N   0  0  0  0  0  0  0  0  0  0  0  0
   30.5140   31.7570   19.6200 C   0  0  0  0  0  0  0  0  0  0  0  0
   30.8990   33.5290   18.5310 H   0  0  0  0  0  0  0  0  0  0  0  0
   31.2410   32.0850   20.8730 C   0  0  0  0  0  0  0  0  0  0  0  0
   29.9320   30.6580   19.5410 O   0  0  0  0  0  0  0  0  0  0  0  0
   27.9200   34.8110   15.3070 O   0  0  0  0  0  0  0  0  0  0  0  0
   27.3890   34.7380   14.4560 H   0  0  0  0  0  0  0  0  0  0  0  0
   26.8550   31.4920   15.5580 O   0  0  0  0  0  0  0  0  0  0  0  0
   26.9050   31.3300   14.6040 H   0  0  0  0  0  0  0  0  0  0  0  0
   24.6140   35.1350   12.3790 O   0  0  0  0  0  0  0  0  0  0  0  0
   25.5540   34.5860   11.4560 C   0  0  0  0  0  0  0  0  0  0  0  0
   26.8540   35.2460   11.6880 C   0  0  0  0  0  0  0  0  0  0  0  0
   27.1750   36.5510   11.3520 C   0  0  0  0  0  0  0  0  0  0  0  0
   27.9540   34.7250   12.2490 N   0  0  0  0  0  0  0  0  0  0  0  0
   28.4470   36.7640   11.7200 N   0  0  0  0  0  0  0  0  0  0  0  0
   28.8920   35.6510   12.2570 N   0  0  0  0  0  0  0  0  0  0  0  0
   29.1580   38.0100   11.5420 C   0  0  0  0  0  0  0  0  0  0  0  0
   29.2480   38.7040   12.8800 C   0  0  0  0  0  0  0  0  0  0  0  0
   30.4640   38.3900   13.4950 O   0  0  0  0  0  0  0  0  0  0  0  0
   30.5160   37.8250   14.7350 C   0  0  0  0  0  0  0  0  0  0  0  0
   29.6170   37.0650   15.1400 O   0  0  0  0  0  0  0  0  0  0  0  0
   31.6740   38.1080   15.6530 C   0  0  0  0  0  0  0  0  0  0  0  0
   29.8670   25.5550   16.9770 C   0  0  0  0  0  0  0  0  0  0  0  0
   28.3450   25.7220   17.0260 C   0  0  0  0  0  0  0  0  0  0  0  0
   27.5990   24.4750   16.5750 C   0  0  0  0  0  0  0  0  0  0  0  0
   27.0290   23.7060   17.7350 C   0  0  0  0  0  0  0  0  0  0  0  0
   25.6890   24.3130   18.1390 C   0  0  0  0  0  0  0  0  0  0  0  0
   24.7590   24.3320   16.9850 N   0  0  0  0  0  0  0  0  0  0  0  0
  1  5  1  0  0  0  0
  2  1  1  0  0  0  0
  2  3  2  0  0  0  0
  4  1  1  0  0  0  0
  6  5  1  6  0  0  0
  7 27  1  1  0  0  0
  7  6  1  0  0  0  0
  8  7  1  6  0  0  0
  8 13  1  0  0  0  0
  9 14  1  6  0  0  0
  9 16  1  0  0  0  0
  9 11  1  0  0  0  0
 10  9  1  0  0  0  0
 10 12  1  0  0  0  0
 11  8  1  0  0  0  0
 12 20  1  6  0  0  0
 12 13  1  0  0  0  0
 13 22  1  1  0  0  0
 15 14  1  0  0  0  0
 16 17  2  0  0  0  0
 18 16  1  0  0  0  0
 19 18  1  0  0  0  0
 20 21  1  0  0  0  0
 22 24  1  0  0  0  0
 22 23  1  0  0  0  0
 23 25  1  0  0  0  0
 26 23  2  0  0  0  0
 28 27  1  0  0  0  0
 29  6  1  0  0  0  0
 30 29  1  0  0  0  0
 31  2  1  0  0  0  0
 32 33  1  0  0  0  0
 32 31  1  0  0  0  0
 33 35  1  0  0  0  0
 34 33  2  0  0  0  0
 34 36  1  0  0  0  0
 35 37  2  0  0  0  0
 36 37  1  0  0  0  0
 38 36  1  0  0  0  0
 38 39  1  0  0  0  0
 39 40  1  0  0  0  0
 40 41  1  0  0  0  0
 41 42  2  0  0  0  0
 41 43  1  0  0  0  0
 44 45  1  0  0  0  0
 46 45  1  0  0  0  0
 46 47  1  0  0  0  0
 47 48  1  0  0  0  0
 49 48  1  0  0  0  0
M  END
>  <REMARK>
 VINA RESULT:    -4.281      2.083      4.868
 INTER + INTRA:         -14.220
 INTER:                  -7.174
 INTRA:                  -7.046
 UNBOUND:                -6.059
 SMILES CC(=O)N[C@@H]1[C@@H](O)C[C@](O)(C(=O)O)O[C@H]1C(O)[C@H](O)CNC(=O)OCc1cn(CCOC(C)=O)nn1
 SMILES IDX 21 1 22 2 23 3 20 5 18 6 16 7 15 8 9 9 8 10 14 11 6 12 5 13
 SMILES IDX 10 14 11 16 12 17 13 18 7 20 4 22 2 23 1 25 3 26 17 27 19 29
 SMILES IDX 24 31 25 32 26 33 27 34 36 35 28 36 35 37 29 38 30 39 31 40
 SMILES IDX 32 41 34 42 33 43
 H PARENT 21 4 10 15 13 19 7 21 4 24 17 28 19 30
 Flexibility Score: inf
  4 active torsions:
  status: ('A' for Active; 'I' for Inactive)
    1  A    between atoms: CA   and  CB  
    2  A    between atoms: CB   and  CG  
    3  A    between atoms: CG   and  CD  
    4  A    between atoms: CD   and  CE  

>  <TORSDO>
F 18

>  <BEGIN_>
RES LYS A 131

$$$$
ligand_19_pose_5_2HRL.pdbqt
 OpenBabel07062320523D

  6  5  0  0  0  0  0  0  0  0999 V2000
   33.1930   34.6630    9.2900 C   0  0  0  0  0  0  0  0  0  0  0  0
   32.0600   35.3600   10.0340 C   0  0  0  0  0  0  0  0  0  0  0  0
   30.8060   35.5170    9.2120 C   0  0  0  0  0  0  0  0  0  0  0  0
   30.0920   34.1830    9.0640 C   0  0  0  0  0  0  0  0  0  0  0  0
   28.6640   34.3920    8.5970 C   0  0  0  0  0  0  0  0  0  0  0  0
   28.4740   35.7640    8.0500 N   0  0  0  0  0  0  0  0  0  0  0  0
  1  2  1  0  0  0  0
  3  2  1  0  0  0  0
  4  3  1  0  0  0  0
  5  4  1  0  0  0  0
  6  5  1  0  0  0  0
M  END
>  <EGIN_R>
ES LYS A 135

>  <REMARK>
  4 active torsions:
  status: ('A' for Active; 'I' for Inactive)
    5  A    between atoms: CA   and  CB  
    6  A    between atoms: CB   and  CG  
    7  A    between atoms: CG   and  CD  
    8  A    between atoms: CD   and  CE  

$$$$
