ligand_18_pose_7_2HRL.pdbqt
 OpenBabel07062320523D

 54 55  0  0  1  0  0  0  0  0999 V2000
   25.1340   35.9040   13.1360 N   0  0  0  0  0  0  0  0  0  0  0  0
   25.6000   36.9730   13.9280 C   0  0  0  0  0  0  0  0  0  0  0  0
   24.7610   37.7780   14.4010 O   0  0  0  0  0  0  0  0  0  0  0  0
   25.8490   35.2470   12.7530 H   0  0  0  0  0  0  0  0  0  0  0  0
   23.7430   35.6480   12.8180 C   0  0  0  0  0  0  0  0  0  0  0  0
   23.6200   34.8480   11.5510 C   0  0  2  0  0  0  0  0  0  0  0  0
   24.0620   35.5590   10.3180 C   0  0  1  0  0  0  0  0  0  0  0  0
   23.1230   36.5170    9.6880 C   0  0  2  0  0  0  0  0  0  0  0  0
   21.4780   36.4620    8.0250 C   0  0  2  0  0  0  0  0  0  0  0  0
   21.1920   37.8280    8.6200 C   0  0  0  0  0  0  0  0  0  0  0  0
   22.4190   35.7470    8.7040 O   0  0  0  0  0  0  0  0  0  0  0  0
   22.4670   38.5990    8.6350 C   0  0  1  0  0  0  0  0  0  0  0  0
   23.6600   37.6730    8.9480 C   0  0  1  0  0  0  0  0  0  0  0  0
   21.8500   36.7100    6.6900 O   0  0  0  0  0  0  0  0  0  0  0  0
   21.0720   37.1180    6.2180 H   0  0  0  0  0  0  0  0  0  0  0  0
   20.2380   35.6440    7.9900 C   0  0  0  0  0  0  0  0  0  0  0  0
   19.1760   36.1360    8.4230 O   0  0  0  0  0  0  0  0  0  0  0  0
   20.2240   34.3460    7.4880 O   0  0  0  0  0  0  0  0  0  0  0  0
   21.1310   33.8830    7.4160 H   0  0  0  0  0  0  0  0  0  0  0  0
   22.6970   39.3250    7.4870 O   0  0  0  0  0  0  0  0  0  0  0  0
   22.6810   38.7450    6.6850 H   0  0  0  0  0  0  0  0  0  0  0  0
   24.6270   38.5000    9.5670 N   0  0  0  0  0  0  0  0  0  0  0  0
   25.6560   39.0870    8.8020 C   0  0  0  0  0  0  0  0  0  0  0  0
   24.6090   38.6950   10.5780 H   0  0  0  0  0  0  0  0  0  0  0  0
   26.7020   39.9660    9.4120 C   0  0  0  0  0  0  0  0  0  0  0  0
   25.7610   38.9050    7.5430 O   0  0  0  0  0  0  0  0  0  0  0  0
   25.4060   35.9040   10.2820 O   0  0  0  0  0  0  0  0  0  0  0  0
   25.9230   35.4430    9.6100 H   0  0  0  0  0  0  0  0  0  0  0  0
   22.4030   34.1940   11.4040 O   0  0  0  0  0  0  0  0  0  0  0  0
   21.6810   34.5930   11.9420 H   0  0  0  0  0  0  0  0  0  0  0  0
   26.9600   37.1670   14.2060 O   0  0  0  0  0  0  0  0  0  0  0  0
   27.8900   36.1140   14.0270 C   0  0  0  0  0  0  0  0  0  0  0  0
   28.1620   35.9830   12.5680 C   0  0  0  0  0  0  0  0  0  0  0  0
   28.4890   34.8440   11.8610 C   0  0  0  0  0  0  0  0  0  0  0  0
   28.1430   36.9600   11.6470 N   0  0  0  0  0  0  0  0  0  0  0  0
   28.6530   35.1620   10.5680 N   0  0  0  0  0  0  0  0  0  0  0  0
   28.4370   36.4550   10.4650 N   0  0  0  0  0  0  0  0  0  0  0  0
   29.0030   34.2030    9.5080 C   0  0  0  0  0  0  0  0  0  0  0  0
   28.3260   34.6700    8.2750 C   0  0  0  0  0  0  0  0  0  0  0  0
   27.0740   34.4580    8.1540 O   0  0  0  0  0  0  0  0  0  0  0  0
   28.9580   35.3410    7.2020 N   0  0  0  0  0  0  0  0  0  0  0  0
   29.9750   35.5120    7.3010 H   0  0  0  0  0  0  0  0  0  0  0  0
   28.2580   35.7810    6.0180 C   0  0  0  0  0  0  0  0  0  0  0  0
   28.4390   37.2840    5.9450 C   0  0  0  0  0  0  0  0  0  0  0  0
   28.0180   38.1460    5.0270 C   0  0  0  0  0  0  0  0  0  0  0  0
   29.2820   38.2630    7.1000 S   0  0  0  0  0  0  0  0  0  0  0  0
   28.2880   39.4640    5.1440 C   0  0  0  0  0  0  0  0  0  0  0  0
   29.0260   39.8340    6.2780 C   0  0  0  0  0  0  0  0  0  0  0  0
   29.8670   25.5550   16.9770 C   0  0  0  0  0  0  0  0  0  0  0  0
   28.3450   25.7220   17.0260 C   0  0  0  0  0  0  0  0  0  0  0  0
   27.6030   24.3960   16.9640 C   0  0  0  0  0  0  0  0  0  0  0  0
   26.4760   24.3300   17.9560 C   0  0  0  0  0  0  0  0  0  0  0  0
   25.3690   23.4330   17.4120 C   0  0  0  0  0  0  0  0  0  0  0  0
   24.1970   24.2440   17.0040 N   0  0  0  0  0  0  0  0  0  0  0  0
  1  2  1  0  0  0  0
  2 31  1  0  0  0  0
  2  3  2  0  0  0  0
  4  1  1  0  0  0  0
  5  1  1  0  0  0  0
  6  5  1  1  0  0  0
  7 27  1  1  0  0  0
  7  6  1  0  0  0  0
  8  7  1  6  0  0  0
  9 14  1  6  0  0  0
  9 10  1  0  0  0  0
  9 11  1  0  0  0  0
 10 12  1  0  0  0  0
 11  8  1  0  0  0  0
 12 20  1  6  0  0  0
 12 13  1  0  0  0  0
 13 22  1  1  0  0  0
 13  8  1  0  0  0  0
 15 14  1  0  0  0  0
 16  9  1  0  0  0  0
 16 17  2  0  0  0  0
 18 16  1  0  0  0  0
 19 18  1  0  0  0  0
 21 20  1  0  0  0  0
 22 24  1  0  0  0  0
 23 25  1  0  0  0  0
 23 22  1  0  0  0  0
 26 23  2  0  0  0  0
 28 27  1  0  0  0  0
 29  6  1  0  0  0  0
 29 30  1  0  0  0  0
 32 31  1  0  0  0  0
 33 32  1  0  0  0  0
 34 33  2  0  0  0  0
 35 33  1  0  0  0  0
 36 34  1  0  0  0  0
 37 36  1  0  0  0  0
 37 35  2  0  0  0  0
 38 36  1  0  0  0  0
 39 38  1  0  0  0  0
 40 39  2  0  0  0  0
 41 42  1  0  0  0  0
 41 39  1  0  0  0  0
 43 41  1  0  0  0  0
 44 43  1  0  0  0  0
 44 46  1  0  0  0  0
 45 47  1  0  0  0  0
 45 44  2  0  0  0  0
 47 48  2  0  0  0  0
 48 46  1  0  0  0  0
 49 50  1  0  0  0  0
 51 50  1  0  0  0  0
 51 52  1  0  0  0  0
 53 52  1  0  0  0  0
 54 53  1  0  0  0  0
M  END
>  <REMARK>
 VINA RESULT:    -4.432      3.363      6.535
 INTER + INTRA:         -15.235
 INTER:                  -9.770
 INTRA:                  -5.465
 UNBOUND:                -6.788
 SMILES CC(=O)N[C@@H]1[C@@H](O)C[C@](O)(C(=O)O)O[C@H]1C(O)[C@H](O)CNC(=O)OCc1cn(CC(=O)NCc2cccs2)nn1
 SMILES IDX 21 1 22 2 23 3 20 5 18 6 16 7 15 8 9 9 8 10 14 11 6 12 5 13
 SMILES IDX 10 14 11 16 12 17 13 18 7 20 4 22 2 23 1 25 3 26 17 27 19 29
 SMILES IDX 24 31 25 32 26 33 27 34 40 35 28 36 39 37 29 38 30 39 31 40
 SMILES IDX 32 41 33 43 34 44 35 45 38 46 36 47 37 48
 H PARENT 21 4 10 15 13 19 7 21 4 24 17 28 19 30 32 42
 Flexibility Score: inf
  4 active torsions:
  status: ('A' for Active; 'I' for Inactive)
    1  A    between atoms: CA   and  CB  
    2  A    between atoms: CB   and  CG  
    3  A    between atoms: CG   and  CD  
    4  A    between atoms: CD   and  CE  

>  <TORSDO>
F 18

>  <BEGIN_>
RES LYS A 131

$$$$
ligand_18_pose_7_2HRL.pdbqt
 OpenBabel07062320523D

  6  5  0  0  0  0  0  0  0  0999 V2000
   33.1930   34.6630    9.2900 C   0  0  0  0  0  0  0  0  0  0  0  0
   32.0600   35.3600   10.0340 C   0  0  0  0  0  0  0  0  0  0  0  0
   32.3820   35.6640   11.4740 C   0  0  0  0  0  0  0  0  0  0  0  0
   31.9440   37.0740   11.8360 C   0  0  0  0  0  0  0  0  0  0  0  0
   31.8460   37.9370   10.5930 C   0  0  0  0  0  0  0  0  0  0  0  0
   30.8880   39.0590   10.7930 N   0  0  0  0  0  0  0  0  0  0  0  0
  1  2  1  0  0  0  0
  2  3  1  0  0  0  0
  3  4  1  0  0  0  0
  5  6  1  0  0  0  0
  5  4  1  0  0  0  0
M  END
>  <EGIN_R>
ES LYS A 135

>  <REMARK>
  4 active torsions:
  status: ('A' for Active; 'I' for Inactive)
    5  A    between atoms: CA   and  CB  
    6  A    between atoms: CB   and  CG  
    7  A    between atoms: CG   and  CD  
    8  A    between atoms: CD   and  CE  

$$$$
