ligand_54_pose_15_2HRL.pdbqt
 OpenBabel07062320523D

 52 52  0  0  1  0  0  0  0  0999 V2000
   30.8880   37.4100   17.2910 O   0  0  0  0  0  0  0  0  0  0  0  0
   30.0280   36.3340   17.0250 C   0  0  0  0  0  0  0  0  0  0  0  0
   29.8080   35.8650   15.7130 N   0  0  0  0  0  0  0  0  0  0  0  0
   30.3520   36.3800   14.9490 H   0  0  0  0  0  0  0  0  0  0  0  0
   29.4630   35.8050   17.9850 O   0  0  0  0  0  0  0  0  0  0  0  0
   28.9560   34.7960   15.3010 C   0  0  0  0  0  0  0  0  0  0  0  0
   29.7250   33.7280   14.5760 C   0  0  2  0  0  0  0  0  0  0  0  0
   29.3710   32.4130   15.2680 C   0  0  2  0  0  0  0  0  0  0  0  0
   29.0840   32.6080   16.7240 C   0  0  2  0  0  0  0  0  0  0  0  0
   29.9660   32.0080   18.7840 C   0  0  2  0  0  0  0  0  0  0  0  0
   28.6430   32.3440   19.3910 C   0  0  0  0  0  0  0  0  0  0  0  0
   30.1850   32.5540   17.5280 O   0  0  0  0  0  0  0  0  0  0  0  0
   27.4670   32.1880   18.4720 C   0  0  1  0  0  0  0  0  0  0  0  0
   27.9860   31.6430   17.1590 C   0  0  1  0  0  0  0  0  0  0  0  0
   30.1740   30.6270   18.7930 O   0  0  0  0  0  0  0  0  0  0  0  0
   29.4570   30.2330   19.3740 H   0  0  0  0  0  0  0  0  0  0  0  0
   31.0030   32.6080   19.6720 C   0  0  0  0  0  0  0  0  0  0  0  0
   31.4450   31.9850   20.6600 O   0  0  0  0  0  0  0  0  0  0  0  0
   31.4800   33.8990   19.3780 O   0  0  0  0  0  0  0  0  0  0  0  0
   30.7740   34.6340   19.3720 H   0  0  0  0  0  0  0  0  0  0  0  0
   26.4480   31.4090   19.0070 O   0  0  0  0  0  0  0  0  0  0  0  0
   26.3600   31.6800   19.9570 H   0  0  0  0  0  0  0  0  0  0  0  0
   26.9700   31.6440   16.1270 N   0  0  0  0  0  0  0  0  0  0  0  0
   26.2310   30.4570   15.8770 C   0  0  0  0  0  0  0  0  0  0  0  0
   26.7390   32.4680   15.5460 H   0  0  0  0  0  0  0  0  0  0  0  0
   25.1780   30.3660   14.8460 C   0  0  0  0  0  0  0  0  0  0  0  0
   26.4860   29.4320   16.5670 O   0  0  0  0  0  0  0  0  0  0  0  0
   30.3990   31.5110   15.0480 O   0  0  0  0  0  0  0  0  0  0  0  0
   30.2650   30.6490   15.5260 H   0  0  0  0  0  0  0  0  0  0  0  0
   31.0750   33.9080   14.7290 O   0  0  0  0  0  0  0  0  0  0  0  0
   31.3320   34.8580   14.8550 H   0  0  0  0  0  0  0  0  0  0  0  0
   31.7530   37.9060   16.2740 C   0  0  0  0  0  0  0  0  0  0  0  0
   32.9000   36.9930   16.1210 C   0  0  0  0  0  0  0  0  0  0  0  0
   34.0820   37.1570   16.8510 C   0  0  0  0  0  0  0  0  0  0  0  0
   33.1060   35.9220   15.3670 N   0  0  0  0  0  0  0  0  0  0  0  0
   34.9410   36.1780   16.5010 N   0  0  0  0  0  0  0  0  0  0  0  0
   34.3350   35.4480   15.6090 N   0  0  0  0  0  0  0  0  0  0  0  0
   36.2610   36.0360   17.0490 C   0  0  0  0  0  0  0  0  0  0  0  0
   37.3330   35.9290   15.9910 C   0  0  0  0  0  0  0  0  0  0  0  0
   38.3440   34.8660   16.2880 C   0  0  0  0  0  0  0  0  0  0  0  0
   38.1600   33.8260   15.3830 O   0  0  0  0  0  0  0  0  0  0  0  0
   38.2500   34.3050   14.0710 C   0  0  0  0  0  0  0  0  0  0  0  0
   37.7660   33.2850   13.0740 C   0  0  0  0  0  0  0  0  0  0  0  0
   38.2400   34.3720   17.5620 O   0  0  0  0  0  0  0  0  0  0  0  0
   38.6620   33.0450   17.6530 C   0  0  0  0  0  0  0  0  0  0  0  0
   38.6670   32.6340   19.1210 C   0  0  0  0  0  0  0  0  0  0  0  0
   29.8670   25.5550   16.9770 C   0  0  0  0  0  0  0  0  0  0  0  0
   28.3450   25.7220   17.0260 C   0  0  0  0  0  0  0  0  0  0  0  0
   27.6010   24.4030   16.8870 C   0  0  0  0  0  0  0  0  0  0  0  0
   26.6060   24.1940   17.9940 C   0  0  0  0  0  0  0  0  0  0  0  0
   25.3840   23.4620   17.4490 C   0  0  0  0  0  0  0  0  0  0  0  0
   24.4280   24.4230   16.8500 N   0  0  0  0  0  0  0  0  0  0  0  0
  2  1  1  0  0  0  0
  2  5  2  0  0  0  0
  3  2  1  0  0  0  0
  4  3  1  0  0  0  0
  6  3  1  0  0  0  0
  7 30  1  0  0  0  0
  7  8  1  0  0  0  0
  7  6  1  1  0  0  0
  8 28  1  1  0  0  0
  9  8  1  6  0  0  0
  9 14  1  0  0  0  0
  9 12  1  0  0  0  0
 10 15  1  6  0  0  0
 10 11  1  0  0  0  0
 10 17  1  0  0  0  0
 12 10  1  0  0  0  0
 13 21  1  1  0  0  0
 13 11  1  0  0  0  0
 14 23  1  6  0  0  0
 14 13  1  0  0  0  0
 15 16  1  0  0  0  0
 17 18  2  0  0  0  0
 19 17  1  0  0  0  0
 20 19  1  0  0  0  0
 21 22  1  0  0  0  0
 24 23  1  0  0  0  0
 24 27  2  0  0  0  0
 25 23  1  0  0  0  0
 26 24  1  0  0  0  0
 28 29  1  0  0  0  0
 30 31  1  0  0  0  0
 32  1  1  0  0  0  0
 33 32  1  0  0  0  0
 33 34  2  0  0  0  0
 35 37  2  0  0  0  0
 35 33  1  0  0  0  0
 36 34  1  0  0  0  0
 36 38  1  0  0  0  0
 37 36  1  0  0  0  0
 39 40  1  0  0  0  0
 39 38  1  0  0  0  0
 40 44  1  0  0  0  0
 41 40  1  0  0  0  0
 42 41  1  0  0  0  0
 43 42  1  0  0  0  0
 44 45  1  0  0  0  0
 45 46  1  0  0  0  0
 47 48  1  0  0  0  0
 49 48  1  0  0  0  0
 49 50  1  0  0  0  0
 51 50  1  0  0  0  0
 52 51  1  0  0  0  0
M  END
>  <REMARK>
 VINA RESULT:    -4.090      3.535      6.322
 INTER + INTRA:         -14.451
 INTER:                  -8.342
 INTRA:                  -6.109
 UNBOUND:                -5.938
 SMILES CCOC(CCn1cc(COC(=O)NC[C@@H](O)C(O)[C@@H]2O[C@@](O)(C(=O)O)C[C@H](O)[C@H]2NC(C)=O)nn1)OCC
 SMILES IDX 11 1 12 2 14 3 13 5 15 6 16 7 18 8 20 9 22 10 27 11 21 12
 SMILES IDX 28 13 30 14 23 15 24 17 25 18 26 19 29 21 31 23 32 24 33 26
 SMILES IDX 34 27 19 28 17 30 10 32 9 33 8 34 35 35 7 36 36 37 6 38 5 39
 SMILES IDX 4 40 3 41 2 42 1 43 37 44 38 45 39 46
 H PARENT 14 4 23 16 26 20 29 22 31 25 19 29 17 31
 Flexibility Score: inf
  4 active torsions:
  status: ('A' for Active; 'I' for Inactive)
    1  A    between atoms: CA   and  CB  
    2  A    between atoms: CB   and  CG  
    3  A    between atoms: CG   and  CD  
    4  A    between atoms: CD   and  CE  

>  <TORSDO>
F 21

>  <BEGIN_>
RES LYS A 131

$$$$
ligand_54_pose_15_2HRL.pdbqt
 OpenBabel07062320523D

  6  5  0  0  0  0  0  0  0  0999 V2000
   33.1930   34.6630    9.2900 C   0  0  0  0  0  0  0  0  0  0  0  0
   32.0600   35.3600   10.0340 C   0  0  0  0  0  0  0  0  0  0  0  0
   30.7270   34.6730    9.8820 C   0  0  0  0  0  0  0  0  0  0  0  0
   30.3120   34.6250    8.4200 C   0  0  0  0  0  0  0  0  0  0  0  0
   28.8030   34.5370    8.2980 C   0  0  0  0  0  0  0  0  0  0  0  0
   28.2110   33.8160    9.4590 N   0  0  0  0  0  0  0  0  0  0  0  0
  1  2  1  0  0  0  0
  3  2  1  0  0  0  0
  4  3  1  0  0  0  0
  5  4  1  0  0  0  0
  5  6  1  0  0  0  0
M  END
>  <EGIN_R>
ES LYS A 135

>  <REMARK>
  4 active torsions:
  status: ('A' for Active; 'I' for Inactive)
    5  A    between atoms: CA   and  CB  
    6  A    between atoms: CB   and  CG  
    7  A    between atoms: CG   and  CD  
    8  A    between atoms: CD   and  CE  

$$$$
