ligand_51_pose_7_2HRL.pdbqt
 OpenBabel07062320523D

 53 56  0  0  1  0  0  0  0  0999 V2000
   22.1590   35.8700    9.1060 C   0  0  0  0  0  0  0  0  0  0  0  0
   22.4800   36.6480    7.8560 C   0  0  2  0  0  0  0  0  0  0  0  0
   22.9920   38.0430    8.1520 C   0  0  1  0  0  0  0  0  0  0  0  0
   24.3810   38.2380    7.5350 C   0  0  2  0  0  0  0  0  0  0  0  0
   26.1220   37.8880    9.0660 C   0  0  2  0  0  0  0  0  0  0  0  0
   25.8070   39.2640    9.5950 C   0  0  0  0  0  0  0  0  0  0  0  0
   25.3240   37.4260    8.0770 O   0  0  0  0  0  0  0  0  0  0  0  0
   25.6560   40.2140    8.4580 C   0  0  1  0  0  0  0  0  0  0  0  0
   24.7500   39.6680    7.3870 C   0  0  1  0  0  0  0  0  0  0  0  0
   25.9530   37.0260   10.1750 O   0  0  0  0  0  0  0  0  0  0  0  0
   25.6800   36.1440    9.8100 H   0  0  0  0  0  0  0  0  0  0  0  0
   27.5680   37.8720    8.7300 C   0  0  0  0  0  0  0  0  0  0  0  0
   27.9850   37.6330    7.5640 O   0  0  0  0  0  0  0  0  0  0  0  0
   28.5030   38.1230    9.7100 O   0  0  0  0  0  0  0  0  0  0  0  0
   28.2480   38.3070   10.6820 H   0  0  0  0  0  0  0  0  0  0  0  0
   25.1730   41.4330    8.9860 O   0  0  0  0  0  0  0  0  0  0  0  0
   25.8140   41.7930    9.6350 H   0  0  0  0  0  0  0  0  0  0  0  0
   25.3700   39.8540    6.0820 N   0  0  0  0  0  0  0  0  0  0  0  0
   25.2830   41.0770    5.3660 C   0  0  0  0  0  0  0  0  0  0  0  0
   25.9100   39.0530    5.6410 H   0  0  0  0  0  0  0  0  0  0  0  0
   25.9400   41.1770    4.0550 C   0  0  0  0  0  0  0  0  0  0  0  0
   24.6380   42.0340    5.8910 O   0  0  0  0  0  0  0  0  0  0  0  0
   22.1190   39.0280    7.8020 O   0  0  0  0  0  0  0  0  0  0  0  0
   22.4940   39.8910    7.5720 H   0  0  0  0  0  0  0  0  0  0  0  0
   21.3340   36.6700    7.0660 O   0  0  0  0  0  0  0  0  0  0  0  0
   20.5970   36.1930    7.5660 H   0  0  0  0  0  0  0  0  0  0  0  0
   23.4250   35.5190    9.7260 N   0  0  0  0  0  0  0  0  0  0  0  0
   23.4960   34.9880   11.0590 C   0  0  0  0  0  0  0  0  0  0  0  0
   24.3490   35.6310    9.2470 H   0  0  0  0  0  0  0  0  0  0  0  0
   22.4150   34.8340   11.6780 O   0  0  0  0  0  0  0  0  0  0  0  0
   24.6850   34.6520   11.6590 O   0  0  0  0  0  0  0  0  0  0  0  0
   24.9510   35.1080   12.9660 C   0  0  0  0  0  0  0  0  0  0  0  0
   26.4230   34.9590   13.1980 C   0  0  0  0  0  0  0  0  0  0  0  0
   26.9740   34.3290   14.2990 C   0  0  0  0  0  0  0  0  0  0  0  0
   27.4570   35.3640   12.4660 N   0  0  0  0  0  0  0  0  0  0  0  0
   28.2930   34.3820   14.1840 N   0  0  0  0  0  0  0  0  0  0  0  0
   28.5750   35.0140   13.0650 N   0  0  0  0  0  0  0  0  0  0  0  0
   29.2340   33.8220   15.1580 C   0  0  2  0  0  0  0  0  0  0  0  0
   28.4930   32.6960   15.8670 C   0  0  0  0  0  0  0  0  0  0  0  0
   29.6680   34.8630   16.1430 C   0  0  0  0  0  0  0  0  0  0  0  0
   30.4470   33.2930   14.4330 C   0  0  0  0  0  0  0  0  0  0  0  0
   29.4210   32.0490   16.8770 C   0  0  1  0  0  0  0  0  0  0  0  0
   30.5470   34.1980   17.1780 C   0  0  1  0  0  0  0  0  0  0  0  0
   31.3660   32.6350   15.4380 C   0  0  2  0  0  0  0  0  0  0  0  0
   30.6200   31.5180   16.1460 C   0  0  0  0  0  0  0  0  0  0  0  0
   29.8060   33.1030   17.8850 C   0  0  0  0  0  0  0  0  0  0  0  0
   31.7680   33.6700   16.4600 C   0  0  0  0  0  0  0  0  0  0  0  0
   29.8670   25.5550   16.9770 C   0  0  0  0  0  0  0  0  0  0  0  0
   28.3450   25.7220   17.0260 C   0  0  0  0  0  0  0  0  0  0  0  0
   27.6000   24.4100   16.8340 C   0  0  0  0  0  0  0  0  0  0  0  0
   26.7450   24.0650   18.0220 C   0  0  0  0  0  0  0  0  0  0  0  0
   25.4230   23.4750   17.5430 C   0  0  0  0  0  0  0  0  0  0  0  0
   24.6300   24.4970   16.8190 N   0  0  0  0  0  0  0  0  0  0  0  0
  1 27  1  0  0  0  0
  2  3  1  0  0  0  0
  2  1  1  1  0  0  0
  3 23  1  6  0  0  0
  4  7  1  0  0  0  0
  4  3  1  1  0  0  0
  5 12  1  6  0  0  0
  5  6  1  0  0  0  0
  5 10  1  0  0  0  0
  7  5  1  0  0  0  0
  8 16  1  1  0  0  0
  8  6  1  0  0  0  0
  9 18  1  6  0  0  0
  9  4  1  0  0  0  0
  9  8  1  0  0  0  0
 11 10  1  0  0  0  0
 12 14  1  0  0  0  0
 13 12  2  0  0  0  0
 14 15  1  0  0  0  0
 16 17  1  0  0  0  0
 19 22  2  0  0  0  0
 19 18  1  0  0  0  0
 20 18  1  0  0  0  0
 21 19  1  0  0  0  0
 24 23  1  0  0  0  0
 25 26  1  0  0  0  0
 25  2  1  0  0  0  0
 27 28  1  0  0  0  0
 28 31  1  0  0  0  0
 28 30  2  0  0  0  0
 29 27  1  0  0  0  0
 31 32  1  0  0  0  0
 32 33  1  0  0  0  0
 33 34  2  0  0  0  0
 35 37  2  0  0  0  0
 35 33  1  0  0  0  0
 36 34  1  0  0  0  0
 37 36  1  0  0  0  0
 38 36  1  6  0  0  0
 38 39  1  0  0  0  0
 38 40  1  0  0  0  0
 41 38  1  0  0  0  0
 42 39  1  6  0  0  0
 42 46  1  0  0  0  0
 43 40  1  6  0  0  0
 43 46  1  0  0  0  0
 44 41  1  6  0  0  0
 44 45  1  0  0  0  0
 44 47  1  0  0  0  0
 45 42  1  0  0  0  0
 47 43  1  0  0  0  0
 48 49  1  0  0  0  0
 50 49  1  0  0  0  0
 50 51  1  0  0  0  0
 52 51  1  0  0  0  0
 53 52  1  0  0  0  0
M  END
>  <REMARK>
 VINA RESULT:    -4.901      7.157     12.829
 INTER + INTRA:         -15.037
 INTER:                  -9.323
 INTRA:                  -5.714
 UNBOUND:                -6.554
 SMILES CC(=O)N[C@@H]1[C@@H](O)C[C@](O)(C(=O)O)O[C@H]1C(O)[C@H](O)CNC(=O)OCc1cn(C23CC4CC(CC(C4)C2)C3)nn1
 SMILES IDX 20 1 18 2 16 3 15 4 9 5 8 6 14 7 6 8 5 9 10 10 11 12 12 13
 SMILES IDX 13 14 7 16 4 18 2 19 1 21 3 22 17 23 19 25 21 27 22 28 23 30
 SMILES IDX 24 31 25 32 26 33 27 34 40 35 28 36 39 37 29 38 38 39 37 40
 SMILES IDX 30 41 33 42 35 43 31 44 32 45 34 46 36 47
 H PARENT 10 11 13 15 7 17 4 20 17 24 19 26 21 29
 Flexibility Score: inf
  4 active torsions:
  status: ('A' for Active; 'I' for Inactive)
    1  A    between atoms: CA   and  CB  
    2  A    between atoms: CB   and  CG  
    3  A    between atoms: CG   and  CD  
    4  A    between atoms: CD   and  CE  

>  <TORSDO>
F 15

>  <BEGIN_>
RES LYS A 131

$$$$
ligand_51_pose_7_2HRL.pdbqt
 OpenBabel07062320523D

  6  5  0  0  0  0  0  0  0  0999 V2000
   33.1930   34.6630    9.2900 C   0  0  0  0  0  0  0  0  0  0  0  0
   32.0600   35.3600   10.0340 C   0  0  0  0  0  0  0  0  0  0  0  0
   30.7900   35.4700    9.2310 C   0  0  0  0  0  0  0  0  0  0  0  0
   30.0250   34.1560    9.2530 C   0  0  0  0  0  0  0  0  0  0  0  0
   28.6550   34.3270    8.6250 C   0  0  0  0  0  0  0  0  0  0  0  0
   27.5950   33.7130    9.4730 N   0  0  0  0  0  0  0  0  0  0  0  0
  1  2  1  0  0  0  0
  3  4  1  0  0  0  0
  3  2  1  0  0  0  0
  5  4  1  0  0  0  0
  5  6  1  0  0  0  0
M  END
>  <EGIN_R>
ES LYS A 135

>  <REMARK>
  4 active torsions:
  status: ('A' for Active; 'I' for Inactive)
    5  A    between atoms: CA   and  CB  
    6  A    between atoms: CB   and  CG  
    7  A    between atoms: CG   and  CD  
    8  A    between atoms: CD   and  CE  

$$$$
