ligand_89_pose_5_2HRL.pdbqt
 OpenBabel07062320523D

 60 63  0  0  1  0  0  0  0  0999 V2000
   30.5290   38.6730    7.1080 N   0  0  0  0  0  0  0  0  0  0  0  0
   31.4040   39.5650    7.7280 C   0  0  0  0  0  0  0  0  0  0  0  0
   31.7950   40.6150    7.2160 O   0  0  0  0  0  0  0  0  0  0  0  0
   30.2480   37.7980    7.7030 H   0  0  0  0  0  0  0  0  0  0  0  0
   29.9820   38.7880    5.8110 C   0  0  0  0  0  0  0  0  0  0  0  0
   28.8580   37.9090    5.4850 C   0  0  2  0  0  0  0  0  0  0  0  0
   27.4580   38.2410    5.7990 C   0  0  1  0  0  0  0  0  0  0  0  0
   27.4560   38.6930    7.2900 C   0  0  2  0  0  0  0  0  0  0  0  0
   25.7550   37.4160    8.2860 C   0  0  2  0  0  0  0  0  0  0  0  0
   25.0430   38.6650    8.6860 C   0  0  0  0  0  0  0  0  0  0  0  0
   27.0690   37.6500    8.0440 O   0  0  0  0  0  0  0  0  0  0  0  0
   25.2860   39.8390    7.7710 C   0  0  1  0  0  0  0  0  0  0  0  0
   26.7550   39.9910    7.4450 C   0  0  1  0  0  0  0  0  0  0  0  0
   25.1740   36.8870    7.1060 O   0  0  0  0  0  0  0  0  0  0  0  0
   25.7820   36.1490    6.8310 H   0  0  0  0  0  0  0  0  0  0  0  0
   25.5480   36.4360    9.4050 C   0  0  0  0  0  0  0  0  0  0  0  0
   24.8590   35.4260    9.2140 O   0  0  0  0  0  0  0  0  0  0  0  0
   26.1240   36.6640   10.6320 O   0  0  0  0  0  0  0  0  0  0  0  0
   27.1250   36.5010   10.7770 H   0  0  0  0  0  0  0  0  0  0  0  0
   24.5330   39.7670    6.5980 O   0  0  0  0  0  0  0  0  0  0  0  0
   23.6900   39.2850    6.7790 H   0  0  0  0  0  0  0  0  0  0  0  0
   27.3440   40.8050    8.5160 N   0  0  0  0  0  0  0  0  0  0  0  0
   28.3460   41.7670    8.2750 C   0  0  0  0  0  0  0  0  0  0  0  0
   27.0250   40.6880    9.5190 H   0  0  0  0  0  0  0  0  0  0  0  0
   28.9390   42.5880    9.3620 C   0  0  0  0  0  0  0  0  0  0  0  0
   28.7720   41.9550    7.0960 O   0  0  0  0  0  0  0  0  0  0  0  0
   26.9020   39.2680    5.0340 O   0  0  0  0  0  0  0  0  0  0  0  0
   27.3400   40.1470    5.2610 H   0  0  0  0  0  0  0  0  0  0  0  0
   29.1780   36.6340    6.0890 O   0  0  0  0  0  0  0  0  0  0  0  0
   30.1410   36.4990    6.1120 H   0  0  0  0  0  0  0  0  0  0  0  0
   31.9080   39.3010    9.0220 O   0  0  0  0  0  0  0  0  0  0  0  0
   31.8300   40.2470   10.0480 C   0  0  0  0  0  0  0  0  0  0  0  0
   30.9940   39.7170   11.1550 C   0  0  0  0  0  0  0  0  0  0  0  0
   30.6880   38.3820   11.4070 C   0  0  0  0  0  0  0  0  0  0  0  0
   30.3690   40.3930   12.1350 N   0  0  0  0  0  0  0  0  0  0  0  0
   29.8990   38.2870   12.5140 N   0  0  0  0  0  0  0  0  0  0  0  0
   29.7430   39.5250   12.9060 N   0  0  0  0  0  0  0  0  0  0  0  0
   29.4190   37.0510   13.0350 C   0  0  0  0  0  0  0  0  0  0  0  0
   28.1250   36.6140   12.9810 N   0  0  0  0  0  0  0  0  0  0  0  0
   30.1110   36.0590   13.6780 C   0  0  0  0  0  0  0  0  0  0  0  0
   28.0530   35.4130   13.5680 C   0  0  0  0  0  0  0  0  0  0  0  0
   29.2650   35.0360   14.0140 N   0  0  0  0  0  0  0  0  0  0  0  0
   31.4200   35.9260   14.0200 C   0  0  0  0  0  0  0  0  0  0  0  0
   29.6940   33.9340   14.6560 C   0  0  0  0  0  0  0  0  0  0  0  0
   31.8870   34.8550   14.6550 N   0  0  0  0  0  0  0  0  0  0  0  0
   32.2550   36.8250   13.7460 O   0  0  0  0  0  0  0  0  0  0  0  0
   28.8120   32.9230   14.9780 C   0  0  0  0  0  0  0  0  0  0  0  0
   31.0340   33.8580   14.9750 C   0  0  0  0  0  0  0  0  0  0  0  0
   29.2250   31.7770   15.6390 C   0  0  0  0  0  0  0  0  0  0  0  0
   31.4220   32.7020   15.6370 C   0  0  0  0  0  0  0  0  0  0  0  0
   30.5500   31.6830   15.9650 C   0  0  0  0  0  0  0  0  0  0  0  0
   33.2640   34.6500   15.0440 C   0  0  0  0  0  0  0  0  0  0  0  0
   33.6410   35.7910   15.9650 C   0  0  0  0  0  0  0  0  0  0  0  0
   34.2380   34.6400   13.9100 C   0  0  0  0  0  0  0  0  0  0  0  0
   29.8670   25.5550   16.9770 C   0  0  0  0  0  0  0  0  0  0  0  0
   28.3450   25.7220   17.0260 C   0  0  0  0  0  0  0  0  0  0  0  0
   27.6010   24.4040   16.8750 C   0  0  0  0  0  0  0  0  0  0  0  0
   26.1470   24.5300   17.2370 C   0  0  0  0  0  0  0  0  0  0  0  0
   25.6260   23.1830   17.7290 C   0  0  0  0  0  0  0  0  0  0  0  0
   24.3010   22.8900   17.1340 N   0  0  0  0  0  0  0  0  0  0  0  0
  1  4  1  0  0  0  0
  1  2  1  0  0  0  0
  2 31  1  0  0  0  0
  3  2  2  0  0  0  0
  5  1  1  0  0  0  0
  6  7  1  0  0  0  0
  6  5  1  1  0  0  0
  6 29  1  0  0  0  0
  7 27  1  6  0  0  0
  8  7  1  6  0  0  0
  8 13  1  0  0  0  0
  8 11  1  0  0  0  0
  9 14  1  6  0  0  0
  9 10  1  0  0  0  0
  9 16  1  0  0  0  0
 11  9  1  0  0  0  0
 12 20  1  6  0  0  0
 12 10  1  0  0  0  0
 13 12  1  0  0  0  0
 13 22  1  1  0  0  0
 15 14  1  0  0  0  0
 16 18  1  0  0  0  0
 17 16  2  0  0  0  0
 18 19  1  0  0  0  0
 20 21  1  0  0  0  0
 22 24  1  0  0  0  0
 23 22  1  0  0  0  0
 23 25  1  0  0  0  0
 26 23  2  0  0  0  0
 27 28  1  0  0  0  0
 29 30  1  0  0  0  0
 31 32  1  0  0  0  0
 32 33  1  0  0  0  0
 33 34  2  0  0  0  0
 33 35  1  0  0  0  0
 34 36  1  0  0  0  0
 35 37  2  0  0  0  0
 36 37  1  0  0  0  0
 36 38  1  0  0  0  0
 38 40  2  0  0  0  0
 39 38  1  0  0  0  0
 39 41  2  0  0  0  0
 40 42  1  0  0  0  0
 40 43  1  0  0  0  0
 41 42  1  0  0  0  0
 42 44  1  0  0  0  0
 43 45  1  0  0  0  0
 44 48  2  0  0  0  0
 44 47  1  0  0  0  0
 45 48  1  0  0  0  0
 45 52  1  0  0  0  0
 46 43  2  0  0  0  0
 47 49  2  0  0  0  0
 48 50  1  0  0  0  0
 49 51  1  0  0  0  0
 50 51  2  0  0  0  0
 52 53  1  0  0  0  0
 54 52  1  0  0  0  0
 55 56  1  0  0  0  0
 57 56  1  0  0  0  0
 57 58  1  0  0  0  0
 58 59  1  0  0  0  0
 60 59  1  0  0  0  0
M  END
>  <REMARK>
 VINA RESULT:    -4.739      6.205     12.770
 INTER + INTRA:         -15.588
 INTER:                 -10.313
 INTRA:                  -5.276
 UNBOUND:                -7.109
 SMILES CC(=O)N[C@@H]1[C@@H](O)C[C@](O)(C(=O)O)O[C@H]1C(O)[C@H](O)CNC(=O)OCc1cn(-c2ncn3c2c(=O)n(C(C)C)c2ccccc23)nn1
 SMILES IDX 21 1 22 2 23 3 20 5 18 6 16 7 15 8 9 9 8 10 14 11 6 12 5 13
 SMILES IDX 10 14 11 16 12 17 13 18 7 20 4 22 2 23 1 25 3 26 17 27 19 29
 SMILES IDX 24 31 25 32 26 33 27 34 47 35 28 36 46 37 29 38 30 39 33 40
 SMILES IDX 31 41 32 42 34 43 45 44 36 45 35 46 44 47 40 48 43 49 41 50
 SMILES IDX 42 51 37 52 38 53 39 54
 H PARENT 21 4 10 15 13 19 7 21 4 24 17 28 19 30
 Flexibility Score: inf
  4 active torsions:
  status: ('A' for Active; 'I' for Inactive)
    1  A    between atoms: CA   and  CB  
    2  A    between atoms: CB   and  CG  
    3  A    between atoms: CG   and  CD  
    4  A    between atoms: CD   and  CE  

>  <TORSDO>
F 16

>  <BEGIN_>
RES LYS A 131

$$$$
ligand_89_pose_5_2HRL.pdbqt
 OpenBabel07062320523D

  6  5  0  0  0  0  0  0  0  0999 V2000
   33.1930   34.6630    9.2900 C   0  0  0  0  0  0  0  0  0  0  0  0
   32.0600   35.3600   10.0340 C   0  0  0  0  0  0  0  0  0  0  0  0
   30.8110   35.5290    9.2080 C   0  0  0  0  0  0  0  0  0  0  0  0
   30.1230   34.1900    8.9940 C   0  0  0  0  0  0  0  0  0  0  0  0
   28.6450   34.3890    8.7180 C   0  0  0  0  0  0  0  0  0  0  0  0
   27.8100   33.6270    9.6880 N   0  0  0  0  0  0  0  0  0  0  0  0
  1  2  1  0  0  0  0
  3  2  1  0  0  0  0
  4  3  1  0  0  0  0
  5  4  1  0  0  0  0
  5  6  1  0  0  0  0
M  END
>  <EGIN_R>
ES LYS A 135

>  <REMARK>
  4 active torsions:
  status: ('A' for Active; 'I' for Inactive)
    5  A    between atoms: CA   and  CB  
    6  A    between atoms: CB   and  CG  
    7  A    between atoms: CG   and  CD  
    8  A    between atoms: CD   and  CE  

$$$$
