ligand_45_pose_11_2HRL.pdbqt
 OpenBabel07062320523D

 52 52  0  0  1  0  0  0  0  0999 V2000
   33.4590   30.5320   21.4870 O   0  0  0  0  0  0  0  0  0  0  0  0
   32.9080   29.2770   21.6430 C   0  0  0  0  0  0  0  0  0  0  0  0
   32.2200   28.6080   20.5800 N   0  0  0  0  0  0  0  0  0  0  0  0
   32.1680   29.1140   19.6900 H   0  0  0  0  0  0  0  0  0  0  0  0
   33.0140   28.7070   22.7540 O   0  0  0  0  0  0  0  0  0  0  0  0
   31.6810   27.3200   20.8180 C   0  0  0  0  0  0  0  0  0  0  0  0
   30.1940   27.1970   20.7920 C   0  0  2  0  0  0  0  0  0  0  0  0
   29.4400   28.4780   20.6090 C   0  0  1  0  0  0  0  0  0  0  0  0
   28.2260   28.3800   19.7350 C   0  0  2  0  0  0  0  0  0  0  0  0
   27.0510   29.5230   18.1230 C   0  0  2  0  0  0  0  0  0  0  0  0
   26.4050   28.1530   18.0260 C   0  0  0  0  0  0  0  0  0  0  0  0
   28.1130   29.5320   18.9950 O   0  0  0  0  0  0  0  0  0  0  0  0
   25.9070   27.7070   19.3660 C   0  0  1  0  0  0  0  0  0  0  0  0
   26.9460   28.0710   20.4300 C   0  0  1  0  0  0  0  0  0  0  0  0
   26.0710   30.4060   18.6100 O   0  0  0  0  0  0  0  0  0  0  0  0
   26.3960   31.3170   18.3890 H   0  0  0  0  0  0  0  0  0  0  0  0
   27.4650   29.9740   16.7850 C   0  0  0  0  0  0  0  0  0  0  0  0
   28.6510   29.7960   16.3900 O   0  0  0  0  0  0  0  0  0  0  0  0
   26.5830   30.5980   15.9270 O   0  0  0  0  0  0  0  0  0  0  0  0
   26.5900   30.4060   14.9430 H   0  0  0  0  0  0  0  0  0  0  0  0
   24.6920   28.3540   19.6310 O   0  0  0  0  0  0  0  0  0  0  0  0
   23.9940   27.9900   19.0440 H   0  0  0  0  0  0  0  0  0  0  0  0
   27.0520   26.8640   21.2560 N   0  0  0  0  0  0  0  0  0  0  0  0
   26.1830   26.6690   22.3560 C   0  0  0  0  0  0  0  0  0  0  0  0
   27.7790   26.1510   21.0200 H   0  0  0  0  0  0  0  0  0  0  0  0
   26.3050   25.4330   23.1920 C   0  0  0  0  0  0  0  0  0  0  0  0
   25.2810   27.5000   22.6840 O   0  0  0  0  0  0  0  0  0  0  0  0
   29.0940   28.9840   21.8710 O   0  0  0  0  0  0  0  0  0  0  0  0
   28.5480   28.2850   22.3270 H   0  0  0  0  0  0  0  0  0  0  0  0
   29.8190   26.5880   22.0090 O   0  0  0  0  0  0  0  0  0  0  0  0
   29.6060   27.2420   22.7050 H   0  0  0  0  0  0  0  0  0  0  0  0
   32.9440   31.6100   22.2570 C   0  0  0  0  0  0  0  0  0  0  0  0
   31.5300   31.8580   21.8930 C   0  0  0  0  0  0  0  0  0  0  0  0
   30.9970   32.4300   20.7590 C   0  0  0  0  0  0  0  0  0  0  0  0
   30.4590   31.5540   22.6560 N   0  0  0  0  0  0  0  0  0  0  0  0
   29.6530   32.4620   20.8470 N   0  0  0  0  0  0  0  0  0  0  0  0
   29.3680   31.9210   22.0130 N   0  0  0  0  0  0  0  0  0  0  0  0
   28.6980   32.9660   19.9150 C   0  0  0  0  0  0  0  0  0  0  0  0
   29.0970   32.8210   18.4960 C   0  0  0  0  0  0  0  0  0  0  0  0
   29.2630   34.0340   17.6800 C   0  0  0  0  0  0  0  0  0  0  0  0
   30.2150   34.0880   16.6470 N   0  0  0  0  0  0  0  0  0  0  0  0
   30.3940   35.3540   15.9880 C   0  0  0  0  0  0  0  0  0  0  0  0
   31.5180   33.8170   17.2870 C   0  0  0  0  0  0  0  0  0  0  0  0
   32.0710   34.9540   18.0550 C   0  0  0  0  0  0  0  0  0  0  0  0
   30.0480   33.0750   15.6430 C   0  0  0  0  0  0  0  0  0  0  0  0
   31.1980   32.1490   15.4830 C   0  0  0  0  0  0  0  0  0  0  0  0
   29.8670   25.5550   16.9770 C   0  0  0  0  0  0  0  0  0  0  0  0
   28.3450   25.7220   17.0260 C   0  0  0  0  0  0  0  0  0  0  0  0
   27.6040   24.3940   17.0060 C   0  0  0  0  0  0  0  0  0  0  0  0
   26.1120   24.5770   17.0490 C   0  0  0  0  0  0  0  0  0  0  0  0
   25.5040   23.5720   18.0220 C   0  0  0  0  0  0  0  0  0  0  0  0
   25.8070   23.9540   19.4210 N   0  0  0  0  0  0  0  0  0  0  0  0
  1  2  1  0  0  0  0
  1 32  1  0  0  0  0
  2  5  2  0  0  0  0
  3  6  1  0  0  0  0
  3  2  1  0  0  0  0
  4  3  1  0  0  0  0
  7  6  1  1  0  0  0
  7 30  1  0  0  0  0
  8  7  1  0  0  0  0
  8 28  1  1  0  0  0
  9 14  1  0  0  0  0
  9  8  1  1  0  0  0
 10 17  1  6  0  0  0
 10 15  1  0  0  0  0
 10 12  1  0  0  0  0
 11 10  1  0  0  0  0
 11 13  1  0  0  0  0
 12  9  1  0  0  0  0
 13 21  1  1  0  0  0
 13 14  1  0  0  0  0
 14 23  1  1  0  0  0
 16 15  1  0  0  0  0
 18 17  2  0  0  0  0
 19 17  1  0  0  0  0
 20 19  1  0  0  0  0
 22 21  1  0  0  0  0
 23 24  1  0  0  0  0
 24 27  2  0  0  0  0
 24 26  1  0  0  0  0
 25 23  1  0  0  0  0
 28 29  1  0  0  0  0
 30 31  1  0  0  0  0
 33 32  1  0  0  0  0
 33 35  1  0  0  0  0
 34 36  1  0  0  0  0
 34 33  2  0  0  0  0
 36 37  1  0  0  0  0
 37 35  2  0  0  0  0
 38 36  1  0  0  0  0
 39 38  1  0  0  0  0
 40 39  1  0  0  0  0
 41 43  1  0  0  0  0
 41 40  1  0  0  0  0
 42 41  1  0  0  0  0
 43 44  1  0  0  0  0
 45 41  1  0  0  0  0
 46 45  1  0  0  0  0
 47 48  1  0  0  0  0
 49 48  1  0  0  0  0
 49 50  1  0  0  0  0
 50 51  1  0  0  0  0
 51 52  1  0  0  0  0
M  END
>  <REMARK>
 VINA RESULT:    -4.159      2.091      6.012
 INTER + INTRA:         -14.288
 INTER:                  -7.309
 INTRA:                  -6.979
 UNBOUND:                -5.875
 SMILES CC[N+](C)(CC)CCCn1cc(COC(=O)NC[C@@H](O)C(O)[C@@H]2O[C@@](O)(C(=O)O)C[C@H](O)[C@H]2NC(C)=O)nn1
 SMILES IDX 14 1 15 2 17 3 16 5 18 6 19 7 21 8 23 9 25 10 30 11 24 12
 SMILES IDX 31 13 33 14 26 15 27 17 28 18 29 19 32 21 34 23 35 24 36 26
 SMILES IDX 37 27 22 28 20 30 13 32 12 33 11 34 38 35 10 36 39 37 9 38
 SMILES IDX 8 39 7 40 3 41 4 42 2 43 1 44 5 45 6 46
 H PARENT 17 4 26 16 29 20 32 22 34 25 22 29 20 31
 Flexibility Score: inf
  4 active torsions:
  status: ('A' for Active; 'I' for Inactive)
    1  A    between atoms: CA   and  CB  
    2  A    between atoms: CB   and  CG  
    3  A    between atoms: CG   and  CD  
    4  A    between atoms: CD   and  CE  

>  <TORSDO>
F 20

>  <BEGIN_>
RES LYS A 131

$$$$
ligand_45_pose_11_2HRL.pdbqt
 OpenBabel07062320523D

  6  5  0  0  0  0  0  0  0  0999 V2000
   33.1930   34.6630    9.2900 C   0  0  0  0  0  0  0  0  0  0  0  0
   32.0600   35.3600   10.0340 C   0  0  0  0  0  0  0  0  0  0  0  0
   30.8030   35.5070    9.2160 C   0  0  0  0  0  0  0  0  0  0  0  0
   30.0900   34.1700    9.0830 C   0  0  0  0  0  0  0  0  0  0  0  0
   28.6360   34.3760    8.7070 C   0  0  0  0  0  0  0  0  0  0  0  0
   27.7330   33.6240    9.6220 N   0  0  0  0  0  0  0  0  0  0  0  0
  1  2  1  0  0  0  0
  3  2  1  0  0  0  0
  4  3  1  0  0  0  0
  5  4  1  0  0  0  0
  5  6  1  0  0  0  0
M  END
>  <EGIN_R>
ES LYS A 135

>  <REMARK>
  4 active torsions:
  status: ('A' for Active; 'I' for Inactive)
    5  A    between atoms: CA   and  CB  
    6  A    between atoms: CB   and  CG  
    7  A    between atoms: CG   and  CD  
    8  A    between atoms: CD   and  CE  

$$$$
