ligand_78_pose_7_2HRL.pdbqt
 OpenBabel07062320523D

 53 54  0  0  1  0  0  0  0  0999 V2000
   30.3580   33.2570   14.5810 N   0  0  0  0  0  0  0  0  0  0  0  0
   30.7410   34.6440   14.5070 C   0  0  0  0  0  0  0  0  0  0  0  0
   31.7570   35.0180   15.1100 O   0  0  0  0  0  0  0  0  0  0  0  0
   29.5010   33.0250   14.0450 H   0  0  0  0  0  0  0  0  0  0  0  0
   31.1500   32.3150   15.3510 C   0  0  0  0  0  0  0  0  0  0  0  0
   30.4660   31.8750   16.6010 C   0  0  2  0  0  0  0  0  0  0  0  0
   29.1030   31.3090   16.3930 C   0  0  2  0  0  0  0  0  0  0  0  0
   28.6970   30.1840   17.2750 C   0  0  2  0  0  0  0  0  0  0  0  0
   26.4000   30.5410   17.0130 C   0  0  2  0  0  0  0  0  0  0  0  0
   26.4400   31.5000   18.1560 C   0  0  0  0  0  0  0  0  0  0  0  0
   27.4580   29.6770   16.8880 O   0  0  0  0  0  0  0  0  0  0  0  0
   27.5050   31.3000   19.1620 C   0  0  1  0  0  0  0  0  0  0  0  0
   28.6220   30.3890   18.7360 C   0  0  1  0  0  0  0  0  0  0  0  0
   26.2800   31.2080   15.7930 O   0  0  0  0  0  0  0  0  0  0  0  0
   26.3290   32.1750   15.8600 H   0  0  0  0  0  0  0  0  0  0  0  0
   25.1900   29.6880   17.1500 C   0  0  0  0  0  0  0  0  0  0  0  0
   25.2500   28.6490   17.8410 O   0  0  0  0  0  0  0  0  0  0  0  0
   23.9770   29.9890   16.5430 O   0  0  0  0  0  0  0  0  0  0  0  0
   23.1620   30.2720   17.1040 H   0  0  0  0  0  0  0  0  0  0  0  0
   27.9950   32.5400   19.5650 O   0  0  0  0  0  0  0  0  0  0  0  0
   27.3430   33.0630   20.0660 H   0  0  0  0  0  0  0  0  0  0  0  0
   28.5110   29.0740   19.3750 N   0  0  0  0  0  0  0  0  0  0  0  0
   29.3090   28.7130   20.4830 C   0  0  0  0  0  0  0  0  0  0  0  0
   27.8300   28.3790   19.0130 H   0  0  0  0  0  0  0  0  0  0  0  0
   29.2080   27.3780   21.1460 C   0  0  0  0  0  0  0  0  0  0  0  0
   30.1250   29.5680   20.9060 O   0  0  0  0  0  0  0  0  0  0  0  0
   29.2430   30.6390   15.1000 O   0  0  0  0  0  0  0  0  0  0  0  0
   28.9970   31.3050   14.4340 H   0  0  0  0  0  0  0  0  0  0  0  0
   30.5430   32.7470   17.6680 O   0  0  0  0  0  0  0  0  0  0  0  0
   30.1560   32.3700   18.4950 H   0  0  0  0  0  0  0  0  0  0  0  0
   29.9990   35.5550   13.7800 O   0  0  0  0  0  0  0  0  0  0  0  0
   28.9340   36.2990   14.3440 C   0  0  0  0  0  0  0  0  0  0  0  0
   27.6320   35.8880   13.8000 C   0  0  0  0  0  0  0  0  0  0  0  0
   27.2030   34.6750   13.3420 C   0  0  0  0  0  0  0  0  0  0  0  0
   26.5760   36.7170   13.6600 N   0  0  0  0  0  0  0  0  0  0  0  0
   25.9140   34.8010   12.9390 N   0  0  0  0  0  0  0  0  0  0  0  0
   25.5600   36.0590   13.1460 N   0  0  0  0  0  0  0  0  0  0  0  0
   25.1170   33.7340   12.3950 C   0  0  0  0  0  0  0  0  0  0  0  0
   23.8890   33.2060   13.5810 S   0  0  0  0  0  0  0  0  0  0  0  0
   22.7580   34.2030   13.5480 O   0  0  0  0  0  0  0  0  0  0  0  0
   24.5250   33.2040   14.9200 O   0  0  0  0  0  0  0  0  0  0  0  0
   23.3210   31.6100   13.1240 C   0  0  0  0  0  0  0  0  0  0  0  0
   21.9870   31.4730   12.7570 C   0  0  0  0  0  0  0  0  0  0  0  0
   24.1810   30.5380   13.1340 C   0  0  0  0  0  0  0  0  0  0  0  0
   21.5450   30.2230   12.3990 C   0  0  0  0  0  0  0  0  0  0  0  0
   23.6880   29.3050   12.7680 C   0  0  0  0  0  0  0  0  0  0  0  0
   22.3800   29.1090   12.3950 C   0  0  0  0  0  0  0  0  0  0  0  0
   29.8670   25.5550   16.9770 C   0  0  0  0  0  0  0  0  0  0  0  0
   28.3450   25.7220   17.0260 C   0  0  0  0  0  0  0  0  0  0  0  0
   27.6010   24.4060   16.8590 C   0  0  0  0  0  0  0  0  0  0  0  0
   26.6290   24.1590   17.9790 C   0  0  0  0  0  0  0  0  0  0  0  0
   25.3110   23.6480   17.4070 C   0  0  0  0  0  0  0  0  0  0  0  0
   24.7450   22.5870   18.2730 N   0  0  0  0  0  0  0  0  0  0  0  0
  1  5  1  0  0  0  0
  2  1  1  0  0  0  0
  2  3  2  0  0  0  0
  4  1  1  0  0  0  0
  6  5  1  6  0  0  0
  6 29  1  0  0  0  0
  7 27  1  6  0  0  0
  7  6  1  0  0  0  0
  8  7  1  6  0  0  0
  8 13  1  0  0  0  0
  9 14  1  6  0  0  0
  9 16  1  0  0  0  0
  9 10  1  0  0  0  0
 10 12  1  0  0  0  0
 11  9  1  0  0  0  0
 11  8  1  0  0  0  0
 12 20  1  6  0  0  0
 13 12  1  0  0  0  0
 13 22  1  1  0  0  0
 14 15  1  0  0  0  0
 16 17  2  0  0  0  0
 18 19  1  0  0  0  0
 18 16  1  0  0  0  0
 20 21  1  0  0  0  0
 22 23  1  0  0  0  0
 23 26  2  0  0  0  0
 23 25  1  0  0  0  0
 24 22  1  0  0  0  0
 28 27  1  0  0  0  0
 29 30  1  0  0  0  0
 31 32  1  0  0  0  0
 31  2  1  0  0  0  0
 33 32  1  0  0  0  0
 34 33  2  0  0  0  0
 35 33  1  0  0  0  0
 36 37  1  0  0  0  0
 36 34  1  0  0  0  0
 37 35  2  0  0  0  0
 38 36  1  0  0  0  0
 38 39  1  0  0  0  0
 39 41  2  0  0  0  0
 40 39  2  0  0  0  0
 42 44  1  0  0  0  0
 42 39  1  0  0  0  0
 43 42  2  0  0  0  0
 45 43  1  0  0  0  0
 46 44  2  0  0  0  0
 47 45  2  0  0  0  0
 47 46  1  0  0  0  0
 48 49  1  0  0  0  0
 50 49  1  0  0  0  0
 50 51  1  0  0  0  0
 52 51  1  0  0  0  0
 52 53  1  0  0  0  0
M  END
>  <REMARK>
 VINA RESULT:    -5.403      3.349      6.742
 INTER + INTRA:         -14.994
 INTER:                  -8.747
 INTRA:                  -6.247
 UNBOUND:                -5.011
 SMILES CC(=O)N[C@@H]1[C@@H](O)C[C@](O)(C(=O)O)O[C@H]1C(O)[C@H](O)CNC(=O)OCc1cn(CS(=O)(=O)c2ccccc2)nn1
 SMILES IDX 21 1 22 2 23 3 20 5 18 6 16 7 15 8 9 9 8 10 14 11 6 12 5 13
 SMILES IDX 10 14 11 16 12 17 13 18 7 20 4 22 2 23 1 25 3 26 17 27 19 29
 SMILES IDX 24 31 25 32 26 33 27 34 40 35 28 36 39 37 29 38 30 39 31 40
 SMILES IDX 32 41 33 42 34 43 38 44 35 45 37 46 36 47
 H PARENT 21 4 10 15 13 19 7 21 4 24 17 28 19 30
 Flexibility Score: inf
  4 active torsions:
  status: ('A' for Active; 'I' for Inactive)
    1  A    between atoms: CA   and  CB  
    2  A    between atoms: CB   and  CG  
    3  A    between atoms: CG   and  CD  
    4  A    between atoms: CD   and  CE  

>  <TORSDO>
F 17

>  <BEGIN_>
RES LYS A 131

$$$$
ligand_78_pose_7_2HRL.pdbqt
 OpenBabel07062320523D

  6  5  0  0  0  0  0  0  0  0999 V2000
   33.1930   34.6630    9.2900 C   0  0  0  0  0  0  0  0  0  0  0  0
   32.0600   35.3600   10.0340 C   0  0  0  0  0  0  0  0  0  0  0  0
   30.8010   35.5020    9.2180 C   0  0  0  0  0  0  0  0  0  0  0  0
   30.1390   34.1480    9.0140 C   0  0  0  0  0  0  0  0  0  0  0  0
   28.6780   34.3200    8.6450 C   0  0  0  0  0  0  0  0  0  0  0  0
   27.7920   33.6310    9.6240 N   0  0  0  0  0  0  0  0  0  0  0  0
  1  2  1  0  0  0  0
  3  2  1  0  0  0  0
  4  3  1  0  0  0  0
  5  4  1  0  0  0  0
  5  6  1  0  0  0  0
M  END
>  <EGIN_R>
ES LYS A 135

>  <REMARK>
  4 active torsions:
  status: ('A' for Active; 'I' for Inactive)
    5  A    between atoms: CA   and  CB  
    6  A    between atoms: CB   and  CG  
    7  A    between atoms: CG   and  CD  
    8  A    between atoms: CD   and  CE  

$$$$
