ligand_32_pose_5_2HRL.pdbqt
 OpenBabel07062320523D

 49 49  0  0  1  0  0  0  0  0999 V2000
   26.0320   36.2430   11.2450 N   0  0  0  0  0  0  0  0  0  0  0  0
   27.1020   37.0860   11.6400 C   0  0  0  0  0  0  0  0  0  0  0  0
   27.0520   38.3400   11.4610 O   0  0  0  0  0  0  0  0  0  0  0  0
   26.1110   35.2210   11.4090 H   0  0  0  0  0  0  0  0  0  0  0  0
   24.8420   36.7680   10.6210 C   0  0  0  0  0  0  0  0  0  0  0  0
   24.6120   36.2560    9.2250 C   0  0  2  0  0  0  0  0  0  0  0  0
   25.3080   37.1450    8.1950 C   0  0  1  0  0  0  0  0  0  0  0  0
   26.4900   36.4060    7.5920 C   0  0  2  0  0  0  0  0  0  0  0  0
   28.4640   35.4780    8.4250 C   0  0  2  0  0  0  0  0  0  0  0  0
   29.0550   35.5020    7.0430 C   0  0  0  0  0  0  0  0  0  0  0  0
   27.0890   35.5420    8.4490 O   0  0  0  0  0  0  0  0  0  0  0  0
   28.3750   36.4100    6.0820 C   0  0  1  0  0  0  0  0  0  0  0  0
   27.4540   37.3320    6.8960 C   0  0  1  0  0  0  0  0  0  0  0  0
   29.0630   36.4830    9.1760 O   0  0  0  0  0  0  0  0  0  0  0  0
   29.3910   36.0400   10.0070 H   0  0  0  0  0  0  0  0  0  0  0  0
   28.8450   34.1790    9.0250 C   0  0  0  0  0  0  0  0  0  0  0  0
   28.0240   33.3800    9.5260 O   0  0  0  0  0  0  0  0  0  0  0  0
   30.1780   33.8100    9.0440 O   0  0  0  0  0  0  0  0  0  0  0  0
   30.8950   34.2770    8.5020 H   0  0  0  0  0  0  0  0  0  0  0  0
   29.2610   37.1610    5.3150 O   0  0  0  0  0  0  0  0  0  0  0  0
   29.2650   36.8780    4.3590 H   0  0  0  0  0  0  0  0  0  0  0  0
   26.7690   38.2610    6.0180 N   0  0  0  0  0  0  0  0  0  0  0  0
   27.0030   39.6600    6.1270 C   0  0  0  0  0  0  0  0  0  0  0  0
   26.0890   37.9440    5.2880 H   0  0  0  0  0  0  0  0  0  0  0  0
   26.3170   40.6600    5.2400 C   0  0  0  0  0  0  0  0  0  0  0  0
   27.8180   40.1050    6.9970 O   0  0  0  0  0  0  0  0  0  0  0  0
   24.3910   37.4350    7.1880 O   0  0  0  0  0  0  0  0  0  0  0  0
   23.5460   37.8230    7.5440 H   0  0  0  0  0  0  0  0  0  0  0  0
   23.2310   36.2540    9.0110 O   0  0  0  0  0  0  0  0  0  0  0  0
   22.9100   35.3180    9.0240 H   0  0  0  0  0  0  0  0  0  0  0  0
   28.2140   36.5270   12.2280 O   0  0  0  0  0  0  0  0  0  0  0  0
   28.3370   35.1440   12.5090 C   0  0  0  0  0  0  0  0  0  0  0  0
   29.3300   34.9280   13.6150 C   0  0  0  0  0  0  0  0  0  0  0  0
   29.9240   33.7470   13.9730 C   0  0  0  0  0  0  0  0  0  0  0  0
   29.7870   35.8860   14.4460 N   0  0  0  0  0  0  0  0  0  0  0  0
   30.7390   34.0130   15.0220 N   0  0  0  0  0  0  0  0  0  0  0  0
   30.6340   35.3080   15.2820 N   0  0  0  0  0  0  0  0  0  0  0  0
   31.5530   33.0190   15.6900 C   0  0  0  0  0  0  0  0  0  0  0  0
   31.0550   32.9020   17.1280 C   0  0  0  0  0  0  0  0  0  0  0  0
   30.3670   31.5800   17.2350 C   0  0  0  0  0  0  0  0  0  0  0  0
   29.7780   31.2030   18.2560 O   0  0  0  0  0  0  0  0  0  0  0  0
   30.4160   30.7610   16.1060 O   0  0  0  0  0  0  0  0  0  0  0  0
   31.3180   30.4790   15.7270 H   0  0  0  0  0  0  0  0  0  0  0  0
   29.8670   25.5550   16.9770 C   0  0  0  0  0  0  0  0  0  0  0  0
   28.3450   25.7220   17.0260 C   0  0  0  0  0  0  0  0  0  0  0  0
   27.6010   24.4020   16.8920 C   0  0  0  0  0  0  0  0  0  0  0  0
   26.5050   24.2640   17.9120 C   0  0  0  0  0  0  0  0  0  0  0  0
   25.1500   24.3850   17.2220 C   0  0  0  0  0  0  0  0  0  0  0  0
   24.4790   25.6470   17.6130 N   0  0  0  0  0  0  0  0  0  0  0  0
  1  4  1  0  0  0  0
  1  2  1  0  0  0  0
  2 31  1  0  0  0  0
  3  2  2  0  0  0  0
  5  1  1  0  0  0  0
  6  5  1  1  0  0  0
  7 27  1  6  0  0  0
  7  6  1  0  0  0  0
  8  7  1  1  0  0  0
  8 11  1  0  0  0  0
  9 11  1  0  0  0  0
  9 16  1  1  0  0  0
  9 14  1  0  0  0  0
 10  9  1  0  0  0  0
 12 20  1  1  0  0  0
 12 13  1  0  0  0  0
 12 10  1  0  0  0  0
 13 22  1  6  0  0  0
 13  8  1  0  0  0  0
 14 15  1  0  0  0  0
 16 18  1  0  0  0  0
 16 17  2  0  0  0  0
 19 18  1  0  0  0  0
 21 20  1  0  0  0  0
 22 23  1  0  0  0  0
 23 26  2  0  0  0  0
 24 22  1  0  0  0  0
 25 23  1  0  0  0  0
 27 28  1  0  0  0  0
 29 30  1  0  0  0  0
 29  6  1  0  0  0  0
 31 32  1  0  0  0  0
 32 33  1  0  0  0  0
 33 34  2  0  0  0  0
 33 35  1  0  0  0  0
 34 36  1  0  0  0  0
 35 37  2  0  0  0  0
 36 37  1  0  0  0  0
 36 38  1  0  0  0  0
 38 39  1  0  0  0  0
 39 40  1  0  0  0  0
 40 41  2  0  0  0  0
 42 40  1  0  0  0  0
 43 42  1  0  0  0  0
 44 45  1  0  0  0  0
 46 45  1  0  0  0  0
 46 47  1  0  0  0  0
 48 49  1  0  0  0  0
 48 47  1  0  0  0  0
M  END
>  <REMARK>
 VINA RESULT:    -4.447      5.922     11.789
 INTER + INTRA:         -13.990
 INTER:                 -10.187
 INTRA:                  -3.803
 UNBOUND:                -5.644
 SMILES CC(=O)N[C@@H]1[C@@H](O)C[C@](O)(C(=O)O)O[C@H]1C(O)[C@H](O)CNC(=O)OCc1cn(CCC(=O)O)nn1
 SMILES IDX 21 1 22 2 23 3 20 5 18 6 16 7 15 8 9 9 8 10 14 11 6 12 5 13
 SMILES IDX 10 14 11 16 12 17 13 18 7 20 4 22 2 23 1 25 3 26 17 27 19 29
 SMILES IDX 24 31 25 32 26 33 27 34 35 35 28 36 34 37 29 38 30 39 31 40
 SMILES IDX 32 41 33 42
 H PARENT 21 4 10 15 13 19 7 21 4 24 17 28 19 30 33 43
 Flexibility Score: inf
  4 active torsions:
  status: ('A' for Active; 'I' for Inactive)
    1  A    between atoms: CA   and  CB  
    2  A    between atoms: CB   and  CG  
    3  A    between atoms: CG   and  CD  
    4  A    between atoms: CD   and  CE  

>  <TORSDO>
F 18

>  <BEGIN_>
RES LYS A 131

$$$$
ligand_32_pose_5_2HRL.pdbqt
 OpenBabel07062320523D

  6  5  0  0  0  0  0  0  0  0999 V2000
   33.1930   34.6630    9.2900 C   0  0  0  0  0  0  0  0  0  0  0  0
   32.0600   35.3600   10.0340 C   0  0  0  0  0  0  0  0  0  0  0  0
   32.4700   35.9130   11.3740 C   0  0  0  0  0  0  0  0  0  0  0  0
   31.7340   37.2120   11.6670 C   0  0  0  0  0  0  0  0  0  0  0  0
   31.9080   38.1920   10.5230 C   0  0  0  0  0  0  0  0  0  0  0  0
   31.5350   39.5730   10.9380 N   0  0  0  0  0  0  0  0  0  0  0  0
  1  2  1  0  0  0  0
  2  3  1  0  0  0  0
  3  4  1  0  0  0  0
  5  6  1  0  0  0  0
  5  4  1  0  0  0  0
M  END
>  <EGIN_R>
ES LYS A 135

>  <REMARK>
  4 active torsions:
  status: ('A' for Active; 'I' for Inactive)
    5  A    between atoms: CA   and  CB  
    6  A    between atoms: CB   and  CG  
    7  A    between atoms: CG   and  CD  
    8  A    between atoms: CD   and  CE  

$$$$
