ligand_77_pose_9_2HRL.pdbqt
 OpenBabel07062320523D

 61 63  0  0  1  0  0  0  0  0999 V2000
   22.2410   37.5510   10.5230 N   0  0  0  0  0  0  0  0  0  0  0  0
   22.0930   38.1350    9.2430 C   0  0  0  0  0  0  0  0  0  0  0  0
   21.0710   37.9220    8.5800 O   0  0  0  0  0  0  0  0  0  0  0  0
   23.1530   37.7910   11.0230 H   0  0  0  0  0  0  0  0  0  0  0  0
   21.2760   36.6880   11.1630 C   0  0  0  0  0  0  0  0  0  0  0  0
   21.8050   35.2950   11.1960 C   0  0  2  0  0  0  0  0  0  0  0  0
   22.8290   35.0770   12.2890 C   0  0  1  0  0  0  0  0  0  0  0  0
   23.2270   33.6550   12.4930 C   0  0  2  0  0  0  0  0  0  0  0  0
   22.2300   31.6540   13.1000 C   0  0  2  0  0  0  0  0  0  0  0  0
   23.5900   31.0560   13.2850 C   0  0  0  0  0  0  0  0  0  0  0  0
   22.2190   32.7490   12.2560 O   0  0  0  0  0  0  0  0  0  0  0  0
   24.6680   32.0390   13.5700 C   0  0  1  0  0  0  0  0  0  0  0  0
   24.0050   33.4140   13.7630 C   0  0  1  0  0  0  0  0  0  0  0  0
   21.6250   31.9510   14.3430 O   0  0  0  0  0  0  0  0  0  0  0  0
   22.0750   31.4370   15.0350 H   0  0  0  0  0  0  0  0  0  0  0  0
   21.3640   30.6120   12.4740 C   0  0  0  0  0  0  0  0  0  0  0  0
   20.2020   30.9450   12.0830 O   0  0  0  0  0  0  0  0  0  0  0  0
   21.7420   29.3070   12.2890 O   0  0  0  0  0  0  0  0  0  0  0  0
   22.5430   29.0790   11.7030 H   0  0  0  0  0  0  0  0  0  0  0  0
   25.4470   31.7130   14.6690 O   0  0  0  0  0  0  0  0  0  0  0  0
   25.0820   30.8740   15.0950 H   0  0  0  0  0  0  0  0  0  0  0  0
   25.0570   34.4200   13.8340 N   0  0  0  0  0  0  0  0  0  0  0  0
   25.2920   35.1190   15.0440 C   0  0  0  0  0  0  0  0  0  0  0  0
   25.6590   34.6550   13.0160 H   0  0  0  0  0  0  0  0  0  0  0  0
   26.3690   36.1660   15.1500 C   0  0  0  0  0  0  0  0  0  0  0  0
   24.6290   34.9130   16.0830 O   0  0  0  0  0  0  0  0  0  0  0  0
   23.9200   35.8880   11.9510 O   0  0  0  0  0  0  0  0  0  0  0  0
   23.8150   36.7430   12.4200 H   0  0  0  0  0  0  0  0  0  0  0  0
   22.2530   34.9000    9.9430 O   0  0  0  0  0  0  0  0  0  0  0  0
   23.0840   35.3960    9.7350 H   0  0  0  0  0  0  0  0  0  0  0  0
   23.0590   38.9570    8.6720 O   0  0  0  0  0  0  0  0  0  0  0  0
   24.1600   38.4330    7.9460 C   0  0  0  0  0  0  0  0  0  0  0  0
   24.8420   37.3360    8.6900 C   0  0  0  0  0  0  0  0  0  0  0  0
   25.9020   37.5250    9.5340 C   0  0  0  0  0  0  0  0  0  0  0  0
   24.5710   36.0240    8.6800 N   0  0  0  0  0  0  0  0  0  0  0  0
   26.2570   36.3150   10.0250 N   0  0  0  0  0  0  0  0  0  0  0  0
   25.4380   35.4520    9.4910 N   0  0  0  0  0  0  0  0  0  0  0  0
   27.3260   36.1280   10.9390 C   0  0  0  0  0  0  0  0  0  0  0  0
   27.7690   34.8580   11.2380 C   0  0  0  0  0  0  0  0  0  0  0  0
   27.9590   37.1820   11.5600 C   0  0  0  0  0  0  0  0  0  0  0  0
   28.8090   34.6300   12.1230 C   0  0  0  0  0  0  0  0  0  0  0  0
   29.0110   36.9630   12.4550 C   0  0  0  0  0  0  0  0  0  0  0  0
   29.4340   35.6870   12.7370 C   0  0  0  0  0  0  0  0  0  0  0  0
   30.7330   35.4020   13.8420 S   0  0  0  0  0  0  0  0  0  0  0  0
   30.9060   36.5800   14.7390 O   0  0  0  0  0  0  0  0  0  0  0  0
   32.0390   35.1560   13.1460 O   0  0  0  0  0  0  0  0  0  0  0  0
   30.3440   33.9500   14.7590 C   0  0  0  0  0  0  0  0  0  0  0  0
   31.3570   33.0930   15.0980 C   0  0  0  0  0  0  0  0  0  0  0  0
   29.0390   33.6620   15.1450 C   0  0  0  0  0  0  0  0  0  0  0  0
   31.0960   31.9360   15.8220 C   0  0  0  0  0  0  0  0  0  0  0  0
   28.7440   32.5160   15.8680 C   0  0  0  0  0  0  0  0  0  0  0  0
   29.7880   31.6810   16.1870 C   0  0  0  0  0  0  0  0  0  0  0  0
   29.5090   30.5080   16.9230 N   0  0  0  0  0  0  0  0  0  0  0  0
   29.9980   30.3210   17.8150 H   0  0  0  0  0  0  0  0  0  0  0  0
   28.8110   29.8350   16.5620 H   0  0  0  0  0  0  0  0  0  0  0  0
   29.8670   25.5550   16.9770 C   0  0  0  0  0  0  0  0  0  0  0  0
   28.3450   25.7220   17.0260 C   0  0  0  0  0  0  0  0  0  0  0  0
   27.6020   24.4000   16.9160 C   0  0  0  0  0  0  0  0  0  0  0  0
   26.1500   24.5340   17.2820 C   0  0  0  0  0  0  0  0  0  0  0  0
   25.9550   25.7770   18.1440 C   0  0  0  0  0  0  0  0  0  0  0  0
   24.6420   25.7330   18.8300 N   0  0  0  0  0  0  0  0  0  0  0  0
  1  4  1  0  0  0  0
  1  5  1  0  0  0  0
  2  1  1  0  0  0  0
  3  2  2  0  0  0  0
  6  5  1  6  0  0  0
  6  7  1  0  0  0  0
  7 27  1  6  0  0  0
  8  7  1  1  0  0  0
  8 13  1  0  0  0  0
  9 16  1  6  0  0  0
  9 10  1  0  0  0  0
  9 14  1  0  0  0  0
 10 12  1  0  0  0  0
 11  8  1  0  0  0  0
 11  9  1  0  0  0  0
 12 13  1  0  0  0  0
 12 20  1  1  0  0  0
 13 22  1  6  0  0  0
 14 15  1  0  0  0  0
 17 16  2  0  0  0  0
 18 16  1  0  0  0  0
 19 18  1  0  0  0  0
 20 21  1  0  0  0  0
 22 23  1  0  0  0  0
 23 25  1  0  0  0  0
 23 26  2  0  0  0  0
 24 22  1  0  0  0  0
 27 28  1  0  0  0  0
 29  6  1  0  0  0  0
 30 29  1  0  0  0  0
 31  2  1  0  0  0  0
 32 31  1  0  0  0  0
 32 33  1  0  0  0  0
 33 34  2  0  0  0  0
 34 36  1  0  0  0  0
 35 33  1  0  0  0  0
 35 37  2  0  0  0  0
 36 38  1  0  0  0  0
 37 36  1  0  0  0  0
 38 39  2  0  0  0  0
 38 40  1  0  0  0  0
 39 41  1  0  0  0  0
 40 42  2  0  0  0  0
 41 43  2  0  0  0  0
 42 43  1  0  0  0  0
 43 44  1  0  0  0  0
 44 45  2  0  0  0  0
 44 47  1  0  0  0  0
 46 44  2  0  0  0  0
 47 48  2  0  0  0  0
 47 49  1  0  0  0  0
 48 50  1  0  0  0  0
 49 51  2  0  0  0  0
 50 52  2  0  0  0  0
 51 52  1  0  0  0  0
 52 53  1  0  0  0  0
 53 54  1  0  0  0  0
 55 53  1  0  0  0  0
 56 57  1  0  0  0  0
 58 57  1  0  0  0  0
 58 59  1  0  0  0  0
 59 60  1  0  0  0  0
 60 61  1  0  0  0  0
M  END
>  <REMARK>
 VINA RESULT:    -5.196      5.820     10.934
 INTER + INTRA:         -16.279
 INTER:                  -9.744
 INTRA:                  -6.535
 UNBOUND:                -6.527
 SMILES CC(=O)N[C@@H]1[C@@H](O)C[C@](O)(C(=O)O)O[C@H]1C(O)[C@H](O)CNC(=O)OCc1cn(-c2ccc(S(=O)(=O)c3ccc(N)cc3)cc2)nn1
 SMILES IDX 21 1 22 2 23 3 20 5 18 6 16 7 15 8 9 9 8 10 14 11 6 12 5 13
 SMILES IDX 10 14 11 16 12 17 13 18 7 20 4 22 2 23 1 25 3 26 17 27 19 29
 SMILES IDX 24 31 25 32 26 33 27 34 46 35 28 36 45 37 29 38 30 39 44 40
 SMILES IDX 31 41 43 42 32 43 33 44 34 45 35 46 36 47 37 48 42 49 38 50
 SMILES IDX 41 51 39 52 40 53
 H PARENT 21 4 10 15 13 19 7 21 4 24 17 28 19 30 40 54 40 55
 Flexibility Score: inf
  4 active torsions:
  status: ('A' for Active; 'I' for Inactive)
    1  A    between atoms: CA   and  CB  
    2  A    between atoms: CB   and  CG  
    3  A    between atoms: CG   and  CD  
    4  A    between atoms: CD   and  CE  

>  <TORSDO>
F 18

>  <BEGIN_>
RES LYS A 131

$$$$
ligand_77_pose_9_2HRL.pdbqt
 OpenBabel07062320523D

  6  5  0  0  0  0  0  0  0  0999 V2000
   33.1930   34.6630    9.2900 C   0  0  0  0  0  0  0  0  0  0  0  0
   32.0600   35.3600   10.0340 C   0  0  0  0  0  0  0  0  0  0  0  0
   30.8950   35.7260    9.1510 C   0  0  0  0  0  0  0  0  0  0  0  0
   30.2940   34.4830    8.5130 C   0  0  0  0  0  0  0  0  0  0  0  0
   28.9880   34.8190    7.8190 C   0  0  0  0  0  0  0  0  0  0  0  0
   28.8410   36.2900    7.6360 N   0  0  0  0  0  0  0  0  0  0  0  0
  1  2  1  0  0  0  0
  3  2  1  0  0  0  0
  4  3  1  0  0  0  0
  5  4  1  0  0  0  0
  6  5  1  0  0  0  0
M  END
>  <EGIN_R>
ES LYS A 135

>  <REMARK>
  4 active torsions:
  status: ('A' for Active; 'I' for Inactive)
    5  A    between atoms: CA   and  CB  
    6  A    between atoms: CB   and  CG  
    7  A    between atoms: CG   and  CD  
    8  A    between atoms: CD   and  CE  

$$$$
