ligand_27_pose_6_2HRL.pdbqt
 OpenBabel07062320523D

 50 51  0  0  1  0  0  0  0  0999 V2000
   19.9070   36.0920    8.1070 C   0  0  0  0  0  0  0  0  0  0  0  0
   21.3690   35.8740    7.8400 C   0  0  2  0  0  0  0  0  0  0  0  0
   22.2290   36.0960    9.0500 C   0  0  2  0  0  0  0  0  0  0  0  0
   23.6070   36.6290    8.6480 C   0  0  2  0  0  0  0  0  0  0  0  0
   25.3510   35.5900    9.8350 C   0  0  2  0  0  0  0  0  0  0  0  0
   25.9520   36.9640   10.0990 C   0  0  0  0  0  0  0  0  0  0  0  0
   24.4990   35.6420    8.7870 O   0  0  0  0  0  0  0  0  0  0  0  0
   24.7600   37.8010   10.5580 C   0  0  1  0  0  0  0  0  0  0  0  0
   23.8340   37.9050    9.3770 C   0  0  1  0  0  0  0  0  0  0  0  0
   24.7710   35.1920   11.0320 O   0  0  0  0  0  0  0  0  0  0  0  0
   25.0220   35.8420   11.7330 H   0  0  0  0  0  0  0  0  0  0  0  0
   26.4370   34.6380    9.5040 C   0  0  0  0  0  0  0  0  0  0  0  0
   26.5450   34.2230    8.3270 O   0  0  0  0  0  0  0  0  0  0  0  0
   27.3480   34.1810   10.4450 O   0  0  0  0  0  0  0  0  0  0  0  0
   27.0260   33.4950   11.1370 H   0  0  0  0  0  0  0  0  0  0  0  0
   24.0690   37.1800   11.5930 O   0  0  0  0  0  0  0  0  0  0  0  0
   24.6510   37.0050   12.3850 H   0  0  0  0  0  0  0  0  0  0  0  0
   24.3880   38.9130    8.4970 N   0  0  0  0  0  0  0  0  0  0  0  0
   23.5170   39.7520    7.7560 C   0  0  0  0  0  0  0  0  0  0  0  0
   25.4360   39.0380    8.3910 H   0  0  0  0  0  0  0  0  0  0  0  0
   24.0920   40.7830    6.8540 C   0  0  0  0  0  0  0  0  0  0  0  0
   22.2710   39.6170    7.8680 O   0  0  0  0  0  0  0  0  0  0  0  0
   22.3760   34.8340    9.6660 O   0  0  0  0  0  0  0  0  0  0  0  0
   22.9460   34.2540    9.1430 H   0  0  0  0  0  0  0  0  0  0  0  0
   21.7780   36.7590    6.8270 O   0  0  0  0  0  0  0  0  0  0  0  0
   22.7420   36.6790    6.7130 H   0  0  0  0  0  0  0  0  0  0  0  0
   19.5120   35.3740    9.3140 N   0  0  0  0  0  0  0  0  0  0  0  0
   18.8880   36.0540   10.3900 C   0  0  0  0  0  0  0  0  0  0  0  0
   19.7040   34.3530    9.3590 H   0  0  0  0  0  0  0  0  0  0  0  0
   18.6770   37.2890   10.2930 O   0  0  0  0  0  0  0  0  0  0  0  0
   18.4980   35.4110   11.5530 O   0  0  0  0  0  0  0  0  0  0  0  0
   19.1850   35.7140   12.7470 C   0  0  0  0  0  0  0  0  0  0  0  0
   20.4840   34.9920   12.7630 C   0  0  0  0  0  0  0  0  0  0  0  0
   20.6760   33.6410   12.9940 C   0  0  0  0  0  0  0  0  0  0  0  0
   21.7190   35.4870   12.5610 N   0  0  0  0  0  0  0  0  0  0  0  0
   21.9980   33.3560   12.9260 N   0  0  0  0  0  0  0  0  0  0  0  0
   22.6010   34.5030   12.6620 N   0  0  0  0  0  0  0  0  0  0  0  0
   22.6070   32.0830   13.1060 C   0  0  0  0  0  0  0  0  0  0  0  0
   22.0650   30.9850   12.4730 C   0  0  0  0  0  0  0  0  0  0  0  0
   23.7240   31.8810   13.8880 C   0  0  0  0  0  0  0  0  0  0  0  0
   22.6220   29.7240   12.6170 C   0  0  0  0  0  0  0  0  0  0  0  0
   24.3040   30.6420   14.0540 C   0  0  0  0  0  0  0  0  0  0  0  0
   23.7380   29.5620   13.4070 C   0  0  0  0  0  0  0  0  0  0  0  0
   25.7380   30.4270   15.0690 Cl  0  0  0  0  0  0  0  0  0  0  0  0
   29.8670   25.5550   16.9770 C   0  0  0  0  0  0  0  0  0  0  0  0
   28.3450   25.7220   17.0260 C   0  0  0  0  0  0  0  0  0  0  0  0
   27.6010   24.4030   16.8860 C   0  0  0  0  0  0  0  0  0  0  0  0
   26.1640   24.5150   17.3130 C   0  0  0  0  0  0  0  0  0  0  0  0
   26.0980   24.8670   18.7950 C   0  0  0  0  0  0  0  0  0  0  0  0
   25.3820   23.8110   19.5480 N   0  0  0  0  0  0  0  0  0  0  0  0
  1 27  1  0  0  0  0
  2  1  1  1  0  0  0
  2  3  1  0  0  0  0
  3 23  1  6  0  0  0
  4  7  1  0  0  0  0
  4  3  1  1  0  0  0
  4  9  1  0  0  0  0
  5 12  1  6  0  0  0
  5  6  1  0  0  0  0
  5 10  1  0  0  0  0
  6  8  1  0  0  0  0
  7  5  1  0  0  0  0
  8 16  1  1  0  0  0
  9 18  1  6  0  0  0
  9  8  1  0  0  0  0
 10 11  1  0  0  0  0
 12 14  1  0  0  0  0
 13 12  2  0  0  0  0
 14 15  1  0  0  0  0
 16 17  1  0  0  0  0
 19 22  2  0  0  0  0
 19 18  1  0  0  0  0
 20 18  1  0  0  0  0
 21 19  1  0  0  0  0
 24 23  1  0  0  0  0
 25  2  1  0  0  0  0
 26 25  1  0  0  0  0
 27 29  1  0  0  0  0
 27 28  1  0  0  0  0
 28 31  1  0  0  0  0
 30 28  2  0  0  0  0
 31 32  1  0  0  0  0
 32 33  1  0  0  0  0
 33 34  2  0  0  0  0
 35 37  2  0  0  0  0
 35 33  1  0  0  0  0
 36 34  1  0  0  0  0
 36 38  1  0  0  0  0
 37 36  1  0  0  0  0
 38 40  2  0  0  0  0
 39 41  2  0  0  0  0
 39 38  1  0  0  0  0
 40 42  1  0  0  0  0
 41 43  1  0  0  0  0
 42 44  1  0  0  0  0
 43 42  2  0  0  0  0
 45 46  1  0  0  0  0
 47 46  1  0  0  0  0
 47 48  1  0  0  0  0
 48 49  1  0  0  0  0
 49 50  1  0  0  0  0
M  END
>  <REMARK>
 VINA RESULT:    -5.691      7.700     13.010
 INTER + INTRA:         -14.347
 INTER:                  -7.792
 INTRA:                  -6.555
 UNBOUND:                -4.497
 SMILES CC(=O)N[C@@H]1[C@@H](O)C[C@](O)(C(=O)O)O[C@H]1C(O)[C@H](O)CNC(=O)OCc1cn(-c2cccc(Cl)c2)nn1
 SMILES IDX 20 1 18 2 16 3 15 4 9 5 8 6 14 7 6 8 5 9 10 10 11 12 12 13
 SMILES IDX 13 14 7 16 4 18 2 19 1 21 3 22 17 23 19 25 21 27 22 28 23 30
 SMILES IDX 24 31 25 32 26 33 27 34 37 35 28 36 36 37 29 38 30 39 35 40
 SMILES IDX 31 41 33 42 32 43 34 44
 H PARENT 10 11 13 15 7 17 4 20 17 24 19 26 21 29
 Flexibility Score: inf
  4 active torsions:
  status: ('A' for Active; 'I' for Inactive)
    1  A    between atoms: CA   and  CB  
    2  A    between atoms: CB   and  CG  
    3  A    between atoms: CG   and  CD  
    4  A    between atoms: CD   and  CE  

>  <TORSDO>
F 15

>  <BEGIN_>
RES LYS A 131

$$$$
ligand_27_pose_6_2HRL.pdbqt
 OpenBabel07062320523D

  6  5  0  0  0  0  0  0  0  0999 V2000
   33.1930   34.6630    9.2900 C   0  0  0  0  0  0  0  0  0  0  0  0
   32.0600   35.3600   10.0340 C   0  0  0  0  0  0  0  0  0  0  0  0
   30.6940   34.8250    9.6900 C   0  0  0  0  0  0  0  0  0  0  0  0
   30.6180   34.4560    8.2160 C   0  0  0  0  0  0  0  0  0  0  0  0
   29.5770   35.3020    7.5090 C   0  0  0  0  0  0  0  0  0  0  0  0
   29.2480   36.5200    8.2990 N   0  0  0  0  0  0  0  0  0  0  0  0
  1  2  1  0  0  0  0
  3  2  1  0  0  0  0
  4  3  1  0  0  0  0
  5  4  1  0  0  0  0
  5  6  1  0  0  0  0
M  END
>  <EGIN_R>
ES LYS A 135

>  <REMARK>
  4 active torsions:
  status: ('A' for Active; 'I' for Inactive)
    5  A    between atoms: CA   and  CB  
    6  A    between atoms: CB   and  CG  
    7  A    between atoms: CG   and  CD  
    8  A    between atoms: CD   and  CE  

$$$$
