ligand_17_pose_15_2HRL.pdbqt
 OpenBabel07062320523D

 50 50  0  0  1  0  0  0  0  0999 V2000
   26.0360   32.3290   15.0090 N   0  0  0  0  0  0  0  0  0  0  0  0
   25.0320   31.3140   15.0510 C   0  0  0  0  0  0  0  0  0  0  0  0
   23.8420   31.6040   14.8350 O   0  0  0  0  0  0  0  0  0  0  0  0
   27.0040   32.0150   15.2000 H   0  0  0  0  0  0  0  0  0  0  0  0
   25.7660   33.7040   14.7260 C   0  0  0  0  0  0  0  0  0  0  0  0
   26.8530   34.3920   13.9490 C   0  0  2  0  0  0  0  0  0  0  0  0
   28.0550   34.6420   14.8330 C   0  0  1  0  0  0  0  0  0  0  0  0
   29.2300   33.8030   14.4180 C   0  0  2  0  0  0  0  0  0  0  0  0
   29.3500   32.5060   16.3770 C   0  0  2  0  0  0  0  0  0  0  0  0
   30.4900   33.3940   16.8570 C   0  0  0  0  0  0  0  0  0  0  0  0
   29.1450   32.5790   15.0300 O   0  0  0  0  0  0  0  0  0  0  0  0
   31.3600   33.6770   15.6280 C   0  0  1  0  0  0  0  0  0  0  0  0
   30.5350   34.4700   14.6790 C   0  0  1  0  0  0  0  0  0  0  0  0
   28.2400   32.7980   17.1660 O   0  0  0  0  0  0  0  0  0  0  0  0
   27.9750   32.0070   17.7150 H   0  0  0  0  0  0  0  0  0  0  0  0
   29.7410   31.0910   16.6710 C   0  0  0  0  0  0  0  0  0  0  0  0
   30.7140   30.8040   17.4010 O   0  0  0  0  0  0  0  0  0  0  0  0
   29.0000   30.0690   16.1170 O   0  0  0  0  0  0  0  0  0  0  0  0
   28.9310   29.9040   15.1170 H   0  0  0  0  0  0  0  0  0  0  0  0
   32.5000   34.3510   16.0660 O   0  0  0  0  0  0  0  0  0  0  0  0
   32.8610   34.8350   15.2570 H   0  0  0  0  0  0  0  0  0  0  0  0
   31.2440   34.8240   13.4640 N   0  0  0  0  0  0  0  0  0  0  0  0
   31.9650   36.0410   13.3080 C   0  0  0  0  0  0  0  0  0  0  0  0
   31.2540   34.1770   12.6250 H   0  0  0  0  0  0  0  0  0  0  0  0
   32.6790   36.3550   12.0300 C   0  0  0  0  0  0  0  0  0  0  0  0
   32.0110   36.8660   14.2410 O   0  0  0  0  0  0  0  0  0  0  0  0
   28.3180   36.0170   14.6930 O   0  0  0  0  0  0  0  0  0  0  0  0
   29.1320   36.1860   15.2380 H   0  0  0  0  0  0  0  0  0  0  0  0
   26.3660   35.4980   13.3130 O   0  0  0  0  0  0  0  0  0  0  0  0
   26.4600   35.3930   12.3340 H   0  0  0  0  0  0  0  0  0  0  0  0
   25.3260   29.9890   15.3260 O   0  0  0  0  0  0  0  0  0  0  0  0
   24.7960   29.3160   16.4600 C   0  0  0  0  0  0  0  0  0  0  0  0
   25.8690   29.2300   17.4830 C   0  0  0  0  0  0  0  0  0  0  0  0
   26.3300   28.0280   18.0180 C   0  0  0  0  0  0  0  0  0  0  0  0
   26.5880   30.1870   18.0850 N   0  0  0  0  0  0  0  0  0  0  0  0
   27.2860   28.3120   18.8980 N   0  0  0  0  0  0  0  0  0  0  0  0
   27.4330   29.6190   18.9290 N   0  0  0  0  0  0  0  0  0  0  0  0
   28.0310   27.3640   19.6820 C   0  0  0  0  0  0  0  0  0  0  0  0
   28.5460   28.0610   20.9280 C   0  0  0  0  0  0  0  0  0  0  0  0
   29.9600   28.2570   20.9310 N   0  0  0  0  0  0  0  0  0  0  0  0
   30.7330   27.0810   21.1480 C   0  0  0  0  0  0  0  0  0  0  0  0
   30.5500   26.6900   22.6220 C   0  0  0  0  0  0  0  0  0  0  0  0
   30.3750   29.4320   21.6210 C   0  0  0  0  0  0  0  0  0  0  0  0
   31.1110   30.4180   20.7690 C   0  0  0  0  0  0  0  0  0  0  0  0
   29.8670   25.5550   16.9770 C   0  0  0  0  0  0  0  0  0  0  0  0
   28.3450   25.7220   17.0260 C   0  0  0  0  0  0  0  0  0  0  0  0
   27.6010   24.4050   16.8680 C   0  0  0  0  0  0  0  0  0  0  0  0
   26.5420   24.2240   17.9200 C   0  0  0  0  0  0  0  0  0  0  0  0
   25.1920   23.9900   17.2480 C   0  0  0  0  0  0  0  0  0  0  0  0
   24.7440   22.5930   17.4550 N   0  0  0  0  0  0  0  0  0  0  0  0
  1  2  1  0  0  0  0
  1  4  1  0  0  0  0
  2 31  1  0  0  0  0
  3  2  2  0  0  0  0
  5  1  1  0  0  0  0
  6  5  1  1  0  0  0
  6  7  1  0  0  0  0
  7 27  1  6  0  0  0
  8 13  1  0  0  0  0
  8  7  1  1  0  0  0
  8 11  1  0  0  0  0
  9 16  1  1  0  0  0
  9 10  1  0  0  0  0
  9 14  1  0  0  0  0
 11  9  1  0  0  0  0
 12 20  1  1  0  0  0
 12 10  1  0  0  0  0
 13 22  1  6  0  0  0
 13 12  1  0  0  0  0
 14 15  1  0  0  0  0
 16 17  2  0  0  0  0
 18 16  1  0  0  0  0
 19 18  1  0  0  0  0
 21 20  1  0  0  0  0
 23 22  1  0  0  0  0
 23 26  2  0  0  0  0
 24 22  1  0  0  0  0
 25 23  1  0  0  0  0
 27 28  1  0  0  0  0
 29  6  1  0  0  0  0
 30 29  1  0  0  0  0
 31 32  1  0  0  0  0
 32 33  1  0  0  0  0
 33 34  2  0  0  0  0
 33 35  1  0  0  0  0
 34 36  1  0  0  0  0
 35 37  2  0  0  0  0
 36 37  1  0  0  0  0
 36 38  1  0  0  0  0
 38 39  1  0  0  0  0
 39 40  1  0  0  0  0
 40 41  1  0  0  0  0
 40 43  1  0  0  0  0
 41 42  1  0  0  0  0
 44 43  1  0  0  0  0
 45 46  1  0  0  0  0
 47 46  1  0  0  0  0
 47 48  1  0  0  0  0
 49 50  1  0  0  0  0
 49 48  1  0  0  0  0
M  END
>  <REMARK>
 VINA RESULT:    -3.472      2.825      7.081
 INTER + INTRA:         -13.979
 INTER:                  -7.670
 INTRA:                  -6.309
 UNBOUND:                -7.158
 SMILES CCN(CC)CCn1cc(COC(=O)NC[C@@H](O)C(O)[C@@H]2O[C@@](O)(C(=O)O)C[C@H](O)[C@H]2NC(C)=O)nn1
 SMILES IDX 15 1 13 2 14 3 16 5 17 6 19 7 21 8 23 9 28 10 22 11 29 12
 SMILES IDX 31 13 24 14 25 16 26 17 27 18 30 20 32 22 33 23 34 25 35 26
 SMILES IDX 20 27 18 29 12 31 11 32 10 33 9 34 36 35 8 36 37 37 7 38
 SMILES IDX 6 39 3 40 2 41 1 42 4 43 5 44
 H PARENT 15 4 24 15 27 19 30 21 32 24 20 28 18 30
 Flexibility Score: inf
  4 active torsions:
  status: ('A' for Active; 'I' for Inactive)
    1  A    between atoms: CA   and  CB  
    2  A    between atoms: CB   and  CG  
    3  A    between atoms: CG   and  CD  
    4  A    between atoms: CD   and  CE  

>  <TORSDO>
F 19

>  <BEGIN_>
RES LYS A 131

$$$$
ligand_17_pose_15_2HRL.pdbqt
 OpenBabel07062320523D

  6  5  0  0  0  0  0  0  0  0999 V2000
   33.1930   34.6630    9.2900 C   0  0  0  0  0  0  0  0  0  0  0  0
   32.0600   35.3600   10.0340 C   0  0  0  0  0  0  0  0  0  0  0  0
   30.7030   34.7650    9.7590 C   0  0  0  0  0  0  0  0  0  0  0  0
   30.5400   34.4630    8.2770 C   0  0  0  0  0  0  0  0  0  0  0  0
   29.3910   35.2630    7.6940 C   0  0  0  0  0  0  0  0  0  0  0  0
   28.6780   36.0280    8.7530 N   0  0  0  0  0  0  0  0  0  0  0  0
  1  2  1  0  0  0  0
  3  2  1  0  0  0  0
  4  3  1  0  0  0  0
  5  4  1  0  0  0  0
  5  6  1  0  0  0  0
M  END
>  <EGIN_R>
ES LYS A 135

>  <REMARK>
  4 active torsions:
  status: ('A' for Active; 'I' for Inactive)
    5  A    between atoms: CA   and  CB  
    6  A    between atoms: CB   and  CG  
    7  A    between atoms: CG   and  CD  
    8  A    between atoms: CD   and  CE  

$$$$
