ligand_25_pose_19_2HRL.pdbqt
 OpenBabel07062320523D

 56 59  0  0  1  0  0  0  0  0999 V2000
   25.2420   42.1760    9.7610 C   0  0  0  0  0  0  0  0  0  0  0  0
   24.9790   40.7680   10.1490 C   0  0  2  0  0  0  0  0  0  0  0  0
   26.0780   40.1540   10.9560 C   0  0  1  0  0  0  0  0  0  0  0  0
   26.0820   38.6520   11.0290 C   0  0  2  0  0  0  0  0  0  0  0  0
   25.0980   37.8860   13.0110 C   0  0  2  0  0  0  0  0  0  0  0  0
   25.8040   36.5460   13.0050 C   0  0  0  0  0  0  0  0  0  0  0  0
   24.9260   38.3040   11.7300 O   0  0  0  0  0  0  0  0  0  0  0  0
   27.0130   36.6370   12.1490 C   0  0  1  0  0  0  0  0  0  0  0  0
   27.3130   38.0650   11.6650 C   0  0  1  0  0  0  0  0  0  0  0  0
   25.7930   38.7100   13.8550 O   0  0  0  0  0  0  0  0  0  0  0  0
   26.7550   38.5100   13.8630 H   0  0  0  0  0  0  0  0  0  0  0  0
   23.7400   37.6330   13.5840 C   0  0  0  0  0  0  0  0  0  0  0  0
   23.6240   37.4120   14.8110 O   0  0  0  0  0  0  0  0  0  0  0  0
   22.5900   37.6300   12.8080 O   0  0  0  0  0  0  0  0  0  0  0  0
   22.5030   38.2640   12.0020 H   0  0  0  0  0  0  0  0  0  0  0  0
   28.1670   36.1620   12.7500 O   0  0  0  0  0  0  0  0  0  0  0  0
   28.0250   35.8230   13.6630 H   0  0  0  0  0  0  0  0  0  0  0  0
   28.3420   37.8850   10.6660 N   0  0  0  0  0  0  0  0  0  0  0  0
   29.7160   38.1870   10.8530 C   0  0  0  0  0  0  0  0  0  0  0  0
   28.0550   37.5020    9.7410 H   0  0  0  0  0  0  0  0  0  0  0  0
   30.7240   37.9720    9.7650 C   0  0  0  0  0  0  0  0  0  0  0  0
   30.0640   38.6460   11.9710 O   0  0  0  0  0  0  0  0  0  0  0  0
   27.3490   40.6370   10.6680 O   0  0  0  0  0  0  0  0  0  0  0  0
   27.6280   41.4040   11.1930 H   0  0  0  0  0  0  0  0  0  0  0  0
   24.8370   39.9880    9.0030 O   0  0  0  0  0  0  0  0  0  0  0  0
   25.1970   40.4130    8.2010 H   0  0  0  0  0  0  0  0  0  0  0  0
   26.2040   42.3730    8.7420 N   0  0  0  0  0  0  0  0  0  0  0  0
   25.9010   42.4320    7.3700 C   0  0  0  0  0  0  0  0  0  0  0  0
   27.2350   42.4880    9.0110 H   0  0  0  0  0  0  0  0  0  0  0  0
   24.7560   42.3250    6.9430 O   0  0  0  0  0  0  0  0  0  0  0  0
   26.9130   42.6180    6.4100 O   0  0  0  0  0  0  0  0  0  0  0  0
   27.5420   41.5660    5.7440 C   0  0  0  0  0  0  0  0  0  0  0  0
   27.4450   40.2670    6.4530 C   0  0  0  0  0  0  0  0  0  0  0  0
   26.9360   39.0690    6.0140 C   0  0  0  0  0  0  0  0  0  0  0  0
   27.8730   40.0790    7.7030 N   0  0  0  0  0  0  0  0  0  0  0  0
   27.0720   38.2010    7.0100 N   0  0  0  0  0  0  0  0  0  0  0  0
   27.6390   38.8260    8.0210 N   0  0  0  0  0  0  0  0  0  0  0  0
   26.6790   36.8000    7.0200 C   0  0  0  0  0  0  0  0  0  0  0  0
   25.4810   36.5740    7.8470 C   0  0  0  0  0  0  0  0  0  0  0  0
   27.7100   35.9290    7.5610 C   0  0  0  0  0  0  0  0  0  0  0  0
   24.2020   37.1520    7.7660 C   0  0  0  0  0  0  0  0  0  0  0  0
   25.7980   35.6430    8.7940 C   0  0  0  0  0  0  0  0  0  0  0  0
   27.1910   35.2350    8.6220 C   0  0  0  0  0  0  0  0  0  0  0  0
   29.0540   35.6930    7.2080 C   0  0  0  0  0  0  0  0  0  0  0  0
   23.2530   36.7570    8.6760 C   0  0  0  0  0  0  0  0  0  0  0  0
   24.8080   35.2680    9.7020 C   0  0  0  0  0  0  0  0  0  0  0  0
   27.9290   34.3080    9.3650 C   0  0  0  0  0  0  0  0  0  0  0  0
   29.7960   34.7900    7.9220 C   0  0  0  0  0  0  0  0  0  0  0  0
   23.5460   35.8180    9.6450 C   0  0  0  0  0  0  0  0  0  0  0  0
   29.2380   34.1060    8.9890 C   0  0  0  0  0  0  0  0  0  0  0  0
   29.8670   25.5550   16.9770 C   0  0  0  0  0  0  0  0  0  0  0  0
   28.3450   25.7220   17.0260 C   0  0  0  0  0  0  0  0  0  0  0  0
   27.6010   24.4060   16.8610 C   0  0  0  0  0  0  0  0  0  0  0  0
   26.7500   24.0820   18.0570 C   0  0  0  0  0  0  0  0  0  0  0  0
   26.2500   25.3760   18.6920 C   0  0  0  0  0  0  0  0  0  0  0  0
   24.8840   25.6950   18.2140 N   0  0  0  0  0  0  0  0  0  0  0  0
  2  1  1  6  0  0  0
  2  3  1  0  0  0  0
  3 23  1  6  0  0  0
  4  3  1  1  0  0  0
  4  9  1  0  0  0  0
  4  7  1  0  0  0  0
  5 12  1  1  0  0  0
  5 10  1  0  0  0  0
  6  5  1  0  0  0  0
  7  5  1  0  0  0  0
  8 16  1  1  0  0  0
  8  6  1  0  0  0  0
  9 18  1  6  0  0  0
  9  8  1  0  0  0  0
 10 11  1  0  0  0  0
 12 13  2  0  0  0  0
 14 12  1  0  0  0  0
 15 14  1  0  0  0  0
 16 17  1  0  0  0  0
 18 19  1  0  0  0  0
 19 22  2  0  0  0  0
 20 18  1  0  0  0  0
 21 19  1  0  0  0  0
 23 24  1  0  0  0  0
 25  2  1  0  0  0  0
 26 25  1  0  0  0  0
 27 29  1  0  0  0  0
 27  1  1  0  0  0  0
 28 27  1  0  0  0  0
 30 28  2  0  0  0  0
 31 28  1  0  0  0  0
 32 31  1  0  0  0  0
 32 33  1  0  0  0  0
 33 35  1  0  0  0  0
 34 33  2  0  0  0  0
 34 36  1  0  0  0  0
 35 37  2  0  0  0  0
 36 38  1  0  0  0  0
 36 37  1  0  0  0  0
 38 40  1  0  0  0  0
 38 39  1  0  0  0  0
 39 42  1  0  0  0  0
 40 43  1  0  0  0  0
 41 39  2  0  0  0  0
 41 45  1  0  0  0  0
 42 46  2  0  0  0  0
 43 42  1  0  0  0  0
 43 47  2  0  0  0  0
 44 40  2  0  0  0  0
 44 48  1  0  0  0  0
 45 49  2  0  0  0  0
 48 50  2  0  0  0  0
 49 46  1  0  0  0  0
 50 47  1  0  0  0  0
 51 52  1  0  0  0  0
 53 52  1  0  0  0  0
 53 54  1  0  0  0  0
 54 55  1  0  0  0  0
 56 55  1  0  0  0  0
M  END
>  <REMARK>
 VINA RESULT:    -6.242      3.794      7.135
 INTER + INTRA:         -15.382
 INTER:                  -8.324
 INTRA:                  -7.058
 UNBOUND:                -4.578
 SMILES CC(=O)N[C@@H]1[C@@H](O)C[C@](O)(C(=O)O)O[C@H]1C(O)[C@H](O)CNC(=O)OCc1cn(C2c3ccccc3-c3ccccc32)nn1
 SMILES IDX 20 1 18 2 16 3 15 4 9 5 8 6 14 7 6 8 5 9 10 10 11 12 12 13
 SMILES IDX 13 14 7 16 4 18 2 19 1 21 3 22 17 23 19 25 21 27 22 28 23 30
 SMILES IDX 24 31 25 32 26 33 27 34 43 35 28 36 42 37 29 38 30 39 41 40
 SMILES IDX 31 41 35 42 36 43 40 44 32 45 34 46 37 47 39 48 33 49 38 50
 H PARENT 10 11 13 15 7 17 4 20 17 24 19 26 21 29
 Flexibility Score: inf
  4 active torsions:
  status: ('A' for Active; 'I' for Inactive)
    1  A    between atoms: CA   and  CB  
    2  A    between atoms: CB   and  CG  
    3  A    between atoms: CG   and  CD  
    4  A    between atoms: CD   and  CE  

>  <TORSDO>
F 15

>  <BEGIN_>
RES LYS A 131

$$$$
ligand_25_pose_19_2HRL.pdbqt
 OpenBabel07062320523D

  6  5  0  0  0  0  0  0  0  0999 V2000
   33.1930   34.6630    9.2900 C   0  0  0  0  0  0  0  0  0  0  0  0
   32.0600   35.3600   10.0340 C   0  0  0  0  0  0  0  0  0  0  0  0
   32.3770   35.6520   11.4780 C   0  0  0  0  0  0  0  0  0  0  0  0
   31.2890   35.1030   12.3880 C   0  0  0  0  0  0  0  0  0  0  0  0
   31.6800   35.2670   13.8440 C   0  0  0  0  0  0  0  0  0  0  0  0
   31.8760   36.7030   14.1880 N   0  0  0  0  0  0  0  0  0  0  0  0
  1  2  1  0  0  0  0
  2  3  1  0  0  0  0
  3  4  1  0  0  0  0
  4  5  1  0  0  0  0
  5  6  1  0  0  0  0
M  END
>  <EGIN_R>
ES LYS A 135

>  <REMARK>
  4 active torsions:
  status: ('A' for Active; 'I' for Inactive)
    5  A    between atoms: CA   and  CB  
    6  A    between atoms: CB   and  CG  
    7  A    between atoms: CG   and  CD  
    8  A    between atoms: CD   and  CE  

$$$$
