ligand_44_pose_11_2HRL.pdbqt
 OpenBabel07062320523D

 51 52  0  0  1  0  0  0  0  0999 V2000
   27.8950   32.6540   18.1170 N   0  0  0  0  0  0  0  0  0  0  0  0
   27.6750   33.8520   17.3930 C   0  0  0  0  0  0  0  0  0  0  0  0
   27.9500   35.0020   17.7830 O   0  0  0  0  0  0  0  0  0  0  0  0
   27.6240   31.7180   17.6810 H   0  0  0  0  0  0  0  0  0  0  0  0
   28.4750   32.7010   19.4220 C   0  0  0  0  0  0  0  0  0  0  0  0
   29.9760   32.5640   19.4570 C   0  0  2  0  0  0  0  0  0  0  0  0
   30.4440   31.1540   19.4490 C   0  0  1  0  0  0  0  0  0  0  0  0
   30.0880   30.2770   20.5830 C   0  0  2  0  0  0  0  0  0  0  0  0
   31.8940   29.0040   21.2460 C   0  0  2  0  0  0  0  0  0  0  0  0
   31.0690   28.0360   22.0630 C   0  0  0  0  0  0  0  0  0  0  0  0
   31.2460   30.2220   21.3770 O   0  0  0  0  0  0  0  0  0  0  0  0
   29.7490   27.9220   21.3810 C   0  0  1  0  0  0  0  0  0  0  0  0
   29.4680   28.9770   20.3290 C   0  0  1  0  0  0  0  0  0  0  0  0
   31.9570   28.5170   19.9590 O   0  0  0  0  0  0  0  0  0  0  0  0
   31.1970   28.7530   19.3950 H   0  0  0  0  0  0  0  0  0  0  0  0
   33.2280   29.1060   21.8850 C   0  0  0  0  0  0  0  0  0  0  0  0
   33.9500   30.1240   21.8040 O   0  0  0  0  0  0  0  0  0  0  0  0
   33.6720   27.9990   22.6020 O   0  0  0  0  0  0  0  0  0  0  0  0
   33.9720   27.1430   22.1640 H   0  0  0  0  0  0  0  0  0  0  0  0
   29.7420   26.6780   20.7070 O   0  0  0  0  0  0  0  0  0  0  0  0
   28.8330   26.3690   20.5220 H   0  0  0  0  0  0  0  0  0  0  0  0
   27.9910   29.0630   20.3680 N   0  0  0  0  0  0  0  0  0  0  0  0
   27.2030   29.2560   19.2280 C   0  0  0  0  0  0  0  0  0  0  0  0
   27.5820   28.9690   21.3290 H   0  0  0  0  0  0  0  0  0  0  0  0
   25.7190   29.3370   19.3750 C   0  0  0  0  0  0  0  0  0  0  0  0
   27.7230   29.3580   18.1070 O   0  0  0  0  0  0  0  0  0  0  0  0
   30.2830   30.6230   18.1780 O   0  0  0  0  0  0  0  0  0  0  0  0
   30.5060   31.3190   17.4950 H   0  0  0  0  0  0  0  0  0  0  0  0
   30.6100   33.3740   20.3840 O   0  0  0  0  0  0  0  0  0  0  0  0
   31.5370   33.5830   20.1530 H   0  0  0  0  0  0  0  0  0  0  0  0
   27.1020   33.7530   16.1260 O   0  0  0  0  0  0  0  0  0  0  0  0
   27.6900   32.9720   15.1140 C   0  0  0  0  0  0  0  0  0  0  0  0
   29.1610   32.9710   15.2030 C   0  0  0  0  0  0  0  0  0  0  0  0
   30.0840   33.9420   14.8940 C   0  0  0  0  0  0  0  0  0  0  0  0
   29.8510   31.8940   15.6440 N   0  0  0  0  0  0  0  0  0  0  0  0
   31.3060   33.4250   15.1580 N   0  0  0  0  0  0  0  0  0  0  0  0
   31.1210   32.1970   15.6050 N   0  0  0  0  0  0  0  0  0  0  0  0
   32.5600   34.1250   14.9690 C   0  0  0  0  0  0  0  0  0  0  0  0
   32.6060   35.2380   15.9740 C   0  0  0  0  0  0  0  0  0  0  0  0
   32.4790   34.9370   17.3220 C   0  0  0  0  0  0  0  0  0  0  0  0
   32.7760   36.5370   15.5460 C   0  0  0  0  0  0  0  0  0  0  0  0
   32.5240   35.9690   18.2220 C   0  0  0  0  0  0  0  0  0  0  0  0
   32.8230   37.5890   16.4610 C   0  0  0  0  0  0  0  0  0  0  0  0
   32.6940   37.2640   17.7880 C   0  0  0  0  0  0  0  0  0  0  0  0
   32.7540   38.6840   19.0670 Br  0  0  0  0  0  0  0  0  0  0  0  0
   29.8670   25.5550   16.9770 C   0  0  0  0  0  0  0  0  0  0  0  0
   28.3450   25.7220   17.0260 C   0  0  0  0  0  0  0  0  0  0  0  0
   27.6010   24.4010   16.9030 C   0  0  0  0  0  0  0  0  0  0  0  0
   26.1730   24.5100   17.3590 C   0  0  0  0  0  0  0  0  0  0  0  0
   25.9800   25.8190   18.1180 C   0  0  0  0  0  0  0  0  0  0  0  0
   25.8090   25.5580   19.5670 N   0  0  0  0  0  0  0  0  0  0  0  0
  1  5  1  0  0  0  0
  2  3  2  0  0  0  0
  2  1  1  0  0  0  0
  4  1  1  0  0  0  0
  6  5  1  1  0  0  0
  6 29  1  0  0  0  0
  7 27  1  6  0  0  0
  7  6  1  0  0  0  0
  8  7  1  6  0  0  0
  8 11  1  0  0  0  0
  9 14  1  6  0  0  0
  9 11  1  0  0  0  0
  9 16  1  0  0  0  0
  9 10  1  0  0  0  0
 12 20  1  6  0  0  0
 12 10  1  0  0  0  0
 13 22  1  1  0  0  0
 13  8  1  0  0  0  0
 13 12  1  0  0  0  0
 15 14  1  0  0  0  0
 16 18  1  0  0  0  0
 17 16  2  0  0  0  0
 19 18  1  0  0  0  0
 21 20  1  0  0  0  0
 22 24  1  0  0  0  0
 23 25  1  0  0  0  0
 23 22  1  0  0  0  0
 26 23  2  0  0  0  0
 28 27  1  0  0  0  0
 30 29  1  0  0  0  0
 31  2  1  0  0  0  0
 32 33  1  0  0  0  0
 32 31  1  0  0  0  0
 33 35  1  0  0  0  0
 34 36  1  0  0  0  0
 34 33  2  0  0  0  0
 36 37  1  0  0  0  0
 37 35  2  0  0  0  0
 38 36  1  0  0  0  0
 38 39  1  0  0  0  0
 39 40  1  0  0  0  0
 40 42  2  0  0  0  0
 41 39  2  0  0  0  0
 41 43  1  0  0  0  0
 43 44  2  0  0  0  0
 44 42  1  0  0  0  0
 44 45  1  0  0  0  0
 46 47  1  0  0  0  0
 48 47  1  0  0  0  0
 48 49  1  0  0  0  0
 49 50  1  0  0  0  0
 50 51  1  0  0  0  0
M  END
>  <REMARK>
 VINA RESULT:    -4.523      4.494      8.682
 INTER + INTRA:         -14.490
 INTER:                  -8.089
 INTRA:                  -6.401
 UNBOUND:                -6.398
 SMILES CC(=O)N[C@@H]1[C@@H](O)C[C@](O)(C(=O)O)O[C@H]1C(O)[C@H](O)CNC(=O)OCc1cn(Cc2ccc(Br)cc2)nn1
 SMILES IDX 21 1 22 2 23 3 20 5 18 6 16 7 15 8 9 9 8 10 14 11 6 12 5 13
 SMILES IDX 10 14 11 16 12 17 13 18 7 20 4 22 2 23 1 25 3 26 17 27 19 29
 SMILES IDX 24 31 25 32 26 33 27 34 38 35 28 36 37 37 29 38 30 39 31 40
 SMILES IDX 36 41 32 42 35 43 33 44 34 45
 H PARENT 21 4 10 15 13 19 7 21 4 24 17 28 19 30
 Flexibility Score: inf
  4 active torsions:
  status: ('A' for Active; 'I' for Inactive)
    1  A    between atoms: CA   and  CB  
    2  A    between atoms: CB   and  CG  
    3  A    between atoms: CG   and  CD  
    4  A    between atoms: CD   and  CE  

>  <TORSDO>
F 16

>  <BEGIN_>
RES LYS A 131

$$$$
ligand_44_pose_11_2HRL.pdbqt
 OpenBabel07062320523D

  6  5  0  0  0  0  0  0  0  0999 V2000
   33.1930   34.6630    9.2900 C   0  0  0  0  0  0  0  0  0  0  0  0
   32.0600   35.3600   10.0340 C   0  0  0  0  0  0  0  0  0  0  0  0
   30.8800   35.6940    9.1580 C   0  0  0  0  0  0  0  0  0  0  0  0
   30.3770   34.4510    8.4390 C   0  0  0  0  0  0  0  0  0  0  0  0
   28.8630   34.4580    8.3600 C   0  0  0  0  0  0  0  0  0  0  0  0
   28.2610   33.7680    9.5350 N   0  0  0  0  0  0  0  0  0  0  0  0
  1  2  1  0  0  0  0
  3  2  1  0  0  0  0
  4  3  1  0  0  0  0
  5  4  1  0  0  0  0
  5  6  1  0  0  0  0
M  END
>  <EGIN_R>
ES LYS A 135

>  <REMARK>
  4 active torsions:
  status: ('A' for Active; 'I' for Inactive)
    5  A    between atoms: CA   and  CB  
    6  A    between atoms: CB   and  CG  
    7  A    between atoms: CG   and  CD  
    8  A    between atoms: CD   and  CE  

$$$$
