ligand_67_pose_5_2HRL.pdbqt
 OpenBabel07062320523D

 50 51  0  0  1  0  0  0  0  0999 V2000
   26.1960   27.9990   17.9150 N   0  0  0  0  0  0  0  0  0  0  0  0
   25.2510   28.9100   17.3850 C   0  0  0  0  0  0  0  0  0  0  0  0
   24.4140   29.4670   18.1740 O   0  0  0  0  0  0  0  0  0  0  0  0
   26.8770   27.5440   17.2860 H   0  0  0  0  0  0  0  0  0  0  0  0
   26.1990   27.7190   19.3130 C   0  0  0  0  0  0  0  0  0  0  0  0
   27.5660   27.7700   19.9370 C   0  0  2  0  0  0  0  0  0  0  0  0
   28.1160   29.1610   20.0360 C   0  0  1  0  0  0  0  0  0  0  0  0
   29.2210   29.2230   21.0670 C   0  0  2  0  0  0  0  0  0  0  0  0
   31.5340   29.0270   21.2160 C   0  0  2  0  0  0  0  0  0  0  0  0
   31.3490   28.2530   22.4890 C   0  0  0  0  0  0  0  0  0  0  0  0
   30.4220   29.0980   20.4190 O   0  0  0  0  0  0  0  0  0  0  0  0
   30.2090   27.2800   22.2700 C   0  0  1  0  0  0  0  0  0  0  0  0
   28.9510   28.1150   22.0740 C   0  0  1  0  0  0  0  0  0  0  0  0
   32.5260   28.3540   20.4650 O   0  0  0  0  0  0  0  0  0  0  0  0
   33.2710   28.0630   21.0250 H   0  0  0  0  0  0  0  0  0  0  0  0
   32.1190   30.3730   21.5130 C   0  0  0  0  0  0  0  0  0  0  0  0
   33.0040   30.5760   22.3720 O   0  0  0  0  0  0  0  0  0  0  0  0
   31.6360   31.4460   20.7780 O   0  0  0  0  0  0  0  0  0  0  0  0
   32.2260   32.1400   20.3300 H   0  0  0  0  0  0  0  0  0  0  0  0
   30.4580   26.5710   21.0850 O   0  0  0  0  0  0  0  0  0  0  0  0
   29.9930   25.7010   21.0680 H   0  0  0  0  0  0  0  0  0  0  0  0
   28.5600   28.6540   23.3670 N   0  0  0  0  0  0  0  0  0  0  0  0
   27.3010   28.2970   23.9120 C   0  0  0  0  0  0  0  0  0  0  0  0
   29.2030   29.3070   23.9020 H   0  0  0  0  0  0  0  0  0  0  0  0
   26.8110   28.7960   25.2230 C   0  0  0  0  0  0  0  0  0  0  0  0
   26.5670   27.5150   23.2420 O   0  0  0  0  0  0  0  0  0  0  0  0
   28.5220   29.6330   18.7880 O   0  0  0  0  0  0  0  0  0  0  0  0
   28.8860   28.9370   18.2000 H   0  0  0  0  0  0  0  0  0  0  0  0
   28.4310   26.9780   19.1960 O   0  0  0  0  0  0  0  0  0  0  0  0
   28.7430   26.1840   19.6670 H   0  0  0  0  0  0  0  0  0  0  0  0
   25.1580   29.2500   16.0660 O   0  0  0  0  0  0  0  0  0  0  0  0
   25.5550   30.4800   15.4920 C   0  0  0  0  0  0  0  0  0  0  0  0
   26.9720   30.8060   15.7780 C   0  0  0  0  0  0  0  0  0  0  0  0
   27.4800   32.0410   16.1070 C   0  0  0  0  0  0  0  0  0  0  0  0
   28.0190   29.9660   15.7690 N   0  0  0  0  0  0  0  0  0  0  0  0
   28.8130   31.9170   16.2860 N   0  0  0  0  0  0  0  0  0  0  0  0
   29.1120   30.6490   16.0750 N   0  0  0  0  0  0  0  0  0  0  0  0
   29.7810   32.9440   16.6480 C   0  0  0  0  0  0  0  0  0  0  0  0
   31.1860   32.4880   16.3190 C   0  0  0  0  0  0  0  0  0  0  0  0
   31.7810   33.3090   15.2260 C   0  0  0  0  0  0  0  0  0  0  0  0
   32.4960   34.4150   15.6680 O   0  0  0  0  0  0  0  0  0  0  0  0
   30.8610   33.7740   14.2970 O   0  0  0  0  0  0  0  0  0  0  0  0
   32.5290   35.3110   14.6020 C   0  0  0  0  0  0  0  0  0  0  0  0
   31.3710   34.9190   13.7320 C   0  0  0  0  0  0  0  0  0  0  0  0
   29.8670   25.5550   16.9770 C   0  0  0  0  0  0  0  0  0  0  0  0
   28.3450   25.7220   17.0260 C   0  0  0  0  0  0  0  0  0  0  0  0
   27.6010   24.4040   16.8730 C   0  0  0  0  0  0  0  0  0  0  0  0
   26.5390   24.2280   17.9230 C   0  0  0  0  0  0  0  0  0  0  0  0
   25.1620   24.3560   17.2810 C   0  0  0  0  0  0  0  0  0  0  0  0
   24.1750   24.8600   18.2650 N   0  0  0  0  0  0  0  0  0  0  0  0
  1  5  1  0  0  0  0
  2  1  1  0  0  0  0
  2  3  2  0  0  0  0
  4  1  1  0  0  0  0
  6  5  1  6  0  0  0
  6  7  1  0  0  0  0
  7 27  1  6  0  0  0
  8  7  1  6  0  0  0
  8 13  1  0  0  0  0
  9 14  1  6  0  0  0
  9 16  1  0  0  0  0
  9 10  1  0  0  0  0
 11  8  1  0  0  0  0
 11  9  1  0  0  0  0
 12 20  1  6  0  0  0
 12 10  1  0  0  0  0
 13 12  1  0  0  0  0
 13 22  1  1  0  0  0
 14 15  1  0  0  0  0
 16 17  2  0  0  0  0
 18 16  1  0  0  0  0
 19 18  1  0  0  0  0
 21 20  1  0  0  0  0
 22 24  1  0  0  0  0
 22 23  1  0  0  0  0
 23 25  1  0  0  0  0
 26 23  2  0  0  0  0
 28 27  1  0  0  0  0
 29 30  1  0  0  0  0
 29  6  1  0  0  0  0
 31  2  1  0  0  0  0
 32 33  1  0  0  0  0
 32 31  1  0  0  0  0
 33 34  2  0  0  0  0
 34 36  1  0  0  0  0
 35 33  1  0  0  0  0
 35 37  2  0  0  0  0
 36 38  1  0  0  0  0
 37 36  1  0  0  0  0
 39 38  1  0  0  0  0
 40 41  1  0  0  0  0
 40 39  1  0  0  0  0
 42 40  1  0  0  0  0
 43 41  1  0  0  0  0
 44 42  1  0  0  0  0
 44 43  1  0  0  0  0
 45 46  1  0  0  0  0
 47 46  1  0  0  0  0
 47 48  1  0  0  0  0
 49 48  1  0  0  0  0
 49 50  1  0  0  0  0
M  END
>  <REMARK>
 VINA RESULT:    -4.412      3.113      6.599
 INTER + INTRA:         -14.445
 INTER:                  -8.698
 INTRA:                  -5.746
 UNBOUND:                -6.292
 SMILES CC(=O)N[C@@H]1[C@@H](O)C[C@](O)(C(=O)O)O[C@H]1C(O)[C@H](O)CNC(=O)OCc1cn(CCC2OCCO2)nn1
 SMILES IDX 21 1 22 2 23 3 20 5 18 6 16 7 15 8 9 9 8 10 14 11 6 12 5 13
 SMILES IDX 10 14 11 16 12 17 13 18 7 20 4 22 2 23 1 25 3 26 17 27 19 29
 SMILES IDX 24 31 25 32 26 33 27 34 37 35 28 36 36 37 29 38 30 39 31 40
 SMILES IDX 32 41 35 42 33 43 34 44
 H PARENT 21 4 10 15 13 19 7 21 4 24 17 28 19 30
 Flexibility Score: inf
  4 active torsions:
  status: ('A' for Active; 'I' for Inactive)
    1  A    between atoms: CA   and  CB  
    2  A    between atoms: CB   and  CG  
    3  A    between atoms: CG   and  CD  
    4  A    between atoms: CD   and  CE  

>  <TORSDO>
F 17

>  <BEGIN_>
RES LYS A 131

$$$$
ligand_67_pose_5_2HRL.pdbqt
 OpenBabel07062320523D

  6  5  0  0  0  0  0  0  0  0999 V2000
   33.1930   34.6630    9.2900 C   0  0  0  0  0  0  0  0  0  0  0  0
   32.0600   35.3600   10.0340 C   0  0  0  0  0  0  0  0  0  0  0  0
   30.7160   34.7080    9.8330 C   0  0  0  0  0  0  0  0  0  0  0  0
   30.3160   34.7440    8.3660 C   0  0  0  0  0  0  0  0  0  0  0  0
   28.8210   34.5410    8.2170 C   0  0  0  0  0  0  0  0  0  0  0  0
   28.2350   33.9400    9.4480 N   0  0  0  0  0  0  0  0  0  0  0  0
  1  2  1  0  0  0  0
  3  2  1  0  0  0  0
  4  3  1  0  0  0  0
  5  4  1  0  0  0  0
  5  6  1  0  0  0  0
M  END
>  <EGIN_R>
ES LYS A 135

>  <REMARK>
  4 active torsions:
  status: ('A' for Active; 'I' for Inactive)
    5  A    between atoms: CA   and  CB  
    6  A    between atoms: CB   and  CG  
    7  A    between atoms: CG   and  CD  
    8  A    between atoms: CD   and  CE  

$$$$
