ligand_91_pose_10_2HRL.pdbqt
 OpenBabel07062320523D

 57 60  0  0  1  0  0  0  0  0999 V2000
   21.4040   36.1610    9.4740 C   0  0  0  0  0  0  0  0  0  0  0  0
   21.9020   36.6310    8.1340 C   0  0  2  0  0  0  0  0  0  0  0  0
   22.3420   38.0520    8.3040 C   0  0  2  0  0  0  0  0  0  0  0  0
   23.8280   38.2080    8.5910 C   0  0  2  0  0  0  0  0  0  0  0  0
   25.6630   36.9130    8.8900 C   0  0  2  0  0  0  0  0  0  0  0  0
   26.0910   37.5290   10.1960 C   0  0  0  0  0  0  0  0  0  0  0  0
   24.3190   36.9370    8.7090 O   0  0  0  0  0  0  0  0  0  0  0  0
   25.0300   38.3960   10.8070 C   0  0  1  0  0  0  0  0  0  0  0  0
   24.0880   38.9990    9.8190 C   0  0  1  0  0  0  0  0  0  0  0  0
   26.0040   35.5200    8.9310 O   0  0  0  0  0  0  0  0  0  0  0  0
   26.5750   35.3000    8.1560 H   0  0  0  0  0  0  0  0  0  0  0  0
   26.4810   37.4470    7.7740 C   0  0  0  0  0  0  0  0  0  0  0  0
   27.4310   38.2510    7.9690 O   0  0  0  0  0  0  0  0  0  0  0  0
   26.2510   37.0960    6.4350 O   0  0  0  0  0  0  0  0  0  0  0  0
   25.3810   37.3600    5.9990 H   0  0  0  0  0  0  0  0  0  0  0  0
   24.3420   37.6470   11.7670 O   0  0  0  0  0  0  0  0  0  0  0  0
   24.0850   38.2050   12.5430 H   0  0  0  0  0  0  0  0  0  0  0  0
   24.5060   40.3810    9.5570 N   0  0  0  0  0  0  0  0  0  0  0  0
   23.6480   41.4940    9.7730 C   0  0  0  0  0  0  0  0  0  0  0  0
   25.4600   40.6050    9.1970 H   0  0  0  0  0  0  0  0  0  0  0  0
   24.0920   42.8960    9.5020 C   0  0  0  0  0  0  0  0  0  0  0  0
   22.4790   41.3130   10.2030 O   0  0  0  0  0  0  0  0  0  0  0  0
   21.6410   38.6230    9.3560 O   0  0  0  0  0  0  0  0  0  0  0  0
   20.9580   37.9720    9.6500 H   0  0  0  0  0  0  0  0  0  0  0  0
   20.9280   36.4700    7.1780 O   0  0  0  0  0  0  0  0  0  0  0  0
   20.1170   36.9800    7.4800 H   0  0  0  0  0  0  0  0  0  0  0  0
   22.3950   35.7930   10.4250 N   0  0  0  0  0  0  0  0  0  0  0  0
   22.1430   35.0860   11.6190 C   0  0  0  0  0  0  0  0  0  0  0  0
   23.4360   36.0470   10.2770 H   0  0  0  0  0  0  0  0  0  0  0  0
   20.9920   34.7300   11.9410 O   0  0  0  0  0  0  0  0  0  0  0  0
   23.1730   34.7420   12.5090 O   0  0  0  0  0  0  0  0  0  0  0  0
   24.3670   34.1230   12.0290 C   0  0  0  0  0  0  0  0  0  0  0  0
   25.5010   34.6680   12.8130 C   0  0  0  0  0  0  0  0  0  0  0  0
   26.8390   34.3890   12.6270 C   0  0  0  0  0  0  0  0  0  0  0  0
   25.4820   35.5340   13.8550 N   0  0  0  0  0  0  0  0  0  0  0  0
   27.5750   35.0650   13.5230 N   0  0  0  0  0  0  0  0  0  0  0  0
   26.7330   35.7550   14.2610 N   0  0  0  0  0  0  0  0  0  0  0  0
   28.9800   35.0560   13.6670 C   0  0  0  0  0  0  0  0  0  0  0  0
   29.6060   34.0610   14.4230 C   0  0  0  0  0  0  0  0  0  0  0  0
   29.7850   36.0130   13.0710 C   0  0  0  0  0  0  0  0  0  0  0  0
   28.8600   33.0810   15.0420 C   0  0  0  0  0  0  0  0  0  0  0  0
   30.9560   34.0240   14.5750 C   0  0  0  0  0  0  0  0  0  0  0  0
   31.1510   35.9560   13.2370 C   0  0  0  0  0  0  0  0  0  0  0  0
   29.1690   36.9900   12.3300 C   0  0  0  0  0  0  0  0  0  0  0  0
   29.4290   32.0790   15.7990 C   0  0  0  0  0  0  0  0  0  0  0  0
   31.5440   33.0190   15.3360 C   0  0  0  0  0  0  0  0  0  0  0  0
   31.7040   34.9730   13.9790 N   0  0  0  0  0  0  0  0  0  0  0  0
   31.9100   36.9270   12.6280 C   0  0  0  0  0  0  0  0  0  0  0  0
   29.9670   37.9630   11.7240 C   0  0  0  0  0  0  0  0  0  0  0  0
   30.8170   32.0310   15.9610 C   0  0  0  0  0  0  0  0  0  0  0  0
   31.3370   37.9440   11.8650 C   0  0  0  0  0  0  0  0  0  0  0  0
   29.8670   25.5550   16.9770 C   0  0  0  0  0  0  0  0  0  0  0  0
   28.3450   25.7220   17.0260 C   0  0  0  0  0  0  0  0  0  0  0  0
   27.6010   24.4030   16.8870 C   0  0  0  0  0  0  0  0  0  0  0  0
   26.1550   24.5240   17.2790 C   0  0  0  0  0  0  0  0  0  0  0  0
   26.0550   25.1230   18.6780 C   0  0  0  0  0  0  0  0  0  0  0  0
   25.4850   24.1360   19.6260 N   0  0  0  0  0  0  0  0  0  0  0  0
  1 27  1  0  0  0  0
  2  3  1  0  0  0  0
  2  1  1  1  0  0  0
  3 23  1  1  0  0  0
  4  3  1  1  0  0  0
  4  7  1  0  0  0  0
  4  9  1  0  0  0  0
  5 12  1  6  0  0  0
  5 10  1  0  0  0  0
  5  6  1  0  0  0  0
  6  8  1  0  0  0  0
  7  5  1  0  0  0  0
  8 16  1  1  0  0  0
  9 18  1  6  0  0  0
  9  8  1  0  0  0  0
 11 10  1  0  0  0  0
 12 13  2  0  0  0  0
 14 12  1  0  0  0  0
 15 14  1  0  0  0  0
 16 17  1  0  0  0  0
 18 19  1  0  0  0  0
 19 22  2  0  0  0  0
 20 18  1  0  0  0  0
 21 19  1  0  0  0  0
 23 24  1  0  0  0  0
 25 26  1  0  0  0  0
 25  2  1  0  0  0  0
 27 28  1  0  0  0  0
 28 30  2  0  0  0  0
 28 31  1  0  0  0  0
 29 27  1  0  0  0  0
 32 31  1  0  0  0  0
 32 33  1  0  0  0  0
 33 35  1  0  0  0  0
 34 33  2  0  0  0  0
 34 36  1  0  0  0  0
 35 37  2  0  0  0  0
 36 38  1  0  0  0  0
 36 37  1  0  0  0  0
 38 39  2  0  0  0  0
 39 42  1  0  0  0  0
 39 41  1  0  0  0  0
 40 43  1  0  0  0  0
 40 38  1  0  0  0  0
 41 45  2  0  0  0  0
 42 46  1  0  0  0  0
 43 47  1  0  0  0  0
 44 40  2  0  0  0  0
 45 50  1  0  0  0  0
 46 50  2  0  0  0  0
 47 42  2  0  0  0  0
 48 43  2  0  0  0  0
 49 51  2  0  0  0  0
 49 44  1  0  0  0  0
 51 48  1  0  0  0  0
 52 53  1  0  0  0  0
 54 53  1  0  0  0  0
 54 55  1  0  0  0  0
 55 56  1  0  0  0  0
 56 57  1  0  0  0  0
M  END
>  <REMARK>
 VINA RESULT:    -5.361      2.169      4.849
 INTER + INTRA:         -15.361
 INTER:                  -8.888
 INTRA:                  -6.473
 UNBOUND:                -6.084
 SMILES CC(=O)N[C@@H]1[C@@H](O)C[C@](O)(C(=O)O)O[C@H]1C(O)[C@H](O)CNC(=O)OCc1cn(-c2c3ccccc3nc3ccccc23)nn1
 SMILES IDX 20 1 18 2 16 3 15 4 9 5 8 6 14 7 6 8 5 9 10 10 11 12 12 13
 SMILES IDX 13 14 7 16 4 18 2 19 1 21 3 22 17 23 19 25 21 27 22 28 23 30
 SMILES IDX 24 31 25 32 26 33 27 34 44 35 28 36 43 37 29 38 30 39 42 40
 SMILES IDX 31 41 35 42 37 43 41 44 32 45 34 46 36 47 38 48 40 49 33 50
 SMILES IDX 39 51
 H PARENT 10 11 13 15 7 17 4 20 17 24 19 26 21 29
 Flexibility Score: inf
  4 active torsions:
  status: ('A' for Active; 'I' for Inactive)
    1  A    between atoms: CA   and  CB  
    2  A    between atoms: CB   and  CG  
    3  A    between atoms: CG   and  CD  
    4  A    between atoms: CD   and  CE  

>  <TORSDO>
F 15

>  <BEGIN_>
RES LYS A 131

$$$$
ligand_91_pose_10_2HRL.pdbqt
 OpenBabel07062320523D

  6  5  0  0  0  0  0  0  0  0999 V2000
   33.1930   34.6630    9.2900 C   0  0  0  0  0  0  0  0  0  0  0  0
   32.0600   35.3600   10.0340 C   0  0  0  0  0  0  0  0  0  0  0  0
   30.7020   34.7700    9.7530 C   0  0  0  0  0  0  0  0  0  0  0  0
   30.5370   34.4850    8.2680 C   0  0  0  0  0  0  0  0  0  0  0  0
   29.1440   34.8660    7.8050 C   0  0  0  0  0  0  0  0  0  0  0  0
   29.1820   35.5030    6.4600 N   0  0  0  0  0  0  0  0  0  0  0  0
  1  2  1  0  0  0  0
  3  2  1  0  0  0  0
  4  3  1  0  0  0  0
  5  4  1  0  0  0  0
  6  5  1  0  0  0  0
M  END
>  <EGIN_R>
ES LYS A 135

>  <REMARK>
  4 active torsions:
  status: ('A' for Active; 'I' for Inactive)
    5  A    between atoms: CA   and  CB  
    6  A    between atoms: CB   and  CG  
    7  A    between atoms: CG   and  CD  
    8  A    between atoms: CD   and  CE  

$$$$
