ligand_36_pose_0_2HRL.pdbqt
 OpenBabel07062320523D

 52 53  0  0  1  0  0  0  0  0999 V2000
   25.1950   28.6550   17.3130 N   0  0  0  0  0  0  0  0  0  0  0  0
   24.5780   29.9400   17.2900 C   0  0  0  0  0  0  0  0  0  0  0  0
   24.1850   30.4600   18.3920 O   0  0  0  0  0  0  0  0  0  0  0  0
   25.5070   28.2560   16.4080 H   0  0  0  0  0  0  0  0  0  0  0  0
   25.3590   27.9790   18.5480 C   0  0  0  0  0  0  0  0  0  0  0  0
   26.7680   27.8970   19.0850 C   0  0  2  0  0  0  0  0  0  0  0  0
   27.1670   29.1080   19.9040 C   0  0  2  0  0  0  0  0  0  0  0  0
   28.2160   28.8020   20.9180 C   0  0  2  0  0  0  0  0  0  0  0  0
   30.2670   27.7270   21.1500 C   0  0  2  0  0  0  0  0  0  0  0  0
   30.1700   28.2760   22.5560 C   0  0  0  0  0  0  0  0  0  0  0  0
   29.3410   28.2480   20.2960 O   0  0  0  0  0  0  0  0  0  0  0  0
   28.8230   28.0970   23.1620 C   0  0  1  0  0  0  0  0  0  0  0  0
   27.8220   27.8650   22.0160 C   0  0  1  0  0  0  0  0  0  0  0  0
   30.2010   26.3180   21.2200 O   0  0  0  0  0  0  0  0  0  0  0  0
   29.7250   26.0850   22.0700 H   0  0  0  0  0  0  0  0  0  0  0  0
   31.6130   28.0750   20.6490 C   0  0  0  0  0  0  0  0  0  0  0  0
   32.2000   29.0810   21.1080 O   0  0  0  0  0  0  0  0  0  0  0  0
   32.2210   27.3030   19.6860 O   0  0  0  0  0  0  0  0  0  0  0  0
   33.1650   26.9640   19.7280 H   0  0  0  0  0  0  0  0  0  0  0  0
   28.7500   27.0820   24.0950 O   0  0  0  0  0  0  0  0  0  0  0  0
   28.0950   26.4060   23.7400 H   0  0  0  0  0  0  0  0  0  0  0  0
   26.4790   27.9780   22.4930 N   0  0  0  0  0  0  0  0  0  0  0  0
   25.7130   26.8140   22.8440 C   0  0  0  0  0  0  0  0  0  0  0  0
   25.9960   28.9130   22.6160 H   0  0  0  0  0  0  0  0  0  0  0  0
   24.3110   26.9430   23.3400 C   0  0  0  0  0  0  0  0  0  0  0  0
   26.2060   25.6640   22.7400 O   0  0  0  0  0  0  0  0  0  0  0  0
   26.0680   29.7550   20.3690 O   0  0  0  0  0  0  0  0  0  0  0  0
   25.2570   29.2460   20.4190 H   0  0  0  0  0  0  0  0  0  0  0  0
   27.5780   27.8410   17.9220 O   0  0  0  0  0  0  0  0  0  0  0  0
   28.0490   28.6800   17.7640 H   0  0  0  0  0  0  0  0  0  0  0  0
   24.3640   30.6870   16.1460 O   0  0  0  0  0  0  0  0  0  0  0  0
   25.3490   31.6140   15.7450 C   0  0  0  0  0  0  0  0  0  0  0  0
   26.7190   31.1330   16.0410 C   0  0  0  0  0  0  0  0  0  0  0  0
   27.6530   31.6880   16.9020 C   0  0  0  0  0  0  0  0  0  0  0  0
   27.2970   30.0470   15.5130 N   0  0  0  0  0  0  0  0  0  0  0  0
   28.7520   30.9290   16.8680 N   0  0  0  0  0  0  0  0  0  0  0  0
   28.5060   29.9510   16.0230 N   0  0  0  0  0  0  0  0  0  0  0  0
   29.9770   31.1230   17.6120 C   0  0  0  0  0  0  0  0  0  0  0  0
   30.7280   32.3170   17.2220 C   0  0  0  0  0  0  0  0  0  0  0  0
   30.9630   33.3100   18.1380 C   0  0  0  0  0  0  0  0  0  0  0  0
   31.1960   32.4460   15.9240 C   0  0  0  0  0  0  0  0  0  0  0  0
   31.6660   34.4460   17.7830 C   0  0  0  0  0  0  0  0  0  0  0  0
   31.9040   33.5770   15.5410 C   0  0  0  0  0  0  0  0  0  0  0  0
   32.1310   34.5750   16.4910 C   0  0  0  0  0  0  0  0  0  0  0  0
   32.8590   35.7500   16.1110 C   0  0  0  0  0  0  0  0  0  0  0  0
   33.4390   36.7180   15.7980 N   0  0  0  0  0  0  0  0  0  0  0  0
   29.8670   25.5550   16.9770 C   0  0  0  0  0  0  0  0  0  0  0  0
   28.3450   25.7220   17.0260 C   0  0  0  0  0  0  0  0  0  0  0  0
   27.6020   24.4000   16.9150 C   0  0  0  0  0  0  0  0  0  0  0  0
   26.1650   24.5200   17.3410 C   0  0  0  0  0  0  0  0  0  0  0  0
   25.9630   23.7900   18.6640 C   0  0  0  0  0  0  0  0  0  0  0  0
   24.9150   24.4580   19.4720 N   0  0  0  0  0  0  0  0  0  0  0  0
  1  5  1  0  0  0  0
  2  1  1  0  0  0  0
  2  3  2  0  0  0  0
  4  1  1  0  0  0  0
  6  5  1  6  0  0  0
  6  7  1  0  0  0  0
  7 27  1  1  0  0  0
  8  7  1  6  0  0  0
  8 13  1  0  0  0  0
  9 16  1  6  0  0  0
  9 14  1  0  0  0  0
  9 10  1  0  0  0  0
 10 12  1  0  0  0  0
 11  8  1  0  0  0  0
 11  9  1  0  0  0  0
 12 20  1  1  0  0  0
 13 22  1  1  0  0  0
 13 12  1  0  0  0  0
 14 15  1  0  0  0  0
 16 17  2  0  0  0  0
 18 19  1  0  0  0  0
 18 16  1  0  0  0  0
 21 20  1  0  0  0  0
 22 24  1  0  0  0  0
 22 23  1  0  0  0  0
 23 25  1  0  0  0  0
 26 23  2  0  0  0  0
 27 28  1  0  0  0  0
 29  6  1  0  0  0  0
 30 29  1  0  0  0  0
 31  2  1  0  0  0  0
 32 33  1  0  0  0  0
 32 31  1  0  0  0  0
 33 34  2  0  0  0  0
 35 37  2  0  0  0  0
 35 33  1  0  0  0  0
 36 34  1  0  0  0  0
 36 38  1  0  0  0  0
 37 36  1  0  0  0  0
 39 38  1  0  0  0  0
 39 40  2  0  0  0  0
 41 39  1  0  0  0  0
 42 40  1  0  0  0  0
 43 41  2  0  0  0  0
 43 44  1  0  0  0  0
 44 42  2  0  0  0  0
 45 44  1  0  0  0  0
 46 45  3  0  0  0  0
 47 48  1  0  0  0  0
 49 48  1  0  0  0  0
 49 50  1  0  0  0  0
 50 51  1  0  0  0  0
 51 52  1  0  0  0  0
M  END
>  <REMARK>
 VINA RESULT:    -4.622      0.000      0.000
 INTER + INTRA:         -15.520
 INTER:                  -9.326
 INTRA:                  -6.194
 UNBOUND:                -6.980
 SMILES CC(=O)N[C@@H]1[C@@H](O)C[C@](O)(C(=O)O)O[C@H]1C(O)[C@H](O)CNC(=O)OCc1cn(Cc2ccc(C#N)cc2)nn1
 SMILES IDX 21 1 22 2 23 3 20 5 18 6 16 7 15 8 9 9 8 10 14 11 6 12 5 13
 SMILES IDX 10 14 11 16 12 17 13 18 7 20 4 22 2 23 1 25 3 26 17 27 19 29
 SMILES IDX 24 31 25 32 26 33 27 34 39 35 28 36 38 37 29 38 30 39 31 40
 SMILES IDX 37 41 32 42 36 43 33 44 34 45 35 46
 H PARENT 21 4 10 15 13 19 7 21 4 24 17 28 19 30
 Flexibility Score: inf
  4 active torsions:
  status: ('A' for Active; 'I' for Inactive)
    1  A    between atoms: CA   and  CB  
    2  A    between atoms: CB   and  CG  
    3  A    between atoms: CG   and  CD  
    4  A    between atoms: CD   and  CE  

>  <TORSDO>
F 17

>  <BEGIN_>
RES LYS A 131

$$$$
ligand_36_pose_0_2HRL.pdbqt
 OpenBabel07062320523D

  6  5  0  0  0  0  0  0  0  0999 V2000
   33.1930   34.6630    9.2900 C   0  0  0  0  0  0  0  0  0  0  0  0
   32.0600   35.3600   10.0340 C   0  0  0  0  0  0  0  0  0  0  0  0
   30.6990   34.7870    9.7320 C   0  0  0  0  0  0  0  0  0  0  0  0
   30.5590   34.4910    8.2470 C   0  0  0  0  0  0  0  0  0  0  0  0
   29.2050   34.9480    7.7380 C   0  0  0  0  0  0  0  0  0  0  0  0
   28.1900   34.9320    8.8280 N   0  0  0  0  0  0  0  0  0  0  0  0
  1  2  1  0  0  0  0
  3  2  1  0  0  0  0
  4  3  1  0  0  0  0
  5  4  1  0  0  0  0
  5  6  1  0  0  0  0
M  END
>  <EGIN_R>
ES LYS A 135

>  <REMARK>
  4 active torsions:
  status: ('A' for Active; 'I' for Inactive)
    5  A    between atoms: CA   and  CB  
    6  A    between atoms: CB   and  CG  
    7  A    between atoms: CG   and  CD  
    8  A    between atoms: CD   and  CE  

$$$$
