ligand_83_pose_18_2HRL.pdbqt
 OpenBabel07062320523D

 56 57  0  0  1  0  0  0  0  0999 V2000
   30.2520   36.6710   16.3050 O   0  0  0  0  0  0  0  0  0  0  0  0
   30.8780   35.4150   16.3750 C   0  0  0  0  0  0  0  0  0  0  0  0
   30.2720   34.2920   16.9470 N   0  0  0  0  0  0  0  0  0  0  0  0
   29.2920   34.4170   17.3440 H   0  0  0  0  0  0  0  0  0  0  0  0
   32.0180   35.3460   15.8950 O   0  0  0  0  0  0  0  0  0  0  0  0
   30.8790   32.9850   17.0360 C   0  0  0  0  0  0  0  0  0  0  0  0
   30.3210   32.1290   15.9320 C   0  0  2  0  0  0  0  0  0  0  0  0
   29.7920   30.8550   16.5470 C   0  0  2  0  0  0  0  0  0  0  0  0
   28.3020   30.9700   16.8450 C   0  0  2  0  0  0  0  0  0  0  0  0
   26.5670   32.4890   16.5200 C   0  0  2  0  0  0  0  0  0  0  0  0
   26.0700   32.0050   17.8690 C   0  0  0  0  0  0  0  0  0  0  0  0
   27.9020   32.1950   16.3860 O   0  0  0  0  0  0  0  0  0  0  0  0
   27.2330   31.9210   18.8320 C   0  0  1  0  0  0  0  0  0  0  0  0
   28.1150   30.7800   18.3390 C   0  0  1  0  0  0  0  0  0  0  0  0
   26.4480   33.8890   16.4310 O   0  0  0  0  0  0  0  0  0  0  0  0
   26.2250   34.2120   17.3340 H   0  0  0  0  0  0  0  0  0  0  0  0
   25.8240   31.8910   15.4040 C   0  0  0  0  0  0  0  0  0  0  0  0
   25.4480   30.7090   15.4550 O   0  0  0  0  0  0  0  0  0  0  0  0
   25.5340   32.6400   14.2780 O   0  0  0  0  0  0  0  0  0  0  0  0
   26.1870   32.7030   13.5180 H   0  0  0  0  0  0  0  0  0  0  0  0
   28.0260   33.0580   18.8320 O   0  0  0  0  0  0  0  0  0  0  0  0
   27.8790   33.5770   18.0170 H   0  0  0  0  0  0  0  0  0  0  0  0
   27.4760   29.5320   18.6480 N   0  0  0  0  0  0  0  0  0  0  0  0
   28.0950   28.5980   19.5030 C   0  0  0  0  0  0  0  0  0  0  0  0
   26.5360   29.2520   18.2620 H   0  0  0  0  0  0  0  0  0  0  0  0
   27.4240   27.3000   19.8220 C   0  0  0  0  0  0  0  0  0  0  0  0
   29.2190   28.8370   20.0160 O   0  0  0  0  0  0  0  0  0  0  0  0
   30.4250   30.6620   17.7590 O   0  0  0  0  0  0  0  0  0  0  0  0
   29.8360   30.8270   18.5320 H   0  0  0  0  0  0  0  0  0  0  0  0
   31.2590   31.8760   14.9350 O   0  0  0  0  0  0  0  0  0  0  0  0
   31.8300   31.1380   15.2640 H   0  0  0  0  0  0  0  0  0  0  0  0
   29.9010   37.2120   15.0210 C   0  0  0  0  0  0  0  0  0  0  0  0
   28.9940   36.3290   14.2950 C   0  0  0  0  0  0  0  0  0  0  0  0
   28.9100   36.2030   12.9300 C   0  0  0  0  0  0  0  0  0  0  0  0
   28.0980   35.4990   14.8490 N   0  0  0  0  0  0  0  0  0  0  0  0
   27.9560   35.2910   12.6940 N   0  0  0  0  0  0  0  0  0  0  0  0
   27.4860   34.8850   13.8490 N   0  0  0  0  0  0  0  0  0  0  0  0
   27.5450   34.8560   11.3480 C   0  0  0  0  0  0  0  0  0  0  0  0
   26.1260   35.3010   11.0740 C   0  0  2  0  0  0  0  0  0  0  0  0
   25.3080   34.4040   11.7960 O   0  0  0  0  0  0  0  0  0  0  0  0
   25.4320   34.4810   12.7600 H   0  0  0  0  0  0  0  0  0  0  0  0
   25.8560   35.2150    9.6060 C   0  0  0  0  0  0  0  0  0  0  0  0
   25.2510   36.4800    9.1790 N   0  0  0  0  0  0  0  0  0  0  0  0
   25.9140   37.5910    8.7830 C   0  0  0  0  0  0  0  0  0  0  0  0
   23.9490   36.6980    9.1120 C   0  0  0  0  0  0  0  0  0  0  0  0
   24.9840   38.5270    8.4620 C   0  0  0  0  0  0  0  0  0  0  0  0
   23.7890   37.9750    8.6650 N   0  0  0  0  0  0  0  0  0  0  0  0
   22.8740   35.8010    9.4390 N   0  0  0  0  0  0  0  0  0  0  0  0
   22.1420   35.2800    8.5830 O   0  0  0  0  0  0  0  0  0  0  0  0
   22.6390   35.4960   10.7640 O   0  0  0  0  0  0  0  0  0  0  0  0
   29.8670   25.5550   16.9770 C   0  0  0  0  0  0  0  0  0  0  0  0
   28.3450   25.7220   17.0260 C   0  0  0  0  0  0  0  0  0  0  0  0
   27.5990   24.4310   16.7270 C   0  0  0  0  0  0  0  0  0  0  0  0
   26.9790   23.8360   17.9600 C   0  0  0  0  0  0  0  0  0  0  0  0
   25.5840   24.4210   18.1620 C   0  0  0  0  0  0  0  0  0  0  0  0
   24.8170   24.3810   16.8940 N   0  0  0  0  0  0  0  0  0  0  0  0
  1  2  1  0  0  0  0
  2  3  1  0  0  0  0
  3  6  1  0  0  0  0
  3  4  1  0  0  0  0
  5  2  2  0  0  0  0
  7  8  1  0  0  0  0
  7  6  1  1  0  0  0
  8 28  1  1  0  0  0
  9  8  1  1  0  0  0
  9 14  1  0  0  0  0
 10 17  1  6  0  0  0
 10 11  1  0  0  0  0
 11 13  1  0  0  0  0
 12 10  1  0  0  0  0
 12  9  1  0  0  0  0
 13 21  1  6  0  0  0
 14 23  1  6  0  0  0
 14 13  1  0  0  0  0
 15 10  1  0  0  0  0
 15 16  1  0  0  0  0
 17 18  2  0  0  0  0
 19 17  1  0  0  0  0
 20 19  1  0  0  0  0
 22 21  1  0  0  0  0
 23 24  1  0  0  0  0
 24 26  1  0  0  0  0
 24 27  2  0  0  0  0
 25 23  1  0  0  0  0
 28 29  1  0  0  0  0
 30 31  1  0  0  0  0
 30  7  1  0  0  0  0
 32  1  1  0  0  0  0
 33 35  1  0  0  0  0
 33 32  1  0  0  0  0
 34 33  2  0  0  0  0
 36 34  1  0  0  0  0
 36 37  1  0  0  0  0
 37 35  2  0  0  0  0
 38 36  1  0  0  0  0
 39 42  1  6  0  0  0
 39 38  1  0  0  0  0
 39 40  1  0  0  0  0
 40 41  1  0  0  0  0
 43 42  1  0  0  0  0
 44 43  1  0  0  0  0
 45 43  1  0  0  0  0
 45 48  1  0  0  0  0
 46 47  1  0  0  0  0
 46 44  2  0  0  0  0
 47 45  2  0  0  0  0
 48 50  2  0  0  0  0
 49 48  2  0  0  0  0
 51 52  1  0  0  0  0
 53 52  1  0  0  0  0
 53 54  1  0  0  0  0
 54 55  1  0  0  0  0
 56 55  1  0  0  0  0
M  END
>  <REMARK>
 VINA RESULT:    -3.486      3.393      6.560
 INTER + INTRA:         -15.397
 INTER:                  -8.063
 INTRA:                  -7.335
 UNBOUND:                -8.446
 SMILES CC(=O)N[C@@H]1[C@@H](O)C[C@](O)(C(=O)O)O[C@H]1C(O)[C@H](O)CNC(=O)OCc1cn(CC(O)Cn2ccnc2[N+](=O)[O-])nn1
 SMILES IDX 24 1 22 2 21 3 23 5 20 6 18 7 16 8 15 9 9 10 8 11 14 12 6 13
 SMILES IDX 5 14 10 15 11 17 12 18 13 19 7 21 4 23 2 24 1 26 3 27 17 28
 SMILES IDX 19 30 25 32 26 33 27 34 42 35 28 36 41 37 29 38 30 39 31 40
 SMILES IDX 32 42 33 43 34 44 37 45 35 46 36 47 38 48 39 49 40 50
 H PARENT 21 4 10 16 13 20 7 22 4 25 17 29 19 31 31 41
 Flexibility Score: inf
  4 active torsions:
  status: ('A' for Active; 'I' for Inactive)
    1  A    between atoms: CA   and  CB  
    2  A    between atoms: CB   and  CG  
    3  A    between atoms: CG   and  CD  
    4  A    between atoms: CD   and  CE  

>  <TORSDO>
F 20

>  <BEGIN_>
RES LYS A 131

$$$$
ligand_83_pose_18_2HRL.pdbqt
 OpenBabel07062320523D

  6  5  0  0  0  0  0  0  0  0999 V2000
   33.1930   34.6630    9.2900 C   0  0  0  0  0  0  0  0  0  0  0  0
   32.0600   35.3600   10.0340 C   0  0  0  0  0  0  0  0  0  0  0  0
   30.7090   34.7370    9.7950 C   0  0  0  0  0  0  0  0  0  0  0  0
   30.5020   34.4550    8.3150 C   0  0  0  0  0  0  0  0  0  0  0  0
   29.2250   35.1080    7.8220 C   0  0  0  0  0  0  0  0  0  0  0  0
   29.3000   36.5900    7.9420 N   0  0  0  0  0  0  0  0  0  0  0  0
  1  2  1  0  0  0  0
  3  2  1  0  0  0  0
  4  3  1  0  0  0  0
  5  6  1  0  0  0  0
  5  4  1  0  0  0  0
M  END
>  <EGIN_R>
ES LYS A 135

>  <REMARK>
  4 active torsions:
  status: ('A' for Active; 'I' for Inactive)
    5  A    between atoms: CA   and  CB  
    6  A    between atoms: CB   and  CG  
    7  A    between atoms: CG   and  CD  
    8  A    between atoms: CD   and  CE  

$$$$
