ligand_34_pose_15_2HRL.pdbqt
 OpenBabel07062320523D

 69 73  0  0  1  0  0  0  0  0999 V2000
   17.5670   33.2460    9.4580 N   0  0  0  0  0  0  0  0  0  0  0  0
   17.2380   31.8470    9.4540 C   0  0  0  0  0  0  0  0  0  0  0  0
   17.1780   31.2810    8.3290 O   0  0  0  0  0  0  0  0  0  0  0  0
   17.6290   33.7620   10.3540 H   0  0  0  0  0  0  0  0  0  0  0  0
   17.8130   33.9580    8.2270 C   0  0  0  0  0  0  0  0  0  0  0  0
   19.1200   34.6730    8.3260 C   0  0  2  0  0  0  0  0  0  0  0  0
   18.9350   36.1720    8.5540 C   0  0  2  0  0  0  0  0  0  0  0  0
   20.0010   36.6990    9.5020 C   0  0  2  0  0  0  0  0  0  0  0  0
   22.2390   36.3010    8.9930 C   0  0  2  0  0  0  0  0  0  0  0  0
   22.6560   36.4430   10.4410 C   0  0  0  0  0  0  0  0  0  0  0  0
   21.0990   37.0270    8.7580 O   0  0  0  0  0  0  0  0  0  0  0  0
   21.5550   36.0420   11.3530 C   0  0  1  0  0  0  0  0  0  0  0  0
   20.2460   35.7820   10.6490 C   0  0  1  0  0  0  0  0  0  0  0  0
   22.1300   34.9610    8.7200 O   0  0  0  0  0  0  0  0  0  0  0  0
   21.2230   34.6540    8.5410 H   0  0  0  0  0  0  0  0  0  0  0  0
   23.3270   36.8880    8.1740 C   0  0  0  0  0  0  0  0  0  0  0  0
   24.5220   36.7700    8.5420 O   0  0  0  0  0  0  0  0  0  0  0  0
   23.0960   37.5770    6.9950 O   0  0  0  0  0  0  0  0  0  0  0  0
   22.1550   37.9190    6.7450 H   0  0  0  0  0  0  0  0  0  0  0  0
   21.8760   34.9060   12.0930 O   0  0  0  0  0  0  0  0  0  0  0  0
   21.6830   34.9940   13.0520 H   0  0  0  0  0  0  0  0  0  0  0  0
   19.2010   35.9580   11.6690 N   0  0  0  0  0  0  0  0  0  0  0  0
   18.5960   34.8900   12.3550 C   0  0  0  0  0  0  0  0  0  0  0  0
   18.9100   36.9400   11.8800 H   0  0  0  0  0  0  0  0  0  0  0  0
   17.5500   35.1490   13.3690 C   0  0  0  0  0  0  0  0  0  0  0  0
   18.9960   33.7170   12.0550 O   0  0  0  0  0  0  0  0  0  0  0  0
   17.6580   36.3190    9.1060 O   0  0  0  0  0  0  0  0  0  0  0  0
   17.7890   36.6770   10.0250 H   0  0  0  0  0  0  0  0  0  0  0  0
   19.9290   34.4370    7.2170 O   0  0  0  0  0  0  0  0  0  0  0  0
   20.1250   35.2610    6.7110 H   0  0  0  0  0  0  0  0  0  0  0  0
   16.9980   31.1320   10.5890 O   0  0  0  0  0  0  0  0  0  0  0  0
   17.1400   29.7320   10.6260 C   0  0  0  0  0  0  0  0  0  0  0  0
   18.4300   29.3980   11.2610 C   0  0  0  0  0  0  0  0  0  0  0  0
   19.3670   30.2930   11.7820 C   0  0  0  0  0  0  0  0  0  0  0  0
   18.9580   28.1820   11.4560 N   0  0  0  0  0  0  0  0  0  0  0  0
   20.4100   29.5940   12.2660 N   0  0  0  0  0  0  0  0  0  0  0  0
   20.1340   28.3250   12.0540 N   0  0  0  0  0  0  0  0  0  0  0  0
   21.5480   30.1920   12.8650 C   0  0  0  0  0  0  0  0  0  0  0  0
   21.5100   31.1530   13.8320 C   0  0  0  0  0  0  0  0  0  0  0  0
   22.8080   29.7690   12.4340 C   0  0  0  0  0  0  0  0  0  0  0  0
   22.6540   31.7130   14.3900 C   0  0  0  0  0  0  0  0  0  0  0  0
   23.9480   30.3050   12.9670 C   0  0  0  0  0  0  0  0  0  0  0  0
   23.8700   31.2860   13.9550 C   0  0  0  0  0  0  0  0  0  0  0  0
   22.5730   32.7420   15.4250 C   0  0  0  0  0  0  0  0  0  0  0  0
   22.7460   32.4550   16.6510 O   0  0  0  0  0  0  0  0  0  0  0  0
   22.3080   34.0420   15.0910 O   0  0  0  0  0  0  0  0  0  0  0  0
   25.1380   31.7920   14.4570 C   0  0  0  0  0  0  0  0  0  0  0  0
   25.8980   31.1670   15.4220 C   0  0  0  0  0  0  0  0  0  0  0  0
   25.6240   32.9790   13.9360 C   0  0  0  0  0  0  0  0  0  0  0  0
   25.4470   29.9810   15.9660 C   0  0  0  0  0  0  0  0  0  0  0  0
   27.1050   31.7010   15.8590 C   0  0  0  0  0  0  0  0  0  0  0  0
   26.8920   33.4970   14.4270 C   0  0  0  0  0  0  0  0  0  0  0  0
   24.9420   33.6830   12.9690 C   0  0  0  0  0  0  0  0  0  0  0  0
   26.1770   29.3140   16.9390 C   0  0  0  0  0  0  0  0  0  0  0  0
   27.8520   31.0640   16.8230 C   0  0  0  0  0  0  0  0  0  0  0  0
   27.5600   32.8250   15.3620 O   0  0  0  0  0  0  0  0  0  0  0  0
   27.3800   34.6650   13.9190 C   0  0  0  0  0  0  0  0  0  0  0  0
   25.4710   34.8480   12.4930 C   0  0  0  0  0  0  0  0  0  0  0  0
   27.3720   29.8690   17.3540 C   0  0  0  0  0  0  0  0  0  0  0  0
   26.6790   35.3520   12.9510 C   0  0  0  0  0  0  0  0  0  0  0  0
   27.1260   36.4310   12.4790 O   0  0  0  0  0  0  0  0  0  0  0  0
   28.1070   29.2120   18.3260 O   0  0  0  0  0  0  0  0  0  0  0  0
   29.0180   28.8210   18.1760 H   0  0  0  0  0  0  0  0  0  0  0  0
   29.8670   25.5550   16.9770 C   0  0  0  0  0  0  0  0  0  0  0  0
   28.3450   25.7220   17.0260 C   0  0  0  0  0  0  0  0  0  0  0  0
   27.6010   24.4030   16.8870 C   0  0  0  0  0  0  0  0  0  0  0  0
   26.1590   24.5200   17.2960 C   0  0  0  0  0  0  0  0  0  0  0  0
   25.9120   23.6720   18.5390 C   0  0  0  0  0  0  0  0  0  0  0  0
   25.5520   24.5330   19.6910 N   0  0  0  0  0  0  0  0  0  0  0  0
  1  4  1  0  0  0  0
  2  1  1  0  0  0  0
  2 31  1  0  0  0  0
  3  2  2  0  0  0  0
  5  1  1  0  0  0  0
  6  5  1  6  0  0  0
  6  7  1  0  0  0  0
  7 27  1  1  0  0  0
  8  7  1  6  0  0  0
  8 13  1  0  0  0  0
  9 16  1  6  0  0  0
  9 10  1  0  0  0  0
 10 12  1  0  0  0  0
 11  9  1  0  0  0  0
 11  8  1  0  0  0  0
 12 20  1  6  0  0  0
 13 12  1  0  0  0  0
 13 22  1  1  0  0  0
 14  9  1  0  0  0  0
 15 14  1  0  0  0  0
 16 17  2  0  0  0  0
 18 16  1  0  0  0  0
 19 18  1  0  0  0  0
 20 21  1  0  0  0  0
 22 24  1  0  0  0  0
 22 23  1  0  0  0  0
 23 25  1  0  0  0  0
 26 23  2  0  0  0  0
 27 28  1  0  0  0  0
 29  6  1  0  0  0  0
 30 29  1  0  0  0  0
 31 32  1  0  0  0  0
 32 33  1  0  0  0  0
 33 35  1  0  0  0  0
 33 34  2  0  0  0  0
 34 36  1  0  0  0  0
 35 37  2  0  0  0  0
 36 38  1  0  0  0  0
 37 36  1  0  0  0  0
 38 39  1  0  0  0  0
 39 41  2  0  0  0  0
 40 38  2  0  0  0  0
 40 42  1  0  0  0  0
 41 44  1  0  0  0  0
 42 43  2  0  0  0  0
 43 41  1  0  0  0  0
 43 47  1  0  0  0  0
 44 45  1  0  0  0  0
 46 44  2  0  0  0  0
 47 48  1  0  0  0  0
 48 51  1  0  0  0  0
 48 50  2  0  0  0  0
 49 52  1  0  0  0  0
 49 47  2  0  0  0  0
 50 54  1  0  0  0  0
 51 55  2  0  0  0  0
 52 56  1  0  0  0  0
 53 49  1  0  0  0  0
 54 59  2  0  0  0  0
 55 59  1  0  0  0  0
 56 51  1  0  0  0  0
 57 52  2  0  0  0  0
 58 60  1  0  0  0  0
 58 53  2  0  0  0  0
 59 62  1  0  0  0  0
 60 57  1  0  0  0  0
 61 60  2  0  0  0  0
 63 62  1  0  0  0  0
 64 65  1  0  0  0  0
 66 65  1  0  0  0  0
 66 67  1  0  0  0  0
 67 68  1  0  0  0  0
 68 69  1  0  0  0  0
M  END
>  <REMARK>
 VINA RESULT:    -5.348      3.958     10.439
 INTER + INTRA:         -17.756
 INTER:                 -10.609
 INTRA:                  -7.146
 UNBOUND:                -7.717
 SMILES CC(=O)N[C@@H]1[C@@H](O)C[C@](O)(C(=O)O)O[C@H]1C(O)[C@H](O)CNC(=O)OCc1cn(-c2ccc(-c3c4ccc(=O)cc-4oc4cc(O)ccc34)c(C(=O)[O-])c2)nn1
 SMILES IDX 21 1 22 2 23 3 20 5 18 6 16 7 15 8 9 9 8 10 14 11 6 12 5 13
 SMILES IDX 10 14 11 16 12 17 13 18 7 20 4 22 2 23 1 25 3 26 17 27 19 29
 SMILES IDX 24 31 25 32 26 33 27 34 55 35 28 36 54 37 29 38 53 39 30 40
 SMILES IDX 49 41 31 42 32 43 50 44 51 45 52 46 33 47 48 48 34 49 47 50
 SMILES IDX 42 51 40 52 35 53 46 54 43 55 41 56 39 57 36 58 44 59 37 60
 SMILES IDX 38 61 45 62
 H PARENT 21 4 10 15 13 19 7 21 4 24 17 28 19 30 45 63
 Flexibility Score: inf
  4 active torsions:
  status: ('A' for Active; 'I' for Inactive)
    1  A    between atoms: CA   and  CB  
    2  A    between atoms: CB   and  CG  
    3  A    between atoms: CG   and  CD  
    4  A    between atoms: CD   and  CE  

>  <TORSDO>
F 18

>  <BEGIN_>
RES LYS A 131

$$$$
ligand_34_pose_15_2HRL.pdbqt
 OpenBabel07062320523D

  6  5  0  0  0  0  0  0  0  0999 V2000
   33.1930   34.6630    9.2900 C   0  0  0  0  0  0  0  0  0  0  0  0
   32.0600   35.3600   10.0340 C   0  0  0  0  0  0  0  0  0  0  0  0
   30.7050   35.1350    9.4150 C   0  0  0  0  0  0  0  0  0  0  0  0
   29.6820   34.7700   10.4800 C   0  0  0  0  0  0  0  0  0  0  0  0
   28.4500   34.1540    9.8460 C   0  0  0  0  0  0  0  0  0  0  0  0
   28.4040   34.4300    8.3830 N   0  0  0  0  0  0  0  0  0  0  0  0
  1  2  1  0  0  0  0
  3  2  1  0  0  0  0
  3  4  1  0  0  0  0
  5  4  1  0  0  0  0
  6  5  1  0  0  0  0
M  END
>  <EGIN_R>
ES LYS A 135

>  <REMARK>
  4 active torsions:
  status: ('A' for Active; 'I' for Inactive)
    5  A    between atoms: CA   and  CB  
    6  A    between atoms: CB   and  CG  
    7  A    between atoms: CG   and  CD  
    8  A    between atoms: CD   and  CE  

$$$$
