ligand_7_pose_19_2HRL.pdbqt
 OpenBabel07062320523D

 52 53  0  0  1  0  0  0  0  0999 V2000
   30.1420   33.0360   17.6710 C   0  0  0  0  0  0  0  0  0  0  0  0
   28.9110   32.2590   17.3740 C   0  0  2  0  0  0  0  0  0  0  0  0
   29.1210   30.9720   16.6430 C   0  0  1  0  0  0  0  0  0  0  0  0
   27.9540   30.0600   16.5750 C   0  0  2  0  0  0  0  0  0  0  0  0
   25.6710   30.2560   16.1050 C   0  0  2  0  0  0  0  0  0  0  0  0
   25.4120   28.8950   16.6850 C   0  0  0  0  0  0  0  0  0  0  0  0
   26.9630   30.4940   15.7440 O   0  0  0  0  0  0  0  0  0  0  0  0
   26.5080   28.3950   17.5630 C   0  0  1  0  0  0  0  0  0  0  0  0
   27.4380   29.5760   17.8970 C   0  0  1  0  0  0  0  0  0  0  0  0
   25.2340   31.2020   17.0290 O   0  0  0  0  0  0  0  0  0  0  0  0
   24.7610   30.7120   17.7610 H   0  0  0  0  0  0  0  0  0  0  0  0
   24.8290   30.3700   14.8840 C   0  0  0  0  0  0  0  0  0  0  0  0
   24.9790   31.3250   14.0970 O   0  0  0  0  0  0  0  0  0  0  0  0
   23.8520   29.4080   14.5960 O   0  0  0  0  0  0  0  0  0  0  0  0
   23.1280   29.6410   13.9010 H   0  0  0  0  0  0  0  0  0  0  0  0
   26.0800   27.7420   18.7010 O   0  0  0  0  0  0  0  0  0  0  0  0
   26.7340   27.0030   18.8830 H   0  0  0  0  0  0  0  0  0  0  0  0
   28.4790   29.0090   18.7130 N   0  0  0  0  0  0  0  0  0  0  0  0
   28.7330   29.5910   19.9830 C   0  0  0  0  0  0  0  0  0  0  0  0
   29.0530   28.1850   18.4060 H   0  0  0  0  0  0  0  0  0  0  0  0
   29.7870   29.0810   20.9000 C   0  0  0  0  0  0  0  0  0  0  0  0
   28.0600   30.5760   20.3780 O   0  0  0  0  0  0  0  0  0  0  0  0
   29.5490   31.2770   15.3540 O   0  0  0  0  0  0  0  0  0  0  0  0
   29.9490   32.1820   15.3750 H   0  0  0  0  0  0  0  0  0  0  0  0
   27.9340   33.0600   16.7800 O   0  0  0  0  0  0  0  0  0  0  0  0
   27.9180   33.9720   17.1640 H   0  0  0  0  0  0  0  0  0  0  0  0
   30.7390   33.6270   16.4910 N   0  0  0  0  0  0  0  0  0  0  0  0
   30.7320   35.0270   16.2340 C   0  0  0  0  0  0  0  0  0  0  0  0
   31.2210   33.0420   15.7450 H   0  0  0  0  0  0  0  0  0  0  0  0
   30.1950   35.8100   17.0390 O   0  0  0  0  0  0  0  0  0  0  0  0
   31.3230   35.5520   15.0820 O   0  0  0  0  0  0  0  0  0  0  0  0
   31.2650   34.7940   13.8630 C   0  0  0  0  0  0  0  0  0  0  0  0
   29.8550   34.7720   13.3970 C   0  0  0  0  0  0  0  0  0  0  0  0
   29.3660   35.4320   12.2820 C   0  0  0  0  0  0  0  0  0  0  0  0
   28.8180   34.1400   13.9270 N   0  0  0  0  0  0  0  0  0  0  0  0
   28.0590   35.1900   12.1630 N   0  0  0  0  0  0  0  0  0  0  0  0
   27.7650   34.3880   13.2000 N   0  0  0  0  0  0  0  0  0  0  0  0
   27.1280   35.6420   11.1880 C   0  0  0  0  0  0  0  0  0  0  0  0
   26.4380   36.8180   11.3800 C   0  0  0  0  0  0  0  0  0  0  0  0
   26.8810   34.9290   10.0250 C   0  0  0  0  0  0  0  0  0  0  0  0
   26.6840   37.6000   12.6130 C   0  0  0  0  0  0  0  0  0  0  0  0
   25.5210   37.2600   10.4170 C   0  0  0  0  0  0  0  0  0  0  0  0
   25.9760   35.3740    9.0820 C   0  0  0  0  0  0  0  0  0  0  0  0
   27.6460   33.6460    9.8330 C   0  0  0  0  0  0  0  0  0  0  0  0
   25.2780   36.5480    9.2620 C   0  0  0  0  0  0  0  0  0  0  0  0
   24.2960   37.0420    8.2510 C   0  0  0  0  0  0  0  0  0  0  0  0
   29.8670   25.5550   16.9770 C   0  0  0  0  0  0  0  0  0  0  0  0
   28.3450   25.7220   17.0260 C   0  0  0  0  0  0  0  0  0  0  0  0
   27.5990   24.4310   16.7270 C   0  0  0  0  0  0  0  0  0  0  0  0
   26.9940   23.8270   17.9640 C   0  0  0  0  0  0  0  0  0  0  0  0
   25.5300   23.4890   17.7020 C   0  0  0  0  0  0  0  0  0  0  0  0
   24.8950   24.5420   16.8750 N   0  0  0  0  0  0  0  0  0  0  0  0
  2  1  1  6  0  0  0
  3 23  1  6  0  0  0
  3  2  1  0  0  0  0
  4  3  1  1  0  0  0
  4  9  1  0  0  0  0
  5 12  1  6  0  0  0
  5  6  1  0  0  0  0
  5 10  1  0  0  0  0
  6  8  1  0  0  0  0
  7  5  1  0  0  0  0
  7  4  1  0  0  0  0
  8  9  1  0  0  0  0
  8 16  1  1  0  0  0
  9 18  1  1  0  0  0
 10 11  1  0  0  0  0
 13 12  2  0  0  0  0
 14 12  1  0  0  0  0
 15 14  1  0  0  0  0
 16 17  1  0  0  0  0
 18 19  1  0  0  0  0
 19 22  2  0  0  0  0
 19 21  1  0  0  0  0
 20 18  1  0  0  0  0
 23 24  1  0  0  0  0
 25 26  1  0  0  0  0
 25  2  1  0  0  0  0
 27  1  1  0  0  0  0
 28 27  1  0  0  0  0
 28 30  2  0  0  0  0
 29 27  1  0  0  0  0
 31 28  1  0  0  0  0
 32 31  1  0  0  0  0
 33 32  1  0  0  0  0
 33 35  1  0  0  0  0
 34 33  2  0  0  0  0
 36 34  1  0  0  0  0
 36 37  1  0  0  0  0
 37 35  2  0  0  0  0
 38 39  1  0  0  0  0
 38 36  1  0  0  0  0
 39 41  1  0  0  0  0
 40 38  2  0  0  0  0
 42 39  2  0  0  0  0
 43 45  2  0  0  0  0
 43 40  1  0  0  0  0
 44 40  1  0  0  0  0
 45 42  1  0  0  0  0
 46 45  1  0  0  0  0
 47 48  1  0  0  0  0
 49 48  1  0  0  0  0
 49 50  1  0  0  0  0
 51 50  1  0  0  0  0
 52 51  1  0  0  0  0
M  END
>  <REMARK>
 VINA RESULT:    -4.554      3.161      5.883
 INTER + INTRA:         -13.799
 INTER:                  -8.683
 INTRA:                  -5.116
 UNBOUND:                -5.917
 SMILES CC(=O)N[C@@H]1[C@@H](O)C[C@](O)(C(=O)O)O[C@H]1C(O)[C@H](O)CNC(=O)OCc1cn(-c2c(C)cc(C)cc2C)nn1
 SMILES IDX 20 1 18 2 16 3 15 4 9 5 8 6 14 7 6 8 5 9 10 10 11 12 12 13
 SMILES IDX 13 14 7 16 4 18 2 19 1 21 3 22 17 23 19 25 21 27 22 28 23 30
 SMILES IDX 24 31 25 32 26 33 27 34 39 35 28 36 38 37 29 38 30 39 36 40
 SMILES IDX 31 41 32 42 35 43 37 44 33 45 34 46
 H PARENT 10 11 13 15 7 17 4 20 17 24 19 26 21 29
 Flexibility Score: inf
  4 active torsions:
  status: ('A' for Active; 'I' for Inactive)
    1  A    between atoms: CA   and  CB  
    2  A    between atoms: CB   and  CG  
    3  A    between atoms: CG   and  CD  
    4  A    between atoms: CD   and  CE  

>  <TORSDO>
F 15

>  <BEGIN_>
RES LYS A 131

$$$$
ligand_7_pose_19_2HRL.pdbqt
 OpenBabel07062320523D

  6  5  0  0  0  0  0  0  0  0999 V2000
   33.1930   34.6630    9.2900 C   0  0  0  0  0  0  0  0  0  0  0  0
   32.0600   35.3600   10.0340 C   0  0  0  0  0  0  0  0  0  0  0  0
   30.7620   35.3860    9.2680 C   0  0  0  0  0  0  0  0  0  0  0  0
   30.3760   36.8140    8.9150 C   0  0  0  0  0  0  0  0  0  0  0  0
   29.2190   36.8250    7.9340 C   0  0  0  0  0  0  0  0  0  0  0  0
   29.1510   35.5490    7.1700 N   0  0  0  0  0  0  0  0  0  0  0  0
  1  2  1  0  0  0  0
  3  2  1  0  0  0  0
  4  3  1  0  0  0  0
  5  4  1  0  0  0  0
  6  5  1  0  0  0  0
M  END
>  <EGIN_R>
ES LYS A 135

>  <REMARK>
  4 active torsions:
  status: ('A' for Active; 'I' for Inactive)
    5  A    between atoms: CA   and  CB  
    6  A    between atoms: CB   and  CG  
    7  A    between atoms: CG   and  CD  
    8  A    between atoms: CD   and  CE  

$$$$
