ligand_73_pose_2_2HRL.pdbqt
 OpenBabel07062320523D

 54 55  0  0  1  0  0  0  0  0999 V2000
   30.2480   39.4630   12.2380 N   0  0  0  0  0  0  0  0  0  0  0  0
   30.0650   38.8370   13.5000 C   0  0  0  0  0  0  0  0  0  0  0  0
   28.9230   38.7940   14.0680 O   0  0  0  0  0  0  0  0  0  0  0  0
   31.1870   39.4690   11.8090 H   0  0  0  0  0  0  0  0  0  0  0  0
   29.1220   40.0630   11.5840 C   0  0  0  0  0  0  0  0  0  0  0  0
   28.6560   39.4140   10.3310 C   0  0  2  0  0  0  0  0  0  0  0  0
   27.7170   38.2490   10.5130 C   0  0  1  0  0  0  0  0  0  0  0  0
   27.0480   37.7860    9.2560 C   0  0  2  0  0  0  0  0  0  0  0  0
   26.8630   38.1070    6.9900 C   0  0  2  0  0  0  0  0  0  0  0  0
   26.2330   36.7390    7.1250 C   0  0  0  0  0  0  0  0  0  0  0  0
   27.3230   38.6240    8.1880 O   0  0  0  0  0  0  0  0  0  0  0  0
   25.1140   36.8050    8.1090 C   0  0  1  0  0  0  0  0  0  0  0  0
   25.6260   37.4010    9.4260 C   0  0  1  0  0  0  0  0  0  0  0  0
   25.8890   38.9520    6.4760 O   0  0  0  0  0  0  0  0  0  0  0  0
   25.4290   38.4530    5.7470 H   0  0  0  0  0  0  0  0  0  0  0  0
   27.9570   37.9930    5.9940 C   0  0  0  0  0  0  0  0  0  0  0  0
   29.1660   38.0740    6.3380 O   0  0  0  0  0  0  0  0  0  0  0  0
   27.6690   37.7950    4.6580 O   0  0  0  0  0  0  0  0  0  0  0  0
   27.9280   36.9720    4.1470 H   0  0  0  0  0  0  0  0  0  0  0  0
   24.1120   37.6140    7.5410 O   0  0  0  0  0  0  0  0  0  0  0  0
   24.4850   37.9340    6.6640 H   0  0  0  0  0  0  0  0  0  0  0  0
   25.5940   36.3200   10.4240 N   0  0  0  0  0  0  0  0  0  0  0  0
   24.4770   36.0760   11.2490 C   0  0  0  0  0  0  0  0  0  0  0  0
   26.4390   35.7100   10.5210 H   0  0  0  0  0  0  0  0  0  0  0  0
   24.4860   34.9770   12.2450 C   0  0  0  0  0  0  0  0  0  0  0  0
   23.4700   36.7890   11.1450 O   0  0  0  0  0  0  0  0  0  0  0  0
   28.3710   37.1560   11.0800 O   0  0  0  0  0  0  0  0  0  0  0  0
   28.7570   36.5490   10.4280 H   0  0  0  0  0  0  0  0  0  0  0  0
   29.8060   38.9920    9.6470 O   0  0  0  0  0  0  0  0  0  0  0  0
   30.2210   38.2630   10.1900 H   0  0  0  0  0  0  0  0  0  0  0  0
   31.1590   38.2690   14.1070 O   0  0  0  0  0  0  0  0  0  0  0  0
   31.8010   37.1850   13.5090 C   0  0  0  0  0  0  0  0  0  0  0  0
   31.0270   35.9180   13.5940 C   0  0  0  0  0  0  0  0  0  0  0  0
   30.8900   35.0670   14.6820 C   0  0  0  0  0  0  0  0  0  0  0  0
   30.2970   35.3390   12.6220 N   0  0  0  0  0  0  0  0  0  0  0  0
   30.1080   34.0270   14.3570 N   0  0  0  0  0  0  0  0  0  0  0  0
   29.7580   34.2140   13.0960 N   0  0  0  0  0  0  0  0  0  0  0  0
   29.7060   32.9240   15.1610 C   0  0  0  0  0  0  0  0  0  0  0  0
   30.6540   32.1460   15.7930 C   0  0  0  0  0  0  0  0  0  0  0  0
   28.3840   32.5790   15.3490 C   0  0  0  0  0  0  0  0  0  0  0  0
   30.2850   31.0680   16.5810 C   0  0  0  0  0  0  0  0  0  0  0  0
   27.9670   31.5100   16.1260 C   0  0  0  0  0  0  0  0  0  0  0  0
   28.9570   30.7530   16.7460 C   0  0  0  0  0  0  0  0  0  0  0  0
   26.6110   31.1710   16.3070 N   0  0  0  0  0  0  0  0  0  0  0  0
   26.1630   30.1520   15.7790 O   0  0  0  0  0  0  0  0  0  0  0  0
   25.8060   31.9660   17.0600 O   0  0  0  0  0  0  0  0  0  0  0  0
   28.5360   29.6790   17.5260 O   0  0  0  0  0  0  0  0  0  0  0  0
   27.5440   29.6420   17.8010 H   0  0  0  0  0  0  0  0  0  0  0  0
   29.8670   25.5550   16.9770 C   0  0  0  0  0  0  0  0  0  0  0  0
   28.3450   25.7220   17.0260 C   0  0  0  0  0  0  0  0  0  0  0  0
   27.5990   24.4300   16.7310 C   0  0  0  0  0  0  0  0  0  0  0  0
   26.9750   23.8420   17.9660 C   0  0  0  0  0  0  0  0  0  0  0  0
   25.5970   23.2830   17.6240 C   0  0  0  0  0  0  0  0  0  0  0  0
   24.7920   24.2960   16.9020 N   0  0  0  0  0  0  0  0  0  0  0  0
  1  2  1  0  0  0  0
  2  3  2  0  0  0  0
  2 31  1  0  0  0  0
  4  1  1  0  0  0  0
  5  1  1  0  0  0  0
  6  7  1  0  0  0  0
  6  5  1  1  0  0  0
  7 27  1  6  0  0  0
  8 13  1  0  0  0  0
  8  7  1  1  0  0  0
  9 16  1  6  0  0  0
  9 10  1  0  0  0  0
  9 11  1  0  0  0  0
 10 12  1  0  0  0  0
 11  8  1  0  0  0  0
 12 20  1  6  0  0  0
 12 13  1  0  0  0  0
 13 22  1  1  0  0  0
 14  9  1  0  0  0  0
 15 14  1  0  0  0  0
 16 17  2  0  0  0  0
 18 16  1  0  0  0  0
 19 18  1  0  0  0  0
 21 20  1  0  0  0  0
 22 24  1  0  0  0  0
 22 23  1  0  0  0  0
 23 25  1  0  0  0  0
 26 23  2  0  0  0  0
 28 27  1  0  0  0  0
 29 30  1  0  0  0  0
 29  6  1  0  0  0  0
 32 33  1  0  0  0  0
 32 31  1  0  0  0  0
 33 34  2  0  0  0  0
 35 37  2  0  0  0  0
 35 33  1  0  0  0  0
 36 34  1  0  0  0  0
 36 38  1  0  0  0  0
 37 36  1  0  0  0  0
 38 40  2  0  0  0  0
 38 39  1  0  0  0  0
 39 41  2  0  0  0  0
 40 42  1  0  0  0  0
 41 43  1  0  0  0  0
 42 44  1  0  0  0  0
 42 43  2  0  0  0  0
 43 47  1  0  0  0  0
 44 46  2  0  0  0  0
 45 44  2  0  0  0  0
 47 48  1  0  0  0  0
 49 50  1  0  0  0  0
 51 50  1  0  0  0  0
 51 52  1  0  0  0  0
 53 52  1  0  0  0  0
 54 53  1  0  0  0  0
M  END
>  <REMARK>
 VINA RESULT:    -4.400      4.661      8.372
 INTER + INTRA:         -15.312
 INTER:                  -9.102
 INTRA:                  -6.210
 UNBOUND:                -7.311
 SMILES CC(=O)N[C@@H]1[C@@H](O)C[C@](O)(C(=O)O)O[C@H]1C(O)[C@H](O)CNC(=O)OCc1cn(-c2ccc(O)c([N+](=O)[O-])c2)nn1
 SMILES IDX 21 1 22 2 23 3 20 5 18 6 16 7 15 8 9 9 8 10 14 11 6 12 5 13
 SMILES IDX 10 14 11 16 12 17 13 18 7 20 4 22 2 23 1 25 3 26 17 27 19 29
 SMILES IDX 24 31 25 32 26 33 27 34 40 35 28 36 39 37 29 38 30 39 38 40
 SMILES IDX 31 41 34 42 32 43 35 44 36 45 37 46 33 47
 H PARENT 21 4 10 15 13 19 7 21 4 24 17 28 19 30 33 48
 Flexibility Score: inf
  4 active torsions:
  status: ('A' for Active; 'I' for Inactive)
    1  A    between atoms: CA   and  CB  
    2  A    between atoms: CB   and  CG  
    3  A    between atoms: CG   and  CD  
    4  A    between atoms: CD   and  CE  

>  <TORSDO>
F 17

>  <BEGIN_>
RES LYS A 131

$$$$
ligand_73_pose_2_2HRL.pdbqt
 OpenBabel07062320523D

  6  5  0  0  0  0  0  0  0  0999 V2000
   33.1930   34.6630    9.2900 C   0  0  0  0  0  0  0  0  0  0  0  0
   32.0600   35.3600   10.0340 C   0  0  0  0  0  0  0  0  0  0  0  0
   30.8080   35.5220    9.2110 C   0  0  0  0  0  0  0  0  0  0  0  0
   30.1330   34.1770    8.9910 C   0  0  0  0  0  0  0  0  0  0  0  0
   28.6640   34.3650    8.6660 C   0  0  0  0  0  0  0  0  0  0  0  0
   27.8000   33.6940    9.6770 N   0  0  0  0  0  0  0  0  0  0  0  0
  1  2  1  0  0  0  0
  3  2  1  0  0  0  0
  4  3  1  0  0  0  0
  5  4  1  0  0  0  0
  5  6  1  0  0  0  0
M  END
>  <EGIN_R>
ES LYS A 135

>  <REMARK>
  4 active torsions:
  status: ('A' for Active; 'I' for Inactive)
    5  A    between atoms: CA   and  CB  
    6  A    between atoms: CB   and  CG  
    7  A    between atoms: CG   and  CD  
    8  A    between atoms: CD   and  CE  

$$$$
