ligand_31_pose_3_2HRL.pdbqt
 OpenBabel07062320523D

 57 58  0  0  1  0  0  0  0  0999 V2000
   29.2460   30.8510   20.0920 O   0  0  0  0  0  0  0  0  0  0  0  0
   29.2740   30.7310   18.7070 C   0  0  0  0  0  0  0  0  0  0  0  0
   30.3280   31.1690   17.8930 N   0  0  0  0  0  0  0  0  0  0  0  0
   31.1550   31.6130   18.3170 H   0  0  0  0  0  0  0  0  0  0  0  0
   28.2790   30.1920   18.1550 O   0  0  0  0  0  0  0  0  0  0  0  0
   30.2530   30.9920   16.4390 C   0  0  0  0  0  0  0  0  0  0  0  0
   30.9650   32.1400   15.7730 C   0  0  2  0  0  0  0  0  0  0  0  0
   30.8980   33.4050   16.5820 C   0  0  1  0  0  0  0  0  0  0  0  0
   31.7090   34.5190   15.9860 C   0  0  2  0  0  0  0  0  0  0  0  0
   33.2410   34.8390   14.2510 C   0  0  2  0  0  0  0  0  0  0  0  0
   33.8290   36.0290   14.9370 C   0  0  0  0  0  0  0  0  0  0  0  0
   32.5990   33.9530   15.0560 O   0  0  0  0  0  0  0  0  0  0  0  0
   33.1990   36.4100   16.2150 C   0  0  1  0  0  0  0  0  0  0  0  0
   32.6050   35.2340   16.9680 C   0  0  1  0  0  0  0  0  0  0  0  0
   34.3460   34.1400   13.6990 O   0  0  0  0  0  0  0  0  0  0  0  0
   35.0400   34.7720   13.3870 H   0  0  0  0  0  0  0  0  0  0  0  0
   32.3660   35.2030   13.1100 C   0  0  0  0  0  0  0  0  0  0  0  0
   32.5350   36.2750   12.4630 O   0  0  0  0  0  0  0  0  0  0  0  0
   31.3140   34.4000   12.6850 O   0  0  0  0  0  0  0  0  0  0  0  0
   31.3280   33.9980   11.7540 H   0  0  0  0  0  0  0  0  0  0  0  0
   34.1410   37.0670   17.0340 O   0  0  0  0  0  0  0  0  0  0  0  0
   34.8250   37.5250   16.5060 H   0  0  0  0  0  0  0  0  0  0  0  0
   31.9850   35.6670   18.1720 N   0  0  0  0  0  0  0  0  0  0  0  0
   32.7390   35.6330   19.3860 C   0  0  0  0  0  0  0  0  0  0  0  0
   31.0080   36.0230   18.2410 H   0  0  0  0  0  0  0  0  0  0  0  0
   32.1860   36.0620   20.6890 C   0  0  0  0  0  0  0  0  0  0  0  0
   33.9360   35.2210   19.3680 O   0  0  0  0  0  0  0  0  0  0  0  0
   29.6120   33.7700   16.9380 O   0  0  0  0  0  0  0  0  0  0  0  0
   29.5140   34.0150   17.8930 H   0  0  0  0  0  0  0  0  0  0  0  0
   30.2200   32.4130   14.5930 O   0  0  0  0  0  0  0  0  0  0  0  0
   29.2640   32.2860   14.8810 H   0  0  0  0  0  0  0  0  0  0  0  0
   28.2500   31.6090   20.7460 C   0  0  0  0  0  0  0  0  0  0  0  0
   28.3070   32.9930   20.2250 C   0  0  0  0  0  0  0  0  0  0  0  0
   27.2490   33.8020   19.9130 C   0  0  0  0  0  0  0  0  0  0  0  0
   29.4200   33.6990   19.9700 N   0  0  0  0  0  0  0  0  0  0  0  0
   27.7460   34.9740   19.4780 N   0  0  0  0  0  0  0  0  0  0  0  0
   29.0670   34.9070   19.5140 N   0  0  0  0  0  0  0  0  0  0  0  0
   26.9850   36.1440   19.0320 C   0  0  0  0  0  0  0  0  0  0  0  0
   26.3150   35.7800   17.7330 C   0  0  0  0  0  0  0  0  0  0  0  0
   27.3170   35.4100   16.7660 N   0  0  0  0  0  0  0  0  0  0  0  0
   27.0670   35.2450   15.3830 C   0  0  0  0  0  0  0  0  0  0  0  0
   28.3140   35.2450   17.0820 H   0  0  0  0  0  0  0  0  0  0  0  0
   25.8870   35.4350   14.9610 O   0  0  0  0  0  0  0  0  0  0  0  0
   28.1230   34.8750   14.5100 N   0  0  0  0  0  0  0  0  0  0  0  0
   29.0950   34.7130   14.8290 H   0  0  0  0  0  0  0  0  0  0  0  0
   27.8290   34.7150   13.1030 C   0  0  0  0  0  0  0  0  0  0  0  0
   28.2350   35.9500   12.3970 C   0  0  0  0  0  0  0  0  0  0  0  0
   27.5450   36.4880   11.3160 C   0  0  0  0  0  0  0  0  0  0  0  0
   29.2570   36.7040   12.6560 O   0  0  0  0  0  0  0  0  0  0  0  0
   28.2450   37.6200   10.9610 C   0  0  0  0  0  0  0  0  0  0  0  0
   29.3090   37.7070   11.8350 C   0  0  0  0  0  0  0  0  0  0  0  0
   29.8670   25.5550   16.9770 C   0  0  0  0  0  0  0  0  0  0  0  0
   28.3450   25.7220   17.0260 C   0  0  0  0  0  0  0  0  0  0  0  0
   27.5990   24.4410   16.6850 C   0  0  0  0  0  0  0  0  0  0  0  0
   27.0210   23.7800   17.9060 C   0  0  0  0  0  0  0  0  0  0  0  0
   25.5530   23.4510   17.6600 C   0  0  0  0  0  0  0  0  0  0  0  0
   24.9040   24.5270   16.8740 N   0  0  0  0  0  0  0  0  0  0  0  0
  1 32  1  0  0  0  0
  2  1  1  0  0  0  0
  3  4  1  0  0  0  0
  3  2  1  0  0  0  0
  5  2  2  0  0  0  0
  6  3  1  0  0  0  0
  7  6  1  1  0  0  0
  7  8  1  0  0  0  0
  8 28  1  6  0  0  0
  9  8  1  1  0  0  0
  9 14  1  0  0  0  0
 10 17  1  6  0  0  0
 10 11  1  0  0  0  0
 10 12  1  0  0  0  0
 11 13  1  0  0  0  0
 12  9  1  0  0  0  0
 13 14  1  0  0  0  0
 13 21  1  1  0  0  0
 14 23  1  1  0  0  0
 15 10  1  0  0  0  0
 16 15  1  0  0  0  0
 18 17  2  0  0  0  0
 19 17  1  0  0  0  0
 20 19  1  0  0  0  0
 22 21  1  0  0  0  0
 23 25  1  0  0  0  0
 23 24  1  0  0  0  0
 24 26  1  0  0  0  0
 27 24  2  0  0  0  0
 28 29  1  0  0  0  0
 30 31  1  0  0  0  0
 30  7  1  0  0  0  0
 33 32  1  0  0  0  0
 34 33  2  0  0  0  0
 35 33  1  0  0  0  0
 36 37  1  0  0  0  0
 36 34  1  0  0  0  0
 37 35  2  0  0  0  0
 38 36  1  0  0  0  0
 39 38  1  0  0  0  0
 40 42  1  0  0  0  0
 40 39  1  0  0  0  0
 41 40  1  0  0  0  0
 43 41  2  0  0  0  0
 44 45  1  0  0  0  0
 44 41  1  0  0  0  0
 46 44  1  0  0  0  0
 47 49  1  0  0  0  0
 47 46  1  0  0  0  0
 48 47  2  0  0  0  0
 50 48  1  0  0  0  0
 50 51  2  0  0  0  0
 51 49  1  0  0  0  0
 52 53  1  0  0  0  0
 54 53  1  0  0  0  0
 54 55  1  0  0  0  0
 56 55  1  0  0  0  0
 57 56  1  0  0  0  0
M  END
>  <REMARK>
 VINA RESULT:    -5.153      3.407      7.472
 INTER + INTRA:         -16.033
 INTER:                  -7.395
 INTRA:                  -8.638
 UNBOUND:                -5.909
 SMILES CC(=O)N[C@@H]1[C@@H](O)C[C@](O)(C(=O)O)O[C@H]1C(O)[C@H](O)CNC(=O)OCc1cn(CCNC(=O)NCc2ccco2)nn1
 SMILES IDX 24 1 22 2 21 3 23 5 20 6 18 7 16 8 15 9 9 10 8 11 14 12 6 13
 SMILES IDX 5 14 10 15 11 17 12 18 13 19 7 21 4 23 2 24 1 26 3 27 17 28
 SMILES IDX 19 30 25 32 26 33 27 34 42 35 28 36 41 37 29 38 30 39 31 40
 SMILES IDX 32 41 33 43 34 44 35 46 36 47 37 48 40 49 38 50 39 51
 H PARENT 21 4 10 16 13 20 7 22 4 25 17 29 19 31 31 42 34 45
 Flexibility Score: inf
  4 active torsions:
  status: ('A' for Active; 'I' for Inactive)
    1  A    between atoms: CA   and  CB  
    2  A    between atoms: CB   and  CG  
    3  A    between atoms: CG   and  CD  
    4  A    between atoms: CD   and  CE  

>  <TORSDO>
F 19

>  <BEGIN_>
RES LYS A 131

$$$$
ligand_31_pose_3_2HRL.pdbqt
 OpenBabel07062320523D

  6  5  0  0  0  0  0  0  0  0999 V2000
   33.1930   34.6630    9.2900 C   0  0  0  0  0  0  0  0  0  0  0  0
   32.0600   35.3600   10.0340 C   0  0  0  0  0  0  0  0  0  0  0  0
   30.8060   35.5150    9.2130 C   0  0  0  0  0  0  0  0  0  0  0  0
   29.9430   34.2670    9.3110 C   0  0  0  0  0  0  0  0  0  0  0  0
   28.6940   34.4150    8.4630 C   0  0  0  0  0  0  0  0  0  0  0  0
   28.7410   35.6630    7.6520 N   0  0  0  0  0  0  0  0  0  0  0  0
  1  2  1  0  0  0  0
  3  4  1  0  0  0  0
  3  2  1  0  0  0  0
  5  4  1  0  0  0  0
  6  5  1  0  0  0  0
M  END
>  <EGIN_R>
ES LYS A 135

>  <REMARK>
  4 active torsions:
  status: ('A' for Active; 'I' for Inactive)
    5  A    between atoms: CA   and  CB  
    6  A    between atoms: CB   and  CG  
    7  A    between atoms: CG   and  CD  
    8  A    between atoms: CD   and  CE  

$$$$
