ligand_19_pose_11_2HRL.pdbqt
 OpenBabel07062320523D

 49 49  0  0  1  0  0  0  0  0999 V2000
   28.5180   29.6800   16.4570 N   0  0  0  0  0  0  0  0  0  0  0  0
   27.2160   29.1760   16.6790 C   0  0  0  0  0  0  0  0  0  0  0  0
   26.2300   29.7350   16.1770 O   0  0  0  0  0  0  0  0  0  0  0  0
   29.3010   29.1460   16.9260 H   0  0  0  0  0  0  0  0  0  0  0  0
   28.8310   30.8410   15.6520 C   0  0  0  0  0  0  0  0  0  0  0  0
   29.5800   31.8630   16.4210 C   0  0  2  0  0  0  0  0  0  0  0  0
   30.5190   32.7420   15.6260 C   0  0  2  0  0  0  0  0  0  0  0  0
   29.8970   33.4360   14.4510 C   0  0  2  0  0  0  0  0  0  0  0  0
   31.7150   34.8690   14.2140 C   0  0  2  0  0  0  0  0  0  0  0  0
   31.1200   35.7790   15.2180 C   0  0  0  0  0  0  0  0  0  0  0  0
   30.8600   33.9870   13.6070 O   0  0  0  0  0  0  0  0  0  0  0  0
   29.6520   35.6850   15.4260 C   0  0  1  0  0  0  0  0  0  0  0  0
   28.9530   34.5540   14.7550 C   0  0  1  0  0  0  0  0  0  0  0  0
   32.7600   34.0880   14.7670 O   0  0  0  0  0  0  0  0  0  0  0  0
   33.0370   34.4310   15.6490 H   0  0  0  0  0  0  0  0  0  0  0  0
   32.3670   35.6470   13.1240 C   0  0  0  0  0  0  0  0  0  0  0  0
   31.9960   36.8400   12.8520 O   0  0  0  0  0  0  0  0  0  0  0  0
   33.4010   35.1580   12.3400 O   0  0  0  0  0  0  0  0  0  0  0  0
   34.2910   35.6670   12.3680 H   0  0  0  0  0  0  0  0  0  0  0  0
   29.4150   35.5850   16.8000 O   0  0  0  0  0  0  0  0  0  0  0  0
   29.4100   34.6220   17.0920 H   0  0  0  0  0  0  0  0  0  0  0  0
   28.3120   34.9090   13.5100 N   0  0  0  0  0  0  0  0  0  0  0  0
   26.9540   34.6920   13.2580 C   0  0  0  0  0  0  0  0  0  0  0  0
   28.9090   35.3430   12.7810 H   0  0  0  0  0  0  0  0  0  0  0  0
   26.2690   35.0490   11.9890 C   0  0  0  0  0  0  0  0  0  0  0  0
   26.2830   34.1640   14.1660 O   0  0  0  0  0  0  0  0  0  0  0  0
   31.3910   31.7710   14.9990 O   0  0  0  0  0  0  0  0  0  0  0  0
   30.7560   31.2800   14.3930 H   0  0  0  0  0  0  0  0  0  0  0  0
   30.0580   31.5240   17.6500 O   0  0  0  0  0  0  0  0  0  0  0  0
   30.3940   30.6170   17.7020 H   0  0  0  0  0  0  0  0  0  0  0  0
   27.0240   28.0250   17.4770 O   0  0  0  0  0  0  0  0  0  0  0  0
   26.7460   28.1670   18.8700 C   0  0  0  0  0  0  0  0  0  0  0  0
   27.9900   28.6000   19.5380 C   0  0  0  0  0  0  0  0  0  0  0  0
   28.8520   27.7870   20.2540 C   0  0  0  0  0  0  0  0  0  0  0  0
   28.5120   29.8330   19.5880 N   0  0  0  0  0  0  0  0  0  0  0  0
   29.8540   28.5550   20.7050 N   0  0  0  0  0  0  0  0  0  0  0  0
   29.6260   29.7800   20.2910 N   0  0  0  0  0  0  0  0  0  0  0  0
   30.9650   28.0800   21.4990 C   0  0  0  0  0  0  0  0  0  0  0  0
   32.1940   28.8720   21.1230 C   0  0  0  0  0  0  0  0  0  0  0  0
   32.6750   29.5580   22.2430 O   0  0  0  0  0  0  0  0  0  0  0  0
   33.9590   30.0140   22.3080 C   0  0  0  0  0  0  0  0  0  0  0  0
   34.2910   31.0950   21.7870 O   0  0  0  0  0  0  0  0  0  0  0  0
   35.0170   29.2140   23.0180 C   0  0  0  0  0  0  0  0  0  0  0  0
   29.8670   25.5550   16.9770 C   0  0  0  0  0  0  0  0  0  0  0  0
   28.3450   25.7220   17.0260 C   0  0  0  0  0  0  0  0  0  0  0  0
   27.6010   24.4020   16.8970 C   0  0  0  0  0  0  0  0  0  0  0  0
   26.1500   24.5300   17.2690 C   0  0  0  0  0  0  0  0  0  0  0  0
   26.0100   24.5120   18.7870 C   0  0  0  0  0  0  0  0  0  0  0  0
   25.5240   23.1890   19.2480 N   0  0  0  0  0  0  0  0  0  0  0  0
  1  2  1  0  0  0  0
  1  4  1  0  0  0  0
  2 31  1  0  0  0  0
  3  2  2  0  0  0  0
  5  1  1  0  0  0  0
  6  5  1  6  0  0  0
  6 29  1  0  0  0  0
  7 27  1  6  0  0  0
  7  6  1  0  0  0  0
  8 13  1  0  0  0  0
  8  7  1  1  0  0  0
  9 16  1  6  0  0  0
  9 14  1  0  0  0  0
  9 10  1  0  0  0  0
 10 12  1  0  0  0  0
 11  9  1  0  0  0  0
 11  8  1  0  0  0  0
 12 20  1  1  0  0  0
 13 22  1  6  0  0  0
 13 12  1  0  0  0  0
 14 15  1  0  0  0  0
 17 16  2  0  0  0  0
 18 19  1  0  0  0  0
 18 16  1  0  0  0  0
 20 21  1  0  0  0  0
 23 22  1  0  0  0  0
 23 26  2  0  0  0  0
 24 22  1  0  0  0  0
 25 23  1  0  0  0  0
 28 27  1  0  0  0  0
 29 30  1  0  0  0  0
 31 32  1  0  0  0  0
 32 33  1  0  0  0  0
 33 35  1  0  0  0  0
 33 34  2  0  0  0  0
 34 36  1  0  0  0  0
 35 37  2  0  0  0  0
 36 38  1  0  0  0  0
 37 36  1  0  0  0  0
 39 38  1  0  0  0  0
 39 40  1  0  0  0  0
 40 41  1  0  0  0  0
 41 43  1  0  0  0  0
 42 41  2  0  0  0  0
 44 45  1  0  0  0  0
 46 45  1  0  0  0  0
 46 47  1  0  0  0  0
 47 48  1  0  0  0  0
 48 49  1  0  0  0  0
M  END
>  <REMARK>
 VINA RESULT:    -4.073      2.075      8.025
 INTER + INTRA:         -13.822
 INTER:                  -9.484
 INTRA:                  -4.338
 UNBOUND:                -6.059
 SMILES CC(=O)N[C@@H]1[C@@H](O)C[C@](O)(C(=O)O)O[C@H]1C(O)[C@H](O)CNC(=O)OCc1cn(CCOC(C)=O)nn1
 SMILES IDX 21 1 22 2 23 3 20 5 18 6 16 7 15 8 9 9 8 10 14 11 6 12 5 13
 SMILES IDX 10 14 11 16 12 17 13 18 7 20 4 22 2 23 1 25 3 26 17 27 19 29
 SMILES IDX 24 31 25 32 26 33 27 34 36 35 28 36 35 37 29 38 30 39 31 40
 SMILES IDX 32 41 34 42 33 43
 H PARENT 21 4 10 15 13 19 7 21 4 24 17 28 19 30
 Flexibility Score: inf
  4 active torsions:
  status: ('A' for Active; 'I' for Inactive)
    1  A    between atoms: CA   and  CB  
    2  A    between atoms: CB   and  CG  
    3  A    between atoms: CG   and  CD  
    4  A    between atoms: CD   and  CE  

>  <TORSDO>
F 18

>  <BEGIN_>
RES LYS A 131

$$$$
ligand_19_pose_11_2HRL.pdbqt
 OpenBabel07062320523D

  6  5  0  0  0  0  0  0  0  0999 V2000
   33.1930   34.6630    9.2900 C   0  0  0  0  0  0  0  0  0  0  0  0
   32.0600   35.3600   10.0340 C   0  0  0  0  0  0  0  0  0  0  0  0
   30.7200   34.6940    9.8520 C   0  0  0  0  0  0  0  0  0  0  0  0
   30.0110   35.2420    8.6230 C   0  0  0  0  0  0  0  0  0  0  0  0
   29.3390   36.5640    8.9410 C   0  0  0  0  0  0  0  0  0  0  0  0
   29.9730   37.6830    8.1910 N   0  0  0  0  0  0  0  0  0  0  0  0
  1  2  1  0  0  0  0
  3  2  1  0  0  0  0
  4  5  1  0  0  0  0
  4  3  1  0  0  0  0
  6  5  1  0  0  0  0
M  END
>  <EGIN_R>
ES LYS A 135

>  <REMARK>
  4 active torsions:
  status: ('A' for Active; 'I' for Inactive)
    5  A    between atoms: CA   and  CB  
    6  A    between atoms: CB   and  CG  
    7  A    between atoms: CG   and  CD  
    8  A    between atoms: CD   and  CE  

$$$$
