ligand_33_pose_1_2HRL.pdbqt
 OpenBabel07062320523D

 52 52  0  0  1  0  0  0  0  0999 V2000
   29.7220   30.8600   16.2110 C   0  0  0  0  0  0  0  0  0  0  0  0
   28.5220   30.3450   15.6450 O   0  0  0  0  0  0  0  0  0  0  0  0
   27.6110   29.7270   16.5100 C   0  0  0  0  0  0  0  0  0  0  0  0
   28.0950   29.2320   17.7540 N   0  0  0  0  0  0  0  0  0  0  0  0
   29.1200   29.3610   17.9650 H   0  0  0  0  0  0  0  0  0  0  0  0
   26.4130   29.6380   16.1440 O   0  0  0  0  0  0  0  0  0  0  0  0
   27.1860   28.5930   18.6510 C   0  0  0  0  0  0  0  0  0  0  0  0
   27.8330   27.9450   19.8510 C   0  0  2  0  0  0  0  0  0  0  0  0
   28.7990   28.9420   20.4630 C   0  0  2  0  0  0  0  0  0  0  0  0
   29.0480   28.7530   21.9220 C   0  0  2  0  0  0  0  0  0  0  0  0
   31.3000   28.1910   21.6100 C   0  0  2  0  0  0  0  0  0  0  0  0
   30.8650   26.7240   21.7640 C   0  0  0  0  0  0  0  0  0  0  0  0
   30.3770   29.0200   22.1790 O   0  0  0  0  0  0  0  0  0  0  0  0
   29.9340   26.7130   22.9510 C   0  0  1  0  0  0  0  0  0  0  0  0
   28.6530   27.4470   22.5120 C   0  0  1  0  0  0  0  0  0  0  0  0
   31.5990   28.4590   20.2760 O   0  0  0  0  0  0  0  0  0  0  0  0
   31.3630   27.6780   19.6820 H   0  0  0  0  0  0  0  0  0  0  0  0
   32.5590   28.3230   22.3870 C   0  0  0  0  0  0  0  0  0  0  0  0
   32.8730   29.4420   22.8940 O   0  0  0  0  0  0  0  0  0  0  0  0
   33.3690   27.2130   22.5410 O   0  0  0  0  0  0  0  0  0  0  0  0
   33.2290   26.6720   23.4070 H   0  0  0  0  0  0  0  0  0  0  0  0
   29.6290   25.4170   23.3660 O   0  0  0  0  0  0  0  0  0  0  0  0
   28.6700   25.4200   23.6240 H   0  0  0  0  0  0  0  0  0  0  0  0
   27.7770   27.6040   23.6640 N   0  0  0  0  0  0  0  0  0  0  0  0
   26.7040   26.7340   23.9370 C   0  0  0  0  0  0  0  0  0  0  0  0
   27.9630   28.4100   24.3270 H   0  0  0  0  0  0  0  0  0  0  0  0
   25.8130   26.9250   25.1380 C   0  0  0  0  0  0  0  0  0  0  0  0
   26.4920   25.7680   23.1410 O   0  0  0  0  0  0  0  0  0  0  0  0
   28.1090   30.1850   20.3600 O   0  0  0  0  0  0  0  0  0  0  0  0
   28.8100   30.8620   20.2140 H   0  0  0  0  0  0  0  0  0  0  0  0
   28.4380   26.7790   19.4360 O   0  0  0  0  0  0  0  0  0  0  0  0
   28.1800   26.0140   20.0070 H   0  0  0  0  0  0  0  0  0  0  0  0
   29.7010   32.3200   15.9610 C   0  0  0  0  0  0  0  0  0  0  0  0
   29.1530   32.8960   14.8330 C   0  0  0  0  0  0  0  0  0  0  0  0
   30.1740   33.3030   16.7260 N   0  0  0  0  0  0  0  0  0  0  0  0
   29.3310   34.2260   14.9830 N   0  0  0  0  0  0  0  0  0  0  0  0
   29.9450   34.4620   16.1220 N   0  0  0  0  0  0  0  0  0  0  0  0
   28.8770   35.1820   13.9710 C   0  0  0  0  0  0  0  0  0  0  0  0
   29.8950   35.1950   12.8620 C   0  0  0  0  0  0  0  0  0  0  0  0
   30.6180   36.5200   12.7410 C   0  0  0  0  0  0  0  0  0  0  0  0
   32.0980   36.3790   12.8250 C   0  0  0  0  0  0  0  0  0  0  0  0
   32.6020   36.0160   14.1950 C   0  0  0  0  0  0  0  0  0  0  0  0
   33.2690   34.7070   14.2580 C   0  0  0  0  0  0  0  0  0  0  0  0
   34.4380   34.5600   13.8670 O   0  0  0  0  0  0  0  0  0  0  0  0
   32.5940   33.5830   14.7660 O   0  0  0  0  0  0  0  0  0  0  0  0
   32.1200   33.6340   15.6740 H   0  0  0  0  0  0  0  0  0  0  0  0
   29.8670   25.5550   16.9770 C   0  0  0  0  0  0  0  0  0  0  0  0
   28.3450   25.7220   17.0260 C   0  0  0  0  0  0  0  0  0  0  0  0
   27.6020   24.4000   16.9090 C   0  0  0  0  0  0  0  0  0  0  0  0
   26.1570   24.5260   17.3060 C   0  0  0  0  0  0  0  0  0  0  0  0
   25.9570   23.9260   18.6940 C   0  0  0  0  0  0  0  0  0  0  0  0
   25.5440   24.9740   19.6580 N   0  0  0  0  0  0  0  0  0  0  0  0
  2  1  1  0  0  0  0
  2  3  1  0  0  0  0
  3  4  1  0  0  0  0
  4  5  1  0  0  0  0
  4  7  1  0  0  0  0
  6  3  2  0  0  0  0
  8  7  1  6  0  0  0
  8  9  1  0  0  0  0
  9 29  1  1  0  0  0
 10  9  1  6  0  0  0
 10 13  1  0  0  0  0
 10 15  1  0  0  0  0
 11 16  1  6  0  0  0
 11 12  1  0  0  0  0
 11 13  1  0  0  0  0
 11 18  1  0  0  0  0
 12 14  1  0  0  0  0
 14 22  1  6  0  0  0
 15 14  1  0  0  0  0
 15 24  1  1  0  0  0
 17 16  1  0  0  0  0
 18 20  1  0  0  0  0
 18 19  2  0  0  0  0
 20 21  1  0  0  0  0
 22 23  1  0  0  0  0
 24 25  1  0  0  0  0
 24 26  1  0  0  0  0
 25 27  1  0  0  0  0
 28 25  2  0  0  0  0
 30 29  1  0  0  0  0
 31  8  1  0  0  0  0
 31 32  1  0  0  0  0
 33  1  1  0  0  0  0
 33 35  1  0  0  0  0
 34 36  1  0  0  0  0
 34 33  2  0  0  0  0
 36 37  1  0  0  0  0
 37 35  2  0  0  0  0
 38 36  1  0  0  0  0
 39 38  1  0  0  0  0
 40 41  1  0  0  0  0
 40 39  1  0  0  0  0
 41 42  1  0  0  0  0
 42 43  1  0  0  0  0
 43 45  1  0  0  0  0
 44 43  2  0  0  0  0
 45 46  1  0  0  0  0
 47 48  1  0  0  0  0
 49 48  1  0  0  0  0
 49 50  1  0  0  0  0
 50 51  1  0  0  0  0
 51 52  1  0  0  0  0
M  END
>  <REMARK>
 VINA RESULT:    -4.578      7.941     13.322
 INTER + INTRA:         -15.313
 INTER:                 -10.083
 INTRA:                  -5.230
 UNBOUND:                -5.918
 SMILES CC(=O)N[C@@H]1[C@@H](O)C[C@](O)(C(=O)O)O[C@H]1C(O)[C@H](O)CNC(=O)OCc1cn(CCCCCC(=O)O)nn1
 SMILES IDX 25 1 24 2 22 3 21 4 23 6 20 7 18 8 16 9 15 10 9 11 8 12
 SMILES IDX 14 13 6 14 5 15 10 16 11 18 12 19 13 20 7 22 4 24 2 25 1 27
 SMILES IDX 3 28 17 29 19 31 26 33 27 34 38 35 28 36 37 37 29 38 30 39
 SMILES IDX 31 40 32 41 33 42 34 43 35 44 36 45
 H PARENT 21 5 10 17 13 21 7 23 4 26 17 30 19 32 36 46
 Flexibility Score: inf
  4 active torsions:
  status: ('A' for Active; 'I' for Inactive)
    1  A    between atoms: CA   and  CB  
    2  A    between atoms: CB   and  CG  
    3  A    between atoms: CG   and  CD  
    4  A    between atoms: CD   and  CE  

>  <TORSDO>
F 21

>  <BEGIN_>
RES LYS A 131

$$$$
ligand_33_pose_1_2HRL.pdbqt
 OpenBabel07062320523D

  6  5  0  0  0  0  0  0  0  0999 V2000
   33.1930   34.6630    9.2900 C   0  0  0  0  0  0  0  0  0  0  0  0
   32.0600   35.3600   10.0340 C   0  0  0  0  0  0  0  0  0  0  0  0
   30.8350   35.5910    9.1870 C   0  0  0  0  0  0  0  0  0  0  0  0
   30.3150   34.2770    8.6260 C   0  0  0  0  0  0  0  0  0  0  0  0
   28.9080   34.0050    9.1240 C   0  0  0  0  0  0  0  0  0  0  0  0
   27.9720   35.0830    8.6990 N   0  0  0  0  0  0  0  0  0  0  0  0
  1  2  1  0  0  0  0
  3  2  1  0  0  0  0
  4  5  1  0  0  0  0
  4  3  1  0  0  0  0
  6  5  1  0  0  0  0
M  END
>  <EGIN_R>
ES LYS A 135

>  <REMARK>
  4 active torsions:
  status: ('A' for Active; 'I' for Inactive)
    5  A    between atoms: CA   and  CB  
    6  A    between atoms: CB   and  CG  
    7  A    between atoms: CG   and  CD  
    8  A    between atoms: CD   and  CE  

$$$$
