ligand_44_pose_14_2HRL.pdbqt
 OpenBabel07062320523D

 51 52  0  0  1  0  0  0  0  0999 V2000
   26.0030   34.5910   12.5960 N   0  0  0  0  0  0  0  0  0  0  0  0
   26.7420   35.7960   12.6810 C   0  0  0  0  0  0  0  0  0  0  0  0
   26.3150   36.8870   13.1040 O   0  0  0  0  0  0  0  0  0  0  0  0
   26.4740   33.7090   12.2190 H   0  0  0  0  0  0  0  0  0  0  0  0
   24.6360   34.5560   13.0120 C   0  0  0  0  0  0  0  0  0  0  0  0
   23.6320   34.4330   11.8930 C   0  0  2  0  0  0  0  0  0  0  0  0
   23.4660   35.6820   11.1050 C   0  0  1  0  0  0  0  0  0  0  0  0
   23.0210   35.5840    9.7000 C   0  0  2  0  0  0  0  0  0  0  0  0
   23.8470   37.3340    8.4450 C   0  0  2  0  0  0  0  0  0  0  0  0
   22.9000   37.1140    7.2880 C   0  0  0  0  0  0  0  0  0  0  0  0
   24.1010   36.0660    8.9430 O   0  0  0  0  0  0  0  0  0  0  0  0
   21.6310   36.5920    7.8690 C   0  0  1  0  0  0  0  0  0  0  0  0
   21.7210   36.1270    9.3100 C   0  0  1  0  0  0  0  0  0  0  0  0
   23.2310   38.1910    9.3310 O   0  0  0  0  0  0  0  0  0  0  0  0
   23.3700   39.1390    9.1470 H   0  0  0  0  0  0  0  0  0  0  0  0
   25.1060   37.8890    7.8940 C   0  0  0  0  0  0  0  0  0  0  0  0
   25.6070   38.9680    8.2820 O   0  0  0  0  0  0  0  0  0  0  0  0
   25.7390   37.1530    6.8970 O   0  0  0  0  0  0  0  0  0  0  0  0
   25.2410   36.5820    6.2330 H   0  0  0  0  0  0  0  0  0  0  0  0
   20.7040   37.6610    7.8550 O   0  0  0  0  0  0  0  0  0  0  0  0
   20.0420   37.5780    8.5690 H   0  0  0  0  0  0  0  0  0  0  0  0
   20.6620   35.0940    9.3640 N   0  0  0  0  0  0  0  0  0  0  0  0
   19.8440   34.8900   10.4820 C   0  0  0  0  0  0  0  0  0  0  0  0
   20.5770   34.5220    8.4900 H   0  0  0  0  0  0  0  0  0  0  0  0
   18.8100   33.8150   10.4390 C   0  0  0  0  0  0  0  0  0  0  0  0
   19.9720   35.5910   11.4960 O   0  0  0  0  0  0  0  0  0  0  0  0
   22.8420   36.6410   11.8890 O   0  0  0  0  0  0  0  0  0  0  0  0
   21.8510   36.5750   11.7710 H   0  0  0  0  0  0  0  0  0  0  0  0
   22.4460   33.8130   12.2450 O   0  0  0  0  0  0  0  0  0  0  0  0
   22.0230   34.1970   13.0390 H   0  0  0  0  0  0  0  0  0  0  0  0
   28.0710   35.7780   12.2580 O   0  0  0  0  0  0  0  0  0  0  0  0
   28.9320   36.8650   12.5020 C   0  0  0  0  0  0  0  0  0  0  0  0
   30.1200   36.4640   13.2750 C   0  0  0  0  0  0  0  0  0  0  0  0
   30.6660   35.2240   13.5120 C   0  0  0  0  0  0  0  0  0  0  0  0
   30.8960   37.3680   13.9170 N   0  0  0  0  0  0  0  0  0  0  0  0
   31.7560   35.4140   14.2900 N   0  0  0  0  0  0  0  0  0  0  0  0
   31.8590   36.7110   14.5080 N   0  0  0  0  0  0  0  0  0  0  0  0
   32.6240   34.3580   14.7710 C   0  0  0  0  0  0  0  0  0  0  0  0
   31.8430   33.5580   15.7720 C   0  0  0  0  0  0  0  0  0  0  0  0
   31.3270   32.3260   15.3970 C   0  0  0  0  0  0  0  0  0  0  0  0
   31.6520   34.0550   17.0430 C   0  0  0  0  0  0  0  0  0  0  0  0
   30.6170   31.6130   16.3270 C   0  0  0  0  0  0  0  0  0  0  0  0
   30.9300   33.3300   17.9910 C   0  0  0  0  0  0  0  0  0  0  0  0
   30.4300   32.1150   17.5950 C   0  0  0  0  0  0  0  0  0  0  0  0
   29.4360   31.0960   18.8720 Br  0  0  0  0  0  0  0  0  0  0  0  0
   29.8670   25.5550   16.9770 C   0  0  0  0  0  0  0  0  0  0  0  0
   28.3450   25.7220   17.0260 C   0  0  0  0  0  0  0  0  0  0  0  0
   27.6010   24.4020   16.8960 C   0  0  0  0  0  0  0  0  0  0  0  0
   26.1530   24.5270   17.2780 C   0  0  0  0  0  0  0  0  0  0  0  0
   25.6360   23.1780   17.7680 C   0  0  0  0  0  0  0  0  0  0  0  0
   25.5170   23.1740   19.2450 N   0  0  0  0  0  0  0  0  0  0  0  0
  1  2  1  0  0  0  0
  1  5  1  0  0  0  0
  2  3  2  0  0  0  0
  4  1  1  0  0  0  0
  6 29  1  0  0  0  0
  6  5  1  1  0  0  0
  7 27  1  1  0  0  0
  7  6  1  0  0  0  0
  8  7  1  1  0  0  0
  9 16  1  6  0  0  0
  9 11  1  0  0  0  0
  9 14  1  0  0  0  0
 10 12  1  0  0  0  0
 10  9  1  0  0  0  0
 11  8  1  0  0  0  0
 12 20  1  1  0  0  0
 12 13  1  0  0  0  0
 13 22  1  6  0  0  0
 13  8  1  0  0  0  0
 15 14  1  0  0  0  0
 16 17  2  0  0  0  0
 18 16  1  0  0  0  0
 19 18  1  0  0  0  0
 20 21  1  0  0  0  0
 22 23  1  0  0  0  0
 23 26  2  0  0  0  0
 24 22  1  0  0  0  0
 25 23  1  0  0  0  0
 28 27  1  0  0  0  0
 29 30  1  0  0  0  0
 31 32  1  0  0  0  0
 31  2  1  0  0  0  0
 32 33  1  0  0  0  0
 33 34  2  0  0  0  0
 33 35  1  0  0  0  0
 34 36  1  0  0  0  0
 35 37  2  0  0  0  0
 36 37  1  0  0  0  0
 36 38  1  0  0  0  0
 38 39  1  0  0  0  0
 39 41  1  0  0  0  0
 40 39  2  0  0  0  0
 40 42  1  0  0  0  0
 41 43  2  0  0  0  0
 42 44  2  0  0  0  0
 44 43  1  0  0  0  0
 44 45  1  0  0  0  0
 46 47  1  0  0  0  0
 48 47  1  0  0  0  0
 48 49  1  0  0  0  0
 49 50  1  0  0  0  0
 50 51  1  0  0  0  0
M  END
>  <REMARK>
 VINA RESULT:    -4.471      4.206      8.929
 INTER + INTRA:         -14.398
 INTER:                  -9.495
 INTRA:                  -4.902
 UNBOUND:                -6.398
 SMILES CC(=O)N[C@@H]1[C@@H](O)C[C@](O)(C(=O)O)O[C@H]1C(O)[C@H](O)CNC(=O)OCc1cn(Cc2ccc(Br)cc2)nn1
 SMILES IDX 21 1 22 2 23 3 20 5 18 6 16 7 15 8 9 9 8 10 14 11 6 12 5 13
 SMILES IDX 10 14 11 16 12 17 13 18 7 20 4 22 2 23 1 25 3 26 17 27 19 29
 SMILES IDX 24 31 25 32 26 33 27 34 38 35 28 36 37 37 29 38 30 39 31 40
 SMILES IDX 36 41 32 42 35 43 33 44 34 45
 H PARENT 21 4 10 15 13 19 7 21 4 24 17 28 19 30
 Flexibility Score: inf
  4 active torsions:
  status: ('A' for Active; 'I' for Inactive)
    1  A    between atoms: CA   and  CB  
    2  A    between atoms: CB   and  CG  
    3  A    between atoms: CG   and  CD  
    4  A    between atoms: CD   and  CE  

>  <TORSDO>
F 16

>  <BEGIN_>
RES LYS A 131

$$$$
ligand_44_pose_14_2HRL.pdbqt
 OpenBabel07062320523D

  6  5  0  0  0  0  0  0  0  0999 V2000
   33.1930   34.6630    9.2900 C   0  0  0  0  0  0  0  0  0  0  0  0
   32.0600   35.3600   10.0340 C   0  0  0  0  0  0  0  0  0  0  0  0
   30.7240   34.6820    9.8690 C   0  0  0  0  0  0  0  0  0  0  0  0
   29.8790   35.4070    8.8330 C   0  0  0  0  0  0  0  0  0  0  0  0
   28.7560   34.5130    8.3430 C   0  0  0  0  0  0  0  0  0  0  0  0
   28.1060   33.7980    9.4750 N   0  0  0  0  0  0  0  0  0  0  0  0
  1  2  1  0  0  0  0
  3  2  1  0  0  0  0
  4  3  1  0  0  0  0
  5  4  1  0  0  0  0
  5  6  1  0  0  0  0
M  END
>  <EGIN_R>
ES LYS A 135

>  <REMARK>
  4 active torsions:
  status: ('A' for Active; 'I' for Inactive)
    5  A    between atoms: CA   and  CB  
    6  A    between atoms: CB   and  CG  
    7  A    between atoms: CG   and  CD  
    8  A    between atoms: CD   and  CE  

$$$$
