ligand_6_pose_19_2HRL.pdbqt
 OpenBabel07062320523D

 52 53  0  0  1  0  0  0  0  0999 V2000
   31.3860   33.6070   17.4550 N   0  0  0  0  0  0  0  0  0  0  0  0
   31.3050   33.0690   16.1580 C   0  0  0  0  0  0  0  0  0  0  0  0
   30.4430   32.2400   15.8150 O   0  0  0  0  0  0  0  0  0  0  0  0
   32.1610   34.3380   17.6160 H   0  0  0  0  0  0  0  0  0  0  0  0
   30.5430   33.2580   18.5310 C   0  0  0  0  0  0  0  0  0  0  0  0
   30.6290   31.9190   19.1460 C   0  0  2  0  0  0  0  0  0  0  0  0
   29.5380   30.9520   19.1000 C   0  0  2  0  0  0  0  0  0  0  0  0
   29.5970   29.9450   20.2530 C   0  0  2  0  0  0  0  0  0  0  0  0
   31.0030   28.2570   21.0170 C   0  0  2  0  0  0  0  0  0  0  0  0
   29.9270   28.1140   22.0690 C   0  0  0  0  0  0  0  0  0  0  0  0
   30.9020   29.4090   20.2720 O   0  0  0  0  0  0  0  0  0  0  0  0
   28.5460   28.1520   21.4950 C   0  0  1  0  0  0  0  0  0  0  0  0
   28.6610   28.8020   20.1040 C   0  0  1  0  0  0  0  0  0  0  0  0
   30.9840   27.1060   20.2480 O   0  0  0  0  0  0  0  0  0  0  0  0
   30.1290   26.6480   20.3770 H   0  0  0  0  0  0  0  0  0  0  0  0
   32.2990   28.3130   21.7430 C   0  0  0  0  0  0  0  0  0  0  0  0
   32.5260   27.5480   22.7160 O   0  0  0  0  0  0  0  0  0  0  0  0
   33.2900   29.2040   21.3680 O   0  0  0  0  0  0  0  0  0  0  0  0
   33.7380   29.8340   22.0380 H   0  0  0  0  0  0  0  0  0  0  0  0
   27.9220   26.9270   21.4230 O   0  0  0  0  0  0  0  0  0  0  0  0
   27.6470   26.7750   20.4850 H   0  0  0  0  0  0  0  0  0  0  0  0
   27.3060   29.1590   19.7400 N   0  0  0  0  0  0  0  0  0  0  0  0
   26.6980   28.6090   18.5630 C   0  0  0  0  0  0  0  0  0  0  0  0
   26.7230   29.8120   20.2980 H   0  0  0  0  0  0  0  0  0  0  0  0
   25.3190   28.9290   18.1320 C   0  0  0  0  0  0  0  0  0  0  0  0
   27.3830   27.8200   17.8790 O   0  0  0  0  0  0  0  0  0  0  0  0
   29.4660   30.3160   17.8870 O   0  0  0  0  0  0  0  0  0  0  0  0
   29.0780   29.4130   17.8890 H   0  0  0  0  0  0  0  0  0  0  0  0
   31.1100   32.1490   20.4680 O   0  0  0  0  0  0  0  0  0  0  0  0
   31.5230   31.3190   20.8220 H   0  0  0  0  0  0  0  0  0  0  0  0
   32.2600   33.5080   15.2140 O   0  0  0  0  0  0  0  0  0  0  0  0
   32.7780   34.8090   15.4110 C   0  0  0  0  0  0  0  0  0  0  0  0
   31.9180   35.8170   14.7020 C   0  0  0  0  0  0  0  0  0  0  0  0
   32.0160   36.2290   13.3910 C   0  0  0  0  0  0  0  0  0  0  0  0
   30.8780   36.5250   15.2070 N   0  0  0  0  0  0  0  0  0  0  0  0
   31.0620   37.1530   13.1250 N   0  0  0  0  0  0  0  0  0  0  0  0
   30.4040   37.2940   14.2570 N   0  0  0  0  0  0  0  0  0  0  0  0
   30.8360   37.8190   11.8860 C   0  0  0  0  0  0  0  0  0  0  0  0
   29.5680   38.1280   11.4390 C   0  0  0  0  0  0  0  0  0  0  0  0
   31.8910   38.1880   11.0710 C   0  0  0  0  0  0  0  0  0  0  0  0
   29.3730   38.7740   10.2350 C   0  0  0  0  0  0  0  0  0  0  0  0
   31.6960   38.8350    9.8670 C   0  0  0  0  0  0  0  0  0  0  0  0
   30.4300   39.1450    9.4170 C   0  0  0  0  0  0  0  0  0  0  0  0
   30.2380   39.8080    8.1830 N   0  0  0  0  0  0  0  0  0  0  0  0
   29.0780   39.9700    7.7680 O   0  0  0  0  0  0  0  0  0  0  0  0
   31.2600   40.2880    7.4120 O   0  0  0  0  0  0  0  0  0  0  0  0
   29.8670   25.5550   16.9770 C   0  0  0  0  0  0  0  0  0  0  0  0
   28.3450   25.7220   17.0260 C   0  0  0  0  0  0  0  0  0  0  0  0
   27.6020   24.4000   16.9140 C   0  0  0  0  0  0  0  0  0  0  0  0
   26.1520   24.5310   17.2910 C   0  0  0  0  0  0  0  0  0  0  0  0
   25.9630   24.1080   18.7440 C   0  0  0  0  0  0  0  0  0  0  0  0
   25.5060   25.2550   19.5630 N   0  0  0  0  0  0  0  0  0  0  0  0
  1  4  1  0  0  0  0
  1  5  1  0  0  0  0
  2  1  1  0  0  0  0
  3  2  2  0  0  0  0
  6  5  1  1  0  0  0
  6 29  1  0  0  0  0
  7 27  1  6  0  0  0
  7  6  1  0  0  0  0
  8  7  1  6  0  0  0
  8 11  1  0  0  0  0
  9 14  1  6  0  0  0
  9 16  1  0  0  0  0
  9 10  1  0  0  0  0
 11  9  1  0  0  0  0
 12 20  1  6  0  0  0
 12 10  1  0  0  0  0
 13 22  1  1  0  0  0
 13  8  1  0  0  0  0
 13 12  1  0  0  0  0
 14 15  1  0  0  0  0
 16 17  2  0  0  0  0
 18 16  1  0  0  0  0
 18 19  1  0  0  0  0
 21 20  1  0  0  0  0
 22 24  1  0  0  0  0
 23 22  1  0  0  0  0
 25 23  1  0  0  0  0
 26 23  2  0  0  0  0
 27 28  1  0  0  0  0
 29 30  1  0  0  0  0
 31 32  1  0  0  0  0
 31  2  1  0  0  0  0
 33 35  1  0  0  0  0
 33 32  1  0  0  0  0
 34 33  2  0  0  0  0
 36 34  1  0  0  0  0
 36 37  1  0  0  0  0
 37 35  2  0  0  0  0
 38 36  1  0  0  0  0
 39 38  1  0  0  0  0
 40 38  2  0  0  0  0
 41 39  2  0  0  0  0
 42 40  1  0  0  0  0
 43 42  2  0  0  0  0
 43 41  1  0  0  0  0
 44 43  1  0  0  0  0
 45 44  2  0  0  0  0
 46 44  2  0  0  0  0
 47 48  1  0  0  0  0
 49 48  1  0  0  0  0
 49 50  1  0  0  0  0
 50 51  1  0  0  0  0
 51 52  1  0  0  0  0
M  END
>  <REMARK>
 VINA RESULT:    -5.113      3.146      6.643
 INTER + INTRA:         -13.898
 INTER:                  -9.149
 INTRA:                  -4.749
 UNBOUND:                -4.749
 SMILES CC(=O)N[C@@H]1[C@@H](O)C[C@](O)(C(=O)O)O[C@H]1C(O)[C@H](O)CNC(=O)OCc1cn(-c2ccc([N+](=O)[O-])cc2)nn1
 SMILES IDX 21 1 22 2 23 3 20 5 18 6 16 7 15 8 9 9 8 10 14 11 6 12 5 13
 SMILES IDX 10 14 11 16 12 17 13 18 7 20 4 22 2 23 1 25 3 26 17 27 19 29
 SMILES IDX 24 31 25 32 26 33 27 34 39 35 28 36 38 37 29 38 30 39 37 40
 SMILES IDX 31 41 36 42 32 43 33 44 34 45 35 46
 H PARENT 21 4 10 15 13 19 7 21 4 24 17 28 19 30
 Flexibility Score: inf
  4 active torsions:
  status: ('A' for Active; 'I' for Inactive)
    1  A    between atoms: CA   and  CB  
    2  A    between atoms: CB   and  CG  
    3  A    between atoms: CG   and  CD  
    4  A    between atoms: CD   and  CE  

>  <TORSDO>
F 16

>  <BEGIN_>
RES LYS A 131

$$$$
ligand_6_pose_19_2HRL.pdbqt
 OpenBabel07062320523D

  6  5  0  0  0  0  0  0  0  0999 V2000
   33.1930   34.6630    9.2900 C   0  0  0  0  0  0  0  0  0  0  0  0
   32.0600   35.3600   10.0340 C   0  0  0  0  0  0  0  0  0  0  0  0
   30.7380   35.3000    9.3120 C   0  0  0  0  0  0  0  0  0  0  0  0
   29.6840   34.6290   10.1790 C   0  0  0  0  0  0  0  0  0  0  0  0
   28.5960   34.0180    9.3170 C   0  0  0  0  0  0  0  0  0  0  0  0
   28.5000   34.7110    8.0020 N   0  0  0  0  0  0  0  0  0  0  0  0
  1  2  1  0  0  0  0
  3  2  1  0  0  0  0
  3  4  1  0  0  0  0
  5  4  1  0  0  0  0
  6  5  1  0  0  0  0
M  END
>  <EGIN_R>
ES LYS A 135

>  <REMARK>
  4 active torsions:
  status: ('A' for Active; 'I' for Inactive)
    5  A    between atoms: CA   and  CB  
    6  A    between atoms: CB   and  CG  
    7  A    between atoms: CG   and  CD  
    8  A    between atoms: CD   and  CE  

$$$$
