ligand_60_pose_10_2HRL.pdbqt
 OpenBabel07062320523D

 55 56  0  0  1  0  0  0  0  0999 V2000
   24.0130   32.7340   14.9930 N   0  0  0  0  0  0  0  0  0  0  0  0
   23.5240   31.6410   15.7220 C   0  0  0  0  0  0  0  0  0  0  0  0
   22.3660   31.2250   15.5470 O   0  0  0  0  0  0  0  0  0  0  0  0
   25.0070   33.0370   15.1860 H   0  0  0  0  0  0  0  0  0  0  0  0
   23.2280   33.4220   14.0300 C   0  0  0  0  0  0  0  0  0  0  0  0
   23.9770   34.5620   13.3500 C   0  0  2  0  0  0  0  0  0  0  0  0
   23.3800   34.7760   11.9890 C   0  0  1  0  0  0  0  0  0  0  0  0
   24.3480   35.1790   10.9430 C   0  0  2  0  0  0  0  0  0  0  0  0
   26.2250   36.5370   10.6980 C   0  0  2  0  0  0  0  0  0  0  0  0
   26.2790   35.7440    9.4160 C   0  0  0  0  0  0  0  0  0  0  0  0
   25.1610   36.2070   11.4900 O   0  0  0  0  0  0  0  0  0  0  0  0
   24.9760   35.7230    8.6780 C   0  0  1  0  0  0  0  0  0  0  0  0
   23.8320   35.7180    9.6620 C   0  0  1  0  0  0  0  0  0  0  0  0
   26.2800   37.9280   10.4370 O   0  0  0  0  0  0  0  0  0  0  0  0
   26.6550   38.4160   11.2130 H   0  0  0  0  0  0  0  0  0  0  0  0
   27.4700   36.2290   11.4510 C   0  0  0  0  0  0  0  0  0  0  0  0
   27.6920   35.0310   11.7610 O   0  0  0  0  0  0  0  0  0  0  0  0
   28.4000   37.1770   11.8330 O   0  0  0  0  0  0  0  0  0  0  0  0
   28.1310   38.1490   11.9650 H   0  0  0  0  0  0  0  0  0  0  0  0
   24.9440   36.8120    7.8160 O   0  0  0  0  0  0  0  0  0  0  0  0
   25.4990   37.5180    8.2360 H   0  0  0  0  0  0  0  0  0  0  0  0
   22.6320   35.1830    9.1420 N   0  0  0  0  0  0  0  0  0  0  0  0
   21.6940   35.9660    8.4310 C   0  0  0  0  0  0  0  0  0  0  0  0
   22.4150   34.1740    9.2550 H   0  0  0  0  0  0  0  0  0  0  0  0
   20.4200   35.3820    7.8850 C   0  0  0  0  0  0  0  0  0  0  0  0
   21.9500   37.1730    8.2670 O   0  0  0  0  0  0  0  0  0  0  0  0
   22.3830   33.9090   11.6300 O   0  0  0  0  0  0  0  0  0  0  0  0
   21.7050   34.3940   11.1090 H   0  0  0  0  0  0  0  0  0  0  0  0
   25.3190   34.2890   13.3750 O   0  0  0  0  0  0  0  0  0  0  0  0
   25.7170   34.5870   14.2390 H   0  0  0  0  0  0  0  0  0  0  0  0
   24.2990   30.9640   16.6760 O   0  0  0  0  0  0  0  0  0  0  0  0
   25.0690   29.8580   16.3240 C   0  0  0  0  0  0  0  0  0  0  0  0
   26.4950   30.2070   16.1360 C   0  0  0  0  0  0  0  0  0  0  0  0
   27.0750   31.3960   15.7660 C   0  0  0  0  0  0  0  0  0  0  0  0
   27.5260   29.3420   16.3180 N   0  0  0  0  0  0  0  0  0  0  0  0
   28.4120   31.2490   15.7260 N   0  0  0  0  0  0  0  0  0  0  0  0
   28.6460   29.9970   16.0650 N   0  0  0  0  0  0  0  0  0  0  0  0
   29.4050   32.2130   15.3940 C   0  0  0  0  0  0  0  0  0  0  0  0
   30.7310   32.0340   15.7260 C   0  0  0  0  0  0  0  0  0  0  0  0
   29.0780   33.3770   14.7220 C   0  0  0  0  0  0  0  0  0  0  0  0
   31.7030   32.9570   15.4120 C   0  0  0  0  0  0  0  0  0  0  0  0
   30.0480   34.3040   14.4060 C   0  0  0  0  0  0  0  0  0  0  0  0
   31.3770   34.1360   14.7320 C   0  0  0  0  0  0  0  0  0  0  0  0
   32.6150   35.3060   14.3370 S   0  0  0  0  0  0  0  0  0  0  0  0
   31.9640   36.6610   14.3410 O   0  0  0  0  0  0  0  0  0  0  0  0
   33.6400   35.3150   15.4490 O   0  0  0  0  0  0  0  0  0  0  0  0
   33.3590   35.0030   12.8250 N   0  0  0  0  0  0  0  0  0  0  0  0
   34.3850   35.0190   12.8320 H   0  0  0  0  0  0  0  0  0  0  0  0
   32.9750   34.1500   12.3590 H   0  0  0  0  0  0  0  0  0  0  0  0
   29.8670   25.5550   16.9770 C   0  0  0  0  0  0  0  0  0  0  0  0
   28.3450   25.7220   17.0260 C   0  0  0  0  0  0  0  0  0  0  0  0
   27.6010   24.4020   16.8940 C   0  0  0  0  0  0  0  0  0  0  0  0
   26.1500   24.5300   17.2650 C   0  0  0  0  0  0  0  0  0  0  0  0
   25.9530   24.0890   18.7110 C   0  0  0  0  0  0  0  0  0  0  0  0
   25.7040   25.2620   19.5820 N   0  0  0  0  0  0  0  0  0  0  0  0
  1  4  1  0  0  0  0
  1  2  1  0  0  0  0
  2 31  1  0  0  0  0
  3  2  2  0  0  0  0
  5  1  1  0  0  0  0
  6 29  1  0  0  0  0
  6  5  1  6  0  0  0
  7 27  1  6  0  0  0
  7  6  1  0  0  0  0
  8 11  1  0  0  0  0
  8  7  1  1  0  0  0
  9 14  1  6  0  0  0
  9 16  1  0  0  0  0
  9 11  1  0  0  0  0
 10  9  1  0  0  0  0
 12 20  1  6  0  0  0
 12 10  1  0  0  0  0
 12 13  1  0  0  0  0
 13 22  1  6  0  0  0
 13  8  1  0  0  0  0
 14 15  1  0  0  0  0
 16 17  2  0  0  0  0
 16 18  1  0  0  0  0
 18 19  1  0  0  0  0
 20 21  1  0  0  0  0
 22 24  1  0  0  0  0
 23 22  1  0  0  0  0
 25 23  1  0  0  0  0
 26 23  2  0  0  0  0
 28 27  1  0  0  0  0
 29 30  1  0  0  0  0
 32 31  1  0  0  0  0
 33 35  1  0  0  0  0
 33 32  1  0  0  0  0
 34 33  2  0  0  0  0
 36 34  1  0  0  0  0
 36 37  1  0  0  0  0
 37 35  2  0  0  0  0
 38 36  1  0  0  0  0
 38 39  2  0  0  0  0
 40 38  1  0  0  0  0
 41 39  1  0  0  0  0
 42 40  2  0  0  0  0
 42 43  1  0  0  0  0
 43 41  2  0  0  0  0
 44 45  2  0  0  0  0
 44 43  1  0  0  0  0
 44 46  2  0  0  0  0
 47 48  1  0  0  0  0
 47 44  1  0  0  0  0
 49 47  1  0  0  0  0
 50 51  1  0  0  0  0
 52 51  1  0  0  0  0
 52 53  1  0  0  0  0
 53 54  1  0  0  0  0
 54 55  1  0  0  0  0
M  END
>  <REMARK>
 VINA RESULT:    -4.900      5.486     10.234
 INTER + INTRA:         -14.874
 INTER:                  -9.623
 INTRA:                  -5.251
 UNBOUND:                -5.964
 SMILES CC(=O)N[C@@H]1[C@@H](O)C[C@](O)(C(=O)O)O[C@H]1C(O)[C@H](O)CNC(=O)OCc1cn(-c2ccc(S(N)(=O)=O)cc2)nn1
 SMILES IDX 21 1 22 2 23 3 20 5 18 6 16 7 15 8 9 9 8 10 14 11 6 12 5 13
 SMILES IDX 10 14 11 16 12 17 13 18 7 20 4 22 2 23 1 25 3 26 17 27 19 29
 SMILES IDX 24 31 25 32 26 33 27 34 40 35 28 36 39 37 29 38 30 39 38 40
 SMILES IDX 31 41 37 42 32 43 33 44 35 45 36 46 34 47
 H PARENT 21 4 10 15 13 19 7 21 4 24 17 28 19 30 34 48 34 49
 Flexibility Score: inf
  4 active torsions:
  status: ('A' for Active; 'I' for Inactive)
    1  A    between atoms: CA   and  CB  
    2  A    between atoms: CB   and  CG  
    3  A    between atoms: CG   and  CD  
    4  A    between atoms: CD   and  CE  

>  <TORSDO>
F 17

>  <BEGIN_>
RES LYS A 131

$$$$
ligand_60_pose_10_2HRL.pdbqt
 OpenBabel07062320523D

  6  5  0  0  0  0  0  0  0  0999 V2000
   33.1930   34.6630    9.2900 C   0  0  0  0  0  0  0  0  0  0  0  0
   32.0600   35.3600   10.0340 C   0  0  0  0  0  0  0  0  0  0  0  0
   30.6980   34.7950    9.7240 C   0  0  0  0  0  0  0  0  0  0  0  0
   30.5980   34.4110    8.2550 C   0  0  0  0  0  0  0  0  0  0  0  0
   29.4700   35.1690    7.5820 C   0  0  0  0  0  0  0  0  0  0  0  0
   29.3720   36.5600    8.1040 N   0  0  0  0  0  0  0  0  0  0  0  0
  1  2  1  0  0  0  0
  3  2  1  0  0  0  0
  4  3  1  0  0  0  0
  5  6  1  0  0  0  0
  5  4  1  0  0  0  0
M  END
>  <EGIN_R>
ES LYS A 135

>  <REMARK>
  4 active torsions:
  status: ('A' for Active; 'I' for Inactive)
    5  A    between atoms: CA   and  CB  
    6  A    between atoms: CB   and  CG  
    7  A    between atoms: CG   and  CD  
    8  A    between atoms: CD   and  CE  

$$$$
