ligand_90_pose_17_2HRL.pdbqt
 OpenBabel07062320523D

 61 62  0  0  1  0  0  0  0  0999 V2000
   31.5250   31.6140   21.5070 C   0  0  0  0  0  0  0  0  0  0  0  0
   32.6080   30.7090   21.4210 O   0  0  0  0  0  0  0  0  0  0  0  0
   32.4630   29.3700   21.7370 C   0  0  0  0  0  0  0  0  0  0  0  0
   31.9130   28.4370   20.7920 N   0  0  0  0  0  0  0  0  0  0  0  0
   31.6290   28.8300   19.8730 H   0  0  0  0  0  0  0  0  0  0  0  0
   32.8190   28.9850   22.8640 O   0  0  0  0  0  0  0  0  0  0  0  0
   31.7520   27.0500   21.0650 C   0  0  0  0  0  0  0  0  0  0  0  0
   30.3520   26.6300   21.3460 C   0  0  2  0  0  0  0  0  0  0  0  0
   29.4000   27.6440   20.7320 C   0  0  1  0  0  0  0  0  0  0  0  0
   28.1420   27.0220   20.2180 C   0  0  2  0  0  0  0  0  0  0  0  0
   27.0360   28.5000   18.7970 C   0  0  2  0  0  0  0  0  0  0  0  0
   25.6380   28.1850   19.3090 C   0  0  0  0  0  0  0  0  0  0  0  0
   27.8830   27.4360   18.9370 O   0  0  0  0  0  0  0  0  0  0  0  0
   25.7020   27.0130   20.2780 C   0  0  1  0  0  0  0  0  0  0  0  0
   26.9670   27.2320   21.1160 C   0  0  1  0  0  0  0  0  0  0  0  0
   27.4910   29.5620   19.5570 O   0  0  0  0  0  0  0  0  0  0  0  0
   27.7360   30.3290   18.9780 H   0  0  0  0  0  0  0  0  0  0  0  0
   27.0080   28.9310   17.3760 C   0  0  0  0  0  0  0  0  0  0  0  0
   25.9260   29.0200   16.7280 O   0  0  0  0  0  0  0  0  0  0  0  0
   28.1740   29.2540   16.7030 O   0  0  0  0  0  0  0  0  0  0  0  0
   28.3390   29.1230   15.7220 H   0  0  0  0  0  0  0  0  0  0  0  0
   24.5660   27.0590   21.0670 O   0  0  0  0  0  0  0  0  0  0  0  0
   23.8310   26.5010   20.7270 H   0  0  0  0  0  0  0  0  0  0  0  0
   26.9720   26.3030   22.2380 N   0  0  0  0  0  0  0  0  0  0  0  0
   26.5790   26.7540   23.5130 C   0  0  0  0  0  0  0  0  0  0  0  0
   27.2650   25.3340   22.0910 H   0  0  0  0  0  0  0  0  0  0  0  0
   26.5690   25.8250   24.7030 C   0  0  0  0  0  0  0  0  0  0  0  0
   26.2190   27.9320   23.7500 O   0  0  0  0  0  0  0  0  0  0  0  0
   29.0850   28.6470   21.6350 O   0  0  0  0  0  0  0  0  0  0  0  0
   29.8450   29.2070   21.8760 H   0  0  0  0  0  0  0  0  0  0  0  0
   30.0500   26.4820   22.6900 O   0  0  0  0  0  0  0  0  0  0  0  0
   30.7840   26.7950   23.2840 H   0  0  0  0  0  0  0  0  0  0  0  0
   30.8470   31.5540   20.1900 C   0  0  0  0  0  0  0  0  0  0  0  0
   30.5680   32.6570   19.4130 C   0  0  0  0  0  0  0  0  0  0  0  0
   30.3690   30.5180   19.4850 N   0  0  0  0  0  0  0  0  0  0  0  0
   29.9330   32.2710   18.2630 N   0  0  0  0  0  0  0  0  0  0  0  0
   29.8280   30.9670   18.3370 N   0  0  0  0  0  0  0  0  0  0  0  0
   29.5130   33.2260   17.2620 C   0  0  0  0  0  0  0  0  0  0  0  0
   30.7850   33.7670   16.6350 C   0  0  0  0  0  0  0  0  0  0  0  0
   31.5850   32.9890   16.0730 O   0  0  0  0  0  0  0  0  0  0  0  0
   31.1070   35.1260   16.6590 N   0  0  0  0  0  0  0  0  0  0  0  0
   30.3440   35.7310   17.1490 H   0  0  0  0  0  0  0  0  0  0  0  0
   32.2450   35.8070   16.1610 C   0  0  0  0  0  0  0  0  0  0  0  0
   32.1050   36.8350   15.1320 C   0  0  1  0  0  0  0  0  0  0  0  0
   32.6170   38.0980   15.5360 O   0  0  0  0  0  0  0  0  0  0  0  0
   32.2920   38.7930   14.9150 H   0  0  0  0  0  0  0  0  0  0  0  0
   32.2900   36.5380   13.7020 C   0  0  0  0  0  0  0  0  0  0  0  0
   31.2000   37.0010   12.8660 N   0  0  0  0  0  0  0  0  0  0  0  0
   31.2700   38.0120   11.9640 C   0  0  0  0  0  0  0  0  0  0  0  0
   29.9440   36.5170   12.8650 C   0  0  0  0  0  0  0  0  0  0  0  0
   30.0090   38.1320   11.4080 C   0  0  0  0  0  0  0  0  0  0  0  0
   29.2040   37.2220   11.9580 N   0  0  0  0  0  0  0  0  0  0  0  0
   29.3930   35.4610   13.6320 N   0  0  0  0  0  0  0  0  0  0  0  0
   29.6420   34.2750   13.2630 O   0  0  0  0  0  0  0  0  0  0  0  0
   28.6140   35.5900   14.7320 O   0  0  0  0  0  0  0  0  0  0  0  0
   29.8670   25.5550   16.9770 C   0  0  0  0  0  0  0  0  0  0  0  0
   28.3450   25.7220   17.0260 C   0  0  0  0  0  0  0  0  0  0  0  0
   27.6010   24.4040   16.8790 C   0  0  0  0  0  0  0  0  0  0  0  0
   26.1450   24.5330   17.2300 C   0  0  0  0  0  0  0  0  0  0  0  0
   25.5650   23.1510   17.5130 C   0  0  0  0  0  0  0  0  0  0  0  0
   24.1230   23.1140   17.1720 N   0  0  0  0  0  0  0  0  0  0  0  0
  2  1  1  0  0  0  0
  2  3  1  0  0  0  0
  3  6  2  0  0  0  0
  4  7  1  0  0  0  0
  4  3  1  0  0  0  0
  5  4  1  0  0  0  0
  8  7  1  1  0  0  0
  8 31  1  0  0  0  0
  9  8  1  0  0  0  0
  9 29  1  1  0  0  0
 10  9  1  1  0  0  0
 10 15  1  0  0  0  0
 11 18  1  6  0  0  0
 11 13  1  0  0  0  0
 11 12  1  0  0  0  0
 11 16  1  0  0  0  0
 12 14  1  0  0  0  0
 13 10  1  0  0  0  0
 14 22  1  1  0  0  0
 14 15  1  0  0  0  0
 15 24  1  1  0  0  0
 17 16  1  0  0  0  0
 19 18  2  0  0  0  0
 20 18  1  0  0  0  0
 21 20  1  0  0  0  0
 23 22  1  0  0  0  0
 24 25  1  0  0  0  0
 25 28  2  0  0  0  0
 25 27  1  0  0  0  0
 26 24  1  0  0  0  0
 29 30  1  0  0  0  0
 31 32  1  0  0  0  0
 33  1  1  0  0  0  0
 34 33  2  0  0  0  0
 35 33  1  0  0  0  0
 36 37  1  0  0  0  0
 36 34  1  0  0  0  0
 37 35  2  0  0  0  0
 38 36  1  0  0  0  0
 39 41  1  0  0  0  0
 39 38  1  0  0  0  0
 40 39  2  0  0  0  0
 41 42  1  0  0  0  0
 43 41  1  0  0  0  0
 44 47  1  6  0  0  0
 44 45  1  0  0  0  0
 44 43  1  0  0  0  0
 46 45  1  0  0  0  0
 48 47  1  0  0  0  0
 49 48  1  0  0  0  0
 50 48  1  0  0  0  0
 50 53  1  0  0  0  0
 51 52  1  0  0  0  0
 51 49  2  0  0  0  0
 52 50  2  0  0  0  0
 53 55  2  0  0  0  0
 54 53  2  0  0  0  0
 56 57  1  0  0  0  0
 58 57  1  0  0  0  0
 58 59  1  0  0  0  0
 59 60  1  0  0  0  0
 61 60  1  0  0  0  0
M  END
>  <REMARK>
 VINA RESULT:    -5.157      6.308     13.481
 INTER + INTRA:         -16.645
 INTER:                  -8.832
 INTRA:                  -7.813
 UNBOUND:                -5.759
 SMILES CC(=O)N[C@@H]1[C@@H](O)C[C@](O)(C(=O)O)O[C@H]1C(O)[C@H](O)CNC(=O)OCc1cn(CC(=O)NCC(O)Cn2ccnc2[N+](=O)[O-])nn1
 SMILES IDX 25 1 24 2 22 3 21 4 23 6 20 7 18 8 16 9 15 10 9 11 8 12
 SMILES IDX 14 13 6 14 5 15 10 16 11 18 12 19 13 20 7 22 4 24 2 25 1 27
 SMILES IDX 3 28 17 29 19 31 26 33 27 34 46 35 28 36 45 37 29 38 30 39
 SMILES IDX 31 40 32 41 33 43 34 44 35 45 36 47 37 48 38 49 41 50 39 51
 SMILES IDX 40 52 42 53 43 54 44 55
 H PARENT 21 5 10 17 13 21 7 23 4 26 17 30 19 32 32 42 35 46
 Flexibility Score: inf
  4 active torsions:
  status: ('A' for Active; 'I' for Inactive)
    1  A    between atoms: CA   and  CB  
    2  A    between atoms: CB   and  CG  
    3  A    between atoms: CG   and  CD  
    4  A    between atoms: CD   and  CE  

>  <TORSDO>
F 22

>  <BEGIN_>
RES LYS A 131

$$$$
ligand_90_pose_17_2HRL.pdbqt
 OpenBabel07062320523D

  6  5  0  0  0  0  0  0  0  0999 V2000
   33.1930   34.6630    9.2900 C   0  0  0  0  0  0  0  0  0  0  0  0
   32.0600   35.3600   10.0340 C   0  0  0  0  0  0  0  0  0  0  0  0
   30.7090   34.7350    9.7970 C   0  0  0  0  0  0  0  0  0  0  0  0
   30.4660   34.5320    8.3100 C   0  0  0  0  0  0  0  0  0  0  0  0
   29.0210   34.8340    7.9600 C   0  0  0  0  0  0  0  0  0  0  0  0
   28.9220   35.5440    6.6550 N   0  0  0  0  0  0  0  0  0  0  0  0
  1  2  1  0  0  0  0
  3  2  1  0  0  0  0
  4  3  1  0  0  0  0
  5  4  1  0  0  0  0
  6  5  1  0  0  0  0
M  END
>  <EGIN_R>
ES LYS A 135

>  <REMARK>
  4 active torsions:
  status: ('A' for Active; 'I' for Inactive)
    5  A    between atoms: CA   and  CB  
    6  A    between atoms: CB   and  CG  
    7  A    between atoms: CG   and  CD  
    8  A    between atoms: CD   and  CE  

$$$$
