ligand_31_pose_9_2HRL.pdbqt
 OpenBabel07062320523D

 57 58  0  0  1  0  0  0  0  0999 V2000
   23.5790   37.9210    7.9790 O   0  0  0  0  0  0  0  0  0  0  0  0
   24.6630   38.5440    7.3690 C   0  0  0  0  0  0  0  0  0  0  0  0
   25.8950   37.9250    7.1150 N   0  0  0  0  0  0  0  0  0  0  0  0
   26.0420   36.9420    7.3850 H   0  0  0  0  0  0  0  0  0  0  0  0
   24.5180   39.7470    7.0260 O   0  0  0  0  0  0  0  0  0  0  0  0
   26.9730   38.6780    6.4650 C   0  0  0  0  0  0  0  0  0  0  0  0
   27.9860   39.0720    7.5070 C   0  0  2  0  0  0  0  0  0  0  0  0
   29.3920   39.0620    6.9750 C   0  0  1  0  0  0  0  0  0  0  0  0
   30.4230   39.2030    8.0560 C   0  0  2  0  0  0  0  0  0  0  0  0
   30.5800   40.0440   10.2310 C   0  0  2  0  0  0  0  0  0  0  0  0
   32.0530   40.2470   10.0880 C   0  0  0  0  0  0  0  0  0  0  0  0
   29.8750   40.0090    9.0700 O   0  0  0  0  0  0  0  0  0  0  0  0
   32.6380   39.8260    8.8020 C   0  0  1  0  0  0  0  0  0  0  0  0
   31.6730   39.9380    7.6360 C   0  0  1  0  0  0  0  0  0  0  0  0
   30.1120   41.1790   10.9420 O   0  0  0  0  0  0  0  0  0  0  0  0
   30.3690   42.0140   10.4780 H   0  0  0  0  0  0  0  0  0  0  0  0
   30.2370   38.8620   11.0590 C   0  0  0  0  0  0  0  0  0  0  0  0
   31.1180   38.2340   11.7120 O   0  0  0  0  0  0  0  0  0  0  0  0
   28.9410   38.3720   11.1690 O   0  0  0  0  0  0  0  0  0  0  0  0
   28.3050   38.4400   10.3820 H   0  0  0  0  0  0  0  0  0  0  0  0
   33.7950   40.5860    8.5310 O   0  0  0  0  0  0  0  0  0  0  0  0
   34.0070   40.5970    7.5760 H   0  0  0  0  0  0  0  0  0  0  0  0
   32.2820   39.4870    6.4320 N   0  0  0  0  0  0  0  0  0  0  0  0
   32.4890   40.4240    5.3730 C   0  0  0  0  0  0  0  0  0  0  0  0
   32.6020   38.5110    6.2590 H   0  0  0  0  0  0  0  0  0  0  0  0
   33.1130   40.0560    4.0840 C   0  0  0  0  0  0  0  0  0  0  0  0
   32.1310   41.6290    5.5230 O   0  0  0  0  0  0  0  0  0  0  0  0
   29.6420   38.0330    6.0850 O   0  0  0  0  0  0  0  0  0  0  0  0
   28.9380   37.3370    6.0690 H   0  0  0  0  0  0  0  0  0  0  0  0
   27.9490   38.0370    8.4810 O   0  0  0  0  0  0  0  0  0  0  0  0
   27.0340   37.6350    8.3650 H   0  0  0  0  0  0  0  0  0  0  0  0
   23.3760   37.9950    9.3740 C   0  0  0  0  0  0  0  0  0  0  0  0
   24.5370   37.3680   10.0440 C   0  0  0  0  0  0  0  0  0  0  0  0
   24.7030   36.0420   10.3390 C   0  0  0  0  0  0  0  0  0  0  0  0
   25.6380   38.0010   10.4790 N   0  0  0  0  0  0  0  0  0  0  0  0
   25.8960   35.9060   10.9440 N   0  0  0  0  0  0  0  0  0  0  0  0
   26.4620   37.0990   11.0270 N   0  0  0  0  0  0  0  0  0  0  0  0
   26.4980   34.6650   11.4380 C   0  0  0  0  0  0  0  0  0  0  0  0
   27.9890   34.7820   11.2580 C   0  0  0  0  0  0  0  0  0  0  0  0
   28.5460   35.5290   12.3560 N   0  0  0  0  0  0  0  0  0  0  0  0
   29.8470   35.3300   12.8770 C   0  0  0  0  0  0  0  0  0  0  0  0
   27.9680   36.2830   12.8240 H   0  0  0  0  0  0  0  0  0  0  0  0
   30.5750   34.4390   12.3450 O   0  0  0  0  0  0  0  0  0  0  0  0
   30.3050   36.1170   13.9650 N   0  0  0  0  0  0  0  0  0  0  0  0
   29.7300   36.8510   14.4180 H   0  0  0  0  0  0  0  0  0  0  0  0
   31.6400   35.8850   14.4700 C   0  0  0  0  0  0  0  0  0  0  0  0
   31.5670   34.8530   15.5270 C   0  0  0  0  0  0  0  0  0  0  0  0
   31.5300   35.1380   16.8870 C   0  0  0  0  0  0  0  0  0  0  0  0
   31.5290   33.5680   15.3690 O   0  0  0  0  0  0  0  0  0  0  0  0
   31.4660   33.9140   17.5170 C   0  0  0  0  0  0  0  0  0  0  0  0
   31.4690   32.9640   16.5160 C   0  0  0  0  0  0  0  0  0  0  0  0
   29.8670   25.5550   16.9770 C   0  0  0  0  0  0  0  0  0  0  0  0
   28.3450   25.7220   17.0260 C   0  0  0  0  0  0  0  0  0  0  0  0
   27.5990   24.4210   16.7740 C   0  0  0  0  0  0  0  0  0  0  0  0
   26.6330   24.0980   17.8800 C   0  0  0  0  0  0  0  0  0  0  0  0
   25.2240   23.9810   17.3060 C   0  0  0  0  0  0  0  0  0  0  0  0
   24.6520   22.6470   17.6050 N   0  0  0  0  0  0  0  0  0  0  0  0
  1 32  1  0  0  0  0
  2  1  1  0  0  0  0
  3  2  1  0  0  0  0
  3  4  1  0  0  0  0
  5  2  2  0  0  0  0
  6  3  1  0  0  0  0
  7  6  1  6  0  0  0
  7 30  1  0  0  0  0
  8 28  1  1  0  0  0
  8  7  1  0  0  0  0
  9  8  1  6  0  0  0
  9 12  1  0  0  0  0
 10 15  1  1  0  0  0
 10 17  1  0  0  0  0
 11 10  1  0  0  0  0
 12 10  1  0  0  0  0
 13 21  1  6  0  0  0
 13 11  1  0  0  0  0
 14 23  1  6  0  0  0
 14  9  1  0  0  0  0
 14 13  1  0  0  0  0
 16 15  1  0  0  0  0
 17 19  1  0  0  0  0
 17 18  2  0  0  0  0
 20 19  1  0  0  0  0
 22 21  1  0  0  0  0
 24 27  2  0  0  0  0
 24 23  1  0  0  0  0
 25 23  1  0  0  0  0
 26 24  1  0  0  0  0
 29 28  1  0  0  0  0
 31 30  1  0  0  0  0
 32 33  1  0  0  0  0
 33 34  2  0  0  0  0
 33 35  1  0  0  0  0
 34 36  1  0  0  0  0
 35 37  2  0  0  0  0
 36 37  1  0  0  0  0
 36 38  1  0  0  0  0
 39 38  1  0  0  0  0
 39 40  1  0  0  0  0
 40 42  1  0  0  0  0
 40 41  1  0  0  0  0
 41 44  1  0  0  0  0
 43 41  2  0  0  0  0
 44 45  1  0  0  0  0
 44 46  1  0  0  0  0
 46 47  1  0  0  0  0
 47 48  2  0  0  0  0
 48 50  1  0  0  0  0
 49 47  1  0  0  0  0
 49 51  1  0  0  0  0
 51 50  2  0  0  0  0
 52 53  1  0  0  0  0
 54 53  1  0  0  0  0
 54 55  1  0  0  0  0
 56 57  1  0  0  0  0
 56 55  1  0  0  0  0
M  END
>  <REMARK>
 VINA RESULT:    -5.009      6.253     12.976
 INTER + INTRA:         -15.749
 INTER:                  -8.393
 INTRA:                  -7.356
 UNBOUND:                -5.909
 SMILES CC(=O)N[C@@H]1[C@@H](O)C[C@](O)(C(=O)O)O[C@H]1C(O)[C@H](O)CNC(=O)OCc1cn(CCNC(=O)NCc2ccco2)nn1
 SMILES IDX 24 1 22 2 21 3 23 5 20 6 18 7 16 8 15 9 9 10 8 11 14 12 6 13
 SMILES IDX 5 14 10 15 11 17 12 18 13 19 7 21 4 23 2 24 1 26 3 27 17 28
 SMILES IDX 19 30 25 32 26 33 27 34 42 35 28 36 41 37 29 38 30 39 31 40
 SMILES IDX 32 41 33 43 34 44 35 46 36 47 37 48 40 49 38 50 39 51
 H PARENT 21 4 10 16 13 20 7 22 4 25 17 29 19 31 31 42 34 45
 Flexibility Score: inf
  4 active torsions:
  status: ('A' for Active; 'I' for Inactive)
    1  A    between atoms: CA   and  CB  
    2  A    between atoms: CB   and  CG  
    3  A    between atoms: CG   and  CD  
    4  A    between atoms: CD   and  CE  

>  <TORSDO>
F 19

>  <BEGIN_>
RES LYS A 131

$$$$
ligand_31_pose_9_2HRL.pdbqt
 OpenBabel07062320523D

  6  5  0  0  0  0  0  0  0  0999 V2000
   33.1930   34.6630    9.2900 C   0  0  0  0  0  0  0  0  0  0  0  0
   32.0600   35.3600   10.0340 C   0  0  0  0  0  0  0  0  0  0  0  0
   30.9020   35.7410    9.1480 C   0  0  0  0  0  0  0  0  0  0  0  0
   30.3660   34.5230    8.4120 C   0  0  0  0  0  0  0  0  0  0  0  0
   29.3720   34.9410    7.3450 C   0  0  0  0  0  0  0  0  0  0  0  0
   27.9730   34.8420    7.8470 N   0  0  0  0  0  0  0  0  0  0  0  0
  1  2  1  0  0  0  0
  3  2  1  0  0  0  0
  4  3  1  0  0  0  0
  5  6  1  0  0  0  0
  5  4  1  0  0  0  0
M  END
>  <EGIN_R>
ES LYS A 135

>  <REMARK>
  4 active torsions:
  status: ('A' for Active; 'I' for Inactive)
    5  A    between atoms: CA   and  CB  
    6  A    between atoms: CB   and  CG  
    7  A    between atoms: CG   and  CD  
    8  A    between atoms: CD   and  CE  

$$$$
