ligand_68_pose_18_2HRL.pdbqt
 OpenBabel07062320523D

 53 54  0  0  1  0  0  0  0  0999 V2000
   29.4650   30.4260   17.7700 N   0  0  0  0  0  0  0  0  0  0  0  0
   29.7100   30.7140   19.1360 C   0  0  0  0  0  0  0  0  0  0  0  0
   30.6370   31.5010   19.4300 O   0  0  0  0  0  0  0  0  0  0  0  0
   28.6560   29.7500   17.6070 H   0  0  0  0  0  0  0  0  0  0  0  0
   30.2140   30.9730   16.6630 C   0  0  0  0  0  0  0  0  0  0  0  0
   29.5700   32.2210   16.0960 C   0  0  2  0  0  0  0  0  0  0  0  0
   30.5970   33.0340   15.3070 C   0  0  2  0  0  0  0  0  0  0  0  0
   30.0540   33.6250   14.0330 C   0  0  2  0  0  0  0  0  0  0  0  0
   31.7110   35.2640   13.8210 C   0  0  2  0  0  0  0  0  0  0  0  0
   30.9930   36.0660   14.8300 C   0  0  0  0  0  0  0  0  0  0  0  0
   31.1290   34.1530   13.3140 O   0  0  0  0  0  0  0  0  0  0  0  0
   29.5120   35.8750   14.9370 C   0  0  1  0  0  0  0  0  0  0  0  0
   29.0000   34.6210   14.2710 C   0  0  1  0  0  0  0  0  0  0  0  0
   32.9090   34.8160   14.4550 O   0  0  0  0  0  0  0  0  0  0  0  0
   32.6120   34.3760   15.2820 H   0  0  0  0  0  0  0  0  0  0  0  0
   32.2040   36.1920   12.7360 C   0  0  0  0  0  0  0  0  0  0  0  0
   31.7040   37.3260   12.5500 O   0  0  0  0  0  0  0  0  0  0  0  0
   33.2470   35.7910   11.9060 O   0  0  0  0  0  0  0  0  0  0  0  0
   34.1120   36.3000   11.8120 H   0  0  0  0  0  0  0  0  0  0  0  0
   29.1300   35.8930   16.3080 O   0  0  0  0  0  0  0  0  0  0  0  0
   29.8440   35.4460   16.8010 H   0  0  0  0  0  0  0  0  0  0  0  0
   28.3180   35.0630   13.0650 N   0  0  0  0  0  0  0  0  0  0  0  0
   26.9520   34.8100   12.7890 C   0  0  0  0  0  0  0  0  0  0  0  0
   28.9080   35.5940   12.3880 H   0  0  0  0  0  0  0  0  0  0  0  0
   26.2860   35.2760   11.5480 C   0  0  0  0  0  0  0  0  0  0  0  0
   26.3260   34.1610   13.6670 O   0  0  0  0  0  0  0  0  0  0  0  0
   31.5240   32.0020   14.8930 O   0  0  0  0  0  0  0  0  0  0  0  0
   31.0600   31.2660   14.4660 H   0  0  0  0  0  0  0  0  0  0  0  0
   28.9880   32.9280   17.1220 O   0  0  0  0  0  0  0  0  0  0  0  0
   29.2590   33.8720   17.0300 H   0  0  0  0  0  0  0  0  0  0  0  0
   28.9660   30.1640   20.1700 O   0  0  0  0  0  0  0  0  0  0  0  0
   28.4860   28.8340   20.1380 C   0  0  0  0  0  0  0  0  0  0  0  0
   27.4580   28.7250   19.0830 C   0  0  0  0  0  0  0  0  0  0  0  0
   26.3110   29.4950   18.9700 C   0  0  0  0  0  0  0  0  0  0  0  0
   27.4020   27.8830   18.0250 N   0  0  0  0  0  0  0  0  0  0  0  0
   25.6160   29.1090   17.8850 N   0  0  0  0  0  0  0  0  0  0  0  0
   26.3000   28.1350   17.3360 N   0  0  0  0  0  0  0  0  0  0  0  0
   24.3450   29.6950   17.4380 C   0  0  0  0  0  0  0  0  0  0  0  0
   24.6160   30.6170   16.2750 C   0  0  1  0  0  0  0  0  0  0  0  0
   26.0160   30.6300   16.0790 O   0  0  0  0  0  0  0  0  0  0  0  0
   26.2130   30.3740   15.1370 H   0  0  0  0  0  0  0  0  0  0  0  0
   23.9970   30.0720   15.0500 C   0  0  0  0  0  0  0  0  0  0  0  0
   24.1040   30.6930   13.8220 C   0  0  0  0  0  0  0  0  0  0  0  0
   23.2720   28.8760   15.1340 C   0  0  0  0  0  0  0  0  0  0  0  0
   23.5210   30.1690   12.6940 C   0  0  0  0  0  0  0  0  0  0  0  0
   22.6920   28.3530   14.0140 C   0  0  0  0  0  0  0  0  0  0  0  0
   22.8150   28.9940   12.8030 C   0  0  0  0  0  0  0  0  0  0  0  0
   29.8670   25.5550   16.9770 C   0  0  0  0  0  0  0  0  0  0  0  0
   28.3450   25.7220   17.0260 C   0  0  0  0  0  0  0  0  0  0  0  0
   27.6010   24.4040   16.8750 C   0  0  0  0  0  0  0  0  0  0  0  0
   26.1580   24.5190   17.2820 C   0  0  0  0  0  0  0  0  0  0  0  0
   25.8120   23.3950   18.2540 C   0  0  0  0  0  0  0  0  0  0  0  0
   25.0010   22.3550   17.5770 N   0  0  0  0  0  0  0  0  0  0  0  0
  1  2  1  0  0  0  0
  2  3  2  0  0  0  0
  2 31  1  0  0  0  0
  4  1  1  0  0  0  0
  5  1  1  0  0  0  0
  6  5  1  1  0  0  0
  6 29  1  0  0  0  0
  7 27  1  6  0  0  0
  7  6  1  0  0  0  0
  8 13  1  0  0  0  0
  8  7  1  1  0  0  0
  9 16  1  6  0  0  0
  9 14  1  0  0  0  0
  9 10  1  0  0  0  0
 10 12  1  0  0  0  0
 11  9  1  0  0  0  0
 11  8  1  0  0  0  0
 12 20  1  1  0  0  0
 13 22  1  6  0  0  0
 13 12  1  0  0  0  0
 14 15  1  0  0  0  0
 17 16  2  0  0  0  0
 18 16  1  0  0  0  0
 19 18  1  0  0  0  0
 20 21  1  0  0  0  0
 23 22  1  0  0  0  0
 23 26  2  0  0  0  0
 24 22  1  0  0  0  0
 25 23  1  0  0  0  0
 28 27  1  0  0  0  0
 30 29  1  0  0  0  0
 32 31  1  0  0  0  0
 33 32  1  0  0  0  0
 34 33  2  0  0  0  0
 35 33  1  0  0  0  0
 36 34  1  0  0  0  0
 37 36  1  0  0  0  0
 37 35  2  0  0  0  0
 38 36  1  0  0  0  0
 39 38  1  1  0  0  0
 40 39  1  0  0  0  0
 41 40  1  0  0  0  0
 42 44  1  0  0  0  0
 42 39  1  0  0  0  0
 43 42  2  0  0  0  0
 45 47  2  0  0  0  0
 45 43  1  0  0  0  0
 46 44  2  0  0  0  0
 47 46  1  0  0  0  0
 48 49  1  0  0  0  0
 50 49  1  0  0  0  0
 50 51  1  0  0  0  0
 51 52  1  0  0  0  0
 53 52  1  0  0  0  0
M  END
>  <REMARK>
 VINA RESULT:    -5.110      3.719      8.067
 INTER + INTRA:         -14.603
 INTER:                  -9.591
 INTRA:                  -5.012
 UNBOUND:                -5.012
 SMILES CC(=O)N[C@@H]1[C@@H](O)C[C@](O)(C(=O)O)O[C@H]1C(O)[C@H](O)CNC(=O)OCc1cn(CC(O)c2ccccc2)nn1
 SMILES IDX 21 1 22 2 23 3 20 5 18 6 16 7 15 8 9 9 8 10 14 11 6 12 5 13
 SMILES IDX 10 14 11 16 12 17 13 18 7 20 4 22 2 23 1 25 3 26 17 27 19 29
 SMILES IDX 24 31 25 32 26 33 27 34 39 35 28 36 38 37 29 38 30 39 31 40
 SMILES IDX 32 42 33 43 37 44 34 45 36 46 35 47
 H PARENT 21 4 10 15 13 19 7 21 4 24 17 28 19 30 31 41
 Flexibility Score: inf
  4 active torsions:
  status: ('A' for Active; 'I' for Inactive)
    1  A    between atoms: CA   and  CB  
    2  A    between atoms: CB   and  CG  
    3  A    between atoms: CG   and  CD  
    4  A    between atoms: CD   and  CE  

>  <TORSDO>
F 18

>  <BEGIN_>
RES LYS A 131

$$$$
ligand_68_pose_18_2HRL.pdbqt
 OpenBabel07062320523D

  6  5  0  0  0  0  0  0  0  0999 V2000
   33.1930   34.6630    9.2900 C   0  0  0  0  0  0  0  0  0  0  0  0
   32.0600   35.3600   10.0340 C   0  0  0  0  0  0  0  0  0  0  0  0
   30.6890   34.8850    9.6260 C   0  0  0  0  0  0  0  0  0  0  0  0
   30.6460   34.5870    8.1350 C   0  0  0  0  0  0  0  0  0  0  0  0
   29.3120   35.0040    7.5470 C   0  0  0  0  0  0  0  0  0  0  0  0
   28.2020   34.7630    8.5100 N   0  0  0  0  0  0  0  0  0  0  0  0
  1  2  1  0  0  0  0
  3  2  1  0  0  0  0
  4  3  1  0  0  0  0
  5  4  1  0  0  0  0
  5  6  1  0  0  0  0
M  END
>  <EGIN_R>
ES LYS A 135

>  <REMARK>
  4 active torsions:
  status: ('A' for Active; 'I' for Inactive)
    5  A    between atoms: CA   and  CB  
    6  A    between atoms: CB   and  CG  
    7  A    between atoms: CG   and  CD  
    8  A    between atoms: CD   and  CE  

$$$$
