ligand_30_pose_14_2HRL.pdbqt
 OpenBabel07062320523D

 57 57  0  0  1  0  0  0  0  0999 V2000
   26.5680   40.1760    6.2760 C   0  0  0  0  0  0  0  0  0  0  0  0
   25.3710   39.7530    6.9500 N   0  0  0  0  0  0  0  0  0  0  0  0
   23.3660   39.5930    7.8250 C   0  0  0  0  0  0  0  0  0  0  0  0
   24.1930   40.4190    7.1130 C   0  0  0  0  0  0  0  0  0  0  0  0
   24.0490   38.4550    8.0760 N   0  0  0  0  0  0  0  0  0  0  0  0
   25.2340   38.5840    7.5420 N   0  0  0  0  0  0  0  0  0  0  0  0
   21.9820   39.9190    8.2300 C   0  0  0  0  0  0  0  0  0  0  0  0
   21.4440   38.8930    9.0350 O   0  0  0  0  0  0  0  0  0  0  0  0
   20.2900   38.2220    8.6520 C   0  0  0  0  0  0  0  0  0  0  0  0
   20.3280   37.1400    7.7320 N   0  0  0  0  0  0  0  0  0  0  0  0
   21.2340   36.8270    7.3220 H   0  0  0  0  0  0  0  0  0  0  0  0
   19.1770   38.6040    9.1520 O   0  0  0  0  0  0  0  0  0  0  0  0
   19.1170   36.4760    7.3650 C   0  0  0  0  0  0  0  0  0  0  0  0
   19.1900   34.9770    7.5640 C   0  0  2  0  0  0  0  0  0  0  0  0
   18.4400   34.5860    8.8010 C   0  0  2  0  0  0  0  0  0  0  0  0
   17.4270   33.5110    8.4730 C   0  0  2  0  0  0  0  0  0  0  0  0
   17.3010   31.3160    7.7420 C   0  0  2  0  0  0  0  0  0  0  0  0
   15.9120   31.7280    7.3100 C   0  0  0  0  0  0  0  0  0  0  0  0
   18.1050   32.4030    8.0440 O   0  0  0  0  0  0  0  0  0  0  0  0
   16.0270   32.9840    6.4900 C   0  0  1  0  0  0  0  0  0  0  0  0
   16.4690   34.0880    7.4610 C   0  0  1  0  0  0  0  0  0  0  0  0
   17.8810   30.6690    6.6550 O   0  0  0  0  0  0  0  0  0  0  0  0
   17.2020   30.3910    5.9990 H   0  0  0  0  0  0  0  0  0  0  0  0
   17.1640   30.3670    8.8470 C   0  0  0  0  0  0  0  0  0  0  0  0
   16.5390   29.2940    8.6630 O   0  0  0  0  0  0  0  0  0  0  0  0
   17.6880   30.5700   10.1170 O   0  0  0  0  0  0  0  0  0  0  0  0
   18.1110   31.4870   10.3320 H   0  0  0  0  0  0  0  0  0  0  0  0
   16.9190   32.8220    5.4520 O   0  0  0  0  0  0  0  0  0  0  0  0
   16.9510   31.8600    5.2210 H   0  0  0  0  0  0  0  0  0  0  0  0
   15.2550   34.5560    8.0950 N   0  0  0  0  0  0  0  0  0  0  0  0
   14.9070   35.9210    7.9600 C   0  0  0  0  0  0  0  0  0  0  0  0
   14.6300   33.9170    8.6460 H   0  0  0  0  0  0  0  0  0  0  0  0
   13.6600   36.4440    8.6000 C   0  0  0  0  0  0  0  0  0  0  0  0
   15.6370   36.6930    7.3090 O   0  0  0  0  0  0  0  0  0  0  0  0
   17.8380   35.7360    9.3210 O   0  0  0  0  0  0  0  0  0  0  0  0
   18.0050   36.5350    8.7910 H   0  0  0  0  0  0  0  0  0  0  0  0
   20.5090   34.5450    7.7020 O   0  0  0  0  0  0  0  0  0  0  0  0
   20.5540   33.6640    8.1190 H   0  0  0  0  0  0  0  0  0  0  0  0
   27.2470   38.9730    5.6790 C   0  0  0  0  0  0  0  0  0  0  0  0
   28.6870   38.8490    6.0890 C   0  0  0  0  0  0  0  0  0  0  0  0
   28.9430   37.6310    6.9400 C   0  0  0  0  0  0  0  0  0  0  0  0
   28.5840   36.3740    6.1530 C   0  0  0  0  0  0  0  0  0  0  0  0
   28.4500   35.2220    7.1140 C   0  0  0  0  0  0  0  0  0  0  0  0
   27.0920   35.1880    7.7530 C   0  0  0  0  0  0  0  0  0  0  0  0
   27.1490   34.4980    9.0750 C   0  0  0  0  0  0  0  0  0  0  0  0
   25.9380   34.8550    9.9330 C   0  0  0  0  0  0  0  0  0  0  0  0
   24.7660   35.3020    9.1020 C   0  0  0  0  0  0  0  0  0  0  0  0
   23.6030   35.4210   10.0370 C   0  0  0  0  0  0  0  0  0  0  0  0
   23.5970   34.9410   11.1890 O   0  0  0  0  0  0  0  0  0  0  0  0
   22.4610   36.1010    9.6130 O   0  0  0  0  0  0  0  0  0  0  0  0
   22.2430   36.9910   10.0260 H   0  0  0  0  0  0  0  0  0  0  0  0
   29.8670   25.5550   16.9770 C   0  0  0  0  0  0  0  0  0  0  0  0
   28.3450   25.7220   17.0260 C   0  0  0  0  0  0  0  0  0  0  0  0
   27.6010   24.4030   16.8880 C   0  0  0  0  0  0  0  0  0  0  0  0
   26.1550   24.5240   17.2820 C   0  0  0  0  0  0  0  0  0  0  0  0
   25.9730   25.7420   18.1810 C   0  0  0  0  0  0  0  0  0  0  0  0
   25.7480   25.3230   19.5850 N   0  0  0  0  0  0  0  0  0  0  0  0
  1  2  1  0  0  0  0
  2  4  1  0  0  0  0
  2  6  1  0  0  0  0
  3  5  1  0  0  0  0
  3  7  1  0  0  0  0
  4  3  2  0  0  0  0
  6  5  2  0  0  0  0
  7  8  1  0  0  0  0
  9  8  1  0  0  0  0
  9 12  2  0  0  0  0
 10  9  1  0  0  0  0
 11 10  1  0  0  0  0
 13 10  1  0  0  0  0
 14 13  1  1  0  0  0
 14 37  1  0  0  0  0
 14 15  1  0  0  0  0
 15 35  1  6  0  0  0
 16 15  1  6  0  0  0
 17 22  1  6  0  0  0
 17 19  1  0  0  0  0
 17 24  1  0  0  0  0
 18 17  1  0  0  0  0
 19 16  1  0  0  0  0
 20 28  1  6  0  0  0
 20 18  1  0  0  0  0
 20 21  1  0  0  0  0
 21 30  1  1  0  0  0
 21 16  1  0  0  0  0
 23 22  1  0  0  0  0
 24 26  1  0  0  0  0
 25 24  2  0  0  0  0
 26 27  1  0  0  0  0
 29 28  1  0  0  0  0
 30 32  1  0  0  0  0
 31 30  1  0  0  0  0
 31 33  1  0  0  0  0
 34 31  2  0  0  0  0
 36 35  1  0  0  0  0
 37 38  1  0  0  0  0
 39 40  1  0  0  0  0
 39  1  1  0  0  0  0
 40 41  1  0  0  0  0
 42 41  1  0  0  0  0
 42 43  1  0  0  0  0
 43 44  1  0  0  0  0
 44 45  1  0  0  0  0
 45 46  1  0  0  0  0
 47 46  1  0  0  0  0
 47 48  1  0  0  0  0
 48 49  2  0  0  0  0
 50 51  1  0  0  0  0
 50 48  1  0  0  0  0
 52 53  1  0  0  0  0
 54 53  1  0  0  0  0
 54 55  1  0  0  0  0
 55 56  1  0  0  0  0
 56 57  1  0  0  0  0
M  END
>  <REMARK>
 VINA RESULT:    -3.659      7.537     12.398
 INTER + INTRA:         -16.875
 INTER:                 -11.025
 INTRA:                  -5.851
 UNBOUND:                -8.298
 SMILES CC(=O)N[C@@H]1[C@@H](O)C[C@](O)(C(=O)O)O[C@H]1C(O)[C@H](O)CNC(=O)OCc1cn(CCCCCCCCCCC(=O)O)nn1
 SMILES IDX 29 1 28 2 26 3 27 4 43 5 42 6 25 7 24 8 22 9 21 10 23 12
 SMILES IDX 20 13 18 14 16 15 15 16 9 17 8 18 14 19 6 20 5 21 10 22
 SMILES IDX 11 24 12 25 13 26 7 28 4 30 2 31 1 33 3 34 17 35 19 37 30 39
 SMILES IDX 31 40 32 41 33 42 34 43 35 44 36 45 37 46 38 47 39 48 40 49
 SMILES IDX 41 50
 H PARENT 21 11 10 23 13 27 7 29 4 32 17 36 19 38 41 51
 Flexibility Score: inf
  4 active torsions:
  status: ('A' for Active; 'I' for Inactive)
    1  A    between atoms: CA   and  CB  
    2  A    between atoms: CB   and  CG  
    3  A    between atoms: CG   and  CD  
    4  A    between atoms: CD   and  CE  

>  <TORSDO>
F 26

>  <BEGIN_>
RES LYS A 131

$$$$
ligand_30_pose_14_2HRL.pdbqt
 OpenBabel07062320523D

  6  5  0  0  0  0  0  0  0  0999 V2000
   33.1930   34.6630    9.2900 C   0  0  0  0  0  0  0  0  0  0  0  0
   32.0600   35.3600   10.0340 C   0  0  0  0  0  0  0  0  0  0  0  0
   30.7330   34.6570    9.9060 C   0  0  0  0  0  0  0  0  0  0  0  0
   29.8780   34.8950   11.1410 C   0  0  0  0  0  0  0  0  0  0  0  0
   29.9150   36.3580   11.5400 C   0  0  0  0  0  0  0  0  0  0  0  0
   28.5670   36.9810   11.4200 N   0  0  0  0  0  0  0  0  0  0  0  0
  1  2  1  0  0  0  0
  3  2  1  0  0  0  0
  3  4  1  0  0  0  0
  4  5  1  0  0  0  0
  6  5  1  0  0  0  0
M  END
>  <EGIN_R>
ES LYS A 135

>  <REMARK>
  4 active torsions:
  status: ('A' for Active; 'I' for Inactive)
    5  A    between atoms: CA   and  CB  
    6  A    between atoms: CB   and  CG  
    7  A    between atoms: CG   and  CD  
    8  A    between atoms: CD   and  CE  

$$$$
