ligand_44_pose_18_2HRL.pdbqt
 OpenBabel07062320523D

 51 52  0  0  1  0  0  0  0  0999 V2000
   25.3140   35.7240   12.6150 N   0  0  0  0  0  0  0  0  0  0  0  0
   26.3050   36.7250   12.7550 C   0  0  0  0  0  0  0  0  0  0  0  0
   26.2420   37.7150   13.5090 O   0  0  0  0  0  0  0  0  0  0  0  0
   25.4770   34.9120   11.9400 H   0  0  0  0  0  0  0  0  0  0  0  0
   24.1040   35.7990   13.3730 C   0  0  0  0  0  0  0  0  0  0  0  0
   23.6510   34.4970   13.9820 C   0  0  2  0  0  0  0  0  0  0  0  0
   24.7240   33.4720   14.0590 C   0  0  1  0  0  0  0  0  0  0  0  0
   24.8460   32.6580   15.2860 C   0  0  2  0  0  0  0  0  0  0  0  0
   26.8560   33.0520   16.3460 C   0  0  2  0  0  0  0  0  0  0  0  0
   26.7720   31.8280   17.2290 C   0  0  0  0  0  0  0  0  0  0  0  0
   25.5450   33.4720   16.1930 O   0  0  0  0  0  0  0  0  0  0  0  0
   26.0510   30.7860   16.4450 C   0  0  1  0  0  0  0  0  0  0  0  0
   25.3420   31.2850   15.2010 C   0  0  1  0  0  0  0  0  0  0  0  0
   27.4850   32.6810   15.1770 O   0  0  0  0  0  0  0  0  0  0  0  0
   27.5820   31.7190   15.0520 H   0  0  0  0  0  0  0  0  0  0  0  0
   27.6030   34.0920   17.0920 C   0  0  0  0  0  0  0  0  0  0  0  0
   27.6600   34.1310   18.3410 O   0  0  0  0  0  0  0  0  0  0  0  0
   28.2620   35.0610   16.3400 O   0  0  0  0  0  0  0  0  0  0  0  0
   29.1800   35.4050   16.5680 H   0  0  0  0  0  0  0  0  0  0  0  0
   27.0240   29.8600   16.0010 O   0  0  0  0  0  0  0  0  0  0  0  0
   27.8080   29.8480   16.5850 H   0  0  0  0  0  0  0  0  0  0  0  0
   24.2320   30.3140   15.0710 N   0  0  0  0  0  0  0  0  0  0  0  0
   23.8630   29.7280   13.8540 C   0  0  0  0  0  0  0  0  0  0  0  0
   23.7410   30.1020   15.9720 H   0  0  0  0  0  0  0  0  0  0  0  0
   22.7230   28.7660   13.8280 C   0  0  0  0  0  0  0  0  0  0  0  0
   24.4720   30.0000   12.8090 O   0  0  0  0  0  0  0  0  0  0  0  0
   24.7990   32.7920   12.8530 O   0  0  0  0  0  0  0  0  0  0  0  0
   25.7200   32.8850   12.4750 H   0  0  0  0  0  0  0  0  0  0  0  0
   22.4400   34.0260   13.5060 O   0  0  0  0  0  0  0  0  0  0  0  0
   21.6660   34.5210   13.8420 H   0  0  0  0  0  0  0  0  0  0  0  0
   27.4650   36.6080   11.9910 O   0  0  0  0  0  0  0  0  0  0  0  0
   28.7220   36.9790   12.5030 C   0  0  0  0  0  0  0  0  0  0  0  0
   29.4050   35.8500   13.1600 C   0  0  0  0  0  0  0  0  0  0  0  0
   30.6050   35.7870   13.8280 C   0  0  0  0  0  0  0  0  0  0  0  0
   28.8740   34.6060   13.1800 N   0  0  0  0  0  0  0  0  0  0  0  0
   30.7650   34.5070   14.2340 N   0  0  0  0  0  0  0  0  0  0  0  0
   29.7070   33.8330   13.8260 N   0  0  0  0  0  0  0  0  0  0  0  0
   31.9050   34.0110   14.9780 C   0  0  0  0  0  0  0  0  0  0  0  0
   31.3740   33.2050   16.1260 C   0  0  0  0  0  0  0  0  0  0  0  0
   30.8850   31.9290   15.8870 C   0  0  0  0  0  0  0  0  0  0  0  0
   31.3810   33.7400   17.3960 C   0  0  0  0  0  0  0  0  0  0  0  0
   30.4040   31.2110   16.9510 C   0  0  0  0  0  0  0  0  0  0  0  0
   30.8920   33.0100   18.4800 C   0  0  0  0  0  0  0  0  0  0  0  0
   30.4140   31.7510   18.2160 C   0  0  0  0  0  0  0  0  0  0  0  0
   29.7380   30.7250   19.6810 Br  0  0  0  0  0  0  0  0  0  0  0  0
   29.8670   25.5550   16.9770 C   0  0  0  0  0  0  0  0  0  0  0  0
   28.3450   25.7220   17.0260 C   0  0  0  0  0  0  0  0  0  0  0  0
   27.5990   24.4780   16.5690 C   0  0  0  0  0  0  0  0  0  0  0  0
   26.9910   23.7270   17.7210 C   0  0  0  0  0  0  0  0  0  0  0  0
   25.4760   23.6690   17.5470 C   0  0  0  0  0  0  0  0  0  0  0  0
   24.8970   22.6050   18.4010 N   0  0  0  0  0  0  0  0  0  0  0  0
  1  2  1  0  0  0  0
  1  5  1  0  0  0  0
  2  3  2  0  0  0  0
  4  1  1  0  0  0  0
  6  5  1  6  0  0  0
  6  7  1  0  0  0  0
  7 27  1  6  0  0  0
  8  7  1  6  0  0  0
  8 11  1  0  0  0  0
  9 14  1  6  0  0  0
  9 16  1  0  0  0  0
  9 10  1  0  0  0  0
 11  9  1  0  0  0  0
 12 20  1  6  0  0  0
 12 10  1  0  0  0  0
 13 22  1  1  0  0  0
 13  8  1  0  0  0  0
 13 12  1  0  0  0  0
 15 14  1  0  0  0  0
 16 17  2  0  0  0  0
 18 19  1  0  0  0  0
 18 16  1  0  0  0  0
 20 21  1  0  0  0  0
 22 24  1  0  0  0  0
 23 22  1  0  0  0  0
 25 23  1  0  0  0  0
 26 23  2  0  0  0  0
 28 27  1  0  0  0  0
 29 30  1  0  0  0  0
 29  6  1  0  0  0  0
 31 32  1  0  0  0  0
 31  2  1  0  0  0  0
 32 33  1  0  0  0  0
 33 35  1  0  0  0  0
 33 34  2  0  0  0  0
 34 36  1  0  0  0  0
 35 37  2  0  0  0  0
 36 38  1  0  0  0  0
 37 36  1  0  0  0  0
 38 39  1  0  0  0  0
 39 41  1  0  0  0  0
 40 39  2  0  0  0  0
 40 42  1  0  0  0  0
 41 43  2  0  0  0  0
 42 44  2  0  0  0  0
 44 43  1  0  0  0  0
 44 45  1  0  0  0  0
 46 47  1  0  0  0  0
 48 47  1  0  0  0  0
 48 49  1  0  0  0  0
 50 49  1  0  0  0  0
 50 51  1  0  0  0  0
M  END
>  <REMARK>
 VINA RESULT:    -4.391      3.052      7.680
 INTER + INTRA:         -14.253
 INTER:                  -7.809
 INTRA:                  -6.445
 UNBOUND:                -6.398
 SMILES CC(=O)N[C@@H]1[C@@H](O)C[C@](O)(C(=O)O)O[C@H]1C(O)[C@H](O)CNC(=O)OCc1cn(Cc2ccc(Br)cc2)nn1
 SMILES IDX 21 1 22 2 23 3 20 5 18 6 16 7 15 8 9 9 8 10 14 11 6 12 5 13
 SMILES IDX 10 14 11 16 12 17 13 18 7 20 4 22 2 23 1 25 3 26 17 27 19 29
 SMILES IDX 24 31 25 32 26 33 27 34 38 35 28 36 37 37 29 38 30 39 31 40
 SMILES IDX 36 41 32 42 35 43 33 44 34 45
 H PARENT 21 4 10 15 13 19 7 21 4 24 17 28 19 30
 Flexibility Score: inf
  4 active torsions:
  status: ('A' for Active; 'I' for Inactive)
    1  A    between atoms: CA   and  CB  
    2  A    between atoms: CB   and  CG  
    3  A    between atoms: CG   and  CD  
    4  A    between atoms: CD   and  CE  

>  <TORSDO>
F 16

>  <BEGIN_>
RES LYS A 131

$$$$
ligand_44_pose_18_2HRL.pdbqt
 OpenBabel07062320523D

  6  5  0  0  0  0  0  0  0  0999 V2000
   33.1930   34.6630    9.2900 C   0  0  0  0  0  0  0  0  0  0  0  0
   32.0600   35.3600   10.0340 C   0  0  0  0  0  0  0  0  0  0  0  0
   30.7550   34.6080    9.9860 C   0  0  0  0  0  0  0  0  0  0  0  0
   29.6960   35.4170    9.2540 C   0  0  0  0  0  0  0  0  0  0  0  0
   28.7500   34.5000    8.5020 C   0  0  0  0  0  0  0  0  0  0  0  0
   27.8350   33.7890    9.4370 N   0  0  0  0  0  0  0  0  0  0  0  0
  1  2  1  0  0  0  0
  3  2  1  0  0  0  0
  4  3  1  0  0  0  0
  5  4  1  0  0  0  0
  5  6  1  0  0  0  0
M  END
>  <EGIN_R>
ES LYS A 135

>  <REMARK>
  4 active torsions:
  status: ('A' for Active; 'I' for Inactive)
    5  A    between atoms: CA   and  CB  
    6  A    between atoms: CB   and  CG  
    7  A    between atoms: CG   and  CD  
    8  A    between atoms: CD   and  CE  

$$$$
