ligand_67_pose_4_2HRL.pdbqt
 OpenBabel07062320523D

 50 51  0  0  1  0  0  0  0  0999 V2000
   31.1060   32.4400   14.9080 N   0  0  0  0  0  0  0  0  0  0  0  0
   31.7920   33.6200   15.2820 C   0  0  0  0  0  0  0  0  0  0  0  0
   31.9250   33.8950   16.5230 O   0  0  0  0  0  0  0  0  0  0  0  0
   30.9930   32.2090   13.9070 H   0  0  0  0  0  0  0  0  0  0  0  0
   30.5780   31.5810   15.9150 C   0  0  0  0  0  0  0  0  0  0  0  0
   29.1490   31.1760   15.6780 C   0  0  2  0  0  0  0  0  0  0  0  0
   28.1610   32.1760   16.1990 C   0  0  1  0  0  0  0  0  0  0  0  0
   27.6630   33.0630   15.0800 C   0  0  2  0  0  0  0  0  0  0  0  0
   27.8940   35.2400   14.2930 C   0  0  2  0  0  0  0  0  0  0  0  0
   26.4190   35.2550   14.0140 C   0  0  0  0  0  0  0  0  0  0  0  0
   28.3030   34.2720   15.1710 O   0  0  0  0  0  0  0  0  0  0  0  0
   25.7240   34.6190   15.2000 C   0  0  1  0  0  0  0  0  0  0  0  0
   26.1520   33.1590   15.2280 C   0  0  1  0  0  0  0  0  0  0  0  0
   28.2140   36.4840   14.8850 O   0  0  0  0  0  0  0  0  0  0  0  0
   28.3370   37.1840   14.2160 H   0  0  0  0  0  0  0  0  0  0  0  0
   28.6600   35.2150   13.0070 C   0  0  0  0  0  0  0  0  0  0  0  0
   29.5940   34.4190   12.7640 O   0  0  0  0  0  0  0  0  0  0  0  0
   28.2970   36.1400   12.0380 O   0  0  0  0  0  0  0  0  0  0  0  0
   28.3630   37.1460   12.1600 H   0  0  0  0  0  0  0  0  0  0  0  0
   26.1910   35.2400   16.3680 O   0  0  0  0  0  0  0  0  0  0  0  0
   25.8470   36.1590   16.4630 H   0  0  0  0  0  0  0  0  0  0  0  0
   25.4670   32.4660   14.1480 N   0  0  0  0  0  0  0  0  0  0  0  0
   24.7670   31.2660   14.4320 C   0  0  0  0  0  0  0  0  0  0  0  0
   25.4850   32.8460   13.1590 H   0  0  0  0  0  0  0  0  0  0  0  0
   24.0380   30.4850   13.4000 C   0  0  0  0  0  0  0  0  0  0  0  0
   24.7690   30.8490   15.6270 O   0  0  0  0  0  0  0  0  0  0  0  0
   27.1220   31.5500   16.8870 O   0  0  0  0  0  0  0  0  0  0  0  0
   27.2420   31.5380   17.8600 H   0  0  0  0  0  0  0  0  0  0  0  0
   28.9240   29.9440   16.2750 O   0  0  0  0  0  0  0  0  0  0  0  0
   29.2540   29.8810   17.1900 H   0  0  0  0  0  0  0  0  0  0  0  0
   32.3360   34.5120   14.4020 O   0  0  0  0  0  0  0  0  0  0  0  0
   32.8240   35.8020   14.7180 C   0  0  0  0  0  0  0  0  0  0  0  0
   31.8520   36.8710   14.3880 C   0  0  0  0  0  0  0  0  0  0  0  0
   31.6200   37.4150   13.1470 C   0  0  0  0  0  0  0  0  0  0  0  0
   31.0230   37.5070   15.2320 N   0  0  0  0  0  0  0  0  0  0  0  0
   30.6630   38.3600   13.2710 N   0  0  0  0  0  0  0  0  0  0  0  0
   30.3200   38.3940   14.5450 N   0  0  0  0  0  0  0  0  0  0  0  0
   30.0790   39.2040   12.2370 C   0  0  0  0  0  0  0  0  0  0  0  0
   30.6040   38.8120   10.8720 C   0  0  0  0  0  0  0  0  0  0  0  0
   29.5510   38.9510    9.8260 C   0  0  0  0  0  0  0  0  0  0  0  0
   28.4890   38.0670    9.9660 O   0  0  0  0  0  0  0  0  0  0  0  0
   30.0160   38.8110    8.5260 O   0  0  0  0  0  0  0  0  0  0  0  0
   27.9010   37.9580    8.7080 C   0  0  0  0  0  0  0  0  0  0  0  0
   28.9700   38.3820    7.7450 C   0  0  0  0  0  0  0  0  0  0  0  0
   29.8670   25.5550   16.9770 C   0  0  0  0  0  0  0  0  0  0  0  0
   28.3450   25.7220   17.0260 C   0  0  0  0  0  0  0  0  0  0  0  0
   27.6020   24.3990   16.9240 C   0  0  0  0  0  0  0  0  0  0  0  0
   26.1500   24.5350   17.2900 C   0  0  0  0  0  0  0  0  0  0  0  0
   25.9650   25.7500   18.1930 C   0  0  0  0  0  0  0  0  0  0  0  0
   24.7560   26.5120   17.7960 N   0  0  0  0  0  0  0  0  0  0  0  0
  1  2  1  0  0  0  0
  1  5  1  0  0  0  0
  2  3  2  0  0  0  0
  4  1  1  0  0  0  0
  6  5  1  1  0  0  0
  6  7  1  0  0  0  0
  6 29  1  0  0  0  0
  7 27  1  6  0  0  0
  8 11  1  0  0  0  0
  8 13  1  0  0  0  0
  8  7  1  1  0  0  0
  9 16  1  6  0  0  0
  9 14  1  0  0  0  0
  9 11  1  0  0  0  0
 10  9  1  0  0  0  0
 10 12  1  0  0  0  0
 12 13  1  0  0  0  0
 12 20  1  1  0  0  0
 13 22  1  6  0  0  0
 15 14  1  0  0  0  0
 17 16  2  0  0  0  0
 18 19  1  0  0  0  0
 18 16  1  0  0  0  0
 20 21  1  0  0  0  0
 22 23  1  0  0  0  0
 23 26  2  0  0  0  0
 24 22  1  0  0  0  0
 25 23  1  0  0  0  0
 27 28  1  0  0  0  0
 29 30  1  0  0  0  0
 31 32  1  0  0  0  0
 31  2  1  0  0  0  0
 33 32  1  0  0  0  0
 33 35  1  0  0  0  0
 34 36  1  0  0  0  0
 34 33  2  0  0  0  0
 36 37  1  0  0  0  0
 37 35  2  0  0  0  0
 38 36  1  0  0  0  0
 39 38  1  0  0  0  0
 40 41  1  0  0  0  0
 40 39  1  0  0  0  0
 42 40  1  0  0  0  0
 43 41  1  0  0  0  0
 44 42  1  0  0  0  0
 44 43  1  0  0  0  0
 45 46  1  0  0  0  0
 47 46  1  0  0  0  0
 47 48  1  0  0  0  0
 48 49  1  0  0  0  0
 50 49  1  0  0  0  0
M  END
>  <REMARK>
 VINA RESULT:    -4.501      2.119      4.946
 INTER + INTRA:         -14.609
 INTER:                  -7.900
 INTRA:                  -6.709
 UNBOUND:                -6.292
 SMILES CC(=O)N[C@@H]1[C@@H](O)C[C@](O)(C(=O)O)O[C@H]1C(O)[C@H](O)CNC(=O)OCc1cn(CCC2OCCO2)nn1
 SMILES IDX 21 1 22 2 23 3 20 5 18 6 16 7 15 8 9 9 8 10 14 11 6 12 5 13
 SMILES IDX 10 14 11 16 12 17 13 18 7 20 4 22 2 23 1 25 3 26 17 27 19 29
 SMILES IDX 24 31 25 32 26 33 27 34 37 35 28 36 36 37 29 38 30 39 31 40
 SMILES IDX 32 41 35 42 33 43 34 44
 H PARENT 21 4 10 15 13 19 7 21 4 24 17 28 19 30
 Flexibility Score: inf
  4 active torsions:
  status: ('A' for Active; 'I' for Inactive)
    1  A    between atoms: CA   and  CB  
    2  A    between atoms: CB   and  CG  
    3  A    between atoms: CG   and  CD  
    4  A    between atoms: CD   and  CE  

>  <TORSDO>
F 17

>  <BEGIN_>
RES LYS A 131

$$$$
ligand_67_pose_4_2HRL.pdbqt
 OpenBabel07062320523D

  6  5  0  0  0  0  0  0  0  0999 V2000
   33.1930   34.6630    9.2900 C   0  0  0  0  0  0  0  0  0  0  0  0
   32.0600   35.3600   10.0340 C   0  0  0  0  0  0  0  0  0  0  0  0
   30.7890   35.4690    9.2310 C   0  0  0  0  0  0  0  0  0  0  0  0
   30.0980   34.1180    9.1350 C   0  0  0  0  0  0  0  0  0  0  0  0
   28.6610   34.2870    8.6800 C   0  0  0  0  0  0  0  0  0  0  0  0
   27.7140   33.6910    9.6630 N   0  0  0  0  0  0  0  0  0  0  0  0
  1  2  1  0  0  0  0
  3  2  1  0  0  0  0
  4  3  1  0  0  0  0
  5  4  1  0  0  0  0
  5  6  1  0  0  0  0
M  END
>  <EGIN_R>
ES LYS A 135

>  <REMARK>
  4 active torsions:
  status: ('A' for Active; 'I' for Inactive)
    5  A    between atoms: CA   and  CB  
    6  A    between atoms: CB   and  CG  
    7  A    between atoms: CG   and  CD  
    8  A    between atoms: CD   and  CE  

$$$$
