ligand_23_pose_17_2HRL.pdbqt
 OpenBabel07062320523D

 55 56  0  0  1  0  0  0  0  0999 V2000
   24.0470   30.0630   18.1610 N   0  0  0  0  0  0  0  0  0  0  0  0
   23.5450   31.2520   17.5730 C   0  0  0  0  0  0  0  0  0  0  0  0
   23.5180   32.2920   18.2530 O   0  0  0  0  0  0  0  0  0  0  0  0
   24.0420   29.2190   17.5260 H   0  0  0  0  0  0  0  0  0  0  0  0
   24.5290   30.0040   19.5170 C   0  0  0  0  0  0  0  0  0  0  0  0
   25.9990   29.6430   19.5560 C   0  0  2  0  0  0  0  0  0  0  0  0
   26.8240   30.9180   19.6580 C   0  0  1  0  0  0  0  0  0  0  0  0
   28.2850   30.5690   19.3860 C   0  0  2  0  0  0  0  0  0  0  0  0
   29.4620   29.2990   20.9270 C   0  0  2  0  0  0  0  0  0  0  0  0
   30.7720   29.9870   20.6210 C   0  0  0  0  0  0  0  0  0  0  0  0
   28.5790   29.3310   19.8660 O   0  0  0  0  0  0  0  0  0  0  0  0
   30.6100   31.2090   19.7830 C   0  0  1  0  0  0  0  0  0  0  0  0
   29.1590   31.6780   19.8910 C   0  0  1  0  0  0  0  0  0  0  0  0
   28.8540   29.8230   22.0640 O   0  0  0  0  0  0  0  0  0  0  0  0
   28.4240   29.0670   22.5740 H   0  0  0  0  0  0  0  0  0  0  0  0
   29.7760   27.8720   21.2010 C   0  0  0  0  0  0  0  0  0  0  0  0
   29.4570   27.3220   22.2880 O   0  0  0  0  0  0  0  0  0  0  0  0
   30.4390   27.0710   20.2690 O   0  0  0  0  0  0  0  0  0  0  0  0
   30.6110   26.0920   20.4640 H   0  0  0  0  0  0  0  0  0  0  0  0
   31.4800   32.2360   20.1050 O   0  0  0  0  0  0  0  0  0  0  0  0
   31.2910   33.0830   19.6100 H   0  0  0  0  0  0  0  0  0  0  0  0
   28.9660   32.8220   19.0150 N   0  0  0  0  0  0  0  0  0  0  0  0
   29.0180   34.1650   19.4910 C   0  0  0  0  0  0  0  0  0  0  0  0
   28.7810   32.6490   17.9890 H   0  0  0  0  0  0  0  0  0  0  0  0
   28.8070   35.2560   18.5050 C   0  0  0  0  0  0  0  0  0  0  0  0
   29.2370   34.3490   20.7000 O   0  0  0  0  0  0  0  0  0  0  0  0
   26.3920   31.7800   18.6660 O   0  0  0  0  0  0  0  0  0  0  0  0
   25.4090   31.8650   18.6660 H   0  0  0  0  0  0  0  0  0  0  0  0
   26.3130   28.9680   18.3640 O   0  0  0  0  0  0  0  0  0  0  0  0
   27.2470   28.5910   18.4010 H   0  0  0  0  0  0  0  0  0  0  0  0
   23.0840   31.2760   16.2530 O   0  0  0  0  0  0  0  0  0  0  0  0
   23.8660   31.8290   15.2140 C   0  0  0  0  0  0  0  0  0  0  0  0
   25.2960   31.4860   15.4140 C   0  0  0  0  0  0  0  0  0  0  0  0
   26.3490   32.3700   15.2780 C   0  0  0  0  0  0  0  0  0  0  0  0
   25.8360   30.3090   15.7500 N   0  0  0  0  0  0  0  0  0  0  0  0
   27.4550   31.6590   15.5450 N   0  0  0  0  0  0  0  0  0  0  0  0
   27.1550   30.4020   15.8330 N   0  0  0  0  0  0  0  0  0  0  0  0
   28.7870   32.1680   15.5240 C   0  0  0  0  0  0  0  0  0  0  0  0
   29.1010   33.4140   15.0280 C   0  0  0  0  0  0  0  0  0  0  0  0
   29.8350   31.4060   16.0140 C   0  0  0  0  0  0  0  0  0  0  0  0
   30.4060   33.9040   15.0110 C   0  0  0  0  0  0  0  0  0  0  0  0
   31.1240   31.8650   16.0090 C   0  0  0  0  0  0  0  0  0  0  0  0
   31.4060   33.1130   15.5080 C   0  0  0  0  0  0  0  0  0  0  0  0
   30.7950   35.4740   14.3850 S   0  0  0  0  0  0  0  0  0  0  0  0
   30.6960   36.4700   15.5120 O   0  0  0  0  0  0  0  0  0  0  0  0
   29.7550   35.8770   13.3670 O   0  0  0  0  0  0  0  0  0  0  0  0
   32.3800   35.5230   13.7270 N   0  0  0  0  0  0  0  0  0  0  0  0
   32.7820   34.5690   13.7110 H   0  0  0  0  0  0  0  0  0  0  0  0
   33.0010   36.1900   14.2310 H   0  0  0  0  0  0  0  0  0  0  0  0
   29.8670   25.5550   16.9770 C   0  0  0  0  0  0  0  0  0  0  0  0
   28.3450   25.7220   17.0260 C   0  0  0  0  0  0  0  0  0  0  0  0
   27.6010   24.4040   16.8750 C   0  0  0  0  0  0  0  0  0  0  0  0
   26.5150   24.2460   17.9020 C   0  0  0  0  0  0  0  0  0  0  0  0
   25.1670   24.5860   17.2750 C   0  0  0  0  0  0  0  0  0  0  0  0
   24.7230   25.9350   17.6980 N   0  0  0  0  0  0  0  0  0  0  0  0
  1  5  1  0  0  0  0
  2  1  1  0  0  0  0
  2  3  2  0  0  0  0
  4  1  1  0  0  0  0
  6  5  1  6  0  0  0
  6  7  1  0  0  0  0
  7 27  1  6  0  0  0
  8  7  1  1  0  0  0
  8 11  1  0  0  0  0
  8 13  1  0  0  0  0
  9 16  1  1  0  0  0
  9 14  1  0  0  0  0
 10  9  1  0  0  0  0
 11  9  1  0  0  0  0
 12 13  1  0  0  0  0
 12 20  1  1  0  0  0
 12 10  1  0  0  0  0
 13 22  1  6  0  0  0
 14 15  1  0  0  0  0
 16 17  2  0  0  0  0
 18 19  1  0  0  0  0
 18 16  1  0  0  0  0
 21 20  1  0  0  0  0
 22 23  1  0  0  0  0
 23 26  2  0  0  0  0
 24 22  1  0  0  0  0
 25 23  1  0  0  0  0
 28 27  1  0  0  0  0
 29 30  1  0  0  0  0
 29  6  1  0  0  0  0
 31  2  1  0  0  0  0
 32 33  1  0  0  0  0
 32 31  1  0  0  0  0
 33 35  1  0  0  0  0
 34 33  2  0  0  0  0
 34 36  1  0  0  0  0
 35 37  2  0  0  0  0
 36 37  1  0  0  0  0
 38 36  1  0  0  0  0
 38 40  2  0  0  0  0
 39 38  1  0  0  0  0
 41 39  2  0  0  0  0
 41 43  1  0  0  0  0
 42 40  1  0  0  0  0
 43 42  2  0  0  0  0
 44 41  1  0  0  0  0
 44 45  2  0  0  0  0
 46 44  2  0  0  0  0
 47 49  1  0  0  0  0
 47 44  1  0  0  0  0
 48 47  1  0  0  0  0
 50 51  1  0  0  0  0
 52 51  1  0  0  0  0
 52 53  1  0  0  0  0
 54 55  1  0  0  0  0
 54 53  1  0  0  0  0
M  END
>  <REMARK>
 VINA RESULT:    -4.183      4.336     10.152
 INTER + INTRA:         -14.230
 INTER:                  -7.058
 INTRA:                  -7.172
 UNBOUND:                -6.624
 SMILES CC(=O)N[C@@H]1[C@@H](O)C[C@](O)(C(=O)O)O[C@H]1C(O)[C@H](O)CNC(=O)OCc1cn(-c2cccc(S(N)(=O)=O)c2)nn1
 SMILES IDX 21 1 22 2 23 3 20 5 18 6 16 7 15 8 9 9 8 10 14 11 6 12 5 13
 SMILES IDX 10 14 11 16 12 17 13 18 7 20 4 22 2 23 1 25 3 26 17 27 19 29
 SMILES IDX 24 31 25 32 26 33 27 34 40 35 28 36 39 37 29 38 38 39 30 40
 SMILES IDX 33 41 31 42 32 43 34 44 36 45 37 46 35 47
 H PARENT 21 4 10 15 13 19 7 21 4 24 17 28 19 30 35 48 35 49
 Flexibility Score: inf
  4 active torsions:
  status: ('A' for Active; 'I' for Inactive)
    1  A    between atoms: CA   and  CB  
    2  A    between atoms: CB   and  CG  
    3  A    between atoms: CG   and  CD  
    4  A    between atoms: CD   and  CE  

>  <TORSDO>
F 17

>  <BEGIN_>
RES LYS A 131

$$$$
ligand_23_pose_17_2HRL.pdbqt
 OpenBabel07062320523D

  6  5  0  0  0  0  0  0  0  0999 V2000
   33.1930   34.6630    9.2900 C   0  0  0  0  0  0  0  0  0  0  0  0
   32.0600   35.3600   10.0340 C   0  0  0  0  0  0  0  0  0  0  0  0
   30.7160   34.7100    9.8300 C   0  0  0  0  0  0  0  0  0  0  0  0
   30.3900   34.6060    8.3480 C   0  0  0  0  0  0  0  0  0  0  0  0
   28.8930   34.7140    8.1230 C   0  0  0  0  0  0  0  0  0  0  0  0
   28.5890   35.5410    6.9220 N   0  0  0  0  0  0  0  0  0  0  0  0
  1  2  1  0  0  0  0
  3  2  1  0  0  0  0
  4  3  1  0  0  0  0
  5  4  1  0  0  0  0
  6  5  1  0  0  0  0
M  END
>  <EGIN_R>
ES LYS A 135

>  <REMARK>
  4 active torsions:
  status: ('A' for Active; 'I' for Inactive)
    5  A    between atoms: CA   and  CB  
    6  A    between atoms: CB   and  CG  
    7  A    between atoms: CG   and  CD  
    8  A    between atoms: CD   and  CE  

$$$$
