ligand_79_pose_11_2HRL.pdbqt
 OpenBabel07062320523D

 58 60  0  0  1  0  0  0  0  0999 V2000
   24.2630   35.9180   11.8370 N   0  0  0  0  0  0  0  0  0  0  0  0
   25.3450   35.2900   12.4970 C   0  0  0  0  0  0  0  0  0  0  0  0
   25.5110   34.0700   12.4320 O   0  0  0  0  0  0  0  0  0  0  0  0
   24.2180   36.9860   11.9540 H   0  0  0  0  0  0  0  0  0  0  0  0
   23.2550   35.2610   11.0500 C   0  0  0  0  0  0  0  0  0  0  0  0
   23.1450   35.6990    9.6380 C   0  0  2  0  0  0  0  0  0  0  0  0
   22.5890   37.1060    9.4780 C   0  0  1  0  0  0  0  0  0  0  0  0
   23.1400   37.7860    8.2510 C   0  0  2  0  0  0  0  0  0  0  0  0
   25.3260   38.5370    8.4110 C   0  0  2  0  0  0  0  0  0  0  0  0
   25.0640   39.8290    7.6680 C   0  0  0  0  0  0  0  0  0  0  0  0
   24.4590   37.5260    8.0170 O   0  0  0  0  0  0  0  0  0  0  0  0
   23.6500   39.8810    7.1260 C   0  0  1  0  0  0  0  0  0  0  0  0
   22.7730   39.2540    8.2120 C   0  0  1  0  0  0  0  0  0  0  0  0
   25.3010   38.7010    9.7950 O   0  0  0  0  0  0  0  0  0  0  0  0
   24.3880   38.9660   10.1050 H   0  0  0  0  0  0  0  0  0  0  0  0
   26.7010   38.0990    8.0520 C   0  0  0  0  0  0  0  0  0  0  0  0
   26.9750   37.8370    6.8380 O   0  0  0  0  0  0  0  0  0  0  0  0
   27.7160   37.9580    8.9690 O   0  0  0  0  0  0  0  0  0  0  0  0
   27.7780   37.1810    9.6150 H   0  0  0  0  0  0  0  0  0  0  0  0
   23.2460   41.1610    6.8270 O   0  0  0  0  0  0  0  0  0  0  0  0
   23.1510   41.2270    5.8240 H   0  0  0  0  0  0  0  0  0  0  0  0
   21.3750   39.3990    7.9090 N   0  0  0  0  0  0  0  0  0  0  0  0
   20.5740   40.4480    8.4860 C   0  0  0  0  0  0  0  0  0  0  0  0
   20.8550   38.7590    7.2600 H   0  0  0  0  0  0  0  0  0  0  0  0
   19.1500   40.6290    8.2050 C   0  0  0  0  0  0  0  0  0  0  0  0
   21.1800   41.2390    9.2780 O   0  0  0  0  0  0  0  0  0  0  0  0
   21.2070   36.9480    9.3450 O   0  0  0  0  0  0  0  0  0  0  0  0
   20.8970   37.0600    8.4260 H   0  0  0  0  0  0  0  0  0  0  0  0
   22.3060   34.8640    8.9250 O   0  0  0  0  0  0  0  0  0  0  0  0
   22.2170   34.0190    9.4370 H   0  0  0  0  0  0  0  0  0  0  0  0
   26.2730   36.0140   13.2490 O   0  0  0  0  0  0  0  0  0  0  0  0
   27.0560   35.3870   14.2210 C   0  0  0  0  0  0  0  0  0  0  0  0
   28.4500   35.2180   13.7350 C   0  0  0  0  0  0  0  0  0  0  0  0
   29.5560   35.9380   14.1600 C   0  0  0  0  0  0  0  0  0  0  0  0
   28.9350   34.3610   12.8130 N   0  0  0  0  0  0  0  0  0  0  0  0
   30.6480   35.5070   13.4980 N   0  0  0  0  0  0  0  0  0  0  0  0
   30.2370   34.5480   12.6870 N   0  0  0  0  0  0  0  0  0  0  0  0
   32.0220   36.0200   13.6640 C   0  0  0  0  0  0  0  0  0  0  0  0
   32.6260   36.2440   12.3210 C   0  0  0  0  0  0  0  0  0  0  0  0
   31.8200   37.3570   14.4010 C   0  0  0  0  0  0  0  0  0  0  0  0
   32.7260   35.1010   14.5560 C   0  0  0  0  0  0  0  0  0  0  0  0
   33.8300   34.5560   14.2020 O   0  0  0  0  0  0  0  0  0  0  0  0
   32.2730   34.7110   15.8860 C   0  0  0  0  0  0  0  0  0  0  0  0
   32.4690   35.4600   17.0460 C   0  0  0  0  0  0  0  0  0  0  0  0
   31.6180   33.5480   16.1940 C   0  0  0  0  0  0  0  0  0  0  0  0
   31.9370   34.7530   18.0400 N   0  0  0  0  0  0  0  0  0  0  0  0
   31.4150   33.5970   17.5770 C   0  0  0  0  0  0  0  0  0  0  0  0
   31.1610   32.4540   15.4650 C   0  0  0  0  0  0  0  0  0  0  0  0
   31.9180   35.0330   19.0320 H   0  0  0  0  0  0  0  0  0  0  0  0
   30.7590   32.5410   18.1770 C   0  0  0  0  0  0  0  0  0  0  0  0
   30.5170   31.4270   16.0910 C   0  0  0  0  0  0  0  0  0  0  0  0
   30.3170   31.4690   17.4390 C   0  0  0  0  0  0  0  0  0  0  0  0
   29.8670   25.5550   16.9770 C   0  0  0  0  0  0  0  0  0  0  0  0
   28.3450   25.7220   17.0260 C   0  0  0  0  0  0  0  0  0  0  0  0
   27.6010   24.4020   16.8970 C   0  0  0  0  0  0  0  0  0  0  0  0
   26.5460   24.2400   17.9560 C   0  0  0  0  0  0  0  0  0  0  0  0
   25.1970   23.9770   17.2950 C   0  0  0  0  0  0  0  0  0  0  0  0
   24.7770   22.5720   17.5140 N   0  0  0  0  0  0  0  0  0  0  0  0
  1  4  1  0  0  0  0
  1  2  1  0  0  0  0
  2 31  1  0  0  0  0
  3  2  2  0  0  0  0
  5  1  1  0  0  0  0
  6  5  1  1  0  0  0
  7 27  1  6  0  0  0
  7  6  1  0  0  0  0
  8  7  1  1  0  0  0
  9 16  1  6  0  0  0
  9 14  1  0  0  0  0
 10  9  1  0  0  0  0
 11  8  1  0  0  0  0
 11  9  1  0  0  0  0
 12 20  1  1  0  0  0
 12 10  1  0  0  0  0
 12 13  1  0  0  0  0
 13 22  1  6  0  0  0
 13  8  1  0  0  0  0
 14 15  1  0  0  0  0
 16 18  1  0  0  0  0
 17 16  2  0  0  0  0
 18 19  1  0  0  0  0
 21 20  1  0  0  0  0
 22 23  1  0  0  0  0
 23 26  2  0  0  0  0
 24 22  1  0  0  0  0
 25 23  1  0  0  0  0
 28 27  1  0  0  0  0
 29 30  1  0  0  0  0
 29  6  1  0  0  0  0
 31 32  1  0  0  0  0
 33 34  2  0  0  0  0
 33 32  1  0  0  0  0
 35 33  1  0  0  0  0
 36 38  1  0  0  0  0
 36 34  1  0  0  0  0
 37 35  2  0  0  0  0
 37 36  1  0  0  0  0
 38 40  1  0  0  0  0
 38 41  1  0  0  0  0
 39 38  1  0  0  0  0
 41 43  1  0  0  0  0
 42 41  2  0  0  0  0
 43 45  1  0  0  0  0
 43 44  2  0  0  0  0
 44 46  1  0  0  0  0
 45 47  2  0  0  0  0
 46 49  1  0  0  0  0
 47 46  1  0  0  0  0
 47 50  1  0  0  0  0
 48 51  2  0  0  0  0
 48 45  1  0  0  0  0
 51 52  1  0  0  0  0
 52 50  2  0  0  0  0
 53 54  1  0  0  0  0
 55 54  1  0  0  0  0
 55 56  1  0  0  0  0
 57 58  1  0  0  0  0
 57 56  1  0  0  0  0
M  END
>  <REMARK>
 VINA RESULT:    -6.005      2.091      3.598
 INTER + INTRA:         -15.871
 INTER:                 -10.709
 INTRA:                  -5.162
 UNBOUND:                -4.777
 SMILES CC(=O)N[C@@H]1[C@@H](O)C[C@](O)(C(=O)O)O[C@H]1C(O)[C@H](O)CNC(=O)OCc1cn(C(C)(C)C(=O)c2c[nH]c3ccccc23)nn1
 SMILES IDX 21 1 22 2 23 3 20 5 18 6 16 7 15 8 9 9 8 10 14 11 6 12 5 13
 SMILES IDX 10 14 11 16 12 17 13 18 7 20 4 22 2 23 1 25 3 26 17 27 19 29
 SMILES IDX 24 31 25 32 26 33 27 34 44 35 28 36 43 37 29 38 30 39 31 40
 SMILES IDX 32 41 33 42 34 43 35 44 42 45 36 46 37 47 41 48 38 50 40 51
 SMILES IDX 39 52
 H PARENT 21 4 10 15 13 19 7 21 4 24 17 28 19 30 36 49
 Flexibility Score: inf
  4 active torsions:
  status: ('A' for Active; 'I' for Inactive)
    1  A    between atoms: CA   and  CB  
    2  A    between atoms: CB   and  CG  
    3  A    between atoms: CG   and  CD  
    4  A    between atoms: CD   and  CE  

>  <TORSDO>
F 17

>  <BEGIN_>
RES LYS A 131

$$$$
ligand_79_pose_11_2HRL.pdbqt
 OpenBabel07062320523D

  6  5  0  0  0  0  0  0  0  0999 V2000
   33.1930   34.6630    9.2900 C   0  0  0  0  0  0  0  0  0  0  0  0
   32.0600   35.3600   10.0340 C   0  0  0  0  0  0  0  0  0  0  0  0
   30.7780   35.4350    9.2460 C   0  0  0  0  0  0  0  0  0  0  0  0
   30.1830   34.0480    9.0560 C   0  0  0  0  0  0  0  0  0  0  0  0
   28.6700   34.1000    9.1540 C   0  0  0  0  0  0  0  0  0  0  0  0
   28.0760   34.7350    7.9450 N   0  0  0  0  0  0  0  0  0  0  0  0
  1  2  1  0  0  0  0
  3  2  1  0  0  0  0
  4  5  1  0  0  0  0
  4  3  1  0  0  0  0
  6  5  1  0  0  0  0
M  END
>  <EGIN_R>
ES LYS A 135

>  <REMARK>
  4 active torsions:
  status: ('A' for Active; 'I' for Inactive)
    5  A    between atoms: CA   and  CB  
    6  A    between atoms: CB   and  CG  
    7  A    between atoms: CG   and  CD  
    8  A    between atoms: CD   and  CE  

$$$$
