ligand_22_pose_4_2HRL.pdbqt
 OpenBabel07062320523D

 50 50  0  0  1  0  0  0  0  0999 V2000
   23.5760   36.8090    9.1620 N   0  0  0  0  0  0  0  0  0  0  0  0
   23.2700   37.7980   10.1270 C   0  0  0  0  0  0  0  0  0  0  0  0
   24.1110   38.0950   11.0440 O   0  0  0  0  0  0  0  0  0  0  0  0
   22.8890   36.5780    8.4200 H   0  0  0  0  0  0  0  0  0  0  0  0
   24.8570   36.1560    9.2460 C   0  0  0  0  0  0  0  0  0  0  0  0
   25.8830   36.6400    8.2840 C   0  0  2  0  0  0  0  0  0  0  0  0
   26.7590   37.7360    8.8370 C   0  0  1  0  0  0  0  0  0  0  0  0
   28.0030   37.8370    7.9460 C   0  0  2  0  0  0  0  0  0  0  0  0
   28.7730   39.1490    6.1860 C   0  0  2  0  0  0  0  0  0  0  0  0
   29.1920   37.9170    5.4130 C   0  0  0  0  0  0  0  0  0  0  0  0
   27.7700   38.9120    7.0950 O   0  0  0  0  0  0  0  0  0  0  0  0
   28.2410   36.7890    5.6900 C   0  0  1  0  0  0  0  0  0  0  0  0
   28.1880   36.5430    7.1840 C   0  0  1  0  0  0  0  0  0  0  0  0
   28.2450   40.0400    5.2380 O   0  0  0  0  0  0  0  0  0  0  0  0
   28.4400   40.9580    5.4990 H   0  0  0  0  0  0  0  0  0  0  0  0
   29.9460   39.7950    6.8130 C   0  0  0  0  0  0  0  0  0  0  0  0
   29.8690   40.9730    7.2170 O   0  0  0  0  0  0  0  0  0  0  0  0
   31.1540   39.1320    6.9720 O   0  0  0  0  0  0  0  0  0  0  0  0
   32.0080   39.4510    6.5370 H   0  0  0  0  0  0  0  0  0  0  0  0
   26.9960   36.9800    5.1420 O   0  0  0  0  0  0  0  0  0  0  0  0
   26.6140   37.8730    5.2860 H   0  0  0  0  0  0  0  0  0  0  0  0
   29.4500   35.9020    7.5460 N   0  0  0  0  0  0  0  0  0  0  0  0
   29.4790   34.6980    8.3030 C   0  0  0  0  0  0  0  0  0  0  0  0
   30.3540   36.3250    7.2500 H   0  0  0  0  0  0  0  0  0  0  0  0
   30.7590   34.0310    8.6810 C   0  0  0  0  0  0  0  0  0  0  0  0
   28.3490   34.2230    8.6410 O   0  0  0  0  0  0  0  0  0  0  0  0
   26.1480   38.9500    8.9840 O   0  0  0  0  0  0  0  0  0  0  0  0
   25.1770   38.8630    8.9380 H   0  0  0  0  0  0  0  0  0  0  0  0
   25.1650   37.1510    7.1730 O   0  0  0  0  0  0  0  0  0  0  0  0
   24.1970   36.9260    7.2970 H   0  0  0  0  0  0  0  0  0  0  0  0
   22.0820   38.4970   10.1590 O   0  0  0  0  0  0  0  0  0  0  0  0
   21.5440   39.1170    8.9770 C   0  0  0  0  0  0  0  0  0  0  0  0
   22.6720   39.7610    8.2560 C   0  0  0  0  0  0  0  0  0  0  0  0
   23.2030   41.0080    8.5430 C   0  0  0  0  0  0  0  0  0  0  0  0
   23.3970   39.3100    7.2150 N   0  0  0  0  0  0  0  0  0  0  0  0
   24.2160   41.2750    7.6870 N   0  0  0  0  0  0  0  0  0  0  0  0
   24.3050   40.2220    6.8960 N   0  0  0  0  0  0  0  0  0  0  0  0
   25.0170   42.4820    7.6740 C   0  0  0  0  0  0  0  0  0  0  0  0
   24.5740   43.3920    6.5480 C   0  0  0  0  0  0  0  0  0  0  0  0
   24.8670   43.1990    9.0000 C   0  0  0  0  0  0  0  0  0  0  0  0
   26.4560   42.1650    7.4350 C   0  0  0  0  0  0  0  0  0  0  0  0
   26.9400   42.4850    6.3190 O   0  0  0  0  0  0  0  0  0  0  0  0
   27.2440   41.5460    8.3850 O   0  0  0  0  0  0  0  0  0  0  0  0
   27.0150   40.5870    8.6280 H   0  0  0  0  0  0  0  0  0  0  0  0
   29.8670   25.5550   16.9770 C   0  0  0  0  0  0  0  0  0  0  0  0
   28.3450   25.7220   17.0260 C   0  0  0  0  0  0  0  0  0  0  0  0
   27.5990   24.4350   16.7070 C   0  0  0  0  0  0  0  0  0  0  0  0
   26.9970   23.8110   17.9350 C   0  0  0  0  0  0  0  0  0  0  0  0
   25.5980   23.2960   17.6110 C   0  0  0  0  0  0  0  0  0  0  0  0
   24.8170   24.3320   16.8940 N   0  0  0  0  0  0  0  0  0  0  0  0
  1  5  1  0  0  0  0
  1  2  1  0  0  0  0
  2 31  1  0  0  0  0
  2  3  2  0  0  0  0
  4  1  1  0  0  0  0
  6  7  1  0  0  0  0
  6  5  1  1  0  0  0
  7 27  1  6  0  0  0
  8  7  1  1  0  0  0
  9 14  1  6  0  0  0
  9 16  1  0  0  0  0
  9 11  1  0  0  0  0
 10 12  1  0  0  0  0
 10  9  1  0  0  0  0
 11  8  1  0  0  0  0
 12 20  1  1  0  0  0
 12 13  1  0  0  0  0
 13 22  1  1  0  0  0
 13  8  1  0  0  0  0
 14 15  1  0  0  0  0
 16 18  1  0  0  0  0
 16 17  2  0  0  0  0
 19 18  1  0  0  0  0
 20 21  1  0  0  0  0
 22 23  1  0  0  0  0
 23 26  2  0  0  0  0
 23 25  1  0  0  0  0
 24 22  1  0  0  0  0
 28 27  1  0  0  0  0
 29 30  1  0  0  0  0
 29  6  1  0  0  0  0
 32 31  1  0  0  0  0
 33 34  2  0  0  0  0
 33 32  1  0  0  0  0
 35 33  1  0  0  0  0
 36 34  1  0  0  0  0
 37 35  2  0  0  0  0
 37 36  1  0  0  0  0
 38 36  1  0  0  0  0
 38 40  1  0  0  0  0
 39 38  1  0  0  0  0
 41 38  1  0  0  0  0
 41 43  1  0  0  0  0
 42 41  2  0  0  0  0
 43 44  1  0  0  0  0
 45 46  1  0  0  0  0
 47 46  1  0  0  0  0
 47 48  1  0  0  0  0
 49 48  1  0  0  0  0
 50 49  1  0  0  0  0
M  END
>  <REMARK>
 VINA RESULT:    -5.024      4.839      8.358
 INTER + INTRA:         -14.714
 INTER:                  -8.129
 INTRA:                  -6.584
 UNBOUND:                -5.578
 SMILES CC(=O)N[C@@H]1[C@@H](O)C[C@](O)(C(=O)O)O[C@H]1C(O)[C@H](O)CNC(=O)OCc1cn(C(C)(C)C(=O)O)nn1
 SMILES IDX 21 1 22 2 23 3 20 5 18 6 16 7 15 8 9 9 8 10 14 11 6 12 5 13
 SMILES IDX 10 14 11 16 12 17 13 18 7 20 4 22 2 23 1 25 3 26 17 27 19 29
 SMILES IDX 24 31 25 32 26 33 27 34 36 35 28 36 35 37 29 38 30 39 31 40
 SMILES IDX 32 41 33 42 34 43
 H PARENT 21 4 10 15 13 19 7 21 4 24 17 28 19 30 34 44
 Flexibility Score: inf
  4 active torsions:
  status: ('A' for Active; 'I' for Inactive)
    1  A    between atoms: CA   and  CB  
    2  A    between atoms: CB   and  CG  
    3  A    between atoms: CG   and  CD  
    4  A    between atoms: CD   and  CE  

>  <TORSDO>
F 17

>  <BEGIN_>
RES LYS A 131

$$$$
ligand_22_pose_4_2HRL.pdbqt
 OpenBabel07062320523D

  6  5  0  0  0  0  0  0  0  0999 V2000
   33.1930   34.6630    9.2900 C   0  0  0  0  0  0  0  0  0  0  0  0
   32.0600   35.3600   10.0340 C   0  0  0  0  0  0  0  0  0  0  0  0
   32.4980   36.0220   11.3150 C   0  0  0  0  0  0  0  0  0  0  0  0
   31.8960   37.4140   11.4330 C   0  0  0  0  0  0  0  0  0  0  0  0
   30.6890   37.5510   10.5250 C   0  0  0  0  0  0  0  0  0  0  0  0
   29.4210   37.4480   11.3000 N   0  0  0  0  0  0  0  0  0  0  0  0
  1  2  1  0  0  0  0
  2  3  1  0  0  0  0
  3  4  1  0  0  0  0
  5  6  1  0  0  0  0
  5  4  1  0  0  0  0
M  END
>  <EGIN_R>
ES LYS A 135

>  <REMARK>
  4 active torsions:
  status: ('A' for Active; 'I' for Inactive)
    5  A    between atoms: CA   and  CB  
    6  A    between atoms: CB   and  CG  
    7  A    between atoms: CG   and  CD  
    8  A    between atoms: CD   and  CE  

$$$$
