ligand_82_pose_10_2HRL.pdbqt
 OpenBabel07062320523D

 53 55  0  0  1  0  0  0  0  0999 V2000
   25.1430   39.7210    6.4370 N   0  0  0  0  0  0  0  0  0  0  0  0
   25.5140   41.0200    5.9450 C   0  0  0  0  0  0  0  0  0  0  0  0
   24.8110   42.0090    6.2740 O   0  0  0  0  0  0  0  0  0  0  0  0
   25.7230   38.8980    6.1690 H   0  0  0  0  0  0  0  0  0  0  0  0
   23.9810   39.5800    7.2890 C   0  0  0  0  0  0  0  0  0  0  0  0
   23.7270   38.1140    7.4950 C   0  0  2  0  0  0  0  0  0  0  0  0
   23.3850   37.7870    8.9320 C   0  0  1  0  0  0  0  0  0  0  0  0
   22.7740   36.4050    8.9430 C   0  0  2  0  0  0  0  0  0  0  0  0
   20.5120   36.7130    8.5510 C   0  0  2  0  0  0  0  0  0  0  0  0
   20.0950   36.1100    9.8740 C   0  0  0  0  0  0  0  0  0  0  0  0
   21.7210   36.2490    8.0910 O   0  0  0  0  0  0  0  0  0  0  0  0
   21.1930   35.1810   10.3280 C   0  0  1  0  0  0  0  0  0  0  0  0
   22.4740   35.9890   10.3650 C   0  0  1  0  0  0  0  0  0  0  0  0
   20.4670   38.1080    8.6400 O   0  0  0  0  0  0  0  0  0  0  0  0
   20.6120   38.3210    9.6020 H   0  0  0  0  0  0  0  0  0  0  0  0
   19.4740   36.3170    7.5540 C   0  0  0  0  0  0  0  0  0  0  0  0
   19.2600   35.0750    7.3410 O   0  0  0  0  0  0  0  0  0  0  0  0
   18.7280   37.2340    6.8450 O   0  0  0  0  0  0  0  0  0  0  0  0
   19.0260   38.2000    6.7380 H   0  0  0  0  0  0  0  0  0  0  0  0
   20.9620   34.6680   11.5890 O   0  0  0  0  0  0  0  0  0  0  0  0
   21.6470   35.0500   12.1950 H   0  0  0  0  0  0  0  0  0  0  0  0
   23.5510   35.2530   10.9760 N   0  0  0  0  0  0  0  0  0  0  0  0
   24.2510   35.7520   12.1040 C   0  0  0  0  0  0  0  0  0  0  0  0
   23.8090   34.3300   10.5640 H   0  0  0  0  0  0  0  0  0  0  0  0
   25.3510   34.9260   12.6720 C   0  0  0  0  0  0  0  0  0  0  0  0
   23.9450   36.8630   12.6050 O   0  0  0  0  0  0  0  0  0  0  0  0
   24.5340   37.7490    9.7180 O   0  0  0  0  0  0  0  0  0  0  0  0
   24.4900   38.3280   10.4970 H   0  0  0  0  0  0  0  0  0  0  0  0
   24.9270   37.4490    7.1660 O   0  0  0  0  0  0  0  0  0  0  0  0
   24.7280   36.5480    6.7830 H   0  0  0  0  0  0  0  0  0  0  0  0
   26.5980   41.2280    5.1380 O   0  0  0  0  0  0  0  0  0  0  0  0
   27.9180   41.4200    5.6150 C   0  0  0  0  0  0  0  0  0  0  0  0
   28.4600   40.1510    6.1430 C   0  0  0  0  0  0  0  0  0  0  0  0
   29.1030   39.9190    7.3360 C   0  0  0  0  0  0  0  0  0  0  0  0
   28.4090   38.9660    5.5170 N   0  0  0  0  0  0  0  0  0  0  0  0
   29.4320   38.5960    7.4140 N   0  0  0  0  0  0  0  0  0  0  0  0
   28.9950   38.0480    6.2890 N   0  0  0  0  0  0  0  0  0  0  0  0
   30.1180   37.9770    8.5210 C   0  0  0  0  0  0  0  0  0  0  0  0
   29.6710   36.5520    8.7060 C   0  0  0  0  0  0  0  0  0  0  0  0
   30.4440   35.5330    8.3430 C   0  0  0  0  0  0  0  0  0  0  0  0
   28.3560   36.2340    9.2970 C   0  0  2  0  0  0  0  0  0  0  0  0
   30.0610   34.1600    8.7710 C   0  0  0  0  0  0  0  0  0  0  0  0
   28.6350   35.2610   10.4520 C   0  0  0  0  0  0  0  0  0  0  0  0
   27.7510   35.0530    8.5640 C   0  0  0  0  0  0  0  0  0  0  0  0
   28.6990   34.1730    9.3940 C   0  0  1  0  0  0  0  0  0  0  0  0
   26.3260   34.7640    8.9420 C   0  0  0  0  0  0  0  0  0  0  0  0
   27.9840   35.0080    7.0920 C   0  0  0  0  0  0  0  0  0  0  0  0
   29.8670   25.5550   16.9770 C   0  0  0  0  0  0  0  0  0  0  0  0
   28.3450   25.7220   17.0260 C   0  0  0  0  0  0  0  0  0  0  0  0
   27.6020   24.4000   16.9110 C   0  0  0  0  0  0  0  0  0  0  0  0
   26.6060   24.2120   18.0210 C   0  0  0  0  0  0  0  0  0  0  0  0
   25.3550   23.5310   17.4740 C   0  0  0  0  0  0  0  0  0  0  0  0
   24.4270   24.5350   16.9020 N   0  0  0  0  0  0  0  0  0  0  0  0
  1  5  1  0  0  0  0
  2  3  2  0  0  0  0
  2  1  1  0  0  0  0
  4  1  1  0  0  0  0
  6  5  1  1  0  0  0
  6  7  1  0  0  0  0
  7 27  1  1  0  0  0
  8  7  1  1  0  0  0
  8 13  1  0  0  0  0
  9 16  1  6  0  0  0
  9 14  1  0  0  0  0
  9 10  1  0  0  0  0
 10 12  1  0  0  0  0
 11  9  1  0  0  0  0
 11  8  1  0  0  0  0
 12 13  1  0  0  0  0
 12 20  1  1  0  0  0
 13 22  1  6  0  0  0
 14 15  1  0  0  0  0
 17 16  2  0  0  0  0
 18 16  1  0  0  0  0
 19 18  1  0  0  0  0
 20 21  1  0  0  0  0
 22 23  1  0  0  0  0
 23 26  2  0  0  0  0
 23 25  1  0  0  0  0
 24 22  1  0  0  0  0
 27 28  1  0  0  0  0
 29  6  1  0  0  0  0
 30 29  1  0  0  0  0
 31 32  1  0  0  0  0
 31  2  1  0  0  0  0
 32 33  1  0  0  0  0
 33 34  2  0  0  0  0
 34 36  1  0  0  0  0
 35 33  1  0  0  0  0
 35 37  2  0  0  0  0
 36 38  1  0  0  0  0
 37 36  1  0  0  0  0
 38 39  1  0  0  0  0
 39 41  1  0  0  0  0
 40 39  2  0  0  0  0
 40 42  1  0  0  0  0
 41 43  1  1  0  0  0
 44 46  1  0  0  0  0
 44 41  1  0  0  0  0
 44 45  1  0  0  0  0
 45 42  1  6  0  0  0
 45 43  1  0  0  0  0
 47 44  1  0  0  0  0
 48 49  1  0  0  0  0
 50 49  1  0  0  0  0
 50 51  1  0  0  0  0
 52 51  1  0  0  0  0
 53 52  1  0  0  0  0
M  END
>  <REMARK>
 VINA RESULT:    -5.409      7.555     13.500
 INTER + INTRA:         -15.014
 INTER:                 -10.809
 INTRA:                  -4.205
 UNBOUND:                -5.337
 SMILES CC(=O)N[C@@H]1[C@@H](O)C[C@](O)(C(=O)O)O[C@H]1C(O)[C@H](O)CNC(=O)OCc1cn(CC2=CC[C@H]3C[C@@H]2C3(C)C)nn1
 SMILES IDX 21 1 22 2 23 3 20 5 18 6 16 7 15 8 9 9 8 10 14 11 6 12 5 13
 SMILES IDX 10 14 11 16 12 17 13 18 7 20 4 22 2 23 1 25 3 26 17 27 19 29
 SMILES IDX 24 31 25 32 26 33 27 34 40 35 28 36 39 37 29 38 30 39 31 40
 SMILES IDX 35 41 32 42 34 43 36 44 33 45 37 46 38 47
 H PARENT 21 4 10 15 13 19 7 21 4 24 17 28 19 30
 Flexibility Score: inf
  4 active torsions:
  status: ('A' for Active; 'I' for Inactive)
    1  A    between atoms: CA   and  CB  
    2  A    between atoms: CB   and  CG  
    3  A    between atoms: CG   and  CD  
    4  A    between atoms: CD   and  CE  

>  <TORSDO>
F 16

>  <BEGIN_>
RES LYS A 131

$$$$
ligand_82_pose_10_2HRL.pdbqt
 OpenBabel07062320523D

  6  5  0  0  0  0  0  0  0  0999 V2000
   33.1930   34.6630    9.2900 C   0  0  0  0  0  0  0  0  0  0  0  0
   32.0600   35.3600   10.0340 C   0  0  0  0  0  0  0  0  0  0  0  0
   32.4730   35.9230   11.3690 C   0  0  0  0  0  0  0  0  0  0  0  0
   31.9890   37.3570   11.5200 C   0  0  0  0  0  0  0  0  0  0  0  0
   30.8740   37.4380   12.5450 C   0  0  0  0  0  0  0  0  0  0  0  0
   29.8180   38.3960   12.1150 N   0  0  0  0  0  0  0  0  0  0  0  0
  1  2  1  0  0  0  0
  2  3  1  0  0  0  0
  3  4  1  0  0  0  0
  4  5  1  0  0  0  0
  6  5  1  0  0  0  0
M  END
>  <EGIN_R>
ES LYS A 135

>  <REMARK>
  4 active torsions:
  status: ('A' for Active; 'I' for Inactive)
    5  A    between atoms: CA   and  CB  
    6  A    between atoms: CB   and  CG  
    7  A    between atoms: CG   and  CD  
    8  A    between atoms: CD   and  CE  

$$$$
