ligand_56_pose_3_2HRL.pdbqt
 OpenBabel07062320523D

 49 50  0  0  1  0  0  0  0  0999 V2000
   27.2080   27.5430   19.0140 C   0  0  0  0  0  0  0  0  0  0  0  0
   28.1060   27.6130   20.1970 C   0  0  2  0  0  0  0  0  0  0  0  0
   28.4360   29.0410   20.5990 C   0  0  2  0  0  0  0  0  0  0  0  0
   29.8730   29.2550   20.9120 C   0  0  2  0  0  0  0  0  0  0  0  0
   31.5240   28.9480   22.4950 C   0  0  2  0  0  0  0  0  0  0  0  0
   32.3750   29.7290   21.5250 C   0  0  0  0  0  0  0  0  0  0  0  0
   30.3390   28.5150   21.9620 O   0  0  0  0  0  0  0  0  0  0  0  0
   31.6520   30.9100   20.9390 C   0  0  1  0  0  0  0  0  0  0  0  0
   30.1720   30.7160   21.2030 C   0  0  1  0  0  0  0  0  0  0  0  0
   31.3270   29.6410   23.6890 O   0  0  0  0  0  0  0  0  0  0  0  0
   31.0260   29.0390   24.4210 H   0  0  0  0  0  0  0  0  0  0  0  0
   32.3170   27.7200   22.8540 C   0  0  0  0  0  0  0  0  0  0  0  0
   32.7130   27.4760   24.0040 O   0  0  0  0  0  0  0  0  0  0  0  0
   32.5910   26.8490   21.8030 O   0  0  0  0  0  0  0  0  0  0  0  0
   33.5410   26.5280   21.6370 H   0  0  0  0  0  0  0  0  0  0  0  0
   32.0880   32.1160   21.4880 O   0  0  0  0  0  0  0  0  0  0  0  0
   31.5680   32.8610   21.1020 H   0  0  0  0  0  0  0  0  0  0  0  0
   29.3630   31.6070   20.4040 N   0  0  0  0  0  0  0  0  0  0  0  0
   28.4960   32.5520   21.0170 C   0  0  0  0  0  0  0  0  0  0  0  0
   29.3900   31.5840   19.3680 H   0  0  0  0  0  0  0  0  0  0  0  0
   27.6440   33.4900   20.2180 C   0  0  0  0  0  0  0  0  0  0  0  0
   28.4440   32.6010   22.2720 O   0  0  0  0  0  0  0  0  0  0  0  0
   27.5370   29.5200   21.5160 O   0  0  0  0  0  0  0  0  0  0  0  0
   26.7180   28.9530   21.4950 H   0  0  0  0  0  0  0  0  0  0  0  0
   29.3240   26.9890   19.9940 O   0  0  0  0  0  0  0  0  0  0  0  0
   29.8010   26.7660   20.8240 H   0  0  0  0  0  0  0  0  0  0  0  0
   27.5820   28.5050   18.0170 N   0  0  0  0  0  0  0  0  0  0  0  0
   26.7550   29.1610   17.0960 C   0  0  0  0  0  0  0  0  0  0  0  0
   28.6250   28.7700   17.9530 H   0  0  0  0  0  0  0  0  0  0  0  0
   25.5450   28.9390   17.0610 O   0  0  0  0  0  0  0  0  0  0  0  0
   27.2480   30.0990   16.1690 O   0  0  0  0  0  0  0  0  0  0  0  0
   28.5830   29.9520   15.6700 C   0  0  0  0  0  0  0  0  0  0  0  0
   29.4730   30.9710   16.2330 C   0  0  0  0  0  0  0  0  0  0  0  0
   30.2090   31.9420   15.5940 C   0  0  0  0  0  0  0  0  0  0  0  0
   29.7250   31.1280   17.5500 N   0  0  0  0  0  0  0  0  0  0  0  0
   30.8690   32.6350   16.5500 N   0  0  0  0  0  0  0  0  0  0  0  0
   30.5710   32.1370   17.7230 N   0  0  0  0  0  0  0  0  0  0  0  0
   31.7540   33.7380   16.3460 C   0  0  0  0  0  0  0  0  0  0  0  0
   32.0340   34.5650   17.4070 C   0  0  0  0  0  0  0  0  0  0  0  0
   32.3160   33.9670   15.0960 C   0  0  0  0  0  0  0  0  0  0  0  0
   32.8900   35.6240   17.1930 C   0  0  0  0  0  0  0  0  0  0  0  0
   33.1580   35.0290   14.9340 C   0  0  0  0  0  0  0  0  0  0  0  0
   33.4260   35.8330   15.9840 N   0  0  0  0  0  0  0  0  0  0  0  0
   29.8670   25.5550   16.9770 C   0  0  0  0  0  0  0  0  0  0  0  0
   28.3450   25.7220   17.0260 C   0  0  0  0  0  0  0  0  0  0  0  0
   27.6010   24.4010   16.9030 C   0  0  0  0  0  0  0  0  0  0  0  0
   26.1510   24.5300   17.2780 C   0  0  0  0  0  0  0  0  0  0  0  0
   25.7140   23.2930   18.0550 C   0  0  0  0  0  0  0  0  0  0  0  0
   24.3020   22.9610   17.7500 N   0  0  0  0  0  0  0  0  0  0  0  0
  2  1  1  6  0  0  0
  2  3  1  0  0  0  0
  3 23  1  1  0  0  0
  4  3  1  1  0  0  0
  4  9  1  0  0  0  0
  4  7  1  0  0  0  0
  5 12  1  1  0  0  0
  5 10  1  0  0  0  0
  6  5  1  0  0  0  0
  7  5  1  0  0  0  0
  8  9  1  0  0  0  0
  8 16  1  1  0  0  0
  8  6  1  0  0  0  0
  9 18  1  6  0  0  0
 10 11  1  0  0  0  0
 12 13  2  0  0  0  0
 14 12  1  0  0  0  0
 15 14  1  0  0  0  0
 17 16  1  0  0  0  0
 18 19  1  0  0  0  0
 19 22  2  0  0  0  0
 20 18  1  0  0  0  0
 21 19  1  0  0  0  0
 24 23  1  0  0  0  0
 25  2  1  0  0  0  0
 25 26  1  0  0  0  0
 27  1  1  0  0  0  0
 28 27  1  0  0  0  0
 29 27  1  0  0  0  0
 30 28  2  0  0  0  0
 31 28  1  0  0  0  0
 32 31  1  0  0  0  0
 32 33  1  0  0  0  0
 33 35  1  0  0  0  0
 34 33  2  0  0  0  0
 34 36  1  0  0  0  0
 35 37  2  0  0  0  0
 36 37  1  0  0  0  0
 38 36  1  0  0  0  0
 38 39  2  0  0  0  0
 40 38  1  0  0  0  0
 41 39  1  0  0  0  0
 42 40  2  0  0  0  0
 42 43  1  0  0  0  0
 43 41  2  0  0  0  0
 44 45  1  0  0  0  0
 46 45  1  0  0  0  0
 46 47  1  0  0  0  0
 47 48  1  0  0  0  0
 49 48  1  0  0  0  0
M  END
>  <REMARK>
 VINA RESULT:    -5.177      2.076      2.984
 INTER + INTRA:         -14.233
 INTER:                  -8.292
 INTRA:                  -5.941
 UNBOUND:                -5.272
 SMILES CC(=O)N[C@@H]1[C@@H](O)C[C@](O)(C(=O)O)O[C@H]1C(O)[C@H](O)CNC(=O)OCc1cn(-c2ccncc2)nn1
 SMILES IDX 20 1 18 2 16 3 15 4 9 5 8 6 14 7 6 8 5 9 10 10 11 12 12 13
 SMILES IDX 13 14 7 16 4 18 2 19 1 21 3 22 17 23 19 25 21 27 22 28 23 30
 SMILES IDX 24 31 25 32 26 33 27 34 36 35 28 36 35 37 29 38 30 39 34 40
 SMILES IDX 31 41 33 42 32 43
 H PARENT 10 11 13 15 7 17 4 20 17 24 19 26 21 29
 Flexibility Score: inf
  4 active torsions:
  status: ('A' for Active; 'I' for Inactive)
    1  A    between atoms: CA   and  CB  
    2  A    between atoms: CB   and  CG  
    3  A    between atoms: CG   and  CD  
    4  A    between atoms: CD   and  CE  

>  <TORSDO>
F 15

>  <BEGIN_>
RES LYS A 131

$$$$
ligand_56_pose_3_2HRL.pdbqt
 OpenBabel07062320523D

  6  5  0  0  0  0  0  0  0  0999 V2000
   33.1930   34.6630    9.2900 C   0  0  0  0  0  0  0  0  0  0  0  0
   32.0600   35.3600   10.0340 C   0  0  0  0  0  0  0  0  0  0  0  0
   30.7330   34.6580    9.9040 C   0  0  0  0  0  0  0  0  0  0  0  0
   30.3360   34.5260    8.4420 C   0  0  0  0  0  0  0  0  0  0  0  0
   28.8270   34.5540    8.2950 C   0  0  0  0  0  0  0  0  0  0  0  0
   28.1650   33.8280    9.4150 N   0  0  0  0  0  0  0  0  0  0  0  0
  1  2  1  0  0  0  0
  3  2  1  0  0  0  0
  4  3  1  0  0  0  0
  5  4  1  0  0  0  0
  5  6  1  0  0  0  0
M  END
>  <EGIN_R>
ES LYS A 135

>  <REMARK>
  4 active torsions:
  status: ('A' for Active; 'I' for Inactive)
    5  A    between atoms: CA   and  CB  
    6  A    between atoms: CB   and  CG  
    7  A    between atoms: CG   and  CD  
    8  A    between atoms: CD   and  CE  

$$$$
