ligand_54_pose_7_2HRL.pdbqt
 OpenBabel07062320523D

 52 52  0  0  1  0  0  0  0  0999 V2000
   27.9630   38.0590    8.3190 O   0  0  0  0  0  0  0  0  0  0  0  0
   26.6900   38.2920    7.7760 C   0  0  0  0  0  0  0  0  0  0  0  0
   26.0330   39.5310    7.9290 N   0  0  0  0  0  0  0  0  0  0  0  0
   26.5810   40.2720    8.4720 H   0  0  0  0  0  0  0  0  0  0  0  0
   26.1570   37.3690    7.1560 O   0  0  0  0  0  0  0  0  0  0  0  0
   24.7400   39.8970    7.4440 C   0  0  0  0  0  0  0  0  0  0  0  0
   23.7260   39.9270    8.5520 C   0  0  2  0  0  0  0  0  0  0  0  0
   22.8750   38.6720    8.3770 C   0  0  2  0  0  0  0  0  0  0  0  0
   23.0450   37.7180    9.5170 C   0  0  2  0  0  0  0  0  0  0  0  0
   24.5420   36.1060   10.2510 C   0  0  2  0  0  0  0  0  0  0  0  0
   23.4610   35.5750   11.1330 C   0  0  0  0  0  0  0  0  0  0  0  0
   24.3410   37.4020    9.7990 O   0  0  0  0  0  0  0  0  0  0  0  0
   22.0650   35.8110   10.6350 C   0  0  1  0  0  0  0  0  0  0  0  0
   22.1730   36.4880    9.2860 C   0  0  1  0  0  0  0  0  0  0  0  0
   24.7960   35.2230    9.1980 O   0  0  0  0  0  0  0  0  0  0  0  0
   24.9660   35.7870    8.3860 H   0  0  0  0  0  0  0  0  0  0  0  0
   25.7800   36.1550   11.0820 C   0  0  0  0  0  0  0  0  0  0  0  0
   25.7410   35.9310   12.3110 O   0  0  0  0  0  0  0  0  0  0  0  0
   27.0020   36.4620   10.4560 O   0  0  0  0  0  0  0  0  0  0  0  0
   27.2310   35.8920    9.6430 H   0  0  0  0  0  0  0  0  0  0  0  0
   21.2920   34.6570   10.5910 O   0  0  0  0  0  0  0  0  0  0  0  0
   20.3800   34.9410   10.3260 H   0  0  0  0  0  0  0  0  0  0  0  0
   20.8880   36.9490    8.8010 N   0  0  0  0  0  0  0  0  0  0  0  0
   20.1070   36.0940    7.9790 C   0  0  0  0  0  0  0  0  0  0  0  0
   20.4900   37.8790    9.0180 H   0  0  0  0  0  0  0  0  0  0  0  0
   18.7870   36.4800    7.4400 C   0  0  0  0  0  0  0  0  0  0  0  0
   20.5620   34.9520    7.6950 O   0  0  0  0  0  0  0  0  0  0  0  0
   23.1870   38.0970    7.1550 O   0  0  0  0  0  0  0  0  0  0  0  0
   22.6150   38.4340    6.4130 H   0  0  0  0  0  0  0  0  0  0  0  0
   22.8850   41.0020    8.4180 O   0  0  0  0  0  0  0  0  0  0  0  0
   22.6440   41.4210    9.2830 H   0  0  0  0  0  0  0  0  0  0  0  0
   29.1090   38.6960    7.7610 C   0  0  0  0  0  0  0  0  0  0  0  0
   30.2150   38.6490    8.7340 C   0  0  0  0  0  0  0  0  0  0  0  0
   30.0070   38.3290   10.0790 C   0  0  0  0  0  0  0  0  0  0  0  0
   31.5190   38.8650    8.6270 N   0  0  0  0  0  0  0  0  0  0  0  0
   31.1950   38.3660   10.7170 N   0  0  0  0  0  0  0  0  0  0  0  0
   32.0890   38.6900    9.8270 N   0  0  0  0  0  0  0  0  0  0  0  0
   31.3610   38.0930   12.1170 C   0  0  0  0  0  0  0  0  0  0  0  0
   32.2120   36.8750   12.3850 C   0  0  0  0  0  0  0  0  0  0  0  0
   31.7050   36.0450   13.5240 C   0  0  0  0  0  0  0  0  0  0  0  0
   32.6710   36.0420   14.5240 O   0  0  0  0  0  0  0  0  0  0  0  0
   32.4190   37.0690   15.4430 C   0  0  0  0  0  0  0  0  0  0  0  0
   31.1490   36.8220   16.2150 C   0  0  0  0  0  0  0  0  0  0  0  0
   31.4340   34.7510   13.1620 O   0  0  0  0  0  0  0  0  0  0  0  0
   30.2640   34.2700   13.7490 C   0  0  0  0  0  0  0  0  0  0  0  0
   29.0750   35.0090   13.1470 C   0  0  0  0  0  0  0  0  0  0  0  0
   29.8670   25.5550   16.9770 C   0  0  0  0  0  0  0  0  0  0  0  0
   28.3450   25.7220   17.0260 C   0  0  0  0  0  0  0  0  0  0  0  0
   27.6010   24.4010   16.8980 C   0  0  0  0  0  0  0  0  0  0  0  0
   26.6270   24.1880   18.0230 C   0  0  0  0  0  0  0  0  0  0  0  0
   25.4570   23.3440   17.5300 C   0  0  0  0  0  0  0  0  0  0  0  0
   24.4440   24.1980   16.8660 N   0  0  0  0  0  0  0  0  0  0  0  0
  2  3  1  0  0  0  0
  2  1  1  0  0  0  0
  3  4  1  0  0  0  0
  5  2  2  0  0  0  0
  6  3  1  0  0  0  0
  7  6  1  6  0  0  0
  8 28  1  6  0  0  0
  8  7  1  0  0  0  0
  9  8  1  6  0  0  0
  9 12  1  0  0  0  0
 10 15  1  6  0  0  0
 10 17  1  0  0  0  0
 10 11  1  0  0  0  0
 12 10  1  0  0  0  0
 13 21  1  6  0  0  0
 13 11  1  0  0  0  0
 14 23  1  1  0  0  0
 14  9  1  0  0  0  0
 14 13  1  0  0  0  0
 16 15  1  0  0  0  0
 17 18  2  0  0  0  0
 19 17  1  0  0  0  0
 20 19  1  0  0  0  0
 22 21  1  0  0  0  0
 23 25  1  0  0  0  0
 24 23  1  0  0  0  0
 26 24  1  0  0  0  0
 27 24  2  0  0  0  0
 29 28  1  0  0  0  0
 30  7  1  0  0  0  0
 30 31  1  0  0  0  0
 32  1  1  0  0  0  0
 32 33  1  0  0  0  0
 33 34  2  0  0  0  0
 34 36  1  0  0  0  0
 35 33  1  0  0  0  0
 35 37  2  0  0  0  0
 36 38  1  0  0  0  0
 37 36  1  0  0  0  0
 38 39  1  0  0  0  0
 39 40  1  0  0  0  0
 40 41  1  0  0  0  0
 41 42  1  0  0  0  0
 42 43  1  0  0  0  0
 44 40  1  0  0  0  0
 44 45  1  0  0  0  0
 46 45  1  0  0  0  0
 47 48  1  0  0  0  0
 49 48  1  0  0  0  0
 49 50  1  0  0  0  0
 51 50  1  0  0  0  0
 52 51  1  0  0  0  0
M  END
>  <REMARK>
 VINA RESULT:    -4.255      6.239     11.915
 INTER + INTRA:         -14.795
 INTER:                  -8.275
 INTRA:                  -6.520
 UNBOUND:                -5.938
 SMILES CCOC(CCn1cc(COC(=O)NC[C@@H](O)C(O)[C@@H]2O[C@@](O)(C(=O)O)C[C@H](O)[C@H]2NC(C)=O)nn1)OCC
 SMILES IDX 11 1 12 2 14 3 13 5 15 6 16 7 18 8 20 9 22 10 27 11 21 12
 SMILES IDX 28 13 30 14 23 15 24 17 25 18 26 19 29 21 31 23 32 24 33 26
 SMILES IDX 34 27 19 28 17 30 10 32 9 33 8 34 35 35 7 36 36 37 6 38 5 39
 SMILES IDX 4 40 3 41 2 42 1 43 37 44 38 45 39 46
 H PARENT 14 4 23 16 26 20 29 22 31 25 19 29 17 31
 Flexibility Score: inf
  4 active torsions:
  status: ('A' for Active; 'I' for Inactive)
    1  A    between atoms: CA   and  CB  
    2  A    between atoms: CB   and  CG  
    3  A    between atoms: CG   and  CD  
    4  A    between atoms: CD   and  CE  

>  <TORSDO>
F 21

>  <BEGIN_>
RES LYS A 131

$$$$
ligand_54_pose_7_2HRL.pdbqt
 OpenBabel07062320523D

  6  5  0  0  0  0  0  0  0  0999 V2000
   33.1930   34.6630    9.2900 C   0  0  0  0  0  0  0  0  0  0  0  0
   32.0600   35.3600   10.0340 C   0  0  0  0  0  0  0  0  0  0  0  0
   30.7030   34.7670    9.7570 C   0  0  0  0  0  0  0  0  0  0  0  0
   30.4870   34.5950    8.2620 C   0  0  0  0  0  0  0  0  0  0  0  0
   29.0480   34.9010    7.8930 C   0  0  0  0  0  0  0  0  0  0  0  0
   28.9470   35.3930    6.4910 N   0  0  0  0  0  0  0  0  0  0  0  0
  1  2  1  0  0  0  0
  3  2  1  0  0  0  0
  4  3  1  0  0  0  0
  5  4  1  0  0  0  0
  6  5  1  0  0  0  0
M  END
>  <EGIN_R>
ES LYS A 135

>  <REMARK>
  4 active torsions:
  status: ('A' for Active; 'I' for Inactive)
    5  A    between atoms: CA   and  CB  
    6  A    between atoms: CB   and  CG  
    7  A    between atoms: CG   and  CD  
    8  A    between atoms: CD   and  CE  

$$$$
