ligand_7_pose_14_2HRL.pdbqt
 OpenBabel07062320523D

 52 53  0  0  1  0  0  0  0  0999 V2000
   29.1130   28.9050   21.0370 C   0  0  0  0  0  0  0  0  0  0  0  0
   29.9690   27.7590   21.4360 C   0  0  2  0  0  0  0  0  0  0  0  0
   31.4280   28.0590   21.5690 C   0  0  1  0  0  0  0  0  0  0  0  0
   32.1470   27.3440   22.6510 C   0  0  2  0  0  0  0  0  0  0  0  0
   31.6310   26.5250   24.7800 C   0  0  2  0  0  0  0  0  0  0  0  0
   33.0910   26.3740   25.0990 C   0  0  0  0  0  0  0  0  0  0  0  0
   31.3350   26.5960   23.4520 O   0  0  0  0  0  0  0  0  0  0  0  0
   33.9890   27.1560   24.2040 C   0  0  1  0  0  0  0  0  0  0  0  0
   33.1310   28.1690   23.4240 C   0  0  1  0  0  0  0  0  0  0  0  0
   31.1620   27.6510   25.4510 O   0  0  0  0  0  0  0  0  0  0  0  0
   31.9290   28.2870   25.5440 H   0  0  0  0  0  0  0  0  0  0  0  0
   30.9440   25.3290   25.3360 C   0  0  0  0  0  0  0  0  0  0  0  0
   29.7110   25.1890   25.2100 O   0  0  0  0  0  0  0  0  0  0  0  0
   31.6670   24.3370   26.0120 O   0  0  0  0  0  0  0  0  0  0  0  0
   32.6860   24.2930   25.8700 H   0  0  0  0  0  0  0  0  0  0  0  0
   35.0480   27.7670   24.8430 O   0  0  0  0  0  0  0  0  0  0  0  0
   35.8130   27.1180   24.8370 H   0  0  0  0  0  0  0  0  0  0  0  0
   34.0590   28.8570   22.5640 N   0  0  0  0  0  0  0  0  0  0  0  0
   34.1730   30.2680   22.6860 C   0  0  0  0  0  0  0  0  0  0  0  0
   34.6510   28.3570   21.8560 H   0  0  0  0  0  0  0  0  0  0  0  0
   35.0990   31.0700   21.8440 C   0  0  0  0  0  0  0  0  0  0  0  0
   33.4780   30.8920   23.5260 O   0  0  0  0  0  0  0  0  0  0  0  0
   32.0340   27.7840   20.3460 O   0  0  0  0  0  0  0  0  0  0  0  0
   31.6550   26.9360   20.0050 H   0  0  0  0  0  0  0  0  0  0  0  0
   29.7230   26.6370   20.6420 O   0  0  0  0  0  0  0  0  0  0  0  0
   29.2930   26.8780   19.7830 H   0  0  0  0  0  0  0  0  0  0  0  0
   29.4780   29.4670   19.7520 N   0  0  0  0  0  0  0  0  0  0  0  0
   30.0970   30.7420   19.6100 C   0  0  0  0  0  0  0  0  0  0  0  0
   29.3040   28.9550   18.8380 H   0  0  0  0  0  0  0  0  0  0  0  0
   30.3490   31.4330   20.6140 O   0  0  0  0  0  0  0  0  0  0  0  0
   30.4330   31.2430   18.3490 O   0  0  0  0  0  0  0  0  0  0  0  0
   30.8480   32.6130   18.2330 C   0  0  0  0  0  0  0  0  0  0  0  0
   30.8740   32.9690   16.7910 C   0  0  0  0  0  0  0  0  0  0  0  0
   31.0900   34.2370   16.2800 C   0  0  0  0  0  0  0  0  0  0  0  0
   30.7040   32.1790   15.7400 N   0  0  0  0  0  0  0  0  0  0  0  0
   31.0470   34.1900   14.9470 N   0  0  0  0  0  0  0  0  0  0  0  0
   30.8070   32.9000   14.6590 N   0  0  0  0  0  0  0  0  0  0  0  0
   31.2100   35.2260   13.9870 C   0  0  0  0  0  0  0  0  0  0  0  0
   30.1240   35.9660   13.5730 C   0  0  0  0  0  0  0  0  0  0  0  0
   32.4460   35.5270   13.4370 C   0  0  0  0  0  0  0  0  0  0  0  0
   28.7930   35.6660   14.1460 C   0  0  0  0  0  0  0  0  0  0  0  0
   30.2890   36.9860   12.6270 C   0  0  0  0  0  0  0  0  0  0  0  0
   32.5970   36.5350   12.5050 C   0  0  0  0  0  0  0  0  0  0  0  0
   33.6210   34.7080   13.9020 C   0  0  0  0  0  0  0  0  0  0  0  0
   31.5200   37.2830   12.0830 C   0  0  0  0  0  0  0  0  0  0  0  0
   31.6680   38.3760   11.0760 C   0  0  0  0  0  0  0  0  0  0  0  0
   29.8670   25.5550   16.9770 C   0  0  0  0  0  0  0  0  0  0  0  0
   28.3450   25.7220   17.0260 C   0  0  0  0  0  0  0  0  0  0  0  0
   27.5990   24.4260   16.7460 C   0  0  0  0  0  0  0  0  0  0  0  0
   26.9490   23.8680   17.9810 C   0  0  0  0  0  0  0  0  0  0  0  0
   25.5620   24.4800   18.1470 C   0  0  0  0  0  0  0  0  0  0  0  0
   24.8050   24.4010   16.8760 N   0  0  0  0  0  0  0  0  0  0  0  0
  2  1  1  6  0  0  0
  2  3  1  0  0  0  0
  3 23  1  6  0  0  0
  4  3  1  1  0  0  0
  4  9  1  0  0  0  0
  4  7  1  0  0  0  0
  5  6  1  0  0  0  0
  5 12  1  1  0  0  0
  5 10  1  0  0  0  0
  7  5  1  0  0  0  0
  8 16  1  1  0  0  0
  8  6  1  0  0  0  0
  9 18  1  6  0  0  0
  9  8  1  0  0  0  0
 10 11  1  0  0  0  0
 12 14  1  0  0  0  0
 13 12  2  0  0  0  0
 15 14  1  0  0  0  0
 17 16  1  0  0  0  0
 18 19  1  0  0  0  0
 19 22  2  0  0  0  0
 20 18  1  0  0  0  0
 21 19  1  0  0  0  0
 24 23  1  0  0  0  0
 25  2  1  0  0  0  0
 26 25  1  0  0  0  0
 27  1  1  0  0  0  0
 28 27  1  0  0  0  0
 28 30  2  0  0  0  0
 29 27  1  0  0  0  0
 31 28  1  0  0  0  0
 32 31  1  0  0  0  0
 33 32  1  0  0  0  0
 34 33  2  0  0  0  0
 35 33  1  0  0  0  0
 36 34  1  0  0  0  0
 37 36  1  0  0  0  0
 37 35  2  0  0  0  0
 38 36  1  0  0  0  0
 39 38  1  0  0  0  0
 39 41  1  0  0  0  0
 40 44  1  0  0  0  0
 40 38  2  0  0  0  0
 42 39  2  0  0  0  0
 43 40  1  0  0  0  0
 45 43  2  0  0  0  0
 45 42  1  0  0  0  0
 46 45  1  0  0  0  0
 47 48  1  0  0  0  0
 49 48  1  0  0  0  0
 49 50  1  0  0  0  0
 50 51  1  0  0  0  0
 52 51  1  0  0  0  0
M  END
>  <REMARK>
 VINA RESULT:    -4.630      2.177      4.132
 INTER + INTRA:         -13.930
 INTER:                  -9.179
 INTRA:                  -4.751
 UNBOUND:                -5.917
 SMILES CC(=O)N[C@@H]1[C@@H](O)C[C@](O)(C(=O)O)O[C@H]1C(O)[C@H](O)CNC(=O)OCc1cn(-c2c(C)cc(C)cc2C)nn1
 SMILES IDX 20 1 18 2 16 3 15 4 9 5 8 6 14 7 6 8 5 9 10 10 11 12 12 13
 SMILES IDX 13 14 7 16 4 18 2 19 1 21 3 22 17 23 19 25 21 27 22 28 23 30
 SMILES IDX 24 31 25 32 26 33 27 34 39 35 28 36 38 37 29 38 30 39 36 40
 SMILES IDX 31 41 32 42 35 43 37 44 33 45 34 46
 H PARENT 10 11 13 15 7 17 4 20 17 24 19 26 21 29
 Flexibility Score: inf
  4 active torsions:
  status: ('A' for Active; 'I' for Inactive)
    1  A    between atoms: CA   and  CB  
    2  A    between atoms: CB   and  CG  
    3  A    between atoms: CG   and  CD  
    4  A    between atoms: CD   and  CE  

>  <TORSDO>
F 15

>  <BEGIN_>
RES LYS A 131

$$$$
ligand_7_pose_14_2HRL.pdbqt
 OpenBabel07062320523D

  6  5  0  0  0  0  0  0  0  0999 V2000
   33.1930   34.6630    9.2900 C   0  0  0  0  0  0  0  0  0  0  0  0
   32.0600   35.3600   10.0340 C   0  0  0  0  0  0  0  0  0  0  0  0
   30.7090   34.7380    9.7930 C   0  0  0  0  0  0  0  0  0  0  0  0
   30.4700   34.5320    8.3050 C   0  0  0  0  0  0  0  0  0  0  0  0
   29.0240   34.8230    7.9520 C   0  0  0  0  0  0  0  0  0  0  0  0
   28.9230   35.5280    6.6440 N   0  0  0  0  0  0  0  0  0  0  0  0
  1  2  1  0  0  0  0
  3  2  1  0  0  0  0
  4  3  1  0  0  0  0
  5  4  1  0  0  0  0
  6  5  1  0  0  0  0
M  END
>  <EGIN_R>
ES LYS A 135

>  <REMARK>
  4 active torsions:
  status: ('A' for Active; 'I' for Inactive)
    5  A    between atoms: CA   and  CB  
    6  A    between atoms: CB   and  CG  
    7  A    between atoms: CG   and  CD  
    8  A    between atoms: CD   and  CE  

$$$$
