ligand_4_pose_9_2HRL.pdbqt
 OpenBabel07062320523D

 52 53  0  0  1  0  0  0  0  0999 V2000
   29.1460   37.4850   12.6250 N   0  0  0  0  0  0  0  0  0  0  0  0
   30.3360   38.2340   12.5490 C   0  0  0  0  0  0  0  0  0  0  0  0
   30.3790   39.3230   11.9410 O   0  0  0  0  0  0  0  0  0  0  0  0
   29.1670   36.5770   13.1640 H   0  0  0  0  0  0  0  0  0  0  0  0
   27.9360   37.9100   12.0120 C   0  0  0  0  0  0  0  0  0  0  0  0
   27.5830   37.1670   10.7250 C   0  0  2  0  0  0  0  0  0  0  0  0
   27.6170   38.2700    9.6640 C   0  0  2  0  0  0  0  0  0  0  0  0
   28.4610   37.9180    8.4810 C   0  0  2  0  0  0  0  0  0  0  0  0
   29.6800   39.3000    7.0730 C   0  0  2  0  0  0  0  0  0  0  0  0
   29.4160   38.4200    5.9030 C   0  0  0  0  0  0  0  0  0  0  0  0
   29.4800   38.7950    8.3230 O   0  0  0  0  0  0  0  0  0  0  0  0
   28.2390   37.4780    6.0440 C   0  0  1  0  0  0  0  0  0  0  0  0
   27.5140   37.8920    7.2910 C   0  0  1  0  0  0  0  0  0  0  0  0
   29.0080   40.5370    6.8980 O   0  0  0  0  0  0  0  0  0  0  0  0
   28.8000   40.7370    5.9670 H   0  0  0  0  0  0  0  0  0  0  0  0
   31.1480   39.6430    7.0160 C   0  0  0  0  0  0  0  0  0  0  0  0
   31.6670   40.1850    8.0160 O   0  0  0  0  0  0  0  0  0  0  0  0
   31.9450   39.3770    5.9110 O   0  0  0  0  0  0  0  0  0  0  0  0
   31.7960   38.6020    5.2680 H   0  0  0  0  0  0  0  0  0  0  0  0
   27.3790   37.6800    4.9200 O   0  0  0  0  0  0  0  0  0  0  0  0
   27.3650   38.6300    4.6550 H   0  0  0  0  0  0  0  0  0  0  0  0
   26.3100   37.2380    7.6230 N   0  0  0  0  0  0  0  0  0  0  0  0
   25.0210   37.8250    7.5820 C   0  0  0  0  0  0  0  0  0  0  0  0
   26.3450   36.2090    7.9380 H   0  0  0  0  0  0  0  0  0  0  0  0
   23.7800   37.1250    7.9330 C   0  0  0  0  0  0  0  0  0  0  0  0
   24.9920   39.0740    7.2080 O   0  0  0  0  0  0  0  0  0  0  0  0
   28.0650   39.4050   10.3450 O   0  0  0  0  0  0  0  0  0  0  0  0
   27.9640   40.1750    9.7250 H   0  0  0  0  0  0  0  0  0  0  0  0
   26.3630   36.5730   10.7400 O   0  0  0  0  0  0  0  0  0  0  0  0
   26.2240   35.9440   10.0360 H   0  0  0  0  0  0  0  0  0  0  0  0
   31.5080   37.7770   13.1550 O   0  0  0  0  0  0  0  0  0  0  0  0
   32.2330   36.7500   12.4950 C   0  0  0  0  0  0  0  0  0  0  0  0
   32.4780   35.7120   13.5270 C   0  0  0  0  0  0  0  0  0  0  0  0
   31.4880   35.2220   14.3890 C   0  0  0  0  0  0  0  0  0  0  0  0
   33.5880   34.9940   13.7570 N   0  0  0  0  0  0  0  0  0  0  0  0
   32.0760   34.2260   15.0790 N   0  0  0  0  0  0  0  0  0  0  0  0
   33.2800   34.1260   14.6840 N   0  0  0  0  0  0  0  0  0  0  0  0
   31.3810   33.3740   15.9690 C   0  0  0  0  0  0  0  0  0  0  0  0
   31.3460   33.6430   17.2830 C   0  0  0  0  0  0  0  0  0  0  0  0
   30.8830   32.1560   15.4820 C   0  0  0  0  0  0  0  0  0  0  0  0
   30.8070   32.6980   18.1550 C   0  0  0  0  0  0  0  0  0  0  0  0
   30.3590   31.2330   16.3090 C   0  0  0  0  0  0  0  0  0  0  0  0
   30.3070   31.4800   17.6740 C   0  0  0  0  0  0  0  0  0  0  0  0
   31.7280   34.9430   17.7960 C   0  0  0  0  0  0  0  0  0  0  0  0
   32.2540   34.8790   19.2220 C   0  0  0  0  0  0  0  0  0  0  0  0
   30.3500   35.6970   18.0660 C   0  0  0  0  0  0  0  0  0  0  0  0
   29.8670   25.5550   16.9770 C   0  0  0  0  0  0  0  0  0  0  0  0
   28.3450   25.7220   17.0260 C   0  0  0  0  0  0  0  0  0  0  0  0
   27.6020   24.3980   16.9340 C   0  0  0  0  0  0  0  0  0  0  0  0
   26.1780   24.5140   17.4030 C   0  0  0  0  0  0  0  0  0  0  0  0
   26.1510   25.1020   18.8100 C   0  0  0  0  0  0  0  0  0  0  0  0
   25.2250   24.3340   19.6750 N   0  0  0  0  0  0  0  0  0  0  0  0
  1  4  1  0  0  0  0
  2  1  1  0  0  0  0
  2 31  1  0  0  0  0
  3  2  2  0  0  0  0
  5  1  1  0  0  0  0
  6 29  1  0  0  0  0
  6  5  1  1  0  0  0
  7 27  1  1  0  0  0
  7  6  1  0  0  0  0
  8  7  1  1  0  0  0
  9 14  1  6  0  0  0
  9 11  1  0  0  0  0
 10 12  1  0  0  0  0
 10  9  1  0  0  0  0
 11  8  1  0  0  0  0
 12 20  1  6  0  0  0
 12 13  1  0  0  0  0
 13 22  1  1  0  0  0
 13  8  1  0  0  0  0
 15 14  1  0  0  0  0
 16  9  1  0  0  0  0
 16 17  2  0  0  0  0
 18 16  1  0  0  0  0
 19 18  1  0  0  0  0
 21 20  1  0  0  0  0
 22 24  1  0  0  0  0
 23 22  1  0  0  0  0
 23 25  1  0  0  0  0
 26 23  2  0  0  0  0
 28 27  1  0  0  0  0
 30 29  1  0  0  0  0
 32 31  1  0  0  0  0
 32 33  1  0  0  0  0
 33 35  1  0  0  0  0
 33 34  2  0  0  0  0
 34 36  1  0  0  0  0
 35 37  2  0  0  0  0
 36 38  1  0  0  0  0
 37 36  1  0  0  0  0
 38 39  1  0  0  0  0
 39 44  1  0  0  0  0
 39 41  2  0  0  0  0
 40 38  2  0  0  0  0
 40 42  1  0  0  0  0
 42 43  2  0  0  0  0
 43 41  1  0  0  0  0
 44 46  1  0  0  0  0
 44 45  1  0  0  0  0
 47 48  1  0  0  0  0
 49 48  1  0  0  0  0
 49 50  1  0  0  0  0
 50 51  1  0  0  0  0
 51 52  1  0  0  0  0
M  END
>  <REMARK>
 VINA RESULT:    -4.220      4.332      6.333
 INTER + INTRA:         -14.787
 INTER:                  -9.549
 INTRA:                  -5.238
 UNBOUND:                -7.237
 SMILES CC(=O)N[C@@H]1[C@@H](O)C[C@](O)(C(=O)O)O[C@H]1C(O)[C@H](O)CNC(=O)OCc1cn(-c2ccccc2C(C)C)nn1
 SMILES IDX 21 1 22 2 23 3 20 5 18 6 16 7 15 8 9 9 8 10 14 11 6 12 5 13
 SMILES IDX 10 14 11 16 12 17 13 18 7 20 4 22 2 23 1 25 3 26 17 27 19 29
 SMILES IDX 24 31 25 32 26 33 27 34 39 35 28 36 38 37 29 38 34 39 30 40
 SMILES IDX 33 41 31 42 32 43 35 44 36 45 37 46
 H PARENT 21 4 10 15 13 19 7 21 4 24 17 28 19 30
 Flexibility Score: inf
  4 active torsions:
  status: ('A' for Active; 'I' for Inactive)
    1  A    between atoms: CA   and  CB  
    2  A    between atoms: CB   and  CG  
    3  A    between atoms: CG   and  CD  
    4  A    between atoms: CD   and  CE  

>  <TORSDO>
F 16

>  <BEGIN_>
RES LYS A 131

$$$$
ligand_4_pose_9_2HRL.pdbqt
 OpenBabel07062320523D

  6  5  0  0  0  0  0  0  0  0999 V2000
   33.1930   34.6630    9.2900 C   0  0  0  0  0  0  0  0  0  0  0  0
   32.0600   35.3600   10.0340 C   0  0  0  0  0  0  0  0  0  0  0  0
   30.7340   34.6540    9.9110 C   0  0  0  0  0  0  0  0  0  0  0  0
   30.3340   34.5150    8.4500 C   0  0  0  0  0  0  0  0  0  0  0  0
   28.8240   34.5010    8.3100 C   0  0  0  0  0  0  0  0  0  0  0  0
   28.1880   33.7610    9.4340 N   0  0  0  0  0  0  0  0  0  0  0  0
  1  2  1  0  0  0  0
  3  2  1  0  0  0  0
  4  3  1  0  0  0  0
  5  4  1  0  0  0  0
  5  6  1  0  0  0  0
M  END
>  <EGIN_R>
ES LYS A 135

>  <REMARK>
  4 active torsions:
  status: ('A' for Active; 'I' for Inactive)
    5  A    between atoms: CA   and  CB  
    6  A    between atoms: CB   and  CG  
    7  A    between atoms: CG   and  CD  
    8  A    between atoms: CD   and  CE  

$$$$
