ligand_46_pose_12_2HRL.pdbqt
 OpenBabel07062320523D

 50 51  0  0  1  0  0  0  0  0999 V2000
   28.7510   31.2050   15.6300 N   0  0  0  0  0  0  0  0  0  0  0  0
   27.5920   30.5390   16.0750 C   0  0  0  0  0  0  0  0  0  0  0  0
   27.5860   29.8210   17.0880 O   0  0  0  0  0  0  0  0  0  0  0  0
   28.6320   31.7890   14.7610 H   0  0  0  0  0  0  0  0  0  0  0  0
   30.0140   31.1100   16.2940 C   0  0  0  0  0  0  0  0  0  0  0  0
   30.8030   32.3810   16.0770 C   0  0  2  0  0  0  0  0  0  0  0  0
   29.9010   33.5770   15.9650 C   0  0  2  0  0  0  0  0  0  0  0  0
   30.6440   34.8730   15.7460 C   0  0  2  0  0  0  0  0  0  0  0  0
   32.3150   35.5210   14.2460 C   0  0  2  0  0  0  0  0  0  0  0  0
   32.4810   36.7460   15.1590 C   0  0  0  0  0  0  0  0  0  0  0  0
   31.0550   35.0490   14.4600 O   0  0  0  0  0  0  0  0  0  0  0  0
   32.6830   36.1340   16.5440 C   0  0  1  0  0  0  0  0  0  0  0  0
   31.6530   35.0640   16.8230 C   0  0  1  0  0  0  0  0  0  0  0  0
   33.3370   34.6190   14.4570 O   0  0  0  0  0  0  0  0  0  0  0  0
   32.9820   33.7120   14.3460 H   0  0  0  0  0  0  0  0  0  0  0  0
   32.3580   36.0450   12.8340 C   0  0  0  0  0  0  0  0  0  0  0  0
   31.5460   36.9020   12.4290 O   0  0  0  0  0  0  0  0  0  0  0  0
   33.3120   35.5760   11.9510 O   0  0  0  0  0  0  0  0  0  0  0  0
   33.0910   35.5560   10.9690 H   0  0  0  0  0  0  0  0  0  0  0  0
   33.9790   35.6160   16.5420 O   0  0  0  0  0  0  0  0  0  0  0  0
   34.0430   34.9090   17.2200 H   0  0  0  0  0  0  0  0  0  0  0  0
   30.9060   35.4130   18.0450 N   0  0  0  0  0  0  0  0  0  0  0  0
   31.2460   34.9010   19.3210 C   0  0  0  0  0  0  0  0  0  0  0  0
   30.0780   36.0730   17.9730 H   0  0  0  0  0  0  0  0  0  0  0  0
   30.5260   35.2230   20.5760 C   0  0  0  0  0  0  0  0  0  0  0  0
   32.2280   34.1200   19.3990 O   0  0  0  0  0  0  0  0  0  0  0  0
   29.0630   33.6200   17.0620 O   0  0  0  0  0  0  0  0  0  0  0  0
   29.2270   34.4650   17.5450 H   0  0  0  0  0  0  0  0  0  0  0  0
   31.5500   32.1680   14.9180 O   0  0  0  0  0  0  0  0  0  0  0  0
   32.0370   32.9690   14.6230 H   0  0  0  0  0  0  0  0  0  0  0  0
   26.3900   30.6690   15.3790 O   0  0  0  0  0  0  0  0  0  0  0  0
   25.4990   31.7040   15.7180 C   0  0  0  0  0  0  0  0  0  0  0  0
   25.3700   32.6960   14.6240 C   0  0  0  0  0  0  0  0  0  0  0  0
   26.2920   33.6490   14.2850 C   0  0  0  0  0  0  0  0  0  0  0  0
   24.3350   32.8270   13.7890 N   0  0  0  0  0  0  0  0  0  0  0  0
   25.7890   34.3390   13.2480 N   0  0  0  0  0  0  0  0  0  0  0  0
   24.5920   33.8140   12.9670 N   0  0  0  0  0  0  0  0  0  0  0  0
   26.3730   35.4430   12.5280 C   0  0  0  0  0  0  0  0  0  0  0  0
   26.4770   35.1410   11.0750 C   0  0  0  0  0  0  0  0  0  0  0  0
   27.3780   34.1960   10.5970 C   0  0  0  0  0  0  0  0  0  0  0  0
   25.6950   35.7760   10.1430 C   0  0  0  0  0  0  0  0  0  0  0  0
   27.4690   33.9230    9.2550 C   0  0  0  0  0  0  0  0  0  0  0  0
   25.7790   35.5070    8.7880 C   0  0  0  0  0  0  0  0  0  0  0  0
   26.6760   34.5690    8.3310 C   0  0  0  0  0  0  0  0  0  0  0  0
   29.8670   25.5550   16.9770 C   0  0  0  0  0  0  0  0  0  0  0  0
   28.3450   25.7220   17.0260 C   0  0  0  0  0  0  0  0  0  0  0  0
   27.6010   24.4010   16.8990 C   0  0  0  0  0  0  0  0  0  0  0  0
   26.5560   24.2350   17.9670 C   0  0  0  0  0  0  0  0  0  0  0  0
   25.1690   24.3300   17.3400 C   0  0  0  0  0  0  0  0  0  0  0  0
   24.5320   25.6240   17.6800 N   0  0  0  0  0  0  0  0  0  0  0  0
  1  2  1  0  0  0  0
  1  5  1  0  0  0  0
  2  3  2  0  0  0  0
  4  1  1  0  0  0  0
  6  5  1  6  0  0  0
  7  6  1  0  0  0  0
  7 27  1  1  0  0  0
  8  7  1  6  0  0  0
  8 13  1  0  0  0  0
  9 16  1  6  0  0  0
  9 14  1  0  0  0  0
  9 11  1  0  0  0  0
  9 10  1  0  0  0  0
 10 12  1  0  0  0  0
 11  8  1  0  0  0  0
 12 20  1  6  0  0  0
 12 13  1  0  0  0  0
 13 22  1  1  0  0  0
 15 14  1  0  0  0  0
 17 16  2  0  0  0  0
 18 16  1  0  0  0  0
 19 18  1  0  0  0  0
 20 21  1  0  0  0  0
 22 23  1  0  0  0  0
 23 26  2  0  0  0  0
 23 25  1  0  0  0  0
 24 22  1  0  0  0  0
 27 28  1  0  0  0  0
 29  6  1  0  0  0  0
 30 29  1  0  0  0  0
 31 32  1  0  0  0  0
 31  2  1  0  0  0  0
 33 32  1  0  0  0  0
 34 33  2  0  0  0  0
 35 33  1  0  0  0  0
 36 34  1  0  0  0  0
 37 36  1  0  0  0  0
 37 35  2  0  0  0  0
 38 36  1  0  0  0  0
 39 38  1  0  0  0  0
 40 39  1  0  0  0  0
 41 39  2  0  0  0  0
 42 40  2  0  0  0  0
 43 41  1  0  0  0  0
 44 43  2  0  0  0  0
 44 42  1  0  0  0  0
 45 46  1  0  0  0  0
 47 46  1  0  0  0  0
 47 48  1  0  0  0  0
 49 50  1  0  0  0  0
 49 48  1  0  0  0  0
M  END
>  <REMARK>
 VINA RESULT:    -5.287      6.116     10.471
 INTER + INTRA:         -14.749
 INTER:                  -9.873
 INTRA:                  -4.876
 UNBOUND:                -5.290
 SMILES CC(=O)N[C@@H]1[C@@H](O)C[C@](O)(C(=O)O)O[C@H]1C(O)[C@H](O)CNC(=O)OCc1cn(Cc2ccccc2)nn1
 SMILES IDX 21 1 22 2 23 3 20 5 18 6 16 7 15 8 9 9 8 10 14 11 6 12 5 13
 SMILES IDX 10 14 11 16 12 17 13 18 7 20 4 22 2 23 1 25 3 26 17 27 19 29
 SMILES IDX 24 31 25 32 26 33 27 34 37 35 28 36 36 37 29 38 30 39 31 40
 SMILES IDX 35 41 32 42 34 43 33 44
 H PARENT 21 4 10 15 13 19 7 21 4 24 17 28 19 30
 Flexibility Score: inf
  4 active torsions:
  status: ('A' for Active; 'I' for Inactive)
    1  A    between atoms: CA   and  CB  
    2  A    between atoms: CB   and  CG  
    3  A    between atoms: CG   and  CD  
    4  A    between atoms: CD   and  CE  

>  <TORSDO>
F 16

>  <BEGIN_>
RES LYS A 131

$$$$
ligand_46_pose_12_2HRL.pdbqt
 OpenBabel07062320523D

  6  5  0  0  0  0  0  0  0  0999 V2000
   33.1930   34.6630    9.2900 C   0  0  0  0  0  0  0  0  0  0  0  0
   32.0600   35.3600   10.0340 C   0  0  0  0  0  0  0  0  0  0  0  0
   30.7530   35.3540    9.2840 C   0  0  0  0  0  0  0  0  0  0  0  0
   30.1650   36.7550    9.2190 C   0  0  0  0  0  0  0  0  0  0  0  0
   29.3250   36.9230    7.9670 C   0  0  0  0  0  0  0  0  0  0  0  0
   29.4800   35.7550    7.0570 N   0  0  0  0  0  0  0  0  0  0  0  0
  1  2  1  0  0  0  0
  3  2  1  0  0  0  0
  4  3  1  0  0  0  0
  5  4  1  0  0  0  0
  6  5  1  0  0  0  0
M  END
>  <EGIN_R>
ES LYS A 135

>  <REMARK>
  4 active torsions:
  status: ('A' for Active; 'I' for Inactive)
    5  A    between atoms: CA   and  CB  
    6  A    between atoms: CB   and  CG  
    7  A    between atoms: CG   and  CD  
    8  A    between atoms: CD   and  CE  

$$$$
