ligand_11_pose_8_2HRL.pdbqt
 OpenBabel07062320523D

 54 54  0  0  1  0  0  0  0  0999 V2000
   29.0710   35.1870   19.2960 O   0  0  0  0  0  0  0  0  0  0  0  0
   29.5460   36.4360   18.8740 C   0  0  0  0  0  0  0  0  0  0  0  0
   30.7510   36.5900   18.1750 N   0  0  0  0  0  0  0  0  0  0  0  0
   31.2960   35.6820   17.9920 H   0  0  0  0  0  0  0  0  0  0  0  0
   28.8420   37.4200   19.1510 O   0  0  0  0  0  0  0  0  0  0  0  0
   31.3220   37.8130   17.6890 C   0  0  0  0  0  0  0  0  0  0  0  0
   30.7170   38.2300   16.4060 C   0  0  2  0  0  0  0  0  0  0  0  0
   31.3690   37.5850   15.1970 C   0  0  1  0  0  0  0  0  0  0  0  0
   30.4340   36.5370   14.5860 C   0  0  2  0  0  0  0  0  0  0  0  0
   31.2420   34.4300   15.2080 C   0  0  2  0  0  0  0  0  0  0  0  0
   32.2500   34.6430   14.1150 C   0  0  0  0  0  0  0  0  0  0  0  0
   30.3130   35.4160   15.3380 O   0  0  0  0  0  0  0  0  0  0  0  0
   31.7260   35.2590   12.8680 C   0  0  1  0  0  0  0  0  0  0  0  0
   30.7160   36.3390   13.1260 C   0  0  1  0  0  0  0  0  0  0  0  0
   31.9690   34.3680   16.3970 O   0  0  0  0  0  0  0  0  0  0  0  0
   32.0950   33.4470   16.7030 H   0  0  0  0  0  0  0  0  0  0  0  0
   30.5750   33.1160   15.0260 C   0  0  0  0  0  0  0  0  0  0  0  0
   29.3400   33.0620   14.8200 O   0  0  0  0  0  0  0  0  0  0  0  0
   31.2790   31.9160   15.0770 O   0  0  0  0  0  0  0  0  0  0  0  0
   31.7140   31.6150   14.2040 H   0  0  0  0  0  0  0  0  0  0  0  0
   32.8040   35.8060   12.1740 O   0  0  0  0  0  0  0  0  0  0  0  0
   33.5680   35.9880   12.7820 H   0  0  0  0  0  0  0  0  0  0  0  0
   29.4690   36.1070   12.4570 N   0  0  0  0  0  0  0  0  0  0  0  0
   28.8200   37.1780   11.7920 C   0  0  0  0  0  0  0  0  0  0  0  0
   29.0320   35.1400   12.4600 H   0  0  0  0  0  0  0  0  0  0  0  0
   27.5350   36.9430   11.1030 C   0  0  0  0  0  0  0  0  0  0  0  0
   29.2990   38.3440   11.7630 O   0  0  0  0  0  0  0  0  0  0  0  0
   31.6400   38.5580   14.2540 O   0  0  0  0  0  0  0  0  0  0  0  0
   31.0280   38.4340   13.4860 H   0  0  0  0  0  0  0  0  0  0  0  0
   30.5770   39.5740   16.2900 O   0  0  0  0  0  0  0  0  0  0  0  0
   29.6980   39.8860   15.9760 H   0  0  0  0  0  0  0  0  0  0  0  0
   29.9970   34.1860   19.7090 C   0  0  0  0  0  0  0  0  0  0  0  0
   29.8260   32.9410   18.9720 C   0  0  0  0  0  0  0  0  0  0  0  0
   28.6750   32.2410   18.7340 C   0  0  0  0  0  0  0  0  0  0  0  0
   30.7970   32.2350   18.3730 N   0  0  0  0  0  0  0  0  0  0  0  0
   28.9480   31.1460   18.0110 N   0  0  0  0  0  0  0  0  0  0  0  0
   30.2510   31.1720   17.8080 N   0  0  0  0  0  0  0  0  0  0  0  0
   28.0860   30.0910   17.5080 C   0  0  1  0  0  0  0  0  0  0  0  0
   26.9470   29.8660   18.4330 C   0  0  0  0  0  0  0  0  0  0  0  0
   26.7520   28.4760   18.9100 C   0  0  0  0  0  0  0  0  0  0  0  0
   25.4760   27.8870   18.5120 C   0  0  0  0  0  0  0  0  0  0  0  0
   24.9650   28.1150   17.3610 O   0  0  0  0  0  0  0  0  0  0  0  0
   24.7850   27.0560   19.3980 O   0  0  0  0  0  0  0  0  0  0  0  0
   24.5790   26.1170   19.0870 H   0  0  0  0  0  0  0  0  0  0  0  0
   27.7880   30.2050   16.0910 C   0  0  0  0  0  0  0  0  0  0  0  0
   26.6780   30.3840   15.5940 O   0  0  0  0  0  0  0  0  0  0  0  0
   28.8760   30.0920   15.2040 O   0  0  0  0  0  0  0  0  0  0  0  0
   29.1250   29.1810   14.8600 H   0  0  0  0  0  0  0  0  0  0  0  0
   29.8670   25.5550   16.9770 C   0  0  0  0  0  0  0  0  0  0  0  0
   28.3450   25.7220   17.0260 C   0  0  0  0  0  0  0  0  0  0  0  0
   27.6020   24.3980   16.9290 C   0  0  0  0  0  0  0  0  0  0  0  0
   26.5130   24.2830   17.9600 C   0  0  0  0  0  0  0  0  0  0  0  0
   25.2750   23.6600   17.3250 C   0  0  0  0  0  0  0  0  0  0  0  0
   24.3350   24.7150   16.8760 N   0  0  0  0  0  0  0  0  0  0  0  0
  1 32  1  0  0  0  0
  2  5  2  0  0  0  0
  2  1  1  0  0  0  0
  3  2  1  0  0  0  0
  4  3  1  0  0  0  0
  6  3  1  0  0  0  0
  7  6  1  1  0  0  0
  8 28  1  6  0  0  0
  8  7  1  0  0  0  0
  9  8  1  1  0  0  0
  9 12  1  0  0  0  0
 10 17  1  6  0  0  0
 10 12  1  0  0  0  0
 10 15  1  0  0  0  0
 11 10  1  0  0  0  0
 13 21  1  1  0  0  0
 13 14  1  0  0  0  0
 13 11  1  0  0  0  0
 14 23  1  6  0  0  0
 14  9  1  0  0  0  0
 15 16  1  0  0  0  0
 17 19  1  0  0  0  0
 18 17  2  0  0  0  0
 20 19  1  0  0  0  0
 21 22  1  0  0  0  0
 23 25  1  0  0  0  0
 24 23  1  0  0  0  0
 26 24  1  0  0  0  0
 27 24  2  0  0  0  0
 29 28  1  0  0  0  0
 30  7  1  0  0  0  0
 31 30  1  0  0  0  0
 33 32  1  0  0  0  0
 34 33  2  0  0  0  0
 35 33  1  0  0  0  0
 36 34  1  0  0  0  0
 37 36  1  0  0  0  0
 37 35  2  0  0  0  0
 38 36  1  0  0  0  0
 38 39  1  1  0  0  0
 39 40  1  0  0  0  0
 41 40  1  0  0  0  0
 41 43  1  0  0  0  0
 42 41  2  0  0  0  0
 44 43  1  0  0  0  0
 45 38  1  0  0  0  0
 46 45  2  0  0  0  0
 47 45  1  0  0  0  0
 48 47  1  0  0  0  0
 49 50  1  0  0  0  0
 51 50  1  0  0  0  0
 51 52  1  0  0  0  0
 53 52  1  0  0  0  0
 54 53  1  0  0  0  0
M  END
>  <REMARK>
 VINA RESULT:    -3.995      4.988      9.644
 INTER + INTRA:         -15.520
 INTER:                  -8.152
 INTRA:                  -7.367
 UNBOUND:                -7.438
 SMILES CC(=O)N[C@@H]1[C@@H](O)C[C@](O)(C(=O)O)O[C@H]1C(O)[C@H](O)CNC(=O)OCc1cn([C@@H](CCC(=O)O)C(=O)O)nn1
 SMILES IDX 24 1 22 2 21 3 23 5 20 6 18 7 16 8 15 9 9 10 8 11 14 12 6 13
 SMILES IDX 5 14 10 15 11 17 12 18 13 19 7 21 4 23 2 24 1 26 3 27 17 28
 SMILES IDX 19 30 25 32 26 33 27 34 39 35 28 36 38 37 29 38 30 39 31 40
 SMILES IDX 32 41 33 42 34 43 35 45 36 46 37 47
 H PARENT 21 4 10 16 13 20 7 22 4 25 17 29 19 31 34 44 37 48
 Flexibility Score: inf
  4 active torsions:
  status: ('A' for Active; 'I' for Inactive)
    1  A    between atoms: CA   and  CB  
    2  A    between atoms: CB   and  CG  
    3  A    between atoms: CG   and  CD  
    4  A    between atoms: CD   and  CE  

>  <TORSDO>
F 21

>  <BEGIN_>
RES LYS A 131

$$$$
ligand_11_pose_8_2HRL.pdbqt
 OpenBabel07062320523D

  6  5  0  0  0  0  0  0  0  0999 V2000
   33.1930   34.6630    9.2900 C   0  0  0  0  0  0  0  0  0  0  0  0
   32.0600   35.3600   10.0340 C   0  0  0  0  0  0  0  0  0  0  0  0
   30.8110   35.5300    9.2080 C   0  0  0  0  0  0  0  0  0  0  0  0
   30.0720   34.2070    9.0740 C   0  0  0  0  0  0  0  0  0  0  0  0
   28.6510   34.4370    8.5960 C   0  0  0  0  0  0  0  0  0  0  0  0
   27.6760   33.6830    9.4320 N   0  0  0  0  0  0  0  0  0  0  0  0
  1  2  1  0  0  0  0
  3  2  1  0  0  0  0
  4  3  1  0  0  0  0
  5  4  1  0  0  0  0
  5  6  1  0  0  0  0
M  END
>  <EGIN_R>
ES LYS A 135

>  <REMARK>
  4 active torsions:
  status: ('A' for Active; 'I' for Inactive)
    5  A    between atoms: CA   and  CB  
    6  A    between atoms: CB   and  CG  
    7  A    between atoms: CG   and  CD  
    8  A    between atoms: CD   and  CE  

$$$$
