ligand_42_pose_16_2HRL.pdbqt
 OpenBabel07062320523D

 52 54  0  0  1  0  0  0  0  0999 V2000
   23.6910   37.8160    9.9230 C   0  0  0  0  0  0  0  0  0  0  0  0
   24.8890   37.1430    9.3410 C   0  0  2  0  0  0  0  0  0  0  0  0
   25.2410   37.7370    7.9670 C   0  0  1  0  0  0  0  0  0  0  0  0
   26.4030   36.9750    7.4400 C   0  0  2  0  0  0  0  0  0  0  0  0
   28.3340   35.8820    7.9630 C   0  0  2  0  0  0  0  0  0  0  0  0
   28.2440   35.5840    6.4820 C   0  0  0  0  0  0  0  0  0  0  0  0
   27.2350   36.5340    8.4640 O   0  0  0  0  0  0  0  0  0  0  0  0
   28.0260   36.8390    5.6570 C   0  0  1  0  0  0  0  0  0  0  0  0
   27.2820   37.8100    6.5100 C   0  0  1  0  0  0  0  0  0  0  0  0
   29.5190   36.5980    8.1460 O   0  0  0  0  0  0  0  0  0  0  0  0
   30.2010   35.9280    8.4210 H   0  0  0  0  0  0  0  0  0  0  0  0
   28.4320   34.5760    8.6550 C   0  0  0  0  0  0  0  0  0  0  0  0
   29.5460   34.0090    8.7410 O   0  0  0  0  0  0  0  0  0  0  0  0
   27.3360   33.9430    9.2180 O   0  0  0  0  0  0  0  0  0  0  0  0
   27.3740   33.0160    9.6260 H   0  0  0  0  0  0  0  0  0  0  0  0
   29.3160   37.3100    5.3300 O   0  0  0  0  0  0  0  0  0  0  0  0
   29.7430   37.7220    6.1030 H   0  0  0  0  0  0  0  0  0  0  0  0
   26.5700   38.8230    5.8190 N   0  0  0  0  0  0  0  0  0  0  0  0
   27.1100   40.0130    5.2630 C   0  0  0  0  0  0  0  0  0  0  0  0
   25.5420   38.6920    5.6960 H   0  0  0  0  0  0  0  0  0  0  0  0
   26.2680   41.0190    4.5500 C   0  0  0  0  0  0  0  0  0  0  0  0
   28.3410   40.1980    5.3930 O   0  0  0  0  0  0  0  0  0  0  0  0
   24.1320   37.6270    7.1720 O   0  0  0  0  0  0  0  0  0  0  0  0
   24.1160   38.0980    6.3330 H   0  0  0  0  0  0  0  0  0  0  0  0
   24.6950   35.7970    9.1800 O   0  0  0  0  0  0  0  0  0  0  0  0
   25.4310   35.2900    8.7760 H   0  0  0  0  0  0  0  0  0  0  0  0
   22.5640   36.9520    9.9800 N   0  0  0  0  0  0  0  0  0  0  0  0
   21.4270   37.1040    9.1690 C   0  0  0  0  0  0  0  0  0  0  0  0
   22.5450   36.1350   10.6630 H   0  0  0  0  0  0  0  0  0  0  0  0
   21.2620   38.0000    8.3260 O   0  0  0  0  0  0  0  0  0  0  0  0
   20.3750   36.1790    9.3020 O   0  0  0  0  0  0  0  0  0  0  0  0
   19.2160   36.3500    8.5450 C   0  0  0  0  0  0  0  0  0  0  0  0
   18.3590   35.1440    8.6870 C   0  0  0  0  0  0  0  0  0  0  0  0
   18.4040   34.0020    7.8940 C   0  0  0  0  0  0  0  0  0  0  0  0
   17.3890   34.9060    9.5860 N   0  0  0  0  0  0  0  0  0  0  0  0
   17.4810   33.1230    8.3210 N   0  0  0  0  0  0  0  0  0  0  0  0
   16.8900   33.7080    9.3470 N   0  0  0  0  0  0  0  0  0  0  0  0
   17.2260   31.8390    7.7620 C   0  0  0  0  0  0  0  0  0  0  0  0
   17.1270   30.7280    8.5740 C   0  0  0  0  0  0  0  0  0  0  0  0
   17.0690   31.6370    6.4060 C   0  0  0  0  0  0  0  0  0  0  0  0
   16.8770   29.4620    8.0470 C   0  0  0  0  0  0  0  0  0  0  0  0
   16.8190   30.3800    5.8570 C   0  0  0  0  0  0  0  0  0  0  0  0
   16.7240   29.2870    6.6890 C   0  0  0  0  0  0  0  0  0  0  0  0
   16.6260   29.9260    4.5550 O   0  0  0  0  0  0  0  0  0  0  0  0
   16.4720   28.1770    5.8630 O   0  0  0  0  0  0  0  0  0  0  0  0
   16.8320   28.5250    4.5220 C   0  0  0  0  0  0  0  0  0  0  0  0
   29.8670   25.5550   16.9770 C   0  0  0  0  0  0  0  0  0  0  0  0
   28.3450   25.7220   17.0260 C   0  0  0  0  0  0  0  0  0  0  0  0
   27.6020   24.3990   16.9200 C   0  0  0  0  0  0  0  0  0  0  0  0
   26.6320   24.2020   18.0530 C   0  0  0  0  0  0  0  0  0  0  0  0
   25.9220   25.5190   18.3500 C   0  0  0  0  0  0  0  0  0  0  0  0
   25.8930   25.7750   19.8090 N   0  0  0  0  0  0  0  0  0  0  0  0
  1 27  1  0  0  0  0
  2  1  1  6  0  0  0
  3 23  1  6  0  0  0
  3  2  1  0  0  0  0
  4  3  1  1  0  0  0
  4  7  1  0  0  0  0
  5 10  1  1  0  0  0
  5  7  1  0  0  0  0
  5 12  1  0  0  0  0
  6  5  1  0  0  0  0
  8 16  1  1  0  0  0
  8  6  1  0  0  0  0
  8  9  1  0  0  0  0
  9 18  1  6  0  0  0
  9  4  1  0  0  0  0
 10 11  1  0  0  0  0
 12 13  2  0  0  0  0
 12 14  1  0  0  0  0
 14 15  1  0  0  0  0
 16 17  1  0  0  0  0
 19 22  2  0  0  0  0
 19 18  1  0  0  0  0
 20 18  1  0  0  0  0
 21 19  1  0  0  0  0
 24 23  1  0  0  0  0
 25  2  1  0  0  0  0
 26 25  1  0  0  0  0
 27 29  1  0  0  0  0
 28 31  1  0  0  0  0
 28 27  1  0  0  0  0
 30 28  2  0  0  0  0
 32 33  1  0  0  0  0
 32 31  1  0  0  0  0
 33 35  1  0  0  0  0
 34 36  1  0  0  0  0
 34 33  2  0  0  0  0
 36 37  1  0  0  0  0
 37 35  2  0  0  0  0
 38 36  1  0  0  0  0
 38 39  2  0  0  0  0
 40 38  1  0  0  0  0
 41 39  1  0  0  0  0
 42 40  2  0  0  0  0
 42 43  1  0  0  0  0
 43 41  2  0  0  0  0
 44 42  1  0  0  0  0
 45 43  1  0  0  0  0
 46 44  1  0  0  0  0
 46 45  1  0  0  0  0
 47 48  1  0  0  0  0
 49 48  1  0  0  0  0
 49 50  1  0  0  0  0
 50 51  1  0  0  0  0
 51 52  1  0  0  0  0
M  END
>  <REMARK>
 VINA RESULT:    -5.395      9.650     15.674
 INTER + INTRA:         -13.886
 INTER:                 -10.046
 INTRA:                  -3.840
 UNBOUND:                -4.548
 SMILES CC(=O)N[C@@H]1[C@@H](O)C[C@](O)(C(=O)O)O[C@H]1C(O)[C@H](O)CNC(=O)OCc1cn(-c2ccc3c(c2)OCO3)nn1
 SMILES IDX 20 1 18 2 16 3 15 4 9 5 8 6 14 7 6 8 5 9 10 10 11 12 12 13
 SMILES IDX 13 14 7 16 4 18 2 19 1 21 3 22 17 23 19 25 21 27 22 28 23 30
 SMILES IDX 24 31 25 32 26 33 27 34 39 35 28 36 38 37 29 38 30 39 34 40
 SMILES IDX 31 41 33 42 32 43 35 44 37 45 36 46
 H PARENT 10 11 13 15 7 17 4 20 17 24 19 26 21 29
 Flexibility Score: inf
  4 active torsions:
  status: ('A' for Active; 'I' for Inactive)
    1  A    between atoms: CA   and  CB  
    2  A    between atoms: CB   and  CG  
    3  A    between atoms: CG   and  CD  
    4  A    between atoms: CD   and  CE  

>  <TORSDO>
F 15

>  <BEGIN_>
RES LYS A 131

$$$$
ligand_42_pose_16_2HRL.pdbqt
 OpenBabel07062320523D

  6  5  0  0  0  0  0  0  0  0999 V2000
   33.1930   34.6630    9.2900 C   0  0  0  0  0  0  0  0  0  0  0  0
   32.0600   35.3600   10.0340 C   0  0  0  0  0  0  0  0  0  0  0  0
   32.4220   35.7670   11.4390 C   0  0  0  0  0  0  0  0  0  0  0  0
   31.8690   37.1480   11.7570 C   0  0  0  0  0  0  0  0  0  0  0  0
   31.8510   38.0140   10.5120 C   0  0  0  0  0  0  0  0  0  0  0  0
   31.5790   39.4380   10.8540 N   0  0  0  0  0  0  0  0  0  0  0  0
  1  2  1  0  0  0  0
  2  3  1  0  0  0  0
  3  4  1  0  0  0  0
  5  6  1  0  0  0  0
  5  4  1  0  0  0  0
M  END
>  <EGIN_R>
ES LYS A 135

>  <REMARK>
  4 active torsions:
  status: ('A' for Active; 'I' for Inactive)
    5  A    between atoms: CA   and  CB  
    6  A    between atoms: CB   and  CG  
    7  A    between atoms: CG   and  CD  
    8  A    between atoms: CD   and  CE  

$$$$
