ligand_56_pose_2_2HRL.pdbqt
 OpenBabel07062320523D

 49 50  0  0  1  0  0  0  0  0999 V2000
   34.2160   35.9140   16.8620 C   0  0  0  0  0  0  0  0  0  0  0  0
   35.3770   36.7560   16.4680 C   0  0  2  0  0  0  0  0  0  0  0  0
   36.7110   36.0880   16.7610 C   0  0  2  0  0  0  0  0  0  0  0  0
   37.4110   35.5970   15.5460 C   0  0  2  0  0  0  0  0  0  0  0  0
   37.4850   33.9240   13.9590 C   0  0  2  0  0  0  0  0  0  0  0  0
   38.7090   34.6600   13.4730 C   0  0  0  0  0  0  0  0  0  0  0  0
   36.7300   34.6390   14.8480 O   0  0  0  0  0  0  0  0  0  0  0  0
   39.5970   35.1180   14.5970 C   0  0  1  0  0  0  0  0  0  0  0  0
   38.7870   35.0430   15.8770 C   0  0  1  0  0  0  0  0  0  0  0  0
   37.8030   32.6590   14.4550 O   0  0  0  0  0  0  0  0  0  0  0  0
   38.0310   32.6880   15.4230 H   0  0  0  0  0  0  0  0  0  0  0  0
   36.6270   33.6890   12.7450 C   0  0  0  0  0  0  0  0  0  0  0  0
   37.0890   33.4310   11.6230 O   0  0  0  0  0  0  0  0  0  0  0  0
   35.2530   33.7790   12.9500 O   0  0  0  0  0  0  0  0  0  0  0  0
   34.6440   34.1110   12.2070 H   0  0  0  0  0  0  0  0  0  0  0  0
   40.7470   34.3370   14.7060 O   0  0  0  0  0  0  0  0  0  0  0  0
   41.2820   34.4210   13.8800 H   0  0  0  0  0  0  0  0  0  0  0  0
   39.4200   35.7660   16.9550 N   0  0  0  0  0  0  0  0  0  0  0  0
   40.2090   35.0870   17.9230 C   0  0  0  0  0  0  0  0  0  0  0  0
   39.3180   36.7920   17.0550 H   0  0  0  0  0  0  0  0  0  0  0  0
   40.8800   35.8050   19.0530 C   0  0  0  0  0  0  0  0  0  0  0  0
   40.3490   33.8410   17.8250 O   0  0  0  0  0  0  0  0  0  0  0  0
   36.6030   35.2000   17.8000 O   0  0  0  0  0  0  0  0  0  0  0  0
   35.7750   34.6610   17.6830 H   0  0  0  0  0  0  0  0  0  0  0  0
   35.4140   37.9740   17.1230 O   0  0  0  0  0  0  0  0  0  0  0  0
   35.5730   37.9010   18.0910 H   0  0  0  0  0  0  0  0  0  0  0  0
   33.6920   35.1880   15.7410 N   0  0  0  0  0  0  0  0  0  0  0  0
   32.8400   35.6550   14.7320 C   0  0  0  0  0  0  0  0  0  0  0  0
   33.9780   34.1530   15.6440 H   0  0  0  0  0  0  0  0  0  0  0  0
   32.4340   36.8170   14.7320 O   0  0  0  0  0  0  0  0  0  0  0  0
   32.4030   34.8380   13.6710 O   0  0  0  0  0  0  0  0  0  0  0  0
   31.0100   34.5240   13.5610 C   0  0  0  0  0  0  0  0  0  0  0  0
   30.6360   33.4500   14.4860 C   0  0  0  0  0  0  0  0  0  0  0  0
   29.3860   32.9950   14.8410 C   0  0  0  0  0  0  0  0  0  0  0  0
   31.5120   32.6930   15.1790 N   0  0  0  0  0  0  0  0  0  0  0  0
   29.5660   31.9890   15.7260 N   0  0  0  0  0  0  0  0  0  0  0  0
   30.8480   31.8150   15.9240 N   0  0  0  0  0  0  0  0  0  0  0  0
   28.5430   31.2190   16.3620 C   0  0  0  0  0  0  0  0  0  0  0  0
   27.3820   30.9680   15.6720 C   0  0  0  0  0  0  0  0  0  0  0  0
   28.7240   30.7400   17.6530 C   0  0  0  0  0  0  0  0  0  0  0  0
   26.4050   30.2250   16.3000 C   0  0  0  0  0  0  0  0  0  0  0  0
   27.7280   30.0070   18.2320 C   0  0  0  0  0  0  0  0  0  0  0  0
   26.5920   29.7660   17.5440 N   0  0  0  0  0  0  0  0  0  0  0  0
   29.8670   25.5550   16.9770 C   0  0  0  0  0  0  0  0  0  0  0  0
   28.3450   25.7220   17.0260 C   0  0  0  0  0  0  0  0  0  0  0  0
   27.6020   24.3990   16.9260 C   0  0  0  0  0  0  0  0  0  0  0  0
   26.4270   24.3370   17.8620 C   0  0  0  0  0  0  0  0  0  0  0  0
   26.0220   25.7520   18.2650 C   0  0  0  0  0  0  0  0  0  0  0  0
   25.8590   25.8460   19.7350 N   0  0  0  0  0  0  0  0  0  0  0  0
  2  3  1  0  0  0  0
  2  1  1  1  0  0  0
  2 25  1  0  0  0  0
  3 23  1  1  0  0  0
  4  9  1  0  0  0  0
  4  3  1  1  0  0  0
  5 12  1  6  0  0  0
  5 10  1  0  0  0  0
  5  7  1  0  0  0  0
  6  5  1  0  0  0  0
  6  8  1  0  0  0  0
  7  4  1  0  0  0  0
  8 16  1  1  0  0  0
  8  9  1  0  0  0  0
  9 18  1  1  0  0  0
 10 11  1  0  0  0  0
 12 14  1  0  0  0  0
 13 12  2  0  0  0  0
 15 14  1  0  0  0  0
 17 16  1  0  0  0  0
 18 20  1  0  0  0  0
 18 19  1  0  0  0  0
 19 21  1  0  0  0  0
 22 19  2  0  0  0  0
 24 23  1  0  0  0  0
 25 26  1  0  0  0  0
 27  1  1  0  0  0  0
 28 27  1  0  0  0  0
 29 27  1  0  0  0  0
 30 28  2  0  0  0  0
 31 28  1  0  0  0  0
 32 31  1  0  0  0  0
 32 33  1  0  0  0  0
 33 34  2  0  0  0  0
 33 35  1  0  0  0  0
 34 36  1  0  0  0  0
 35 37  2  0  0  0  0
 36 37  1  0  0  0  0
 36 38  1  0  0  0  0
 38 40  2  0  0  0  0
 39 41  2  0  0  0  0
 39 38  1  0  0  0  0
 40 42  1  0  0  0  0
 41 43  1  0  0  0  0
 43 42  2  0  0  0  0
 44 45  1  0  0  0  0
 46 45  1  0  0  0  0
 46 47  1  0  0  0  0
 47 48  1  0  0  0  0
 48 49  1  0  0  0  0
M  END
>  <REMARK>
 VINA RESULT:    -5.238      5.555      8.235
 INTER + INTRA:         -14.337
 INTER:                  -9.286
 INTRA:                  -5.051
 UNBOUND:                -5.272
 SMILES CC(=O)N[C@@H]1[C@@H](O)C[C@](O)(C(=O)O)O[C@H]1C(O)[C@H](O)CNC(=O)OCc1cn(-c2ccncc2)nn1
 SMILES IDX 20 1 18 2 16 3 15 4 9 5 8 6 14 7 6 8 5 9 10 10 11 12 12 13
 SMILES IDX 13 14 7 16 4 18 2 19 1 21 3 22 17 23 19 25 21 27 22 28 23 30
 SMILES IDX 24 31 25 32 26 33 27 34 36 35 28 36 35 37 29 38 30 39 34 40
 SMILES IDX 31 41 33 42 32 43
 H PARENT 10 11 13 15 7 17 4 20 17 24 19 26 21 29
 Flexibility Score: inf
  4 active torsions:
  status: ('A' for Active; 'I' for Inactive)
    1  A    between atoms: CA   and  CB  
    2  A    between atoms: CB   and  CG  
    3  A    between atoms: CG   and  CD  
    4  A    between atoms: CD   and  CE  

>  <TORSDO>
F 15

>  <BEGIN_>
RES LYS A 131

$$$$
ligand_56_pose_2_2HRL.pdbqt
 OpenBabel07062320523D

  6  5  0  0  0  0  0  0  0  0999 V2000
   33.1930   34.6630    9.2900 C   0  0  0  0  0  0  0  0  0  0  0  0
   32.0600   35.3600   10.0340 C   0  0  0  0  0  0  0  0  0  0  0  0
   30.7090   34.7380    9.7940 C   0  0  0  0  0  0  0  0  0  0  0  0
   30.4750   34.5200    8.3070 C   0  0  0  0  0  0  0  0  0  0  0  0
   29.0450   34.8660    7.9360 C   0  0  0  0  0  0  0  0  0  0  0  0
   28.9860   36.1300    7.1500 N   0  0  0  0  0  0  0  0  0  0  0  0
  1  2  1  0  0  0  0
  3  2  1  0  0  0  0
  4  3  1  0  0  0  0
  5  4  1  0  0  0  0
  6  5  1  0  0  0  0
M  END
>  <EGIN_R>
ES LYS A 135

>  <REMARK>
  4 active torsions:
  status: ('A' for Active; 'I' for Inactive)
    5  A    between atoms: CA   and  CB  
    6  A    between atoms: CB   and  CG  
    7  A    between atoms: CG   and  CD  
    8  A    between atoms: CD   and  CE  

$$$$
