ligand_0_pose_12_2HRL.pdbqt
 OpenBabel07062320523D

 54 55  0  0  1  0  0  0  0  0999 V2000
   33.8570   37.4250   19.0980 N   0  0  0  0  0  0  0  0  0  0  0  0
   34.3520   36.2220   19.6650 C   0  0  0  0  0  0  0  0  0  0  0  0
   33.7060   35.1700   19.5100 O   0  0  0  0  0  0  0  0  0  0  0  0
   34.4560   38.2840   19.2680 H   0  0  0  0  0  0  0  0  0  0  0  0
   32.6370   37.5370   18.3380 C   0  0  0  0  0  0  0  0  0  0  0  0
   32.8900   37.6350   16.8430 C   0  0  2  0  0  0  0  0  0  0  0  0
   32.8710   36.2890   16.1820 C   0  0  1  0  0  0  0  0  0  0  0  0
   32.2830   36.2730   14.8230 C   0  0  2  0  0  0  0  0  0  0  0  0
   30.8670   37.6050   13.5210 C   0  0  2  0  0  0  0  0  0  0  0  0
   31.2930   36.6350   12.4590 C   0  0  0  0  0  0  0  0  0  0  0  0
   31.5010   37.4530   14.7130 O   0  0  0  0  0  0  0  0  0  0  0  0
   31.2970   35.2100   12.8960 C   0  0  1  0  0  0  0  0  0  0  0  0
   31.4090   35.1570   14.4160 C   0  0  1  0  0  0  0  0  0  0  0  0
   29.4580   37.5630   13.6460 O   0  0  0  0  0  0  0  0  0  0  0  0
   29.1260   38.5070   13.6060 H   0  0  0  0  0  0  0  0  0  0  0  0
   31.1800   38.9700   13.0060 C   0  0  0  0  0  0  0  0  0  0  0  0
   31.4420   39.0950   11.7700 O   0  0  0  0  0  0  0  0  0  0  0  0
   31.1990   40.1000   13.7930 O   0  0  0  0  0  0  0  0  0  0  0  0
   30.9060   40.0710   14.7570 H   0  0  0  0  0  0  0  0  0  0  0  0
   30.1370   34.5970   12.4520 O   0  0  0  0  0  0  0  0  0  0  0  0
   29.6670   34.0810   13.1540 H   0  0  0  0  0  0  0  0  0  0  0  0
   31.6720   33.8580   14.9030 N   0  0  0  0  0  0  0  0  0  0  0  0
   30.6810   33.0770   15.5350 C   0  0  0  0  0  0  0  0  0  0  0  0
   32.6090   33.4240   14.7910 H   0  0  0  0  0  0  0  0  0  0  0  0
   30.9000   31.7140   16.0630 C   0  0  0  0  0  0  0  0  0  0  0  0
   29.5390   33.5710   15.6560 O   0  0  0  0  0  0  0  0  0  0  0  0
   33.9780   35.5040   16.4020 O   0  0  0  0  0  0  0  0  0  0  0  0
   34.1120   34.8780   15.6270 H   0  0  0  0  0  0  0  0  0  0  0  0
   33.9570   38.4350   16.5430 O   0  0  0  0  0  0  0  0  0  0  0  0
   34.0920   38.5020   15.5580 H   0  0  0  0  0  0  0  0  0  0  0  0
   35.5380   36.1730   20.3880 O   0  0  0  0  0  0  0  0  0  0  0  0
   36.7070   35.5520   19.8800 C   0  0  0  0  0  0  0  0  0  0  0  0
   36.8630   35.8520   18.4250 C   0  0  0  0  0  0  0  0  0  0  0  0
   37.5180   35.0530   17.5070 C   0  0  0  0  0  0  0  0  0  0  0  0
   36.4130   36.9170   17.7450 N   0  0  0  0  0  0  0  0  0  0  0  0
   37.4370   35.6750   16.2930 N   0  0  0  0  0  0  0  0  0  0  0  0
   36.7740   36.7810   16.4690 N   0  0  0  0  0  0  0  0  0  0  0  0
   38.0010   35.1720   15.0760 C   0  0  0  0  0  0  0  0  0  0  0  0
   39.1630   35.6810   14.5450 C   0  0  0  0  0  0  0  0  0  0  0  0
   37.3360   34.1370   14.4280 C   0  0  0  0  0  0  0  0  0  0  0  0
   39.6510   35.1360   13.3540 C   0  0  0  0  0  0  0  0  0  0  0  0
   37.8310   33.6150   13.2580 C   0  0  0  0  0  0  0  0  0  0  0  0
   38.9880   34.1230   12.7300 C   0  0  0  0  0  0  0  0  0  0  0  0
   39.9080   36.7620   15.1720 C   0  0  0  0  0  0  0  0  0  0  0  0
   40.7740   36.4430   16.0510 O   0  0  0  0  0  0  0  0  0  0  0  0
   39.7080   38.1300   14.8460 N   0  0  0  0  0  0  0  0  0  0  0  0
   40.0140   38.5380   13.9480 H   0  0  0  0  0  0  0  0  0  0  0  0
   39.2250   38.7250   15.5850 H   0  0  0  0  0  0  0  0  0  0  0  0
   29.8670   25.5550   16.9770 C   0  0  0  0  0  0  0  0  0  0  0  0
   28.3450   25.7220   17.0260 C   0  0  0  0  0  0  0  0  0  0  0  0
   27.6010   24.4020   16.8910 C   0  0  0  0  0  0  0  0  0  0  0  0
   26.1550   24.5250   17.2820 C   0  0  0  0  0  0  0  0  0  0  0  0
   25.9600   25.7790   18.1280 C   0  0  0  0  0  0  0  0  0  0  0  0
   25.7920   25.4210   19.5560 N   0  0  0  0  0  0  0  0  0  0  0  0
  1  4  1  0  0  0  0
  1  2  1  0  0  0  0
  2 31  1  0  0  0  0
  3  2  2  0  0  0  0
  5  1  1  0  0  0  0
  6  5  1  1  0  0  0
  7 27  1  6  0  0  0
  7  6  1  0  0  0  0
  8  7  1  1  0  0  0
  9 16  1  6  0  0  0
  9 14  1  0  0  0  0
  9 11  1  0  0  0  0
 10 12  1  0  0  0  0
 10  9  1  0  0  0  0
 11  8  1  0  0  0  0
 12 20  1  1  0  0  0
 12 13  1  0  0  0  0
 13  8  1  0  0  0  0
 13 22  1  6  0  0  0
 15 14  1  0  0  0  0
 16 18  1  0  0  0  0
 17 16  2  0  0  0  0
 18 19  1  0  0  0  0
 20 21  1  0  0  0  0
 22 23  1  0  0  0  0
 23 26  2  0  0  0  0
 23 25  1  0  0  0  0
 24 22  1  0  0  0  0
 28 27  1  0  0  0  0
 29  6  1  0  0  0  0
 30 29  1  0  0  0  0
 32 31  1  0  0  0  0
 33 32  1  0  0  0  0
 34 33  2  0  0  0  0
 35 33  1  0  0  0  0
 36 37  1  0  0  0  0
 36 34  1  0  0  0  0
 37 35  2  0  0  0  0
 38 36  1  0  0  0  0
 39 38  1  0  0  0  0
 39 44  1  0  0  0  0
 40 38  2  0  0  0  0
 41 39  2  0  0  0  0
 42 40  1  0  0  0  0
 43 42  2  0  0  0  0
 43 41  1  0  0  0  0
 44 45  2  0  0  0  0
 46 44  1  0  0  0  0
 46 48  1  0  0  0  0
 47 46  1  0  0  0  0
 49 50  1  0  0  0  0
 51 50  1  0  0  0  0
 51 52  1  0  0  0  0
 52 53  1  0  0  0  0
 53 54  1  0  0  0  0
M  END
>  <REMARK>
 VINA RESULT:    -5.241      6.352     10.599
 INTER + INTRA:         -14.792
 INTER:                  -8.284
 INTRA:                  -6.507
 UNBOUND:                -5.414
 SMILES CC(=O)N[C@@H]1[C@@H](O)C[C@](O)(C(=O)O)O[C@H]1C(O)[C@H](O)CNC(=O)OCc1cn(-c2ccccc2C(N)=O)nn1
 SMILES IDX 21 1 22 2 23 3 20 5 18 6 16 7 15 8 9 9 8 10 14 11 6 12 5 13
 SMILES IDX 10 14 11 16 12 17 13 18 7 20 4 22 2 23 1 25 3 26 17 27 19 29
 SMILES IDX 24 31 25 32 26 33 27 34 39 35 28 36 38 37 29 38 34 39 30 40
 SMILES IDX 33 41 31 42 32 43 35 44 37 45 36 46
 H PARENT 21 4 10 15 13 19 7 21 4 24 17 28 19 30 36 47 36 48
 Flexibility Score: inf
  4 active torsions:
  status: ('A' for Active; 'I' for Inactive)
    1  A    between atoms: CA   and  CB  
    2  A    between atoms: CB   and  CG  
    3  A    between atoms: CG   and  CD  
    4  A    between atoms: CD   and  CE  

>  <TORSDO>
F 16

>  <BEGIN_>
RES LYS A 131

$$$$
ligand_0_pose_12_2HRL.pdbqt
 OpenBabel07062320523D

  6  5  0  0  0  0  0  0  0  0999 V2000
   33.1930   34.6630    9.2900 C   0  0  0  0  0  0  0  0  0  0  0  0
   32.0600   35.3600   10.0340 C   0  0  0  0  0  0  0  0  0  0  0  0
   30.8130   35.5340    9.2060 C   0  0  0  0  0  0  0  0  0  0  0  0
   30.1720   34.1860    8.9120 C   0  0  0  0  0  0  0  0  0  0  0  0
   28.6950   34.3530    8.6120 C   0  0  0  0  0  0  0  0  0  0  0  0
   27.8590   33.6430    9.6190 N   0  0  0  0  0  0  0  0  0  0  0  0
  1  2  1  0  0  0  0
  3  2  1  0  0  0  0
  4  3  1  0  0  0  0
  5  4  1  0  0  0  0
  5  6  1  0  0  0  0
M  END
>  <EGIN_R>
ES LYS A 135

>  <REMARK>
  4 active torsions:
  status: ('A' for Active; 'I' for Inactive)
    5  A    between atoms: CA   and  CB  
    6  A    between atoms: CB   and  CG  
    7  A    between atoms: CG   and  CD  
    8  A    between atoms: CD   and  CE  

$$$$
