ligand_68_pose_2_2HRL.pdbqt
 OpenBabel07062320523D

 53 54  0  0  1  0  0  0  0  0999 V2000
   26.6050   28.3280   18.6900 N   0  0  0  0  0  0  0  0  0  0  0  0
   25.4140   28.6280   17.9830 C   0  0  0  0  0  0  0  0  0  0  0  0
   24.3350   28.6760   18.6140 O   0  0  0  0  0  0  0  0  0  0  0  0
   27.4800   28.3100   18.0790 H   0  0  0  0  0  0  0  0  0  0  0  0
   26.6810   28.0630   20.1080 C   0  0  0  0  0  0  0  0  0  0  0  0
   28.0640   27.6160   20.5330 C   0  0  2  0  0  0  0  0  0  0  0  0
   28.9610   28.8310   20.7750 C   0  0  2  0  0  0  0  0  0  0  0  0
   29.7150   28.7790   22.0770 C   0  0  2  0  0  0  0  0  0  0  0  0
   31.3390   30.3490   21.4600 C   0  0  2  0  0  0  0  0  0  0  0  0
   32.0220   29.2850   20.6990 C   0  0  0  0  0  0  0  0  0  0  0  0
   30.3090   30.0280   22.2780 O   0  0  0  0  0  0  0  0  0  0  0  0
   31.8450   27.8760   21.1710 C   0  0  1  0  0  0  0  0  0  0  0  0
   30.6920   27.6830   22.1270 C   0  0  1  0  0  0  0  0  0  0  0  0
   30.7940   31.2400   20.4870 O   0  0  0  0  0  0  0  0  0  0  0  0
   29.9560   31.5690   20.8810 H   0  0  0  0  0  0  0  0  0  0  0  0
   32.3850   31.1800   22.1640 C   0  0  0  0  0  0  0  0  0  0  0  0
   32.9650   32.1390   21.6020 O   0  0  0  0  0  0  0  0  0  0  0  0
   32.7280   30.8870   23.4810 O   0  0  0  0  0  0  0  0  0  0  0  0
   33.2220   31.5260   24.0840 H   0  0  0  0  0  0  0  0  0  0  0  0
   31.7000   27.0150   20.0470 O   0  0  0  0  0  0  0  0  0  0  0  0
   30.8970   26.4830   20.2080 H   0  0  0  0  0  0  0  0  0  0  0  0
   31.2920   27.4820   23.4360 N   0  0  0  0  0  0  0  0  0  0  0  0
   30.8840   26.4800   24.3490 C   0  0  0  0  0  0  0  0  0  0  0  0
   32.0670   28.1380   23.6770 H   0  0  0  0  0  0  0  0  0  0  0  0
   31.5180   26.3010   25.6780 C   0  0  0  0  0  0  0  0  0  0  0  0
   29.9420   25.7390   23.9660 O   0  0  0  0  0  0  0  0  0  0  0  0
   27.9810   29.8850   20.9340 O   0  0  0  0  0  0  0  0  0  0  0  0
   28.4100   30.7410   21.0830 H   0  0  0  0  0  0  0  0  0  0  0  0
   28.5640   26.7510   19.5880 O   0  0  0  0  0  0  0  0  0  0  0  0
   28.4700   25.8340   19.9390 H   0  0  0  0  0  0  0  0  0  0  0  0
   25.3860   28.8730   16.6180 O   0  0  0  0  0  0  0  0  0  0  0  0
   25.4620   30.1770   16.0770 C   0  0  0  0  0  0  0  0  0  0  0  0
   26.8830   30.5700   15.9850 C   0  0  0  0  0  0  0  0  0  0  0  0
   27.3740   31.8630   15.8910 C   0  0  0  0  0  0  0  0  0  0  0  0
   27.9890   29.7900   15.9710 N   0  0  0  0  0  0  0  0  0  0  0  0
   28.7170   31.8300   15.8240 N   0  0  0  0  0  0  0  0  0  0  0  0
   29.0580   30.5660   15.8750 N   0  0  0  0  0  0  0  0  0  0  0  0
   29.5910   33.0070   15.7190 C   0  0  0  0  0  0  0  0  0  0  0  0
   31.0090   32.5880   16.0200 C   0  0  1  0  0  0  0  0  0  0  0  0
   31.4610   31.8430   14.9070 O   0  0  0  0  0  0  0  0  0  0  0  0
   30.8360   31.0830   14.7520 H   0  0  0  0  0  0  0  0  0  0  0  0
   31.8680   33.7830   16.1410 C   0  0  0  0  0  0  0  0  0  0  0  0
   32.0170   34.4760   17.3250 C   0  0  0  0  0  0  0  0  0  0  0  0
   32.5630   34.2320   15.0100 C   0  0  0  0  0  0  0  0  0  0  0  0
   32.8220   35.5840   17.4170 C   0  0  0  0  0  0  0  0  0  0  0  0
   33.3640   35.3340   15.0990 C   0  0  0  0  0  0  0  0  0  0  0  0
   33.4930   36.0060   16.2930 C   0  0  0  0  0  0  0  0  0  0  0  0
   29.8670   25.5550   16.9770 C   0  0  0  0  0  0  0  0  0  0  0  0
   28.3450   25.7220   17.0260 C   0  0  0  0  0  0  0  0  0  0  0  0
   27.6010   24.4010   16.9070 C   0  0  0  0  0  0  0  0  0  0  0  0
   26.4830   24.2880   17.9050 C   0  0  0  0  0  0  0  0  0  0  0  0
   25.1430   24.3770   17.1800 C   0  0  0  0  0  0  0  0  0  0  0  0
   24.1960   25.2240   17.9430 N   0  0  0  0  0  0  0  0  0  0  0  0
  1  5  1  0  0  0  0
  2  3  2  0  0  0  0
  2  1  1  0  0  0  0
  4  1  1  0  0  0  0
  6  5  1  6  0  0  0
  6  7  1  0  0  0  0
  7 27  1  1  0  0  0
  8  7  1  6  0  0  0
  8 13  1  0  0  0  0
  8 11  1  0  0  0  0
  9 14  1  6  0  0  0
  9 16  1  0  0  0  0
  9 11  1  0  0  0  0
 10 12  1  0  0  0  0
 10  9  1  0  0  0  0
 12 20  1  6  0  0  0
 12 13  1  0  0  0  0
 13 22  1  1  0  0  0
 14 15  1  0  0  0  0
 16 18  1  0  0  0  0
 17 16  2  0  0  0  0
 18 19  1  0  0  0  0
 20 21  1  0  0  0  0
 22 24  1  0  0  0  0
 22 23  1  0  0  0  0
 23 25  1  0  0  0  0
 26 23  2  0  0  0  0
 27 28  1  0  0  0  0
 29 30  1  0  0  0  0
 29  6  1  0  0  0  0
 31  2  1  0  0  0  0
 32 31  1  0  0  0  0
 33 32  1  0  0  0  0
 34 33  2  0  0  0  0
 35 33  1  0  0  0  0
 36 37  1  0  0  0  0
 36 34  1  0  0  0  0
 37 35  2  0  0  0  0
 38 36  1  0  0  0  0
 39 38  1  6  0  0  0
 39 42  1  0  0  0  0
 40 39  1  0  0  0  0
 41 40  1  0  0  0  0
 42 43  2  0  0  0  0
 43 45  1  0  0  0  0
 44 46  2  0  0  0  0
 44 42  1  0  0  0  0
 46 47  1  0  0  0  0
 47 45  2  0  0  0  0
 48 49  1  0  0  0  0
 50 49  1  0  0  0  0
 50 51  1  0  0  0  0
 52 51  1  0  0  0  0
 52 53  1  0  0  0  0
M  END
>  <REMARK>
 VINA RESULT:    -5.802      1.313      1.834
 INTER + INTRA:         -15.901
 INTER:                 -10.386
 INTRA:                  -5.515
 UNBOUND:                -5.012
 SMILES CC(=O)N[C@@H]1[C@@H](O)C[C@](O)(C(=O)O)O[C@H]1C(O)[C@H](O)CNC(=O)OCc1cn(CC(O)c2ccccc2)nn1
 SMILES IDX 21 1 22 2 23 3 20 5 18 6 16 7 15 8 9 9 8 10 14 11 6 12 5 13
 SMILES IDX 10 14 11 16 12 17 13 18 7 20 4 22 2 23 1 25 3 26 17 27 19 29
 SMILES IDX 24 31 25 32 26 33 27 34 39 35 28 36 38 37 29 38 30 39 31 40
 SMILES IDX 32 42 33 43 37 44 34 45 36 46 35 47
 H PARENT 21 4 10 15 13 19 7 21 4 24 17 28 19 30 31 41
 Flexibility Score: inf
  4 active torsions:
  status: ('A' for Active; 'I' for Inactive)
    1  A    between atoms: CA   and  CB  
    2  A    between atoms: CB   and  CG  
    3  A    between atoms: CG   and  CD  
    4  A    between atoms: CD   and  CE  

>  <TORSDO>
F 18

>  <BEGIN_>
RES LYS A 131

$$$$
ligand_68_pose_2_2HRL.pdbqt
 OpenBabel07062320523D

  6  5  0  0  0  0  0  0  0  0999 V2000
   33.1930   34.6630    9.2900 C   0  0  0  0  0  0  0  0  0  0  0  0
   32.0600   35.3600   10.0340 C   0  0  0  0  0  0  0  0  0  0  0  0
   30.8070   35.5180    9.2120 C   0  0  0  0  0  0  0  0  0  0  0  0
   29.9090   34.3000    9.3640 C   0  0  0  0  0  0  0  0  0  0  0  0
   28.6600   34.4490    8.5150 C   0  0  0  0  0  0  0  0  0  0  0  0
   27.4330   34.1820    9.3150 N   0  0  0  0  0  0  0  0  0  0  0  0
  1  2  1  0  0  0  0
  3  4  1  0  0  0  0
  3  2  1  0  0  0  0
  5  6  1  0  0  0  0
  5  4  1  0  0  0  0
M  END
>  <EGIN_R>
ES LYS A 135

>  <REMARK>
  4 active torsions:
  status: ('A' for Active; 'I' for Inactive)
    5  A    between atoms: CA   and  CB  
    6  A    between atoms: CB   and  CG  
    7  A    between atoms: CG   and  CD  
    8  A    between atoms: CD   and  CE  

$$$$
