ligand_83_pose_9_2HRL.pdbqt
 OpenBabel07062320523D

 56 57  0  0  1  0  0  0  0  0999 V2000
   24.0840   30.2600   18.9570 O   0  0  0  0  0  0  0  0  0  0  0  0
   24.7640   30.4280   20.1750 C   0  0  0  0  0  0  0  0  0  0  0  0
   25.6250   31.5010   20.4260 N   0  0  0  0  0  0  0  0  0  0  0  0
   25.7600   32.2100   19.6430 H   0  0  0  0  0  0  0  0  0  0  0  0
   24.5600   29.5620   21.0370 O   0  0  0  0  0  0  0  0  0  0  0  0
   26.3390   31.7110   21.6630 C   0  0  0  0  0  0  0  0  0  0  0  0
   27.7200   31.1330   21.5150 C   0  0  2  0  0  0  0  0  0  0  0  0
   27.9700   30.2090   22.6840 C   0  0  2  0  0  0  0  0  0  0  0  0
   29.0100   29.1530   22.3330 C   0  0  2  0  0  0  0  0  0  0  0  0
   30.8350   28.9030   20.9070 C   0  0  2  0  0  0  0  0  0  0  0  0
   30.3770   27.4620   20.7910 C   0  0  0  0  0  0  0  0  0  0  0  0
   29.7950   29.6860   21.3470 O   0  0  0  0  0  0  0  0  0  0  0  0
   28.8770   27.4250   20.6020 C   0  0  1  0  0  0  0  0  0  0  0  0
   28.2690   27.8950   21.9180 C   0  0  1  0  0  0  0  0  0  0  0  0
   31.2110   29.3980   19.6430 O   0  0  0  0  0  0  0  0  0  0  0  0
   30.4080   29.3560   19.0740 H   0  0  0  0  0  0  0  0  0  0  0  0
   31.9760   29.0550   21.8190 C   0  0  0  0  0  0  0  0  0  0  0  0
   32.7300   30.0380   21.7310 O   0  0  0  0  0  0  0  0  0  0  0  0
   32.2240   28.1020   22.7900 O   0  0  0  0  0  0  0  0  0  0  0  0
   32.1060   27.1250   22.5950 H   0  0  0  0  0  0  0  0  0  0  0  0
   28.4270   28.3020   19.6270 O   0  0  0  0  0  0  0  0  0  0  0  0
   27.5620   28.0100   19.2780 H   0  0  0  0  0  0  0  0  0  0  0  0
   28.3980   26.8470   22.8900 N   0  0  0  0  0  0  0  0  0  0  0  0
   27.2580   26.2600   23.4740 C   0  0  0  0  0  0  0  0  0  0  0  0
   29.3290   26.4700   23.2150 H   0  0  0  0  0  0  0  0  0  0  0  0
   27.3990   25.1690   24.4860 C   0  0  0  0  0  0  0  0  0  0  0  0
   26.1010   26.6390   23.1550 O   0  0  0  0  0  0  0  0  0  0  0  0
   26.7980   29.5340   22.9620 O   0  0  0  0  0  0  0  0  0  0  0  0
   26.9230   28.5590   23.0360 H   0  0  0  0  0  0  0  0  0  0  0  0
   28.6970   32.1190   21.4110 O   0  0  0  0  0  0  0  0  0  0  0  0
   29.3610   31.7910   20.7540 H   0  0  0  0  0  0  0  0  0  0  0  0
   24.1960   29.0130   18.2540 C   0  0  0  0  0  0  0  0  0  0  0  0
   25.5050   28.8660   17.6250 C   0  0  0  0  0  0  0  0  0  0  0  0
   26.1160   29.7830   16.8060 C   0  0  0  0  0  0  0  0  0  0  0  0
   26.3190   27.8060   17.7490 N   0  0  0  0  0  0  0  0  0  0  0  0
   27.2930   29.2490   16.4540 N   0  0  0  0  0  0  0  0  0  0  0  0
   27.3940   28.0730   17.0260 N   0  0  0  0  0  0  0  0  0  0  0  0
   28.2700   29.9120   15.5730 C   0  0  0  0  0  0  0  0  0  0  0  0
   29.2670   30.6900   16.4030 C   0  0  2  0  0  0  0  0  0  0  0  0
   29.1310   30.1880   17.7160 O   0  0  0  0  0  0  0  0  0  0  0  0
   29.7990   29.5100   17.9260 H   0  0  0  0  0  0  0  0  0  0  0  0
   28.9310   32.1460   16.3440 C   0  0  0  0  0  0  0  0  0  0  0  0
   30.1840   32.9010   16.2670 N   0  0  0  0  0  0  0  0  0  0  0  0
   30.8290   33.2680   15.1360 C   0  0  0  0  0  0  0  0  0  0  0  0
   30.8550   33.3410   17.3170 C   0  0  0  0  0  0  0  0  0  0  0  0
   31.9380   33.9590   15.5050 C   0  0  0  0  0  0  0  0  0  0  0  0
   31.9460   34.0000   16.8370 N   0  0  0  0  0  0  0  0  0  0  0  0
   30.5390   33.1800   18.7100 N   0  0  0  0  0  0  0  0  0  0  0  0
   30.8390   32.1670   19.3620 O   0  0  0  0  0  0  0  0  0  0  0  0
   29.8710   34.1950   19.3650 O   0  0  0  0  0  0  0  0  0  0  0  0
   29.8670   25.5550   16.9770 C   0  0  0  0  0  0  0  0  0  0  0  0
   28.3450   25.7220   17.0260 C   0  0  0  0  0  0  0  0  0  0  0  0
   27.6010   24.4020   16.8930 C   0  0  0  0  0  0  0  0  0  0  0  0
   26.5560   24.2310   17.9600 C   0  0  0  0  0  0  0  0  0  0  0  0
   25.1690   24.3220   17.3330 C   0  0  0  0  0  0  0  0  0  0  0  0
   24.5280   22.9860   17.2940 N   0  0  0  0  0  0  0  0  0  0  0  0
  1  2  1  0  0  0  0
  2  3  1  0  0  0  0
  2  5  2  0  0  0  0
  3  6  1  0  0  0  0
  4  3  1  0  0  0  0
  7  6  1  1  0  0  0
  7  8  1  0  0  0  0
  8 28  1  6  0  0  0
  9  8  1  6  0  0  0
 10 15  1  6  0  0  0
 10 12  1  0  0  0  0
 10 17  1  0  0  0  0
 11 10  1  0  0  0  0
 12  9  1  0  0  0  0
 13 21  1  6  0  0  0
 13 11  1  0  0  0  0
 13 14  1  0  0  0  0
 14  9  1  0  0  0  0
 14 23  1  1  0  0  0
 16 15  1  0  0  0  0
 17 19  1  0  0  0  0
 18 17  2  0  0  0  0
 20 19  1  0  0  0  0
 22 21  1  0  0  0  0
 23 25  1  0  0  0  0
 23 24  1  0  0  0  0
 24 26  1  0  0  0  0
 27 24  2  0  0  0  0
 28 29  1  0  0  0  0
 30  7  1  0  0  0  0
 31 30  1  0  0  0  0
 32  1  1  0  0  0  0
 33 35  1  0  0  0  0
 33 32  1  0  0  0  0
 34 33  2  0  0  0  0
 36 34  1  0  0  0  0
 36 37  1  0  0  0  0
 37 35  2  0  0  0  0
 38 36  1  0  0  0  0
 39 38  1  6  0  0  0
 39 40  1  0  0  0  0
 40 41  1  0  0  0  0
 42 39  1  0  0  0  0
 43 42  1  0  0  0  0
 43 45  1  0  0  0  0
 44 46  2  0  0  0  0
 44 43  1  0  0  0  0
 45 48  1  0  0  0  0
 46 47  1  0  0  0  0
 47 45  2  0  0  0  0
 48 49  2  0  0  0  0
 48 50  2  0  0  0  0
 51 52  1  0  0  0  0
 53 52  1  0  0  0  0
 53 54  1  0  0  0  0
 55 54  1  0  0  0  0
 56 55  1  0  0  0  0
M  END
>  <REMARK>
 VINA RESULT:    -3.657      2.156      4.804
 INTER + INTRA:         -15.737
 INTER:                  -7.294
 INTRA:                  -8.442
 UNBOUND:                -8.446
 SMILES CC(=O)N[C@@H]1[C@@H](O)C[C@](O)(C(=O)O)O[C@H]1C(O)[C@H](O)CNC(=O)OCc1cn(CC(O)Cn2ccnc2[N+](=O)[O-])nn1
 SMILES IDX 24 1 22 2 21 3 23 5 20 6 18 7 16 8 15 9 9 10 8 11 14 12 6 13
 SMILES IDX 5 14 10 15 11 17 12 18 13 19 7 21 4 23 2 24 1 26 3 27 17 28
 SMILES IDX 19 30 25 32 26 33 27 34 42 35 28 36 41 37 29 38 30 39 31 40
 SMILES IDX 32 42 33 43 34 44 37 45 35 46 36 47 38 48 39 49 40 50
 H PARENT 21 4 10 16 13 20 7 22 4 25 17 29 19 31 31 41
 Flexibility Score: inf
  4 active torsions:
  status: ('A' for Active; 'I' for Inactive)
    1  A    between atoms: CA   and  CB  
    2  A    between atoms: CB   and  CG  
    3  A    between atoms: CG   and  CD  
    4  A    between atoms: CD   and  CE  

>  <TORSDO>
F 20

>  <BEGIN_>
RES LYS A 131

$$$$
ligand_83_pose_9_2HRL.pdbqt
 OpenBabel07062320523D

  6  5  0  0  0  0  0  0  0  0999 V2000
   33.1930   34.6630    9.2900 C   0  0  0  0  0  0  0  0  0  0  0  0
   32.0600   35.3600   10.0340 C   0  0  0  0  0  0  0  0  0  0  0  0
   30.6920   34.8480    9.6640 C   0  0  0  0  0  0  0  0  0  0  0  0
   29.6150   35.5720   10.4580 C   0  0  0  0  0  0  0  0  0  0  0  0
   28.4870   34.6230   10.8130 C   0  0  0  0  0  0  0  0  0  0  0  0
   28.1000   33.7880    9.6430 N   0  0  0  0  0  0  0  0  0  0  0  0
  1  2  1  0  0  0  0
  3  2  1  0  0  0  0
  3  4  1  0  0  0  0
  4  5  1  0  0  0  0
  6  5  1  0  0  0  0
M  END
>  <EGIN_R>
ES LYS A 135

>  <REMARK>
  4 active torsions:
  status: ('A' for Active; 'I' for Inactive)
    5  A    between atoms: CA   and  CB  
    6  A    between atoms: CB   and  CG  
    7  A    between atoms: CG   and  CD  
    8  A    between atoms: CD   and  CE  

$$$$
