ligand_42_pose_17_2HRL.pdbqt
 OpenBabel07062320523D

 52 54  0  0  1  0  0  0  0  0999 V2000
   31.4630   36.6420   13.2550 C   0  0  0  0  0  0  0  0  0  0  0  0
   31.9160   35.2210   13.2430 C   0  0  2  0  0  0  0  0  0  0  0  0
   32.9780   34.9730   14.3270 C   0  0  1  0  0  0  0  0  0  0  0  0
   32.2760   34.4200   15.5150 C   0  0  2  0  0  0  0  0  0  0  0  0
   30.2950   33.6640   16.3520 C   0  0  2  0  0  0  0  0  0  0  0  0
   31.2150   33.3640   17.5160 C   0  0  0  0  0  0  0  0  0  0  0  0
   30.9480   34.1190   15.2330 O   0  0  0  0  0  0  0  0  0  0  0  0
   32.0460   34.5690   17.9140 C   0  0  1  0  0  0  0  0  0  0  0  0
   32.2490   35.3970   16.6900 C   0  0  1  0  0  0  0  0  0  0  0  0
   29.3430   34.5670   16.8290 O   0  0  0  0  0  0  0  0  0  0  0  0
   28.6520   34.0160   17.2860 H   0  0  0  0  0  0  0  0  0  0  0  0
   29.6330   32.3880   15.9930 C   0  0  0  0  0  0  0  0  0  0  0  0
   30.2690   31.3140   16.1070 O   0  0  0  0  0  0  0  0  0  0  0  0
   28.3290   32.3250   15.5330 O   0  0  0  0  0  0  0  0  0  0  0  0
   27.5220   32.5640   16.0990 H   0  0  0  0  0  0  0  0  0  0  0  0
   31.2850   35.2520   18.8880 O   0  0  0  0  0  0  0  0  0  0  0  0
   30.3460   35.2900   18.6330 H   0  0  0  0  0  0  0  0  0  0  0  0
   33.3580   36.2790   16.7170 N   0  0  0  0  0  0  0  0  0  0  0  0
   33.3790   37.6030   17.2320 C   0  0  0  0  0  0  0  0  0  0  0  0
   34.2600   35.9340   16.3210 H   0  0  0  0  0  0  0  0  0  0  0  0
   34.6070   38.4530   17.2120 C   0  0  0  0  0  0  0  0  0  0  0  0
   32.3120   38.0450   17.7150 O   0  0  0  0  0  0  0  0  0  0  0  0
   33.9040   34.1090   13.8100 O   0  0  0  0  0  0  0  0  0  0  0  0
   33.6290   33.2120   13.5930 H   0  0  0  0  0  0  0  0  0  0  0  0
   32.4570   34.8640   12.0360 O   0  0  0  0  0  0  0  0  0  0  0  0
   31.9630   35.1370   11.2340 H   0  0  0  0  0  0  0  0  0  0  0  0
   30.0510   36.7570   13.1440 N   0  0  0  0  0  0  0  0  0  0  0  0
   29.2020   36.9960   14.2370 C   0  0  0  0  0  0  0  0  0  0  0  0
   29.5750   36.6610   12.1960 H   0  0  0  0  0  0  0  0  0  0  0  0
   29.5710   37.1230   15.4170 O   0  0  0  0  0  0  0  0  0  0  0  0
   27.8190   37.1060   14.0070 O   0  0  0  0  0  0  0  0  0  0  0  0
   26.9410   37.0740   15.0910 C   0  0  0  0  0  0  0  0  0  0  0  0
   26.3570   35.7120   15.2040 C   0  0  0  0  0  0  0  0  0  0  0  0
   25.4770   35.1150   14.3080 C   0  0  0  0  0  0  0  0  0  0  0  0
   26.5500   34.7940   16.1670 N   0  0  0  0  0  0  0  0  0  0  0  0
   25.1650   33.8810   14.7400 N   0  0  0  0  0  0  0  0  0  0  0  0
   25.8360   33.7260   15.8670 N   0  0  0  0  0  0  0  0  0  0  0  0
   24.2930   32.9630   14.0910 C   0  0  0  0  0  0  0  0  0  0  0  0
   23.0160   33.3440   13.7300 C   0  0  0  0  0  0  0  0  0  0  0  0
   24.6640   31.6680   13.7930 C   0  0  0  0  0  0  0  0  0  0  0  0
   22.1460   32.4600   13.0930 C   0  0  0  0  0  0  0  0  0  0  0  0
   23.8110   30.7670   13.1570 C   0  0  0  0  0  0  0  0  0  0  0  0
   22.5420   31.1720   12.8070 C   0  0  0  0  0  0  0  0  0  0  0  0
   23.9450   29.4400   12.7560 O   0  0  0  0  0  0  0  0  0  0  0  0
   21.9250   30.0680   12.1920 O   0  0  0  0  0  0  0  0  0  0  0  0
   22.6570   28.8900   12.5480 C   0  0  0  0  0  0  0  0  0  0  0  0
   29.8670   25.5550   16.9770 C   0  0  0  0  0  0  0  0  0  0  0  0
   28.3450   25.7220   17.0260 C   0  0  0  0  0  0  0  0  0  0  0  0
   27.6020   24.4000   16.9130 C   0  0  0  0  0  0  0  0  0  0  0  0
   26.1490   24.5340   17.2790 C   0  0  0  0  0  0  0  0  0  0  0  0
   25.9240   23.9760   18.6800 C   0  0  0  0  0  0  0  0  0  0  0  0
   25.6470   25.0730   19.6370 N   0  0  0  0  0  0  0  0  0  0  0  0
  2  1  1  6  0  0  0
  2  3  1  0  0  0  0
  3 23  1  6  0  0  0
  4  3  1  6  0  0  0
  4  9  1  0  0  0  0
  5 12  1  6  0  0  0
  5 10  1  0  0  0  0
  5  6  1  0  0  0  0
  6  8  1  0  0  0  0
  7  4  1  0  0  0  0
  7  5  1  0  0  0  0
  8 16  1  1  0  0  0
  9 18  1  1  0  0  0
  9  8  1  0  0  0  0
 10 11  1  0  0  0  0
 12 13  2  0  0  0  0
 14 12  1  0  0  0  0
 14 15  1  0  0  0  0
 17 16  1  0  0  0  0
 18 19  1  0  0  0  0
 19 22  2  0  0  0  0
 20 18  1  0  0  0  0
 21 19  1  0  0  0  0
 24 23  1  0  0  0  0
 25  2  1  0  0  0  0
 26 25  1  0  0  0  0
 27  1  1  0  0  0  0
 27 28  1  0  0  0  0
 28 30  2  0  0  0  0
 29 27  1  0  0  0  0
 31 28  1  0  0  0  0
 31 32  1  0  0  0  0
 32 33  1  0  0  0  0
 33 35  1  0  0  0  0
 34 36  1  0  0  0  0
 34 33  2  0  0  0  0
 36 37  1  0  0  0  0
 37 35  2  0  0  0  0
 38 36  1  0  0  0  0
 39 38  2  0  0  0  0
 40 38  1  0  0  0  0
 41 39  1  0  0  0  0
 42 40  2  0  0  0  0
 43 41  2  0  0  0  0
 43 42  1  0  0  0  0
 44 42  1  0  0  0  0
 45 46  1  0  0  0  0
 45 43  1  0  0  0  0
 46 44  1  0  0  0  0
 47 48  1  0  0  0  0
 49 48  1  0  0  0  0
 49 50  1  0  0  0  0
 50 51  1  0  0  0  0
 51 52  1  0  0  0  0
M  END
>  <REMARK>
 VINA RESULT:    -5.374      4.788      8.270
 INTER + INTRA:         -13.848
 INTER:                  -7.705
 INTRA:                  -6.143
 UNBOUND:                -4.548
 SMILES CC(=O)N[C@@H]1[C@@H](O)C[C@](O)(C(=O)O)O[C@H]1C(O)[C@H](O)CNC(=O)OCc1cn(-c2ccc3c(c2)OCO3)nn1
 SMILES IDX 20 1 18 2 16 3 15 4 9 5 8 6 14 7 6 8 5 9 10 10 11 12 12 13
 SMILES IDX 13 14 7 16 4 18 2 19 1 21 3 22 17 23 19 25 21 27 22 28 23 30
 SMILES IDX 24 31 25 32 26 33 27 34 39 35 28 36 38 37 29 38 30 39 34 40
 SMILES IDX 31 41 33 42 32 43 35 44 37 45 36 46
 H PARENT 10 11 13 15 7 17 4 20 17 24 19 26 21 29
 Flexibility Score: inf
  4 active torsions:
  status: ('A' for Active; 'I' for Inactive)
    1  A    between atoms: CA   and  CB  
    2  A    between atoms: CB   and  CG  
    3  A    between atoms: CG   and  CD  
    4  A    between atoms: CD   and  CE  

>  <TORSDO>
F 15

>  <BEGIN_>
RES LYS A 131

$$$$
ligand_42_pose_17_2HRL.pdbqt
 OpenBabel07062320523D

  6  5  0  0  0  0  0  0  0  0999 V2000
   33.1930   34.6630    9.2900 C   0  0  0  0  0  0  0  0  0  0  0  0
   32.0600   35.3600   10.0340 C   0  0  0  0  0  0  0  0  0  0  0  0
   30.8080   35.5200    9.2110 C   0  0  0  0  0  0  0  0  0  0  0  0
   30.2430   34.1620    8.8240 C   0  0  0  0  0  0  0  0  0  0  0  0
   28.8150   34.0190    9.3160 C   0  0  0  0  0  0  0  0  0  0  0  0
   28.6720   34.5350   10.7050 N   0  0  0  0  0  0  0  0  0  0  0  0
  1  2  1  0  0  0  0
  3  2  1  0  0  0  0
  4  3  1  0  0  0  0
  4  5  1  0  0  0  0
  5  6  1  0  0  0  0
M  END
>  <EGIN_R>
ES LYS A 135

>  <REMARK>
  4 active torsions:
  status: ('A' for Active; 'I' for Inactive)
    5  A    between atoms: CA   and  CB  
    6  A    between atoms: CB   and  CG  
    7  A    between atoms: CG   and  CD  
    8  A    between atoms: CD   and  CE  

$$$$
