ligand_26_pose_4_2HRL.pdbqt
 OpenBabel07062320523D

 54 55  0  0  1  0  0  0  0  0999 V2000
   28.1370   31.5720   20.9700 N   0  0  0  0  0  0  0  0  0  0  0  0
   27.1470   30.8520   21.6980 C   0  0  0  0  0  0  0  0  0  0  0  0
   27.4290   30.4290   22.8340 O   0  0  0  0  0  0  0  0  0  0  0  0
   27.8180   31.9010   20.0090 H   0  0  0  0  0  0  0  0  0  0  0  0
   29.4690   31.8520   21.4600 C   0  0  0  0  0  0  0  0  0  0  0  0
   30.5330   31.4450   20.4650 C   0  0  2  0  0  0  0  0  0  0  0  0
   30.6440   29.9400   20.3410 C   0  0  1  0  0  0  0  0  0  0  0  0
   30.4640   29.2280   21.6480 C   0  0  2  0  0  0  0  0  0  0  0  0
   32.6180   28.8000   22.4390 C   0  0  2  0  0  0  0  0  0  0  0  0
   32.4790   27.3170   22.2030 C   0  0  0  0  0  0  0  0  0  0  0  0
   31.4490   29.4880   22.5630 O   0  0  0  0  0  0  0  0  0  0  0  0
   31.4800   26.9830   21.1370 C   0  0  1  0  0  0  0  0  0  0  0  0
   30.2120   27.7430   21.4580 C   0  0  1  0  0  0  0  0  0  0  0  0
   33.5010   29.3430   21.4790 O   0  0  0  0  0  0  0  0  0  0  0  0
   34.4050   29.4570   21.8310 H   0  0  0  0  0  0  0  0  0  0  0  0
   33.3380   28.9320   23.7590 C   0  0  0  0  0  0  0  0  0  0  0  0
   34.3340   29.6480   23.9270 O   0  0  0  0  0  0  0  0  0  0  0  0
   32.7880   28.1720   24.8060 O   0  0  0  0  0  0  0  0  0  0  0  0
   31.7900   28.0880   24.9140 H   0  0  0  0  0  0  0  0  0  0  0  0
   31.9420   27.2290   19.8650 O   0  0  0  0  0  0  0  0  0  0  0  0
   31.9720   28.2010   19.7000 H   0  0  0  0  0  0  0  0  0  0  0  0
   29.7810   27.2440   22.7750 N   0  0  0  0  0  0  0  0  0  0  0  0
   28.4010   26.9810   22.9950 C   0  0  0  0  0  0  0  0  0  0  0  0
   30.4520   27.0770   23.5480 H   0  0  0  0  0  0  0  0  0  0  0  0
   27.9830   26.4770   24.3280 C   0  0  0  0  0  0  0  0  0  0  0  0
   27.5920   27.1820   22.0630 O   0  0  0  0  0  0  0  0  0  0  0  0
   29.6830   29.5430   19.4090 O   0  0  0  0  0  0  0  0  0  0  0  0
   30.0340   28.7520   18.9000 H   0  0  0  0  0  0  0  0  0  0  0  0
   31.7670   31.9900   20.8750 O   0  0  0  0  0  0  0  0  0  0  0  0
   31.7170   32.3680   21.7880 H   0  0  0  0  0  0  0  0  0  0  0  0
   25.8880   30.6040   21.1980 O   0  0  0  0  0  0  0  0  0  0  0  0
   25.5040   29.4610   20.4670 C   0  0  0  0  0  0  0  0  0  0  0  0
   26.1990   29.2910   19.1880 C   0  0  0  0  0  0  0  0  0  0  0  0
   26.2490   30.2330   18.1520 C   0  0  0  0  0  0  0  0  0  0  0  0
   26.9210   28.2350   18.7350 N   0  0  0  0  0  0  0  0  0  0  0  0
   26.9660   29.7280   17.1670 N   0  0  0  0  0  0  0  0  0  0  0  0
   27.3580   28.5400   17.5280 N   0  0  0  0  0  0  0  0  0  0  0  0
   27.2600   30.4230   15.8740 C   0  0  1  0  0  0  0  0  0  0  0  0
   25.9060   30.6130   15.2420 C   0  0  0  0  0  0  0  0  0  0  0  0
   27.9200   31.6760   16.2110 C   0  0  0  0  0  0  0  0  0  0  0  0
   29.3260   31.8390   16.0120 C   0  0  2  0  0  0  0  0  0  0  0  0
   30.0350   30.8490   16.5620 O   0  0  0  0  0  0  0  0  0  0  0  0
   30.1360   32.8210   15.3620 C   0  0  0  0  0  0  0  0  0  0  0  0
   31.4620   33.0140   15.8210 C   0  0  0  0  0  0  0  0  0  0  0  0
   29.7490   33.5990   14.2980 C   0  0  0  0  0  0  0  0  0  0  0  0
   32.2990   33.9270   15.2320 C   0  0  0  0  0  0  0  0  0  0  0  0
   30.6240   34.5130   13.7270 C   0  0  0  0  0  0  0  0  0  0  0  0
   31.8920   34.6960   14.1700 C   0  0  0  0  0  0  0  0  0  0  0  0
   29.8670   25.5550   16.9770 C   0  0  0  0  0  0  0  0  0  0  0  0
   28.3450   25.7220   17.0260 C   0  0  0  0  0  0  0  0  0  0  0  0
   27.6010   24.4020   16.8930 C   0  0  0  0  0  0  0  0  0  0  0  0
   26.6440   24.1750   18.0300 C   0  0  0  0  0  0  0  0  0  0  0  0
   25.3870   25.0120   17.8130 C   0  0  0  0  0  0  0  0  0  0  0  0
   24.4930   24.3590   16.8280 N   0  0  0  0  0  0  0  0  0  0  0  0
  1  5  1  0  0  0  0
  1  2  1  0  0  0  0
  2  3  2  0  0  0  0
  4  1  1  0  0  0  0
  6 29  1  0  0  0  0
  6  5  1  1  0  0  0
  7 27  1  6  0  0  0
  7  6  1  0  0  0  0
  8  7  1  6  0  0  0
  8 11  1  0  0  0  0
  9 14  1  6  0  0  0
  9 11  1  0  0  0  0
  9 16  1  0  0  0  0
 10  9  1  0  0  0  0
 12 20  1  6  0  0  0
 12 13  1  0  0  0  0
 12 10  1  0  0  0  0
 13  8  1  0  0  0  0
 13 22  1  1  0  0  0
 14 15  1  0  0  0  0
 16 17  2  0  0  0  0
 16 18  1  0  0  0  0
 18 19  1  0  0  0  0
 21 20  1  0  0  0  0
 22 23  1  0  0  0  0
 22 24  1  0  0  0  0
 23 25  1  0  0  0  0
 26 23  2  0  0  0  0
 28 27  1  0  0  0  0
 29 30  1  0  0  0  0
 31  2  1  0  0  0  0
 32 31  1  0  0  0  0
 33 32  1  0  0  0  0
 34 33  2  0  0  0  0
 35 33  1  0  0  0  0
 36 37  1  0  0  0  0
 36 34  1  0  0  0  0
 37 35  2  0  0  0  0
 38 39  1  1  0  0  0
 38 40  1  0  0  0  0
 38 36  1  0  0  0  0
 41 40  1  0  0  0  0
 41 42  1  1  0  0  0
 43 44  1  0  0  0  0
 43 41  1  0  0  0  0
 45 43  2  0  0  0  0
 46 44  2  0  0  0  0
 47 48  2  0  0  0  0
 47 45  1  0  0  0  0
 48 46  1  0  0  0  0
 49 50  1  0  0  0  0
 51 50  1  0  0  0  0
 51 52  1  0  0  0  0
 53 52  1  0  0  0  0
 54 53  1  0  0  0  0
M  END
>  <REMARK>
 VINA RESULT:    -4.825      2.618      4.683
 INTER + INTRA:         -16.131
 INTER:                  -9.162
 INTRA:                  -6.968
 UNBOUND:                -6.934
 SMILES CC(=O)N[C@@H]1[C@@H](O)C[C@](O)(C(=O)O)O[C@H]1C(O)[C@H](O)CNC(=O)OCc1cn(C(C)CC(=O)c2ccccc2)nn1
 SMILES IDX 21 1 22 2 23 3 20 5 18 6 16 7 15 8 9 9 8 10 14 11 6 12 5 13
 SMILES IDX 10 14 11 16 12 17 13 18 7 20 4 22 2 23 1 25 3 26 17 27 19 29
 SMILES IDX 24 31 25 32 26 33 27 34 41 35 28 36 40 37 29 38 30 39 31 40
 SMILES IDX 32 41 33 42 34 43 35 44 39 45 36 46 38 47 37 48
 H PARENT 21 4 10 15 13 19 7 21 4 24 17 28 19 30
 Flexibility Score: inf
  4 active torsions:
  status: ('A' for Active; 'I' for Inactive)
    1  A    between atoms: CA   and  CB  
    2  A    between atoms: CB   and  CG  
    3  A    between atoms: CG   and  CD  
    4  A    between atoms: CD   and  CE  

>  <TORSDO>
F 18

>  <BEGIN_>
RES LYS A 131

$$$$
ligand_26_pose_4_2HRL.pdbqt
 OpenBabel07062320523D

  6  5  0  0  0  0  0  0  0  0999 V2000
   33.1930   34.6630    9.2900 C   0  0  0  0  0  0  0  0  0  0  0  0
   32.0600   35.3600   10.0340 C   0  0  0  0  0  0  0  0  0  0  0  0
   30.7900   35.4700    9.2310 C   0  0  0  0  0  0  0  0  0  0  0  0
   29.9770   34.1890    9.3330 C   0  0  0  0  0  0  0  0  0  0  0  0
   28.5760   34.4020    8.7940 C   0  0  0  0  0  0  0  0  0  0  0  0
   27.5680   33.6820    9.6210 N   0  0  0  0  0  0  0  0  0  0  0  0
  1  2  1  0  0  0  0
  3  4  1  0  0  0  0
  3  2  1  0  0  0  0
  5  4  1  0  0  0  0
  5  6  1  0  0  0  0
M  END
>  <EGIN_R>
ES LYS A 135

>  <REMARK>
  4 active torsions:
  status: ('A' for Active; 'I' for Inactive)
    5  A    between atoms: CA   and  CB  
    6  A    between atoms: CB   and  CG  
    7  A    between atoms: CG   and  CD  
    8  A    between atoms: CD   and  CE  

$$$$
