ligand_85_pose_3_2HRL.pdbqt
 OpenBabel07062320523D

 55 56  0  0  1  0  0  0  0  0999 V2000
   33.6840   34.6890   20.7750 N   0  0  0  0  0  0  0  0  0  0  0  0
   34.3610   35.9170   20.7350 C   0  0  0  0  0  0  0  0  0  0  0  0
   33.7250   36.9830   20.6200 O   0  0  0  0  0  0  0  0  0  0  0  0
   34.2270   33.8020   20.8760 H   0  0  0  0  0  0  0  0  0  0  0  0
   32.2510   34.5920   20.6820 C   0  0  0  0  0  0  0  0  0  0  0  0
   31.8670   33.9220   19.3880 C   0  0  2  0  0  0  0  0  0  0  0  0
   31.7210   34.9000   18.2500 C   0  0  2  0  0  0  0  0  0  0  0  0
   31.0450   34.2700   17.0920 C   0  0  2  0  0  0  0  0  0  0  0  0
   30.6520   32.3710   15.8670 C   0  0  2  0  0  0  0  0  0  0  0  0
   29.5630   33.2510   15.3070 C   0  0  0  0  0  0  0  0  0  0  0  0
   31.4910   33.0050   16.7500 O   0  0  0  0  0  0  0  0  0  0  0  0
   30.0460   34.6050   14.9030 C   0  0  1  0  0  0  0  0  0  0  0  0
   31.1470   35.1190   15.8250 C   0  0  1  0  0  0  0  0  0  0  0  0
   31.4530   31.9520   14.7900 O   0  0  0  0  0  0  0  0  0  0  0  0
   31.2140   32.5640   14.0290 H   0  0  0  0  0  0  0  0  0  0  0  0
   30.0990   31.1840   16.5270 C   0  0  0  0  0  0  0  0  0  0  0  0
   29.2910   30.4490   15.9090 O   0  0  0  0  0  0  0  0  0  0  0  0
   30.4110   30.8000   17.8220 O   0  0  0  0  0  0  0  0  0  0  0  0
   30.8070   29.8540   17.9390 H   0  0  0  0  0  0  0  0  0  0  0  0
   30.5100   34.5310   13.5740 O   0  0  0  0  0  0  0  0  0  0  0  0
   29.7110   34.3070   13.0260 H   0  0  0  0  0  0  0  0  0  0  0  0
   31.0260   36.5110   16.0950 N   0  0  0  0  0  0  0  0  0  0  0  0
   31.4860   37.4670   15.1550 C   0  0  0  0  0  0  0  0  0  0  0  0
   30.6010   36.8570   16.9770 H   0  0  0  0  0  0  0  0  0  0  0  0
   31.3350   38.9240   15.4860 C   0  0  0  0  0  0  0  0  0  0  0  0
   32.0110   37.1750   14.0660 O   0  0  0  0  0  0  0  0  0  0  0  0
   32.9300   35.4940   17.9880 O   0  0  0  0  0  0  0  0  0  0  0  0
   33.6490   34.8320   18.2430 H   0  0  0  0  0  0  0  0  0  0  0  0
   30.5840   33.3090   19.5380 O   0  0  0  0  0  0  0  0  0  0  0  0
   30.6730   32.3800   19.8290 H   0  0  0  0  0  0  0  0  0  0  0  0
   35.7450   36.0310   20.8190 O   0  0  0  0  0  0  0  0  0  0  0  0
   36.5620   35.0720   20.1760 C   0  0  0  0  0  0  0  0  0  0  0  0
   36.7150   35.3790   18.7470 C   0  0  0  0  0  0  0  0  0  0  0  0
   37.5630   34.8250   17.8110 C   0  0  0  0  0  0  0  0  0  0  0  0
   36.0100   36.3070   18.0780 N   0  0  0  0  0  0  0  0  0  0  0  0
   37.3540   35.4240   16.6080 N   0  0  0  0  0  0  0  0  0  0  0  0
   36.4100   36.3090   16.8170 N   0  0  0  0  0  0  0  0  0  0  0  0
   38.0090   35.1610   15.3750 C   0  0  0  0  0  0  0  0  0  0  0  0
   37.4300   34.3290   14.4270 C   0  0  0  0  0  0  0  0  0  0  0  0
   39.2310   35.7400   15.1240 C   0  0  0  0  0  0  0  0  0  0  0  0
   38.0450   34.0610   13.2300 C   0  0  0  0  0  0  0  0  0  0  0  0
   39.8810   35.4930   13.9270 C   0  0  0  0  0  0  0  0  0  0  0  0
   37.3190   33.0070   12.0200 Cl  0  0  0  0  0  0  0  0  0  0  0  0
   39.2710   34.6520   12.9970 C   0  0  0  0  0  0  0  0  0  0  0  0
   39.8220   36.6040   16.1190 C   0  0  0  0  0  0  0  0  0  0  0  0
   40.5780   36.1820   17.0390 O   0  0  0  0  0  0  0  0  0  0  0  0
   39.5590   37.9930   16.0890 N   0  0  0  0  0  0  0  0  0  0  0  0
   38.7020   38.5210   15.0570 C   0  0  0  0  0  0  0  0  0  0  0  0
   40.1280   38.9100   17.0660 C   0  0  0  0  0  0  0  0  0  0  0  0
   29.8670   25.5550   16.9770 C   0  0  0  0  0  0  0  0  0  0  0  0
   28.3450   25.7220   17.0260 C   0  0  0  0  0  0  0  0  0  0  0  0
   27.6000   24.4120   16.8220 C   0  0  0  0  0  0  0  0  0  0  0  0
   26.8020   24.0190   18.0340 C   0  0  0  0  0  0  0  0  0  0  0  0
   25.7010   23.0460   17.6260 C   0  0  0  0  0  0  0  0  0  0  0  0
   24.9130   22.6270   18.8090 N   0  0  0  0  0  0  0  0  0  0  0  0
  1  4  1  0  0  0  0
  2  1  1  0  0  0  0
  2 31  1  0  0  0  0
  3  2  2  0  0  0  0
  5  1  1  0  0  0  0
  6 29  1  0  0  0  0
  6  5  1  1  0  0  0
  7 27  1  6  0  0  0
  7  6  1  0  0  0  0
  8  7  1  1  0  0  0
  9 14  1  6  0  0  0
  9 16  1  0  0  0  0
  9 11  1  0  0  0  0
 10  9  1  0  0  0  0
 11  8  1  0  0  0  0
 12 20  1  6  0  0  0
 12 10  1  0  0  0  0
 12 13  1  0  0  0  0
 13 22  1  1  0  0  0
 13  8  1  0  0  0  0
 15 14  1  0  0  0  0
 16 18  1  0  0  0  0
 17 16  2  0  0  0  0
 18 19  1  0  0  0  0
 21 20  1  0  0  0  0
 22 24  1  0  0  0  0
 23 25  1  0  0  0  0
 23 22  1  0  0  0  0
 26 23  2  0  0  0  0
 27 28  1  0  0  0  0
 29 30  1  0  0  0  0
 32 31  1  0  0  0  0
 33 32  1  0  0  0  0
 34 33  2  0  0  0  0
 35 33  1  0  0  0  0
 36 37  1  0  0  0  0
 36 34  1  0  0  0  0
 37 35  2  0  0  0  0
 38 36  1  0  0  0  0
 39 38  2  0  0  0  0
 40 38  1  0  0  0  0
 40 45  1  0  0  0  0
 41 39  1  0  0  0  0
 42 40  2  0  0  0  0
 43 41  1  0  0  0  0
 44 41  2  0  0  0  0
 44 42  1  0  0  0  0
 45 46  2  0  0  0  0
 47 45  1  0  0  0  0
 47 49  1  0  0  0  0
 48 47  1  0  0  0  0
 50 51  1  0  0  0  0
 52 51  1  0  0  0  0
 52 53  1  0  0  0  0
 54 53  1  0  0  0  0
 54 55  1  0  0  0  0
M  END
>  <REMARK>
 VINA RESULT:    -5.067      5.715     10.355
 INTER + INTRA:         -15.252
 INTER:                  -9.189
 INTRA:                  -6.063
 UNBOUND:                -6.187
 SMILES CC(=O)N[C@@H]1[C@@H](O)C[C@](O)(C(=O)O)O[C@H]1C(O)[C@H](O)CNC(=O)OCc1cn(-c2cc(Cl)ccc2C(=O)N(C)C)nn1
 SMILES IDX 21 1 22 2 23 3 20 5 18 6 16 7 15 8 9 9 8 10 14 11 6 12 5 13
 SMILES IDX 10 14 11 16 12 17 13 18 7 20 4 22 2 23 1 25 3 26 17 27 19 29
 SMILES IDX 24 31 25 32 26 33 27 34 42 35 28 36 41 37 29 38 30 39 35 40
 SMILES IDX 31 41 34 42 32 43 33 44 36 45 37 46 38 47 39 48 40 49
 H PARENT 21 4 10 15 13 19 7 21 4 24 17 28 19 30
 Flexibility Score: inf
  4 active torsions:
  status: ('A' for Active; 'I' for Inactive)
    1  A    between atoms: CA   and  CB  
    2  A    between atoms: CB   and  CG  
    3  A    between atoms: CG   and  CD  
    4  A    between atoms: CD   and  CE  

>  <TORSDO>
F 16

>  <BEGIN_>
RES LYS A 131

$$$$
ligand_85_pose_3_2HRL.pdbqt
 OpenBabel07062320523D

  6  5  0  0  0  0  0  0  0  0999 V2000
   33.1930   34.6630    9.2900 C   0  0  0  0  0  0  0  0  0  0  0  0
   32.0600   35.3600   10.0340 C   0  0  0  0  0  0  0  0  0  0  0  0
   30.8800   35.6930    9.1590 C   0  0  0  0  0  0  0  0  0  0  0  0
   30.3670   34.4480    8.4520 C   0  0  0  0  0  0  0  0  0  0  0  0
   28.8520   34.4550    8.3920 C   0  0  0  0  0  0  0  0  0  0  0  0
   28.2650   33.7580    9.5700 N   0  0  0  0  0  0  0  0  0  0  0  0
  1  2  1  0  0  0  0
  3  2  1  0  0  0  0
  4  3  1  0  0  0  0
  5  4  1  0  0  0  0
  5  6  1  0  0  0  0
M  END
>  <EGIN_R>
ES LYS A 135

>  <REMARK>
  4 active torsions:
  status: ('A' for Active; 'I' for Inactive)
    5  A    between atoms: CA   and  CB  
    6  A    between atoms: CB   and  CG  
    7  A    between atoms: CG   and  CD  
    8  A    between atoms: CD   and  CE  

$$$$
