ligand_92_pose_16_2HRL.pdbqt
 OpenBabel07062320523D

 59 61  0  0  1  0  0  0  0  0999 V2000
   28.9810   30.1840   16.4500 N   0  0  0  0  0  0  0  0  0  0  0  0
   27.7620   30.3020   17.1550 C   0  0  0  0  0  0  0  0  0  0  0  0
   26.9750   31.2630   16.8560 O   0  0  0  0  0  0  0  0  0  0  0  0
   29.6220   29.4080   16.6860 H   0  0  0  0  0  0  0  0  0  0  0  0
   29.3490   31.1110   15.4140 C   0  0  0  0  0  0  0  0  0  0  0  0
   30.3900   32.1060   15.8640 C   0  0  2  0  0  0  0  0  0  0  0  0
   29.8980   33.5210   15.7710 C   0  0  1  0  0  0  0  0  0  0  0  0
   29.6040   33.9000   14.3080 C   0  0  2  0  0  0  0  0  0  0  0  0
   31.3500   35.3960   13.7760 C   0  0  2  0  0  0  0  0  0  0  0  0
   30.3170   36.4450   13.4140 C   0  0  0  0  0  0  0  0  0  0  0  0
   30.8030   34.1620   13.7190 O   0  0  0  0  0  0  0  0  0  0  0  0
   29.2280   36.3220   14.4520 C   0  0  1  0  0  0  0  0  0  0  0  0
   28.5830   34.9680   14.2880 C   0  0  1  0  0  0  0  0  0  0  0  0
   31.7280   35.6770   15.0960 O   0  0  0  0  0  0  0  0  0  0  0  0
   32.2710   34.9740   15.4970 H   0  0  0  0  0  0  0  0  0  0  0  0
   32.5670   35.5350   12.9340 C   0  0  0  0  0  0  0  0  0  0  0  0
   32.6560   36.4820   12.1390 O   0  0  0  0  0  0  0  0  0  0  0  0
   33.5980   34.6210   13.0250 O   0  0  0  0  0  0  0  0  0  0  0  0
   34.0280   34.2410   12.1690 H   0  0  0  0  0  0  0  0  0  0  0  0
   29.7570   36.5250   15.7220 O   0  0  0  0  0  0  0  0  0  0  0  0
   29.9750   35.6240   16.0990 H   0  0  0  0  0  0  0  0  0  0  0  0
   27.7590   35.0210   13.1230 N   0  0  0  0  0  0  0  0  0  0  0  0
   26.4500   34.4910   13.1480 C   0  0  0  0  0  0  0  0  0  0  0  0
   28.1140   35.4460   12.2500 H   0  0  0  0  0  0  0  0  0  0  0  0
   25.5270   34.5030   11.9860 C   0  0  0  0  0  0  0  0  0  0  0  0
   26.0510   33.9860   14.2050 O   0  0  0  0  0  0  0  0  0  0  0  0
   28.7360   33.7370   16.5490 O   0  0  0  0  0  0  0  0  0  0  0  0
   27.9910   33.8550   15.9320 H   0  0  0  0  0  0  0  0  0  0  0  0
   31.5010   31.8920   15.0200 O   0  0  0  0  0  0  0  0  0  0  0  0
   31.2000   32.1250   14.1070 H   0  0  0  0  0  0  0  0  0  0  0  0
   27.3670   29.4390   18.1560 O   0  0  0  0  0  0  0  0  0  0  0  0
   27.4260   29.8060   19.5410 C   0  0  0  0  0  0  0  0  0  0  0  0
   28.5610   29.0330   20.1270 C   0  0  0  0  0  0  0  0  0  0  0  0
   29.7120   29.5570   20.7200 C   0  0  0  0  0  0  0  0  0  0  0  0
   28.7210   27.6960   20.2120 N   0  0  0  0  0  0  0  0  0  0  0  0
   30.5010   28.5490   21.1270 N   0  0  0  0  0  0  0  0  0  0  0  0
   29.8640   27.4430   20.8010 N   0  0  0  0  0  0  0  0  0  0  0  0
   31.7570   28.7020   21.7740 C   0  0  0  0  0  0  0  0  0  0  0  0
   32.2380   27.7900   22.6860 C   0  0  0  0  0  0  0  0  0  0  0  0
   32.5400   29.8000   21.4930 C   0  0  0  0  0  0  0  0  0  0  0  0
   33.4720   27.9600   23.3110 C   0  0  0  0  0  0  0  0  0  0  0  0
   33.7600   29.9700   22.1080 C   0  0  0  0  0  0  0  0  0  0  0  0
   34.2630   29.0520   23.0370 C   0  0  0  0  0  0  0  0  0  0  0  0
   35.8140   29.2990   23.7810 S   0  0  0  0  0  0  0  0  0  0  0  0
   36.8290   28.5230   22.9520 O   0  0  0  0  0  0  0  0  0  0  0  0
   35.7850   28.6530   25.1230 O   0  0  0  0  0  0  0  0  0  0  0  0
   36.3000   30.9250   23.8770 N   0  0  0  0  0  0  0  0  0  0  0  0
   35.8250   31.5340   24.5980 H   0  0  0  0  0  0  0  0  0  0  0  0
   37.2740   31.5670   23.0980 C   0  0  0  0  0  0  0  0  0  0  0  0
   38.4330   31.9510   23.1270 N   0  0  0  0  0  0  0  0  0  0  0  0
   36.8330   32.1070   21.3410 S   0  0  0  0  0  0  0  0  0  0  0  0
   39.1140   32.5460   22.2010 C   0  0  0  0  0  0  0  0  0  0  0  0
   38.5230   32.8100   21.0140 C   0  0  0  0  0  0  0  0  0  0  0  0
   29.8670   25.5550   16.9770 C   0  0  0  0  0  0  0  0  0  0  0  0
   28.3450   25.7220   17.0260 C   0  0  0  0  0  0  0  0  0  0  0  0
   27.6020   24.3990   16.9230 C   0  0  0  0  0  0  0  0  0  0  0  0
   26.6380   24.2010   18.0600 C   0  0  0  0  0  0  0  0  0  0  0  0
   25.9780   25.5320   18.4050 C   0  0  0  0  0  0  0  0  0  0  0  0
   25.7630   25.6410   19.8680 N   0  0  0  0  0  0  0  0  0  0  0  0
  1  4  1  0  0  0  0
  1  2  1  0  0  0  0
  2 31  1  0  0  0  0
  3  2  2  0  0  0  0
  5  1  1  0  0  0  0
  6  5  1  6  0  0  0
  7  6  1  0  0  0  0
  7 27  1  1  0  0  0
  8  7  1  1  0  0  0
  9 16  1  6  0  0  0
  9 14  1  0  0  0  0
 10  9  1  0  0  0  0
 10 12  1  0  0  0  0
 11  9  1  0  0  0  0
 11  8  1  0  0  0  0
 12 20  1  1  0  0  0
 13 22  1  6  0  0  0
 13  8  1  0  0  0  0
 13 12  1  0  0  0  0
 14 15  1  0  0  0  0
 16 18  1  0  0  0  0
 17 16  2  0  0  0  0
 19 18  1  0  0  0  0
 20 21  1  0  0  0  0
 22 23  1  0  0  0  0
 23 26  2  0  0  0  0
 24 22  1  0  0  0  0
 25 23  1  0  0  0  0
 28 27  1  0  0  0  0
 29  6  1  0  0  0  0
 30 29  1  0  0  0  0
 31 32  1  0  0  0  0
 32 33  1  0  0  0  0
 33 35  1  0  0  0  0
 33 34  2  0  0  0  0
 34 36  1  0  0  0  0
 35 37  2  0  0  0  0
 36 38  1  0  0  0  0
 37 36  1  0  0  0  0
 38 39  1  0  0  0  0
 39 41  2  0  0  0  0
 40 38  2  0  0  0  0
 40 42  1  0  0  0  0
 42 43  2  0  0  0  0
 43 41  1  0  0  0  0
 43 44  1  0  0  0  0
 44 47  1  0  0  0  0
 44 46  2  0  0  0  0
 45 44  2  0  0  0  0
 47 48  1  0  0  0  0
 49 50  2  0  0  0  0
 49 47  1  0  0  0  0
 51 49  1  0  0  0  0
 52 50  1  0  0  0  0
 53 51  1  0  0  0  0
 53 52  2  0  0  0  0
 54 55  1  0  0  0  0
 56 55  1  0  0  0  0
 56 57  1  0  0  0  0
 57 58  1  0  0  0  0
 58 59  1  0  0  0  0
M  END
>  <REMARK>
 VINA RESULT:    -4.862      3.289      9.026
 INTER + INTRA:         -15.676
 INTER:                 -10.398
 INTRA:                  -5.277
 UNBOUND:                -6.408
 SMILES CC(=O)N[C@@H]1[C@@H](O)C[C@](O)(C(=O)O)O[C@H]1C(O)[C@H](O)CNC(=O)OCc1cn(-c2ccc(S(=O)(=O)Nc3nccs3)cc2)nn1
 SMILES IDX 21 1 22 2 23 3 20 5 18 6 16 7 15 8 9 9 8 10 14 11 6 12 5 13
 SMILES IDX 10 14 11 16 12 17 13 18 7 20 4 22 2 23 1 25 3 26 17 27 19 29
 SMILES IDX 24 31 25 32 26 33 27 34 45 35 28 36 44 37 29 38 30 39 43 40
 SMILES IDX 31 41 42 42 32 43 33 44 34 45 35 46 36 47 37 49 38 50 41 51
 SMILES IDX 39 52 40 53
 H PARENT 21 4 10 15 13 19 7 21 4 24 17 28 19 30 36 48
 Flexibility Score: inf
  4 active torsions:
  status: ('A' for Active; 'I' for Inactive)
    1  A    between atoms: CA   and  CB  
    2  A    between atoms: CB   and  CG  
    3  A    between atoms: CG   and  CD  
    4  A    between atoms: CD   and  CE  

>  <TORSDO>
F 18

>  <BEGIN_>
RES LYS A 131

$$$$
ligand_92_pose_16_2HRL.pdbqt
 OpenBabel07062320523D

  6  5  0  0  0  0  0  0  0  0999 V2000
   33.1930   34.6630    9.2900 C   0  0  0  0  0  0  0  0  0  0  0  0
   32.0600   35.3600   10.0340 C   0  0  0  0  0  0  0  0  0  0  0  0
   30.6980   34.7970    9.7210 C   0  0  0  0  0  0  0  0  0  0  0  0
   30.5690   34.4960    8.2360 C   0  0  0  0  0  0  0  0  0  0  0  0
   29.2700   35.0540    7.6900 C   0  0  0  0  0  0  0  0  0  0  0  0
   29.1870   36.5260    7.9020 N   0  0  0  0  0  0  0  0  0  0  0  0
  1  2  1  0  0  0  0
  3  2  1  0  0  0  0
  4  3  1  0  0  0  0
  5  6  1  0  0  0  0
  5  4  1  0  0  0  0
M  END
>  <EGIN_R>
ES LYS A 135

>  <REMARK>
  4 active torsions:
  status: ('A' for Active; 'I' for Inactive)
    5  A    between atoms: CA   and  CB  
    6  A    between atoms: CB   and  CG  
    7  A    between atoms: CG   and  CD  
    8  A    between atoms: CD   and  CE  

$$$$
