ligand_30_pose_2_2HRL.pdbqt
 OpenBabel07062320523D

 57 57  0  0  1  0  0  0  0  0999 V2000
   28.5740   35.6540   12.6030 C   0  0  0  0  0  0  0  0  0  0  0  0
   27.9680   36.5860   11.6920 N   0  0  0  0  0  0  0  0  0  0  0  0
   26.5880   37.8410   10.5380 C   0  0  0  0  0  0  0  0  0  0  0  0
   26.6510   36.9000   11.5300 C   0  0  0  0  0  0  0  0  0  0  0  0
   27.8510   38.0770   10.1230 N   0  0  0  0  0  0  0  0  0  0  0  0
   28.6440   37.3170   10.8290 N   0  0  0  0  0  0  0  0  0  0  0  0
   25.3450   38.4640   10.0350 C   0  0  0  0  0  0  0  0  0  0  0  0
   24.7110   37.6240    9.0960 O   0  0  0  0  0  0  0  0  0  0  0  0
   25.4570   36.8100    8.2550 C   0  0  0  0  0  0  0  0  0  0  0  0
   26.2790   37.3500    7.2300 N   0  0  0  0  0  0  0  0  0  0  0  0
   26.3350   38.3820    7.0880 H   0  0  0  0  0  0  0  0  0  0  0  0
   25.3900   35.5440    8.4250 O   0  0  0  0  0  0  0  0  0  0  0  0
   27.0310   36.4760    6.3870 C   0  0  0  0  0  0  0  0  0  0  0  0
   28.5030   36.8290    6.3470 C   0  0  2  0  0  0  0  0  0  0  0  0
   28.7520   37.8790    5.3060 C   0  0  2  0  0  0  0  0  0  0  0  0
   29.3220   39.1220    5.9540 C   0  0  2  0  0  0  0  0  0  0  0  0
   30.4400   39.8070    7.8640 C   0  0  2  0  0  0  0  0  0  0  0  0
   29.8490   41.1530    7.5110 C   0  0  0  0  0  0  0  0  0  0  0  0
   29.8430   38.7680    7.1690 O   0  0  0  0  0  0  0  0  0  0  0  0
   28.3700   40.9780    7.3020 C   0  0  1  0  0  0  0  0  0  0  0  0
   28.2150   40.1440    6.0220 C   0  0  1  0  0  0  0  0  0  0  0  0
   30.1760   39.5980    9.2150 O   0  0  0  0  0  0  0  0  0  0  0  0
   29.2330   39.3570    9.3630 H   0  0  0  0  0  0  0  0  0  0  0  0
   31.8880   39.8870    7.6660 C   0  0  0  0  0  0  0  0  0  0  0  0
   32.5070   40.9070    8.0540 O   0  0  0  0  0  0  0  0  0  0  0  0
   32.6470   38.8910    7.0650 O   0  0  0  0  0  0  0  0  0  0  0  0
   32.2120   37.9670    6.9140 H   0  0  0  0  0  0  0  0  0  0  0  0
   27.7810   40.3680    8.3890 O   0  0  0  0  0  0  0  0  0  0  0  0
   27.2620   39.5920    8.0620 H   0  0  0  0  0  0  0  0  0  0  0  0
   28.3060   41.0890    4.9300 N   0  0  0  0  0  0  0  0  0  0  0  0
   27.1330   41.3850    4.1950 C   0  0  0  0  0  0  0  0  0  0  0  0
   29.2090   41.5580    4.6710 H   0  0  0  0  0  0  0  0  0  0  0  0
   27.1840   42.3570    3.0600 C   0  0  0  0  0  0  0  0  0  0  0  0
   26.0530   40.8380    4.4910 O   0  0  0  0  0  0  0  0  0  0  0  0
   27.5410   38.1340    4.6540 O   0  0  0  0  0  0  0  0  0  0  0  0
   26.8030   38.3090    5.2630 H   0  0  0  0  0  0  0  0  0  0  0  0
   29.2850   35.7170    6.0350 O   0  0  0  0  0  0  0  0  0  0  0  0
   30.2360   35.9090    6.1390 H   0  0  0  0  0  0  0  0  0  0  0  0
   29.8490   36.2490   13.1390 C   0  0  0  0  0  0  0  0  0  0  0  0
   31.0700   35.4650   12.7500 C   0  0  0  0  0  0  0  0  0  0  0  0
   32.3500   36.1760   13.1090 C   0  0  0  0  0  0  0  0  0  0  0  0
   33.4930   35.1670   13.1790 C   0  0  0  0  0  0  0  0  0  0  0  0
   33.4870   34.5210   14.5400 C   0  0  0  0  0  0  0  0  0  0  0  0
   33.1870   35.5160   15.6240 C   0  0  0  0  0  0  0  0  0  0  0  0
   32.2510   34.9330   16.6300 C   0  0  0  0  0  0  0  0  0  0  0  0
   31.4460   33.7840   16.0290 C   0  0  0  0  0  0  0  0  0  0  0  0
   31.0180   32.7860   17.0700 C   0  0  0  0  0  0  0  0  0  0  0  0
   30.1610   31.7800   16.3680 C   0  0  0  0  0  0  0  0  0  0  0  0
   29.4610   32.0510   15.3700 O   0  0  0  0  0  0  0  0  0  0  0  0
   30.1340   30.4660   16.8390 O   0  0  0  0  0  0  0  0  0  0  0  0
   30.1580   29.7110   16.1750 H   0  0  0  0  0  0  0  0  0  0  0  0
   29.8670   25.5550   16.9770 C   0  0  0  0  0  0  0  0  0  0  0  0
   28.3450   25.7220   17.0260 C   0  0  0  0  0  0  0  0  0  0  0  0
   27.6370   24.5160   17.6250 C   0  0  0  0  0  0  0  0  0  0  0  0
   26.2390   24.3600   17.0960 C   0  0  0  0  0  0  0  0  0  0  0  0
   25.6230   23.0810   17.6560 C   0  0  0  0  0  0  0  0  0  0  0  0
   25.5060   23.1650   19.1310 N   0  0  0  0  0  0  0  0  0  0  0  0
  1 39  1  0  0  0  0
  2  1  1  0  0  0  0
  3  4  2  0  0  0  0
  4  2  1  0  0  0  0
  5  3  1  0  0  0  0
  5  6  2  0  0  0  0
  6  2  1  0  0  0  0
  7  3  1  0  0  0  0
  8  7  1  0  0  0  0
  9 12  2  0  0  0  0
  9  8  1  0  0  0  0
 10  9  1  0  0  0  0
 11 10  1  0  0  0  0
 13 10  1  0  0  0  0
 14 13  1  6  0  0  0
 15 35  1  1  0  0  0
 15 14  1  0  0  0  0
 16 15  1  1  0  0  0
 16 21  1  0  0  0  0
 16 19  1  0  0  0  0
 17 24  1  6  0  0  0
 17 22  1  0  0  0  0
 18 17  1  0  0  0  0
 19 17  1  0  0  0  0
 20 18  1  0  0  0  0
 20 28  1  1  0  0  0
 21 30  1  6  0  0  0
 21 20  1  0  0  0  0
 22 23  1  0  0  0  0
 24 25  2  0  0  0  0
 26 24  1  0  0  0  0
 27 26  1  0  0  0  0
 29 28  1  0  0  0  0
 31 34  2  0  0  0  0
 31 30  1  0  0  0  0
 32 30  1  0  0  0  0
 33 31  1  0  0  0  0
 35 36  1  0  0  0  0
 37 38  1  0  0  0  0
 37 14  1  0  0  0  0
 40 41  1  0  0  0  0
 40 39  1  0  0  0  0
 41 42  1  0  0  0  0
 42 43  1  0  0  0  0
 43 44  1  0  0  0  0
 44 45  1  0  0  0  0
 46 45  1  0  0  0  0
 46 47  1  0  0  0  0
 48 50  1  0  0  0  0
 48 47  1  0  0  0  0
 49 48  2  0  0  0  0
 51 50  1  0  0  0  0
 52 53  1  0  0  0  0
 53 54  1  0  0  0  0
 55 54  1  0  0  0  0
 55 56  1  0  0  0  0
 56 57  1  0  0  0  0
M  END
>  <REMARK>
 VINA RESULT:    -4.062      5.887     11.303
 INTER + INTRA:         -17.822
 INTER:                 -11.171
 INTRA:                  -6.650
 UNBOUND:                -8.298
 SMILES CC(=O)N[C@@H]1[C@@H](O)C[C@](O)(C(=O)O)O[C@H]1C(O)[C@H](O)CNC(=O)OCc1cn(CCCCCCCCCCC(=O)O)nn1
 SMILES IDX 29 1 28 2 26 3 27 4 43 5 42 6 25 7 24 8 22 9 21 10 23 12
 SMILES IDX 20 13 18 14 16 15 15 16 9 17 8 18 14 19 6 20 5 21 10 22
 SMILES IDX 11 24 12 25 13 26 7 28 4 30 2 31 1 33 3 34 17 35 19 37 30 39
 SMILES IDX 31 40 32 41 33 42 34 43 35 44 36 45 37 46 38 47 39 48 40 49
 SMILES IDX 41 50
 H PARENT 21 11 10 23 13 27 7 29 4 32 17 36 19 38 41 51
 Flexibility Score: inf
  4 active torsions:
  status: ('A' for Active; 'I' for Inactive)
    1  A    between atoms: CA   and  CB  
    2  A    between atoms: CB   and  CG  
    3  A    between atoms: CG   and  CD  
    4  A    between atoms: CD   and  CE  

>  <TORSDO>
F 26

>  <BEGIN_>
RES LYS A 131

$$$$
ligand_30_pose_2_2HRL.pdbqt
 OpenBabel07062320523D

  6  5  0  0  0  0  0  0  0  0999 V2000
   33.1930   34.6630    9.2900 C   0  0  0  0  0  0  0  0  0  0  0  0
   32.0600   35.3600   10.0340 C   0  0  0  0  0  0  0  0  0  0  0  0
   30.7800   35.4430    9.2420 C   0  0  0  0  0  0  0  0  0  0  0  0
   30.0570   34.1050    9.2500 C   0  0  0  0  0  0  0  0  0  0  0  0
   28.5980   34.2860    8.8790 C   0  0  0  0  0  0  0  0  0  0  0  0
   27.7100   33.5410    9.8130 N   0  0  0  0  0  0  0  0  0  0  0  0
  1  2  1  0  0  0  0
  3  4  1  0  0  0  0
  3  2  1  0  0  0  0
  5  4  1  0  0  0  0
  5  6  1  0  0  0  0
M  END
>  <EGIN_R>
ES LYS A 135

>  <REMARK>
  4 active torsions:
  status: ('A' for Active; 'I' for Inactive)
    5  A    between atoms: CA   and  CB  
    6  A    between atoms: CB   and  CG  
    7  A    between atoms: CG   and  CD  
    8  A    between atoms: CD   and  CE  

$$$$
