ligand_77_pose_8_2HRL.pdbqt
 OpenBabel07062320523D

 61 63  0  0  1  0  0  0  0  0999 V2000
   29.0760   28.2710   20.2780 N   0  0  0  0  0  0  0  0  0  0  0  0
   27.8140   28.8140   20.6160 C   0  0  0  0  0  0  0  0  0  0  0  0
   27.2820   28.5220   21.6920 O   0  0  0  0  0  0  0  0  0  0  0  0
   29.4600   28.5800   19.3310 H   0  0  0  0  0  0  0  0  0  0  0  0
   29.8410   27.3620   21.1010 C   0  0  0  0  0  0  0  0  0  0  0  0
   31.2870   27.7070   21.0030 C   0  0  2  0  0  0  0  0  0  0  0  0
   31.5370   29.2000   20.9610 C   0  0  1  0  0  0  0  0  0  0  0  0
   32.8700   29.6220   21.4780 C   0  0  2  0  0  0  0  0  0  0  0  0
   34.2500   29.1520   23.2790 C   0  0  2  0  0  0  0  0  0  0  0  0
   35.0800   30.3480   22.9290 C   0  0  0  0  0  0  0  0  0  0  0  0
   33.5180   28.6570   22.2140 O   0  0  0  0  0  0  0  0  0  0  0  0
   34.3630   31.3980   22.1590 C   0  0  1  0  0  0  0  0  0  0  0  0
   32.8790   30.9980   22.0960 C   0  0  1  0  0  0  0  0  0  0  0  0
   33.4270   29.4060   24.4000 O   0  0  0  0  0  0  0  0  0  0  0  0
   32.5690   29.7370   24.0830 H   0  0  0  0  0  0  0  0  0  0  0  0
   35.1830   28.0680   23.7070 C   0  0  0  0  0  0  0  0  0  0  0  0
   34.8520   26.8620   23.4870 O   0  0  0  0  0  0  0  0  0  0  0  0
   36.3860   28.2910   24.3270 O   0  0  0  0  0  0  0  0  0  0  0  0
   36.9990   27.5130   24.5610 H   0  0  0  0  0  0  0  0  0  0  0  0
   34.5040   32.6730   22.6840 O   0  0  0  0  0  0  0  0  0  0  0  0
   33.7100   32.8770   23.2720 H   0  0  0  0  0  0  0  0  0  0  0  0
   32.2030   31.9010   21.1720 N   0  0  0  0  0  0  0  0  0  0  0  0
   31.4910   33.0220   21.6670 C   0  0  0  0  0  0  0  0  0  0  0  0
   32.2190   31.7560   20.1410 H   0  0  0  0  0  0  0  0  0  0  0  0
   30.7800   33.9720   20.7400 C   0  0  0  0  0  0  0  0  0  0  0  0
   31.4100   33.2870   22.8850 O   0  0  0  0  0  0  0  0  0  0  0  0
   31.3450   29.5770   19.6260 O   0  0  0  0  0  0  0  0  0  0  0  0
   30.4650   30.0040   19.5580 H   0  0  0  0  0  0  0  0  0  0  0  0
   31.8970   27.0230   19.9620 O   0  0  0  0  0  0  0  0  0  0  0  0
   32.7420   26.6300   20.2950 H   0  0  0  0  0  0  0  0  0  0  0  0
   27.1200   29.6840   19.7810 O   0  0  0  0  0  0  0  0  0  0  0  0
   26.6650   29.2900   18.4950 C   0  0  0  0  0  0  0  0  0  0  0  0
   27.5670   29.7790   17.4150 C   0  0  0  0  0  0  0  0  0  0  0  0
   28.3800   30.8740   17.5290 C   0  0  0  0  0  0  0  0  0  0  0  0
   27.7520   29.2740   16.1870 N   0  0  0  0  0  0  0  0  0  0  0  0
   29.0470   31.0140   16.3600 N   0  0  0  0  0  0  0  0  0  0  0  0
   28.6430   30.0410   15.5920 N   0  0  0  0  0  0  0  0  0  0  0  0
   29.9840   32.0520   16.1180 C   0  0  0  0  0  0  0  0  0  0  0  0
   30.1110   32.5910   14.8570 C   0  0  0  0  0  0  0  0  0  0  0  0
   30.7950   32.5600   17.1090 C   0  0  0  0  0  0  0  0  0  0  0  0
   31.0120   33.6050   14.5770 C   0  0  0  0  0  0  0  0  0  0  0  0
   31.7090   33.5830   16.8370 C   0  0  0  0  0  0  0  0  0  0  0  0
   31.8170   34.1050   15.5710 C   0  0  0  0  0  0  0  0  0  0  0  0
   32.9410   35.3700   15.2210 S   0  0  0  0  0  0  0  0  0  0  0  0
   34.1500   34.8070   14.5560 O   0  0  0  0  0  0  0  0  0  0  0  0
   33.3890   36.1010   16.4520 O   0  0  0  0  0  0  0  0  0  0  0  0
   32.1260   36.5370   14.1840 C   0  0  0  0  0  0  0  0  0  0  0  0
   31.3260   37.4870   14.7610 C   0  0  0  0  0  0  0  0  0  0  0  0
   32.2790   36.5130   12.8020 C   0  0  0  0  0  0  0  0  0  0  0  0
   30.6640   38.4280   13.9820 C   0  0  0  0  0  0  0  0  0  0  0  0
   31.6330   37.4360   11.9950 C   0  0  0  0  0  0  0  0  0  0  0  0
   30.8390   38.3730   12.6130 C   0  0  0  0  0  0  0  0  0  0  0  0
   30.1710   39.3240   11.8080 N   0  0  0  0  0  0  0  0  0  0  0  0
   29.6400   40.0960   12.2430 H   0  0  0  0  0  0  0  0  0  0  0  0
   30.2170   39.2400   10.7780 H   0  0  0  0  0  0  0  0  0  0  0  0
   29.8670   25.5550   16.9770 C   0  0  0  0  0  0  0  0  0  0  0  0
   28.3450   25.7220   17.0260 C   0  0  0  0  0  0  0  0  0  0  0  0
   27.6020   24.3990   16.9270 C   0  0  0  0  0  0  0  0  0  0  0  0
   26.2220   24.4780   17.5190 C   0  0  0  0  0  0  0  0  0  0  0  0
   26.2490   25.3730   18.7530 C   0  0  0  0  0  0  0  0  0  0  0  0
   24.9220   25.9980   18.9700 N   0  0  0  0  0  0  0  0  0  0  0  0
  1  2  1  0  0  0  0
  1  5  1  0  0  0  0
  2  3  2  0  0  0  0
  4  1  1  0  0  0  0
  6  5  1  6  0  0  0
  7 27  1  6  0  0  0
  7  6  1  0  0  0  0
  8  7  1  1  0  0  0
  8 13  1  0  0  0  0
  8 11  1  0  0  0  0
  9 16  1  1  0  0  0
  9 14  1  0  0  0  0
 10  9  1  0  0  0  0
 11  9  1  0  0  0  0
 12 20  1  1  0  0  0
 12 10  1  0  0  0  0
 13 22  1  6  0  0  0
 13 12  1  0  0  0  0
 15 14  1  0  0  0  0
 16 18  1  0  0  0  0
 17 16  2  0  0  0  0
 18 19  1  0  0  0  0
 20 21  1  0  0  0  0
 22 23  1  0  0  0  0
 23 26  2  0  0  0  0
 24 22  1  0  0  0  0
 25 23  1  0  0  0  0
 28 27  1  0  0  0  0
 29 30  1  0  0  0  0
 29  6  1  0  0  0  0
 31  2  1  0  0  0  0
 32 31  1  0  0  0  0
 33 34  2  0  0  0  0
 33 32  1  0  0  0  0
 35 33  1  0  0  0  0
 36 34  1  0  0  0  0
 37 35  2  0  0  0  0
 37 36  1  0  0  0  0
 38 36  1  0  0  0  0
 38 40  2  0  0  0  0
 39 38  1  0  0  0  0
 41 39  2  0  0  0  0
 41 43  1  0  0  0  0
 42 40  1  0  0  0  0
 43 42  2  0  0  0  0
 44 43  1  0  0  0  0
 44 46  2  0  0  0  0
 45 44  2  0  0  0  0
 47 48  1  0  0  0  0
 47 44  1  0  0  0  0
 49 47  2  0  0  0  0
 50 48  2  0  0  0  0
 51 52  2  0  0  0  0
 51 49  1  0  0  0  0
 52 50  1  0  0  0  0
 53 54  1  0  0  0  0
 53 52  1  0  0  0  0
 55 53  1  0  0  0  0
 56 57  1  0  0  0  0
 58 57  1  0  0  0  0
 58 59  1  0  0  0  0
 59 60  1  0  0  0  0
 60 61  1  0  0  0  0
M  END
>  <REMARK>
 VINA RESULT:    -5.239      1.883      2.734
 INTER + INTRA:         -16.361
 INTER:                 -10.567
 INTRA:                  -5.793
 UNBOUND:                -6.527
 SMILES CC(=O)N[C@@H]1[C@@H](O)C[C@](O)(C(=O)O)O[C@H]1C(O)[C@H](O)CNC(=O)OCc1cn(-c2ccc(S(=O)(=O)c3ccc(N)cc3)cc2)nn1
 SMILES IDX 21 1 22 2 23 3 20 5 18 6 16 7 15 8 9 9 8 10 14 11 6 12 5 13
 SMILES IDX 10 14 11 16 12 17 13 18 7 20 4 22 2 23 1 25 3 26 17 27 19 29
 SMILES IDX 24 31 25 32 26 33 27 34 46 35 28 36 45 37 29 38 30 39 44 40
 SMILES IDX 31 41 43 42 32 43 33 44 34 45 35 46 36 47 37 48 42 49 38 50
 SMILES IDX 41 51 39 52 40 53
 H PARENT 21 4 10 15 13 19 7 21 4 24 17 28 19 30 40 54 40 55
 Flexibility Score: inf
  4 active torsions:
  status: ('A' for Active; 'I' for Inactive)
    1  A    between atoms: CA   and  CB  
    2  A    between atoms: CB   and  CG  
    3  A    between atoms: CG   and  CD  
    4  A    between atoms: CD   and  CE  

>  <TORSDO>
F 18

>  <BEGIN_>
RES LYS A 131

$$$$
ligand_77_pose_8_2HRL.pdbqt
 OpenBabel07062320523D

  6  5  0  0  0  0  0  0  0  0999 V2000
   33.1930   34.6630    9.2900 C   0  0  0  0  0  0  0  0  0  0  0  0
   32.0600   35.3600   10.0340 C   0  0  0  0  0  0  0  0  0  0  0  0
   30.7110   34.7270    9.8070 C   0  0  0  0  0  0  0  0  0  0  0  0
   30.4610   34.5140    8.3220 C   0  0  0  0  0  0  0  0  0  0  0  0
   29.0100   34.7920    7.9810 C   0  0  0  0  0  0  0  0  0  0  0  0
   28.8960   35.5790    6.7220 N   0  0  0  0  0  0  0  0  0  0  0  0
  1  2  1  0  0  0  0
  3  2  1  0  0  0  0
  4  3  1  0  0  0  0
  5  4  1  0  0  0  0
  6  5  1  0  0  0  0
M  END
>  <EGIN_R>
ES LYS A 135

>  <REMARK>
  4 active torsions:
  status: ('A' for Active; 'I' for Inactive)
    5  A    between atoms: CA   and  CB  
    6  A    between atoms: CB   and  CG  
    7  A    between atoms: CG   and  CD  
    8  A    between atoms: CD   and  CE  

$$$$
