ligand_66_pose_8_2HRL.pdbqt
 OpenBabel07062320523D

 52 53  0  0  1  0  0  0  0  0999 V2000
   27.8830   34.7280   12.0370 N   0  0  0  0  0  0  0  0  0  0  0  0
   27.3970   35.6430   11.0960 C   0  0  0  0  0  0  0  0  0  0  0  0
   27.9030   36.7780   10.9880 O   0  0  0  0  0  0  0  0  0  0  0  0
   27.4040   33.7780   12.0660 H   0  0  0  0  0  0  0  0  0  0  0  0
   28.9700   35.0040   12.9390 C   0  0  0  0  0  0  0  0  0  0  0  0
   29.0630   34.0170   14.0680 C   0  0  2  0  0  0  0  0  0  0  0  0
   28.1070   34.2150   15.1790 C   0  0  2  0  0  0  0  0  0  0  0  0
   27.8670   32.9770   16.0600 C   0  0  2  0  0  0  0  0  0  0  0  0
   28.2730   30.7370   16.1380 C   0  0  2  0  0  0  0  0  0  0  0  0
   26.7920   30.4260   16.0770 C   0  0  0  0  0  0  0  0  0  0  0  0
   28.4710   31.9290   15.4910 O   0  0  0  0  0  0  0  0  0  0  0  0
   25.9830   31.4780   16.7860 C   0  0  1  0  0  0  0  0  0  0  0  0
   26.4530   32.8720   16.4890 C   0  0  1  0  0  0  0  0  0  0  0  0
   28.9540   29.7090   15.4390 O   0  0  0  0  0  0  0  0  0  0  0  0
   29.0930   30.0880   14.5240 H   0  0  0  0  0  0  0  0  0  0  0  0
   28.7310   30.6630   17.5290 C   0  0  0  0  0  0  0  0  0  0  0  0
   28.1630   29.9390   18.3800 O   0  0  0  0  0  0  0  0  0  0  0  0
   29.8340   31.3920   18.0200 O   0  0  0  0  0  0  0  0  0  0  0  0
   30.1180   31.1510   18.9730 H   0  0  0  0  0  0  0  0  0  0  0  0
   24.6540   31.3230   16.3950 O   0  0  0  0  0  0  0  0  0  0  0  0
   24.5270   30.5660   15.7850 H   0  0  0  0  0  0  0  0  0  0  0  0
   26.1970   33.7080   17.6460 N   0  0  0  0  0  0  0  0  0  0  0  0
   24.9740   34.4560   17.8040 C   0  0  0  0  0  0  0  0  0  0  0  0
   26.8700   33.8340   18.4440 H   0  0  0  0  0  0  0  0  0  0  0  0
   24.7550   35.3070   19.0160 C   0  0  0  0  0  0  0  0  0  0  0  0
   24.0880   34.3970   16.9290 O   0  0  0  0  0  0  0  0  0  0  0  0
   26.8480   34.6410   14.7540 O   0  0  0  0  0  0  0  0  0  0  0  0
   26.5730   35.4980   15.1640 H   0  0  0  0  0  0  0  0  0  0  0  0
   30.4030   33.9120   14.4370 O   0  0  0  0  0  0  0  0  0  0  0  0
   30.5890   34.6150   15.1060 H   0  0  0  0  0  0  0  0  0  0  0  0
   26.3370   35.3500   10.2380 O   0  0  0  0  0  0  0  0  0  0  0  0
   25.1620   36.1120   10.3390 C   0  0  0  0  0  0  0  0  0  0  0  0
   24.1300   35.3130   11.0310 C   0  0  0  0  0  0  0  0  0  0  0  0
   24.2560   34.5790   12.1890 C   0  0  0  0  0  0  0  0  0  0  0  0
   22.8530   35.1630   10.6360 N   0  0  0  0  0  0  0  0  0  0  0  0
   23.0670   34.0110   12.4630 N   0  0  0  0  0  0  0  0  0  0  0  0
   22.2440   34.3940   11.4930 N   0  0  0  0  0  0  0  0  0  0  0  0
   22.6630   33.1640   13.5520 C   0  0  0  0  0  0  0  0  0  0  0  0
   22.7530   31.7180   13.1610 C   0  0  0  0  0  0  0  0  0  0  0  0
   23.9720   31.0770   13.1830 C   0  0  0  0  0  0  0  0  0  0  0  0
   21.6480   31.0030   12.7830 C   0  0  0  0  0  0  0  0  0  0  0  0
   24.0620   29.7270   12.8250 C   0  0  0  0  0  0  0  0  0  0  0  0
   21.6990   29.6720   12.4260 C   0  0  0  0  0  0  0  0  0  0  0  0
   22.9170   29.0320   12.4480 C   0  0  0  0  0  0  0  0  0  0  0  0
   20.5570   28.9040   12.0280 C   0  0  0  0  0  0  0  0  0  0  0  0
   19.6300   28.2830   11.6850 N   0  0  0  0  0  0  0  0  0  0  0  0
   29.8670   25.5550   16.9770 C   0  0  0  0  0  0  0  0  0  0  0  0
   28.3450   25.7220   17.0260 C   0  0  0  0  0  0  0  0  0  0  0  0
   27.6010   24.4030   16.8860 C   0  0  0  0  0  0  0  0  0  0  0  0
   26.5400   24.2360   17.9380 C   0  0  0  0  0  0  0  0  0  0  0  0
   25.2020   24.7240   17.3930 C   0  0  0  0  0  0  0  0  0  0  0  0
   24.3600   23.5760   16.9800 N   0  0  0  0  0  0  0  0  0  0  0  0
  1  4  1  0  0  0  0
  1  5  1  0  0  0  0
  2  1  1  0  0  0  0
  3  2  2  0  0  0  0
  6  5  1  6  0  0  0
  6 29  1  0  0  0  0
  6  7  1  0  0  0  0
  7 27  1  6  0  0  0
  8  7  1  6  0  0  0
  8 13  1  0  0  0  0
  9 14  1  6  0  0  0
  9 16  1  0  0  0  0
 10  9  1  0  0  0  0
 10 12  1  0  0  0  0
 11  8  1  0  0  0  0
 11  9  1  0  0  0  0
 12 20  1  6  0  0  0
 13 12  1  0  0  0  0
 13 22  1  1  0  0  0
 15 14  1  0  0  0  0
 16 18  1  0  0  0  0
 16 17  2  0  0  0  0
 18 19  1  0  0  0  0
 21 20  1  0  0  0  0
 22 23  1  0  0  0  0
 22 24  1  0  0  0  0
 23 25  1  0  0  0  0
 26 23  2  0  0  0  0
 27 28  1  0  0  0  0
 29 30  1  0  0  0  0
 31 32  1  0  0  0  0
 31  2  1  0  0  0  0
 32 33  1  0  0  0  0
 33 34  2  0  0  0  0
 34 36  1  0  0  0  0
 35 33  1  0  0  0  0
 35 37  2  0  0  0  0
 36 38  1  0  0  0  0
 37 36  1  0  0  0  0
 39 40  1  0  0  0  0
 39 38  1  0  0  0  0
 41 39  2  0  0  0  0
 42 40  2  0  0  0  0
 43 44  2  0  0  0  0
 43 41  1  0  0  0  0
 44 42  1  0  0  0  0
 45 43  1  0  0  0  0
 46 45  3  0  0  0  0
 47 48  1  0  0  0  0
 49 48  1  0  0  0  0
 49 50  1  0  0  0  0
 51 50  1  0  0  0  0
 52 51  1  0  0  0  0
M  END
>  <REMARK>
 VINA RESULT:    -5.020      2.559      5.385
 INTER + INTRA:         -14.487
 INTER:                  -8.731
 INTRA:                  -5.756
 UNBOUND:                -5.212
 SMILES CC(=O)N[C@@H]1[C@@H](O)C[C@](O)(C(=O)O)O[C@H]1C(O)[C@H](O)CNC(=O)OCc1cn(Cc2cccc(C#N)c2)nn1
 SMILES IDX 21 1 22 2 23 3 20 5 18 6 16 7 15 8 9 9 8 10 14 11 6 12 5 13
 SMILES IDX 10 14 11 16 12 17 13 18 7 20 4 22 2 23 1 25 3 26 17 27 19 29
 SMILES IDX 24 31 25 32 26 33 27 34 39 35 28 36 38 37 29 38 30 39 31 40
 SMILES IDX 37 41 32 42 34 43 33 44 35 45 36 46
 H PARENT 21 4 10 15 13 19 7 21 4 24 17 28 19 30
 Flexibility Score: inf
  4 active torsions:
  status: ('A' for Active; 'I' for Inactive)
    1  A    between atoms: CA   and  CB  
    2  A    between atoms: CB   and  CG  
    3  A    between atoms: CG   and  CD  
    4  A    between atoms: CD   and  CE  

>  <TORSDO>
F 17

>  <BEGIN_>
RES LYS A 131

$$$$
ligand_66_pose_8_2HRL.pdbqt
 OpenBabel07062320523D

  6  5  0  0  0  0  0  0  0  0999 V2000
   33.1930   34.6630    9.2900 C   0  0  0  0  0  0  0  0  0  0  0  0
   32.0600   35.3600   10.0340 C   0  0  0  0  0  0  0  0  0  0  0  0
   30.7070   34.7470    9.7810 C   0  0  0  0  0  0  0  0  0  0  0  0
   30.4880   34.5250    8.2930 C   0  0  0  0  0  0  0  0  0  0  0  0
   29.0660   34.8820    7.9040 C   0  0  0  0  0  0  0  0  0  0  0  0
   28.9440   36.3320    7.5870 N   0  0  0  0  0  0  0  0  0  0  0  0
  1  2  1  0  0  0  0
  3  2  1  0  0  0  0
  4  3  1  0  0  0  0
  5  4  1  0  0  0  0
  6  5  1  0  0  0  0
M  END
>  <EGIN_R>
ES LYS A 135

>  <REMARK>
  4 active torsions:
  status: ('A' for Active; 'I' for Inactive)
    5  A    between atoms: CA   and  CB  
    6  A    between atoms: CB   and  CG  
    7  A    between atoms: CG   and  CD  
    8  A    between atoms: CD   and  CE  

$$$$
