ligand_93_pose_11_2HRL.pdbqt
 OpenBabel07062320523D

 50 51  0  0  1  0  0  0  0  0999 V2000
   29.5170   31.1120   15.7940 C   0  0  0  0  0  0  0  0  0  0  0  0
   30.5720   32.1850   15.9290 C   0  0  2  0  0  0  0  0  0  0  0  0
   29.9860   33.5340   15.7060 C   0  0  1  0  0  0  0  0  0  0  0  0
   29.8310   33.9550   14.2670 C   0  0  2  0  0  0  0  0  0  0  0  0
   31.4380   35.5650   13.6540 C   0  0  2  0  0  0  0  0  0  0  0  0
   30.3530   36.5020   13.1650 C   0  0  0  0  0  0  0  0  0  0  0  0
   31.0620   34.2790   13.8040 O   0  0  0  0  0  0  0  0  0  0  0  0
   29.1660   36.3110   14.0730 C   0  0  1  0  0  0  0  0  0  0  0  0
   28.7190   34.8760   13.9600 C   0  0  1  0  0  0  0  0  0  0  0  0
   31.8320   36.0610   14.8970 O   0  0  0  0  0  0  0  0  0  0  0  0
   31.1860   35.6880   15.5690 H   0  0  0  0  0  0  0  0  0  0  0  0
   32.6000   35.7290   12.7250 C   0  0  0  0  0  0  0  0  0  0  0  0
   32.7090   36.6860   11.9280 O   0  0  0  0  0  0  0  0  0  0  0  0
   33.5960   34.7760   12.7510 O   0  0  0  0  0  0  0  0  0  0  0  0
   33.6580   34.0560   13.4740 H   0  0  0  0  0  0  0  0  0  0  0  0
   29.5880   36.6480   15.3610 O   0  0  0  0  0  0  0  0  0  0  0  0
   29.1910   36.0610   16.0500 H   0  0  0  0  0  0  0  0  0  0  0  0
   28.2780   34.6870   12.5660 N   0  0  0  0  0  0  0  0  0  0  0  0
   26.9270   34.8620   12.1780 C   0  0  0  0  0  0  0  0  0  0  0  0
   28.9670   34.4160   11.8370 H   0  0  0  0  0  0  0  0  0  0  0  0
   26.5650   34.6540   10.7580 C   0  0  0  0  0  0  0  0  0  0  0  0
   26.0400   35.1890   13.0210 O   0  0  0  0  0  0  0  0  0  0  0  0
   28.8640   33.7730   16.4880 O   0  0  0  0  0  0  0  0  0  0  0  0
   28.0230   33.7070   15.9550 H   0  0  0  0  0  0  0  0  0  0  0  0
   31.5480   31.8770   14.9450 O   0  0  0  0  0  0  0  0  0  0  0  0
   31.1150   31.8830   14.0480 H   0  0  0  0  0  0  0  0  0  0  0  0
   29.2420   30.4050   17.0250 N   0  0  0  0  0  0  0  0  0  0  0  0
   27.9680   30.5810   17.6520 C   0  0  0  0  0  0  0  0  0  0  0  0
   29.9720   29.7850   17.4160 H   0  0  0  0  0  0  0  0  0  0  0  0
   27.1440   31.3380   17.1130 O   0  0  0  0  0  0  0  0  0  0  0  0
   27.7310   29.8920   18.8300 O   0  0  0  0  0  0  0  0  0  0  0  0
   28.3920   30.3000   19.9990 C   0  0  0  0  0  0  0  0  0  0  0  0
   29.0640   29.1150   20.5860 C   0  0  0  0  0  0  0  0  0  0  0  0
   29.9810   29.1760   21.6410 C   0  0  0  0  0  0  0  0  0  0  0  0
   28.9590   27.8200   20.2670 N   0  0  0  0  0  0  0  0  0  0  0  0
   30.3480   27.9100   21.8660 N   0  0  0  0  0  0  0  0  0  0  0  0
   29.7370   27.0820   21.0410 N   0  0  0  0  0  0  0  0  0  0  0  0
   31.2720   27.5010   22.8590 C   0  0  0  0  0  0  0  0  0  0  0  0
   32.6320   27.4990   22.5530 C   0  0  0  0  0  0  0  0  0  0  0  0
   30.8130   27.1200   24.0890 C   0  0  0  0  0  0  0  0  0  0  0  0
   33.5390   27.1020   23.5130 C   0  0  0  0  0  0  0  0  0  0  0  0
   31.7380   26.7260   25.0390 C   0  0  0  0  0  0  0  0  0  0  0  0
   28.7690   27.1070   24.5970 I   0  0  0  0  0  0  0  0  0  0  0  0
   33.0920   26.7150   24.7580 C   0  0  0  0  0  0  0  0  0  0  0  0
   29.8670   25.5550   16.9770 C   0  0  0  0  0  0  0  0  0  0  0  0
   28.3450   25.7220   17.0260 C   0  0  0  0  0  0  0  0  0  0  0  0
   27.6020   24.3990   16.9180 C   0  0  0  0  0  0  0  0  0  0  0  0
   26.5240   24.2690   17.9580 C   0  0  0  0  0  0  0  0  0  0  0  0
   25.2260   23.8230   17.2920 C   0  0  0  0  0  0  0  0  0  0  0  0
   24.1650   24.8390   17.4900 N   0  0  0  0  0  0  0  0  0  0  0  0
  1 27  1  0  0  0  0
  2  1  1  6  0  0  0
  3  2  1  0  0  0  0
  3 23  1  6  0  0  0
  4  3  1  1  0  0  0
  5 12  1  6  0  0  0
  5  7  1  0  0  0  0
  5 10  1  0  0  0  0
  6  5  1  0  0  0  0
  6  8  1  0  0  0  0
  7  4  1  0  0  0  0
  8 16  1  1  0  0  0
  9 18  1  6  0  0  0
  9  8  1  0  0  0  0
  9  4  1  0  0  0  0
 10 11  1  0  0  0  0
 12 14  1  0  0  0  0
 13 12  2  0  0  0  0
 14 15  1  0  0  0  0
 16 17  1  0  0  0  0
 19 18  1  0  0  0  0
 19 22  2  0  0  0  0
 20 18  1  0  0  0  0
 21 19  1  0  0  0  0
 24 23  1  0  0  0  0
 25  2  1  0  0  0  0
 26 25  1  0  0  0  0
 27 29  1  0  0  0  0
 27 28  1  0  0  0  0
 28 31  1  0  0  0  0
 30 28  2  0  0  0  0
 31 32  1  0  0  0  0
 32 33  1  0  0  0  0
 33 34  2  0  0  0  0
 34 36  1  0  0  0  0
 35 33  1  0  0  0  0
 35 37  2  0  0  0  0
 36 38  1  0  0  0  0
 37 36  1  0  0  0  0
 38 40  1  0  0  0  0
 39 38  2  0  0  0  0
 39 41  1  0  0  0  0
 40 43  1  0  0  0  0
 40 42  2  0  0  0  0
 41 44  2  0  0  0  0
 44 42  1  0  0  0  0
 45 46  1  0  0  0  0
 47 46  1  0  0  0  0
 47 48  1  0  0  0  0
 49 50  1  0  0  0  0
 49 48  1  0  0  0  0
M  END
>  <REMARK>
 VINA RESULT:    -4.351      3.821      8.655
 INTER + INTRA:         -13.816
 INTER:                  -8.992
 INTRA:                  -4.823
 UNBOUND:                -6.285
 SMILES CC(=O)N[C@@H]1[C@@H](O)C[C@](O)(C(=O)O)O[C@H]1C(O)[C@H](O)CNC(=O)OCc1cn(-c2ccccc2I)nn1
 SMILES IDX 20 1 18 2 16 3 15 4 9 5 8 6 14 7 6 8 5 9 10 10 11 12 12 13
 SMILES IDX 13 14 7 16 4 18 2 19 1 21 3 22 17 23 19 25 21 27 22 28 23 30
 SMILES IDX 24 31 25 32 26 33 27 34 37 35 28 36 36 37 29 38 30 39 34 40
 SMILES IDX 31 41 33 42 35 43 32 44
 H PARENT 10 11 13 15 7 17 4 20 17 24 19 26 21 29
 Flexibility Score: inf
  4 active torsions:
  status: ('A' for Active; 'I' for Inactive)
    1  A    between atoms: CA   and  CB  
    2  A    between atoms: CB   and  CG  
    3  A    between atoms: CG   and  CD  
    4  A    between atoms: CD   and  CE  

>  <TORSDO>
F 15

>  <BEGIN_>
RES LYS A 131

$$$$
ligand_93_pose_11_2HRL.pdbqt
 OpenBabel07062320523D

  6  5  0  0  0  0  0  0  0  0999 V2000
   33.1930   34.6630    9.2900 C   0  0  0  0  0  0  0  0  0  0  0  0
   32.0600   35.3600   10.0340 C   0  0  0  0  0  0  0  0  0  0  0  0
   30.7110   34.7290    9.8050 C   0  0  0  0  0  0  0  0  0  0  0  0
   30.4590   34.5260    8.3190 C   0  0  0  0  0  0  0  0  0  0  0  0
   29.0110   34.8250    7.9780 C   0  0  0  0  0  0  0  0  0  0  0  0
   28.9040   35.5480    6.6810 N   0  0  0  0  0  0  0  0  0  0  0  0
  1  2  1  0  0  0  0
  3  2  1  0  0  0  0
  4  3  1  0  0  0  0
  5  4  1  0  0  0  0
  6  5  1  0  0  0  0
M  END
>  <EGIN_R>
ES LYS A 135

>  <REMARK>
  4 active torsions:
  status: ('A' for Active; 'I' for Inactive)
    5  A    between atoms: CA   and  CB  
    6  A    between atoms: CB   and  CG  
    7  A    between atoms: CG   and  CD  
    8  A    between atoms: CD   and  CE  

$$$$
