ligand_56_pose_11_2HRL.pdbqt
 OpenBabel07062320523D

 49 50  0  0  1  0  0  0  0  0999 V2000
   28.5390   32.9570   19.9350 C   0  0  0  0  0  0  0  0  0  0  0  0
   29.8430   32.2900   19.6680 C   0  0  2  0  0  0  0  0  0  0  0  0
   29.6790   30.8550   19.1930 C   0  0  2  0  0  0  0  0  0  0  0  0
   29.7920   29.8510   20.2840 C   0  0  2  0  0  0  0  0  0  0  0  0
   31.0780   28.1400   21.1440 C   0  0  2  0  0  0  0  0  0  0  0  0
   29.9460   28.0010   22.1310 C   0  0  0  0  0  0  0  0  0  0  0  0
   31.0350   29.2980   20.4160 O   0  0  0  0  0  0  0  0  0  0  0  0
   28.5930   28.1100   21.4820 C   0  0  1  0  0  0  0  0  0  0  0  0
   28.7950   28.7180   20.1080 C   0  0  1  0  0  0  0  0  0  0  0  0
   31.1900   27.0200   20.3210 O   0  0  0  0  0  0  0  0  0  0  0  0
   31.8610   27.1570   19.5990 H   0  0  0  0  0  0  0  0  0  0  0  0
   32.3430   28.1820   21.9600 C   0  0  0  0  0  0  0  0  0  0  0  0
   32.5460   27.4520   22.9420 O   0  0  0  0  0  0  0  0  0  0  0  0
   33.2970   29.1080   21.5460 O   0  0  0  0  0  0  0  0  0  0  0  0
   33.5810   29.8630   22.1650 H   0  0  0  0  0  0  0  0  0  0  0  0
   27.9630   26.8710   21.3750 O   0  0  0  0  0  0  0  0  0  0  0  0
   28.4070   26.3350   20.6740 H   0  0  0  0  0  0  0  0  0  0  0  0
   27.5500   29.1740   19.5360 N   0  0  0  0  0  0  0  0  0  0  0  0
   26.8360   28.3680   18.6070 C   0  0  0  0  0  0  0  0  0  0  0  0
   27.1420   30.0940   19.7830 H   0  0  0  0  0  0  0  0  0  0  0  0
   25.5430   28.8090   17.9950 C   0  0  0  0  0  0  0  0  0  0  0  0
   27.3090   27.2470   18.2900 O   0  0  0  0  0  0  0  0  0  0  0  0
   30.4250   30.6160   18.0680 O   0  0  0  0  0  0  0  0  0  0  0  0
   30.6560   29.6490   18.0300 H   0  0  0  0  0  0  0  0  0  0  0  0
   30.6600   32.2270   20.7820 O   0  0  0  0  0  0  0  0  0  0  0  0
   30.6820   33.0580   21.3070 H   0  0  0  0  0  0  0  0  0  0  0  0
   27.7840   33.1310   18.7280 N   0  0  0  0  0  0  0  0  0  0  0  0
   26.5280   32.6010   18.4100 C   0  0  0  0  0  0  0  0  0  0  0  0
   28.2220   33.7440   17.9560 H   0  0  0  0  0  0  0  0  0  0  0  0
   25.9260   31.8770   19.2050 O   0  0  0  0  0  0  0  0  0  0  0  0
   25.8840   32.8580   17.1850 O   0  0  0  0  0  0  0  0  0  0  0  0
   26.2490   32.0920   16.0310 C   0  0  0  0  0  0  0  0  0  0  0  0
   27.6720   32.2530   15.7180 C   0  0  0  0  0  0  0  0  0  0  0  0
   28.3430   33.3500   15.2270 C   0  0  0  0  0  0  0  0  0  0  0  0
   28.6060   31.2910   15.8710 N   0  0  0  0  0  0  0  0  0  0  0  0
   29.6440   33.0010   15.1080 N   0  0  0  0  0  0  0  0  0  0  0  0
   29.7920   31.7600   15.4980 N   0  0  0  0  0  0  0  0  0  0  0  0
   30.7100   33.8280   14.6380 C   0  0  0  0  0  0  0  0  0  0  0  0
   31.9490   33.7010   15.2170 C   0  0  0  0  0  0  0  0  0  0  0  0
   30.4900   34.7430   13.6150 C   0  0  0  0  0  0  0  0  0  0  0  0
   32.9660   34.5060   14.7510 C   0  0  0  0  0  0  0  0  0  0  0  0
   31.5290   35.5180   13.1880 C   0  0  0  0  0  0  0  0  0  0  0  0
   32.7420   35.3830   13.7640 N   0  0  0  0  0  0  0  0  0  0  0  0
   29.8670   25.5550   16.9770 C   0  0  0  0  0  0  0  0  0  0  0  0
   28.3450   25.7220   17.0260 C   0  0  0  0  0  0  0  0  0  0  0  0
   27.5990   24.4780   16.5680 C   0  0  0  0  0  0  0  0  0  0  0  0
   26.9580   23.7480   17.7140 C   0  0  0  0  0  0  0  0  0  0  0  0
   25.4590   23.6180   17.4610 C   0  0  0  0  0  0  0  0  0  0  0  0
   24.8330   24.9570   17.3560 N   0  0  0  0  0  0  0  0  0  0  0  0
  2  1  1  1  0  0  0
  2 25  1  0  0  0  0
  3 23  1  6  0  0  0
  3  2  1  0  0  0  0
  4  3  1  6  0  0  0
  4  7  1  0  0  0  0
  5 10  1  6  0  0  0
  5 12  1  0  0  0  0
  5  6  1  0  0  0  0
  7  5  1  0  0  0  0
  8 16  1  6  0  0  0
  8  6  1  0  0  0  0
  9 18  1  1  0  0  0
  9  4  1  0  0  0  0
  9  8  1  0  0  0  0
 11 10  1  0  0  0  0
 12 13  2  0  0  0  0
 14 12  1  0  0  0  0
 14 15  1  0  0  0  0
 17 16  1  0  0  0  0
 18 20  1  0  0  0  0
 19 18  1  0  0  0  0
 21 19  1  0  0  0  0
 22 19  2  0  0  0  0
 24 23  1  0  0  0  0
 25 26  1  0  0  0  0
 27  1  1  0  0  0  0
 28 27  1  0  0  0  0
 28 30  2  0  0  0  0
 29 27  1  0  0  0  0
 31 28  1  0  0  0  0
 32 31  1  0  0  0  0
 33 35  1  0  0  0  0
 33 32  1  0  0  0  0
 34 33  2  0  0  0  0
 36 34  1  0  0  0  0
 36 37  1  0  0  0  0
 37 35  2  0  0  0  0
 38 36  1  0  0  0  0
 38 39  2  0  0  0  0
 40 38  1  0  0  0  0
 41 39  1  0  0  0  0
 42 40  2  0  0  0  0
 42 43  1  0  0  0  0
 43 41  2  0  0  0  0
 44 45  1  0  0  0  0
 46 45  1  0  0  0  0
 46 47  1  0  0  0  0
 48 47  1  0  0  0  0
 49 48  1  0  0  0  0
M  END
>  <REMARK>
 VINA RESULT:    -4.900      2.340      4.540
 INTER + INTRA:         -13.752
 INTER:                  -7.987
 INTRA:                  -5.765
 UNBOUND:                -5.272
 SMILES CC(=O)N[C@@H]1[C@@H](O)C[C@](O)(C(=O)O)O[C@H]1C(O)[C@H](O)CNC(=O)OCc1cn(-c2ccncc2)nn1
 SMILES IDX 20 1 18 2 16 3 15 4 9 5 8 6 14 7 6 8 5 9 10 10 11 12 12 13
 SMILES IDX 13 14 7 16 4 18 2 19 1 21 3 22 17 23 19 25 21 27 22 28 23 30
 SMILES IDX 24 31 25 32 26 33 27 34 36 35 28 36 35 37 29 38 30 39 34 40
 SMILES IDX 31 41 33 42 32 43
 H PARENT 10 11 13 15 7 17 4 20 17 24 19 26 21 29
 Flexibility Score: inf
  4 active torsions:
  status: ('A' for Active; 'I' for Inactive)
    1  A    between atoms: CA   and  CB  
    2  A    between atoms: CB   and  CG  
    3  A    between atoms: CG   and  CD  
    4  A    between atoms: CD   and  CE  

>  <TORSDO>
F 15

>  <BEGIN_>
RES LYS A 131

$$$$
ligand_56_pose_11_2HRL.pdbqt
 OpenBabel07062320523D

  6  5  0  0  0  0  0  0  0  0999 V2000
   33.1930   34.6630    9.2900 C   0  0  0  0  0  0  0  0  0  0  0  0
   32.0600   35.3600   10.0340 C   0  0  0  0  0  0  0  0  0  0  0  0
   30.7040   34.7600    9.7650 C   0  0  0  0  0  0  0  0  0  0  0  0
   30.5080   34.5230    8.2760 C   0  0  0  0  0  0  0  0  0  0  0  0
   29.1030   34.9080    7.8550 C   0  0  0  0  0  0  0  0  0  0  0  0
   29.0140   36.3640    7.5510 N   0  0  0  0  0  0  0  0  0  0  0  0
  1  2  1  0  0  0  0
  3  2  1  0  0  0  0
  4  3  1  0  0  0  0
  5  4  1  0  0  0  0
  6  5  1  0  0  0  0
M  END
>  <EGIN_R>
ES LYS A 135

>  <REMARK>
  4 active torsions:
  status: ('A' for Active; 'I' for Inactive)
    5  A    between atoms: CA   and  CB  
    6  A    between atoms: CB   and  CG  
    7  A    between atoms: CG   and  CD  
    8  A    between atoms: CD   and  CE  

$$$$
