ligand_1_pose_10_2HRL.pdbqt
 OpenBabel07062320523D

 47 47  0  0  1  0  0  0  0  0999 V2000
   28.4550   27.5220   19.2660 N   0  0  0  0  0  0  0  0  0  0  0  0
   27.2330   28.0040   18.7870 C   0  0  0  0  0  0  0  0  0  0  0  0
   26.3900   28.4340   19.5700 O   0  0  0  0  0  0  0  0  0  0  0  0
   29.1240   27.1660   18.5030 H   0  0  0  0  0  0  0  0  0  0  0  0
   28.9370   27.4330   20.5900 C   0  0  0  0  0  0  0  0  0  0  0  0
   30.0370   28.3620   20.9970 C   0  0  2  0  0  0  0  0  0  0  0  0
   29.6030   29.3350   22.0500 C   0  0  1  0  0  0  0  0  0  0  0  0
   30.0630   30.7280   21.9680 C   0  0  2  0  0  0  0  0  0  0  0  0
   29.9790   32.7170   20.8060 C   0  0  2  0  0  0  0  0  0  0  0  0
   30.4420   33.2690   22.1380 C   0  0  0  0  0  0  0  0  0  0  0  0
   29.5670   31.3860   20.8710 O   0  0  0  0  0  0  0  0  0  0  0  0
   31.6170   32.4580   22.6670 C   0  0  1  0  0  0  0  0  0  0  0  0
   31.5170   31.0180   22.1250 C   0  0  1  0  0  0  0  0  0  0  0  0
   31.0090   32.7670   19.8720 O   0  0  0  0  0  0  0  0  0  0  0  0
   31.4130   33.6610   19.7960 H   0  0  0  0  0  0  0  0  0  0  0  0
   28.8230   33.4810   20.2840 C   0  0  0  0  0  0  0  0  0  0  0  0
   28.2720   34.4100   20.9280 O   0  0  0  0  0  0  0  0  0  0  0  0
   28.3190   33.1680   19.0350 O   0  0  0  0  0  0  0  0  0  0  0  0
   27.5860   32.4490   18.9470 H   0  0  0  0  0  0  0  0  0  0  0  0
   32.8020   33.0540   22.2560 O   0  0  0  0  0  0  0  0  0  0  0  0
   32.5770   33.6440   21.4890 H   0  0  0  0  0  0  0  0  0  0  0  0
   32.2100   30.1350   23.0400 N   0  0  0  0  0  0  0  0  0  0  0  0
   33.5350   29.7360   22.7290 C   0  0  0  0  0  0  0  0  0  0  0  0
   31.7610   29.7850   23.9220 H   0  0  0  0  0  0  0  0  0  0  0  0
   34.3240   28.8310   23.6080 C   0  0  0  0  0  0  0  0  0  0  0  0
   34.0730   30.1540   21.6780 O   0  0  0  0  0  0  0  0  0  0  0  0
   28.1620   29.2920   21.9640 O   0  0  0  0  0  0  0  0  0  0  0  0
   27.8070   30.0780   22.4140 H   0  0  0  0  0  0  0  0  0  0  0  0
   30.6330   28.9420   19.9270 O   0  0  0  0  0  0  0  0  0  0  0  0
   30.8480   28.3520   19.1780 H   0  0  0  0  0  0  0  0  0  0  0  0
   26.9350   28.0140   17.4260 O   0  0  0  0  0  0  0  0  0  0  0  0
   26.7810   29.2190   16.7060 C   0  0  0  0  0  0  0  0  0  0  0  0
   28.0380   30.0020   16.7780 C   0  0  0  0  0  0  0  0  0  0  0  0
   28.7490   30.5360   15.7320 C   0  0  0  0  0  0  0  0  0  0  0  0
   28.6930   30.3220   17.8840 N   0  0  0  0  0  0  0  0  0  0  0  0
   29.8090   31.1560   16.2820 N   0  0  0  0  0  0  0  0  0  0  0  0
   29.7820   31.0290   17.5980 N   0  0  0  0  0  0  0  0  0  0  0  0
   30.8250   31.8570   15.5230 C   0  0  0  0  0  0  0  0  0  0  0  0
   31.4020   32.9690   16.3950 C   0  0  0  0  0  0  0  0  0  0  0  0
   30.3340   33.7010   16.9520 O   0  0  0  0  0  0  0  0  0  0  0  0
   30.4960   33.8410   17.9350 H   0  0  0  0  0  0  0  0  0  0  0  0
   29.8670   25.5550   16.9770 C   0  0  0  0  0  0  0  0  0  0  0  0
   28.3450   25.7220   17.0260 C   0  0  0  0  0  0  0  0  0  0  0  0
   27.6010   24.4030   16.8840 C   0  0  0  0  0  0  0  0  0  0  0  0
   26.5350   24.2380   17.9320 C   0  0  0  0  0  0  0  0  0  0  0  0
   25.1650   24.2070   17.2640 C   0  0  0  0  0  0  0  0  0  0  0  0
   24.5110   25.5340   17.3570 N   0  0  0  0  0  0  0  0  0  0  0  0
  1  5  1  0  0  0  0
  2  1  1  0  0  0  0
  2  3  2  0  0  0  0
  4  1  1  0  0  0  0
  6  5  1  6  0  0  0
  6  7  1  0  0  0  0
  7 27  1  6  0  0  0
  8  7  1  6  0  0  0
  8 13  1  0  0  0  0
  9 14  1  6  0  0  0
  9 11  1  0  0  0  0
  9 10  1  0  0  0  0
 10 12  1  0  0  0  0
 11  8  1  0  0  0  0
 12 20  1  6  0  0  0
 13 12  1  0  0  0  0
 13 22  1  1  0  0  0
 15 14  1  0  0  0  0
 16  9  1  0  0  0  0
 16 17  2  0  0  0  0
 18 16  1  0  0  0  0
 19 18  1  0  0  0  0
 21 20  1  0  0  0  0
 22 24  1  0  0  0  0
 23 22  1  0  0  0  0
 23 25  1  0  0  0  0
 26 23  2  0  0  0  0
 27 28  1  0  0  0  0
 29  6  1  0  0  0  0
 30 29  1  0  0  0  0
 31  2  1  0  0  0  0
 32 33  1  0  0  0  0
 32 31  1  0  0  0  0
 33 35  1  0  0  0  0
 34 36  1  0  0  0  0
 34 33  2  0  0  0  0
 36 37  1  0  0  0  0
 37 35  2  0  0  0  0
 38 36  1  0  0  0  0
 38 39  1  0  0  0  0
 39 40  1  0  0  0  0
 40 41  1  0  0  0  0
 42 43  1  0  0  0  0
 44 43  1  0  0  0  0
 44 45  1  0  0  0  0
 46 47  1  0  0  0  0
 46 45  1  0  0  0  0
M  END
>  <REMARK>
 VINA RESULT:    -3.201      8.480     14.028
 INTER + INTRA:         -13.393
 INTER:                  -6.346
 INTRA:                  -7.047
 UNBOUND:                -7.572
 SMILES CC(=O)N[C@@H]1[C@@H](O)C[C@](O)(C(=O)O)O[C@H]1C(O)[C@H](O)CNC(=O)OCc1cn(CCO)nn1
 SMILES IDX 21 1 22 2 23 3 20 5 18 6 16 7 15 8 9 9 8 10 14 11 6 12 5 13
 SMILES IDX 10 14 11 16 12 17 13 18 7 20 4 22 2 23 1 25 3 26 17 27 19 29
 SMILES IDX 24 31 25 32 26 33 27 34 33 35 28 36 32 37 29 38 30 39 31 40
 H PARENT 21 4 10 15 13 19 7 21 4 24 17 28 19 30 31 41
 Flexibility Score: inf
  4 active torsions:
  status: ('A' for Active; 'I' for Inactive)
    1  A    between atoms: CA   and  CB  
    2  A    between atoms: CB   and  CG  
    3  A    between atoms: CG   and  CD  
    4  A    between atoms: CD   and  CE  

>  <TORSDO>
F 17

>  <BEGIN_>
RES LYS A 131

$$$$
ligand_1_pose_10_2HRL.pdbqt
 OpenBabel07062320523D

  6  5  0  0  0  0  0  0  0  0999 V2000
   33.1930   34.6630    9.2900 C   0  0  0  0  0  0  0  0  0  0  0  0
   32.0600   35.3600   10.0340 C   0  0  0  0  0  0  0  0  0  0  0  0
   30.7090   34.7350    9.7970 C   0  0  0  0  0  0  0  0  0  0  0  0
   30.4670   34.5290    8.3090 C   0  0  0  0  0  0  0  0  0  0  0  0
   29.0270   34.8440    7.9550 C   0  0  0  0  0  0  0  0  0  0  0  0
   28.9370   35.5380    6.6400 N   0  0  0  0  0  0  0  0  0  0  0  0
  1  2  1  0  0  0  0
  3  2  1  0  0  0  0
  4  3  1  0  0  0  0
  5  4  1  0  0  0  0
  6  5  1  0  0  0  0
M  END
>  <EGIN_R>
ES LYS A 135

>  <REMARK>
  4 active torsions:
  status: ('A' for Active; 'I' for Inactive)
    5  A    between atoms: CA   and  CB  
    6  A    between atoms: CB   and  CG  
    7  A    between atoms: CG   and  CD  
    8  A    between atoms: CD   and  CE  

$$$$
