ligand_30_pose_4_2HRL.pdbqt
 OpenBabel07062320523D

 57 57  0  0  1  0  0  0  0  0999 V2000
   27.2370   29.0460   16.5540 C   0  0  0  0  0  0  0  0  0  0  0  0
   26.9590   28.3370   17.7730 N   0  0  0  0  0  0  0  0  0  0  0  0
   26.0410   27.2100   19.4170 C   0  0  0  0  0  0  0  0  0  0  0  0
   25.7950   27.7590   18.1870 C   0  0  0  0  0  0  0  0  0  0  0  0
   27.3330   27.4620   19.7210 N   0  0  0  0  0  0  0  0  0  0  0  0
   27.8470   28.1310   18.7240 N   0  0  0  0  0  0  0  0  0  0  0  0
   25.0500   26.4810   20.2360 C   0  0  0  0  0  0  0  0  0  0  0  0
   25.6830   25.8120   21.3050 O   0  0  0  0  0  0  0  0  0  0  0  0
   26.1620   26.5190   22.4000 C   0  0  0  0  0  0  0  0  0  0  0  0
   25.9100   27.9080   22.5600 N   0  0  0  0  0  0  0  0  0  0  0  0
   25.3540   28.4280   21.8480 H   0  0  0  0  0  0  0  0  0  0  0  0
   26.8450   25.8830   23.2750 O   0  0  0  0  0  0  0  0  0  0  0  0
   26.4210   28.5960   23.7030 C   0  0  0  0  0  0  0  0  0  0  0  0
   27.6860   29.3710   23.3990 C   0  0  2  0  0  0  0  0  0  0  0  0
   28.8270   28.8260   24.2040 C   0  0  2  0  0  0  0  0  0  0  0  0
   30.0220   28.5850   23.3070 C   0  0  2  0  0  0  0  0  0  0  0  0
   30.8170   29.0910   21.1900 C   0  0  2  0  0  0  0  0  0  0  0  0
   31.6530   27.8490   21.4040 C   0  0  0  0  0  0  0  0  0  0  0  0
   29.7820   29.1950   22.1060 O   0  0  0  0  0  0  0  0  0  0  0  0
   30.7370   26.7310   21.8180 C   0  0  1  0  0  0  0  0  0  0  0  0
   30.2280   27.0930   23.2200 C   0  0  1  0  0  0  0  0  0  0  0  0
   30.2370   28.9690   19.9310 O   0  0  0  0  0  0  0  0  0  0  0  0
   30.8890   29.1490   19.2170 H   0  0  0  0  0  0  0  0  0  0  0  0
   31.7180   30.2440   21.1930 C   0  0  0  0  0  0  0  0  0  0  0  0
   32.9260   30.0800   21.4930 O   0  0  0  0  0  0  0  0  0  0  0  0
   31.3260   31.5390   20.8810 O   0  0  0  0  0  0  0  0  0  0  0  0
   32.0550   32.2630   20.7890 H   0  0  0  0  0  0  0  0  0  0  0  0
   29.7050   26.5710   20.9190 O   0  0  0  0  0  0  0  0  0  0  0  0
   28.8510   26.6770   21.4100 H   0  0  0  0  0  0  0  0  0  0  0  0
   31.2590   26.6520   24.1350 N   0  0  0  0  0  0  0  0  0  0  0  0
   30.9470   25.6300   25.0620 C   0  0  0  0  0  0  0  0  0  0  0  0
   32.2250   27.0640   24.1280 H   0  0  0  0  0  0  0  0  0  0  0  0
   31.9850   25.1460   26.0240 C   0  0  0  0  0  0  0  0  0  0  0  0
   29.8050   25.1310   25.0820 O   0  0  0  0  0  0  0  0  0  0  0  0
   28.3920   27.6520   24.8270 O   0  0  0  0  0  0  0  0  0  0  0  0
   28.9810   26.8920   24.6760 H   0  0  0  0  0  0  0  0  0  0  0  0
   27.5430   30.7230   23.7110 O   0  0  0  0  0  0  0  0  0  0  0  0
   28.3200   31.0620   24.1950 H   0  0  0  0  0  0  0  0  0  0  0  0
   26.8510   30.4900   16.7260 C   0  0  0  0  0  0  0  0  0  0  0  0
   28.0140   31.4290   16.5760 C   0  0  0  0  0  0  0  0  0  0  0  0
   28.8280   31.5470   17.8410 C   0  0  0  0  0  0  0  0  0  0  0  0
   30.3130   31.5610   17.4930 C   0  0  0  0  0  0  0  0  0  0  0  0
   30.4630   31.4750   15.9970 C   0  0  0  0  0  0  0  0  0  0  0  0
   31.5020   32.4310   15.4880 C   0  0  0  0  0  0  0  0  0  0  0  0
   31.5940   33.6290   16.3740 C   0  0  0  0  0  0  0  0  0  0  0  0
   31.7250   34.9090   15.5540 C   0  0  0  0  0  0  0  0  0  0  0  0
   33.1420   35.1560   15.1090 C   0  0  0  0  0  0  0  0  0  0  0  0
   33.1170   35.1930   13.6130 C   0  0  0  0  0  0  0  0  0  0  0  0
   32.3170   35.8910   12.9570 O   0  0  0  0  0  0  0  0  0  0  0  0
   34.0300   34.4140   12.9010 O   0  0  0  0  0  0  0  0  0  0  0  0
   34.4840   34.8100   12.0960 H   0  0  0  0  0  0  0  0  0  0  0  0
   29.8670   25.5550   16.9770 C   0  0  0  0  0  0  0  0  0  0  0  0
   28.3450   25.7220   17.0260 C   0  0  0  0  0  0  0  0  0  0  0  0
   27.5990   24.4200   16.7770 C   0  0  0  0  0  0  0  0  0  0  0  0
   26.9080   23.9180   18.0150 C   0  0  0  0  0  0  0  0  0  0  0  0
   25.7470   23.0130   17.6170 C   0  0  0  0  0  0  0  0  0  0  0  0
   24.4760   23.5170   18.1890 N   0  0  0  0  0  0  0  0  0  0  0  0
  1 39  1  0  0  0  0
  1  2  1  0  0  0  0
  2  4  1  0  0  0  0
  2  6  1  0  0  0  0
  3  5  1  0  0  0  0
  3  7  1  0  0  0  0
  4  3  2  0  0  0  0
  6  5  2  0  0  0  0
  7  8  1  0  0  0  0
  8  9  1  0  0  0  0
  9 10  1  0  0  0  0
  9 12  2  0  0  0  0
 10 13  1  0  0  0  0
 11 10  1  0  0  0  0
 14 13  1  1  0  0  0
 14 37  1  0  0  0  0
 14 15  1  0  0  0  0
 15 35  1  6  0  0  0
 16 15  1  1  0  0  0
 17 22  1  6  0  0  0
 17 24  1  0  0  0  0
 17 18  1  0  0  0  0
 17 19  1  0  0  0  0
 18 20  1  0  0  0  0
 19 16  1  0  0  0  0
 20 28  1  6  0  0  0
 20 21  1  0  0  0  0
 21 16  1  0  0  0  0
 21 30  1  1  0  0  0
 23 22  1  0  0  0  0
 24 25  2  0  0  0  0
 26 24  1  0  0  0  0
 27 26  1  0  0  0  0
 28 29  1  0  0  0  0
 30 31  1  0  0  0  0
 31 34  2  0  0  0  0
 31 33  1  0  0  0  0
 32 30  1  0  0  0  0
 36 35  1  0  0  0  0
 37 38  1  0  0  0  0
 40 39  1  0  0  0  0
 40 41  1  0  0  0  0
 42 41  1  0  0  0  0
 43 42  1  0  0  0  0
 44 43  1  0  0  0  0
 44 45  1  0  0  0  0
 46 45  1  0  0  0  0
 47 46  1  0  0  0  0
 48 47  1  0  0  0  0
 49 48  2  0  0  0  0
 50 48  1  0  0  0  0
 51 50  1  0  0  0  0
 52 53  1  0  0  0  0
 54 53  1  0  0  0  0
 54 55  1  0  0  0  0
 56 55  1  0  0  0  0
 56 57  1  0  0  0  0
M  END
>  <REMARK>
 VINA RESULT:    -4.030      3.408      5.694
 INTER + INTRA:         -17.747
 INTER:                 -10.150
 INTRA:                  -7.597
 UNBOUND:                -8.298
 SMILES CC(=O)N[C@@H]1[C@@H](O)C[C@](O)(C(=O)O)O[C@H]1C(O)[C@H](O)CNC(=O)OCc1cn(CCCCCCCCCCC(=O)O)nn1
 SMILES IDX 29 1 28 2 26 3 27 4 43 5 42 6 25 7 24 8 22 9 21 10 23 12
 SMILES IDX 20 13 18 14 16 15 15 16 9 17 8 18 14 19 6 20 5 21 10 22
 SMILES IDX 11 24 12 25 13 26 7 28 4 30 2 31 1 33 3 34 17 35 19 37 30 39
 SMILES IDX 31 40 32 41 33 42 34 43 35 44 36 45 37 46 38 47 39 48 40 49
 SMILES IDX 41 50
 H PARENT 21 11 10 23 13 27 7 29 4 32 17 36 19 38 41 51
 Flexibility Score: inf
  4 active torsions:
  status: ('A' for Active; 'I' for Inactive)
    1  A    between atoms: CA   and  CB  
    2  A    between atoms: CB   and  CG  
    3  A    between atoms: CG   and  CD  
    4  A    between atoms: CD   and  CE  

>  <TORSDO>
F 26

>  <BEGIN_>
RES LYS A 131

$$$$
ligand_30_pose_4_2HRL.pdbqt
 OpenBabel07062320523D

  6  5  0  0  0  0  0  0  0  0999 V2000
   33.1930   34.6630    9.2900 C   0  0  0  0  0  0  0  0  0  0  0  0
   32.0600   35.3600   10.0340 C   0  0  0  0  0  0  0  0  0  0  0  0
   30.7120   34.7260    9.8090 C   0  0  0  0  0  0  0  0  0  0  0  0
   30.4560   34.5230    8.3230 C   0  0  0  0  0  0  0  0  0  0  0  0
   29.0050   34.8120    7.9880 C   0  0  0  0  0  0  0  0  0  0  0  0
   28.8870   35.5240    6.6860 N   0  0  0  0  0  0  0  0  0  0  0  0
  1  2  1  0  0  0  0
  3  2  1  0  0  0  0
  4  3  1  0  0  0  0
  5  4  1  0  0  0  0
  6  5  1  0  0  0  0
M  END
>  <EGIN_R>
ES LYS A 135

>  <REMARK>
  4 active torsions:
  status: ('A' for Active; 'I' for Inactive)
    5  A    between atoms: CA   and  CB  
    6  A    between atoms: CB   and  CG  
    7  A    between atoms: CG   and  CD  
    8  A    between atoms: CD   and  CE  

$$$$
