ligand_83_pose_2_2HRL.pdbqt
 OpenBabel07062320523D

 56 57  0  0  1  0  0  0  0  0999 V2000
   25.5170   33.8060   12.9350 O   0  0  0  0  0  0  0  0  0  0  0  0
   25.3140   35.1410   12.5470 C   0  0  0  0  0  0  0  0  0  0  0  0
   26.3510   36.0750   12.4590 N   0  0  0  0  0  0  0  0  0  0  0  0
   27.3310   35.7390   12.7040 H   0  0  0  0  0  0  0  0  0  0  0  0
   24.1470   35.4600   12.2800 O   0  0  0  0  0  0  0  0  0  0  0  0
   26.1850   37.4530   12.0630 C   0  0  0  0  0  0  0  0  0  0  0  0
   26.9970   37.6870   10.8170 C   0  0  2  0  0  0  0  0  0  0  0  0
   26.2860   37.0230    9.6620 C   0  0  2  0  0  0  0  0  0  0  0  0
   26.6620   37.6790    8.3390 C   0  0  2  0  0  0  0  0  0  0  0  0
   28.5360   37.9150    6.9760 C   0  0  2  0  0  0  0  0  0  0  0  0
   27.9820   39.2960    6.6820 C   0  0  0  0  0  0  0  0  0  0  0  0
   27.9950   37.4390    8.1460 O   0  0  0  0  0  0  0  0  0  0  0  0
   27.5280   39.9400    7.9720 C   0  0  1  0  0  0  0  0  0  0  0  0
   26.3090   39.1520    8.4370 C   0  0  1  0  0  0  0  0  0  0  0  0
   29.9300   37.9800    7.1700 O   0  0  0  0  0  0  0  0  0  0  0  0
   30.3210   38.2580    6.3100 H   0  0  0  0  0  0  0  0  0  0  0  0
   28.2650   36.9620    5.8930 C   0  0  0  0  0  0  0  0  0  0  0  0
   28.8600   35.8730    5.8440 O   0  0  0  0  0  0  0  0  0  0  0  0
   27.3400   37.2660    4.9110 O   0  0  0  0  0  0  0  0  0  0  0  0
   26.8030   38.1130    4.9530 H   0  0  0  0  0  0  0  0  0  0  0  0
   28.4650   39.8490    8.9890 O   0  0  0  0  0  0  0  0  0  0  0  0
   28.1150   39.3150    9.7300 H   0  0  0  0  0  0  0  0  0  0  0  0
   25.1890   39.4950    7.6080 N   0  0  0  0  0  0  0  0  0  0  0  0
   24.2090   40.4020    8.0590 C   0  0  0  0  0  0  0  0  0  0  0  0
   25.0400   39.0960    6.6430 H   0  0  0  0  0  0  0  0  0  0  0  0
   23.0450   40.7550    7.1900 C   0  0  0  0  0  0  0  0  0  0  0  0
   24.2940   40.9320    9.1970 O   0  0  0  0  0  0  0  0  0  0  0  0
   24.9270   37.2080    9.8230 O   0  0  0  0  0  0  0  0  0  0  0  0
   24.4020   36.9050    9.0460 H   0  0  0  0  0  0  0  0  0  0  0  0
   28.3080   37.2400   10.9490 O   0  0  0  0  0  0  0  0  0  0  0  0
   28.6410   37.0650   10.0330 H   0  0  0  0  0  0  0  0  0  0  0  0
   25.1020   33.3810   14.2430 C   0  0  0  0  0  0  0  0  0  0  0  0
   26.1750   32.6850   14.9470 C   0  0  0  0  0  0  0  0  0  0  0  0
   27.4240   33.1880   15.2150 C   0  0  0  0  0  0  0  0  0  0  0  0
   26.1080   31.4410   15.4440 N   0  0  0  0  0  0  0  0  0  0  0  0
   28.0850   32.2250   15.8730 N   0  0  0  0  0  0  0  0  0  0  0  0
   27.2830   31.1940   15.9990 N   0  0  0  0  0  0  0  0  0  0  0  0
   29.4720   32.3550   16.3510 C   0  0  0  0  0  0  0  0  0  0  0  0
   30.3550   32.8700   15.2360 C   0  0  2  0  0  0  0  0  0  0  0  0
   31.3270   31.8650   15.0360 O   0  0  0  0  0  0  0  0  0  0  0  0
   30.9460   31.0480   14.6630 H   0  0  0  0  0  0  0  0  0  0  0  0
   30.9870   34.1570   15.6610 C   0  0  0  0  0  0  0  0  0  0  0  0
   31.7150   34.7080   14.5140 N   0  0  0  0  0  0  0  0  0  0  0  0
   33.0570   34.7050   14.3420 C   0  0  0  0  0  0  0  0  0  0  0  0
   31.1390   35.2790   13.4710 C   0  0  0  0  0  0  0  0  0  0  0  0
   33.3150   35.2990   13.1480 C   0  0  0  0  0  0  0  0  0  0  0  0
   32.1410   35.6450   12.6230 N   0  0  0  0  0  0  0  0  0  0  0  0
   29.7390   35.4990   13.2320 N   0  0  0  0  0  0  0  0  0  0  0  0
   29.0420   34.7410   12.5370 O   0  0  0  0  0  0  0  0  0  0  0  0
   29.1300   36.6000   13.7980 O   0  0  0  0  0  0  0  0  0  0  0  0
   29.8670   25.5550   16.9770 C   0  0  0  0  0  0  0  0  0  0  0  0
   28.3450   25.7220   17.0260 C   0  0  0  0  0  0  0  0  0  0  0  0
   27.5990   24.4730   16.5820 C   0  0  0  0  0  0  0  0  0  0  0  0
   27.0140   23.7200   17.7440 C   0  0  0  0  0  0  0  0  0  0  0  0
   25.8440   24.5080   18.3240 C   0  0  0  0  0  0  0  0  0  0  0  0
   24.8080   24.7350   17.2900 N   0  0  0  0  0  0  0  0  0  0  0  0
  1 32  1  0  0  0  0
  2  1  1  0  0  0  0
  3  2  1  0  0  0  0
  3  4  1  0  0  0  0
  5  2  2  0  0  0  0
  6  3  1  0  0  0  0
  7 30  1  0  0  0  0
  7  6  1  1  0  0  0
  8 28  1  1  0  0  0
  8  7  1  0  0  0  0
  9 14  1  0  0  0  0
  9  8  1  1  0  0  0
 10 17  1  6  0  0  0
 10 15  1  0  0  0  0
 10 12  1  0  0  0  0
 11 10  1  0  0  0  0
 11 13  1  0  0  0  0
 12  9  1  0  0  0  0
 13 14  1  0  0  0  0
 13 21  1  1  0  0  0
 14 23  1  6  0  0  0
 16 15  1  0  0  0  0
 18 17  2  0  0  0  0
 19 20  1  0  0  0  0
 19 17  1  0  0  0  0
 21 22  1  0  0  0  0
 23 24  1  0  0  0  0
 24 27  2  0  0  0  0
 25 23  1  0  0  0  0
 26 24  1  0  0  0  0
 29 28  1  0  0  0  0
 31 30  1  0  0  0  0
 32 33  1  0  0  0  0
 33 34  2  0  0  0  0
 33 35  1  0  0  0  0
 34 36  1  0  0  0  0
 35 37  2  0  0  0  0
 36 37  1  0  0  0  0
 36 38  1  0  0  0  0
 39 42  1  1  0  0  0
 39 38  1  0  0  0  0
 40 39  1  0  0  0  0
 41 40  1  0  0  0  0
 43 42  1  0  0  0  0
 44 43  1  0  0  0  0
 45 43  1  0  0  0  0
 46 44  2  0  0  0  0
 47 46  1  0  0  0  0
 47 45  2  0  0  0  0
 48 45  1  0  0  0  0
 48 50  2  0  0  0  0
 49 48  2  0  0  0  0
 51 52  1  0  0  0  0
 53 52  1  0  0  0  0
 53 54  1  0  0  0  0
 54 55  1  0  0  0  0
 56 55  1  0  0  0  0
M  END
>  <REMARK>
 VINA RESULT:    -3.909      5.349     12.243
 INTER + INTRA:         -16.240
 INTER:                  -9.289
 INTRA:                  -6.951
 UNBOUND:                -8.446
 SMILES CC(=O)N[C@@H]1[C@@H](O)C[C@](O)(C(=O)O)O[C@H]1C(O)[C@H](O)CNC(=O)OCc1cn(CC(O)Cn2ccnc2[N+](=O)[O-])nn1
 SMILES IDX 24 1 22 2 21 3 23 5 20 6 18 7 16 8 15 9 9 10 8 11 14 12 6 13
 SMILES IDX 5 14 10 15 11 17 12 18 13 19 7 21 4 23 2 24 1 26 3 27 17 28
 SMILES IDX 19 30 25 32 26 33 27 34 42 35 28 36 41 37 29 38 30 39 31 40
 SMILES IDX 32 42 33 43 34 44 37 45 35 46 36 47 38 48 39 49 40 50
 H PARENT 21 4 10 16 13 20 7 22 4 25 17 29 19 31 31 41
 Flexibility Score: inf
  4 active torsions:
  status: ('A' for Active; 'I' for Inactive)
    1  A    between atoms: CA   and  CB  
    2  A    between atoms: CB   and  CG  
    3  A    between atoms: CG   and  CD  
    4  A    between atoms: CD   and  CE  

>  <TORSDO>
F 20

>  <BEGIN_>
RES LYS A 131

$$$$
ligand_83_pose_2_2HRL.pdbqt
 OpenBabel07062320523D

  6  5  0  0  0  0  0  0  0  0999 V2000
   33.1930   34.6630    9.2900 C   0  0  0  0  0  0  0  0  0  0  0  0
   32.0600   35.3600   10.0340 C   0  0  0  0  0  0  0  0  0  0  0  0
   30.7650   35.3960    9.2630 C   0  0  0  0  0  0  0  0  0  0  0  0
   30.0800   34.0390    9.3020 C   0  0  0  0  0  0  0  0  0  0  0  0
   28.6820   34.1310    8.7210 C   0  0  0  0  0  0  0  0  0  0  0  0
   27.6580   33.7110    9.7170 N   0  0  0  0  0  0  0  0  0  0  0  0
  1  2  1  0  0  0  0
  3  4  1  0  0  0  0
  3  2  1  0  0  0  0
  5  4  1  0  0  0  0
  5  6  1  0  0  0  0
M  END
>  <EGIN_R>
ES LYS A 135

>  <REMARK>
  4 active torsions:
  status: ('A' for Active; 'I' for Inactive)
    5  A    between atoms: CA   and  CB  
    6  A    between atoms: CB   and  CG  
    7  A    between atoms: CG   and  CD  
    8  A    between atoms: CD   and  CE  

$$$$
