ligand_56_pose_1_2HRL.pdbqt
 OpenBabel07062320523D

 49 50  0  0  1  0  0  0  0  0999 V2000
   25.9710   35.4830   11.5860 C   0  0  0  0  0  0  0  0  0  0  0  0
   25.5430   35.4950   10.1610 C   0  0  2  0  0  0  0  0  0  0  0  0
   26.1700   36.6320    9.3720 C   0  0  2  0  0  0  0  0  0  0  0  0
   27.1770   36.1810    8.3760 C   0  0  2  0  0  0  0  0  0  0  0  0
   29.4150   35.7450    8.0230 C   0  0  2  0  0  0  0  0  0  0  0  0
   28.9780   35.5000    6.6000 C   0  0  0  0  0  0  0  0  0  0  0  0
   28.3780   35.8120    8.9140 O   0  0  0  0  0  0  0  0  0  0  0  0
   27.9900   36.5240    6.1120 C   0  0  1  0  0  0  0  0  0  0  0  0
   27.4460   37.2480    7.3270 C   0  0  1  0  0  0  0  0  0  0  0  0
   30.2520   36.8560    8.1260 O   0  0  0  0  0  0  0  0  0  0  0  0
   30.7770   37.0020    7.2940 H   0  0  0  0  0  0  0  0  0  0  0  0
   30.2540   34.5580    8.4140 C   0  0  0  0  0  0  0  0  0  0  0  0
   29.8640   33.6740    9.1920 O   0  0  0  0  0  0  0  0  0  0  0  0
   31.5230   34.5010    7.8450 O   0  0  0  0  0  0  0  0  0  0  0  0
   31.9190   35.3200    7.3910 H   0  0  0  0  0  0  0  0  0  0  0  0
   28.5730   37.4330    5.2280 O   0  0  0  0  0  0  0  0  0  0  0  0
   28.5210   37.0770    4.3080 H   0  0  0  0  0  0  0  0  0  0  0  0
   26.2600   38.0100    7.0110 N   0  0  0  0  0  0  0  0  0  0  0  0
   26.3360   39.4090    6.7690 C   0  0  0  0  0  0  0  0  0  0  0  0
   25.3270   37.5640    6.9510 H   0  0  0  0  0  0  0  0  0  0  0  0
   25.1270   40.2280    6.4380 C   0  0  0  0  0  0  0  0  0  0  0  0
   27.4560   39.9750    6.8360 O   0  0  0  0  0  0  0  0  0  0  0  0
   26.5500   37.6590   10.1970 O   0  0  0  0  0  0  0  0  0  0  0  0
   26.9270   38.3970    9.6460 H   0  0  0  0  0  0  0  0  0  0  0  0
   24.1760   35.6380   10.0050 O   0  0  0  0  0  0  0  0  0  0  0  0
   23.6460   35.0070   10.5410 H   0  0  0  0  0  0  0  0  0  0  0  0
   27.2250   34.8040   11.7490 N   0  0  0  0  0  0  0  0  0  0  0  0
   28.3400   35.2160   12.4880 C   0  0  0  0  0  0  0  0  0  0  0  0
   27.3420   33.8560   11.2480 H   0  0  0  0  0  0  0  0  0  0  0  0
   28.3360   36.2840   13.1000 O   0  0  0  0  0  0  0  0  0  0  0  0
   29.5170   34.4470   12.5770 O   0  0  0  0  0  0  0  0  0  0  0  0
   30.3850   34.6270   13.7010 C   0  0  0  0  0  0  0  0  0  0  0  0
   30.3310   33.4720   14.6020 C   0  0  0  0  0  0  0  0  0  0  0  0
   29.2370   32.8010   15.1010 C   0  0  0  0  0  0  0  0  0  0  0  0
   31.4100   32.8470   15.1160 N   0  0  0  0  0  0  0  0  0  0  0  0
   29.7070   31.8060   15.8880 N   0  0  0  0  0  0  0  0  0  0  0  0
   31.0160   31.8420   15.8910 N   0  0  0  0  0  0  0  0  0  0  0  0
   28.9280   30.8530   16.6130 C   0  0  0  0  0  0  0  0  0  0  0  0
   28.9390   30.8990   17.9860 C   0  0  0  0  0  0  0  0  0  0  0  0
   28.1760   29.8990   15.9370 C   0  0  0  0  0  0  0  0  0  0  0  0
   28.1820   29.9720   18.6700 C   0  0  0  0  0  0  0  0  0  0  0  0
   27.4420   29.0030   16.6590 C   0  0  0  0  0  0  0  0  0  0  0  0
   27.4610   29.0580   18.0070 N   0  0  0  0  0  0  0  0  0  0  0  0
   29.8670   25.5550   16.9770 C   0  0  0  0  0  0  0  0  0  0  0  0
   28.3450   25.7220   17.0260 C   0  0  0  0  0  0  0  0  0  0  0  0
   27.6000   24.4110   16.8250 C   0  0  0  0  0  0  0  0  0  0  0  0
   26.6220   24.1400   17.9350 C   0  0  0  0  0  0  0  0  0  0  0  0
   25.2430   23.8700   17.3430 C   0  0  0  0  0  0  0  0  0  0  0  0
   24.3990   25.0860   17.4200 N   0  0  0  0  0  0  0  0  0  0  0  0
  1 27  1  0  0  0  0
  2  1  1  1  0  0  0
  3  2  1  0  0  0  0
  3 23  1  1  0  0  0
  4  7  1  0  0  0  0
  4  3  1  1  0  0  0
  5 10  1  1  0  0  0
  5 12  1  0  0  0  0
  5  7  1  0  0  0  0
  6  5  1  0  0  0  0
  8 16  1  6  0  0  0
  8  6  1  0  0  0  0
  8  9  1  0  0  0  0
  9 18  1  6  0  0  0
  9  4  1  0  0  0  0
 11 10  1  0  0  0  0
 12 13  2  0  0  0  0
 14 12  1  0  0  0  0
 15 14  1  0  0  0  0
 17 16  1  0  0  0  0
 19 22  2  0  0  0  0
 19 18  1  0  0  0  0
 20 18  1  0  0  0  0
 21 19  1  0  0  0  0
 24 23  1  0  0  0  0
 25  2  1  0  0  0  0
 25 26  1  0  0  0  0
 27 28  1  0  0  0  0
 28 31  1  0  0  0  0
 28 30  2  0  0  0  0
 29 27  1  0  0  0  0
 31 32  1  0  0  0  0
 32 33  1  0  0  0  0
 33 34  2  0  0  0  0
 33 35  1  0  0  0  0
 34 36  1  0  0  0  0
 35 37  2  0  0  0  0
 36 37  1  0  0  0  0
 36 38  1  0  0  0  0
 38 39  1  0  0  0  0
 39 41  2  0  0  0  0
 40 38  2  0  0  0  0
 40 42  1  0  0  0  0
 42 43  2  0  0  0  0
 43 41  1  0  0  0  0
 44 45  1  0  0  0  0
 46 45  1  0  0  0  0
 46 47  1  0  0  0  0
 48 49  1  0  0  0  0
 48 47  1  0  0  0  0
M  END
>  <REMARK>
 VINA RESULT:    -5.255      6.928     12.066
 INTER + INTRA:         -14.367
 INTER:                 -10.688
 INTRA:                  -3.678
 UNBOUND:                -5.272
 SMILES CC(=O)N[C@@H]1[C@@H](O)C[C@](O)(C(=O)O)O[C@H]1C(O)[C@H](O)CNC(=O)OCc1cn(-c2ccncc2)nn1
 SMILES IDX 20 1 18 2 16 3 15 4 9 5 8 6 14 7 6 8 5 9 10 10 11 12 12 13
 SMILES IDX 13 14 7 16 4 18 2 19 1 21 3 22 17 23 19 25 21 27 22 28 23 30
 SMILES IDX 24 31 25 32 26 33 27 34 36 35 28 36 35 37 29 38 30 39 34 40
 SMILES IDX 31 41 33 42 32 43
 H PARENT 10 11 13 15 7 17 4 20 17 24 19 26 21 29
 Flexibility Score: inf
  4 active torsions:
  status: ('A' for Active; 'I' for Inactive)
    1  A    between atoms: CA   and  CB  
    2  A    between atoms: CB   and  CG  
    3  A    between atoms: CG   and  CD  
    4  A    between atoms: CD   and  CE  

>  <TORSDO>
F 15

>  <BEGIN_>
RES LYS A 131

$$$$
ligand_56_pose_1_2HRL.pdbqt
 OpenBabel07062320523D

  6  5  0  0  0  0  0  0  0  0999 V2000
   33.1930   34.6630    9.2900 C   0  0  0  0  0  0  0  0  0  0  0  0
   32.0600   35.3600   10.0340 C   0  0  0  0  0  0  0  0  0  0  0  0
   32.5220   36.1510   11.2310 C   0  0  0  0  0  0  0  0  0  0  0  0
   31.9370   37.5550   11.2040 C   0  0  0  0  0  0  0  0  0  0  0  0
   31.4380   37.9490   12.5810 C   0  0  0  0  0  0  0  0  0  0  0  0
   30.4690   39.0770   12.4980 N   0  0  0  0  0  0  0  0  0  0  0  0
  1  2  1  0  0  0  0
  2  3  1  0  0  0  0
  4  3  1  0  0  0  0
  4  5  1  0  0  0  0
  6  5  1  0  0  0  0
M  END
>  <EGIN_R>
ES LYS A 135

>  <REMARK>
  4 active torsions:
  status: ('A' for Active; 'I' for Inactive)
    5  A    between atoms: CA   and  CB  
    6  A    between atoms: CB   and  CG  
    7  A    between atoms: CG   and  CD  
    8  A    between atoms: CD   and  CE  

$$$$
