ligand_30_pose_5_2HRL.pdbqt
 OpenBabel07062320523D

 57 57  0  0  1  0  0  0  0  0999 V2000
   28.0520   36.8790   13.2280 C   0  0  0  0  0  0  0  0  0  0  0  0
   29.2880   36.1480   13.1520 N   0  0  0  0  0  0  0  0  0  0  0  0
   31.3680   35.4650   13.2940 C   0  0  0  0  0  0  0  0  0  0  0  0
   30.5240   36.4960   13.6090 C   0  0  0  0  0  0  0  0  0  0  0  0
   30.6360   34.5230   12.6610 N   0  0  0  0  0  0  0  0  0  0  0  0
   29.4070   34.9600   12.5950 N   0  0  0  0  0  0  0  0  0  0  0  0
   32.8120   35.4230   13.6040 C   0  0  0  0  0  0  0  0  0  0  0  0
   33.1390   34.2390   14.2970 O   0  0  0  0  0  0  0  0  0  0  0  0
   32.3240   33.7660   15.3170 C   0  0  0  0  0  0  0  0  0  0  0  0
   31.5340   32.5960   15.1590 N   0  0  0  0  0  0  0  0  0  0  0  0
   31.5500   32.0660   14.2610 H   0  0  0  0  0  0  0  0  0  0  0  0
   32.3010   34.4150   16.4190 O   0  0  0  0  0  0  0  0  0  0  0  0
   30.7100   32.1440   16.2350 C   0  0  0  0  0  0  0  0  0  0  0  0
   29.2320   32.2950   15.9410 C   0  0  2  0  0  0  0  0  0  0  0  0
   28.6810   31.0080   15.4050 C   0  0  2  0  0  0  0  0  0  0  0  0
   27.2290   30.8630   15.8030 C   0  0  2  0  0  0  0  0  0  0  0  0
   25.1170   31.6190   15.2220 C   0  0  2  0  0  0  0  0  0  0  0  0
   24.7840   31.2340   16.6460 C   0  0  0  0  0  0  0  0  0  0  0  0
   26.4830   31.6780   14.9960 O   0  0  0  0  0  0  0  0  0  0  0  0
   25.7930   31.8780   17.5560 C   0  0  1  0  0  0  0  0  0  0  0  0
   27.1300   31.1790   17.2740 C   0  0  1  0  0  0  0  0  0  0  0  0
   24.6160   32.9030   15.0290 O   0  0  0  0  0  0  0  0  0  0  0  0
   23.7690   33.0340   15.5140 H   0  0  0  0  0  0  0  0  0  0  0  0
   24.4170   30.6920   14.3320 C   0  0  0  0  0  0  0  0  0  0  0  0
   24.1600   29.5310   14.7310 O   0  0  0  0  0  0  0  0  0  0  0  0
   24.0060   31.0110   13.0440 O   0  0  0  0  0  0  0  0  0  0  0  0
   23.7170   31.9820   12.8480 H   0  0  0  0  0  0  0  0  0  0  0  0
   25.8650   33.2380   17.3390 O   0  0  0  0  0  0  0  0  0  0  0  0
   26.8050   33.4650   17.1280 H   0  0  0  0  0  0  0  0  0  0  0  0
   27.1120   29.9710   18.0710 N   0  0  0  0  0  0  0  0  0  0  0  0
   28.1980   29.7220   18.9430 C   0  0  0  0  0  0  0  0  0  0  0  0
   26.3220   29.2810   18.0200 H   0  0  0  0  0  0  0  0  0  0  0  0
   28.2170   28.4840   19.7830 C   0  0  0  0  0  0  0  0  0  0  0  0
   29.1420   30.5310   19.0150 O   0  0  0  0  0  0  0  0  0  0  0  0
   29.4690   29.9630   15.8990 O   0  0  0  0  0  0  0  0  0  0  0  0
   29.1000   29.0810   15.7190 H   0  0  0  0  0  0  0  0  0  0  0  0
   28.9990   33.2930   14.9950 O   0  0  0  0  0  0  0  0  0  0  0  0
   28.8790   32.9180   14.1020 H   0  0  0  0  0  0  0  0  0  0  0  0
   26.9450   35.9330   13.6090 C   0  0  0  0  0  0  0  0  0  0  0  0
   25.7690   36.0040   12.6770 C   0  0  0  0  0  0  0  0  0  0  0  0
   26.1780   35.9460   11.2260 C   0  0  0  0  0  0  0  0  0  0  0  0
   26.1900   34.4940   10.7570 C   0  0  0  0  0  0  0  0  0  0  0  0
   27.2630   34.3310    9.7130 C   0  0  0  0  0  0  0  0  0  0  0  0
   26.7360   34.5890    8.3310 C   0  0  0  0  0  0  0  0  0  0  0  0
   27.8210   35.0920    7.4390 C   0  0  0  0  0  0  0  0  0  0  0  0
   27.3360   36.2670    6.5940 C   0  0  0  0  0  0  0  0  0  0  0  0
   28.4100   36.7890    5.6780 C   0  0  0  0  0  0  0  0  0  0  0  0
   28.9070   38.0610    6.2880 C   0  0  0  0  0  0  0  0  0  0  0  0
   28.3310   38.6430    7.2300 O   0  0  0  0  0  0  0  0  0  0  0  0
   30.0760   38.6400    5.7910 O   0  0  0  0  0  0  0  0  0  0  0  0
   30.2120   39.6300    5.8940 H   0  0  0  0  0  0  0  0  0  0  0  0
   29.8670   25.5550   16.9770 C   0  0  0  0  0  0  0  0  0  0  0  0
   28.3450   25.7220   17.0260 C   0  0  0  0  0  0  0  0  0  0  0  0
   27.6010   24.4030   16.8870 C   0  0  0  0  0  0  0  0  0  0  0  0
   26.4950   24.2670   17.8970 C   0  0  0  0  0  0  0  0  0  0  0  0
   26.2870   25.6020   18.6060 C   0  0  0  0  0  0  0  0  0  0  0  0
   24.9610   26.1690   18.2650 N   0  0  0  0  0  0  0  0  0  0  0  0
  1 39  1  0  0  0  0
  2  1  1  0  0  0  0
  2  4  1  0  0  0  0
  3  7  1  0  0  0  0
  3  4  2  0  0  0  0
  5  3  1  0  0  0  0
  6  5  2  0  0  0  0
  6  2  1  0  0  0  0
  7  8  1  0  0  0  0
  8  9  1  0  0  0  0
  9 12  2  0  0  0  0
 10  9  1  0  0  0  0
 10 13  1  0  0  0  0
 11 10  1  0  0  0  0
 14 13  1  6  0  0  0
 15 35  1  1  0  0  0
 15 14  1  0  0  0  0
 16 15  1  6  0  0  0
 16 21  1  0  0  0  0
 17 24  1  6  0  0  0
 17 18  1  0  0  0  0
 18 20  1  0  0  0  0
 19 17  1  0  0  0  0
 19 16  1  0  0  0  0
 20 28  1  6  0  0  0
 21 20  1  0  0  0  0
 21 30  1  1  0  0  0
 22 17  1  0  0  0  0
 22 23  1  0  0  0  0
 24 25  2  0  0  0  0
 26 24  1  0  0  0  0
 27 26  1  0  0  0  0
 29 28  1  0  0  0  0
 30 31  1  0  0  0  0
 31 34  2  0  0  0  0
 31 33  1  0  0  0  0
 32 30  1  0  0  0  0
 36 35  1  0  0  0  0
 37 14  1  0  0  0  0
 38 37  1  0  0  0  0
 40 39  1  0  0  0  0
 41 40  1  0  0  0  0
 42 41  1  0  0  0  0
 43 42  1  0  0  0  0
 44 43  1  0  0  0  0
 45 44  1  0  0  0  0
 46 45  1  0  0  0  0
 47 48  1  0  0  0  0
 47 46  1  0  0  0  0
 48 49  2  0  0  0  0
 50 51  1  0  0  0  0
 50 48  1  0  0  0  0
 52 53  1  0  0  0  0
 54 53  1  0  0  0  0
 54 55  1  0  0  0  0
 55 56  1  0  0  0  0
 57 56  1  0  0  0  0
M  END
>  <REMARK>
 VINA RESULT:    -4.022      3.257      6.828
 INTER + INTRA:         -17.727
 INTER:                 -11.804
 INTRA:                  -5.923
 UNBOUND:                -8.298
 SMILES CC(=O)N[C@@H]1[C@@H](O)C[C@](O)(C(=O)O)O[C@H]1C(O)[C@H](O)CNC(=O)OCc1cn(CCCCCCCCCCC(=O)O)nn1
 SMILES IDX 29 1 28 2 26 3 27 4 43 5 42 6 25 7 24 8 22 9 21 10 23 12
 SMILES IDX 20 13 18 14 16 15 15 16 9 17 8 18 14 19 6 20 5 21 10 22
 SMILES IDX 11 24 12 25 13 26 7 28 4 30 2 31 1 33 3 34 17 35 19 37 30 39
 SMILES IDX 31 40 32 41 33 42 34 43 35 44 36 45 37 46 38 47 39 48 40 49
 SMILES IDX 41 50
 H PARENT 21 11 10 23 13 27 7 29 4 32 17 36 19 38 41 51
 Flexibility Score: inf
  4 active torsions:
  status: ('A' for Active; 'I' for Inactive)
    1  A    between atoms: CA   and  CB  
    2  A    between atoms: CB   and  CG  
    3  A    between atoms: CG   and  CD  
    4  A    between atoms: CD   and  CE  

>  <TORSDO>
F 26

>  <BEGIN_>
RES LYS A 131

$$$$
ligand_30_pose_5_2HRL.pdbqt
 OpenBabel07062320523D

  6  5  0  0  0  0  0  0  0  0999 V2000
   33.1930   34.6630    9.2900 C   0  0  0  0  0  0  0  0  0  0  0  0
   32.0600   35.3600   10.0340 C   0  0  0  0  0  0  0  0  0  0  0  0
   30.8650   35.6620    9.1660 C   0  0  0  0  0  0  0  0  0  0  0  0
   30.1050   36.8660    9.7000 C   0  0  0  0  0  0  0  0  0  0  0  0
   31.0670   37.9590   10.1230 C   0  0  0  0  0  0  0  0  0  0  0  0
   31.5050   38.7700    8.9530 N   0  0  0  0  0  0  0  0  0  0  0  0
  1  2  1  0  0  0  0
  3  4  1  0  0  0  0
  3  2  1  0  0  0  0
  4  5  1  0  0  0  0
  6  5  1  0  0  0  0
M  END
>  <EGIN_R>
ES LYS A 135

>  <REMARK>
  4 active torsions:
  status: ('A' for Active; 'I' for Inactive)
    5  A    between atoms: CA   and  CB  
    6  A    between atoms: CB   and  CG  
    7  A    between atoms: CG   and  CD  
    8  A    between atoms: CD   and  CE  

$$$$
