ligand_42_pose_11_2HRL.pdbqt
 OpenBabel07062320523D

 52 54  0  0  1  0  0  0  0  0999 V2000
   30.9040   33.6390   19.3590 C   0  0  0  0  0  0  0  0  0  0  0  0
   31.0050   32.2420   19.8720 C   0  0  2  0  0  0  0  0  0  0  0  0
   29.7640   31.4210   19.4830 C   0  0  1  0  0  0  0  0  0  0  0  0
   29.8320   30.1370   20.2280 C   0  0  2  0  0  0  0  0  0  0  0  0
   31.1570   28.3960   20.8670 C   0  0  2  0  0  0  0  0  0  0  0  0
   29.8870   28.0620   21.6190 C   0  0  0  0  0  0  0  0  0  0  0  0
   31.1190   29.6100   20.2270 O   0  0  0  0  0  0  0  0  0  0  0  0
   28.6670   28.0800   20.7180 C   0  0  1  0  0  0  0  0  0  0  0  0
   28.9320   29.0590   19.6250 C   0  0  1  0  0  0  0  0  0  0  0  0
   31.3870   27.3300   19.9950 O   0  0  0  0  0  0  0  0  0  0  0  0
   31.1570   27.6680   19.0880 H   0  0  0  0  0  0  0  0  0  0  0  0
   32.2430   28.4570   21.8730 C   0  0  0  0  0  0  0  0  0  0  0  0
   32.5250   29.5560   22.4060 O   0  0  0  0  0  0  0  0  0  0  0  0
   32.9710   27.3440   22.2570 O   0  0  0  0  0  0  0  0  0  0  0  0
   33.9530   27.2140   22.0390 H   0  0  0  0  0  0  0  0  0  0  0  0
   28.5390   26.7640   20.2220 O   0  0  0  0  0  0  0  0  0  0  0  0
   27.9550   26.2320   20.7920 H   0  0  0  0  0  0  0  0  0  0  0  0
   27.7880   29.5800   18.9690 N   0  0  0  0  0  0  0  0  0  0  0  0
   27.0340   28.9480   17.9450 C   0  0  0  0  0  0  0  0  0  0  0  0
   27.4530   30.5240   19.2600 H   0  0  0  0  0  0  0  0  0  0  0  0
   25.8390   29.5860   17.3180 C   0  0  0  0  0  0  0  0  0  0  0  0
   27.4110   27.8130   17.5750 O   0  0  0  0  0  0  0  0  0  0  0  0
   28.6600   32.1620   19.8060 O   0  0  0  0  0  0  0  0  0  0  0  0
   28.5160   32.9990   19.3520 H   0  0  0  0  0  0  0  0  0  0  0  0
   31.1240   32.2030   21.2360 O   0  0  0  0  0  0  0  0  0  0  0  0
   31.1020   33.0640   21.7050 H   0  0  0  0  0  0  0  0  0  0  0  0
   31.0530   33.7070   17.9480 N   0  0  0  0  0  0  0  0  0  0  0  0
   32.0220   34.4940   17.3050 C   0  0  0  0  0  0  0  0  0  0  0  0
   30.4120   33.1420   17.3100 H   0  0  0  0  0  0  0  0  0  0  0  0
   32.8450   35.2270   17.8770 O   0  0  0  0  0  0  0  0  0  0  0  0
   32.0870   34.4720   15.9000 O   0  0  0  0  0  0  0  0  0  0  0  0
   31.5410   33.3910   15.2070 C   0  0  0  0  0  0  0  0  0  0  0  0
   30.2180   33.7830   14.6570 C   0  0  0  0  0  0  0  0  0  0  0  0
   29.9910   34.4990   13.4870 C   0  0  0  0  0  0  0  0  0  0  0  0
   28.9950   33.5360   15.1570 N   0  0  0  0  0  0  0  0  0  0  0  0
   28.6680   34.6650   13.3120 N   0  0  0  0  0  0  0  0  0  0  0  0
   28.1020   34.0670   14.3440 N   0  0  0  0  0  0  0  0  0  0  0  0
   28.0460   35.3470   12.2280 C   0  0  0  0  0  0  0  0  0  0  0  0
   28.4280   36.6310   11.8960 C   0  0  0  0  0  0  0  0  0  0  0  0
   27.0480   34.7760   11.4660 C   0  0  0  0  0  0  0  0  0  0  0  0
   27.8330   37.3170   10.8390 C   0  0  0  0  0  0  0  0  0  0  0  0
   26.4380   35.4430   10.4040 C   0  0  0  0  0  0  0  0  0  0  0  0
   26.8370   36.7240   10.0920 C   0  0  0  0  0  0  0  0  0  0  0  0
   25.4340   35.0940    9.5040 O   0  0  0  0  0  0  0  0  0  0  0  0
   26.0570   37.1310    8.9960 O   0  0  0  0  0  0  0  0  0  0  0  0
   24.9140   36.2730    8.9170 C   0  0  0  0  0  0  0  0  0  0  0  0
   29.8670   25.5550   16.9770 C   0  0  0  0  0  0  0  0  0  0  0  0
   28.3450   25.7220   17.0260 C   0  0  0  0  0  0  0  0  0  0  0  0
   27.6020   24.3990   16.9240 C   0  0  0  0  0  0  0  0  0  0  0  0
   26.6500   24.1940   18.0700 C   0  0  0  0  0  0  0  0  0  0  0  0
   25.4120   25.0610   17.8640 C   0  0  0  0  0  0  0  0  0  0  0  0
   25.0500   25.7560   19.1220 N   0  0  0  0  0  0  0  0  0  0  0  0
  2  1  1  1  0  0  0
  2 25  1  0  0  0  0
  3 23  1  1  0  0  0
  3  2  1  0  0  0  0
  4  3  1  6  0  0  0
  5 10  1  6  0  0  0
  5  6  1  0  0  0  0
  5 12  1  0  0  0  0
  7  4  1  0  0  0  0
  7  5  1  0  0  0  0
  8 16  1  6  0  0  0
  8  6  1  0  0  0  0
  9 18  1  1  0  0  0
  9  4  1  0  0  0  0
  9  8  1  0  0  0  0
 11 10  1  0  0  0  0
 12 14  1  0  0  0  0
 12 13  2  0  0  0  0
 15 14  1  0  0  0  0
 16 17  1  0  0  0  0
 18 20  1  0  0  0  0
 19 18  1  0  0  0  0
 21 19  1  0  0  0  0
 22 19  2  0  0  0  0
 24 23  1  0  0  0  0
 25 26  1  0  0  0  0
 27  1  1  0  0  0  0
 28 30  2  0  0  0  0
 28 27  1  0  0  0  0
 29 27  1  0  0  0  0
 31 28  1  0  0  0  0
 32 31  1  0  0  0  0
 33 35  1  0  0  0  0
 33 32  1  0  0  0  0
 34 33  2  0  0  0  0
 36 34  1  0  0  0  0
 36 37  1  0  0  0  0
 37 35  2  0  0  0  0
 38 36  1  0  0  0  0
 39 38  1  0  0  0  0
 40 38  2  0  0  0  0
 41 39  2  0  0  0  0
 42 40  1  0  0  0  0
 43 42  2  0  0  0  0
 43 41  1  0  0  0  0
 44 42  1  0  0  0  0
 45 43  1  0  0  0  0
 46 45  1  0  0  0  0
 46 44  1  0  0  0  0
 47 48  1  0  0  0  0
 49 48  1  0  0  0  0
 49 50  1  0  0  0  0
 51 50  1  0  0  0  0
 51 52  1  0  0  0  0
M  END
>  <REMARK>
 VINA RESULT:    -5.561      3.182      6.155
 INTER + INTRA:         -14.172
 INTER:                  -9.005
 INTRA:                  -5.167
 UNBOUND:                -4.548
 SMILES CC(=O)N[C@@H]1[C@@H](O)C[C@](O)(C(=O)O)O[C@H]1C(O)[C@H](O)CNC(=O)OCc1cn(-c2ccc3c(c2)OCO3)nn1
 SMILES IDX 20 1 18 2 16 3 15 4 9 5 8 6 14 7 6 8 5 9 10 10 11 12 12 13
 SMILES IDX 13 14 7 16 4 18 2 19 1 21 3 22 17 23 19 25 21 27 22 28 23 30
 SMILES IDX 24 31 25 32 26 33 27 34 39 35 28 36 38 37 29 38 30 39 34 40
 SMILES IDX 31 41 33 42 32 43 35 44 37 45 36 46
 H PARENT 10 11 13 15 7 17 4 20 17 24 19 26 21 29
 Flexibility Score: inf
  4 active torsions:
  status: ('A' for Active; 'I' for Inactive)
    1  A    between atoms: CA   and  CB  
    2  A    between atoms: CB   and  CG  
    3  A    between atoms: CG   and  CD  
    4  A    between atoms: CD   and  CE  

>  <TORSDO>
F 15

>  <BEGIN_>
RES LYS A 131

$$$$
ligand_42_pose_11_2HRL.pdbqt
 OpenBabel07062320523D

  6  5  0  0  0  0  0  0  0  0999 V2000
   33.1930   34.6630    9.2900 C   0  0  0  0  0  0  0  0  0  0  0  0
   32.0600   35.3600   10.0340 C   0  0  0  0  0  0  0  0  0  0  0  0
   30.7040   34.7620    9.7630 C   0  0  0  0  0  0  0  0  0  0  0  0
   30.4780   34.5980    8.2680 C   0  0  0  0  0  0  0  0  0  0  0  0
   29.0230   34.8440    7.9190 C   0  0  0  0  0  0  0  0  0  0  0  0
   28.8970   35.5810    6.6310 N   0  0  0  0  0  0  0  0  0  0  0  0
  1  2  1  0  0  0  0
  3  2  1  0  0  0  0
  4  3  1  0  0  0  0
  5  4  1  0  0  0  0
  6  5  1  0  0  0  0
M  END
>  <EGIN_R>
ES LYS A 135

>  <REMARK>
  4 active torsions:
  status: ('A' for Active; 'I' for Inactive)
    5  A    between atoms: CA   and  CB  
    6  A    between atoms: CB   and  CG  
    7  A    between atoms: CG   and  CD  
    8  A    between atoms: CD   and  CE  

$$$$
