ligand_77_pose_14_2HRL.pdbqt
 OpenBabel07062320523D

 61 63  0  0  1  0  0  0  0  0999 V2000
   28.8420   31.7160   18.7690 N   0  0  0  0  0  0  0  0  0  0  0  0
   28.5360   30.5350   19.4860 C   0  0  0  0  0  0  0  0  0  0  0  0
   28.1000   29.5440   18.8900 O   0  0  0  0  0  0  0  0  0  0  0  0
   29.2160   32.5190   19.3640 H   0  0  0  0  0  0  0  0  0  0  0  0
   28.6860   31.8910   17.3440 C   0  0  0  0  0  0  0  0  0  0  0  0
   29.9170   31.4170   16.6500 C   0  0  2  0  0  0  0  0  0  0  0  0
   30.6810   32.5360   15.9750 C   0  0  1  0  0  0  0  0  0  0  0  0
   31.4930   33.3800   16.8970 C   0  0  2  0  0  0  0  0  0  0  0  0
   31.2080   34.5190   18.8940 C   0  0  2  0  0  0  0  0  0  0  0  0
   32.5120   35.2160   18.6590 C   0  0  0  0  0  0  0  0  0  0  0  0
   31.0920   33.3210   18.2120 O   0  0  0  0  0  0  0  0  0  0  0  0
   32.9230   35.3000   17.2330 C   0  0  1  0  0  0  0  0  0  0  0  0
   31.7570   34.7720   16.3800 C   0  0  1  0  0  0  0  0  0  0  0  0
   30.1120   35.3740   18.6330 O   0  0  0  0  0  0  0  0  0  0  0  0
   30.0430   36.0160   19.3600 H   0  0  0  0  0  0  0  0  0  0  0  0
   31.1260   34.2000   20.3500 C   0  0  0  0  0  0  0  0  0  0  0  0
   31.8820   34.8310   21.1520 O   0  0  0  0  0  0  0  0  0  0  0  0
   30.2800   33.2630   20.8850 O   0  0  0  0  0  0  0  0  0  0  0  0
   30.6510   32.4320   21.3420 H   0  0  0  0  0  0  0  0  0  0  0  0
   33.2870   36.5750   16.8290 O   0  0  0  0  0  0  0  0  0  0  0  0
   34.2310   36.5520   16.4730 H   0  0  0  0  0  0  0  0  0  0  0  0
   32.2200   34.6510   15.0030 N   0  0  0  0  0  0  0  0  0  0  0  0
   32.0010   35.7080   14.0850 C   0  0  0  0  0  0  0  0  0  0  0  0
   32.7150   33.8030   14.6550 H   0  0  0  0  0  0  0  0  0  0  0  0
   32.4630   35.6130   12.6550 C   0  0  0  0  0  0  0  0  0  0  0  0
   31.4180   36.7670   14.4000 O   0  0  0  0  0  0  0  0  0  0  0  0
   31.4670   31.9180   14.9950 O   0  0  0  0  0  0  0  0  0  0  0  0
   30.9700   31.9430   14.1500 H   0  0  0  0  0  0  0  0  0  0  0  0
   29.6370   30.3580   15.8000 O   0  0  0  0  0  0  0  0  0  0  0  0
   30.0860   30.5230   14.9320 H   0  0  0  0  0  0  0  0  0  0  0  0
   28.7040   30.4240   20.8630 O   0  0  0  0  0  0  0  0  0  0  0  0
   29.0400   29.1930   21.4830 C   0  0  0  0  0  0  0  0  0  0  0  0
   30.4660   29.1630   21.9170 C   0  0  0  0  0  0  0  0  0  0  0  0
   31.3660   30.1640   21.6700 C   0  0  0  0  0  0  0  0  0  0  0  0
   31.1130   28.2060   22.5960 N   0  0  0  0  0  0  0  0  0  0  0  0
   32.5510   29.7930   22.2070 N   0  0  0  0  0  0  0  0  0  0  0  0
   32.3540   28.6230   22.7480 N   0  0  0  0  0  0  0  0  0  0  0  0
   33.7200   30.5940   22.1420 C   0  0  0  0  0  0  0  0  0  0  0  0
   34.9420   30.0680   22.5020 C   0  0  0  0  0  0  0  0  0  0  0  0
   33.6930   31.9070   21.7250 C   0  0  0  0  0  0  0  0  0  0  0  0
   36.1080   30.8140   22.4530 C   0  0  0  0  0  0  0  0  0  0  0  0
   34.8650   32.6690   21.6710 C   0  0  0  0  0  0  0  0  0  0  0  0
   36.0710   32.1220   22.0360 C   0  0  0  0  0  0  0  0  0  0  0  0
   37.5270   33.0520   21.9740 S   0  0  0  0  0  0  0  0  0  0  0  0
   38.6620   32.2570   22.5240 O   0  0  0  0  0  0  0  0  0  0  0  0
   37.4310   34.3250   22.7610 O   0  0  0  0  0  0  0  0  0  0  0  0
   37.8080   33.4920   20.2930 C   0  0  0  0  0  0  0  0  0  0  0  0
   37.3450   34.6990   19.8400 C   0  0  0  0  0  0  0  0  0  0  0  0
   38.4880   32.6450   19.4240 C   0  0  0  0  0  0  0  0  0  0  0  0
   37.5450   35.0880   18.5220 C   0  0  0  0  0  0  0  0  0  0  0  0
   38.7040   33.0020   18.1020 C   0  0  0  0  0  0  0  0  0  0  0  0
   38.2230   34.2210   17.6870 C   0  0  0  0  0  0  0  0  0  0  0  0
   38.4330   34.6040   16.3430 N   0  0  0  0  0  0  0  0  0  0  0  0
   38.1530   35.5430   16.0160 H   0  0  0  0  0  0  0  0  0  0  0  0
   38.8700   33.9340   15.6860 H   0  0  0  0  0  0  0  0  0  0  0  0
   29.8670   25.5550   16.9770 C   0  0  0  0  0  0  0  0  0  0  0  0
   28.3450   25.7220   17.0260 C   0  0  0  0  0  0  0  0  0  0  0  0
   27.6010   24.4030   16.8870 C   0  0  0  0  0  0  0  0  0  0  0  0
   26.1460   24.5320   17.2440 C   0  0  0  0  0  0  0  0  0  0  0  0
   25.5730   23.1530   17.5530 C   0  0  0  0  0  0  0  0  0  0  0  0
   24.1610   23.0670   17.1100 N   0  0  0  0  0  0  0  0  0  0  0  0
  1  4  1  0  0  0  0
  1  2  1  0  0  0  0
  2 31  1  0  0  0  0
  3  2  2  0  0  0  0
  5  1  1  0  0  0  0
  6  5  1  6  0  0  0
  7 27  1  6  0  0  0
  7  6  1  0  0  0  0
  8  7  1  6  0  0  0
  8 11  1  0  0  0  0
  9 14  1  6  0  0  0
  9 16  1  0  0  0  0
 10  9  1  0  0  0  0
 11  9  1  0  0  0  0
 12 20  1  6  0  0  0
 12 10  1  0  0  0  0
 13 22  1  6  0  0  0
 13  8  1  0  0  0  0
 13 12  1  0  0  0  0
 14 15  1  0  0  0  0
 16 18  1  0  0  0  0
 16 17  2  0  0  0  0
 18 19  1  0  0  0  0
 21 20  1  0  0  0  0
 23 26  2  0  0  0  0
 23 22  1  0  0  0  0
 24 22  1  0  0  0  0
 25 23  1  0  0  0  0
 28 27  1  0  0  0  0
 29  6  1  0  0  0  0
 30 29  1  0  0  0  0
 31 32  1  0  0  0  0
 32 33  1  0  0  0  0
 33 35  1  0  0  0  0
 34 33  2  0  0  0  0
 34 36  1  0  0  0  0
 35 37  2  0  0  0  0
 36 37  1  0  0  0  0
 38 36  1  0  0  0  0
 38 39  2  0  0  0  0
 40 38  1  0  0  0  0
 41 39  1  0  0  0  0
 42 40  2  0  0  0  0
 42 43  1  0  0  0  0
 43 41  2  0  0  0  0
 44 43  1  0  0  0  0
 44 45  2  0  0  0  0
 44 46  2  0  0  0  0
 47 44  1  0  0  0  0
 48 47  1  0  0  0  0
 49 47  2  0  0  0  0
 50 48  2  0  0  0  0
 51 49  1  0  0  0  0
 52 51  2  0  0  0  0
 52 50  1  0  0  0  0
 53 52  1  0  0  0  0
 54 53  1  0  0  0  0
 55 53  1  0  0  0  0
 56 57  1  0  0  0  0
 58 57  1  0  0  0  0
 58 59  1  0  0  0  0
 59 60  1  0  0  0  0
 61 60  1  0  0  0  0
M  END
>  <REMARK>
 VINA RESULT:    -5.118      2.817      6.181
 INTER + INTRA:         -16.134
 INTER:                  -9.684
 INTRA:                  -6.450
 UNBOUND:                -6.527
 SMILES CC(=O)N[C@@H]1[C@@H](O)C[C@](O)(C(=O)O)O[C@H]1C(O)[C@H](O)CNC(=O)OCc1cn(-c2ccc(S(=O)(=O)c3ccc(N)cc3)cc2)nn1
 SMILES IDX 21 1 22 2 23 3 20 5 18 6 16 7 15 8 9 9 8 10 14 11 6 12 5 13
 SMILES IDX 10 14 11 16 12 17 13 18 7 20 4 22 2 23 1 25 3 26 17 27 19 29
 SMILES IDX 24 31 25 32 26 33 27 34 46 35 28 36 45 37 29 38 30 39 44 40
 SMILES IDX 31 41 43 42 32 43 33 44 34 45 35 46 36 47 37 48 42 49 38 50
 SMILES IDX 41 51 39 52 40 53
 H PARENT 21 4 10 15 13 19 7 21 4 24 17 28 19 30 40 54 40 55
 Flexibility Score: inf
  4 active torsions:
  status: ('A' for Active; 'I' for Inactive)
    1  A    between atoms: CA   and  CB  
    2  A    between atoms: CB   and  CG  
    3  A    between atoms: CG   and  CD  
    4  A    between atoms: CD   and  CE  

>  <TORSDO>
F 18

>  <BEGIN_>
RES LYS A 131

$$$$
ligand_77_pose_14_2HRL.pdbqt
 OpenBabel07062320523D

  6  5  0  0  0  0  0  0  0  0999 V2000
   33.1930   34.6630    9.2900 C   0  0  0  0  0  0  0  0  0  0  0  0
   32.0600   35.3600   10.0340 C   0  0  0  0  0  0  0  0  0  0  0  0
   30.7830   35.4510    9.2390 C   0  0  0  0  0  0  0  0  0  0  0  0
   30.1910   34.0690    9.0140 C   0  0  0  0  0  0  0  0  0  0  0  0
   28.6770   34.1170    9.1030 C   0  0  0  0  0  0  0  0  0  0  0  0
   28.0970   34.8700    7.9570 N   0  0  0  0  0  0  0  0  0  0  0  0
  1  2  1  0  0  0  0
  3  2  1  0  0  0  0
  4  5  1  0  0  0  0
  4  3  1  0  0  0  0
  6  5  1  0  0  0  0
M  END
>  <EGIN_R>
ES LYS A 135

>  <REMARK>
  4 active torsions:
  status: ('A' for Active; 'I' for Inactive)
    5  A    between atoms: CA   and  CB  
    6  A    between atoms: CB   and  CG  
    7  A    between atoms: CG   and  CD  
    8  A    between atoms: CD   and  CE  

$$$$
