ligand_7_pose_7_2HRL.pdbqt
 OpenBabel07062320523D

 52 53  0  0  1  0  0  0  0  0999 V2000
   27.3350   41.4250    9.0760 C   0  0  0  0  0  0  0  0  0  0  0  0
   26.8190   41.2500    7.6930 C   0  0  2  0  0  0  0  0  0  0  0  0
   27.7450   40.5630    6.7420 C   0  0  1  0  0  0  0  0  0  0  0  0
   27.5170   39.1110    6.5410 C   0  0  2  0  0  0  0  0  0  0  0  0
   26.5980   37.3510    7.7760 C   0  0  2  0  0  0  0  0  0  0  0  0
   27.2130   36.3470    6.8440 C   0  0  0  0  0  0  0  0  0  0  0  0
   26.4790   38.6110    7.2710 O   0  0  0  0  0  0  0  0  0  0  0  0
   28.3220   36.8960    6.0130 C   0  0  1  0  0  0  0  0  0  0  0  0
   28.7440   38.2530    6.6040 C   0  0  1  0  0  0  0  0  0  0  0  0
   27.3470   37.3570    8.9500 O   0  0  0  0  0  0  0  0  0  0  0  0
   27.5180   36.4050    9.2030 H   0  0  0  0  0  0  0  0  0  0  0  0
   25.2310   36.8580    8.0960 C   0  0  0  0  0  0  0  0  0  0  0  0
   25.0620   35.9740    8.9590 O   0  0  0  0  0  0  0  0  0  0  0  0
   24.1100   37.3740    7.4330 O   0  0  0  0  0  0  0  0  0  0  0  0
   24.2500   37.8380    6.5240 H   0  0  0  0  0  0  0  0  0  0  0  0
   29.3990   36.0470    5.8580 O   0  0  0  0  0  0  0  0  0  0  0  0
   29.4180   35.7630    4.8960 H   0  0  0  0  0  0  0  0  0  0  0  0
   29.7860   38.7290    5.7330 N   0  0  0  0  0  0  0  0  0  0  0  0
   30.9290   39.3370    6.3180 C   0  0  0  0  0  0  0  0  0  0  0  0
   29.7340   38.6430    4.6880 H   0  0  0  0  0  0  0  0  0  0  0  0
   32.0580   39.8620    5.5060 C   0  0  0  0  0  0  0  0  0  0  0  0
   31.0200   39.4510    7.5660 O   0  0  0  0  0  0  0  0  0  0  0  0
   27.6650   41.2200    5.5170 O   0  0  0  0  0  0  0  0  0  0  0  0
   26.8580   40.8900    5.0490 H   0  0  0  0  0  0  0  0  0  0  0  0
   26.3170   42.4490    7.1820 O   0  0  0  0  0  0  0  0  0  0  0  0
   26.9350   42.8600    6.5270 H   0  0  0  0  0  0  0  0  0  0  0  0
   27.7970   40.1880    9.6710 N   0  0  0  0  0  0  0  0  0  0  0  0
   29.0740   40.0480   10.2830 C   0  0  0  0  0  0  0  0  0  0  0  0
   27.2000   39.3070    9.6850 H   0  0  0  0  0  0  0  0  0  0  0  0
   29.8590   41.0140   10.3250 O   0  0  0  0  0  0  0  0  0  0  0  0
   29.4750   38.8340   10.8460 O   0  0  0  0  0  0  0  0  0  0  0  0
   30.8460   38.6690   11.2430 C   0  0  0  0  0  0  0  0  0  0  0  0
   30.8710   37.9200   12.5250 C   0  0  0  0  0  0  0  0  0  0  0  0
   30.7020   36.5520   12.6600 C   0  0  0  0  0  0  0  0  0  0  0  0
   31.0530   38.3840   13.7530 N   0  0  0  0  0  0  0  0  0  0  0  0
   30.7840   36.2210   13.9500 N   0  0  0  0  0  0  0  0  0  0  0  0
   31.0020   37.3840   14.5870 N   0  0  0  0  0  0  0  0  0  0  0  0
   30.6770   34.9510   14.5800 C   0  0  0  0  0  0  0  0  0  0  0  0
   31.8090   34.2260   14.8770 C   0  0  0  0  0  0  0  0  0  0  0  0
   29.4490   34.4000   14.9120 C   0  0  0  0  0  0  0  0  0  0  0  0
   33.1330   34.7920   14.5350 C   0  0  0  0  0  0  0  0  0  0  0  0
   31.6990   32.9740   15.4970 C   0  0  0  0  0  0  0  0  0  0  0  0
   29.3510   33.1650   15.5230 C   0  0  0  0  0  0  0  0  0  0  0  0
   28.2230   35.2080   14.5780 C   0  0  0  0  0  0  0  0  0  0  0  0
   30.4760   32.4290   15.8260 C   0  0  0  0  0  0  0  0  0  0  0  0
   30.3860   31.0930   16.4870 C   0  0  0  0  0  0  0  0  0  0  0  0
   29.8670   25.5550   16.9770 C   0  0  0  0  0  0  0  0  0  0  0  0
   28.3450   25.7220   17.0260 C   0  0  0  0  0  0  0  0  0  0  0  0
   27.6030   24.3950   16.9800 C   0  0  0  0  0  0  0  0  0  0  0  0
   26.3140   24.4390   17.7530 C   0  0  0  0  0  0  0  0  0  0  0  0
   25.5100   23.1740   17.4740 C   0  0  0  0  0  0  0  0  0  0  0  0
   24.1350   23.5180   17.0410 N   0  0  0  0  0  0  0  0  0  0  0  0
  1 27  1  0  0  0  0
  2  1  1  1  0  0  0
  3 23  1  6  0  0  0
  3  2  1  0  0  0  0
  4  9  1  0  0  0  0
  4  3  1  1  0  0  0
  4  7  1  0  0  0  0
  5 12  1  1  0  0  0
  5 10  1  0  0  0  0
  6  5  1  0  0  0  0
  7  5  1  0  0  0  0
  8 16  1  1  0  0  0
  8  9  1  0  0  0  0
  8  6  1  0  0  0  0
  9 18  1  6  0  0  0
 10 11  1  0  0  0  0
 12 13  2  0  0  0  0
 14 12  1  0  0  0  0
 15 14  1  0  0  0  0
 17 16  1  0  0  0  0
 18 19  1  0  0  0  0
 19 22  2  0  0  0  0
 20 18  1  0  0  0  0
 21 19  1  0  0  0  0
 24 23  1  0  0  0  0
 25  2  1  0  0  0  0
 26 25  1  0  0  0  0
 27 29  1  0  0  0  0
 27 28  1  0  0  0  0
 28 30  2  0  0  0  0
 28 31  1  0  0  0  0
 31 32  1  0  0  0  0
 32 33  1  0  0  0  0
 33 34  2  0  0  0  0
 33 35  1  0  0  0  0
 34 36  1  0  0  0  0
 35 37  2  0  0  0  0
 36 38  1  0  0  0  0
 36 37  1  0  0  0  0
 38 39  2  0  0  0  0
 38 40  1  0  0  0  0
 39 42  1  0  0  0  0
 40 43  2  0  0  0  0
 41 39  1  0  0  0  0
 42 45  2  0  0  0  0
 43 45  1  0  0  0  0
 44 40  1  0  0  0  0
 45 46  1  0  0  0  0
 47 48  1  0  0  0  0
 49 48  1  0  0  0  0
 49 50  1  0  0  0  0
 51 50  1  0  0  0  0
 52 51  1  0  0  0  0
M  END
>  <REMARK>
 VINA RESULT:    -4.792      7.796     13.471
 INTER + INTRA:         -14.211
 INTER:                  -9.205
 INTRA:                  -5.005
 UNBOUND:                -5.917
 SMILES CC(=O)N[C@@H]1[C@@H](O)C[C@](O)(C(=O)O)O[C@H]1C(O)[C@H](O)CNC(=O)OCc1cn(-c2c(C)cc(C)cc2C)nn1
 SMILES IDX 20 1 18 2 16 3 15 4 9 5 8 6 14 7 6 8 5 9 10 10 11 12 12 13
 SMILES IDX 13 14 7 16 4 18 2 19 1 21 3 22 17 23 19 25 21 27 22 28 23 30
 SMILES IDX 24 31 25 32 26 33 27 34 39 35 28 36 38 37 29 38 30 39 36 40
 SMILES IDX 31 41 32 42 35 43 37 44 33 45 34 46
 H PARENT 10 11 13 15 7 17 4 20 17 24 19 26 21 29
 Flexibility Score: inf
  4 active torsions:
  status: ('A' for Active; 'I' for Inactive)
    1  A    between atoms: CA   and  CB  
    2  A    between atoms: CB   and  CG  
    3  A    between atoms: CG   and  CD  
    4  A    between atoms: CD   and  CE  

>  <TORSDO>
F 15

>  <BEGIN_>
RES LYS A 131

$$$$
ligand_7_pose_7_2HRL.pdbqt
 OpenBabel07062320523D

  6  5  0  0  0  0  0  0  0  0999 V2000
   33.1930   34.6630    9.2900 C   0  0  0  0  0  0  0  0  0  0  0  0
   32.0600   35.3600   10.0340 C   0  0  0  0  0  0  0  0  0  0  0  0
   30.7890   35.4690    9.2310 C   0  0  0  0  0  0  0  0  0  0  0  0
   30.2110   34.0900    8.9520 C   0  0  0  0  0  0  0  0  0  0  0  0
   28.7270   34.0620    9.2630 C   0  0  0  0  0  0  0  0  0  0  0  0
   28.4670   34.4550   10.6750 N   0  0  0  0  0  0  0  0  0  0  0  0
  1  2  1  0  0  0  0
  3  2  1  0  0  0  0
  4  3  1  0  0  0  0
  4  5  1  0  0  0  0
  5  6  1  0  0  0  0
M  END
>  <EGIN_R>
ES LYS A 135

>  <REMARK>
  4 active torsions:
  status: ('A' for Active; 'I' for Inactive)
    5  A    between atoms: CA   and  CB  
    6  A    between atoms: CB   and  CG  
    7  A    between atoms: CG   and  CD  
    8  A    between atoms: CD   and  CE  

$$$$
