ligand_50_pose_18_2HRL.pdbqt
 OpenBabel07062320523D

 50 50  0  0  1  0  0  0  0  0999 V2000
   28.3500   31.1230   15.5930 N   0  0  0  0  0  0  0  0  0  0  0  0
   27.2890   30.2510   15.9410 C   0  0  0  0  0  0  0  0  0  0  0  0
   27.4570   29.3200   16.7490 O   0  0  0  0  0  0  0  0  0  0  0  0
   28.1060   31.8870   14.8920 H   0  0  0  0  0  0  0  0  0  0  0  0
   29.6520   30.9770   16.1480 C   0  0  0  0  0  0  0  0  0  0  0  0
   30.5350   32.1900   15.9550 C   0  0  2  0  0  0  0  0  0  0  0  0
   29.6170   33.3230   15.5120 C   0  0  1  0  0  0  0  0  0  0  0  0
   30.0240   34.6300   16.2010 C   0  0  2  0  0  0  0  0  0  0  0  0
   28.4340   36.3210   16.1220 C   0  0  2  0  0  0  0  0  0  0  0  0
   29.4940   37.3820   16.3440 C   0  0  0  0  0  0  0  0  0  0  0  0
   28.8870   35.1750   16.7270 O   0  0  0  0  0  0  0  0  0  0  0  0
   30.7040   36.9710   15.5790 C   0  0  1  0  0  0  0  0  0  0  0  0
   30.7710   35.5030   15.2430 C   0  0  1  0  0  0  0  0  0  0  0  0
   28.2720   36.2000   14.7430 O   0  0  0  0  0  0  0  0  0  0  0  0
   29.1170   36.3100   14.2510 H   0  0  0  0  0  0  0  0  0  0  0  0
   27.1420   36.7090   16.7450 C   0  0  0  0  0  0  0  0  0  0  0  0
   27.0380   37.8560   17.2470 O   0  0  0  0  0  0  0  0  0  0  0  0
   26.0930   35.8210   16.7630 O   0  0  0  0  0  0  0  0  0  0  0  0
   26.2610   34.8200   16.7720 H   0  0  0  0  0  0  0  0  0  0  0  0
   30.7040   37.6730   14.3670 O   0  0  0  0  0  0  0  0  0  0  0  0
   30.9000   37.0590   13.6360 H   0  0  0  0  0  0  0  0  0  0  0  0
   32.1760   35.1530   15.2250 N   0  0  0  0  0  0  0  0  0  0  0  0
   32.8310   34.9750   13.9800 C   0  0  0  0  0  0  0  0  0  0  0  0
   32.7370   35.0220   16.0980 H   0  0  0  0  0  0  0  0  0  0  0  0
   34.2890   34.6090   13.9000 C   0  0  0  0  0  0  0  0  0  0  0  0
   32.2480   35.1080   12.8730 O   0  0  0  0  0  0  0  0  0  0  0  0
   29.6380   33.4170   14.1420 O   0  0  0  0  0  0  0  0  0  0  0  0
   28.7420   33.2250   13.7470 H   0  0  0  0  0  0  0  0  0  0  0  0
   31.5120   31.9340   14.9920 O   0  0  0  0  0  0  0  0  0  0  0  0
   31.7200   32.7830   14.5570 H   0  0  0  0  0  0  0  0  0  0  0  0
   26.0100   30.4110   15.3860 O   0  0  0  0  0  0  0  0  0  0  0  0
   25.2560   31.5240   15.7700 C   0  0  0  0  0  0  0  0  0  0  0  0
   25.4240   32.6610   14.8310 C   0  0  0  0  0  0  0  0  0  0  0  0
   24.6180   32.9820   13.7780 C   0  0  0  0  0  0  0  0  0  0  0  0
   26.4010   33.5710   14.8550 N   0  0  0  0  0  0  0  0  0  0  0  0
   25.1500   34.0920   13.2000 N   0  0  0  0  0  0  0  0  0  0  0  0
   26.2400   34.4400   13.8690 N   0  0  0  0  0  0  0  0  0  0  0  0
   24.5920   34.7700   12.0320 C   0  0  0  0  0  0  0  0  0  0  0  0
   25.7750   35.1910   11.1830 C   0  0  1  0  0  0  0  0  0  0  0  0
   26.5940   34.0910   10.9580 O   0  0  0  0  0  0  0  0  0  0  0  0
   26.0840   33.4370   10.4090 H   0  0  0  0  0  0  0  0  0  0  0  0
   25.2880   35.7520    9.8430 C   0  0  0  0  0  0  0  0  0  0  0  0
   23.9640   35.3600    9.6340 O   0  0  0  0  0  0  0  0  0  0  0  0
   23.9530   34.4820    9.1480 H   0  0  0  0  0  0  0  0  0  0  0  0
   29.8670   25.5550   16.9770 C   0  0  0  0  0  0  0  0  0  0  0  0
   28.3450   25.7220   17.0260 C   0  0  0  0  0  0  0  0  0  0  0  0
   27.6010   24.4020   16.8910 C   0  0  0  0  0  0  0  0  0  0  0  0
   26.5740   24.2170   17.9730 C   0  0  0  0  0  0  0  0  0  0  0  0
   25.2300   23.8630   17.3450 C   0  0  0  0  0  0  0  0  0  0  0  0
   24.9110   22.4340   17.5750 N   0  0  0  0  0  0  0  0  0  0  0  0
  1  2  1  0  0  0  0
  1  5  1  0  0  0  0
  2  3  2  0  0  0  0
  4  1  1  0  0  0  0
  6  5  1  6  0  0  0
  7 27  1  6  0  0  0
  7  6  1  0  0  0  0
  8  7  1  6  0  0  0
  8 11  1  0  0  0  0
  9 14  1  6  0  0  0
  9 10  1  0  0  0  0
  9 11  1  0  0  0  0
  9 16  1  0  0  0  0
 12 20  1  6  0  0  0
 12 10  1  0  0  0  0
 13 22  1  1  0  0  0
 13 12  1  0  0  0  0
 13  8  1  0  0  0  0
 15 14  1  0  0  0  0
 16 18  1  0  0  0  0
 16 17  2  0  0  0  0
 18 19  1  0  0  0  0
 21 20  1  0  0  0  0
 22 24  1  0  0  0  0
 23 22  1  0  0  0  0
 25 23  1  0  0  0  0
 26 23  2  0  0  0  0
 28 27  1  0  0  0  0
 29  6  1  0  0  0  0
 30 29  1  0  0  0  0
 31 32  1  0  0  0  0
 31  2  1  0  0  0  0
 33 35  1  0  0  0  0
 33 32  1  0  0  0  0
 34 33  2  0  0  0  0
 36 34  1  0  0  0  0
 36 37  1  0  0  0  0
 37 35  2  0  0  0  0
 38 36  1  0  0  0  0
 39 42  1  6  0  0  0
 39 38  1  0  0  0  0
 40 39  1  0  0  0  0
 41 40  1  0  0  0  0
 43 42  1  0  0  0  0
 44 43  1  0  0  0  0
 45 46  1  0  0  0  0
 47 46  1  0  0  0  0
 47 48  1  0  0  0  0
 49 50  1  0  0  0  0
 49 48  1  0  0  0  0
M  END
>  <REMARK>
 VINA RESULT:    -4.444      4.285      6.748
 INTER + INTRA:         -13.949
 INTER:                  -6.799
 INTRA:                  -7.150
 UNBOUND:                -5.477
 SMILES CC(=O)N[C@@H]1[C@@H](O)C[C@](O)(C(=O)O)O[C@H]1C(O)[C@H](O)CNC(=O)OCc1cn(CC(O)CO)nn1
 SMILES IDX 21 1 22 2 23 3 20 5 18 6 16 7 15 8 9 9 8 10 14 11 6 12 5 13
 SMILES IDX 10 14 11 16 12 17 13 18 7 20 4 22 2 23 1 25 3 26 17 27 19 29
 SMILES IDX 24 31 25 32 26 33 27 34 35 35 28 36 34 37 29 38 30 39 31 40
 SMILES IDX 32 42 33 43
 H PARENT 21 4 10 15 13 19 7 21 4 24 17 28 19 30 31 41 33 44
 Flexibility Score: inf
  4 active torsions:
  status: ('A' for Active; 'I' for Inactive)
    1  A    between atoms: CA   and  CB  
    2  A    between atoms: CB   and  CG  
    3  A    between atoms: CG   and  CD  
    4  A    between atoms: CD   and  CE  

>  <TORSDO>
F 19

>  <BEGIN_>
RES LYS A 131

$$$$
ligand_50_pose_18_2HRL.pdbqt
 OpenBabel07062320523D

  6  5  0  0  0  0  0  0  0  0999 V2000
   33.1930   34.6630    9.2900 C   0  0  0  0  0  0  0  0  0  0  0  0
   32.0600   35.3600   10.0340 C   0  0  0  0  0  0  0  0  0  0  0  0
   30.8240   35.5620    9.1970 C   0  0  0  0  0  0  0  0  0  0  0  0
   30.0910   34.2440    8.9950 C   0  0  0  0  0  0  0  0  0  0  0  0
   28.7400   34.4790    8.3470 C   0  0  0  0  0  0  0  0  0  0  0  0
   28.5190   35.9270    8.0770 N   0  0  0  0  0  0  0  0  0  0  0  0
  1  2  1  0  0  0  0
  3  2  1  0  0  0  0
  4  3  1  0  0  0  0
  5  4  1  0  0  0  0
  6  5  1  0  0  0  0
M  END
>  <EGIN_R>
ES LYS A 135

>  <REMARK>
  4 active torsions:
  status: ('A' for Active; 'I' for Inactive)
    5  A    between atoms: CA   and  CB  
    6  A    between atoms: CB   and  CG  
    7  A    between atoms: CG   and  CD  
    8  A    between atoms: CD   and  CE  

$$$$
