ligand_58_pose_17_2HRL.pdbqt
 OpenBabel07062320523D

 56 58  0  0  1  0  0  0  0  0999 V2000
   27.4850   42.2050    9.8220 N   0  0  0  0  0  0  0  0  0  0  0  0
   26.9000   41.2380   10.6680 C   0  0  0  0  0  0  0  0  0  0  0  0
   27.6250   40.4670   11.3400 O   0  0  0  0  0  0  0  0  0  0  0  0
   26.8560   42.8280    9.2760 H   0  0  0  0  0  0  0  0  0  0  0  0
   28.9030   42.3410    9.7070 C   0  0  0  0  0  0  0  0  0  0  0  0
   29.3000   42.1290    8.2450 C   0  0  2  0  0  0  0  0  0  0  0  0
   28.9390   40.6860    7.9310 C   0  0  2  0  0  0  0  0  0  0  0  0
   29.9970   39.9200    7.1880 C   0  0  2  0  0  0  0  0  0  0  0  0
   29.1130   37.7410    7.3210 C   0  0  2  0  0  0  0  0  0  0  0  0
   30.1930   37.3310    8.2980 C   0  0  0  0  0  0  0  0  0  0  0  0
   29.3670   38.8480    6.5850 O   0  0  0  0  0  0  0  0  0  0  0  0
   30.7750   38.4920    9.0470 C   0  0  1  0  0  0  0  0  0  0  0  0
   31.1430   39.5380    8.0390 C   0  0  1  0  0  0  0  0  0  0  0  0
   27.9770   37.9760    8.0980 O   0  0  0  0  0  0  0  0  0  0  0  0
   27.6200   37.0810    8.3590 H   0  0  0  0  0  0  0  0  0  0  0  0
   28.7920   36.5530    6.4490 C   0  0  0  0  0  0  0  0  0  0  0  0
   27.8100   36.5460    5.7010 O   0  0  0  0  0  0  0  0  0  0  0  0
   29.6280   35.4630    6.5040 O   0  0  0  0  0  0  0  0  0  0  0  0
   29.3610   34.6580    7.0820 H   0  0  0  0  0  0  0  0  0  0  0  0
   29.8730   38.8980    9.9890 O   0  0  0  0  0  0  0  0  0  0  0  0
   29.4350   38.1230   10.4360 H   0  0  0  0  0  0  0  0  0  0  0  0
   32.2430   38.9800    7.2270 N   0  0  0  0  0  0  0  0  0  0  0  0
   33.2500   39.7890    6.6730 C   0  0  0  0  0  0  0  0  0  0  0  0
   32.2570   37.9500    7.0680 H   0  0  0  0  0  0  0  0  0  0  0  0
   34.3400   39.1860    5.8620 C   0  0  0  0  0  0  0  0  0  0  0  0
   33.2420   41.0370    6.8570 O   0  0  0  0  0  0  0  0  0  0  0  0
   27.7940   40.7920    7.0600 O   0  0  0  0  0  0  0  0  0  0  0  0
   27.3520   41.6470    7.1740 H   0  0  0  0  0  0  0  0  0  0  0  0
   30.6680   42.3530    8.2020 O   0  0  0  0  0  0  0  0  0  0  0  0
   30.9920   42.6050    7.3160 H   0  0  0  0  0  0  0  0  0  0  0  0
   25.5210   41.1060   10.7870 O   0  0  0  0  0  0  0  0  0  0  0  0
   24.7410   41.0800    9.6230 C   0  0  0  0  0  0  0  0  0  0  0  0
   24.8840   39.7500    8.9760 C   0  0  0  0  0  0  0  0  0  0  0  0
   24.6830   38.5200    9.6090 C   0  0  0  0  0  0  0  0  0  0  0  0
   25.2200   39.4240    7.7160 N   0  0  0  0  0  0  0  0  0  0  0  0
   24.9010   37.5400    8.7300 N   0  0  0  0  0  0  0  0  0  0  0  0
   25.2240   38.1010    7.5950 N   0  0  0  0  0  0  0  0  0  0  0  0
   24.8090   36.1040    8.9490 C   0  0  0  0  0  0  0  0  0  0  0  0
   26.0890   35.5430    9.3850 C   0  0  0  0  0  0  0  0  0  0  0  0
   26.7720   36.0320   10.5050 C   0  0  0  0  0  0  0  0  0  0  0  0
   26.6490   34.4860    8.6970 C   0  0  0  0  0  0  0  0  0  0  0  0
   27.9660   35.4730   10.9030 C   0  0  0  0  0  0  0  0  0  0  0  0
   27.8480   33.9440    9.1160 C   0  0  0  0  0  0  0  0  0  0  0  0
   28.5310   34.4160   10.2170 C   0  0  0  0  0  0  0  0  0  0  0  0
   23.6280   35.7040    9.7180 C   0  0  0  0  0  0  0  0  0  0  0  0
   22.3450   35.7920    9.1510 C   0  0  0  0  0  0  0  0  0  0  0  0
   23.7550   35.2300   11.0020 C   0  0  0  0  0  0  0  0  0  0  0  0
   21.2380   35.4110    9.8640 C   0  0  0  0  0  0  0  0  0  0  0  0
   22.6180   34.8450   11.7200 C   0  0  0  0  0  0  0  0  0  0  0  0
   21.3690   34.9370   11.1500 C   0  0  0  0  0  0  0  0  0  0  0  0
   29.8670   25.5550   16.9770 C   0  0  0  0  0  0  0  0  0  0  0  0
   28.3450   25.7220   17.0260 C   0  0  0  0  0  0  0  0  0  0  0  0
   27.6020   24.3980   16.9320 C   0  0  0  0  0  0  0  0  0  0  0  0
   26.6370   24.2080   18.0690 C   0  0  0  0  0  0  0  0  0  0  0  0
   26.4140   25.5410   18.7760 C   0  0  0  0  0  0  0  0  0  0  0  0
   25.1510   25.5130   19.5500 N   0  0  0  0  0  0  0  0  0  0  0  0
  1  2  1  0  0  0  0
  2 31  1  0  0  0  0
  2  3  2  0  0  0  0
  4  1  1  0  0  0  0
  5  1  1  0  0  0  0
  6  5  1  1  0  0  0
  7 27  1  6  0  0  0
  7  6  1  0  0  0  0
  8  7  1  1  0  0  0
  8 13  1  0  0  0  0
  9 16  1  6  0  0  0
  9 14  1  0  0  0  0
  9 10  1  0  0  0  0
 10 12  1  0  0  0  0
 11  8  1  0  0  0  0
 11  9  1  0  0  0  0
 12 20  1  1  0  0  0
 13 22  1  6  0  0  0
 13 12  1  0  0  0  0
 14 15  1  0  0  0  0
 16 18  1  0  0  0  0
 17 16  2  0  0  0  0
 18 19  1  0  0  0  0
 20 21  1  0  0  0  0
 23 26  2  0  0  0  0
 23 22  1  0  0  0  0
 24 22  1  0  0  0  0
 25 23  1  0  0  0  0
 27 28  1  0  0  0  0
 29  6  1  0  0  0  0
 30 29  1  0  0  0  0
 32 31  1  0  0  0  0
 33 34  2  0  0  0  0
 33 32  1  0  0  0  0
 35 33  1  0  0  0  0
 36 38  1  0  0  0  0
 36 34  1  0  0  0  0
 37 35  2  0  0  0  0
 37 36  1  0  0  0  0
 38 39  1  0  0  0  0
 38 45  1  0  0  0  0
 39 40  2  0  0  0  0
 40 42  1  0  0  0  0
 41 43  2  0  0  0  0
 41 39  1  0  0  0  0
 43 44  1  0  0  0  0
 44 42  2  0  0  0  0
 45 47  1  0  0  0  0
 46 45  2  0  0  0  0
 46 48  1  0  0  0  0
 47 49  2  0  0  0  0
 48 50  2  0  0  0  0
 50 49  1  0  0  0  0
 51 52  1  0  0  0  0
 53 52  1  0  0  0  0
 53 54  1  0  0  0  0
 54 55  1  0  0  0  0
 55 56  1  0  0  0  0
M  END
>  <REMARK>
 VINA RESULT:    -5.447      5.411      8.831
 INTER + INTRA:         -15.554
 INTER:                 -10.019
 INTRA:                  -5.536
 UNBOUND:                -5.490
 SMILES CC(=O)N[C@@H]1[C@@H](O)C[C@](O)(C(=O)O)O[C@H]1C(O)[C@H](O)CNC(=O)OCc1cn(C(c2ccccc2)c2ccccc2)nn1
 SMILES IDX 21 1 22 2 23 3 20 5 18 6 16 7 15 8 9 9 8 10 14 11 6 12 5 13
 SMILES IDX 10 14 11 16 12 17 13 18 7 20 4 22 2 23 1 25 3 26 17 27 19 29
 SMILES IDX 24 31 25 32 26 33 27 34 43 35 28 36 42 37 29 38 30 39 31 40
 SMILES IDX 35 41 32 42 34 43 33 44 36 45 37 46 41 47 38 48 40 49 39 50
 H PARENT 21 4 10 15 13 19 7 21 4 24 17 28 19 30
 Flexibility Score: inf
  4 active torsions:
  status: ('A' for Active; 'I' for Inactive)
    1  A    between atoms: CA   and  CB  
    2  A    between atoms: CB   and  CG  
    3  A    between atoms: CG   and  CD  
    4  A    between atoms: CD   and  CE  

>  <TORSDO>
F 17

>  <BEGIN_>
RES LYS A 131

$$$$
ligand_58_pose_17_2HRL.pdbqt
 OpenBabel07062320523D

  6  5  0  0  0  0  0  0  0  0999 V2000
   33.1930   34.6630    9.2900 C   0  0  0  0  0  0  0  0  0  0  0  0
   32.0600   35.3600   10.0340 C   0  0  0  0  0  0  0  0  0  0  0  0
   32.5050   36.0540   11.2950 C   0  0  0  0  0  0  0  0  0  0  0  0
   31.3950   36.0410   12.3350 C   0  0  0  0  0  0  0  0  0  0  0  0
   31.2320   37.4140   12.9570 C   0  0  0  0  0  0  0  0  0  0  0  0
   29.7960   37.7270   13.1980 N   0  0  0  0  0  0  0  0  0  0  0  0
  1  2  1  0  0  0  0
  2  3  1  0  0  0  0
  3  4  1  0  0  0  0
  4  5  1  0  0  0  0
  5  6  1  0  0  0  0
M  END
>  <EGIN_R>
ES LYS A 135

>  <REMARK>
  4 active torsions:
  status: ('A' for Active; 'I' for Inactive)
    5  A    between atoms: CA   and  CB  
    6  A    between atoms: CB   and  CG  
    7  A    between atoms: CG   and  CD  
    8  A    between atoms: CD   and  CE  

$$$$
