ligand_26_pose_12_2HRL.pdbqt
 OpenBabel07062320523D

 54 55  0  0  1  0  0  0  0  0999 V2000
   29.7090   38.5780    6.8750 N   0  0  0  0  0  0  0  0  0  0  0  0
   30.8720   39.2300    7.3750 C   0  0  0  0  0  0  0  0  0  0  0  0
   31.2070   40.3200    6.8770 O   0  0  0  0  0  0  0  0  0  0  0  0
   29.4880   37.6520    7.3540 H   0  0  0  0  0  0  0  0  0  0  0  0
   28.8750   39.0950    5.8120 C   0  0  0  0  0  0  0  0  0  0  0  0
   27.5310   38.4030    5.7610 C   0  0  2  0  0  0  0  0  0  0  0  0
   27.1030   37.9010    7.1230 C   0  0  1  0  0  0  0  0  0  0  0  0
   25.9120   38.6290    7.6710 C   0  0  2  0  0  0  0  0  0  0  0  0
   26.7600   40.1720    9.2020 C   0  0  2  0  0  0  0  0  0  0  0  0
   26.1900   39.4170   10.3760 C   0  0  0  0  0  0  0  0  0  0  0  0
   26.1620   39.9340    8.0020 O   0  0  0  0  0  0  0  0  0  0  0  0
   25.9890   37.9590   10.0950 C   0  0  1  0  0  0  0  0  0  0  0  0
   25.2350   37.8560    8.7880 C   0  0  1  0  0  0  0  0  0  0  0  0
   28.1640   40.0100    9.1810 O   0  0  0  0  0  0  0  0  0  0  0  0
   28.4350   39.1950    8.7170 H   0  0  0  0  0  0  0  0  0  0  0  0
   26.5350   41.6320    9.5140 C   0  0  0  0  0  0  0  0  0  0  0  0
   25.4850   42.0750    9.9970 O   0  0  0  0  0  0  0  0  0  0  0  0
   27.6220   42.4700    9.2140 O   0  0  0  0  0  0  0  0  0  0  0  0
   27.5410   43.1920    8.5150 H   0  0  0  0  0  0  0  0  0  0  0  0
   27.1610   37.2410   10.0930 O   0  0  0  0  0  0  0  0  0  0  0  0
   26.9890   36.3160    9.7950 H   0  0  0  0  0  0  0  0  0  0  0  0
   23.9530   38.5400    9.0220 N   0  0  0  0  0  0  0  0  0  0  0  0
   22.7690   38.0040    8.4450 C   0  0  0  0  0  0  0  0  0  0  0  0
   23.8840   39.4030    9.5940 H   0  0  0  0  0  0  0  0  0  0  0  0
   21.4830   38.7060    8.6920 C   0  0  0  0  0  0  0  0  0  0  0  0
   22.8500   36.9640    7.7550 O   0  0  0  0  0  0  0  0  0  0  0  0
   26.8440   36.5350    6.9840 O   0  0  0  0  0  0  0  0  0  0  0  0
   25.8840   36.4140    6.7200 H   0  0  0  0  0  0  0  0  0  0  0  0
   27.6090   37.3290    4.8500 O   0  0  0  0  0  0  0  0  0  0  0  0
   27.7560   36.4670    5.3120 H   0  0  0  0  0  0  0  0  0  0  0  0
   31.6420   38.7050    8.3890 O   0  0  0  0  0  0  0  0  0  0  0  0
   31.8160   39.2740    9.6680 C   0  0  0  0  0  0  0  0  0  0  0  0
   31.0940   38.5910   10.7450 C   0  0  0  0  0  0  0  0  0  0  0  0
   31.6800   37.9030   11.8150 C   0  0  0  0  0  0  0  0  0  0  0  0
   29.7560   38.4750   10.9450 N   0  0  0  0  0  0  0  0  0  0  0  0
   30.7170   37.4250   12.5780 N   0  0  0  0  0  0  0  0  0  0  0  0
   29.5800   37.7730   12.0480 N   0  0  0  0  0  0  0  0  0  0  0  0
   30.9250   36.6280   13.8280 C   0  0  1  0  0  0  0  0  0  0  0  0
   29.5480   36.1270   14.1790 C   0  0  0  0  0  0  0  0  0  0  0  0
   31.8590   35.5610   13.4950 C   0  0  0  0  0  0  0  0  0  0  0  0
   32.3870   34.7070   14.5120 C   0  0  2  0  0  0  0  0  0  0  0  0
   33.7230   34.7370   14.5570 O   0  0  0  0  0  0  0  0  0  0  0  0
   31.8080   33.8330   15.4840 C   0  0  0  0  0  0  0  0  0  0  0  0
   31.7220   34.2770   16.8260 C   0  0  0  0  0  0  0  0  0  0  0  0
   31.2980   32.5830   15.2300 C   0  0  0  0  0  0  0  0  0  0  0  0
   31.1640   33.4960   17.8060 C   0  0  0  0  0  0  0  0  0  0  0  0
   30.7390   31.8210   16.2460 C   0  0  0  0  0  0  0  0  0  0  0  0
   30.6600   32.2480   17.5310 C   0  0  0  0  0  0  0  0  0  0  0  0
   29.8670   25.5550   16.9770 C   0  0  0  0  0  0  0  0  0  0  0  0
   28.3450   25.7220   17.0260 C   0  0  0  0  0  0  0  0  0  0  0  0
   27.5990   24.4310   16.7280 C   0  0  0  0  0  0  0  0  0  0  0  0
   26.9160   23.8760   17.9470 C   0  0  0  0  0  0  0  0  0  0  0  0
   25.6050   23.2130   17.5390 C   0  0  0  0  0  0  0  0  0  0  0  0
   24.6760   24.2120   16.9600 N   0  0  0  0  0  0  0  0  0  0  0  0
  1  4  1  0  0  0  0
  1  2  1  0  0  0  0
  2 31  1  0  0  0  0
  3  2  2  0  0  0  0
  5  1  1  0  0  0  0
  6  5  1  1  0  0  0
  6  7  1  0  0  0  0
  7 27  1  6  0  0  0
  8  7  1  1  0  0  0
  8 11  1  0  0  0  0
  8 13  1  0  0  0  0
  9 14  1  6  0  0  0
  9 16  1  0  0  0  0
  9 10  1  0  0  0  0
 11  9  1  0  0  0  0
 12 20  1  6  0  0  0
 12 10  1  0  0  0  0
 13 22  1  1  0  0  0
 13 12  1  0  0  0  0
 15 14  1  0  0  0  0
 16 17  2  0  0  0  0
 18 16  1  0  0  0  0
 19 18  1  0  0  0  0
 21 20  1  0  0  0  0
 22 24  1  0  0  0  0
 23 25  1  0  0  0  0
 23 22  1  0  0  0  0
 26 23  2  0  0  0  0
 28 27  1  0  0  0  0
 29 30  1  0  0  0  0
 29  6  1  0  0  0  0
 31 32  1  0  0  0  0
 32 33  1  0  0  0  0
 33 35  1  0  0  0  0
 33 34  2  0  0  0  0
 34 36  1  0  0  0  0
 35 37  2  0  0  0  0
 36 38  1  0  0  0  0
 37 36  1  0  0  0  0
 38 39  1  6  0  0  0
 40 38  1  0  0  0  0
 40 41  1  0  0  0  0
 41 42  1  6  0  0  0
 41 43  1  0  0  0  0
 43 44  1  0  0  0  0
 44 46  2  0  0  0  0
 45 43  2  0  0  0  0
 45 47  1  0  0  0  0
 47 48  2  0  0  0  0
 48 46  1  0  0  0  0
 49 50  1  0  0  0  0
 51 50  1  0  0  0  0
 51 52  1  0  0  0  0
 53 52  1  0  0  0  0
 54 53  1  0  0  0  0
M  END
>  <REMARK>
 VINA RESULT:    -4.692      6.338     12.064
 INTER + INTRA:         -15.877
 INTER:                  -9.382
 INTRA:                  -6.496
 UNBOUND:                -6.934
 SMILES CC(=O)N[C@@H]1[C@@H](O)C[C@](O)(C(=O)O)O[C@H]1C(O)[C@H](O)CNC(=O)OCc1cn(C(C)CC(=O)c2ccccc2)nn1
 SMILES IDX 21 1 22 2 23 3 20 5 18 6 16 7 15 8 9 9 8 10 14 11 6 12 5 13
 SMILES IDX 10 14 11 16 12 17 13 18 7 20 4 22 2 23 1 25 3 26 17 27 19 29
 SMILES IDX 24 31 25 32 26 33 27 34 41 35 28 36 40 37 29 38 30 39 31 40
 SMILES IDX 32 41 33 42 34 43 35 44 39 45 36 46 38 47 37 48
 H PARENT 21 4 10 15 13 19 7 21 4 24 17 28 19 30
 Flexibility Score: inf
  4 active torsions:
  status: ('A' for Active; 'I' for Inactive)
    1  A    between atoms: CA   and  CB  
    2  A    between atoms: CB   and  CG  
    3  A    between atoms: CG   and  CD  
    4  A    between atoms: CD   and  CE  

>  <TORSDO>
F 18

>  <BEGIN_>
RES LYS A 131

$$$$
ligand_26_pose_12_2HRL.pdbqt
 OpenBabel07062320523D

  6  5  0  0  0  0  0  0  0  0999 V2000
   33.1930   34.6630    9.2900 C   0  0  0  0  0  0  0  0  0  0  0  0
   32.0600   35.3600   10.0340 C   0  0  0  0  0  0  0  0  0  0  0  0
   30.7790   35.4370    9.2450 C   0  0  0  0  0  0  0  0  0  0  0  0
   30.0660   34.0940    9.2460 C   0  0  0  0  0  0  0  0  0  0  0  0
   28.6610   34.2360    8.6930 C   0  0  0  0  0  0  0  0  0  0  0  0
   27.6550   33.6570    9.6270 N   0  0  0  0  0  0  0  0  0  0  0  0
  1  2  1  0  0  0  0
  3  4  1  0  0  0  0
  3  2  1  0  0  0  0
  5  4  1  0  0  0  0
  5  6  1  0  0  0  0
M  END
>  <EGIN_R>
ES LYS A 135

>  <REMARK>
  4 active torsions:
  status: ('A' for Active; 'I' for Inactive)
    5  A    between atoms: CA   and  CB  
    6  A    between atoms: CB   and  CG  
    7  A    between atoms: CG   and  CD  
    8  A    between atoms: CD   and  CE  

$$$$
