ligand_89_pose_1_2HRL.pdbqt
 OpenBabel07062320523D

 60 63  0  0  1  0  0  0  0  0999 V2000
   23.8680   33.1430   19.2620 N   0  0  0  0  0  0  0  0  0  0  0  0
   22.9460   32.7050   18.3110 C   0  0  0  0  0  0  0  0  0  0  0  0
   22.4980   31.5590   18.2620 O   0  0  0  0  0  0  0  0  0  0  0  0
   24.1480   34.2000   19.1960 H   0  0  0  0  0  0  0  0  0  0  0  0
   24.4640   32.3690   20.2820 C   0  0  0  0  0  0  0  0  0  0  0  0
   25.8900   32.0720   20.1420 C   0  0  2  0  0  0  0  0  0  0  0  0
   26.4830   31.5270   18.9080 C   0  0  1  0  0  0  0  0  0  0  0  0
   25.7260   30.1960   18.6270 C   0  0  2  0  0  0  0  0  0  0  0  0
   27.3860   28.5400   18.7590 C   0  0  2  0  0  0  0  0  0  0  0  0
   27.0960   28.1280   17.3540 C   0  0  0  0  0  0  0  0  0  0  0  0
   26.3420   29.2120   19.3050 O   0  0  0  0  0  0  0  0  0  0  0  0
   26.5710   29.2370   16.4770 C   0  0  1  0  0  0  0  0  0  0  0  0
   25.4830   30.0240   17.1740 C   0  0  1  0  0  0  0  0  0  0  0  0
   28.5230   29.3870   18.7880 O   0  0  0  0  0  0  0  0  0  0  0  0
   29.0020   29.2010   17.9360 H   0  0  0  0  0  0  0  0  0  0  0  0
   27.7070   27.2800   19.5100 C   0  0  0  0  0  0  0  0  0  0  0  0
   26.7990   26.4850   19.7880 O   0  0  0  0  0  0  0  0  0  0  0  0
   29.0030   27.0130   19.8820 O   0  0  0  0  0  0  0  0  0  0  0  0
   29.6120   27.7620   20.2250 H   0  0  0  0  0  0  0  0  0  0  0  0
   27.5810   30.0920   16.0340 O   0  0  0  0  0  0  0  0  0  0  0  0
   27.7350   30.7950   16.7120 H   0  0  0  0  0  0  0  0  0  0  0  0
   24.2190   29.3240   16.9100 N   0  0  0  0  0  0  0  0  0  0  0  0
   23.6640   29.2200   15.6180 C   0  0  0  0  0  0  0  0  0  0  0  0
   23.6800   28.8700   17.7000 H   0  0  0  0  0  0  0  0  0  0  0  0
   22.3850   28.5110   15.3560 C   0  0  0  0  0  0  0  0  0  0  0  0
   24.2610   29.7430   14.6290 O   0  0  0  0  0  0  0  0  0  0  0  0
   26.3620   32.3410   17.7790 O   0  0  0  0  0  0  0  0  0  0  0  0
   27.0920   33.0360   17.7710 H   0  0  0  0  0  0  0  0  0  0  0  0
   26.2080   31.1820   21.2380 O   0  0  0  0  0  0  0  0  0  0  0  0
   25.4010   30.9360   21.7230 H   0  0  0  0  0  0  0  0  0  0  0  0
   22.4620   33.5850   17.3160 O   0  0  0  0  0  0  0  0  0  0  0  0
   23.2160   34.6740   16.8680 C   0  0  0  0  0  0  0  0  0  0  0  0
   24.2800   34.2000   15.9470 C   0  0  0  0  0  0  0  0  0  0  0  0
   25.3750   34.9270   15.4880 C   0  0  0  0  0  0  0  0  0  0  0  0
   24.4170   32.9920   15.3710 N   0  0  0  0  0  0  0  0  0  0  0  0
   26.1330   34.1530   14.6610 N   0  0  0  0  0  0  0  0  0  0  0  0
   25.5070   33.0050   14.6310 N   0  0  0  0  0  0  0  0  0  0  0  0
   27.3270   34.6100   14.0320 C   0  0  0  0  0  0  0  0  0  0  0  0
   27.3880   35.3890   12.9120 N   0  0  0  0  0  0  0  0  0  0  0  0
   28.6310   34.3840   14.3900 C   0  0  0  0  0  0  0  0  0  0  0  0
   28.6750   35.6170   12.6170 C   0  0  0  0  0  0  0  0  0  0  0  0
   29.4750   35.0090   13.5120 N   0  0  0  0  0  0  0  0  0  0  0  0
   29.1940   33.6860   15.4110 C   0  0  0  0  0  0  0  0  0  0  0  0
   30.8130   34.9460   13.6370 C   0  0  0  0  0  0  0  0  0  0  0  0
   30.5120   33.5980   15.5730 N   0  0  0  0  0  0  0  0  0  0  0  0
   28.4830   33.0860   16.2550 O   0  0  0  0  0  0  0  0  0  0  0  0
   31.6330   35.5880   12.7320 C   0  0  0  0  0  0  0  0  0  0  0  0
   31.3250   34.2220   14.6950 C   0  0  0  0  0  0  0  0  0  0  0  0
   33.0130   35.5410   12.8360 C   0  0  0  0  0  0  0  0  0  0  0  0
   32.7090   34.1900   14.7760 C   0  0  0  0  0  0  0  0  0  0  0  0
   33.5410   34.8280   13.8780 C   0  0  0  0  0  0  0  0  0  0  0  0
   31.1750   32.8760   16.6360 C   0  0  0  0  0  0  0  0  0  0  0  0
   30.7540   31.4270   16.5200 C   0  0  0  0  0  0  0  0  0  0  0  0
   30.8310   33.3410   18.0150 C   0  0  0  0  0  0  0  0  0  0  0  0
   29.8670   25.5550   16.9770 C   0  0  0  0  0  0  0  0  0  0  0  0
   28.3450   25.7220   17.0260 C   0  0  0  0  0  0  0  0  0  0  0  0
   27.5990   24.4770   16.5710 C   0  0  0  0  0  0  0  0  0  0  0  0
   27.0080   23.7170   17.7250 C   0  0  0  0  0  0  0  0  0  0  0  0
   25.5140   23.5150   17.4900 C   0  0  0  0  0  0  0  0  0  0  0  0
   24.8380   24.8200   17.2980 N   0  0  0  0  0  0  0  0  0  0  0  0
  1  5  1  0  0  0  0
  2  1  1  0  0  0  0
  3  2  2  0  0  0  0
  4  1  1  0  0  0  0
  6  5  1  6  0  0  0
  6 29  1  0  0  0  0
  7 27  1  6  0  0  0
  7  6  1  0  0  0  0
  8  7  1  6  0  0  0
  8 11  1  0  0  0  0
  9 14  1  1  0  0  0
  9 11  1  0  0  0  0
  9 16  1  0  0  0  0
 10  9  1  0  0  0  0
 12 20  1  1  0  0  0
 12 13  1  0  0  0  0
 12 10  1  0  0  0  0
 13 22  1  1  0  0  0
 13  8  1  0  0  0  0
 15 14  1  0  0  0  0
 16 17  2  0  0  0  0
 16 18  1  0  0  0  0
 18 19  1  0  0  0  0
 20 21  1  0  0  0  0
 22 24  1  0  0  0  0
 23 22  1  0  0  0  0
 25 23  1  0  0  0  0
 26 23  2  0  0  0  0
 28 27  1  0  0  0  0
 29 30  1  0  0  0  0
 31  2  1  0  0  0  0
 32 31  1  0  0  0  0
 33 32  1  0  0  0  0
 34 33  2  0  0  0  0
 35 33  1  0  0  0  0
 36 34  1  0  0  0  0
 37 36  1  0  0  0  0
 37 35  2  0  0  0  0
 38 40  2  0  0  0  0
 38 36  1  0  0  0  0
 39 38  1  0  0  0  0
 40 43  1  0  0  0  0
 41 39  2  0  0  0  0
 41 42  1  0  0  0  0
 42 44  1  0  0  0  0
 42 40  1  0  0  0  0
 43 45  1  0  0  0  0
 43 46  2  0  0  0  0
 44 48  2  0  0  0  0
 45 52  1  0  0  0  0
 47 49  2  0  0  0  0
 47 44  1  0  0  0  0
 48 50  1  0  0  0  0
 48 45  1  0  0  0  0
 49 51  1  0  0  0  0
 51 50  2  0  0  0  0
 52 54  1  0  0  0  0
 53 52  1  0  0  0  0
 55 56  1  0  0  0  0
 57 56  1  0  0  0  0
 57 58  1  0  0  0  0
 59 58  1  0  0  0  0
 60 59  1  0  0  0  0
M  END
>  <REMARK>
 VINA RESULT:    -5.107      2.960      5.522
 INTER + INTRA:         -16.247
 INTER:                  -9.367
 INTRA:                  -6.880
 UNBOUND:                -7.109
 SMILES CC(=O)N[C@@H]1[C@@H](O)C[C@](O)(C(=O)O)O[C@H]1C(O)[C@H](O)CNC(=O)OCc1cn(-c2ncn3c2c(=O)n(C(C)C)c2ccccc23)nn1
 SMILES IDX 21 1 22 2 23 3 20 5 18 6 16 7 15 8 9 9 8 10 14 11 6 12 5 13
 SMILES IDX 10 14 11 16 12 17 13 18 7 20 4 22 2 23 1 25 3 26 17 27 19 29
 SMILES IDX 24 31 25 32 26 33 27 34 47 35 28 36 46 37 29 38 30 39 33 40
 SMILES IDX 31 41 32 42 34 43 45 44 36 45 35 46 44 47 40 48 43 49 41 50
 SMILES IDX 42 51 37 52 38 53 39 54
 H PARENT 21 4 10 15 13 19 7 21 4 24 17 28 19 30
 Flexibility Score: inf
  4 active torsions:
  status: ('A' for Active; 'I' for Inactive)
    1  A    between atoms: CA   and  CB  
    2  A    between atoms: CB   and  CG  
    3  A    between atoms: CG   and  CD  
    4  A    between atoms: CD   and  CE  

>  <TORSDO>
F 16

>  <BEGIN_>
RES LYS A 131

$$$$
ligand_89_pose_1_2HRL.pdbqt
 OpenBabel07062320523D

  6  5  0  0  0  0  0  0  0  0999 V2000
   33.1930   34.6630    9.2900 C   0  0  0  0  0  0  0  0  0  0  0  0
   32.0600   35.3600   10.0340 C   0  0  0  0  0  0  0  0  0  0  0  0
   30.8010   35.5020    9.2180 C   0  0  0  0  0  0  0  0  0  0  0  0
   30.0890   34.1640    9.0920 C   0  0  0  0  0  0  0  0  0  0  0  0
   28.6320   34.3690    8.7250 C   0  0  0  0  0  0  0  0  0  0  0  0
   27.7350   33.6400    9.6640 N   0  0  0  0  0  0  0  0  0  0  0  0
  1  2  1  0  0  0  0
  3  2  1  0  0  0  0
  4  3  1  0  0  0  0
  5  4  1  0  0  0  0
  5  6  1  0  0  0  0
M  END
>  <EGIN_R>
ES LYS A 135

>  <REMARK>
  4 active torsions:
  status: ('A' for Active; 'I' for Inactive)
    5  A    between atoms: CA   and  CB  
    6  A    between atoms: CB   and  CG  
    7  A    between atoms: CG   and  CD  
    8  A    between atoms: CD   and  CE  

$$$$
