ligand_16_pose_9_2HRL.pdbqt
 OpenBabel07062320523D

 54 55  0  0  1  0  0  0  0  0999 V2000
   23.1350   38.0140    7.2110 N   0  0  0  0  0  0  0  0  0  0  0  0
   22.8910   39.3500    7.5730 C   0  0  0  0  0  0  0  0  0  0  0  0
   22.1200   39.6070    8.5120 O   0  0  0  0  0  0  0  0  0  0  0  0
   23.8050   37.8810    6.3940 H   0  0  0  0  0  0  0  0  0  0  0  0
   22.5440   36.8820    7.8730 C   0  0  0  0  0  0  0  0  0  0  0  0
   23.3800   36.5020    9.0650 C   0  0  2  0  0  0  0  0  0  0  0  0
   24.8540   36.6010    8.8340 C   0  0  1  0  0  0  0  0  0  0  0  0
   25.5090   37.4660    9.9270 C   0  0  2  0  0  0  0  0  0  0  0  0
   27.1000   39.1330   10.1110 C   0  0  2  0  0  0  0  0  0  0  0  0
   28.1220   38.2370   10.7950 C   0  0  0  0  0  0  0  0  0  0  0  0
   26.3640   38.3290    9.2750 O   0  0  0  0  0  0  0  0  0  0  0  0
   27.4350   37.1370   11.5370 C   0  0  1  0  0  0  0  0  0  0  0  0
   26.2720   36.5350   10.7970 C   0  0  1  0  0  0  0  0  0  0  0  0
   27.8910   39.9810    9.2830 O   0  0  0  0  0  0  0  0  0  0  0  0
   28.5080   39.3910    8.7480 H   0  0  0  0  0  0  0  0  0  0  0  0
   26.3450   39.9410   11.0730 C   0  0  0  0  0  0  0  0  0  0  0  0
   25.2740   40.5210   10.6850 O   0  0  0  0  0  0  0  0  0  0  0  0
   26.6670   40.1580   12.3980 O   0  0  0  0  0  0  0  0  0  0  0  0
   27.6500   40.1970   12.6330 H   0  0  0  0  0  0  0  0  0  0  0  0
   28.3890   36.1060   11.7090 O   0  0  0  0  0  0  0  0  0  0  0  0
   28.1060   35.3760   11.1070 H   0  0  0  0  0  0  0  0  0  0  0  0
   25.4380   35.8050   11.7300 N   0  0  0  0  0  0  0  0  0  0  0  0
   25.5580   34.4040   11.9090 C   0  0  0  0  0  0  0  0  0  0  0  0
   24.7180   36.2950   12.3030 H   0  0  0  0  0  0  0  0  0  0  0  0
   24.6790   33.6640   12.8850 C   0  0  0  0  0  0  0  0  0  0  0  0
   26.4090   33.7870   11.2410 O   0  0  0  0  0  0  0  0  0  0  0  0
   25.5000   35.3980    8.6870 O   0  0  0  0  0  0  0  0  0  0  0  0
   25.9310   35.1380    9.5420 H   0  0  0  0  0  0  0  0  0  0  0  0
   23.0610   35.2280    9.5530 O   0  0  0  0  0  0  0  0  0  0  0  0
   22.4230   34.7890    8.9210 H   0  0  0  0  0  0  0  0  0  0  0  0
   23.4750   40.4340    6.9290 O   0  0  0  0  0  0  0  0  0  0  0  0
   24.4120   41.2930    7.5300 C   0  0  0  0  0  0  0  0  0  0  0  0
   25.7580   41.0330    6.9780 C   0  0  0  0  0  0  0  0  0  0  0  0
   26.1050   39.9480    6.1710 C   0  0  0  0  0  0  0  0  0  0  0  0
   26.9030   41.7300    7.1150 N   0  0  0  0  0  0  0  0  0  0  0  0
   27.4060   40.0360    5.8660 N   0  0  0  0  0  0  0  0  0  0  0  0
   27.8640   41.1180    6.4470 N   0  0  0  0  0  0  0  0  0  0  0  0
   28.1750   39.0890    5.0450 C   0  0  0  0  0  0  0  0  0  0  0  0
   28.3970   37.8940    5.9210 C   0  0  0  0  0  0  0  0  0  0  0  0
   29.2570   37.9880    6.9790 C   0  0  0  0  0  0  0  0  0  0  0  0
   27.7610   36.7010    5.6870 C   0  0  0  0  0  0  0  0  0  0  0  0
   29.4890   36.8900    7.8130 C   0  0  0  0  0  0  0  0  0  0  0  0
   27.9910   35.6070    6.5150 C   0  0  0  0  0  0  0  0  0  0  0  0
   28.8580   35.6900    7.5870 C   0  0  0  0  0  0  0  0  0  0  0  0
   29.0890   34.5400    8.4490 C   0  0  0  0  0  0  0  0  0  0  0  0
   30.2290   34.0830    8.6860 O   0  0  0  0  0  0  0  0  0  0  0  0
   28.0030   33.9090    9.0460 O   0  0  0  0  0  0  0  0  0  0  0  0
   27.2240   33.5810    8.5020 H   0  0  0  0  0  0  0  0  0  0  0  0
   29.8670   25.5550   16.9770 C   0  0  0  0  0  0  0  0  0  0  0  0
   28.3450   25.7220   17.0260 C   0  0  0  0  0  0  0  0  0  0  0  0
   27.6020   24.3990   16.9180 C   0  0  0  0  0  0  0  0  0  0  0  0
   26.1520   24.5320   17.2940 C   0  0  0  0  0  0  0  0  0  0  0  0
   25.9670   24.1320   18.7550 C   0  0  0  0  0  0  0  0  0  0  0  0
   24.9620   23.0500   18.8730 N   0  0  0  0  0  0  0  0  0  0  0  0
  1  2  1  0  0  0  0
  1  5  1  0  0  0  0
  2  3  2  0  0  0  0
  4  1  1  0  0  0  0
  6  5  1  6  0  0  0
  6 29  1  0  0  0  0
  7 27  1  1  0  0  0
  7  6  1  0  0  0  0
  8  7  1  6  0  0  0
  8 13  1  0  0  0  0
  9 14  1  6  0  0  0
  9 10  1  0  0  0  0
  9 16  1  0  0  0  0
 10 12  1  0  0  0  0
 11  8  1  0  0  0  0
 11  9  1  0  0  0  0
 12 20  1  6  0  0  0
 13 12  1  0  0  0  0
 13 22  1  1  0  0  0
 15 14  1  0  0  0  0
 16 18  1  0  0  0  0
 17 16  2  0  0  0  0
 18 19  1  0  0  0  0
 21 20  1  0  0  0  0
 22 23  1  0  0  0  0
 22 24  1  0  0  0  0
 23 25  1  0  0  0  0
 26 23  2  0  0  0  0
 27 28  1  0  0  0  0
 30 29  1  0  0  0  0
 31 32  1  0  0  0  0
 31  2  1  0  0  0  0
 33 35  1  0  0  0  0
 33 32  1  0  0  0  0
 34 33  2  0  0  0  0
 36 34  1  0  0  0  0
 36 37  1  0  0  0  0
 37 35  2  0  0  0  0
 38 36  1  0  0  0  0
 38 39  1  0  0  0  0
 39 40  1  0  0  0  0
 40 42  2  0  0  0  0
 41 39  2  0  0  0  0
 41 43  1  0  0  0  0
 43 44  2  0  0  0  0
 44 42  1  0  0  0  0
 44 45  1  0  0  0  0
 45 46  2  0  0  0  0
 45 47  1  0  0  0  0
 48 47  1  0  0  0  0
 49 50  1  0  0  0  0
 51 50  1  0  0  0  0
 51 52  1  0  0  0  0
 52 53  1  0  0  0  0
 53 54  1  0  0  0  0
M  END
>  <REMARK>
 VINA RESULT:    -5.938      7.007     12.446
 INTER + INTRA:         -15.138
 INTER:                  -8.806
 INTRA:                  -6.332
 UNBOUND:                -3.993
 SMILES CC(=O)N[C@@H]1[C@@H](O)C[C@](O)(C(=O)O)O[C@H]1C(O)[C@H](O)CNC(=O)OCc1cn(Cc2ccc(C(=O)O)cc2)nn1
 SMILES IDX 21 1 22 2 23 3 20 5 18 6 16 7 15 8 9 9 8 10 14 11 6 12 5 13
 SMILES IDX 10 14 11 16 12 17 13 18 7 20 4 22 2 23 1 25 3 26 17 27 19 29
 SMILES IDX 24 31 25 32 26 33 27 34 40 35 28 36 39 37 29 38 30 39 31 40
 SMILES IDX 38 41 32 42 37 43 33 44 34 45 35 46 36 47
 H PARENT 21 4 10 15 13 19 7 21 4 24 17 28 19 30 36 48
 Flexibility Score: inf
  4 active torsions:
  status: ('A' for Active; 'I' for Inactive)
    1  A    between atoms: CA   and  CB  
    2  A    between atoms: CB   and  CG  
    3  A    between atoms: CG   and  CD  
    4  A    between atoms: CD   and  CE  

>  <TORSDO>
F 18

>  <BEGIN_>
RES LYS A 131

$$$$
ligand_16_pose_9_2HRL.pdbqt
 OpenBabel07062320523D

  6  5  0  0  0  0  0  0  0  0999 V2000
   33.1930   34.6630    9.2900 C   0  0  0  0  0  0  0  0  0  0  0  0
   32.0600   35.3600   10.0340 C   0  0  0  0  0  0  0  0  0  0  0  0
   32.5100   36.0830   11.2770 C   0  0  0  0  0  0  0  0  0  0  0  0
   31.7290   37.3740   11.4600 C   0  0  0  0  0  0  0  0  0  0  0  0
   31.9210   38.2870   10.2640 C   0  0  0  0  0  0  0  0  0  0  0  0
   31.5010   39.6800   10.5800 N   0  0  0  0  0  0  0  0  0  0  0  0
  1  2  1  0  0  0  0
  2  3  1  0  0  0  0
  3  4  1  0  0  0  0
  5  6  1  0  0  0  0
  5  4  1  0  0  0  0
M  END
>  <EGIN_R>
ES LYS A 135

>  <REMARK>
  4 active torsions:
  status: ('A' for Active; 'I' for Inactive)
    5  A    between atoms: CA   and  CB  
    6  A    between atoms: CB   and  CG  
    7  A    between atoms: CG   and  CD  
    8  A    between atoms: CD   and  CE  

$$$$
