ligand_56_pose_9_2HRL.pdbqt
 OpenBabel07062320523D

 49 50  0  0  1  0  0  0  0  0999 V2000
   21.7760   35.7080    9.2150 C   0  0  0  0  0  0  0  0  0  0  0  0
   22.1300   36.3420    7.9150 C   0  0  2  0  0  0  0  0  0  0  0  0
   22.8640   37.6610    8.0890 C   0  0  2  0  0  0  0  0  0  0  0  0
   24.3040   37.5940    7.7270 C   0  0  2  0  0  0  0  0  0  0  0  0
   26.3580   36.7270    8.3190 C   0  0  2  0  0  0  0  0  0  0  0  0
   26.8620   37.5620    7.1680 C   0  0  0  0  0  0  0  0  0  0  0  0
   24.9970   36.5920    8.3460 O   0  0  0  0  0  0  0  0  0  0  0  0
   26.2430   38.9320    7.1290 C   0  0  1  0  0  0  0  0  0  0  0  0
   25.0170   38.9040    8.0210 C   0  0  1  0  0  0  0  0  0  0  0  0
   26.8530   37.1770    9.5440 O   0  0  0  0  0  0  0  0  0  0  0  0
   26.5220   38.0890    9.7640 H   0  0  0  0  0  0  0  0  0  0  0  0
   26.9320   35.3500    8.1220 C   0  0  0  0  0  0  0  0  0  0  0  0
   27.7060   35.0590    7.1970 O   0  0  0  0  0  0  0  0  0  0  0  0
   26.5390   34.3930    9.0540 O   0  0  0  0  0  0  0  0  0  0  0  0
   25.5810   34.3720    9.3950 H   0  0  0  0  0  0  0  0  0  0  0  0
   27.1300   39.9200    7.5560 O   0  0  0  0  0  0  0  0  0  0  0  0
   27.2380   39.8640    8.5360 H   0  0  0  0  0  0  0  0  0  0  0  0
   24.1660   40.0490    7.7980 N   0  0  0  0  0  0  0  0  0  0  0  0
   24.2660   41.2020    8.6240 C   0  0  0  0  0  0  0  0  0  0  0  0
   23.4630   40.0650    7.0380 H   0  0  0  0  0  0  0  0  0  0  0  0
   23.3990   42.4070    8.4210 C   0  0  0  0  0  0  0  0  0  0  0  0
   25.1110   41.2100    9.5540 O   0  0  0  0  0  0  0  0  0  0  0  0
   22.5680   38.2390    9.2960 O   0  0  0  0  0  0  0  0  0  0  0  0
   22.2510   39.1700    9.1430 H   0  0  0  0  0  0  0  0  0  0  0  0
   21.0280   36.6250    7.1300 O   0  0  0  0  0  0  0  0  0  0  0  0
   20.2380   36.9120    7.6400 H   0  0  0  0  0  0  0  0  0  0  0  0
   22.9170   35.0810    9.8180 N   0  0  0  0  0  0  0  0  0  0  0  0
   23.5880   35.4510   10.9890 C   0  0  0  0  0  0  0  0  0  0  0  0
   23.3240   34.2130    9.3220 H   0  0  0  0  0  0  0  0  0  0  0  0
   23.2270   36.4310   11.6430 O   0  0  0  0  0  0  0  0  0  0  0  0
   24.6980   34.7400   11.4850 O   0  0  0  0  0  0  0  0  0  0  0  0
   25.2390   35.0930   12.7630 C   0  0  0  0  0  0  0  0  0  0  0  0
   26.6960   34.9310   12.7830 C   0  0  0  0  0  0  0  0  0  0  0  0
   27.5180   34.5220   13.8080 C   0  0  0  0  0  0  0  0  0  0  0  0
   27.5100   35.1720   11.7340 N   0  0  0  0  0  0  0  0  0  0  0  0
   28.7840   34.5350   13.3320 N   0  0  0  0  0  0  0  0  0  0  0  0
   28.7690   34.9280   12.0840 N   0  0  0  0  0  0  0  0  0  0  0  0
   29.9680   34.1820   14.0500 C   0  0  0  0  0  0  0  0  0  0  0  0
   29.9900   32.9970   14.7450 C   0  0  0  0  0  0  0  0  0  0  0  0
   31.0720   35.0270   14.0430 C   0  0  0  0  0  0  0  0  0  0  0  0
   31.1400   32.6720   15.4310 C   0  0  0  0  0  0  0  0  0  0  0  0
   32.1880   34.6600   14.7380 C   0  0  0  0  0  0  0  0  0  0  0  0
   32.1980   33.4940   15.4160 N   0  0  0  0  0  0  0  0  0  0  0  0
   29.8670   25.5550   16.9770 C   0  0  0  0  0  0  0  0  0  0  0  0
   28.3450   25.7220   17.0260 C   0  0  0  0  0  0  0  0  0  0  0  0
   27.6010   24.4010   16.9000 C   0  0  0  0  0  0  0  0  0  0  0  0
   26.1570   24.5240   17.2990 C   0  0  0  0  0  0  0  0  0  0  0  0
   26.0600   25.2280   18.6480 C   0  0  0  0  0  0  0  0  0  0  0  0
   24.9130   26.1660   18.6630 N   0  0  0  0  0  0  0  0  0  0  0  0
  1 27  1  0  0  0  0
  2  3  1  0  0  0  0
  2  1  1  1  0  0  0
  3 23  1  1  0  0  0
  4  9  1  0  0  0  0
  4  3  1  1  0  0  0
  4  7  1  0  0  0  0
  5 12  1  6  0  0  0
  5  7  1  0  0  0  0
  5 10  1  0  0  0  0
  6  5  1  0  0  0  0
  8  6  1  0  0  0  0
  8 16  1  1  0  0  0
  8  9  1  0  0  0  0
  9 18  1  6  0  0  0
 10 11  1  0  0  0  0
 12 14  1  0  0  0  0
 13 12  2  0  0  0  0
 14 15  1  0  0  0  0
 16 17  1  0  0  0  0
 18 19  1  0  0  0  0
 19 22  2  0  0  0  0
 20 18  1  0  0  0  0
 21 19  1  0  0  0  0
 24 23  1  0  0  0  0
 25 26  1  0  0  0  0
 25  2  1  0  0  0  0
 27 28  1  0  0  0  0
 28 31  1  0  0  0  0
 28 30  2  0  0  0  0
 29 27  1  0  0  0  0
 31 32  1  0  0  0  0
 32 33  1  0  0  0  0
 33 34  2  0  0  0  0
 35 37  2  0  0  0  0
 35 33  1  0  0  0  0
 36 34  1  0  0  0  0
 36 38  1  0  0  0  0
 37 36  1  0  0  0  0
 38 39  1  0  0  0  0
 39 41  2  0  0  0  0
 40 38  2  0  0  0  0
 40 42  1  0  0  0  0
 42 43  2  0  0  0  0
 43 41  1  0  0  0  0
 44 45  1  0  0  0  0
 46 45  1  0  0  0  0
 46 47  1  0  0  0  0
 47 48  1  0  0  0  0
 48 49  1  0  0  0  0
M  END
>  <REMARK>
 VINA RESULT:    -4.924      8.275     13.144
 INTER + INTRA:         -13.795
 INTER:                  -8.476
 INTRA:                  -5.319
 UNBOUND:                -5.272
 SMILES CC(=O)N[C@@H]1[C@@H](O)C[C@](O)(C(=O)O)O[C@H]1C(O)[C@H](O)CNC(=O)OCc1cn(-c2ccncc2)nn1
 SMILES IDX 20 1 18 2 16 3 15 4 9 5 8 6 14 7 6 8 5 9 10 10 11 12 12 13
 SMILES IDX 13 14 7 16 4 18 2 19 1 21 3 22 17 23 19 25 21 27 22 28 23 30
 SMILES IDX 24 31 25 32 26 33 27 34 36 35 28 36 35 37 29 38 30 39 34 40
 SMILES IDX 31 41 33 42 32 43
 H PARENT 10 11 13 15 7 17 4 20 17 24 19 26 21 29
 Flexibility Score: inf
  4 active torsions:
  status: ('A' for Active; 'I' for Inactive)
    1  A    between atoms: CA   and  CB  
    2  A    between atoms: CB   and  CG  
    3  A    between atoms: CG   and  CD  
    4  A    between atoms: CD   and  CE  

>  <TORSDO>
F 15

>  <BEGIN_>
RES LYS A 131

$$$$
ligand_56_pose_9_2HRL.pdbqt
 OpenBabel07062320523D

  6  5  0  0  0  0  0  0  0  0999 V2000
   33.1930   34.6630    9.2900 C   0  0  0  0  0  0  0  0  0  0  0  0
   32.0600   35.3600   10.0340 C   0  0  0  0  0  0  0  0  0  0  0  0
   30.7580   35.3700    9.2760 C   0  0  0  0  0  0  0  0  0  0  0  0
   30.3720   36.7910    8.8920 C   0  0  0  0  0  0  0  0  0  0  0  0
   30.2860   37.6710   10.1240 C   0  0  0  0  0  0  0  0  0  0  0  0
   30.8760   39.0130    9.8670 N   0  0  0  0  0  0  0  0  0  0  0  0
  1  2  1  0  0  0  0
  3  2  1  0  0  0  0
  4  3  1  0  0  0  0
  4  5  1  0  0  0  0
  6  5  1  0  0  0  0
M  END
>  <EGIN_R>
ES LYS A 135

>  <REMARK>
  4 active torsions:
  status: ('A' for Active; 'I' for Inactive)
    5  A    between atoms: CA   and  CB  
    6  A    between atoms: CB   and  CG  
    7  A    between atoms: CG   and  CD  
    8  A    between atoms: CD   and  CE  

$$$$
