ligand_71_pose_18_2HRL.pdbqt
 OpenBabel07062320523D

 54 55  0  0  1  0  0  0  0  0999 V2000
   27.0440   33.7840   14.8690 N   0  0  0  0  0  0  0  0  0  0  0  0
   25.7700   34.4470   14.9030 C   0  0  0  0  0  0  0  0  0  0  0  0
   25.6290   35.5480   15.4890 O   0  0  0  0  0  0  0  0  0  0  0  0
   27.1410   32.8790   14.3810 H   0  0  0  0  0  0  0  0  0  0  0  0
   28.1490   34.4260   15.5270 C   0  0  0  0  0  0  0  0  0  0  0  0
   29.4800   33.7820   15.2310 C   0  0  2  0  0  0  0  0  0  0  0  0
   29.9180   34.2620   13.8690 C   0  0  1  0  0  0  0  0  0  0  0  0
   29.8720   35.7900   13.7810 C   0  0  2  0  0  0  0  0  0  0  0  0
   28.9200   37.5100   12.6720 C   0  0  2  0  0  0  0  0  0  0  0  0
   30.1090   38.3480   12.9710 C   0  0  0  0  0  0  0  0  0  0  0  0
   29.2310   36.1820   12.6300 O   0  0  0  0  0  0  0  0  0  0  0  0
   31.4240   37.6110   13.0570 C   0  0  1  0  0  0  0  0  0  0  0  0
   31.3050   36.2960   13.7760 C   0  0  1  0  0  0  0  0  0  0  0  0
   28.4680   37.8150   11.3430 O   0  0  0  0  0  0  0  0  0  0  0  0
   28.1520   38.7600   11.3300 H   0  0  0  0  0  0  0  0  0  0  0  0
   27.7570   37.8470   13.5440 C   0  0  0  0  0  0  0  0  0  0  0  0
   27.8990   38.5440   14.5500 O   0  0  0  0  0  0  0  0  0  0  0  0
   26.4690   37.3880   13.2560 O   0  0  0  0  0  0  0  0  0  0  0  0
   25.8670   37.0060   13.9630 H   0  0  0  0  0  0  0  0  0  0  0  0
   31.8740   37.4350   11.7460 O   0  0  0  0  0  0  0  0  0  0  0  0
   32.0870   38.3080   11.3090 H   0  0  0  0  0  0  0  0  0  0  0  0
   31.8010   36.2910   15.1080 N   0  0  0  0  0  0  0  0  0  0  0  0
   33.0030   35.6660   15.5250 C   0  0  0  0  0  0  0  0  0  0  0  0
   31.2570   36.7770   15.8620 H   0  0  0  0  0  0  0  0  0  0  0  0
   33.4630   35.6960   16.9480 C   0  0  0  0  0  0  0  0  0  0  0  0
   33.6790   35.0800   14.6610 O   0  0  0  0  0  0  0  0  0  0  0  0
   31.1710   33.7910   13.5300 O   0  0  0  0  0  0  0  0  0  0  0  0
   31.2940   32.8940   13.9680 H   0  0  0  0  0  0  0  0  0  0  0  0
   29.2970   32.4000   15.2540 O   0  0  0  0  0  0  0  0  0  0  0  0
   28.5560   32.2170   15.8920 H   0  0  0  0  0  0  0  0  0  0  0  0
   24.6630   33.8970   14.2970 O   0  0  0  0  0  0  0  0  0  0  0  0
   24.5960   33.4010   12.9920 C   0  0  0  0  0  0  0  0  0  0  0  0
   24.9550   34.4590   12.0240 C   0  0  0  0  0  0  0  0  0  0  0  0
   24.1210   35.2920   11.3070 C   0  0  0  0  0  0  0  0  0  0  0  0
   26.2120   34.7890   11.6870 N   0  0  0  0  0  0  0  0  0  0  0  0
   24.8960   36.0860   10.5710 N   0  0  0  0  0  0  0  0  0  0  0  0
   26.1510   35.7580   10.8220 N   0  0  0  0  0  0  0  0  0  0  0  0
   24.3970   37.1300    9.6690 C   0  0  0  0  0  0  0  0  0  0  0  0
   25.4320   37.4440    8.6390 C   0  0  0  0  0  0  0  0  0  0  0  0
   25.4460   36.9630    7.4930 O   0  0  0  0  0  0  0  0  0  0  0  0
   26.4740   38.3590    8.9970 N   0  0  0  0  0  0  0  0  0  0  0  0
   26.4870   38.7780    9.9540 H   0  0  0  0  0  0  0  0  0  0  0  0
   27.4950   38.7230    8.0880 C   0  0  0  0  0  0  0  0  0  0  0  0
   27.2810   39.4850    6.9990 N   0  0  0  0  0  0  0  0  0  0  0  0
   28.7590   38.3040    8.2910 N   0  0  0  0  0  0  0  0  0  0  0  0
   28.2750   39.8170    6.1500 C   0  0  0  0  0  0  0  0  0  0  0  0
   29.7820   38.5970    7.4930 C   0  0  0  0  0  0  0  0  0  0  0  0
   29.5630   39.3790    6.3760 C   0  0  0  0  0  0  0  0  0  0  0  0
   29.8670   25.5550   16.9770 C   0  0  0  0  0  0  0  0  0  0  0  0
   28.3450   25.7220   17.0260 C   0  0  0  0  0  0  0  0  0  0  0  0
   27.6010   24.4010   16.9070 C   0  0  0  0  0  0  0  0  0  0  0  0
   26.4430   24.3140   17.8610 C   0  0  0  0  0  0  0  0  0  0  0  0
   26.2890   25.6420   18.5960 C   0  0  0  0  0  0  0  0  0  0  0  0
   25.0280   26.3120   18.1980 N   0  0  0  0  0  0  0  0  0  0  0  0
  1  2  1  0  0  0  0
  1  5  1  0  0  0  0
  2  3  2  0  0  0  0
  4  1  1  0  0  0  0
  6 29  1  0  0  0  0
  6  5  1  6  0  0  0
  7 27  1  1  0  0  0
  7  6  1  0  0  0  0
  8  7  1  6  0  0  0
  9 14  1  6  0  0  0
  9 10  1  0  0  0  0
  9 16  1  0  0  0  0
 10 12  1  0  0  0  0
 11  9  1  0  0  0  0
 11  8  1  0  0  0  0
 12 20  1  6  0  0  0
 12 13  1  0  0  0  0
 13  8  1  0  0  0  0
 13 22  1  1  0  0  0
 15 14  1  0  0  0  0
 16 17  2  0  0  0  0
 18 16  1  0  0  0  0
 18 19  1  0  0  0  0
 21 20  1  0  0  0  0
 22 23  1  0  0  0  0
 22 24  1  0  0  0  0
 23 25  1  0  0  0  0
 26 23  2  0  0  0  0
 27 28  1  0  0  0  0
 29 30  1  0  0  0  0
 31  2  1  0  0  0  0
 32 31  1  0  0  0  0
 33 32  1  0  0  0  0
 34 33  2  0  0  0  0
 35 33  1  0  0  0  0
 36 37  1  0  0  0  0
 36 34  1  0  0  0  0
 37 35  2  0  0  0  0
 38 36  1  0  0  0  0
 39 41  1  0  0  0  0
 39 38  1  0  0  0  0
 40 39  2  0  0  0  0
 41 42  1  0  0  0  0
 43 45  1  0  0  0  0
 43 41  1  0  0  0  0
 44 43  2  0  0  0  0
 46 48  2  0  0  0  0
 46 44  1  0  0  0  0
 47 45  2  0  0  0  0
 48 47  1  0  0  0  0
 49 50  1  0  0  0  0
 51 50  1  0  0  0  0
 51 52  1  0  0  0  0
 52 53  1  0  0  0  0
 54 53  1  0  0  0  0
M  END
>  <REMARK>
 VINA RESULT:    -3.785      2.374      4.499
 INTER + INTRA:         -14.559
 INTER:                  -7.191
 INTRA:                  -7.368
 UNBOUND:                -7.565
 SMILES CC(=O)N[C@@H]1[C@@H](O)C[C@](O)(C(=O)O)O[C@H]1C(O)[C@H](O)CNC(=O)OCc1cn(CC(=O)Nc2ncccn2)nn1
 SMILES IDX 21 1 22 2 23 3 20 5 18 6 16 7 15 8 9 9 8 10 14 11 6 12 5 13
 SMILES IDX 10 14 11 16 12 17 13 18 7 20 4 22 2 23 1 25 3 26 17 27 19 29
 SMILES IDX 24 31 25 32 26 33 27 34 40 35 28 36 39 37 29 38 30 39 31 40
 SMILES IDX 32 41 33 43 34 44 38 45 35 46 37 47 36 48
 H PARENT 21 4 10 15 13 19 7 21 4 24 17 28 19 30 32 42
 Flexibility Score: inf
  4 active torsions:
  status: ('A' for Active; 'I' for Inactive)
    1  A    between atoms: CA   and  CB  
    2  A    between atoms: CB   and  CG  
    3  A    between atoms: CG   and  CD  
    4  A    between atoms: CD   and  CE  

>  <TORSDO>
F 17

>  <BEGIN_>
RES LYS A 131

$$$$
ligand_71_pose_18_2HRL.pdbqt
 OpenBabel07062320523D

  6  5  0  0  0  0  0  0  0  0999 V2000
   33.1930   34.6630    9.2900 C   0  0  0  0  0  0  0  0  0  0  0  0
   32.0600   35.3600   10.0340 C   0  0  0  0  0  0  0  0  0  0  0  0
   30.7710   35.4130    9.2560 C   0  0  0  0  0  0  0  0  0  0  0  0
   30.2100   34.0140    9.0510 C   0  0  0  0  0  0  0  0  0  0  0  0
   28.6940   34.0420    9.0550 C   0  0  0  0  0  0  0  0  0  0  0  0
   28.1690   34.8440    7.9150 N   0  0  0  0  0  0  0  0  0  0  0  0
  1  2  1  0  0  0  0
  3  2  1  0  0  0  0
  4  5  1  0  0  0  0
  4  3  1  0  0  0  0
  6  5  1  0  0  0  0
M  END
>  <EGIN_R>
ES LYS A 135

>  <REMARK>
  4 active torsions:
  status: ('A' for Active; 'I' for Inactive)
    5  A    between atoms: CA   and  CB  
    6  A    between atoms: CB   and  CG  
    7  A    between atoms: CG   and  CD  
    8  A    between atoms: CD   and  CE  

$$$$
