ligand_11_pose_18_2HRL.pdbqt
 OpenBabel07062320523D

 54 54  0  0  1  0  0  0  0  0999 V2000
   29.8420   33.6720   19.2320 O   0  0  0  0  0  0  0  0  0  0  0  0
   29.5230   33.3690   17.9020 C   0  0  0  0  0  0  0  0  0  0  0  0
   28.4770   32.5020   17.5540 N   0  0  0  0  0  0  0  0  0  0  0  0
   27.9410   32.0740   18.3790 H   0  0  0  0  0  0  0  0  0  0  0  0
   30.2170   33.9120   17.0280 O   0  0  0  0  0  0  0  0  0  0  0  0
   28.0590   32.1350   16.2310 C   0  0  0  0  0  0  0  0  0  0  0  0
   28.1220   30.6740   16.0200 C   0  0  2  0  0  0  0  0  0  0  0  0
   26.7700   29.9930   16.1220 C   0  0  1  0  0  0  0  0  0  0  0  0
   26.2010   30.1510   17.5350 C   0  0  2  0  0  0  0  0  0  0  0  0
   26.8800   28.2870   18.7780 C   0  0  2  0  0  0  0  0  0  0  0  0
   25.7720   27.5720   18.0580 C   0  0  0  0  0  0  0  0  0  0  0  0
   26.9890   29.6150   18.4990 O   0  0  0  0  0  0  0  0  0  0  0  0
   24.5120   28.3430   17.8930 C   0  0  1  0  0  0  0  0  0  0  0  0
   24.7460   29.7930   17.5800 C   0  0  1  0  0  0  0  0  0  0  0  0
   28.0640   27.6680   18.3740 O   0  0  0  0  0  0  0  0  0  0  0  0
   28.7990   27.8360   18.9990 H   0  0  0  0  0  0  0  0  0  0  0  0
   26.7460   28.0780   20.2410 C   0  0  0  0  0  0  0  0  0  0  0  0
   26.4860   29.0470   20.9920 O   0  0  0  0  0  0  0  0  0  0  0  0
   26.9000   26.8240   20.8250 O   0  0  0  0  0  0  0  0  0  0  0  0
   27.8480   26.4470   20.8320 H   0  0  0  0  0  0  0  0  0  0  0  0
   23.7910   27.7670   16.8490 O   0  0  0  0  0  0  0  0  0  0  0  0
   24.3290   27.7380   16.0130 H   0  0  0  0  0  0  0  0  0  0  0  0
   24.0970   30.6740   18.5060 N   0  0  0  0  0  0  0  0  0  0  0  0
   23.7170   31.9740   18.0880 C   0  0  0  0  0  0  0  0  0  0  0  0
   23.9010   30.3570   19.5000 H   0  0  0  0  0  0  0  0  0  0  0  0
   23.0480   32.8860   19.0390 C   0  0  0  0  0  0  0  0  0  0  0  0
   23.9280   32.3960   16.9180 O   0  0  0  0  0  0  0  0  0  0  0  0
   25.9030   30.5680   15.2140 O   0  0  0  0  0  0  0  0  0  0  0  0
   25.5770   29.8640   14.5990 H   0  0  0  0  0  0  0  0  0  0  0  0
   29.0880   30.0670   16.7550 O   0  0  0  0  0  0  0  0  0  0  0  0
   28.7700   29.4460   17.4480 H   0  0  0  0  0  0  0  0  0  0  0  0
   30.9550   33.0320   19.8510 C   0  0  0  0  0  0  0  0  0  0  0  0
   30.7030   31.6210   20.1120 C   0  0  0  0  0  0  0  0  0  0  0  0
   30.8770   30.9250   21.2770 C   0  0  0  0  0  0  0  0  0  0  0  0
   30.2390   30.7220   19.2310 N   0  0  0  0  0  0  0  0  0  0  0  0
   30.5270   29.6430   21.0990 N   0  0  0  0  0  0  0  0  0  0  0  0
   30.1420   29.5540   19.8400 N   0  0  0  0  0  0  0  0  0  0  0  0
   30.5290   28.5140   22.0120 C   0  0  1  0  0  0  0  0  0  0  0  0
   29.3520   28.5740   22.9150 C   0  0  0  0  0  0  0  0  0  0  0  0
   29.4950   27.8980   24.2260 C   0  0  0  0  0  0  0  0  0  0  0  0
   28.8910   26.5680   24.2750 C   0  0  0  0  0  0  0  0  0  0  0  0
   29.0660   25.7920   25.2780 O   0  0  0  0  0  0  0  0  0  0  0  0
   28.1060   26.1200   23.2110 O   0  0  0  0  0  0  0  0  0  0  0  0
   28.5880   25.7870   22.3870 H   0  0  0  0  0  0  0  0  0  0  0  0
   30.8200   27.2440   21.3700 C   0  0  0  0  0  0  0  0  0  0  0  0
   31.9010   26.6580   21.3770 O   0  0  0  0  0  0  0  0  0  0  0  0
   29.7640   26.6300   20.6700 O   0  0  0  0  0  0  0  0  0  0  0  0
   28.8450   26.6420   21.0770 H   0  0  0  0  0  0  0  0  0  0  0  0
   29.8670   25.5550   16.9770 C   0  0  0  0  0  0  0  0  0  0  0  0
   28.3450   25.7220   17.0260 C   0  0  0  0  0  0  0  0  0  0  0  0
   27.6000   24.4070   16.8560 C   0  0  0  0  0  0  0  0  0  0  0  0
   26.6350   24.1530   17.9800 C   0  0  0  0  0  0  0  0  0  0  0  0
   25.2390   23.9200   17.4100 C   0  0  0  0  0  0  0  0  0  0  0  0
   24.8850   22.4830   17.4760 N   0  0  0  0  0  0  0  0  0  0  0  0
  1 32  1  0  0  0  0
  2  1  1  0  0  0  0
  3  2  1  0  0  0  0
  3  4  1  0  0  0  0
  5  2  2  0  0  0  0
  6  3  1  0  0  0  0
  7  8  1  0  0  0  0
  7  6  1  1  0  0  0
  7 30  1  0  0  0  0
  8 28  1  6  0  0  0
  9  8  1  6  0  0  0
  9 14  1  0  0  0  0
  9 12  1  0  0  0  0
 10 15  1  6  0  0  0
 10 17  1  0  0  0  0
 11 10  1  0  0  0  0
 12 10  1  0  0  0  0
 13 21  1  6  0  0  0
 13 11  1  0  0  0  0
 14 13  1  0  0  0  0
 14 23  1  1  0  0  0
 15 16  1  0  0  0  0
 17 19  1  0  0  0  0
 17 18  2  0  0  0  0
 19 20  1  0  0  0  0
 22 21  1  0  0  0  0
 23 25  1  0  0  0  0
 24 23  1  0  0  0  0
 24 26  1  0  0  0  0
 27 24  2  0  0  0  0
 29 28  1  0  0  0  0
 30 31  1  0  0  0  0
 32 33  1  0  0  0  0
 33 34  2  0  0  0  0
 35 37  2  0  0  0  0
 35 33  1  0  0  0  0
 36 34  1  0  0  0  0
 36 38  1  0  0  0  0
 37 36  1  0  0  0  0
 38 39  1  6  0  0  0
 39 40  1  0  0  0  0
 40 41  1  0  0  0  0
 41 42  2  0  0  0  0
 43 41  1  0  0  0  0
 44 43  1  0  0  0  0
 45 46  2  0  0  0  0
 45 38  1  0  0  0  0
 47 48  1  0  0  0  0
 47 45  1  0  0  0  0
 49 50  1  0  0  0  0
 51 50  1  0  0  0  0
 51 52  1  0  0  0  0
 53 54  1  0  0  0  0
 53 52  1  0  0  0  0
M  END
>  <REMARK>
 VINA RESULT:    -3.719      6.790     12.245
 INTER + INTRA:         -14.962
 INTER:                  -6.999
 INTRA:                  -7.964
 UNBOUND:                -7.438
 SMILES CC(=O)N[C@@H]1[C@@H](O)C[C@](O)(C(=O)O)O[C@H]1C(O)[C@H](O)CNC(=O)OCc1cn([C@@H](CCC(=O)O)C(=O)O)nn1
 SMILES IDX 24 1 22 2 21 3 23 5 20 6 18 7 16 8 15 9 9 10 8 11 14 12 6 13
 SMILES IDX 5 14 10 15 11 17 12 18 13 19 7 21 4 23 2 24 1 26 3 27 17 28
 SMILES IDX 19 30 25 32 26 33 27 34 39 35 28 36 38 37 29 38 30 39 31 40
 SMILES IDX 32 41 33 42 34 43 35 45 36 46 37 47
 H PARENT 21 4 10 16 13 20 7 22 4 25 17 29 19 31 34 44 37 48
 Flexibility Score: inf
  4 active torsions:
  status: ('A' for Active; 'I' for Inactive)
    1  A    between atoms: CA   and  CB  
    2  A    between atoms: CB   and  CG  
    3  A    between atoms: CG   and  CD  
    4  A    between atoms: CD   and  CE  

>  <TORSDO>
F 21

>  <BEGIN_>
RES LYS A 131

$$$$
ligand_11_pose_18_2HRL.pdbqt
 OpenBabel07062320523D

  6  5  0  0  0  0  0  0  0  0999 V2000
   33.1930   34.6630    9.2900 C   0  0  0  0  0  0  0  0  0  0  0  0
   32.0600   35.3600   10.0340 C   0  0  0  0  0  0  0  0  0  0  0  0
   30.7400   34.6410    9.9310 C   0  0  0  0  0  0  0  0  0  0  0  0
   30.3220   34.4920    8.4760 C   0  0  0  0  0  0  0  0  0  0  0  0
   28.8110   34.5140    8.3510 C   0  0  0  0  0  0  0  0  0  0  0  0
   28.1670   33.8030    9.4910 N   0  0  0  0  0  0  0  0  0  0  0  0
  1  2  1  0  0  0  0
  3  2  1  0  0  0  0
  4  3  1  0  0  0  0
  5  4  1  0  0  0  0
  5  6  1  0  0  0  0
M  END
>  <EGIN_R>
ES LYS A 135

>  <REMARK>
  4 active torsions:
  status: ('A' for Active; 'I' for Inactive)
    5  A    between atoms: CA   and  CB  
    6  A    between atoms: CB   and  CG  
    7  A    between atoms: CG   and  CD  
    8  A    between atoms: CD   and  CE  

$$$$
