ligand_73_pose_13_2HRL.pdbqt
 OpenBabel07062320523D

 54 55  0  0  1  0  0  0  0  0999 V2000
   22.8710   32.7030   14.3580 N   0  0  0  0  0  0  0  0  0  0  0  0
   22.5010   32.4270   13.0140 C   0  0  0  0  0  0  0  0  0  0  0  0
   22.4290   31.2330   12.5700 O   0  0  0  0  0  0  0  0  0  0  0  0
   22.9110   33.6820   14.6800 H   0  0  0  0  0  0  0  0  0  0  0  0
   23.1710   31.6120   15.2390 C   0  0  0  0  0  0  0  0  0  0  0  0
   24.6100   31.2940   15.4390 C   0  0  2  0  0  0  0  0  0  0  0  0
   25.4820   32.4550   15.8420 C   0  0  1  0  0  0  0  0  0  0  0  0
   26.8210   32.0680   16.3880 C   0  0  2  0  0  0  0  0  0  0  0  0
   28.9740   31.4720   15.8590 C   0  0  2  0  0  0  0  0  0  0  0  0
   29.1390   31.8210   17.3200 C   0  0  0  0  0  0  0  0  0  0  0  0
   27.6860   31.6560   15.3890 O   0  0  0  0  0  0  0  0  0  0  0  0
   28.1840   31.0110   18.1320 C   0  0  1  0  0  0  0  0  0  0  0  0
   26.7630   31.2000   17.5900 C   0  0  1  0  0  0  0  0  0  0  0  0
   29.3210   30.1350   15.7200 O   0  0  0  0  0  0  0  0  0  0  0  0
   29.6980   30.0280   14.8040 H   0  0  0  0  0  0  0  0  0  0  0  0
   29.9500   32.2900   15.0970 C   0  0  0  0  0  0  0  0  0  0  0  0
   29.5980   33.3420   14.5010 O   0  0  0  0  0  0  0  0  0  0  0  0
   31.2770   31.9110   15.0260 O   0  0  0  0  0  0  0  0  0  0  0  0
   31.8250   31.6510   15.8240 H   0  0  0  0  0  0  0  0  0  0  0  0
   28.5920   29.6670   18.0300 O   0  0  0  0  0  0  0  0  0  0  0  0
   28.4000   29.2550   18.9260 H   0  0  0  0  0  0  0  0  0  0  0  0
   26.0120   31.9430   18.6150 N   0  0  0  0  0  0  0  0  0  0  0  0
   24.8880   31.4070   19.2770 C   0  0  0  0  0  0  0  0  0  0  0  0
   26.3290   32.9100   18.8600 H   0  0  0  0  0  0  0  0  0  0  0  0
   24.1570   32.1890   20.3030 C   0  0  0  0  0  0  0  0  0  0  0  0
   24.5000   30.2640   18.9990 O   0  0  0  0  0  0  0  0  0  0  0  0
   25.6900   33.3260   14.7720 O   0  0  0  0  0  0  0  0  0  0  0  0
   26.5060   33.8480   14.8440 H   0  0  0  0  0  0  0  0  0  0  0  0
   25.0720   30.7510   14.2310 O   0  0  0  0  0  0  0  0  0  0  0  0
   25.9500   31.1850   14.0300 H   0  0  0  0  0  0  0  0  0  0  0  0
   22.2180   33.4880   12.1880 O   0  0  0  0  0  0  0  0  0  0  0  0
   22.8780   34.7040   12.3700 C   0  0  0  0  0  0  0  0  0  0  0  0
   24.1770   34.7860   11.6510 C   0  0  0  0  0  0  0  0  0  0  0  0
   24.4430   35.3800   10.4260 C   0  0  0  0  0  0  0  0  0  0  0  0
   25.3640   34.2950   12.0510 N   0  0  0  0  0  0  0  0  0  0  0  0
   25.7430   35.2420   10.1210 N   0  0  0  0  0  0  0  0  0  0  0  0
   26.2840   34.5760   11.1270 N   0  0  0  0  0  0  0  0  0  0  0  0
   26.4440   35.6950    8.9690 C   0  0  0  0  0  0  0  0  0  0  0  0
   27.1000   34.7930    8.1580 C   0  0  0  0  0  0  0  0  0  0  0  0
   26.5070   37.0250    8.6080 C   0  0  0  0  0  0  0  0  0  0  0  0
   27.7900   35.2120    7.0320 C   0  0  0  0  0  0  0  0  0  0  0  0
   27.1840   37.4910    7.4920 C   0  0  0  0  0  0  0  0  0  0  0  0
   27.8310   36.5460    6.7020 C   0  0  0  0  0  0  0  0  0  0  0  0
   27.2380   38.8540    7.1380 N   0  0  0  0  0  0  0  0  0  0  0  0
   26.7100   39.2310    6.0900 O   0  0  0  0  0  0  0  0  0  0  0  0
   27.8690   39.7440    7.9490 O   0  0  0  0  0  0  0  0  0  0  0  0
   28.5110   37.0170    5.5820 O   0  0  0  0  0  0  0  0  0  0  0  0
   29.0930   37.8600    5.6890 H   0  0  0  0  0  0  0  0  0  0  0  0
   29.8670   25.5550   16.9770 C   0  0  0  0  0  0  0  0  0  0  0  0
   28.3450   25.7220   17.0260 C   0  0  0  0  0  0  0  0  0  0  0  0
   27.6010   24.4010   16.8990 C   0  0  0  0  0  0  0  0  0  0  0  0
   26.5010   24.2700   17.9160 C   0  0  0  0  0  0  0  0  0  0  0  0
   25.1550   24.5230   17.2450 C   0  0  0  0  0  0  0  0  0  0  0  0
   24.6270   25.8540   17.6250 N   0  0  0  0  0  0  0  0  0  0  0  0
  1  4  1  0  0  0  0
  1  5  1  0  0  0  0
  2  1  1  0  0  0  0
  3  2  2  0  0  0  0
  6  5  1  6  0  0  0
  6  7  1  0  0  0  0
  7 27  1  6  0  0  0
  8  7  1  6  0  0  0
  8 13  1  0  0  0  0
  9 16  1  6  0  0  0
  9 10  1  0  0  0  0
 10 12  1  0  0  0  0
 11  9  1  0  0  0  0
 11  8  1  0  0  0  0
 12 20  1  6  0  0  0
 13 12  1  0  0  0  0
 13 22  1  1  0  0  0
 14  9  1  0  0  0  0
 15 14  1  0  0  0  0
 17 16  2  0  0  0  0
 18 16  1  0  0  0  0
 18 19  1  0  0  0  0
 20 21  1  0  0  0  0
 22 24  1  0  0  0  0
 22 23  1  0  0  0  0
 23 25  1  0  0  0  0
 26 23  2  0  0  0  0
 27 28  1  0  0  0  0
 29  6  1  0  0  0  0
 30 29  1  0  0  0  0
 31 32  1  0  0  0  0
 31  2  1  0  0  0  0
 33 35  1  0  0  0  0
 33 32  1  0  0  0  0
 34 33  2  0  0  0  0
 36 34  1  0  0  0  0
 36 37  1  0  0  0  0
 37 35  2  0  0  0  0
 38 36  1  0  0  0  0
 39 38  2  0  0  0  0
 40 38  1  0  0  0  0
 41 39  1  0  0  0  0
 42 40  2  0  0  0  0
 43 41  2  0  0  0  0
 43 42  1  0  0  0  0
 44 42  1  0  0  0  0
 44 46  2  0  0  0  0
 45 44  2  0  0  0  0
 47 48  1  0  0  0  0
 47 43  1  0  0  0  0
 49 50  1  0  0  0  0
 51 50  1  0  0  0  0
 51 52  1  0  0  0  0
 53 54  1  0  0  0  0
 53 52  1  0  0  0  0
M  END
>  <REMARK>
 VINA RESULT:    -4.017      3.600      7.421
 INTER + INTRA:         -14.616
 INTER:                  -9.818
 INTRA:                  -4.798
 UNBOUND:                -7.311
 SMILES CC(=O)N[C@@H]1[C@@H](O)C[C@](O)(C(=O)O)O[C@H]1C(O)[C@H](O)CNC(=O)OCc1cn(-c2ccc(O)c([N+](=O)[O-])c2)nn1
 SMILES IDX 21 1 22 2 23 3 20 5 18 6 16 7 15 8 9 9 8 10 14 11 6 12 5 13
 SMILES IDX 10 14 11 16 12 17 13 18 7 20 4 22 2 23 1 25 3 26 17 27 19 29
 SMILES IDX 24 31 25 32 26 33 27 34 40 35 28 36 39 37 29 38 30 39 38 40
 SMILES IDX 31 41 34 42 32 43 35 44 36 45 37 46 33 47
 H PARENT 21 4 10 15 13 19 7 21 4 24 17 28 19 30 33 48
 Flexibility Score: inf
  4 active torsions:
  status: ('A' for Active; 'I' for Inactive)
    1  A    between atoms: CA   and  CB  
    2  A    between atoms: CB   and  CG  
    3  A    between atoms: CG   and  CD  
    4  A    between atoms: CD   and  CE  

>  <TORSDO>
F 17

>  <BEGIN_>
RES LYS A 131

$$$$
ligand_73_pose_13_2HRL.pdbqt
 OpenBabel07062320523D

  6  5  0  0  0  0  0  0  0  0999 V2000
   33.1930   34.6630    9.2900 C   0  0  0  0  0  0  0  0  0  0  0  0
   32.0600   35.3600   10.0340 C   0  0  0  0  0  0  0  0  0  0  0  0
   30.6890   34.9840    9.5330 C   0  0  0  0  0  0  0  0  0  0  0  0
   29.7520   34.7000   10.6970 C   0  0  0  0  0  0  0  0  0  0  0  0
   29.8640   35.7870   11.7480 C   0  0  0  0  0  0  0  0  0  0  0  0
   28.9500   36.9230   11.4450 N   0  0  0  0  0  0  0  0  0  0  0  0
  1  2  1  0  0  0  0
  3  2  1  0  0  0  0
  3  4  1  0  0  0  0
  4  5  1  0  0  0  0
  6  5  1  0  0  0  0
M  END
>  <EGIN_R>
ES LYS A 135

>  <REMARK>
  4 active torsions:
  status: ('A' for Active; 'I' for Inactive)
    5  A    between atoms: CA   and  CB  
    6  A    between atoms: CB   and  CG  
    7  A    between atoms: CG   and  CD  
    8  A    between atoms: CD   and  CE  

$$$$
