ligand_42_pose_14_2HRL.pdbqt
 OpenBabel07062320523D

 52 54  0  0  1  0  0  0  0  0999 V2000
   29.1940   34.0160   15.3770 C   0  0  0  0  0  0  0  0  0  0  0  0
   29.6080   32.6270   15.0230 C   0  0  2  0  0  0  0  0  0  0  0  0
   29.6560   31.7310   16.2720 C   0  0  1  0  0  0  0  0  0  0  0  0
   28.3680   30.9920   16.3360 C   0  0  2  0  0  0  0  0  0  0  0  0
   26.0990   31.1420   16.1780 C   0  0  2  0  0  0  0  0  0  0  0  0
   26.2640   29.6440   16.3200 C   0  0  0  0  0  0  0  0  0  0  0  0
   27.2860   31.8210   16.0590 O   0  0  0  0  0  0  0  0  0  0  0  0
   27.1370   29.2750   17.5040 C   0  0  1  0  0  0  0  0  0  0  0  0
   28.1010   30.3930   17.7160 C   0  0  1  0  0  0  0  0  0  0  0  0
   25.3440   31.5580   17.2760 O   0  0  0  0  0  0  0  0  0  0  0  0
   24.4080   31.6360   16.9480 H   0  0  0  0  0  0  0  0  0  0  0  0
   25.3290   31.3680   14.9320 C   0  0  0  0  0  0  0  0  0  0  0  0
   24.7090   30.4110   14.4120 O   0  0  0  0  0  0  0  0  0  0  0  0
   25.2620   32.6020   14.3070 O   0  0  0  0  0  0  0  0  0  0  0  0
   26.0100   32.9840   13.7390 H   0  0  0  0  0  0  0  0  0  0  0  0
   26.2560   29.1290   18.5980 O   0  0  0  0  0  0  0  0  0  0  0  0
   26.3120   28.2310   18.9730 H   0  0  0  0  0  0  0  0  0  0  0  0
   29.2820   30.0670   18.4280 N   0  0  0  0  0  0  0  0  0  0  0  0
   29.4380   30.0160   19.8390 C   0  0  0  0  0  0  0  0  0  0  0  0
   30.1340   29.8350   17.8710 H   0  0  0  0  0  0  0  0  0  0  0  0
   30.7320   29.6580   20.4910 C   0  0  0  0  0  0  0  0  0  0  0  0
   28.4330   30.2880   20.5350 O   0  0  0  0  0  0  0  0  0  0  0  0
   30.7360   30.9010   16.1450 O   0  0  0  0  0  0  0  0  0  0  0  0
   30.6720   30.1460   15.5510 H   0  0  0  0  0  0  0  0  0  0  0  0
   30.8450   32.5940   14.4350 O   0  0  0  0  0  0  0  0  0  0  0  0
   31.3350   33.4430   14.3900 H   0  0  0  0  0  0  0  0  0  0  0  0
   28.0940   34.4650   14.5960 N   0  0  0  0  0  0  0  0  0  0  0  0
   28.2320   35.0830   13.3430 C   0  0  0  0  0  0  0  0  0  0  0  0
   27.0970   34.3420   14.9500 H   0  0  0  0  0  0  0  0  0  0  0  0
   29.3100   35.3230   12.7760 O   0  0  0  0  0  0  0  0  0  0  0  0
   27.0710   35.4740   12.6520 O   0  0  0  0  0  0  0  0  0  0  0  0
   26.4040   34.5440   11.8550 C   0  0  0  0  0  0  0  0  0  0  0  0
   26.8760   34.6780   10.4520 C   0  0  0  0  0  0  0  0  0  0  0  0
   26.8270   35.8280    9.6720 C   0  0  0  0  0  0  0  0  0  0  0  0
   27.4340   33.7450    9.6620 N   0  0  0  0  0  0  0  0  0  0  0  0
   27.3430   35.5690    8.4580 N   0  0  0  0  0  0  0  0  0  0  0  0
   27.6990   34.2980    8.4940 N   0  0  0  0  0  0  0  0  0  0  0  0
   27.4650   36.4970    7.3850 C   0  0  0  0  0  0  0  0  0  0  0  0
   28.3070   36.2330    6.3230 C   0  0  0  0  0  0  0  0  0  0  0  0
   26.7670   37.6860    7.3470 C   0  0  0  0  0  0  0  0  0  0  0  0
   28.4420   37.1270    5.2630 C   0  0  0  0  0  0  0  0  0  0  0  0
   26.8860   38.5950    6.2970 C   0  0  0  0  0  0  0  0  0  0  0  0
   27.7320   38.3090    5.2490 C   0  0  0  0  0  0  0  0  0  0  0  0
   26.3040   39.8320    6.0310 O   0  0  0  0  0  0  0  0  0  0  0  0
   27.6440   39.3920    4.3560 O   0  0  0  0  0  0  0  0  0  0  0  0
   27.0810   40.5060    5.0580 C   0  0  0  0  0  0  0  0  0  0  0  0
   29.8670   25.5550   16.9770 C   0  0  0  0  0  0  0  0  0  0  0  0
   28.3450   25.7220   17.0260 C   0  0  0  0  0  0  0  0  0  0  0  0
   27.6010   24.4010   16.9060 C   0  0  0  0  0  0  0  0  0  0  0  0
   26.6390   24.1870   18.0420 C   0  0  0  0  0  0  0  0  0  0  0  0
   26.2070   25.5380   18.6030 C   0  0  0  0  0  0  0  0  0  0  0  0
   24.9040   25.9460   18.0260 N   0  0  0  0  0  0  0  0  0  0  0  0
  2  1  1  1  0  0  0
  2  3  1  0  0  0  0
  3 23  1  6  0  0  0
  4  3  1  1  0  0  0
  4  9  1  0  0  0  0
  5 12  1  6  0  0  0
  5  6  1  0  0  0  0
  5 10  1  0  0  0  0
  6  8  1  0  0  0  0
  7  5  1  0  0  0  0
  7  4  1  0  0  0  0
  8  9  1  0  0  0  0
  8 16  1  1  0  0  0
  9 18  1  6  0  0  0
 11 10  1  0  0  0  0
 13 12  2  0  0  0  0
 14 12  1  0  0  0  0
 15 14  1  0  0  0  0
 16 17  1  0  0  0  0
 18 19  1  0  0  0  0
 19 21  1  0  0  0  0
 19 22  2  0  0  0  0
 20 18  1  0  0  0  0
 24 23  1  0  0  0  0
 25  2  1  0  0  0  0
 26 25  1  0  0  0  0
 27 29  1  0  0  0  0
 27  1  1  0  0  0  0
 28 27  1  0  0  0  0
 30 28  2  0  0  0  0
 31 28  1  0  0  0  0
 32 31  1  0  0  0  0
 33 32  1  0  0  0  0
 34 33  2  0  0  0  0
 35 33  1  0  0  0  0
 36 37  1  0  0  0  0
 36 34  1  0  0  0  0
 37 35  2  0  0  0  0
 38 36  1  0  0  0  0
 39 38  2  0  0  0  0
 40 38  1  0  0  0  0
 41 39  1  0  0  0  0
 42 40  2  0  0  0  0
 43 41  2  0  0  0  0
 43 42  1  0  0  0  0
 44 42  1  0  0  0  0
 45 46  1  0  0  0  0
 45 43  1  0  0  0  0
 46 44  1  0  0  0  0
 47 48  1  0  0  0  0
 49 48  1  0  0  0  0
 49 50  1  0  0  0  0
 50 51  1  0  0  0  0
 52 51  1  0  0  0  0
M  END
>  <REMARK>
 VINA RESULT:    -5.402      4.460      9.246
 INTER + INTRA:         -13.898
 INTER:                 -10.209
 INTRA:                  -3.688
 UNBOUND:                -4.548
 SMILES CC(=O)N[C@@H]1[C@@H](O)C[C@](O)(C(=O)O)O[C@H]1C(O)[C@H](O)CNC(=O)OCc1cn(-c2ccc3c(c2)OCO3)nn1
 SMILES IDX 20 1 18 2 16 3 15 4 9 5 8 6 14 7 6 8 5 9 10 10 11 12 12 13
 SMILES IDX 13 14 7 16 4 18 2 19 1 21 3 22 17 23 19 25 21 27 22 28 23 30
 SMILES IDX 24 31 25 32 26 33 27 34 39 35 28 36 38 37 29 38 30 39 34 40
 SMILES IDX 31 41 33 42 32 43 35 44 37 45 36 46
 H PARENT 10 11 13 15 7 17 4 20 17 24 19 26 21 29
 Flexibility Score: inf
  4 active torsions:
  status: ('A' for Active; 'I' for Inactive)
    1  A    between atoms: CA   and  CB  
    2  A    between atoms: CB   and  CG  
    3  A    between atoms: CG   and  CD  
    4  A    between atoms: CD   and  CE  

>  <TORSDO>
F 15

>  <BEGIN_>
RES LYS A 131

$$$$
ligand_42_pose_14_2HRL.pdbqt
 OpenBabel07062320523D

  6  5  0  0  0  0  0  0  0  0999 V2000
   33.1930   34.6630    9.2900 C   0  0  0  0  0  0  0  0  0  0  0  0
   32.0600   35.3600   10.0340 C   0  0  0  0  0  0  0  0  0  0  0  0
   30.8930   35.7220    9.1520 C   0  0  0  0  0  0  0  0  0  0  0  0
   30.4320   37.1450    9.4290 C   0  0  0  0  0  0  0  0  0  0  0  0
   31.5060   37.9170   10.1730 C   0  0  0  0  0  0  0  0  0  0  0  0
   30.9820   38.4650   11.4550 N   0  0  0  0  0  0  0  0  0  0  0  0
  1  2  1  0  0  0  0
  3  4  1  0  0  0  0
  3  2  1  0  0  0  0
  4  5  1  0  0  0  0
  5  6  1  0  0  0  0
M  END
>  <EGIN_R>
ES LYS A 135

>  <REMARK>
  4 active torsions:
  status: ('A' for Active; 'I' for Inactive)
    5  A    between atoms: CA   and  CB  
    6  A    between atoms: CB   and  CG  
    7  A    between atoms: CG   and  CD  
    8  A    between atoms: CD   and  CE  

$$$$
