ligand_18_pose_9_2HRL.pdbqt
 OpenBabel07062320523D

 54 55  0  0  1  0  0  0  0  0999 V2000
   23.4300   36.7450   10.7930 N   0  0  0  0  0  0  0  0  0  0  0  0
   24.0430   37.2010   11.9780 C   0  0  0  0  0  0  0  0  0  0  0  0
   25.1190   36.6650   12.3400 O   0  0  0  0  0  0  0  0  0  0  0  0
   22.5360   37.2050   10.5120 H   0  0  0  0  0  0  0  0  0  0  0  0
   23.9460   35.6930    9.9400 C   0  0  0  0  0  0  0  0  0  0  0  0
   24.6640   36.2680    8.7520 C   0  0  2  0  0  0  0  0  0  0  0  0
   26.0670   36.6980    9.0180 C   0  0  1  0  0  0  0  0  0  0  0  0
   27.0950   36.4030    7.9930 C   0  0  2  0  0  0  0  0  0  0  0  0
   29.3340   35.7260    7.9550 C   0  0  2  0  0  0  0  0  0  0  0  0
   28.9870   35.5390    6.4890 C   0  0  0  0  0  0  0  0  0  0  0  0
   28.2700   36.0580    8.7390 O   0  0  0  0  0  0  0  0  0  0  0  0
   28.3970   36.8120    5.9900 C   0  0  1  0  0  0  0  0  0  0  0  0
   27.5310   37.4760    7.0790 C   0  0  1  0  0  0  0  0  0  0  0  0
   30.3440   36.7080    7.9740 O   0  0  0  0  0  0  0  0  0  0  0  0
   30.3000   37.2200    7.1190 H   0  0  0  0  0  0  0  0  0  0  0  0
   29.9240   34.4800    8.5100 C   0  0  0  0  0  0  0  0  0  0  0  0
   29.2020   33.7180    9.1860 O   0  0  0  0  0  0  0  0  0  0  0  0
   31.2560   34.1360    8.2990 O   0  0  0  0  0  0  0  0  0  0  0  0
   31.4980   33.8470    7.3500 H   0  0  0  0  0  0  0  0  0  0  0  0
   29.3230   37.7020    5.4910 O   0  0  0  0  0  0  0  0  0  0  0  0
   30.2300   37.3050    5.4720 H   0  0  0  0  0  0  0  0  0  0  0  0
   26.5540   38.2250    6.3810 N   0  0  0  0  0  0  0  0  0  0  0  0
   26.5750   39.6350    6.4240 C   0  0  0  0  0  0  0  0  0  0  0  0
   25.8130   37.7720    5.8290 H   0  0  0  0  0  0  0  0  0  0  0  0
   25.5640   40.4700    5.7040 C   0  0  0  0  0  0  0  0  0  0  0  0
   27.4550   40.2870    7.0810 O   0  0  0  0  0  0  0  0  0  0  0  0
   26.1990   37.9040    9.6910 O   0  0  0  0  0  0  0  0  0  0  0  0
   25.7500   37.9410   10.5450 H   0  0  0  0  0  0  0  0  0  0  0  0
   23.9270   37.2020    8.0360 O   0  0  0  0  0  0  0  0  0  0  0  0
   22.9680   37.1930    8.2580 H   0  0  0  0  0  0  0  0  0  0  0  0
   23.4970   38.2280   12.7610 O   0  0  0  0  0  0  0  0  0  0  0  0
   22.8660   39.3400   12.1540 C   0  0  0  0  0  0  0  0  0  0  0  0
   23.8580   40.0020   11.2610 C   0  0  0  0  0  0  0  0  0  0  0  0
   24.8010   40.9530   11.5910 C   0  0  0  0  0  0  0  0  0  0  0  0
   24.0270   39.8000    9.9440 N   0  0  0  0  0  0  0  0  0  0  0  0
   25.4920   41.2860   10.4910 N   0  0  0  0  0  0  0  0  0  0  0  0
   25.0010   40.5700    9.5030 N   0  0  0  0  0  0  0  0  0  0  0  0
   26.5870   42.2690   10.4550 C   0  0  0  0  0  0  0  0  0  0  0  0
   27.8480   41.4950   10.3740 C   0  0  0  0  0  0  0  0  0  0  0  0
   28.9480   42.1060   10.5840 O   0  0  0  0  0  0  0  0  0  0  0  0
   27.9400   40.1150   10.0790 N   0  0  0  0  0  0  0  0  0  0  0  0
   27.0460   39.6200    9.9090 H   0  0  0  0  0  0  0  0  0  0  0  0
   29.1930   39.3990   10.0120 C   0  0  0  0  0  0  0  0  0  0  0  0
   29.5290   38.9870   11.4320 C   0  0  0  0  0  0  0  0  0  0  0  0
   30.7040   38.9490   12.0490 C   0  0  0  0  0  0  0  0  0  0  0  0
   28.3980   38.4450   12.6270 S   0  0  0  0  0  0  0  0  0  0  0  0
   30.7940   38.5460   13.3340 C   0  0  0  0  0  0  0  0  0  0  0  0
   29.5840   38.1830   13.9430 C   0  0  0  0  0  0  0  0  0  0  0  0
   29.8670   25.5550   16.9770 C   0  0  0  0  0  0  0  0  0  0  0  0
   28.3450   25.7220   17.0260 C   0  0  0  0  0  0  0  0  0  0  0  0
   27.5990   24.4770   16.5700 C   0  0  0  0  0  0  0  0  0  0  0  0
   27.0160   23.7120   17.7260 C   0  0  0  0  0  0  0  0  0  0  0  0
   25.7820   24.4400   18.2480 C   0  0  0  0  0  0  0  0  0  0  0  0
   24.7230   24.4740   17.2120 N   0  0  0  0  0  0  0  0  0  0  0  0
  1  2  1  0  0  0  0
  2  3  2  0  0  0  0
  2 31  1  0  0  0  0
  4  1  1  0  0  0  0
  5  1  1  0  0  0  0
  6  7  1  0  0  0  0
  6  5  1  1  0  0  0
  7 27  1  6  0  0  0
  8 11  1  0  0  0  0
  8  7  1  1  0  0  0
  9 14  1  1  0  0  0
  9 16  1  0  0  0  0
  9 11  1  0  0  0  0
 10  9  1  0  0  0  0
 12 20  1  1  0  0  0
 12 10  1  0  0  0  0
 12 13  1  0  0  0  0
 13 22  1  6  0  0  0
 13  8  1  0  0  0  0
 15 14  1  0  0  0  0
 16 17  2  0  0  0  0
 18 16  1  0  0  0  0
 19 18  1  0  0  0  0
 21 20  1  0  0  0  0
 22 23  1  0  0  0  0
 23 26  2  0  0  0  0
 24 22  1  0  0  0  0
 25 23  1  0  0  0  0
 27 28  1  0  0  0  0
 29 30  1  0  0  0  0
 29  6  1  0  0  0  0
 32 31  1  0  0  0  0
 33 34  2  0  0  0  0
 33 32  1  0  0  0  0
 35 33  1  0  0  0  0
 36 34  1  0  0  0  0
 37 35  2  0  0  0  0
 37 36  1  0  0  0  0
 38 36  1  0  0  0  0
 39 38  1  0  0  0  0
 39 40  2  0  0  0  0
 41 39  1  0  0  0  0
 42 41  1  0  0  0  0
 43 41  1  0  0  0  0
 43 44  1  0  0  0  0
 44 45  2  0  0  0  0
 44 46  1  0  0  0  0
 45 47  1  0  0  0  0
 46 48  1  0  0  0  0
 47 48  2  0  0  0  0
 49 50  1  0  0  0  0
 51 50  1  0  0  0  0
 51 52  1  0  0  0  0
 52 53  1  0  0  0  0
 54 53  1  0  0  0  0
M  END
>  <REMARK>
 VINA RESULT:    -4.249      2.746      5.147
 INTER + INTRA:         -14.887
 INTER:                  -8.223
 INTRA:                  -6.663
 UNBOUND:                -6.788
 SMILES CC(=O)N[C@@H]1[C@@H](O)C[C@](O)(C(=O)O)O[C@H]1C(O)[C@H](O)CNC(=O)OCc1cn(CC(=O)NCc2cccs2)nn1
 SMILES IDX 21 1 22 2 23 3 20 5 18 6 16 7 15 8 9 9 8 10 14 11 6 12 5 13
 SMILES IDX 10 14 11 16 12 17 13 18 7 20 4 22 2 23 1 25 3 26 17 27 19 29
 SMILES IDX 24 31 25 32 26 33 27 34 40 35 28 36 39 37 29 38 30 39 31 40
 SMILES IDX 32 41 33 43 34 44 35 45 38 46 36 47 37 48
 H PARENT 21 4 10 15 13 19 7 21 4 24 17 28 19 30 32 42
 Flexibility Score: inf
  4 active torsions:
  status: ('A' for Active; 'I' for Inactive)
    1  A    between atoms: CA   and  CB  
    2  A    between atoms: CB   and  CG  
    3  A    between atoms: CG   and  CD  
    4  A    between atoms: CD   and  CE  

>  <TORSDO>
F 18

>  <BEGIN_>
RES LYS A 131

$$$$
ligand_18_pose_9_2HRL.pdbqt
 OpenBabel07062320523D

  6  5  0  0  0  0  0  0  0  0999 V2000
   33.1930   34.6630    9.2900 C   0  0  0  0  0  0  0  0  0  0  0  0
   32.0600   35.3600   10.0340 C   0  0  0  0  0  0  0  0  0  0  0  0
   32.2600   35.4090   11.5270 C   0  0  0  0  0  0  0  0  0  0  0  0
   31.0050   34.9470   12.2520 C   0  0  0  0  0  0  0  0  0  0  0  0
   31.2520   34.8660   13.7460 C   0  0  0  0  0  0  0  0  0  0  0  0
   32.7010   35.0140   14.0590 N   0  0  0  0  0  0  0  0  0  0  0  0
  1  2  1  0  0  0  0
  2  3  1  0  0  0  0
  3  4  1  0  0  0  0
  4  5  1  0  0  0  0
  5  6  1  0  0  0  0
M  END
>  <EGIN_R>
ES LYS A 135

>  <REMARK>
  4 active torsions:
  status: ('A' for Active; 'I' for Inactive)
    5  A    between atoms: CA   and  CB  
    6  A    between atoms: CB   and  CG  
    7  A    between atoms: CG   and  CD  
    8  A    between atoms: CD   and  CE  

$$$$
