ligand_55_pose_19_2HRL.pdbqt
 OpenBabel07062320523D

 51 51  0  0  1  0  0  0  0  0999 V2000
   28.5900   33.9940   16.1470 N   0  0  0  0  0  0  0  0  0  0  0  0
   28.6360   35.1580   15.3540 C   0  0  0  0  0  0  0  0  0  0  0  0
   29.6470   35.5240   14.7330 O   0  0  0  0  0  0  0  0  0  0  0  0
   27.6640   33.7780   16.6250 H   0  0  0  0  0  0  0  0  0  0  0  0
   29.6580   33.0910   16.3620 C   0  0  0  0  0  0  0  0  0  0  0  0
   29.8260   31.9740   15.3630 C   0  0  2  0  0  0  0  0  0  0  0  0
   29.2350   30.7440   15.9780 C   0  0  2  0  0  0  0  0  0  0  0  0
   27.7620   30.7490   16.2340 C   0  0  2  0  0  0  0  0  0  0  0  0
   25.8490   31.9670   15.6380 C   0  0  2  0  0  0  0  0  0  0  0  0
   25.2330   31.7020   16.9700 C   0  0  0  0  0  0  0  0  0  0  0  0
   27.1440   31.6600   15.4790 O   0  0  0  0  0  0  0  0  0  0  0  0
   26.2380   31.5510   18.0790 C   0  0  1  0  0  0  0  0  0  0  0  0
   27.3820   30.6830   17.6810 C   0  0  1  0  0  0  0  0  0  0  0  0
   25.6650   33.3200   15.3320 O   0  0  0  0  0  0  0  0  0  0  0  0
   26.4290   33.6260   14.7970 H   0  0  0  0  0  0  0  0  0  0  0  0
   25.0700   31.2090   14.6170 C   0  0  0  0  0  0  0  0  0  0  0  0
   24.7070   30.0260   14.7540 O   0  0  0  0  0  0  0  0  0  0  0  0
   24.7010   31.8340   13.4110 O   0  0  0  0  0  0  0  0  0  0  0  0
   23.7620   32.1820   13.2650 H   0  0  0  0  0  0  0  0  0  0  0  0
   26.6080   32.8170   18.5160 O   0  0  0  0  0  0  0  0  0  0  0  0
   27.5830   32.7840   18.6940 H   0  0  0  0  0  0  0  0  0  0  0  0
   27.0790   29.3290   18.1070 N   0  0  0  0  0  0  0  0  0  0  0  0
   27.7900   28.6500   19.1320 C   0  0  0  0  0  0  0  0  0  0  0  0
   26.2910   28.7680   17.6620 H   0  0  0  0  0  0  0  0  0  0  0  0
   27.4390   27.2470   19.5360 C   0  0  0  0  0  0  0  0  0  0  0  0
   28.7300   29.2780   19.6850 O   0  0  0  0  0  0  0  0  0  0  0  0
   29.9510   30.5800   17.2000 O   0  0  0  0  0  0  0  0  0  0  0  0
   30.9030   30.4220   17.0270 H   0  0  0  0  0  0  0  0  0  0  0  0
   31.1410   31.8930   14.9930 O   0  0  0  0  0  0  0  0  0  0  0  0
   31.2730   32.0430   14.0490 H   0  0  0  0  0  0  0  0  0  0  0  0
   27.5050   35.9590   15.2450 O   0  0  0  0  0  0  0  0  0  0  0  0
   27.1510   36.6600   14.0800 C   0  0  0  0  0  0  0  0  0  0  0  0
   26.8340   35.7270   12.9820 C   0  0  0  0  0  0  0  0  0  0  0  0
   27.4750   35.5700   11.7690 C   0  0  0  0  0  0  0  0  0  0  0  0
   25.8370   34.8470   12.9820 N   0  0  0  0  0  0  0  0  0  0  0  0
   26.8530   34.6080   11.0740 N   0  0  0  0  0  0  0  0  0  0  0  0
   25.8560   34.1850   11.8430 N   0  0  0  0  0  0  0  0  0  0  0  0
   27.1310   34.0740    9.7660 C   0  0  0  0  0  0  0  0  0  0  0  0
   26.4840   34.8920    8.6640 C   0  0  0  0  0  0  0  0  0  0  0  0
   25.1350   35.2020    9.0890 N   0  0  0  0  0  0  0  0  0  0  0  0
   24.9100   34.7890   10.0050 H   0  0  0  0  0  0  0  0  0  0  0  0
   24.8280   36.8930    9.1040 S   0  0  0  0  0  0  0  0  0  0  0  0
   26.1490   37.5900    8.9050 O   0  0  0  0  0  0  0  0  0  0  0  0
   23.8520   37.2350    8.0250 O   0  0  0  0  0  0  0  0  0  0  0  0
   24.1720   37.4020   10.6770 C   0  0  0  0  0  0  0  0  0  0  0  0
   29.8670   25.5550   16.9770 C   0  0  0  0  0  0  0  0  0  0  0  0
   28.3450   25.7220   17.0260 C   0  0  0  0  0  0  0  0  0  0  0  0
   27.6010   24.4010   16.9020 C   0  0  0  0  0  0  0  0  0  0  0  0
   26.1500   24.5310   17.2710 C   0  0  0  0  0  0  0  0  0  0  0  0
   25.7790   23.4410   18.2710 C   0  0  0  0  0  0  0  0  0  0  0  0
   25.1200   22.3070   17.5820 N   0  0  0  0  0  0  0  0  0  0  0  0
  1  5  1  0  0  0  0
  1  4  1  0  0  0  0
  2  1  1  0  0  0  0
  3  2  2  0  0  0  0
  6  7  1  0  0  0  0
  6  5  1  1  0  0  0
  7 27  1  1  0  0  0
  8  7  1  1  0  0  0
  8 13  1  0  0  0  0
  9 16  1  6  0  0  0
  9 10  1  0  0  0  0
 10 12  1  0  0  0  0
 11  9  1  0  0  0  0
 11  8  1  0  0  0  0
 12 20  1  6  0  0  0
 13 12  1  0  0  0  0
 13 22  1  6  0  0  0
 14  9  1  0  0  0  0
 15 14  1  0  0  0  0
 16 17  2  0  0  0  0
 18 16  1  0  0  0  0
 19 18  1  0  0  0  0
 20 21  1  0  0  0  0
 22 23  1  0  0  0  0
 23 25  1  0  0  0  0
 23 26  2  0  0  0  0
 24 22  1  0  0  0  0
 28 27  1  0  0  0  0
 29  6  1  0  0  0  0
 30 29  1  0  0  0  0
 31  2  1  0  0  0  0
 32 31  1  0  0  0  0
 33 32  1  0  0  0  0
 34 33  2  0  0  0  0
 35 33  1  0  0  0  0
 36 34  1  0  0  0  0
 36 37  1  0  0  0  0
 37 35  2  0  0  0  0
 38 36  1  0  0  0  0
 39 40  1  0  0  0  0
 39 38  1  0  0  0  0
 40 42  1  0  0  0  0
 40 41  1  0  0  0  0
 42 45  1  0  0  0  0
 43 42  2  0  0  0  0
 44 42  2  0  0  0  0
 46 47  1  0  0  0  0
 48 47  1  0  0  0  0
 48 49  1  0  0  0  0
 49 50  1  0  0  0  0
 51 50  1  0  0  0  0
M  END
>  <REMARK>
 VINA RESULT:    -4.151      4.246      9.167
 INTER + INTRA:         -14.188
 INTER:                  -7.912
 INTRA:                  -6.277
 UNBOUND:                -6.277
 SMILES CC(=O)N[C@@H]1[C@@H](O)C[C@](O)(C(=O)O)O[C@H]1C(O)[C@H](O)CNC(=O)OCc1cn(CCNS(C)(=O)=O)nn1
 SMILES IDX 21 1 22 2 23 3 20 5 18 6 16 7 15 8 9 9 8 10 14 11 6 12 5 13
 SMILES IDX 10 14 11 16 12 17 13 18 7 20 4 22 2 23 1 25 3 26 17 27 19 29
 SMILES IDX 24 31 25 32 26 33 27 34 37 35 28 36 36 37 29 38 30 39 31 40
 SMILES IDX 32 42 34 43 35 44 33 45
 H PARENT 21 4 10 15 13 19 7 21 4 24 17 28 19 30 31 41
 Flexibility Score: inf
  4 active torsions:
  status: ('A' for Active; 'I' for Inactive)
    1  A    between atoms: CA   and  CB  
    2  A    between atoms: CB   and  CG  
    3  A    between atoms: CG   and  CD  
    4  A    between atoms: CD   and  CE  

>  <TORSDO>
F 18

>  <BEGIN_>
RES LYS A 131

$$$$
ligand_55_pose_19_2HRL.pdbqt
 OpenBabel07062320523D

  6  5  0  0  0  0  0  0  0  0999 V2000
   33.1930   34.6630    9.2900 C   0  0  0  0  0  0  0  0  0  0  0  0
   32.0600   35.3600   10.0340 C   0  0  0  0  0  0  0  0  0  0  0  0
   30.6890   34.8830    9.6280 C   0  0  0  0  0  0  0  0  0  0  0  0
   30.2300   35.5870    8.3610 C   0  0  0  0  0  0  0  0  0  0  0  0
   29.6000   36.9260    8.6940 C   0  0  0  0  0  0  0  0  0  0  0  0
   30.4940   38.0520    8.3040 N   0  0  0  0  0  0  0  0  0  0  0  0
  1  2  1  0  0  0  0
  3  2  1  0  0  0  0
  4  5  1  0  0  0  0
  4  3  1  0  0  0  0
  6  5  1  0  0  0  0
M  END
>  <EGIN_R>
ES LYS A 135

>  <REMARK>
  4 active torsions:
  status: ('A' for Active; 'I' for Inactive)
    5  A    between atoms: CA   and  CB  
    6  A    between atoms: CB   and  CG  
    7  A    between atoms: CG   and  CD  
    8  A    between atoms: CD   and  CE  

$$$$
