ligand_70_pose_17_2HRL.pdbqt
 OpenBabel07062320523D

 53 55  0  0  1  0  0  0  0  0999 V2000
   24.4900   37.4790   10.3440 C   0  0  0  0  0  0  0  0  0  0  0  0
   24.1540   37.0680    8.9380 C   0  0  2  0  0  0  0  0  0  0  0  0
   24.9840   37.7560    7.8880 C   0  0  1  0  0  0  0  0  0  0  0  0
   26.1260   36.9350    7.3630 C   0  0  2  0  0  0  0  0  0  0  0  0
   27.9040   35.7330    8.2420 C   0  0  2  0  0  0  0  0  0  0  0  0
   28.4400   35.5500    6.8440 C   0  0  0  0  0  0  0  0  0  0  0  0
   26.5550   35.9820    8.2740 O   0  0  0  0  0  0  0  0  0  0  0  0
   28.1140   36.7340    5.9970 C   0  0  1  0  0  0  0  0  0  0  0  0
   27.2210   37.7410    6.7540 C   0  0  1  0  0  0  0  0  0  0  0  0
   28.6760   36.7060    8.8710 O   0  0  0  0  0  0  0  0  0  0  0  0
   29.4470   36.3410    9.3440 H   0  0  0  0  0  0  0  0  0  0  0  0
   28.1420   34.4530    8.9730 C   0  0  0  0  0  0  0  0  0  0  0  0
   29.2640   33.9000    8.8430 O   0  0  0  0  0  0  0  0  0  0  0  0
   27.1820   33.8630    9.7760 O   0  0  0  0  0  0  0  0  0  0  0  0
   26.2390   34.2610    9.8150 H   0  0  0  0  0  0  0  0  0  0  0  0
   29.2880   37.3860    5.5750 O   0  0  0  0  0  0  0  0  0  0  0  0
   29.0540   38.1620    5.0130 H   0  0  0  0  0  0  0  0  0  0  0  0
   26.6230   38.6410    5.7640 N   0  0  0  0  0  0  0  0  0  0  0  0
   26.9150   40.0280    5.6980 C   0  0  0  0  0  0  0  0  0  0  0  0
   25.9510   38.2670    5.0700 H   0  0  0  0  0  0  0  0  0  0  0  0
   26.2950   40.9260    4.6870 C   0  0  0  0  0  0  0  0  0  0  0  0
   27.7240   40.5460    6.5080 O   0  0  0  0  0  0  0  0  0  0  0  0
   24.1040   38.1220    6.8500 O   0  0  0  0  0  0  0  0  0  0  0  0
   24.5670   38.8220    6.3260 H   0  0  0  0  0  0  0  0  0  0  0  0
   22.7780   37.2390    8.6830 O   0  0  0  0  0  0  0  0  0  0  0  0
   22.7530   37.8040    7.8470 H   0  0  0  0  0  0  0  0  0  0  0  0
   25.2630   36.4380   10.9780 N   0  0  0  0  0  0  0  0  0  0  0  0
   26.4940   36.6710   11.6230 C   0  0  0  0  0  0  0  0  0  0  0  0
   24.9300   35.4340   10.9860 H   0  0  0  0  0  0  0  0  0  0  0  0
   26.9980   37.8110   11.6840 O   0  0  0  0  0  0  0  0  0  0  0  0
   27.2280   35.6450   12.2350 O   0  0  0  0  0  0  0  0  0  0  0  0
   27.1160   35.4310   13.6500 C   0  0  0  0  0  0  0  0  0  0  0  0
   26.3210   34.2160   13.9240 C   0  0  0  0  0  0  0  0  0  0  0  0
   25.3950   33.6190   13.1280 C   0  0  0  0  0  0  0  0  0  0  0  0
   26.4030   33.4980   15.0490 N   0  0  0  0  0  0  0  0  0  0  0  0
   24.9410   32.5340   13.8210 N   0  0  0  0  0  0  0  0  0  0  0  0
   25.5620   32.4810   14.9760 N   0  0  0  0  0  0  0  0  0  0  0  0
   23.9630   31.6130   13.3790 C   0  0  0  0  0  0  0  0  0  0  0  0
   24.3290   30.2960   13.1630 C   0  0  0  0  0  0  0  0  0  0  0  0
   22.6720   32.0450   13.1730 C   0  0  0  0  0  0  0  0  0  0  0  0
   23.4000   29.4220   12.7430 N   0  0  0  0  0  0  0  0  0  0  0  0
   21.7250   31.1230   12.7380 C   0  0  0  0  0  0  0  0  0  0  0  0
   22.1140   29.8160   12.5300 C   0  0  0  0  0  0  0  0  0  0  0  0
   20.4410   31.5230   12.5260 C   0  0  0  0  0  0  0  0  0  0  0  0
   21.1760   28.9000   12.0980 C   0  0  0  0  0  0  0  0  0  0  0  0
   19.4880   30.6030   12.0900 C   0  0  0  0  0  0  0  0  0  0  0  0
   19.8620   29.2980   11.8790 C   0  0  0  0  0  0  0  0  0  0  0  0
   29.8670   25.5550   16.9770 C   0  0  0  0  0  0  0  0  0  0  0  0
   28.3450   25.7220   17.0260 C   0  0  0  0  0  0  0  0  0  0  0  0
   27.6020   24.3980   16.9290 C   0  0  0  0  0  0  0  0  0  0  0  0
   26.1910   24.5020   17.4380 C   0  0  0  0  0  0  0  0  0  0  0  0
   26.0030   25.8400   18.1470 C   0  0  0  0  0  0  0  0  0  0  0  0
   24.7560   26.4980   17.6900 N   0  0  0  0  0  0  0  0  0  0  0  0
  1 27  1  0  0  0  0
  2  1  1  1  0  0  0
  3 23  1  6  0  0  0
  3  2  1  0  0  0  0
  4  3  1  1  0  0  0
  4  7  1  0  0  0  0
  5  7  1  0  0  0  0
  5 10  1  1  0  0  0
  5 12  1  0  0  0  0
  6  5  1  0  0  0  0
  8 16  1  1  0  0  0
  8  9  1  0  0  0  0
  8  6  1  0  0  0  0
  9 18  1  6  0  0  0
  9  4  1  0  0  0  0
 10 11  1  0  0  0  0
 12 14  1  0  0  0  0
 13 12  2  0  0  0  0
 14 15  1  0  0  0  0
 17 16  1  0  0  0  0
 19 18  1  0  0  0  0
 19 22  2  0  0  0  0
 20 18  1  0  0  0  0
 21 19  1  0  0  0  0
 24 23  1  0  0  0  0
 25  2  1  0  0  0  0
 26 25  1  0  0  0  0
 27 29  1  0  0  0  0
 27 28  1  0  0  0  0
 28 30  2  0  0  0  0
 28 31  1  0  0  0  0
 31 32  1  0  0  0  0
 32 33  1  0  0  0  0
 33 35  1  0  0  0  0
 34 36  1  0  0  0  0
 34 33  2  0  0  0  0
 36 37  1  0  0  0  0
 37 35  2  0  0  0  0
 38 36  1  0  0  0  0
 39 38  1  0  0  0  0
 40 38  2  0  0  0  0
 41 39  2  0  0  0  0
 42 40  1  0  0  0  0
 43 42  1  0  0  0  0
 43 41  1  0  0  0  0
 44 42  2  0  0  0  0
 45 43  2  0  0  0  0
 46 44  1  0  0  0  0
 47 46  2  0  0  0  0
 47 45  1  0  0  0  0
 48 49  1  0  0  0  0
 50 49  1  0  0  0  0
 50 51  1  0  0  0  0
 51 52  1  0  0  0  0
 53 52  1  0  0  0  0
M  END
>  <REMARK>
 VINA RESULT:    -5.830      7.984     13.158
 INTER + INTRA:         -14.623
 INTER:                 -10.684
 INTRA:                  -3.939
 UNBOUND:                -4.533
 SMILES CC(=O)N[C@@H]1[C@@H](O)C[C@](O)(C(=O)O)O[C@H]1C(O)[C@H](O)CNC(=O)OCc1cn(-c2cnc3ccccc3c2)nn1
 SMILES IDX 20 1 18 2 16 3 15 4 9 5 8 6 14 7 6 8 5 9 10 10 11 12 12 13
 SMILES IDX 13 14 7 16 4 18 2 19 1 21 3 22 17 23 19 25 21 27 22 28 23 30
 SMILES IDX 24 31 25 32 26 33 27 34 40 35 28 36 39 37 29 38 30 39 38 40
 SMILES IDX 31 41 37 42 32 43 36 44 33 45 35 46 34 47
 H PARENT 10 11 13 15 7 17 4 20 17 24 19 26 21 29
 Flexibility Score: inf
  4 active torsions:
  status: ('A' for Active; 'I' for Inactive)
    1  A    between atoms: CA   and  CB  
    2  A    between atoms: CB   and  CG  
    3  A    between atoms: CG   and  CD  
    4  A    between atoms: CD   and  CE  

>  <TORSDO>
F 15

>  <BEGIN_>
RES LYS A 131

$$$$
ligand_70_pose_17_2HRL.pdbqt
 OpenBabel07062320523D

  6  5  0  0  0  0  0  0  0  0999 V2000
   33.1930   34.6630    9.2900 C   0  0  0  0  0  0  0  0  0  0  0  0
   32.0600   35.3600   10.0340 C   0  0  0  0  0  0  0  0  0  0  0  0
   32.4940   36.0070   11.3240 C   0  0  0  0  0  0  0  0  0  0  0  0
   31.2960   36.5700   12.0720 C   0  0  0  0  0  0  0  0  0  0  0  0
   31.1070   35.8490   13.3930 C   0  0  0  0  0  0  0  0  0  0  0  0
   30.5390   34.4880   13.1860 N   0  0  0  0  0  0  0  0  0  0  0  0
  1  2  1  0  0  0  0
  2  3  1  0  0  0  0
  3  4  1  0  0  0  0
  4  5  1  0  0  0  0
  6  5  1  0  0  0  0
M  END
>  <EGIN_R>
ES LYS A 135

>  <REMARK>
  4 active torsions:
  status: ('A' for Active; 'I' for Inactive)
    5  A    between atoms: CA   and  CB  
    6  A    between atoms: CB   and  CG  
    7  A    between atoms: CG   and  CD  
    8  A    between atoms: CD   and  CE  

$$$$
