ligand_59_pose_14_2HRL.pdbqt
 OpenBabel07062320523D

 52 53  0  0  1  0  0  0  0  0999 V2000
   16.0860   32.2090    8.2240 N   0  0  0  0  0  0  0  0  0  0  0  0
   16.6510   30.8930    8.1360 C   0  0  0  0  0  0  0  0  0  0  0  0
   17.5290   30.7230    7.2600 O   0  0  0  0  0  0  0  0  0  0  0  0
   15.3700   32.3090    8.9750 H   0  0  0  0  0  0  0  0  0  0  0  0
   16.5230   33.2650    7.3530 C   0  0  0  0  0  0  0  0  0  0  0  0
   17.0350   34.4310    8.1840 C   0  0  2  0  0  0  0  0  0  0  0  0
   18.5300   34.2940    8.2150 C   0  0  2  0  0  0  0  0  0  0  0  0
   19.3060   35.4090    8.8540 C   0  0  2  0  0  0  0  0  0  0  0  0
   21.6110   35.8760    9.0390 C   0  0  2  0  0  0  0  0  0  0  0  0
   21.4760   36.3350   10.4700 C   0  0  0  0  0  0  0  0  0  0  0  0
   20.6130   35.0480    8.6590 O   0  0  0  0  0  0  0  0  0  0  0  0
   20.3820   35.4650   11.0570 C   0  0  1  0  0  0  0  0  0  0  0  0
   19.0660   35.7000   10.2730 C   0  0  1  0  0  0  0  0  0  0  0  0
   22.8500   35.1630    8.9930 O   0  0  0  0  0  0  0  0  0  0  0  0
   23.5910   35.8100    8.8760 H   0  0  0  0  0  0  0  0  0  0  0  0
   21.7590   36.9840    8.0730 C   0  0  0  0  0  0  0  0  0  0  0  0
   21.7290   38.1620    8.4800 O   0  0  0  0  0  0  0  0  0  0  0  0
   21.9330   36.7390    6.7250 O   0  0  0  0  0  0  0  0  0  0  0  0
   21.2220   36.2170    6.2260 H   0  0  0  0  0  0  0  0  0  0  0  0
   20.7200   34.1350   11.0940 O   0  0  0  0  0  0  0  0  0  0  0  0
   21.7110   34.0410   11.0010 H   0  0  0  0  0  0  0  0  0  0  0  0
   18.7050   37.0430   10.5930 N   0  0  0  0  0  0  0  0  0  0  0  0
   17.3950   37.4080   10.9400 C   0  0  0  0  0  0  0  0  0  0  0  0
   19.4360   37.7760   10.5630 H   0  0  0  0  0  0  0  0  0  0  0  0
   17.0200   38.8030   11.2740 C   0  0  0  0  0  0  0  0  0  0  0  0
   16.5080   36.5320   10.9730 O   0  0  0  0  0  0  0  0  0  0  0  0
   18.9790   34.2380    6.8830 O   0  0  0  0  0  0  0  0  0  0  0  0
   19.4850   33.4000    6.7030 H   0  0  0  0  0  0  0  0  0  0  0  0
   16.5100   34.1540    9.4760 O   0  0  0  0  0  0  0  0  0  0  0  0
   16.7930   34.8590   10.0810 H   0  0  0  0  0  0  0  0  0  0  0  0
   16.2750   29.8590    8.9480 O   0  0  0  0  0  0  0  0  0  0  0  0
   16.2780   29.9080   10.3430 C   0  0  0  0  0  0  0  0  0  0  0  0
   17.4190   30.6680   10.9110 C   0  0  0  0  0  0  0  0  0  0  0  0
   18.6400   30.0930   11.2730 C   0  0  0  0  0  0  0  0  0  0  0  0
   17.5600   31.9560   11.1970 N   0  0  0  0  0  0  0  0  0  0  0  0
   19.4410   31.0440   11.7520 N   0  0  0  0  0  0  0  0  0  0  0  0
   18.7760   32.1730   11.7020 N   0  0  0  0  0  0  0  0  0  0  0  0
   20.7780   30.8580   12.2390 C   0  0  0  0  0  0  0  0  0  0  0  0
   21.3830   29.6200   12.3150 C   0  0  0  0  0  0  0  0  0  0  0  0
   21.4910   31.9160   12.6550 N   0  0  0  0  0  0  0  0  0  0  0  0
   22.6540   29.4330   12.7900 C   0  0  0  0  0  0  0  0  0  0  0  0
   22.7390   31.7830   13.1270 C   0  0  0  0  0  0  0  0  0  0  0  0
   23.3620   30.5420   13.2100 C   0  0  0  0  0  0  0  0  0  0  0  0
   24.7520   30.4520   13.7420 C   0  0  0  0  0  0  0  0  0  0  0  0
   24.7190   29.8370   14.9870 O   0  0  0  0  0  0  0  0  0  0  0  0
   23.9750   29.1820   15.0200 H   0  0  0  0  0  0  0  0  0  0  0  0
   29.8670   25.5550   16.9770 C   0  0  0  0  0  0  0  0  0  0  0  0
   28.3450   25.7220   17.0260 C   0  0  0  0  0  0  0  0  0  0  0  0
   27.6010   24.4060   16.8570 C   0  0  0  0  0  0  0  0  0  0  0  0
   26.1540   24.5190   17.2520 C   0  0  0  0  0  0  0  0  0  0  0  0
   25.7870   23.3610   18.1740 C   0  0  0  0  0  0  0  0  0  0  0  0
   24.7700   22.4920   17.5350 N   0  0  0  0  0  0  0  0  0  0  0  0
  1  4  1  0  0  0  0
  2  1  1  0  0  0  0
  2 31  1  0  0  0  0
  3  2  2  0  0  0  0
  5  1  1  0  0  0  0
  6  5  1  6  0  0  0
  6  7  1  0  0  0  0
  6 29  1  0  0  0  0
  7 27  1  6  0  0  0
  8  7  1  1  0  0  0
  8 13  1  0  0  0  0
  9 16  1  6  0  0  0
  9 10  1  0  0  0  0
 10 12  1  0  0  0  0
 11  8  1  0  0  0  0
 11  9  1  0  0  0  0
 12 20  1  6  0  0  0
 13 22  1  6  0  0  0
 13 12  1  0  0  0  0
 14  9  1  0  0  0  0
 15 14  1  0  0  0  0
 16 17  2  0  0  0  0
 18 16  1  0  0  0  0
 19 18  1  0  0  0  0
 21 20  1  0  0  0  0
 22 23  1  0  0  0  0
 23 26  2  0  0  0  0
 23 25  1  0  0  0  0
 24 22  1  0  0  0  0
 28 27  1  0  0  0  0
 29 30  1  0  0  0  0
 31 32  1  0  0  0  0
 32 33  1  0  0  0  0
 33 35  1  0  0  0  0
 33 34  2  0  0  0  0
 34 36  1  0  0  0  0
 35 37  2  0  0  0  0
 36 38  1  0  0  0  0
 37 36  1  0  0  0  0
 38 39  2  0  0  0  0
 38 40  1  0  0  0  0
 39 41  1  0  0  0  0
 40 42  2  0  0  0  0
 41 43  2  0  0  0  0
 42 43  1  0  0  0  0
 43 44  1  0  0  0  0
 44 45  1  0  0  0  0
 45 46  1  0  0  0  0
 47 48  1  0  0  0  0
 49 48  1  0  0  0  0
 49 50  1  0  0  0  0
 50 51  1  0  0  0  0
 52 51  1  0  0  0  0
M  END
>  <REMARK>
 VINA RESULT:    -4.856      9.158     13.462
 INTER + INTRA:         -14.566
 INTER:                  -8.393
 INTRA:                  -6.172
 UNBOUND:                -5.735
 SMILES CC(=O)N[C@@H]1[C@@H](O)C[C@](O)(C(=O)O)O[C@H]1C(O)[C@H](O)CNC(=O)OCc1cn(-c2ccc(CO)cn2)nn1
 SMILES IDX 21 1 22 2 23 3 20 5 18 6 16 7 15 8 9 9 8 10 14 11 6 12 5 13
 SMILES IDX 10 14 11 16 12 17 13 18 7 20 4 22 2 23 1 25 3 26 17 27 19 29
 SMILES IDX 24 31 25 32 26 33 27 34 38 35 28 36 37 37 29 38 30 39 36 40
 SMILES IDX 31 41 35 42 32 43 33 44 34 45
 H PARENT 21 4 10 15 13 19 7 21 4 24 17 28 19 30 34 46
 Flexibility Score: inf
  4 active torsions:
  status: ('A' for Active; 'I' for Inactive)
    1  A    between atoms: CA   and  CB  
    2  A    between atoms: CB   and  CG  
    3  A    between atoms: CG   and  CD  
    4  A    between atoms: CD   and  CE  

>  <TORSDO>
F 17

>  <BEGIN_>
RES LYS A 131

$$$$
ligand_59_pose_14_2HRL.pdbqt
 OpenBabel07062320523D

  6  5  0  0  0  0  0  0  0  0999 V2000
   33.1930   34.6630    9.2900 C   0  0  0  0  0  0  0  0  0  0  0  0
   32.0600   35.3600   10.0340 C   0  0  0  0  0  0  0  0  0  0  0  0
   30.7810   35.4440    9.2420 C   0  0  0  0  0  0  0  0  0  0  0  0
   30.2040   34.0570    9.0050 C   0  0  0  0  0  0  0  0  0  0  0  0
   28.6940   34.0760    9.1530 C   0  0  0  0  0  0  0  0  0  0  0  0
   28.0540   34.8190    8.0330 N   0  0  0  0  0  0  0  0  0  0  0  0
  1  2  1  0  0  0  0
  3  2  1  0  0  0  0
  4  5  1  0  0  0  0
  4  3  1  0  0  0  0
  6  5  1  0  0  0  0
M  END
>  <EGIN_R>
ES LYS A 135

>  <REMARK>
  4 active torsions:
  status: ('A' for Active; 'I' for Inactive)
    5  A    between atoms: CA   and  CB  
    6  A    between atoms: CB   and  CG  
    7  A    between atoms: CG   and  CD  
    8  A    between atoms: CD   and  CE  

$$$$
