ligand_46_pose_7_2HRL.pdbqt
 OpenBabel07062320523D

 50 51  0  0  1  0  0  0  0  0999 V2000
   29.3670   27.0050   20.2880 N   0  0  0  0  0  0  0  0  0  0  0  0
   28.0070   27.3580   20.3970 C   0  0  0  0  0  0  0  0  0  0  0  0
   27.4900   27.6840   21.4780 O   0  0  0  0  0  0  0  0  0  0  0  0
   29.6920   26.7510   19.3180 H   0  0  0  0  0  0  0  0  0  0  0  0
   30.2630   26.9830   21.4020 C   0  0  0  0  0  0  0  0  0  0  0  0
   31.5470   27.6940   21.0390 C   0  0  2  0  0  0  0  0  0  0  0  0
   31.3230   29.1660   20.8380 C   0  0  2  0  0  0  0  0  0  0  0  0
   32.5360   30.0080   21.1580 C   0  0  2  0  0  0  0  0  0  0  0  0
   34.1490   29.9070   22.8460 C   0  0  2  0  0  0  0  0  0  0  0  0
   34.5350   31.3220   22.3850 C   0  0  0  0  0  0  0  0  0  0  0  0
   33.5220   29.3150   21.7900 O   0  0  0  0  0  0  0  0  0  0  0  0
   33.2130   32.0840   22.4300 C   0  0  1  0  0  0  0  0  0  0  0  0
   32.1070   31.3000   21.7600 C   0  0  1  0  0  0  0  0  0  0  0  0
   33.4260   29.9610   24.0190 O   0  0  0  0  0  0  0  0  0  0  0  0
   33.8400   29.3560   24.6700 H   0  0  0  0  0  0  0  0  0  0  0  0
   35.4450   29.1700   23.0610 C   0  0  0  0  0  0  0  0  0  0  0  0
   35.4690   27.9510   23.3270 O   0  0  0  0  0  0  0  0  0  0  0  0
   36.6480   29.8440   22.9680 O   0  0  0  0  0  0  0  0  0  0  0  0
   36.9460   30.1770   22.0660 H   0  0  0  0  0  0  0  0  0  0  0  0
   32.9460   32.2990   23.7820 O   0  0  0  0  0  0  0  0  0  0  0  0
   32.6600   33.2300   23.9100 H   0  0  0  0  0  0  0  0  0  0  0  0
   31.5310   32.1050   20.6670 N   0  0  0  0  0  0  0  0  0  0  0  0
   30.2980   32.7900   20.7920 C   0  0  0  0  0  0  0  0  0  0  0  0
   32.0550   32.1780   19.7480 H   0  0  0  0  0  0  0  0  0  0  0  0
   29.6790   33.6100   19.7220 C   0  0  0  0  0  0  0  0  0  0  0  0
   29.6820   32.7000   21.8840 O   0  0  0  0  0  0  0  0  0  0  0  0
   30.2010   29.5570   21.5410 O   0  0  0  0  0  0  0  0  0  0  0  0
   30.0920   30.5320   21.4360 H   0  0  0  0  0  0  0  0  0  0  0  0
   32.0130   27.0650   19.8840 O   0  0  0  0  0  0  0  0  0  0  0  0
   31.3190   26.9640   19.1960 H   0  0  0  0  0  0  0  0  0  0  0  0
   27.1830   27.3550   19.2730 O   0  0  0  0  0  0  0  0  0  0  0  0
   26.6140   28.5610   18.8250 C   0  0  0  0  0  0  0  0  0  0  0  0
   27.6210   29.4340   18.1730 C   0  0  0  0  0  0  0  0  0  0  0  0
   27.7100   29.7030   16.8340 C   0  0  0  0  0  0  0  0  0  0  0  0
   28.6090   30.0970   18.7810 N   0  0  0  0  0  0  0  0  0  0  0  0
   28.7560   30.5290   16.6630 N   0  0  0  0  0  0  0  0  0  0  0  0
   29.2860   30.7520   17.8700 N   0  0  0  0  0  0  0  0  0  0  0  0
   29.2650   31.1020   15.4420 C   0  0  0  0  0  0  0  0  0  0  0  0
   29.9240   32.4110   15.6980 C   0  0  0  0  0  0  0  0  0  0  0  0
   31.3080   32.5290   15.7210 C   0  0  0  0  0  0  0  0  0  0  0  0
   29.2020   33.5570   15.9210 C   0  0  0  0  0  0  0  0  0  0  0  0
   31.9100   33.7400   15.9580 C   0  0  0  0  0  0  0  0  0  0  0  0
   29.7990   34.7820   16.1600 C   0  0  0  0  0  0  0  0  0  0  0  0
   31.1710   34.8830   16.1800 C   0  0  0  0  0  0  0  0  0  0  0  0
   29.8670   25.5550   16.9770 C   0  0  0  0  0  0  0  0  0  0  0  0
   28.3450   25.7220   17.0260 C   0  0  0  0  0  0  0  0  0  0  0  0
   27.5990   24.4420   16.6820 C   0  0  0  0  0  0  0  0  0  0  0  0
   27.0140   23.7830   17.9010 C   0  0  0  0  0  0  0  0  0  0  0  0
   25.6090   23.2820   17.5840 C   0  0  0  0  0  0  0  0  0  0  0  0
   24.7840   24.3750   17.0160 N   0  0  0  0  0  0  0  0  0  0  0  0
  1  2  1  0  0  0  0
  1  5  1  0  0  0  0
  2  3  2  0  0  0  0
  4  1  1  0  0  0  0
  6  5  1  6  0  0  0
  7  6  1  0  0  0  0
  7 27  1  1  0  0  0
  8  7  1  1  0  0  0
  8 13  1  0  0  0  0
  8 11  1  0  0  0  0
  9 16  1  1  0  0  0
  9 14  1  0  0  0  0
 10 12  1  0  0  0  0
 10  9  1  0  0  0  0
 11  9  1  0  0  0  0
 12 20  1  1  0  0  0
 13 22  1  6  0  0  0
 13 12  1  0  0  0  0
 14 15  1  0  0  0  0
 16 17  2  0  0  0  0
 18 16  1  0  0  0  0
 19 18  1  0  0  0  0
 20 21  1  0  0  0  0
 22 23  1  0  0  0  0
 23 26  2  0  0  0  0
 24 22  1  0  0  0  0
 25 23  1  0  0  0  0
 28 27  1  0  0  0  0
 29  6  1  0  0  0  0
 30 29  1  0  0  0  0
 31  2  1  0  0  0  0
 32 31  1  0  0  0  0
 33 35  1  0  0  0  0
 33 32  1  0  0  0  0
 34 33  2  0  0  0  0
 36 34  1  0  0  0  0
 36 37  1  0  0  0  0
 37 35  2  0  0  0  0
 38 39  1  0  0  0  0
 38 36  1  0  0  0  0
 39 40  2  0  0  0  0
 39 41  1  0  0  0  0
 40 42  1  0  0  0  0
 41 43  2  0  0  0  0
 42 44  2  0  0  0  0
 43 44  1  0  0  0  0
 45 46  1  0  0  0  0
 47 46  1  0  0  0  0
 47 48  1  0  0  0  0
 49 48  1  0  0  0  0
 50 49  1  0  0  0  0
M  END
>  <REMARK>
 VINA RESULT:    -5.400      9.536     15.345
 INTER + INTRA:         -14.951
 INTER:                  -8.691
 INTRA:                  -6.261
 UNBOUND:                -5.290
 SMILES CC(=O)N[C@@H]1[C@@H](O)C[C@](O)(C(=O)O)O[C@H]1C(O)[C@H](O)CNC(=O)OCc1cn(Cc2ccccc2)nn1
 SMILES IDX 21 1 22 2 23 3 20 5 18 6 16 7 15 8 9 9 8 10 14 11 6 12 5 13
 SMILES IDX 10 14 11 16 12 17 13 18 7 20 4 22 2 23 1 25 3 26 17 27 19 29
 SMILES IDX 24 31 25 32 26 33 27 34 37 35 28 36 36 37 29 38 30 39 31 40
 SMILES IDX 35 41 32 42 34 43 33 44
 H PARENT 21 4 10 15 13 19 7 21 4 24 17 28 19 30
 Flexibility Score: inf
  4 active torsions:
  status: ('A' for Active; 'I' for Inactive)
    1  A    between atoms: CA   and  CB  
    2  A    between atoms: CB   and  CG  
    3  A    between atoms: CG   and  CD  
    4  A    between atoms: CD   and  CE  

>  <TORSDO>
F 16

>  <BEGIN_>
RES LYS A 131

$$$$
ligand_46_pose_7_2HRL.pdbqt
 OpenBabel07062320523D

  6  5  0  0  0  0  0  0  0  0999 V2000
   33.1930   34.6630    9.2900 C   0  0  0  0  0  0  0  0  0  0  0  0
   32.0600   35.3600   10.0340 C   0  0  0  0  0  0  0  0  0  0  0  0
   30.7170   34.7070    9.8340 C   0  0  0  0  0  0  0  0  0  0  0  0
   30.4430   34.4830    8.3550 C   0  0  0  0  0  0  0  0  0  0  0  0
   28.9940   34.7890    8.0290 C   0  0  0  0  0  0  0  0  0  0  0  0
   28.0750   34.1230    8.9930 N   0  0  0  0  0  0  0  0  0  0  0  0
  1  2  1  0  0  0  0
  3  2  1  0  0  0  0
  4  3  1  0  0  0  0
  5  4  1  0  0  0  0
  5  6  1  0  0  0  0
M  END
>  <EGIN_R>
ES LYS A 135

>  <REMARK>
  4 active torsions:
  status: ('A' for Active; 'I' for Inactive)
    5  A    between atoms: CA   and  CB  
    6  A    between atoms: CB   and  CG  
    7  A    between atoms: CG   and  CD  
    8  A    between atoms: CD   and  CE  

$$$$
