ligand_16_pose_8_2HRL.pdbqt
 OpenBabel07062320523D

 54 55  0  0  1  0  0  0  0  0999 V2000
   26.0900   36.0700   11.8580 N   0  0  0  0  0  0  0  0  0  0  0  0
   26.0090   36.7710   13.0730 C   0  0  0  0  0  0  0  0  0  0  0  0
   24.9300   37.2730   13.4280 O   0  0  0  0  0  0  0  0  0  0  0  0
   27.0520   35.6740   11.6260 H   0  0  0  0  0  0  0  0  0  0  0  0
   24.9780   35.8760   10.9660 C   0  0  0  0  0  0  0  0  0  0  0  0
   25.3640   36.3130    9.5780 C   0  0  2  0  0  0  0  0  0  0  0  0
   26.2420   37.5230    9.5410 C   0  0  1  0  0  0  0  0  0  0  0  0
   26.6460   37.8450    8.0900 C   0  0  2  0  0  0  0  0  0  0  0  0
   28.5680   38.1690    6.8460 C   0  0  2  0  0  0  0  0  0  0  0  0
   28.3370   39.6630    6.6710 C   0  0  0  0  0  0  0  0  0  0  0  0
   28.0240   37.8230    8.0590 O   0  0  0  0  0  0  0  0  0  0  0  0
   26.8770   39.9750    6.7410 C   0  0  1  0  0  0  0  0  0  0  0  0
   26.1400   39.2130    7.8080 C   0  0  1  0  0  0  0  0  0  0  0  0
   29.9820   38.0560    6.9760 O   0  0  0  0  0  0  0  0  0  0  0  0
   30.1670   37.3060    7.6240 H   0  0  0  0  0  0  0  0  0  0  0  0
   28.1120   37.4020    5.6830 C   0  0  0  0  0  0  0  0  0  0  0  0
   28.0080   37.9950    4.5560 O   0  0  0  0  0  0  0  0  0  0  0  0
   27.7690   36.0650    5.6620 O   0  0  0  0  0  0  0  0  0  0  0  0
   27.0030   35.7770    6.2550 H   0  0  0  0  0  0  0  0  0  0  0  0
   26.7710   41.3470    7.0700 O   0  0  0  0  0  0  0  0  0  0  0  0
   27.6260   41.5850    7.5060 H   0  0  0  0  0  0  0  0  0  0  0  0
   24.7190   39.2550    7.5310 N   0  0  0  0  0  0  0  0  0  0  0  0
   23.8600   40.1990    8.1470 C   0  0  0  0  0  0  0  0  0  0  0  0
   24.2830   38.5850    6.8620 H   0  0  0  0  0  0  0  0  0  0  0  0
   22.3840   40.2250    7.8440 C   0  0  0  0  0  0  0  0  0  0  0  0
   24.3480   41.0170    8.9500 O   0  0  0  0  0  0  0  0  0  0  0  0
   25.7360   38.6270   10.1820 O   0  0  0  0  0  0  0  0  0  0  0  0
   25.4100   38.3750   11.0840 H   0  0  0  0  0  0  0  0  0  0  0  0
   24.2480   36.5120    8.7540 O   0  0  0  0  0  0  0  0  0  0  0  0
   24.5080   36.3290    7.8070 H   0  0  0  0  0  0  0  0  0  0  0  0
   27.0900   36.9440   13.9280 O   0  0  0  0  0  0  0  0  0  0  0  0
   28.3500   37.4160   13.5160 C   0  0  0  0  0  0  0  0  0  0  0  0
   29.3090   36.2940   13.4460 C   0  0  0  0  0  0  0  0  0  0  0  0
   30.3260   36.0400   14.3670 C   0  0  0  0  0  0  0  0  0  0  0  0
   29.4310   35.3110   12.5320 N   0  0  0  0  0  0  0  0  0  0  0  0
   30.9970   34.9480   13.9810 N   0  0  0  0  0  0  0  0  0  0  0  0
   30.4380   34.5270   12.8720 N   0  0  0  0  0  0  0  0  0  0  0  0
   32.1490   34.3440   14.6650 C   0  0  0  0  0  0  0  0  0  0  0  0
   31.5630   33.4710   15.7330 C   0  0  0  0  0  0  0  0  0  0  0  0
   31.0870   32.2330   15.4020 C   0  0  0  0  0  0  0  0  0  0  0  0
   31.4870   33.8840   17.0400 C   0  0  0  0  0  0  0  0  0  0  0  0
   30.5300   31.3970   16.3740 C   0  0  0  0  0  0  0  0  0  0  0  0
   30.9330   33.0530   18.0080 C   0  0  0  0  0  0  0  0  0  0  0  0
   30.4480   31.8010   17.6850 C   0  0  0  0  0  0  0  0  0  0  0  0
   29.8730   30.9380   18.7080 C   0  0  0  0  0  0  0  0  0  0  0  0
   28.6730   30.9970   19.0540 O   0  0  0  0  0  0  0  0  0  0  0  0
   30.6820   29.9980   19.3380 O   0  0  0  0  0  0  0  0  0  0  0  0
   30.3110   29.1230   19.6630 H   0  0  0  0  0  0  0  0  0  0  0  0
   29.8670   25.5550   16.9770 C   0  0  0  0  0  0  0  0  0  0  0  0
   28.3450   25.7220   17.0260 C   0  0  0  0  0  0  0  0  0  0  0  0
   27.6030   24.3960   16.9620 C   0  0  0  0  0  0  0  0  0  0  0  0
   26.1700   24.5270   17.4000 C   0  0  0  0  0  0  0  0  0  0  0  0
   25.5330   23.1430   17.4770 C   0  0  0  0  0  0  0  0  0  0  0  0
   24.1220   23.1960   17.0260 N   0  0  0  0  0  0  0  0  0  0  0  0
  1  2  1  0  0  0  0
  2  3  2  0  0  0  0
  2 31  1  0  0  0  0
  4  1  1  0  0  0  0
  5  1  1  0  0  0  0
  6  5  1  1  0  0  0
  7  6  1  0  0  0  0
  7 27  1  6  0  0  0
  8  7  1  1  0  0  0
  9 16  1  6  0  0  0
  9 14  1  0  0  0  0
  9 11  1  0  0  0  0
 10 12  1  0  0  0  0
 10  9  1  0  0  0  0
 11  8  1  0  0  0  0
 12 20  1  1  0  0  0
 12 13  1  0  0  0  0
 13 22  1  6  0  0  0
 13  8  1  0  0  0  0
 14 15  1  0  0  0  0
 17 16  2  0  0  0  0
 18 16  1  0  0  0  0
 18 19  1  0  0  0  0
 20 21  1  0  0  0  0
 22 23  1  0  0  0  0
 23 26  2  0  0  0  0
 24 22  1  0  0  0  0
 25 23  1  0  0  0  0
 27 28  1  0  0  0  0
 29  6  1  0  0  0  0
 30 29  1  0  0  0  0
 32 31  1  0  0  0  0
 33 32  1  0  0  0  0
 33 34  2  0  0  0  0
 35 37  2  0  0  0  0
 35 33  1  0  0  0  0
 36 34  1  0  0  0  0
 36 38  1  0  0  0  0
 37 36  1  0  0  0  0
 38 39  1  0  0  0  0
 39 41  1  0  0  0  0
 40 39  2  0  0  0  0
 40 42  1  0  0  0  0
 41 43  2  0  0  0  0
 42 44  2  0  0  0  0
 44 43  1  0  0  0  0
 44 45  1  0  0  0  0
 45 46  2  0  0  0  0
 45 47  1  0  0  0  0
 47 48  1  0  0  0  0
 49 50  1  0  0  0  0
 51 50  1  0  0  0  0
 51 52  1  0  0  0  0
 52 53  1  0  0  0  0
 54 53  1  0  0  0  0
M  END
>  <REMARK>
 VINA RESULT:    -5.966      4.815     12.318
 INTER + INTRA:         -15.191
 INTER:                  -9.719
 INTRA:                  -5.472
 UNBOUND:                -3.993
 SMILES CC(=O)N[C@@H]1[C@@H](O)C[C@](O)(C(=O)O)O[C@H]1C(O)[C@H](O)CNC(=O)OCc1cn(Cc2ccc(C(=O)O)cc2)nn1
 SMILES IDX 21 1 22 2 23 3 20 5 18 6 16 7 15 8 9 9 8 10 14 11 6 12 5 13
 SMILES IDX 10 14 11 16 12 17 13 18 7 20 4 22 2 23 1 25 3 26 17 27 19 29
 SMILES IDX 24 31 25 32 26 33 27 34 40 35 28 36 39 37 29 38 30 39 31 40
 SMILES IDX 38 41 32 42 37 43 33 44 34 45 35 46 36 47
 H PARENT 21 4 10 15 13 19 7 21 4 24 17 28 19 30 36 48
 Flexibility Score: inf
  4 active torsions:
  status: ('A' for Active; 'I' for Inactive)
    1  A    between atoms: CA   and  CB  
    2  A    between atoms: CB   and  CG  
    3  A    between atoms: CG   and  CD  
    4  A    between atoms: CD   and  CE  

>  <TORSDO>
F 18

>  <BEGIN_>
RES LYS A 131

$$$$
ligand_16_pose_8_2HRL.pdbqt
 OpenBabel07062320523D

  6  5  0  0  0  0  0  0  0  0999 V2000
   33.1930   34.6630    9.2900 C   0  0  0  0  0  0  0  0  0  0  0  0
   32.0600   35.3600   10.0340 C   0  0  0  0  0  0  0  0  0  0  0  0
   30.8030   35.5080    9.2160 C   0  0  0  0  0  0  0  0  0  0  0  0
   30.1420   34.1560    8.9980 C   0  0  0  0  0  0  0  0  0  0  0  0
   28.6750   34.3290    8.6550 C   0  0  0  0  0  0  0  0  0  0  0  0
   27.8060   33.6430    9.6500 N   0  0  0  0  0  0  0  0  0  0  0  0
  1  2  1  0  0  0  0
  3  2  1  0  0  0  0
  4  3  1  0  0  0  0
  5  4  1  0  0  0  0
  5  6  1  0  0  0  0
M  END
>  <EGIN_R>
ES LYS A 135

>  <REMARK>
  4 active torsions:
  status: ('A' for Active; 'I' for Inactive)
    5  A    between atoms: CA   and  CB  
    6  A    between atoms: CB   and  CG  
    7  A    between atoms: CG   and  CD  
    8  A    between atoms: CD   and  CE  

$$$$
