ligand_61_pose_14_2HRL.pdbqt
 OpenBabel07062320523D

 49 50  0  0  1  0  0  0  0  0999 V2000
   26.7530   35.1330   11.6240 N   0  0  0  0  0  0  0  0  0  0  0  0
   27.3990   36.0520   12.4830 C   0  0  0  0  0  0  0  0  0  0  0  0
   26.7900   36.4750   13.4930 O   0  0  0  0  0  0  0  0  0  0  0  0
   27.3210   34.8060   10.7810 H   0  0  0  0  0  0  0  0  0  0  0  0
   25.4110   34.6300   11.8190 C   0  0  0  0  0  0  0  0  0  0  0  0
   24.4920   35.3100   10.8570 C   0  0  2  0  0  0  0  0  0  0  0  0
   25.2010   36.0320    9.7310 C   0  0  2  0  0  0  0  0  0  0  0  0
   24.2560   36.9980    9.1000 C   0  0  2  0  0  0  0  0  0  0  0  0
   22.4310   37.1930    7.6940 C   0  0  2  0  0  0  0  0  0  0  0  0
   22.6760   38.6700    7.8940 C   0  0  0  0  0  0  0  0  0  0  0  0
   23.1070   36.4100    8.6090 O   0  0  0  0  0  0  0  0  0  0  0  0
   24.1180   39.0460    7.8050 C   0  0  1  0  0  0  0  0  0  0  0  0
   24.9540   37.7980    7.9910 C   0  0  1  0  0  0  0  0  0  0  0  0
   22.6530   36.8030    6.3720 O   0  0  0  0  0  0  0  0  0  0  0  0
   23.5140   36.3320    6.3040 H   0  0  0  0  0  0  0  0  0  0  0  0
   20.9620   36.9770    7.9540 C   0  0  0  0  0  0  0  0  0  0  0  0
   20.3190   37.6290    8.7860 O   0  0  0  0  0  0  0  0  0  0  0  0
   20.2890   35.9970    7.2260 O   0  0  0  0  0  0  0  0  0  0  0  0
   20.7610   35.2280    6.7670 H   0  0  0  0  0  0  0  0  0  0  0  0
   24.4490   39.7430    6.6640 O   0  0  0  0  0  0  0  0  0  0  0  0
   23.6380   39.9480    6.1030 H   0  0  0  0  0  0  0  0  0  0  0  0
   26.3110   38.0880    8.3730 N   0  0  0  0  0  0  0  0  0  0  0  0
   27.3460   38.1890    7.3890 C   0  0  0  0  0  0  0  0  0  0  0  0
   26.5910   38.2330    9.3680 H   0  0  0  0  0  0  0  0  0  0  0  0
   28.7480   38.4800    7.6980 C   0  0  0  0  0  0  0  0  0  0  0  0
   27.0270   38.0160    6.1650 O   0  0  0  0  0  0  0  0  0  0  0  0
   25.5720   35.0520    8.8080 O   0  0  0  0  0  0  0  0  0  0  0  0
   25.1660   34.1880    9.0640 H   0  0  0  0  0  0  0  0  0  0  0  0
   23.7880   36.2920   11.5720 O   0  0  0  0  0  0  0  0  0  0  0  0
   23.3780   35.9430   12.3930 H   0  0  0  0  0  0  0  0  0  0  0  0
   28.7110   36.4750   12.1890 O   0  0  0  0  0  0  0  0  0  0  0  0
   29.2530   37.4300   13.0910 C   0  0  0  0  0  0  0  0  0  0  0  0
   30.4360   36.8350   13.7280 C   0  0  0  0  0  0  0  0  0  0  0  0
   30.7040   35.4930   13.9420 C   0  0  0  0  0  0  0  0  0  0  0  0
   31.4920   37.5150   14.2260 N   0  0  0  0  0  0  0  0  0  0  0  0
   31.8960   35.4360   14.5520 N   0  0  0  0  0  0  0  0  0  0  0  0
   32.3770   36.6530   14.7260 N   0  0  0  0  0  0  0  0  0  0  0  0
   32.5580   34.2280   14.9590 C   0  0  0  0  0  0  0  0  0  0  0  0
   31.7320   33.4940   16.0150 C   0  0  0  0  0  0  0  0  0  0  0  0
   31.5620   33.9820   17.2380 C   0  0  0  0  0  0  0  0  0  0  0  0
   31.1580   32.2940   15.6620 C   0  0  0  0  0  0  0  0  0  0  0  0
   30.8130   33.2910   18.1510 C   0  0  0  0  0  0  0  0  0  0  0  0
   30.3060   31.8340   17.2140 S   0  0  0  0  0  0  0  0  0  0  0  0
   29.8670   25.5550   16.9770 C   0  0  0  0  0  0  0  0  0  0  0  0
   28.3450   25.7220   17.0260 C   0  0  0  0  0  0  0  0  0  0  0  0
   27.6010   24.4030   16.8840 C   0  0  0  0  0  0  0  0  0  0  0  0
   26.1540   24.5240   17.2740 C   0  0  0  0  0  0  0  0  0  0  0  0
   25.9630   24.0000   18.6930 C   0  0  0  0  0  0  0  0  0  0  0  0
   24.8590   24.7220   19.3690 N   0  0  0  0  0  0  0  0  0  0  0  0
  1  5  1  0  0  0  0
  1  2  1  0  0  0  0
  2  3  2  0  0  0  0
  4  1  1  0  0  0  0
  6 29  1  0  0  0  0
  6  5  1  1  0  0  0
  7 27  1  6  0  0  0
  7  6  1  0  0  0  0
  8  7  1  6  0  0  0
  9 14  1  6  0  0  0
  9 10  1  0  0  0  0
  9 16  1  0  0  0  0
  9 11  1  0  0  0  0
 11  8  1  0  0  0  0
 12 20  1  6  0  0  0
 12 10  1  0  0  0  0
 12 13  1  0  0  0  0
 13 22  1  1  0  0  0
 13  8  1  0  0  0  0
 15 14  1  0  0  0  0
 16 17  2  0  0  0  0
 18 16  1  0  0  0  0
 19 18  1  0  0  0  0
 21 20  1  0  0  0  0
 22 24  1  0  0  0  0
 23 25  1  0  0  0  0
 23 22  1  0  0  0  0
 26 23  2  0  0  0  0
 27 28  1  0  0  0  0
 29 30  1  0  0  0  0
 31  2  1  0  0  0  0
 31 32  1  0  0  0  0
 32 33  1  0  0  0  0
 33 34  2  0  0  0  0
 33 35  1  0  0  0  0
 34 36  1  0  0  0  0
 35 37  2  0  0  0  0
 36 37  1  0  0  0  0
 36 38  1  0  0  0  0
 38 39  1  0  0  0  0
 39 40  1  0  0  0  0
 40 42  2  0  0  0  0
 41 39  2  0  0  0  0
 41 43  1  0  0  0  0
 43 42  1  0  0  0  0
 44 45  1  0  0  0  0
 46 45  1  0  0  0  0
 46 47  1  0  0  0  0
 47 48  1  0  0  0  0
 48 49  1  0  0  0  0
M  END
>  <REMARK>
 VINA RESULT:    -4.120      2.132      4.052
 INTER + INTRA:         -13.507
 INTER:                  -8.675
 INTRA:                  -4.832
 UNBOUND:                -6.136
 SMILES CC(=O)N[C@@H]1[C@@H](O)C[C@](O)(C(=O)O)O[C@H]1C(O)[C@H](O)CNC(=O)OCc1cn(Cc2ccsc2)nn1
 SMILES IDX 21 1 22 2 23 3 20 5 18 6 16 7 15 8 9 9 8 10 14 11 6 12 5 13
 SMILES IDX 10 14 11 16 12 17 13 18 7 20 4 22 2 23 1 25 3 26 17 27 19 29
 SMILES IDX 24 31 25 32 26 33 27 34 36 35 28 36 35 37 29 38 30 39 31 40
 SMILES IDX 34 41 32 42 33 43
 H PARENT 21 4 10 15 13 19 7 21 4 24 17 28 19 30
 Flexibility Score: inf
  4 active torsions:
  status: ('A' for Active; 'I' for Inactive)
    1  A    between atoms: CA   and  CB  
    2  A    between atoms: CB   and  CG  
    3  A    between atoms: CG   and  CD  
    4  A    between atoms: CD   and  CE  

>  <TORSDO>
F 16

>  <BEGIN_>
RES LYS A 131

$$$$
ligand_61_pose_14_2HRL.pdbqt
 OpenBabel07062320523D

  6  5  0  0  0  0  0  0  0  0999 V2000
   33.1930   34.6630    9.2900 C   0  0  0  0  0  0  0  0  0  0  0  0
   32.0600   35.3600   10.0340 C   0  0  0  0  0  0  0  0  0  0  0  0
   30.8090   35.5240    9.2100 C   0  0  0  0  0  0  0  0  0  0  0  0
   29.8370   34.3850    9.4760 C   0  0  0  0  0  0  0  0  0  0  0  0
   28.7520   34.3530    8.4180 C   0  0  0  0  0  0  0  0  0  0  0  0
   29.2000   35.0290    7.1690 N   0  0  0  0  0  0  0  0  0  0  0  0
  1  2  1  0  0  0  0
  3  4  1  0  0  0  0
  3  2  1  0  0  0  0
  5  4  1  0  0  0  0
  6  5  1  0  0  0  0
M  END
>  <EGIN_R>
ES LYS A 135

>  <REMARK>
  4 active torsions:
  status: ('A' for Active; 'I' for Inactive)
    5  A    between atoms: CA   and  CB  
    6  A    between atoms: CB   and  CG  
    7  A    between atoms: CG   and  CD  
    8  A    between atoms: CD   and  CE  

$$$$
