ligand_47_pose_15_2HRL.pdbqt
 OpenBabel07062320523D

 62 64  0  0  1  0  0  0  0  0999 V2000
   24.1310   33.6580   18.0100 N   0  0  0  0  0  0  0  0  0  0  0  0
   23.7220   33.2910   16.7020 C   0  0  0  0  0  0  0  0  0  0  0  0
   23.3980   32.0910   16.4600 O   0  0  0  0  0  0  0  0  0  0  0  0
   24.3860   34.6820   18.1300 H   0  0  0  0  0  0  0  0  0  0  0  0
   24.2010   32.7280   19.1120 C   0  0  0  0  0  0  0  0  0  0  0  0
   25.5950   32.6700   19.7410 C   0  0  2  0  0  0  0  0  0  0  0  0
   26.4730   31.9710   18.7490 C   0  0  2  0  0  0  0  0  0  0  0  0
   27.4790   31.0520   19.3840 C   0  0  2  0  0  0  0  0  0  0  0  0
   29.7720   30.7240   19.4690 C   0  0  2  0  0  0  0  0  0  0  0  0
   29.4510   29.4770   20.2510 C   0  0  0  0  0  0  0  0  0  0  0  0
   28.7300   31.5990   19.3260 O   0  0  0  0  0  0  0  0  0  0  0  0
   28.2270   28.7760   19.7700 C   0  0  1  0  0  0  0  0  0  0  0  0
   27.4940   29.6710   18.7720 C   0  0  1  0  0  0  0  0  0  0  0  0
   30.2710   30.3270   18.2240 O   0  0  0  0  0  0  0  0  0  0  0  0
   29.7540   30.7440   17.4830 H   0  0  0  0  0  0  0  0  0  0  0  0
   30.8630   31.4210   20.1930 C   0  0  0  0  0  0  0  0  0  0  0  0
   31.4760   30.8180   21.1060 O   0  0  0  0  0  0  0  0  0  0  0  0
   31.2260   32.7160   19.8900 O   0  0  0  0  0  0  0  0  0  0  0  0
   31.5960   33.3270   20.6310 H   0  0  0  0  0  0  0  0  0  0  0  0
   28.4320   27.5080   19.2860 O   0  0  0  0  0  0  0  0  0  0  0  0
   27.9590   27.3760   18.4240 H   0  0  0  0  0  0  0  0  0  0  0  0
   26.1420   29.1730   18.5630 N   0  0  0  0  0  0  0  0  0  0  0  0
   25.6930   28.9750   17.2360 C   0  0  0  0  0  0  0  0  0  0  0  0
   25.5470   28.9780   19.3830 H   0  0  0  0  0  0  0  0  0  0  0  0
   24.3300   28.4700   16.9640 C   0  0  0  0  0  0  0  0  0  0  0  0
   26.4480   29.2250   16.2630 O   0  0  0  0  0  0  0  0  0  0  0  0
   27.0290   32.8770   17.8700 O   0  0  0  0  0  0  0  0  0  0  0  0
   27.4770   33.6420   18.3300 H   0  0  0  0  0  0  0  0  0  0  0  0
   25.4530   31.9090   20.9140 O   0  0  0  0  0  0  0  0  0  0  0  0
   26.1260   31.1710   20.8140 H   0  0  0  0  0  0  0  0  0  0  0  0
   23.6690   34.2160   15.6790 O   0  0  0  0  0  0  0  0  0  0  0  0
   24.5040   34.1000   14.5200 C   0  0  0  0  0  0  0  0  0  0  0  0
   25.9130   34.3970   14.8580 C   0  0  0  0  0  0  0  0  0  0  0  0
   27.0230   34.0610   14.0660 C   0  0  0  0  0  0  0  0  0  0  0  0
   26.4420   35.0120   15.9210 N   0  0  0  0  0  0  0  0  0  0  0  0
   28.1460   34.4710   14.6540 N   0  0  0  0  0  0  0  0  0  0  0  0
   27.7580   35.0610   15.8080 N   0  0  0  0  0  0  0  0  0  0  0  0
   29.5320   34.4090   14.2860 C   0  0  0  0  0  0  0  0  0  0  0  0
   30.5230   34.4870   15.3980 C   0  0  1  0  0  0  0  0  0  0  0  0
   30.6180   33.2190   16.1210 C   0  0  0  0  0  0  0  0  0  0  0  0
   31.3820   32.2770   15.8500 O   0  0  0  0  0  0  0  0  0  0  0  0
   29.7840   32.9960   17.2380 O   0  0  0  0  0  0  0  0  0  0  0  0
   29.7880   33.6820   17.9970 H   0  0  0  0  0  0  0  0  0  0  0  0
   31.8780   34.9780   14.9180 C   0  0  0  0  0  0  0  0  0  0  0  0
   32.7220   35.4370   16.0460 C   0  0  0  0  0  0  0  0  0  0  0  0
   34.0950   35.6570   15.8850 C   0  0  0  0  0  0  0  0  0  0  0  0
   32.2020   35.6700   17.3040 C   0  0  0  0  0  0  0  0  0  0  0  0
   34.8810   36.0840   16.9330 C   0  0  0  0  0  0  0  0  0  0  0  0
   32.9690   36.0950   18.3570 C   0  0  0  0  0  0  0  0  0  0  0  0
   34.3140   36.3070   18.1880 C   0  0  0  0  0  0  0  0  0  0  0  0
   31.8000   36.0520   13.9220 C   0  0  0  0  0  0  0  0  0  0  0  0
   32.4540   35.8520   12.7000 C   0  0  0  0  0  0  0  0  0  0  0  0
   31.1240   37.2370   14.1210 C   0  0  0  0  0  0  0  0  0  0  0  0
   32.4020   36.8350   11.7400 C   0  0  0  0  0  0  0  0  0  0  0  0
   31.0720   38.2230   13.1610 C   0  0  0  0  0  0  0  0  0  0  0  0
   31.7180   38.0330   11.9440 C   0  0  0  0  0  0  0  0  0  0  0  0
   29.8670   25.5550   16.9770 C   0  0  0  0  0  0  0  0  0  0  0  0
   28.3450   25.7220   17.0260 C   0  0  0  0  0  0  0  0  0  0  0  0
   27.6010   24.4000   16.9070 C   0  0  0  0  0  0  0  0  0  0  0  0
   26.7410   24.1250   18.1090 C   0  0  0  0  0  0  0  0  0  0  0  0
   25.6880   25.2200   18.2430 C   0  0  0  0  0  0  0  0  0  0  0  0
   25.4990   25.5870   19.6660 N   0  0  0  0  0  0  0  0  0  0  0  0
  1  4  1  0  0  0  0
  1  5  1  0  0  0  0
  2  1  1  0  0  0  0
  3  2  2  0  0  0  0
  6  5  1  6  0  0  0
  6 29  1  0  0  0  0
  7 27  1  1  0  0  0
  7  6  1  0  0  0  0
  8  7  1  6  0  0  0
  9 14  1  6  0  0  0
  9 16  1  0  0  0  0
  9 10  1  0  0  0  0
 11  8  1  0  0  0  0
 11  9  1  0  0  0  0
 12 20  1  6  0  0  0
 12 10  1  0  0  0  0
 13 22  1  1  0  0  0
 13  8  1  0  0  0  0
 13 12  1  0  0  0  0
 15 14  1  0  0  0  0
 16 17  2  0  0  0  0
 18 16  1  0  0  0  0
 18 19  1  0  0  0  0
 21 20  1  0  0  0  0
 22 24  1  0  0  0  0
 23 22  1  0  0  0  0
 25 23  1  0  0  0  0
 26 23  2  0  0  0  0
 27 28  1  0  0  0  0
 30 29  1  0  0  0  0
 31  2  1  0  0  0  0
 32 33  1  0  0  0  0
 32 31  1  0  0  0  0
 33 35  1  0  0  0  0
 34 36  1  0  0  0  0
 34 33  2  0  0  0  0
 36 37  1  0  0  0  0
 37 35  2  0  0  0  0
 38 36  1  0  0  0  0
 39 38  1  6  0  0  0
 39 40  1  0  0  0  0
 40 42  1  0  0  0  0
 41 40  2  0  0  0  0
 42 43  1  0  0  0  0
 44 39  1  0  0  0  0
 44 45  1  0  0  0  0
 45 47  1  0  0  0  0
 46 45  2  0  0  0  0
 46 48  1  0  0  0  0
 47 49  2  0  0  0  0
 48 50  2  0  0  0  0
 50 49  1  0  0  0  0
 51 53  1  0  0  0  0
 51 44  1  0  0  0  0
 52 51  2  0  0  0  0
 54 56  2  0  0  0  0
 54 52  1  0  0  0  0
 55 53  2  0  0  0  0
 56 55  1  0  0  0  0
 57 58  1  0  0  0  0
 59 58  1  0  0  0  0
 59 60  1  0  0  0  0
 60 61  1  0  0  0  0
 61 62  1  0  0  0  0
M  END
>  <REMARK>
 VINA RESULT:    -5.311      2.498      6.576
 INTER + INTRA:         -17.199
 INTER:                  -9.145
 INTRA:                  -8.054
 UNBOUND:                -6.299
 SMILES CC(=O)N[C@@H]1[C@@H](O)C[C@](O)(C(=O)O)O[C@H]1C(O)[C@H](O)CNC(=O)OCc1cn(C[C@@H](C(=O)O)C(c2ccccc2)c2ccccc2)nn1
 SMILES IDX 21 1 22 2 23 3 20 5 18 6 16 7 15 8 9 9 8 10 14 11 6 12 5 13
 SMILES IDX 10 14 11 16 12 17 13 18 7 20 4 22 2 23 1 25 3 26 17 27 19 29
 SMILES IDX 24 31 25 32 26 33 27 34 48 35 28 36 47 37 29 38 30 39 31 40
 SMILES IDX 32 41 33 42 34 44 35 45 36 46 40 47 37 48 39 49 38 50 41 51
 SMILES IDX 42 52 46 53 43 54 45 55 44 56
 H PARENT 21 4 10 15 13 19 7 21 4 24 17 28 19 30 33 43
 Flexibility Score: inf
  4 active torsions:
  status: ('A' for Active; 'I' for Inactive)
    1  A    between atoms: CA   and  CB  
    2  A    between atoms: CB   and  CG  
    3  A    between atoms: CG   and  CD  
    4  A    between atoms: CD   and  CE  

>  <TORSDO>
F 21

>  <BEGIN_>
RES LYS A 131

$$$$
ligand_47_pose_15_2HRL.pdbqt
 OpenBabel07062320523D

  6  5  0  0  0  0  0  0  0  0999 V2000
   33.1930   34.6630    9.2900 C   0  0  0  0  0  0  0  0  0  0  0  0
   32.0600   35.3600   10.0340 C   0  0  0  0  0  0  0  0  0  0  0  0
   30.7080   34.7410    9.7900 C   0  0  0  0  0  0  0  0  0  0  0  0
   30.4530   34.5790    8.2990 C   0  0  0  0  0  0  0  0  0  0  0  0
   28.9890   34.8130    7.9810 C   0  0  0  0  0  0  0  0  0  0  0  0
   28.8310   35.5610    6.7020 N   0  0  0  0  0  0  0  0  0  0  0  0
  1  2  1  0  0  0  0
  3  2  1  0  0  0  0
  4  3  1  0  0  0  0
  5  4  1  0  0  0  0
  6  5  1  0  0  0  0
M  END
>  <EGIN_R>
ES LYS A 135

>  <REMARK>
  4 active torsions:
  status: ('A' for Active; 'I' for Inactive)
    5  A    between atoms: CA   and  CB  
    6  A    between atoms: CB   and  CG  
    7  A    between atoms: CG   and  CD  
    8  A    between atoms: CD   and  CE  

$$$$
