ligand_41_pose_13_2HRL.pdbqt
 OpenBabel07062320523D

 52 53  0  0  1  0  0  0  0  0999 V2000
   26.1070   30.7910   19.2290 N   0  0  0  0  0  0  0  0  0  0  0  0
   26.1460   30.1730   17.9310 C   0  0  0  0  0  0  0  0  0  0  0  0
   26.4750   28.9650   17.8470 O   0  0  0  0  0  0  0  0  0  0  0  0
   25.8230   31.7900   19.2580 H   0  0  0  0  0  0  0  0  0  0  0  0
   26.4540   30.0310   20.3930 C   0  0  0  0  0  0  0  0  0  0  0  0
   27.8300   30.2360   20.9370 C   0  0  2  0  0  0  0  0  0  0  0  0
   28.8390   29.2330   20.4620 C   0  0  2  0  0  0  0  0  0  0  0  0
   29.9220   28.9140   21.4580 C   0  0  2  0  0  0  0  0  0  0  0  0
   32.1320   29.3100   21.9990 C   0  0  2  0  0  0  0  0  0  0  0  0
   32.4910   27.8370   22.0480 C   0  0  0  0  0  0  0  0  0  0  0  0
   31.0980   29.5110   21.1590 O   0  0  0  0  0  0  0  0  0  0  0  0
   31.4800   26.9890   21.3520 C   0  0  1  0  0  0  0  0  0  0  0  0
   30.0790   27.4150   21.5860 C   0  0  1  0  0  0  0  0  0  0  0  0
   33.3110   29.9240   21.4530 O   0  0  0  0  0  0  0  0  0  0  0  0
   33.0380   30.4720   20.6530 H   0  0  0  0  0  0  0  0  0  0  0  0
   32.0310   29.8340   23.3650 C   0  0  0  0  0  0  0  0  0  0  0  0
   31.6340   29.1540   24.3390 O   0  0  0  0  0  0  0  0  0  0  0  0
   32.3820   31.1530   23.6600 O   0  0  0  0  0  0  0  0  0  0  0  0
   33.0900   31.3520   24.3570 H   0  0  0  0  0  0  0  0  0  0  0  0
   31.7400   27.0450   19.9720 O   0  0  0  0  0  0  0  0  0  0  0  0
   31.3690   27.8560   19.5490 H   0  0  0  0  0  0  0  0  0  0  0  0
   29.5530   26.8730   22.7990 N   0  0  0  0  0  0  0  0  0  0  0  0
   28.1620   26.6680   23.0170 C   0  0  0  0  0  0  0  0  0  0  0  0
   30.2030   26.6100   23.5630 H   0  0  0  0  0  0  0  0  0  0  0  0
   27.6670   26.1010   24.2980 C   0  0  0  0  0  0  0  0  0  0  0  0
   27.3120   26.9570   22.1370 O   0  0  0  0  0  0  0  0  0  0  0  0
   29.2620   29.4220   19.1710 O   0  0  0  0  0  0  0  0  0  0  0  0
   29.7770   28.6010   18.9080 H   0  0  0  0  0  0  0  0  0  0  0  0
   27.7100   29.9950   22.3680 O   0  0  0  0  0  0  0  0  0  0  0  0
   26.7260   29.9830   22.5080 H   0  0  0  0  0  0  0  0  0  0  0  0
   25.8420   30.8450   16.7720 O   0  0  0  0  0  0  0  0  0  0  0  0
   26.8020   31.0230   15.7330 C   0  0  0  0  0  0  0  0  0  0  0  0
   28.1570   31.2780   16.2830 C   0  0  0  0  0  0  0  0  0  0  0  0
   28.5680   32.3150   17.0780 C   0  0  0  0  0  0  0  0  0  0  0  0
   29.2630   30.5080   16.0890 N   0  0  0  0  0  0  0  0  0  0  0  0
   29.9060   32.1420   17.3410 N   0  0  0  0  0  0  0  0  0  0  0  0
   30.2770   31.0380   16.7220 N   0  0  0  0  0  0  0  0  0  0  0  0
   30.7710   32.9850   18.0820 C   0  0  0  0  0  0  0  0  0  0  0  0
   31.4580   34.0330   17.5730 C   0  0  0  0  0  0  0  0  0  0  0  0
   30.8670   32.6540   19.4520 C   0  0  0  0  0  0  0  0  0  0  0  0
   32.2680   34.7880   18.4280 C   0  0  0  0  0  0  0  0  0  0  0  0
   31.6650   33.4040   20.2790 C   0  0  0  0  0  0  0  0  0  0  0  0
   32.3540   34.4630   19.7480 C   0  0  0  0  0  0  0  0  0  0  0  0
   31.4220   34.4320   16.1830 C   0  0  2  0  0  0  0  0  0  0  0  0
   30.4420   35.2050   15.8320 O   0  0  0  0  0  0  0  0  0  0  0  0
   32.3570   34.0700   15.1190 C   0  0  0  0  0  0  0  0  0  0  0  0
   29.8670   25.5550   16.9770 C   0  0  0  0  0  0  0  0  0  0  0  0
   28.3450   25.7220   17.0260 C   0  0  0  0  0  0  0  0  0  0  0  0
   27.6010   24.4030   16.8860 C   0  0  0  0  0  0  0  0  0  0  0  0
   26.4150   24.3210   17.8060 C   0  0  0  0  0  0  0  0  0  0  0  0
   26.4040   25.5330   18.7320 C   0  0  0  0  0  0  0  0  0  0  0  0
   25.3970   25.3580   19.8050 N   0  0  0  0  0  0  0  0  0  0  0  0
  1  4  1  0  0  0  0
  1  5  1  0  0  0  0
  2  1  1  0  0  0  0
  3  2  2  0  0  0  0
  6  5  1  6  0  0  0
  6 29  1  0  0  0  0
  7 27  1  6  0  0  0
  7  6  1  0  0  0  0
  8  7  1  6  0  0  0
  8 13  1  0  0  0  0
  9 14  1  6  0  0  0
  9 10  1  0  0  0  0
  9 16  1  0  0  0  0
 11  8  1  0  0  0  0
 11  9  1  0  0  0  0
 12 20  1  6  0  0  0
 12 13  1  0  0  0  0
 12 10  1  0  0  0  0
 13 22  1  1  0  0  0
 15 14  1  0  0  0  0
 16 18  1  0  0  0  0
 16 17  2  0  0  0  0
 18 19  1  0  0  0  0
 21 20  1  0  0  0  0
 22 23  1  0  0  0  0
 22 24  1  0  0  0  0
 23 25  1  0  0  0  0
 26 23  2  0  0  0  0
 28 27  1  0  0  0  0
 29 30  1  0  0  0  0
 31  2  1  0  0  0  0
 32 33  1  0  0  0  0
 32 31  1  0  0  0  0
 33 34  2  0  0  0  0
 34 36  1  0  0  0  0
 35 33  1  0  0  0  0
 35 37  2  0  0  0  0
 36 38  1  0  0  0  0
 37 36  1  0  0  0  0
 38 40  1  0  0  0  0
 39 38  2  0  0  0  0
 39 41  1  0  0  0  0
 40 42  2  0  0  0  0
 41 43  2  0  0  0  0
 43 42  1  0  0  0  0
 44 46  1  6  0  0  0
 44 39  1  0  0  0  0
 45 44  1  0  0  0  0
 47 48  1  0  0  0  0
 49 48  1  0  0  0  0
 49 50  1  0  0  0  0
 50 51  1  0  0  0  0
 51 52  1  0  0  0  0
M  END
>  <REMARK>
 VINA RESULT:    -4.330      3.933      8.134
 INTER + INTRA:         -14.551
 INTER:                  -8.296
 INTRA:                  -6.256
 UNBOUND:                -6.804
 SMILES CC(=O)N[C@@H]1[C@@H](O)C[C@](O)(C(=O)O)O[C@H]1C(O)[C@H](O)CNC(=O)OCc1cn(-c2ccccc2C(C)=O)nn1
 SMILES IDX 21 1 22 2 23 3 20 5 18 6 16 7 15 8 9 9 8 10 14 11 6 12 5 13
 SMILES IDX 10 14 11 16 12 17 13 18 7 20 4 22 2 23 1 25 3 26 17 27 19 29
 SMILES IDX 24 31 25 32 26 33 27 34 39 35 28 36 38 37 29 38 34 39 30 40
 SMILES IDX 33 41 31 42 32 43 35 44 37 45 36 46
 H PARENT 21 4 10 15 13 19 7 21 4 24 17 28 19 30
 Flexibility Score: inf
  4 active torsions:
  status: ('A' for Active; 'I' for Inactive)
    1  A    between atoms: CA   and  CB  
    2  A    between atoms: CB   and  CG  
    3  A    between atoms: CG   and  CD  
    4  A    between atoms: CD   and  CE  

>  <TORSDO>
F 16

>  <BEGIN_>
RES LYS A 131

$$$$
ligand_41_pose_13_2HRL.pdbqt
 OpenBabel07062320523D

  6  5  0  0  0  0  0  0  0  0999 V2000
   33.1930   34.6630    9.2900 C   0  0  0  0  0  0  0  0  0  0  0  0
   32.0600   35.3600   10.0340 C   0  0  0  0  0  0  0  0  0  0  0  0
   30.7140   34.7180    9.8200 C   0  0  0  0  0  0  0  0  0  0  0  0
   30.4680   34.4680    8.3400 C   0  0  0  0  0  0  0  0  0  0  0  0
   29.0370   34.8120    7.9720 C   0  0  0  0  0  0  0  0  0  0  0  0
   28.0750   34.2080    8.9360 N   0  0  0  0  0  0  0  0  0  0  0  0
  1  2  1  0  0  0  0
  3  2  1  0  0  0  0
  4  3  1  0  0  0  0
  5  4  1  0  0  0  0
  5  6  1  0  0  0  0
M  END
>  <EGIN_R>
ES LYS A 135

>  <REMARK>
  4 active torsions:
  status: ('A' for Active; 'I' for Inactive)
    5  A    between atoms: CA   and  CB  
    6  A    between atoms: CB   and  CG  
    7  A    between atoms: CG   and  CD  
    8  A    between atoms: CD   and  CE  

$$$$
