ligand_0_pose_14_2HRL.pdbqt
 OpenBabel07062320523D

 54 55  0  0  1  0  0  0  0  0999 V2000
   28.3450   30.0890   16.1510 N   0  0  0  0  0  0  0  0  0  0  0  0
   27.0190   30.5130   15.8710 C   0  0  0  0  0  0  0  0  0  0  0  0
   26.7990   31.7230   15.6830 O   0  0  0  0  0  0  0  0  0  0  0  0
   28.4630   29.0450   16.3010 H   0  0  0  0  0  0  0  0  0  0  0  0
   29.4890   30.9620   16.2380 C   0  0  0  0  0  0  0  0  0  0  0  0
   29.6200   31.6130   17.6050 C   0  0  2  0  0  0  0  0  0  0  0  0
   29.3200   30.6490   18.7140 C   0  0  1  0  0  0  0  0  0  0  0  0
   30.4120   30.4760   19.7000 C   0  0  2  0  0  0  0  0  0  0  0  0
   31.1830   28.8320   21.1750 C   0  0  2  0  0  0  0  0  0  0  0  0
   32.3230   29.7980   21.3080 C   0  0  0  0  0  0  0  0  0  0  0  0
   30.2630   29.1680   20.2330 O   0  0  0  0  0  0  0  0  0  0  0  0
   31.9080   31.2230   21.4370 C   0  0  1  0  0  0  0  0  0  0  0  0
   30.5080   31.3880   20.8550 C   0  0  1  0  0  0  0  0  0  0  0  0
   30.6040   28.6240   22.4490 O   0  0  0  0  0  0  0  0  0  0  0  0
   30.5370   29.5180   22.8960 H   0  0  0  0  0  0  0  0  0  0  0  0
   31.7750   27.5180   20.7890 C   0  0  0  0  0  0  0  0  0  0  0  0
   31.8130   26.6010   21.6650 O   0  0  0  0  0  0  0  0  0  0  0  0
   32.2830   27.2450   19.5370 O   0  0  0  0  0  0  0  0  0  0  0  0
   31.8450   26.5690   18.9330 H   0  0  0  0  0  0  0  0  0  0  0  0
   31.9460   31.5860   22.7740 O   0  0  0  0  0  0  0  0  0  0  0  0
   32.8290   31.9230   23.0690 H   0  0  0  0  0  0  0  0  0  0  0  0
   30.1300   32.7400   20.7050 N   0  0  0  0  0  0  0  0  0  0  0  0
   29.2320   33.3720   21.5900 C   0  0  0  0  0  0  0  0  0  0  0  0
   30.5220   33.3230   19.9390 H   0  0  0  0  0  0  0  0  0  0  0  0
   28.8020   34.7820   21.4800 C   0  0  0  0  0  0  0  0  0  0  0  0
   28.7680   32.6950   22.5330 O   0  0  0  0  0  0  0  0  0  0  0  0
   28.0320   30.6830   19.1970 O   0  0  0  0  0  0  0  0  0  0  0  0
   27.4890   31.3470   18.6730 H   0  0  0  0  0  0  0  0  0  0  0  0
   28.9890   32.8220   17.6740 O   0  0  0  0  0  0  0  0  0  0  0  0
   28.8840   33.1220   18.6190 H   0  0  0  0  0  0  0  0  0  0  0  0
   25.9540   29.6230   15.7970 O   0  0  0  0  0  0  0  0  0  0  0  0
   25.0650   29.4180   16.8820 C   0  0  0  0  0  0  0  0  0  0  0  0
   25.7390   28.6380   17.9630 C   0  0  0  0  0  0  0  0  0  0  0  0
   25.1770   28.3050   19.1810 C   0  0  0  0  0  0  0  0  0  0  0  0
   26.9780   28.1240   17.9660 N   0  0  0  0  0  0  0  0  0  0  0  0
   26.1120   27.5940   19.8810 N   0  0  0  0  0  0  0  0  0  0  0  0
   27.1700   27.5040   19.1300 N   0  0  0  0  0  0  0  0  0  0  0  0
   25.9220   27.0700   21.2010 C   0  0  0  0  0  0  0  0  0  0  0  0
   26.0840   27.8460   22.3240 C   0  0  0  0  0  0  0  0  0  0  0  0
   25.5630   25.7320   21.3250 C   0  0  0  0  0  0  0  0  0  0  0  0
   25.8800   27.2610   23.5780 C   0  0  0  0  0  0  0  0  0  0  0  0
   25.3680   25.1750   22.5660 C   0  0  0  0  0  0  0  0  0  0  0  0
   25.5300   25.9490   23.6850 C   0  0  0  0  0  0  0  0  0  0  0  0
   26.4560   29.2510   22.2640 C   0  0  0  0  0  0  0  0  0  0  0  0
   25.5170   30.1080   22.3310 O   0  0  0  0  0  0  0  0  0  0  0  0
   27.8020   29.6890   22.1370 N   0  0  0  0  0  0  0  0  0  0  0  0
   28.4850   29.6160   22.9070 H   0  0  0  0  0  0  0  0  0  0  0  0
   28.0730   30.1090   21.1970 H   0  0  0  0  0  0  0  0  0  0  0  0
   29.8670   25.5550   16.9770 C   0  0  0  0  0  0  0  0  0  0  0  0
   28.3450   25.7220   17.0260 C   0  0  0  0  0  0  0  0  0  0  0  0
   27.6010   24.4060   16.8600 C   0  0  0  0  0  0  0  0  0  0  0  0
   26.5890   24.1860   17.9510 C   0  0  0  0  0  0  0  0  0  0  0  0
   25.2530   24.7940   17.5360 C   0  0  0  0  0  0  0  0  0  0  0  0
   24.3950   23.7720   16.8920 N   0  0  0  0  0  0  0  0  0  0  0  0
  1  5  1  0  0  0  0
  1  4  1  0  0  0  0
  2  1  1  0  0  0  0
  3  2  2  0  0  0  0
  6  5  1  6  0  0  0
  6 29  1  0  0  0  0
  6  7  1  0  0  0  0
  7 27  1  1  0  0  0
  8  7  1  6  0  0  0
  8 11  1  0  0  0  0
  8 13  1  0  0  0  0
  9 16  1  6  0  0  0
  9 10  1  0  0  0  0
  9 14  1  0  0  0  0
 10 12  1  0  0  0  0
 11  9  1  0  0  0  0
 12 20  1  1  0  0  0
 13 22  1  6  0  0  0
 13 12  1  0  0  0  0
 14 15  1  0  0  0  0
 16 17  2  0  0  0  0
 18 16  1  0  0  0  0
 19 18  1  0  0  0  0
 20 21  1  0  0  0  0
 22 23  1  0  0  0  0
 23 26  2  0  0  0  0
 24 22  1  0  0  0  0
 25 23  1  0  0  0  0
 28 27  1  0  0  0  0
 29 30  1  0  0  0  0
 31  2  1  0  0  0  0
 31 32  1  0  0  0  0
 32 33  1  0  0  0  0
 33 35  1  0  0  0  0
 33 34  2  0  0  0  0
 34 36  1  0  0  0  0
 35 37  2  0  0  0  0
 36 38  1  0  0  0  0
 37 36  1  0  0  0  0
 38 40  2  0  0  0  0
 38 39  1  0  0  0  0
 39 41  2  0  0  0  0
 40 42  1  0  0  0  0
 41 43  1  0  0  0  0
 42 43  2  0  0  0  0
 44 39  1  0  0  0  0
 44 45  2  0  0  0  0
 46 44  1  0  0  0  0
 46 47  1  0  0  0  0
 48 46  1  0  0  0  0
 49 50  1  0  0  0  0
 51 50  1  0  0  0  0
 51 52  1  0  0  0  0
 53 52  1  0  0  0  0
 54 53  1  0  0  0  0
M  END
>  <REMARK>
 VINA RESULT:    -5.198      1.932      5.302
 INTER + INTRA:         -14.714
 INTER:                  -7.187
 INTRA:                  -7.527
 UNBOUND:                -5.414
 SMILES CC(=O)N[C@@H]1[C@@H](O)C[C@](O)(C(=O)O)O[C@H]1C(O)[C@H](O)CNC(=O)OCc1cn(-c2ccccc2C(N)=O)nn1
 SMILES IDX 21 1 22 2 23 3 20 5 18 6 16 7 15 8 9 9 8 10 14 11 6 12 5 13
 SMILES IDX 10 14 11 16 12 17 13 18 7 20 4 22 2 23 1 25 3 26 17 27 19 29
 SMILES IDX 24 31 25 32 26 33 27 34 39 35 28 36 38 37 29 38 34 39 30 40
 SMILES IDX 33 41 31 42 32 43 35 44 37 45 36 46
 H PARENT 21 4 10 15 13 19 7 21 4 24 17 28 19 30 36 47 36 48
 Flexibility Score: inf
  4 active torsions:
  status: ('A' for Active; 'I' for Inactive)
    1  A    between atoms: CA   and  CB  
    2  A    between atoms: CB   and  CG  
    3  A    between atoms: CG   and  CD  
    4  A    between atoms: CD   and  CE  

>  <TORSDO>
F 16

>  <BEGIN_>
RES LYS A 131

$$$$
ligand_0_pose_14_2HRL.pdbqt
 OpenBabel07062320523D

  6  5  0  0  0  0  0  0  0  0999 V2000
   33.1930   34.6630    9.2900 C   0  0  0  0  0  0  0  0  0  0  0  0
   32.0600   35.3600   10.0340 C   0  0  0  0  0  0  0  0  0  0  0  0
   30.7010   34.7780    9.7430 C   0  0  0  0  0  0  0  0  0  0  0  0
   30.5590   34.4590    8.2630 C   0  0  0  0  0  0  0  0  0  0  0  0
   29.2400   34.9850    7.7290 C   0  0  0  0  0  0  0  0  0  0  0  0
   28.1860   34.9560    8.7800 N   0  0  0  0  0  0  0  0  0  0  0  0
  1  2  1  0  0  0  0
  3  2  1  0  0  0  0
  4  3  1  0  0  0  0
  5  4  1  0  0  0  0
  5  6  1  0  0  0  0
M  END
>  <EGIN_R>
ES LYS A 135

>  <REMARK>
  4 active torsions:
  status: ('A' for Active; 'I' for Inactive)
    5  A    between atoms: CA   and  CB  
    6  A    between atoms: CB   and  CG  
    7  A    between atoms: CG   and  CD  
    8  A    between atoms: CD   and  CE  

$$$$
