ligand_68_pose_19_2HRL.pdbqt
 OpenBabel07062320523D

 53 54  0  0  1  0  0  0  0  0999 V2000
   33.0680   29.6600   23.7530 N   0  0  0  0  0  0  0  0  0  0  0  0
   32.6050   30.9340   24.1640 C   0  0  0  0  0  0  0  0  0  0  0  0
   32.2890   31.1030   25.3630 O   0  0  0  0  0  0  0  0  0  0  0  0
   33.3190   29.6020   22.7180 H   0  0  0  0  0  0  0  0  0  0  0  0
   33.2070   28.5110   24.6190 C   0  0  0  0  0  0  0  0  0  0  0  0
   32.8080   27.2240   23.9290 C   0  0  2  0  0  0  0  0  0  0  0  0
   31.9050   27.5240   22.7310 C   0  0  2  0  0  0  0  0  0  0  0  0
   30.5870   26.7980   22.7670 C   0  0  2  0  0  0  0  0  0  0  0  0
   29.6560   27.9310   20.9430 C   0  0  2  0  0  0  0  0  0  0  0  0
   29.3730   29.0660   21.8420 C   0  0  0  0  0  0  0  0  0  0  0  0
   30.0850   26.7580   21.4640 O   0  0  0  0  0  0  0  0  0  0  0  0
   29.1590   28.7620   23.2910 C   0  0  1  0  0  0  0  0  0  0  0  0
   29.6340   27.3920   23.7130 C   0  0  1  0  0  0  0  0  0  0  0  0
   30.6980   28.3690   20.0710 O   0  0  0  0  0  0  0  0  0  0  0  0
   31.5000   27.8840   20.3660 H   0  0  0  0  0  0  0  0  0  0  0  0
   28.4720   27.7440   20.0220 C   0  0  0  0  0  0  0  0  0  0  0  0
   27.7730   28.7070   19.6310 O   0  0  0  0  0  0  0  0  0  0  0  0
   28.1340   26.4660   19.5850 O   0  0  0  0  0  0  0  0  0  0  0  0
   28.0400   25.6730   20.2000 H   0  0  0  0  0  0  0  0  0  0  0  0
   29.7880   29.7640   24.0830 O   0  0  0  0  0  0  0  0  0  0  0  0
   29.6350   30.6140   23.6280 H   0  0  0  0  0  0  0  0  0  0  0  0
   28.4310   26.6010   23.9190 N   0  0  0  0  0  0  0  0  0  0  0  0
   28.3110   25.5800   24.8920 C   0  0  0  0  0  0  0  0  0  0  0  0
   27.6310   26.8340   23.2900 H   0  0  0  0  0  0  0  0  0  0  0  0
   27.0680   24.7920   25.0770 C   0  0  0  0  0  0  0  0  0  0  0  0
   29.3300   25.3760   25.6020 O   0  0  0  0  0  0  0  0  0  0  0  0
   32.6540   26.9210   21.6490 O   0  0  0  0  0  0  0  0  0  0  0  0
   32.2390   26.0960   21.3540 H   0  0  0  0  0  0  0  0  0  0  0  0
   32.2260   26.3850   24.8510 O   0  0  0  0  0  0  0  0  0  0  0  0
   32.2460   26.8390   25.7260 H   0  0  0  0  0  0  0  0  0  0  0  0
   32.4840   32.0100   23.2970 O   0  0  0  0  0  0  0  0  0  0  0  0
   31.5110   33.0220   23.4710 C   0  0  0  0  0  0  0  0  0  0  0  0
   30.4080   32.7890   22.5170 C   0  0  0  0  0  0  0  0  0  0  0  0
   30.5220   32.6720   21.1410 C   0  0  0  0  0  0  0  0  0  0  0  0
   29.0840   32.6400   22.7580 N   0  0  0  0  0  0  0  0  0  0  0  0
   29.3060   32.4640   20.6050 N   0  0  0  0  0  0  0  0  0  0  0  0
   28.4590   32.4510   21.6060 N   0  0  0  0  0  0  0  0  0  0  0  0
   29.0270   32.2900   19.1740 C   0  0  0  0  0  0  0  0  0  0  0  0
   30.1500   31.4980   18.5520 C   0  0  1  0  0  0  0  0  0  0  0  0
   29.5770   30.3190   18.0240 O   0  0  0  0  0  0  0  0  0  0  0  0
   29.6920   29.5800   18.6820 H   0  0  0  0  0  0  0  0  0  0  0  0
   30.7340   32.2560   17.4270 C   0  0  0  0  0  0  0  0  0  0  0  0
   30.7470   31.7770   16.1330 C   0  0  0  0  0  0  0  0  0  0  0  0
   31.2990   33.5130   17.6810 C   0  0  0  0  0  0  0  0  0  0  0  0
   31.2940   32.4980   15.1010 C   0  0  0  0  0  0  0  0  0  0  0  0
   31.8440   34.2320   16.6560 C   0  0  0  0  0  0  0  0  0  0  0  0
   31.8420   33.7290   15.3750 C   0  0  0  0  0  0  0  0  0  0  0  0
   29.8670   25.5550   16.9770 C   0  0  0  0  0  0  0  0  0  0  0  0
   28.3450   25.7220   17.0260 C   0  0  0  0  0  0  0  0  0  0  0  0
   27.5990   24.4770   16.5710 C   0  0  0  0  0  0  0  0  0  0  0  0
   27.0150   23.7130   17.7270 C   0  0  0  0  0  0  0  0  0  0  0  0
   25.5540   24.1110   17.9140 C   0  0  0  0  0  0  0  0  0  0  0  0
   24.6580   23.0880   17.3250 N   0  0  0  0  0  0  0  0  0  0  0  0
  1  2  1  0  0  0  0
  1  5  1  0  0  0  0
  2  3  2  0  0  0  0
  4  1  1  0  0  0  0
  6  5  1  1  0  0  0
  6 29  1  0  0  0  0
  7 27  1  6  0  0  0
  7  6  1  0  0  0  0
  8  7  1  6  0  0  0
  8 13  1  0  0  0  0
  9 16  1  6  0  0  0
  9 11  1  0  0  0  0
  9 10  1  0  0  0  0
 10 12  1  0  0  0  0
 11  8  1  0  0  0  0
 12 13  1  0  0  0  0
 12 20  1  1  0  0  0
 13 22  1  6  0  0  0
 14 15  1  0  0  0  0
 14  9  1  0  0  0  0
 17 16  2  0  0  0  0
 18 16  1  0  0  0  0
 18 19  1  0  0  0  0
 21 20  1  0  0  0  0
 22 23  1  0  0  0  0
 23 25  1  0  0  0  0
 23 26  2  0  0  0  0
 24 22  1  0  0  0  0
 28 27  1  0  0  0  0
 29 30  1  0  0  0  0
 31 32  1  0  0  0  0
 31  2  1  0  0  0  0
 33 35  1  0  0  0  0
 33 32  1  0  0  0  0
 34 33  2  0  0  0  0
 36 34  1  0  0  0  0
 36 37  1  0  0  0  0
 37 35  2  0  0  0  0
 38 36  1  0  0  0  0
 39 38  1  6  0  0  0
 40 39  1  0  0  0  0
 40 41  1  0  0  0  0
 42 44  1  0  0  0  0
 42 39  1  0  0  0  0
 43 42  2  0  0  0  0
 45 47  2  0  0  0  0
 45 43  1  0  0  0  0
 46 44  2  0  0  0  0
 47 46  1  0  0  0  0
 48 49  1  0  0  0  0
 50 49  1  0  0  0  0
 50 51  1  0  0  0  0
 51 52  1  0  0  0  0
 53 52  1  0  0  0  0
M  END
>  <REMARK>
 VINA RESULT:    -5.098      2.574      4.828
 INTER + INTRA:         -14.581
 INTER:                  -8.306
 INTRA:                  -6.275
 UNBOUND:                -5.012
 SMILES CC(=O)N[C@@H]1[C@@H](O)C[C@](O)(C(=O)O)O[C@H]1C(O)[C@H](O)CNC(=O)OCc1cn(CC(O)c2ccccc2)nn1
 SMILES IDX 21 1 22 2 23 3 20 5 18 6 16 7 15 8 9 9 8 10 14 11 6 12 5 13
 SMILES IDX 10 14 11 16 12 17 13 18 7 20 4 22 2 23 1 25 3 26 17 27 19 29
 SMILES IDX 24 31 25 32 26 33 27 34 39 35 28 36 38 37 29 38 30 39 31 40
 SMILES IDX 32 42 33 43 37 44 34 45 36 46 35 47
 H PARENT 21 4 10 15 13 19 7 21 4 24 17 28 19 30 31 41
 Flexibility Score: inf
  4 active torsions:
  status: ('A' for Active; 'I' for Inactive)
    1  A    between atoms: CA   and  CB  
    2  A    between atoms: CB   and  CG  
    3  A    between atoms: CG   and  CD  
    4  A    between atoms: CD   and  CE  

>  <TORSDO>
F 18

>  <BEGIN_>
RES LYS A 131

$$$$
ligand_68_pose_19_2HRL.pdbqt
 OpenBabel07062320523D

  6  5  0  0  0  0  0  0  0  0999 V2000
   33.1930   34.6630    9.2900 C   0  0  0  0  0  0  0  0  0  0  0  0
   32.0600   35.3600   10.0340 C   0  0  0  0  0  0  0  0  0  0  0  0
   30.7140   34.7180    9.8200 C   0  0  0  0  0  0  0  0  0  0  0  0
   30.0330   35.2950    8.5880 C   0  0  0  0  0  0  0  0  0  0  0  0
   28.7260   34.5760    8.3150 C   0  0  0  0  0  0  0  0  0  0  0  0
   28.2820   33.8010    9.5060 N   0  0  0  0  0  0  0  0  0  0  0  0
  1  2  1  0  0  0  0
  3  2  1  0  0  0  0
  4  3  1  0  0  0  0
  5  4  1  0  0  0  0
  5  6  1  0  0  0  0
M  END
>  <EGIN_R>
ES LYS A 135

>  <REMARK>
  4 active torsions:
  status: ('A' for Active; 'I' for Inactive)
    5  A    between atoms: CA   and  CB  
    6  A    between atoms: CB   and  CG  
    7  A    between atoms: CG   and  CD  
    8  A    between atoms: CD   and  CE  

$$$$
