ligand_35_pose_16_2HRL.pdbqt
 OpenBabel07062320523D

 49 49  0  0  1  0  0  0  0  0999 V2000
   29.7900   33.6560   14.1850 N   0  0  0  0  0  0  0  0  0  0  0  0
   29.4270   34.9950   14.4540 C   0  0  0  0  0  0  0  0  0  0  0  0
   28.8830   35.3280   15.5380 O   0  0  0  0  0  0  0  0  0  0  0  0
   30.2360   33.4340   13.2750 H   0  0  0  0  0  0  0  0  0  0  0  0
   29.5620   32.6020   15.1290 C   0  0  0  0  0  0  0  0  0  0  0  0
   30.8600   32.0360   15.7160 C   0  0  2  0  0  0  0  0  0  0  0  0
   31.0340   32.6400   17.0660 C   0  0  2  0  0  0  0  0  0  0  0  0
   29.7980   32.8190   17.8820 C   0  0  2  0  0  0  0  0  0  0  0  0
   30.7930   33.3090   19.9370 C   0  0  2  0  0  0  0  0  0  0  0  0
   30.9280   31.8500   20.1230 C   0  0  0  0  0  0  0  0  0  0  0  0
   30.0800   33.7620   18.8590 O   0  0  0  0  0  0  0  0  0  0  0  0
   29.8420   30.9880   19.5850 C   0  0  1  0  0  0  0  0  0  0  0  0
   29.1400   31.6020   18.4080 C   0  0  1  0  0  0  0  0  0  0  0  0
   32.1100   33.8060   19.7470 O   0  0  0  0  0  0  0  0  0  0  0  0
   32.2930   33.7680   18.7840 H   0  0  0  0  0  0  0  0  0  0  0  0
   30.3030   33.9240   21.2010 C   0  0  0  0  0  0  0  0  0  0  0  0
   30.9600   34.8110   21.8110 O   0  0  0  0  0  0  0  0  0  0  0  0
   29.0950   33.5380   21.7560 O   0  0  0  0  0  0  0  0  0  0  0  0
   28.6490   34.0300   22.5230 H   0  0  0  0  0  0  0  0  0  0  0  0
   30.4190   29.7470   19.2530 O   0  0  0  0  0  0  0  0  0  0  0  0
   31.3730   29.9290   19.0750 H   0  0  0  0  0  0  0  0  0  0  0  0
   27.7890   32.0160   18.8390 N   0  0  0  0  0  0  0  0  0  0  0  0
   26.6560   31.7660   18.0340 C   0  0  0  0  0  0  0  0  0  0  0  0
   27.6240   32.5020   19.7390 H   0  0  0  0  0  0  0  0  0  0  0  0
   25.2890   32.1610   18.4230 C   0  0  0  0  0  0  0  0  0  0  0  0
   26.7930   31.1710   16.9150 O   0  0  0  0  0  0  0  0  0  0  0  0
   31.4940   33.9740   16.8160 O   0  0  0  0  0  0  0  0  0  0  0  0
   30.9160   34.2950   16.0790 H   0  0  0  0  0  0  0  0  0  0  0  0
   31.8590   32.4350   14.8380 O   0  0  0  0  0  0  0  0  0  0  0  0
   32.6400   31.8480   14.9970 H   0  0  0  0  0  0  0  0  0  0  0  0
   29.6630   36.0130   13.5100 O   0  0  0  0  0  0  0  0  0  0  0  0
   30.9640   36.2310   12.9940 C   0  0  0  0  0  0  0  0  0  0  0  0
   31.9950   36.0620   14.0480 C   0  0  0  0  0  0  0  0  0  0  0  0
   32.2730   36.9590   15.0820 C   0  0  0  0  0  0  0  0  0  0  0  0
   32.8630   35.0440   14.2400 N   0  0  0  0  0  0  0  0  0  0  0  0
   33.2630   36.4640   15.8310 N   0  0  0  0  0  0  0  0  0  0  0  0
   33.6140   35.3120   15.3180 N   0  0  0  0  0  0  0  0  0  0  0  0
   33.8650   37.0830   17.0170 C   0  0  1  0  0  0  0  0  0  0  0  0
   33.5400   38.5670   17.0420 C   0  0  0  0  0  0  0  0  0  0  0  0
   33.4230   36.4410   18.2530 C   0  0  0  0  0  0  0  0  0  0  0  0
   34.2650   35.9580   19.0430 O   0  0  0  0  0  0  0  0  0  0  0  0
   32.0860   36.3200   18.6270 O   0  0  0  0  0  0  0  0  0  0  0  0
   31.5500   37.1270   18.9250 H   0  0  0  0  0  0  0  0  0  0  0  0
   29.8670   25.5550   16.9770 C   0  0  0  0  0  0  0  0  0  0  0  0
   28.3450   25.7220   17.0260 C   0  0  0  0  0  0  0  0  0  0  0  0
   27.6010   24.4020   16.8970 C   0  0  0  0  0  0  0  0  0  0  0  0
   26.6420   24.1790   18.0330 C   0  0  0  0  0  0  0  0  0  0  0  0
   26.4240   25.4900   18.7800 C   0  0  0  0  0  0  0  0  0  0  0  0
   25.5490   25.2780   19.9570 N   0  0  0  0  0  0  0  0  0  0  0  0
  1  2  1  0  0  0  0
  1  5  1  0  0  0  0
  2  3  2  0  0  0  0
  4  1  1  0  0  0  0
  6  5  1  6  0  0  0
  6  7  1  0  0  0  0
  7 27  1  6  0  0  0
  8  7  1  1  0  0  0
  8 13  1  0  0  0  0
  8 11  1  0  0  0  0
  9 14  1  6  0  0  0
  9 10  1  0  0  0  0
  9 16  1  0  0  0  0
 11  9  1  0  0  0  0
 12 20  1  6  0  0  0
 12 10  1  0  0  0  0
 13 22  1  1  0  0  0
 13 12  1  0  0  0  0
 15 14  1  0  0  0  0
 16 18  1  0  0  0  0
 16 17  2  0  0  0  0
 18 19  1  0  0  0  0
 21 20  1  0  0  0  0
 22 24  1  0  0  0  0
 23 25  1  0  0  0  0
 23 22  1  0  0  0  0
 26 23  2  0  0  0  0
 28 27  1  0  0  0  0
 29 30  1  0  0  0  0
 29  6  1  0  0  0  0
 31  2  1  0  0  0  0
 32 31  1  0  0  0  0
 32 33  1  0  0  0  0
 33 35  1  0  0  0  0
 33 34  2  0  0  0  0
 34 36  1  0  0  0  0
 35 37  2  0  0  0  0
 36 38  1  0  0  0  0
 37 36  1  0  0  0  0
 38 39  1  1  0  0  0
 38 40  1  0  0  0  0
 40 42  1  0  0  0  0
 40 41  2  0  0  0  0
 42 43  1  0  0  0  0
 44 45  1  0  0  0  0
 46 45  1  0  0  0  0
 46 47  1  0  0  0  0
 47 48  1  0  0  0  0
 48 49  1  0  0  0  0
M  END
>  <REMARK>
 VINA RESULT:    -4.804      2.458      7.132
 INTER + INTRA:         -13.460
 INTER:                  -6.352
 INTRA:                  -7.108
 UNBOUND:                -4.724
 SMILES CC(=O)N[C@@H]1[C@@H](O)C[C@](O)(C(=O)O)O[C@H]1C(O)[C@H](O)CNC(=O)OCc1cn([C@@H](C)C(=O)O)nn1
 SMILES IDX 21 1 22 2 23 3 20 5 18 6 16 7 15 8 9 9 8 10 14 11 6 12 5 13
 SMILES IDX 10 14 11 16 12 17 13 18 7 20 4 22 2 23 1 25 3 26 17 27 19 29
 SMILES IDX 24 31 25 32 26 33 27 34 35 35 28 36 34 37 29 38 30 39 31 40
 SMILES IDX 32 41 33 42
 H PARENT 21 4 10 15 13 19 7 21 4 24 17 28 19 30 33 43
 Flexibility Score: inf
  4 active torsions:
  status: ('A' for Active; 'I' for Inactive)
    1  A    between atoms: CA   and  CB  
    2  A    between atoms: CB   and  CG  
    3  A    between atoms: CG   and  CD  
    4  A    between atoms: CD   and  CE  

>  <TORSDO>
F 17

>  <BEGIN_>
RES LYS A 131

$$$$
ligand_35_pose_16_2HRL.pdbqt
 OpenBabel07062320523D

  6  5  0  0  0  0  0  0  0  0999 V2000
   33.1930   34.6630    9.2900 C   0  0  0  0  0  0  0  0  0  0  0  0
   32.0600   35.3600   10.0340 C   0  0  0  0  0  0  0  0  0  0  0  0
   30.6980   34.7970    9.7210 C   0  0  0  0  0  0  0  0  0  0  0  0
   30.5700   34.4950    8.2360 C   0  0  0  0  0  0  0  0  0  0  0  0
   29.2130   34.9310    7.7180 C   0  0  0  0  0  0  0  0  0  0  0  0
   28.1200   34.4510    8.6080 N   0  0  0  0  0  0  0  0  0  0  0  0
  1  2  1  0  0  0  0
  3  2  1  0  0  0  0
  4  3  1  0  0  0  0
  5  4  1  0  0  0  0
  5  6  1  0  0  0  0
M  END
>  <EGIN_R>
ES LYS A 135

>  <REMARK>
  4 active torsions:
  status: ('A' for Active; 'I' for Inactive)
    5  A    between atoms: CA   and  CB  
    6  A    between atoms: CB   and  CG  
    7  A    between atoms: CG   and  CD  
    8  A    between atoms: CD   and  CE  

$$$$
