ligand_15_pose_3_2HRL.pdbqt
 OpenBabel07062320523D

 50 51  0  0  1  0  0  0  0  0999 V2000
   26.0730   27.7260   19.7600 C   0  0  0  0  0  0  0  0  0  0  0  0
   27.5310   27.7290   20.1110 C   0  0  2  0  0  0  0  0  0  0  0  0
   28.3200   28.8640   19.5610 C   0  0  2  0  0  0  0  0  0  0  0  0
   29.5220   29.2510   20.3980 C   0  0  2  0  0  0  0  0  0  0  0  0
   30.6280   28.3730   22.2720 C   0  0  2  0  0  0  0  0  0  0  0  0
   30.8960   29.8060   22.6430 C   0  0  0  0  0  0  0  0  0  0  0  0
   29.6230   28.2690   21.3760 O   0  0  0  0  0  0  0  0  0  0  0  0
   29.6030   30.5730   22.4980 C   0  0  1  0  0  0  0  0  0  0  0  0
   29.2620   30.6030   21.0020 C   0  0  1  0  0  0  0  0  0  0  0  0
   30.2120   27.6710   23.4380 O   0  0  0  0  0  0  0  0  0  0  0  0
   29.2220   27.7370   23.4310 H   0  0  0  0  0  0  0  0  0  0  0  0
   31.8490   27.7080   21.7370 C   0  0  0  0  0  0  0  0  0  0  0  0
   31.8360   26.9310   20.7670 O   0  0  0  0  0  0  0  0  0  0  0  0
   33.0660   27.9620   22.3460 O   0  0  0  0  0  0  0  0  0  0  0  0
   33.9610   27.7390   21.9090 H   0  0  0  0  0  0  0  0  0  0  0  0
   28.6010   29.8220   23.1090 O   0  0  0  0  0  0  0  0  0  0  0  0
   27.7470   29.8530   22.6360 H   0  0  0  0  0  0  0  0  0  0  0  0
   30.1650   31.5610   20.4280 N   0  0  0  0  0  0  0  0  0  0  0  0
   29.7850   32.5480   19.4870 C   0  0  0  0  0  0  0  0  0  0  0  0
   31.1810   31.5560   20.7040 H   0  0  0  0  0  0  0  0  0  0  0  0
   30.7630   33.5210   18.9150 C   0  0  0  0  0  0  0  0  0  0  0  0
   28.5940   32.6090   19.1210 O   0  0  0  0  0  0  0  0  0  0  0  0
   27.4520   29.9760   19.4290 O   0  0  0  0  0  0  0  0  0  0  0  0
   27.9400   30.6650   18.9320 H   0  0  0  0  0  0  0  0  0  0  0  0
   28.0820   26.5220   19.6290 O   0  0  0  0  0  0  0  0  0  0  0  0
   27.9410   25.7880   20.2760 H   0  0  0  0  0  0  0  0  0  0  0  0
   25.7730   27.8270   18.3700 N   0  0  0  0  0  0  0  0  0  0  0  0
   24.8330   28.8180   17.9050 C   0  0  0  0  0  0  0  0  0  0  0  0
   26.1670   27.2350   17.6110 H   0  0  0  0  0  0  0  0  0  0  0  0
   24.3060   29.5670   18.7610 O   0  0  0  0  0  0  0  0  0  0  0  0
   24.5220   28.9400   16.5590 O   0  0  0  0  0  0  0  0  0  0  0  0
   24.7670   30.2110   15.9720 C   0  0  0  0  0  0  0  0  0  0  0  0
   26.2450   30.4120   15.9820 C   0  0  0  0  0  0  0  0  0  0  0  0
   26.9190   31.5820   15.6890 C   0  0  0  0  0  0  0  0  0  0  0  0
   27.2050   29.5130   16.2730 N   0  0  0  0  0  0  0  0  0  0  0  0
   28.2400   31.3640   15.8080 N   0  0  0  0  0  0  0  0  0  0  0  0
   28.3680   30.1060   16.1620 N   0  0  0  0  0  0  0  0  0  0  0  0
   29.3310   32.2590   15.6100 C   0  0  0  0  0  0  0  0  0  0  0  0
   29.1450   33.6070   15.3660 C   0  0  0  0  0  0  0  0  0  0  0  0
   30.6340   31.8080   15.6560 C   0  0  0  0  0  0  0  0  0  0  0  0
   30.2140   34.4640   15.1770 C   0  0  0  0  0  0  0  0  0  0  0  0
   31.7110   32.6650   15.4670 C   0  0  0  0  0  0  0  0  0  0  0  0
   31.5190   34.0050   15.2240 C   0  0  0  0  0  0  0  0  0  0  0  0
   32.9540   35.2300   14.9560 Br  0  0  0  0  0  0  0  0  0  0  0  0
   29.8670   25.5550   16.9770 C   0  0  0  0  0  0  0  0  0  0  0  0
   28.3450   25.7220   17.0260 C   0  0  0  0  0  0  0  0  0  0  0  0
   27.6020   24.4000   16.9090 C   0  0  0  0  0  0  0  0  0  0  0  0
   26.1580   24.5250   17.3120 C   0  0  0  0  0  0  0  0  0  0  0  0
   25.9310   23.7850   18.6260 C   0  0  0  0  0  0  0  0  0  0  0  0
   24.7990   22.8370   18.4990 N   0  0  0  0  0  0  0  0  0  0  0  0
  2  1  1  6  0  0  0
  3 23  1  1  0  0  0
  3  2  1  0  0  0  0
  4  3  1  6  0  0  0
  4  9  1  0  0  0  0
  4  7  1  0  0  0  0
  5 12  1  6  0  0  0
  5  6  1  0  0  0  0
  5 10  1  0  0  0  0
  7  5  1  0  0  0  0
  8  6  1  0  0  0  0
  8 16  1  1  0  0  0
  9 18  1  6  0  0  0
  9  8  1  0  0  0  0
 11 10  1  0  0  0  0
 12 14  1  0  0  0  0
 13 12  2  0  0  0  0
 15 14  1  0  0  0  0
 17 16  1  0  0  0  0
 18 20  1  0  0  0  0
 19 18  1  0  0  0  0
 21 19  1  0  0  0  0
 22 19  2  0  0  0  0
 24 23  1  0  0  0  0
 25  2  1  0  0  0  0
 25 26  1  0  0  0  0
 27  1  1  0  0  0  0
 28 27  1  0  0  0  0
 28 30  2  0  0  0  0
 29 27  1  0  0  0  0
 31 28  1  0  0  0  0
 32 33  1  0  0  0  0
 32 31  1  0  0  0  0
 33 35  1  0  0  0  0
 34 36  1  0  0  0  0
 34 33  2  0  0  0  0
 36 37  1  0  0  0  0
 37 35  2  0  0  0  0
 38 40  1  0  0  0  0
 38 36  1  0  0  0  0
 39 38  2  0  0  0  0
 41 43  2  0  0  0  0
 41 39  1  0  0  0  0
 42 40  2  0  0  0  0
 43 42  1  0  0  0  0
 44 43  1  0  0  0  0
 45 46  1  0  0  0  0
 47 46  1  0  0  0  0
 47 48  1  0  0  0  0
 48 49  1  0  0  0  0
 50 49  1  0  0  0  0
M  END
>  <REMARK>
 VINA RESULT:    -5.459      2.088      2.956
 INTER + INTRA:         -14.610
 INTER:                  -8.156
 INTRA:                  -6.453
 UNBOUND:                -5.161
 SMILES CC(=O)N[C@@H]1[C@@H](O)C[C@](O)(C(=O)O)O[C@H]1C(O)[C@H](O)CNC(=O)OCc1cn(-c2ccc(Br)cc2)nn1
 SMILES IDX 20 1 18 2 16 3 15 4 9 5 8 6 14 7 6 8 5 9 10 10 11 12 12 13
 SMILES IDX 13 14 7 16 4 18 2 19 1 21 3 22 17 23 19 25 21 27 22 28 23 30
 SMILES IDX 24 31 25 32 26 33 27 34 37 35 28 36 36 37 29 38 30 39 35 40
 SMILES IDX 31 41 34 42 32 43 33 44
 H PARENT 10 11 13 15 7 17 4 20 17 24 19 26 21 29
 Flexibility Score: inf
  4 active torsions:
  status: ('A' for Active; 'I' for Inactive)
    1  A    between atoms: CA   and  CB  
    2  A    between atoms: CB   and  CG  
    3  A    between atoms: CG   and  CD  
    4  A    between atoms: CD   and  CE  

>  <TORSDO>
F 15

>  <BEGIN_>
RES LYS A 131

$$$$
ligand_15_pose_3_2HRL.pdbqt
 OpenBabel07062320523D

  6  5  0  0  0  0  0  0  0  0999 V2000
   33.1930   34.6630    9.2900 C   0  0  0  0  0  0  0  0  0  0  0  0
   32.0600   35.3600   10.0340 C   0  0  0  0  0  0  0  0  0  0  0  0
   30.7240   34.6820    9.8690 C   0  0  0  0  0  0  0  0  0  0  0  0
   30.4180   34.4500    8.3970 C   0  0  0  0  0  0  0  0  0  0  0  0
   28.9520   34.7080    8.1110 C   0  0  0  0  0  0  0  0  0  0  0  0
   28.0820   34.0210    9.1060 N   0  0  0  0  0  0  0  0  0  0  0  0
  1  2  1  0  0  0  0
  3  2  1  0  0  0  0
  4  3  1  0  0  0  0
  5  4  1  0  0  0  0
  5  6  1  0  0  0  0
M  END
>  <EGIN_R>
ES LYS A 135

>  <REMARK>
  4 active torsions:
  status: ('A' for Active; 'I' for Inactive)
    5  A    between atoms: CA   and  CB  
    6  A    between atoms: CB   and  CG  
    7  A    between atoms: CG   and  CD  
    8  A    between atoms: CD   and  CE  

$$$$
