ligand_7_pose_10_2HRL.pdbqt
 OpenBabel07062320523D

 52 53  0  0  1  0  0  0  0  0999 V2000
   27.3240   37.6330   11.8700 C   0  0  0  0  0  0  0  0  0  0  0  0
   27.1160   38.1510   10.4930 C   0  0  2  0  0  0  0  0  0  0  0  0
   26.2340   37.3210    9.6170 C   0  0  1  0  0  0  0  0  0  0  0  0
   26.8950   36.6440    8.4760 C   0  0  2  0  0  0  0  0  0  0  0  0
   29.0450   35.8720    7.9740 C   0  0  2  0  0  0  0  0  0  0  0  0
   28.6850   35.7500    6.5210 C   0  0  0  0  0  0  0  0  0  0  0  0
   27.9850   35.9050    8.8300 O   0  0  0  0  0  0  0  0  0  0  0  0
   27.4710   36.5220    6.1330 C   0  0  1  0  0  0  0  0  0  0  0  0
   27.1370   37.5030    7.2710 C   0  0  1  0  0  0  0  0  0  0  0  0
   29.8360   37.0080    8.1230 O   0  0  0  0  0  0  0  0  0  0  0  0
   30.4620   36.8410    8.8850 H   0  0  0  0  0  0  0  0  0  0  0  0
   29.8670   34.6800    8.3140 C   0  0  0  0  0  0  0  0  0  0  0  0
   29.4200   33.7960    9.0720 O   0  0  0  0  0  0  0  0  0  0  0  0
   31.1580   34.5270    7.7910 O   0  0  0  0  0  0  0  0  0  0  0  0
   31.4290   33.6040    7.4210 H   0  0  0  0  0  0  0  0  0  0  0  0
   27.5640   37.1650    4.9140 O   0  0  0  0  0  0  0  0  0  0  0  0
   26.6420   37.4810    4.6750 H   0  0  0  0  0  0  0  0  0  0  0  0
   25.9440   38.1820    6.8380 N   0  0  0  0  0  0  0  0  0  0  0  0
   25.8620   39.5870    7.0260 C   0  0  0  0  0  0  0  0  0  0  0  0
   25.1390   37.6800    6.3900 H   0  0  0  0  0  0  0  0  0  0  0  0
   24.6730   40.3800    6.6160 C   0  0  0  0  0  0  0  0  0  0  0  0
   26.8110   40.2150    7.5580 O   0  0  0  0  0  0  0  0  0  0  0  0
   25.6040   36.3730   10.4200 O   0  0  0  0  0  0  0  0  0  0  0  0
   25.0420   36.8570   11.0740 H   0  0  0  0  0  0  0  0  0  0  0  0
   28.3300   38.4720    9.8820 O   0  0  0  0  0  0  0  0  0  0  0  0
   29.0670   37.8900   10.1930 H   0  0  0  0  0  0  0  0  0  0  0  0
   28.4040   36.6720   11.9590 N   0  0  0  0  0  0  0  0  0  0  0  0
   28.2000   35.3000   12.2790 C   0  0  0  0  0  0  0  0  0  0  0  0
   29.4190   36.9400   11.7870 H   0  0  0  0  0  0  0  0  0  0  0  0
   27.0530   34.8710   12.5000 O   0  0  0  0  0  0  0  0  0  0  0  0
   29.2740   34.4090   12.3520 O   0  0  0  0  0  0  0  0  0  0  0  0
   30.1860   34.5060   13.4580 C   0  0  0  0  0  0  0  0  0  0  0  0
   29.4890   34.0250   14.6770 C   0  0  0  0  0  0  0  0  0  0  0  0
   29.4370   32.7100   15.1080 C   0  0  0  0  0  0  0  0  0  0  0  0
   28.8030   34.7250   15.5690 N   0  0  0  0  0  0  0  0  0  0  0  0
   28.7290   32.6420   16.2370 N   0  0  0  0  0  0  0  0  0  0  0  0
   28.3590   33.9100   16.4840 N   0  0  0  0  0  0  0  0  0  0  0  0
   28.4030   31.5210   17.0480 C   0  0  0  0  0  0  0  0  0  0  0  0
   29.1990   31.1830   18.1190 C   0  0  0  0  0  0  0  0  0  0  0  0
   27.2890   30.7350   16.7960 C   0  0  0  0  0  0  0  0  0  0  0  0
   30.3940   32.0070   18.4110 C   0  0  0  0  0  0  0  0  0  0  0  0
   28.8740   30.0770   18.9160 C   0  0  0  0  0  0  0  0  0  0  0  0
   26.9770   29.6470   17.5870 C   0  0  0  0  0  0  0  0  0  0  0  0
   26.4300   31.1200   15.6200 C   0  0  0  0  0  0  0  0  0  0  0  0
   27.7660   29.2980   18.6620 C   0  0  0  0  0  0  0  0  0  0  0  0
   27.4410   28.1240   19.5270 C   0  0  0  0  0  0  0  0  0  0  0  0
   29.8670   25.5550   16.9770 C   0  0  0  0  0  0  0  0  0  0  0  0
   28.3450   25.7220   17.0260 C   0  0  0  0  0  0  0  0  0  0  0  0
   27.6010   24.4050   16.8710 C   0  0  0  0  0  0  0  0  0  0  0  0
   26.5390   24.2270   17.9210 C   0  0  0  0  0  0  0  0  0  0  0  0
   25.1620   24.3030   17.2700 C   0  0  0  0  0  0  0  0  0  0  0  0
   24.1090   24.4600   18.3010 N   0  0  0  0  0  0  0  0  0  0  0  0
  1 27  1  0  0  0  0
  2  1  1  1  0  0  0
  3 23  1  1  0  0  0
  3  2  1  0  0  0  0
  4  7  1  0  0  0  0
  4  3  1  1  0  0  0
  5 10  1  1  0  0  0
  5 12  1  0  0  0  0
  5  7  1  0  0  0  0
  6  5  1  0  0  0  0
  8 16  1  6  0  0  0
  8  6  1  0  0  0  0
  8  9  1  0  0  0  0
  9 18  1  6  0  0  0
  9  4  1  0  0  0  0
 10 11  1  0  0  0  0
 12 13  2  0  0  0  0
 14 12  1  0  0  0  0
 15 14  1  0  0  0  0
 17 16  1  0  0  0  0
 18 19  1  0  0  0  0
 19 22  2  0  0  0  0
 20 18  1  0  0  0  0
 21 19  1  0  0  0  0
 23 24  1  0  0  0  0
 25 26  1  0  0  0  0
 25  2  1  0  0  0  0
 27 28  1  0  0  0  0
 28 31  1  0  0  0  0
 28 30  2  0  0  0  0
 29 27  1  0  0  0  0
 31 32  1  0  0  0  0
 32 33  1  0  0  0  0
 33 34  2  0  0  0  0
 33 35  1  0  0  0  0
 34 36  1  0  0  0  0
 35 37  2  0  0  0  0
 36 37  1  0  0  0  0
 36 38  1  0  0  0  0
 38 39  1  0  0  0  0
 39 41  1  0  0  0  0
 39 42  2  0  0  0  0
 40 38  2  0  0  0  0
 40 43  1  0  0  0  0
 43 45  2  0  0  0  0
 44 40  1  0  0  0  0
 45 42  1  0  0  0  0
 45 46  1  0  0  0  0
 47 48  1  0  0  0  0
 49 48  1  0  0  0  0
 49 50  1  0  0  0  0
 51 50  1  0  0  0  0
 51 52  1  0  0  0  0
M  END
>  <REMARK>
 VINA RESULT:    -4.712      5.769     12.270
 INTER + INTRA:         -14.072
 INTER:                 -10.345
 INTRA:                  -3.726
 UNBOUND:                -5.917
 SMILES CC(=O)N[C@@H]1[C@@H](O)C[C@](O)(C(=O)O)O[C@H]1C(O)[C@H](O)CNC(=O)OCc1cn(-c2c(C)cc(C)cc2C)nn1
 SMILES IDX 20 1 18 2 16 3 15 4 9 5 8 6 14 7 6 8 5 9 10 10 11 12 12 13
 SMILES IDX 13 14 7 16 4 18 2 19 1 21 3 22 17 23 19 25 21 27 22 28 23 30
 SMILES IDX 24 31 25 32 26 33 27 34 39 35 28 36 38 37 29 38 30 39 36 40
 SMILES IDX 31 41 32 42 35 43 37 44 33 45 34 46
 H PARENT 10 11 13 15 7 17 4 20 17 24 19 26 21 29
 Flexibility Score: inf
  4 active torsions:
  status: ('A' for Active; 'I' for Inactive)
    1  A    between atoms: CA   and  CB  
    2  A    between atoms: CB   and  CG  
    3  A    between atoms: CG   and  CD  
    4  A    between atoms: CD   and  CE  

>  <TORSDO>
F 15

>  <BEGIN_>
RES LYS A 131

$$$$
ligand_7_pose_10_2HRL.pdbqt
 OpenBabel07062320523D

  6  5  0  0  0  0  0  0  0  0999 V2000
   33.1930   34.6630    9.2900 C   0  0  0  0  0  0  0  0  0  0  0  0
   32.0600   35.3600   10.0340 C   0  0  0  0  0  0  0  0  0  0  0  0
   32.5190   36.1330   11.2430 C   0  0  0  0  0  0  0  0  0  0  0  0
   31.9240   37.5330   11.2430 C   0  0  0  0  0  0  0  0  0  0  0  0
   31.4950   37.9290   12.6430 C   0  0  0  0  0  0  0  0  0  0  0  0
   30.7980   39.2450   12.6380 N   0  0  0  0  0  0  0  0  0  0  0  0
  1  2  1  0  0  0  0
  2  3  1  0  0  0  0
  3  4  1  0  0  0  0
  4  5  1  0  0  0  0
  6  5  1  0  0  0  0
M  END
>  <EGIN_R>
ES LYS A 135

>  <REMARK>
  4 active torsions:
  status: ('A' for Active; 'I' for Inactive)
    5  A    between atoms: CA   and  CB  
    6  A    between atoms: CB   and  CG  
    7  A    between atoms: CG   and  CD  
    8  A    between atoms: CD   and  CE  

$$$$
