ligand_82_pose_19_2HRL.pdbqt
 OpenBabel07062320523D

 53 55  0  0  1  0  0  0  0  0999 V2000
   25.0810   33.0660   13.3250 N   0  0  0  0  0  0  0  0  0  0  0  0
   24.3890   31.9720   13.9480 C   0  0  0  0  0  0  0  0  0  0  0  0
   23.2180   32.1620   14.3660 O   0  0  0  0  0  0  0  0  0  0  0  0
   26.0520   32.9140   12.9770 H   0  0  0  0  0  0  0  0  0  0  0  0
   24.4250   34.3500   13.1930 C   0  0  0  0  0  0  0  0  0  0  0  0
   23.7700   34.4040   11.8430 C   0  0  2  0  0  0  0  0  0  0  0  0
   23.9530   35.7460   11.1690 C   0  0  1  0  0  0  0  0  0  0  0  0
   23.8250   35.5210    9.6810 C   0  0  2  0  0  0  0  0  0  0  0  0
   25.0040   37.2450    8.6790 C   0  0  2  0  0  0  0  0  0  0  0  0
   23.7930   37.7950    7.9600 C   0  0  0  0  0  0  0  0  0  0  0  0
   24.9170   35.9030    8.9580 O   0  0  0  0  0  0  0  0  0  0  0  0
   22.7990   36.6720    7.7990 C   0  0  1  0  0  0  0  0  0  0  0  0
   22.5270   36.1150    9.1820 C   0  0  1  0  0  0  0  0  0  0  0  0
   25.2600   38.0180    9.8160 O   0  0  0  0  0  0  0  0  0  0  0  0
   26.2430   37.9610    9.9650 H   0  0  0  0  0  0  0  0  0  0  0  0
   26.1680   37.4360    7.7640 C   0  0  0  0  0  0  0  0  0  0  0  0
   27.2620   37.8960    8.2390 O   0  0  0  0  0  0  0  0  0  0  0  0
   26.1210   37.1370    6.4200 O   0  0  0  0  0  0  0  0  0  0  0  0
   25.6330   37.7310    5.7550 H   0  0  0  0  0  0  0  0  0  0  0  0
   21.6020   37.0990    7.2570 O   0  0  0  0  0  0  0  0  0  0  0  0
   21.4620   36.5980    6.4140 H   0  0  0  0  0  0  0  0  0  0  0  0
   21.4410   35.1690    9.1730 N   0  0  0  0  0  0  0  0  0  0  0  0
   20.1280   35.5350    9.5650 C   0  0  0  0  0  0  0  0  0  0  0  0
   21.6450   34.1930    8.8660 H   0  0  0  0  0  0  0  0  0  0  0  0
   19.0660   34.4940    9.5250 C   0  0  0  0  0  0  0  0  0  0  0  0
   19.8770   36.7090    9.9350 O   0  0  0  0  0  0  0  0  0  0  0  0
   22.9500   36.6330   11.5520 O   0  0  0  0  0  0  0  0  0  0  0  0
   23.2280   37.2590   12.2410 H   0  0  0  0  0  0  0  0  0  0  0  0
   22.3890   34.2050   12.0590 O   0  0  0  0  0  0  0  0  0  0  0  0
   21.8970   35.0670   11.9570 H   0  0  0  0  0  0  0  0  0  0  0  0
   24.9460   30.7320   14.1070 O   0  0  0  0  0  0  0  0  0  0  0  0
   25.0260   30.0500   15.3460 C   0  0  0  0  0  0  0  0  0  0  0  0
   26.1680   30.5550   16.1330 C   0  0  0  0  0  0  0  0  0  0  0  0
   27.5030   30.2530   16.0050 C   0  0  0  0  0  0  0  0  0  0  0  0
   26.0860   31.4300   17.1460 N   0  0  0  0  0  0  0  0  0  0  0  0
   28.2100   30.9510   16.9440 N   0  0  0  0  0  0  0  0  0  0  0  0
   27.3140   31.6560   17.6190 N   0  0  0  0  0  0  0  0  0  0  0  0
   29.6400   30.8910   17.1170 C   0  0  0  0  0  0  0  0  0  0  0  0
   30.2880   32.1880   16.7150 C   0  0  0  0  0  0  0  0  0  0  0  0
   30.7720   33.0290   17.6250 C   0  0  0  0  0  0  0  0  0  0  0  0
   30.4090   32.5750   15.2960 C   0  0  2  0  0  0  0  0  0  0  0  0
   31.6140   34.1670   17.1650 C   0  0  0  0  0  0  0  0  0  0  0  0
   31.8930   32.9000   15.0700 C   0  0  0  0  0  0  0  0  0  0  0  0
   30.1520   34.0620   15.1590 C   0  0  0  0  0  0  0  0  0  0  0  0
   31.5870   34.2620   15.6710 C   0  0  1  0  0  0  0  0  0  0  0  0
   30.0470   34.5360   13.7370 C   0  0  0  0  0  0  0  0  0  0  0  0
   29.0890   34.6250   16.0400 C   0  0  0  0  0  0  0  0  0  0  0  0
   29.8670   25.5550   16.9770 C   0  0  0  0  0  0  0  0  0  0  0  0
   28.3450   25.7220   17.0260 C   0  0  0  0  0  0  0  0  0  0  0  0
   27.6010   24.4030   16.8870 C   0  0  0  0  0  0  0  0  0  0  0  0
   26.4210   24.3170   17.8150 C   0  0  0  0  0  0  0  0  0  0  0  0
   25.6690   23.0150   17.5630 C   0  0  0  0  0  0  0  0  0  0  0  0
   24.2760   23.2930   17.1410 N   0  0  0  0  0  0  0  0  0  0  0  0
  1  2  1  0  0  0  0
  2 31  1  0  0  0  0
  2  3  2  0  0  0  0
  4  1  1  0  0  0  0
  5  1  1  0  0  0  0
  6 29  1  0  0  0  0
  6  5  1  1  0  0  0
  7 27  1  1  0  0  0
  7  6  1  0  0  0  0
  8  7  1  1  0  0  0
  9 16  1  6  0  0  0
  9 11  1  0  0  0  0
  9 14  1  0  0  0  0
 10  9  1  0  0  0  0
 11  8  1  0  0  0  0
 12 20  1  1  0  0  0
 12 10  1  0  0  0  0
 12 13  1  0  0  0  0
 13 22  1  6  0  0  0
 13  8  1  0  0  0  0
 14 15  1  0  0  0  0
 16 17  2  0  0  0  0
 18 16  1  0  0  0  0
 19 18  1  0  0  0  0
 21 20  1  0  0  0  0
 22 23  1  0  0  0  0
 23 26  2  0  0  0  0
 24 22  1  0  0  0  0
 25 23  1  0  0  0  0
 27 28  1  0  0  0  0
 30 29  1  0  0  0  0
 31 32  1  0  0  0  0
 32 33  1  0  0  0  0
 33 35  1  0  0  0  0
 34 33  2  0  0  0  0
 34 36  1  0  0  0  0
 35 37  2  0  0  0  0
 36 38  1  0  0  0  0
 36 37  1  0  0  0  0
 39 38  1  0  0  0  0
 39 40  2  0  0  0  0
 41 43  1  1  0  0  0
 41 39  1  0  0  0  0
 42 40  1  0  0  0  0
 44 41  1  0  0  0  0
 44 45  1  0  0  0  0
 44 47  1  0  0  0  0
 45 43  1  6  0  0  0
 45 42  1  0  0  0  0
 46 44  1  0  0  0  0
 48 49  1  0  0  0  0
 50 49  1  0  0  0  0
 50 51  1  0  0  0  0
 52 51  1  0  0  0  0
 53 52  1  0  0  0  0
M  END
>  <REMARK>
 VINA RESULT:    -5.207      5.659     10.578
 INTER + INTRA:         -14.652
 INTER:                  -9.316
 INTRA:                  -5.337
 UNBOUND:                -5.337
 SMILES CC(=O)N[C@@H]1[C@@H](O)C[C@](O)(C(=O)O)O[C@H]1C(O)[C@H](O)CNC(=O)OCc1cn(CC2=CC[C@H]3C[C@@H]2C3(C)C)nn1
 SMILES IDX 21 1 22 2 23 3 20 5 18 6 16 7 15 8 9 9 8 10 14 11 6 12 5 13
 SMILES IDX 10 14 11 16 12 17 13 18 7 20 4 22 2 23 1 25 3 26 17 27 19 29
 SMILES IDX 24 31 25 32 26 33 27 34 40 35 28 36 39 37 29 38 30 39 31 40
 SMILES IDX 35 41 32 42 34 43 36 44 33 45 37 46 38 47
 H PARENT 21 4 10 15 13 19 7 21 4 24 17 28 19 30
 Flexibility Score: inf
  4 active torsions:
  status: ('A' for Active; 'I' for Inactive)
    1  A    between atoms: CA   and  CB  
    2  A    between atoms: CB   and  CG  
    3  A    between atoms: CG   and  CD  
    4  A    between atoms: CD   and  CE  

>  <TORSDO>
F 16

>  <BEGIN_>
RES LYS A 131

$$$$
ligand_82_pose_19_2HRL.pdbqt
 OpenBabel07062320523D

  6  5  0  0  0  0  0  0  0  0999 V2000
   33.1930   34.6630    9.2900 C   0  0  0  0  0  0  0  0  0  0  0  0
   32.0600   35.3600   10.0340 C   0  0  0  0  0  0  0  0  0  0  0  0
   30.7860   35.4590    9.2350 C   0  0  0  0  0  0  0  0  0  0  0  0
   30.1950   34.0780    8.9940 C   0  0  0  0  0  0  0  0  0  0  0  0
   28.7120   34.0710    9.3110 C   0  0  0  0  0  0  0  0  0  0  0  0
   28.3690   35.1290   10.3010 N   0  0  0  0  0  0  0  0  0  0  0  0
  1  2  1  0  0  0  0
  3  2  1  0  0  0  0
  4  3  1  0  0  0  0
  4  5  1  0  0  0  0
  5  6  1  0  0  0  0
M  END
>  <EGIN_R>
ES LYS A 135

>  <REMARK>
  4 active torsions:
  status: ('A' for Active; 'I' for Inactive)
    5  A    between atoms: CA   and  CB  
    6  A    between atoms: CB   and  CG  
    7  A    between atoms: CG   and  CD  
    8  A    between atoms: CD   and  CE  

$$$$
