ligand_66_pose_15_2HRL.pdbqt
 OpenBabel07062320523D

 52 53  0  0  1  0  0  0  0  0999 V2000
   25.1480   29.0270   19.5290 N   0  0  0  0  0  0  0  0  0  0  0  0
   25.1080   28.8430   18.1430 C   0  0  0  0  0  0  0  0  0  0  0  0
   25.1860   27.7010   17.6470 O   0  0  0  0  0  0  0  0  0  0  0  0
   25.0710   30.0300   19.8770 H   0  0  0  0  0  0  0  0  0  0  0  0
   25.2820   27.9530   20.4780 C   0  0  0  0  0  0  0  0  0  0  0  0
   26.7140   27.6020   20.7700 C   0  0  2  0  0  0  0  0  0  0  0  0
   27.6590   28.7380   20.8240 C   0  0  2  0  0  0  0  0  0  0  0  0
   29.0170   28.4250   21.4720 C   0  0  2  0  0  0  0  0  0  0  0  0
   31.1020   27.6580   20.9660 C   0  0  2  0  0  0  0  0  0  0  0  0
   30.9080   26.4350   21.8400 C   0  0  0  0  0  0  0  0  0  0  0  0
   29.8660   28.0410   20.5130 O   0  0  0  0  0  0  0  0  0  0  0  0
   30.0530   26.7510   23.0370 C   0  0  1  0  0  0  0  0  0  0  0  0
   28.8670   27.6060   22.6970 C   0  0  1  0  0  0  0  0  0  0  0  0
   31.9020   27.2690   19.8620 O   0  0  0  0  0  0  0  0  0  0  0  0
   31.2410   26.9510   19.1830 H   0  0  0  0  0  0  0  0  0  0  0  0
   31.8730   28.6660   21.7000 C   0  0  0  0  0  0  0  0  0  0  0  0
   32.7190   28.3550   22.5690 O   0  0  0  0  0  0  0  0  0  0  0  0
   31.7260   30.0530   21.4930 O   0  0  0  0  0  0  0  0  0  0  0  0
   32.5360   30.5110   21.0670 H   0  0  0  0  0  0  0  0  0  0  0  0
   29.6340   25.5390   23.5870 O   0  0  0  0  0  0  0  0  0  0  0  0
   28.8540   25.6410   24.1720 H   0  0  0  0  0  0  0  0  0  0  0  0
   28.5460   28.4350   23.8420 N   0  0  0  0  0  0  0  0  0  0  0  0
   27.3480   28.2460   24.6230 C   0  0  0  0  0  0  0  0  0  0  0  0
   29.1480   29.2250   24.1860 H   0  0  0  0  0  0  0  0  0  0  0  0
   27.0590   29.1290   25.7970 C   0  0  0  0  0  0  0  0  0  0  0  0
   26.5430   27.3420   24.3240 O   0  0  0  0  0  0  0  0  0  0  0  0
   27.1500   29.8480   21.5010 O   0  0  0  0  0  0  0  0  0  0  0  0
   27.2870   30.6950   21.0100 H   0  0  0  0  0  0  0  0  0  0  0  0
   27.0790   26.5530   19.9280 O   0  0  0  0  0  0  0  0  0  0  0  0
   27.0750   26.8940   19.0000 H   0  0  0  0  0  0  0  0  0  0  0  0
   24.9850   29.9040   17.2450 O   0  0  0  0  0  0  0  0  0  0  0  0
   25.1230   31.2150   17.7310 C   0  0  0  0  0  0  0  0  0  0  0  0
   26.4860   31.3830   18.2740 C   0  0  0  0  0  0  0  0  0  0  0  0
   27.6750   30.9340   17.7440 C   0  0  0  0  0  0  0  0  0  0  0  0
   26.8070   32.0250   19.4120 N   0  0  0  0  0  0  0  0  0  0  0  0
   28.6730   31.3120   18.5650 N   0  0  0  0  0  0  0  0  0  0  0  0
   28.1000   31.9720   19.5640 N   0  0  0  0  0  0  0  0  0  0  0  0
   30.0930   31.1070   18.4660 C   0  0  0  0  0  0  0  0  0  0  0  0
   30.6980   32.0520   17.4690 C   0  0  0  0  0  0  0  0  0  0  0  0
   30.7660   31.6950   16.1410 C   0  0  0  0  0  0  0  0  0  0  0  0
   31.1850   33.2760   17.8410 C   0  0  0  0  0  0  0  0  0  0  0  0
   31.3220   32.5750   15.2050 C   0  0  0  0  0  0  0  0  0  0  0  0
   31.7390   34.1680   16.9460 C   0  0  0  0  0  0  0  0  0  0  0  0
   31.8060   33.8120   15.6190 C   0  0  0  0  0  0  0  0  0  0  0  0
   32.2540   35.4550   17.3110 C   0  0  0  0  0  0  0  0  0  0  0  0
   32.6680   36.5000   17.6260 N   0  0  0  0  0  0  0  0  0  0  0  0
   29.8670   25.5550   16.9770 C   0  0  0  0  0  0  0  0  0  0  0  0
   28.3450   25.7220   17.0260 C   0  0  0  0  0  0  0  0  0  0  0  0
   27.6020   24.4000   16.9100 C   0  0  0  0  0  0  0  0  0  0  0  0
   26.1530   24.5290   17.2940 C   0  0  0  0  0  0  0  0  0  0  0  0
   25.7960   23.4440   18.3040 C   0  0  0  0  0  0  0  0  0  0  0  0
   24.9980   22.3760   17.6580 N   0  0  0  0  0  0  0  0  0  0  0  0
  1  4  1  0  0  0  0
  1  5  1  0  0  0  0
  2  1  1  0  0  0  0
  3  2  2  0  0  0  0
  6  5  1  6  0  0  0
  6  7  1  0  0  0  0
  7 27  1  1  0  0  0
  8  7  1  6  0  0  0
  8 13  1  0  0  0  0
  9 14  1  6  0  0  0
  9 16  1  0  0  0  0
  9 10  1  0  0  0  0
 10 12  1  0  0  0  0
 11  9  1  0  0  0  0
 11  8  1  0  0  0  0
 12 20  1  6  0  0  0
 13 12  1  0  0  0  0
 13 22  1  1  0  0  0
 15 14  1  0  0  0  0
 16 17  2  0  0  0  0
 18 16  1  0  0  0  0
 19 18  1  0  0  0  0
 20 21  1  0  0  0  0
 22 24  1  0  0  0  0
 22 23  1  0  0  0  0
 23 25  1  0  0  0  0
 26 23  2  0  0  0  0
 28 27  1  0  0  0  0
 29  6  1  0  0  0  0
 30 29  1  0  0  0  0
 31 32  1  0  0  0  0
 31  2  1  0  0  0  0
 32 33  1  0  0  0  0
 33 35  1  0  0  0  0
 34 33  2  0  0  0  0
 34 36  1  0  0  0  0
 35 37  2  0  0  0  0
 36 37  1  0  0  0  0
 38 36  1  0  0  0  0
 39 41  1  0  0  0  0
 39 38  1  0  0  0  0
 40 39  2  0  0  0  0
 42 44  2  0  0  0  0
 42 40  1  0  0  0  0
 43 45  1  0  0  0  0
 43 41  2  0  0  0  0
 44 43  1  0  0  0  0
 45 46  3  0  0  0  0
 47 48  1  0  0  0  0
 49 48  1  0  0  0  0
 49 50  1  0  0  0  0
 50 51  1  0  0  0  0
 52 51  1  0  0  0  0
M  END
>  <REMARK>
 VINA RESULT:    -4.912      4.591      8.702
 INTER + INTRA:         -14.288
 INTER:                  -8.410
 INTRA:                  -5.878
 UNBOUND:                -5.212
 SMILES CC(=O)N[C@@H]1[C@@H](O)C[C@](O)(C(=O)O)O[C@H]1C(O)[C@H](O)CNC(=O)OCc1cn(Cc2cccc(C#N)c2)nn1
 SMILES IDX 21 1 22 2 23 3 20 5 18 6 16 7 15 8 9 9 8 10 14 11 6 12 5 13
 SMILES IDX 10 14 11 16 12 17 13 18 7 20 4 22 2 23 1 25 3 26 17 27 19 29
 SMILES IDX 24 31 25 32 26 33 27 34 39 35 28 36 38 37 29 38 30 39 31 40
 SMILES IDX 37 41 32 42 34 43 33 44 35 45 36 46
 H PARENT 21 4 10 15 13 19 7 21 4 24 17 28 19 30
 Flexibility Score: inf
  4 active torsions:
  status: ('A' for Active; 'I' for Inactive)
    1  A    between atoms: CA   and  CB  
    2  A    between atoms: CB   and  CG  
    3  A    between atoms: CG   and  CD  
    4  A    between atoms: CD   and  CE  

>  <TORSDO>
F 17

>  <BEGIN_>
RES LYS A 131

$$$$
ligand_66_pose_15_2HRL.pdbqt
 OpenBabel07062320523D

  6  5  0  0  0  0  0  0  0  0999 V2000
   33.1930   34.6630    9.2900 C   0  0  0  0  0  0  0  0  0  0  0  0
   32.0600   35.3600   10.0340 C   0  0  0  0  0  0  0  0  0  0  0  0
   30.7590   35.3740    9.2740 C   0  0  0  0  0  0  0  0  0  0  0  0
   29.9010   34.1780    9.6570 C   0  0  0  0  0  0  0  0  0  0  0  0
   28.6110   34.1710    8.8590 C   0  0  0  0  0  0  0  0  0  0  0  0
   28.7130   35.0560    7.6660 N   0  0  0  0  0  0  0  0  0  0  0  0
  1  2  1  0  0  0  0
  3  4  1  0  0  0  0
  3  2  1  0  0  0  0
  5  4  1  0  0  0  0
  6  5  1  0  0  0  0
M  END
>  <EGIN_R>
ES LYS A 135

>  <REMARK>
  4 active torsions:
  status: ('A' for Active; 'I' for Inactive)
    5  A    between atoms: CA   and  CB  
    6  A    between atoms: CB   and  CG  
    7  A    between atoms: CG   and  CD  
    8  A    between atoms: CD   and  CE  

$$$$
