ligand_43_pose_11_2HRL.pdbqt
 OpenBabel07062320523D

 49 49  0  0  1  0  0  0  0  0999 V2000
   32.5700   34.4060   14.4770 O   0  0  0  0  0  0  0  0  0  0  0  0
   31.9450   33.6670   15.4640 C   0  0  0  0  0  0  0  0  0  0  0  0
   31.3670   32.4140   15.0760 N   0  0  0  0  0  0  0  0  0  0  0  0
   31.4430   32.1210   14.0830 H   0  0  0  0  0  0  0  0  0  0  0  0
   31.8820   34.0740   16.6690 O   0  0  0  0  0  0  0  0  0  0  0  0
   30.7000   31.5730   16.0120 C   0  0  0  0  0  0  0  0  0  0  0  0
   29.2720   31.2080   15.6020 C   0  0  2  0  0  0  0  0  0  0  0  0
   28.4200   32.3910   15.9880 C   0  0  2  0  0  0  0  0  0  0  0  0
   26.9950   32.0470   16.2730 C   0  0  2  0  0  0  0  0  0  0  0  0
   25.1380   31.5820   14.9600 C   0  0  2  0  0  0  0  0  0  0  0  0
   24.3710   31.8230   16.2440 C   0  0  0  0  0  0  0  0  0  0  0  0
   26.4670   31.3180   15.2410 O   0  0  0  0  0  0  0  0  0  0  0  0
   24.8030   33.1670   16.7820 C   0  0  1  0  0  0  0  0  0  0  0  0
   26.2630   33.3840   16.4570 C   0  0  1  0  0  0  0  0  0  0  0  0
   24.9830   32.6450   14.0760 O   0  0  0  0  0  0  0  0  0  0  0  0
   24.5170   32.3450   13.2630 H   0  0  0  0  0  0  0  0  0  0  0  0
   24.5330   30.3890   14.3160 C   0  0  0  0  0  0  0  0  0  0  0  0
   24.4300   30.2790   13.0670 O   0  0  0  0  0  0  0  0  0  0  0  0
   24.0390   29.3070   15.0640 O   0  0  0  0  0  0  0  0  0  0  0  0
   24.0800   29.3830   16.0770 H   0  0  0  0  0  0  0  0  0  0  0  0
   24.0800   34.1590   16.1470 O   0  0  0  0  0  0  0  0  0  0  0  0
   23.8350   34.8630   16.7970 H   0  0  0  0  0  0  0  0  0  0  0  0
   26.9450   34.1160   17.5090 N   0  0  0  0  0  0  0  0  0  0  0  0
   27.0390   35.5370   17.5350 C   0  0  0  0  0  0  0  0  0  0  0  0
   27.4130   33.6210   18.3190 H   0  0  0  0  0  0  0  0  0  0  0  0
   27.7450   36.2790   18.6220 C   0  0  0  0  0  0  0  0  0  0  0  0
   26.4920   36.1580   16.5820 O   0  0  0  0  0  0  0  0  0  0  0  0
   28.5520   33.3210   14.9440 O   0  0  0  0  0  0  0  0  0  0  0  0
   28.3990   34.2480   15.2570 H   0  0  0  0  0  0  0  0  0  0  0  0
   28.8680   30.0180   16.1700 O   0  0  0  0  0  0  0  0  0  0  0  0
   29.3040   29.7810   17.0050 H   0  0  0  0  0  0  0  0  0  0  0  0
   32.0760   35.6700   14.1170 C   0  0  0  0  0  0  0  0  0  0  0  0
   30.7960   35.4360   13.3710 C   0  0  0  0  0  0  0  0  0  0  0  0
   29.7550   36.3500   13.3200 C   0  0  0  0  0  0  0  0  0  0  0  0
   30.3960   34.3890   12.6500 N   0  0  0  0  0  0  0  0  0  0  0  0
   28.7710   35.8290   12.5760 N   0  0  0  0  0  0  0  0  0  0  0  0
   29.1860   34.6410   12.1830 N   0  0  0  0  0  0  0  0  0  0  0  0
   27.4760   36.3950   12.2260 C   0  0  0  0  0  0  0  0  0  0  0  0
   27.2330   36.2420   10.7480 C   0  0  0  0  0  0  0  0  0  0  0  0
   26.2380   35.1440   10.4640 C   0  0  0  0  0  0  0  0  0  0  0  0
   24.8140   35.6050   10.6280 C   0  0  0  0  0  0  0  0  0  0  0  0
   24.0990   35.5180    9.3350 C   0  0  0  0  0  0  0  0  0  0  0  0
   23.0990   36.3100    9.0180 C   0  0  0  0  0  0  0  0  0  0  0  0
   29.8670   25.5550   16.9770 C   0  0  0  0  0  0  0  0  0  0  0  0
   28.3450   25.7220   17.0260 C   0  0  0  0  0  0  0  0  0  0  0  0
   27.6010   24.4020   16.8920 C   0  0  0  0  0  0  0  0  0  0  0  0
   26.1440   24.5350   17.2380 C   0  0  0  0  0  0  0  0  0  0  0  0
   25.5680   23.1590   17.5520 C   0  0  0  0  0  0  0  0  0  0  0  0
   24.1630   23.0670   17.0900 N   0  0  0  0  0  0  0  0  0  0  0  0
  1  2  1  0  0  0  0
  2  5  2  0  0  0  0
  3  2  1  0  0  0  0
  3  6  1  0  0  0  0
  4  3  1  0  0  0  0
  7  8  1  0  0  0  0
  7  6  1  1  0  0  0
  7 30  1  0  0  0  0
  8 28  1  6  0  0  0
  9  8  1  6  0  0  0
  9 14  1  0  0  0  0
 10 15  1  6  0  0  0
 10 12  1  0  0  0  0
 10 11  1  0  0  0  0
 11 13  1  0  0  0  0
 12  9  1  0  0  0  0
 13 21  1  6  0  0  0
 14 13  1  0  0  0  0
 14 23  1  1  0  0  0
 16 15  1  0  0  0  0
 17 10  1  0  0  0  0
 17 19  1  0  0  0  0
 18 17  2  0  0  0  0
 19 20  1  0  0  0  0
 21 22  1  0  0  0  0
 23 24  1  0  0  0  0
 23 25  1  0  0  0  0
 24 26  1  0  0  0  0
 27 24  2  0  0  0  0
 28 29  1  0  0  0  0
 30 31  1  0  0  0  0
 32  1  1  0  0  0  0
 33 32  1  0  0  0  0
 34 33  2  0  0  0  0
 35 33  1  0  0  0  0
 36 34  1  0  0  0  0
 37 36  1  0  0  0  0
 37 35  2  0  0  0  0
 38 36  1  0  0  0  0
 39 38  1  0  0  0  0
 40 41  1  0  0  0  0
 40 39  1  0  0  0  0
 42 41  1  0  0  0  0
 43 42  2  0  0  0  0
 44 45  1  0  0  0  0
 46 45  1  0  0  0  0
 46 47  1  0  0  0  0
 47 48  1  0  0  0  0
 49 48  1  0  0  0  0
M  END
>  <REMARK>
 VINA RESULT:    -4.868      3.386      6.806
 INTER + INTRA:         -14.350
 INTER:                  -7.975
 INTRA:                  -6.374
 UNBOUND:                -4.785
 SMILES C=CCCCCn1cc(COC(=O)NC[C@@H](O)C(O)[C@@H]2O[C@@](O)(C(=O)O)C[C@H](O)[C@H]2NC(C)=O)nn1
 SMILES IDX 11 1 12 2 14 3 13 5 15 6 16 7 18 8 20 9 22 10 27 11 21 12
 SMILES IDX 28 13 30 14 23 15 24 17 25 18 26 19 29 21 31 23 32 24 33 26
 SMILES IDX 34 27 19 28 17 30 10 32 9 33 8 34 35 35 7 36 36 37 6 38 5 39
 SMILES IDX 4 40 3 41 2 42 1 43
 H PARENT 14 4 23 16 26 20 29 22 31 25 19 29 17 31
 Flexibility Score: inf
  4 active torsions:
  status: ('A' for Active; 'I' for Inactive)
    1  A    between atoms: CA   and  CB  
    2  A    between atoms: CB   and  CG  
    3  A    between atoms: CG   and  CD  
    4  A    between atoms: CD   and  CE  

>  <TORSDO>
F 19

>  <BEGIN_>
RES LYS A 131

$$$$
ligand_43_pose_11_2HRL.pdbqt
 OpenBabel07062320523D

  6  5  0  0  0  0  0  0  0  0999 V2000
   33.1930   34.6630    9.2900 C   0  0  0  0  0  0  0  0  0  0  0  0
   32.0600   35.3600   10.0340 C   0  0  0  0  0  0  0  0  0  0  0  0
   30.8780   35.6910    9.1590 C   0  0  0  0  0  0  0  0  0  0  0  0
   30.3880   34.4510    8.4280 C   0  0  0  0  0  0  0  0  0  0  0  0
   28.9510   34.6300    7.9790 C   0  0  0  0  0  0  0  0  0  0  0  0
   28.8670   35.5270    6.7940 N   0  0  0  0  0  0  0  0  0  0  0  0
  1  2  1  0  0  0  0
  3  2  1  0  0  0  0
  4  3  1  0  0  0  0
  5  4  1  0  0  0  0
  6  5  1  0  0  0  0
M  END
>  <EGIN_R>
ES LYS A 135

>  <REMARK>
  4 active torsions:
  status: ('A' for Active; 'I' for Inactive)
    5  A    between atoms: CA   and  CB  
    6  A    between atoms: CB   and  CG  
    7  A    between atoms: CG   and  CD  
    8  A    between atoms: CD   and  CE  

$$$$
