ligand_13_pose_3_2HRL.pdbqt
 OpenBabel07062320523D

 49 49  0  0  1  0  0  0  0  0999 V2000
   29.8180   30.6280   17.0310 N   0  0  0  0  0  0  0  0  0  0  0  0
   28.4180   30.5420   17.1990 C   0  0  0  0  0  0  0  0  0  0  0  0
   27.7470   31.4620   17.6770 O   0  0  0  0  0  0  0  0  0  0  0  0
   30.2520   29.7480   16.5960 H   0  0  0  0  0  0  0  0  0  0  0  0
   30.6480   31.7350   17.3790 C   0  0  0  0  0  0  0  0  0  0  0  0
   31.1380   32.5960   16.2660 C   0  0  2  0  0  0  0  0  0  0  0  0
   30.2420   33.7330   15.9280 C   0  0  1  0  0  0  0  0  0  0  0  0
   29.7430   33.7840   14.5100 C   0  0  2  0  0  0  0  0  0  0  0  0
   30.6790   35.5800   13.3410 C   0  0  2  0  0  0  0  0  0  0  0  0
   29.5610   35.6790   12.3260 C   0  0  0  0  0  0  0  0  0  0  0  0
   30.7960   34.2880   13.7500 O   0  0  0  0  0  0  0  0  0  0  0  0
   28.3490   35.0070   12.8560 C   0  0  1  0  0  0  0  0  0  0  0  0
   28.4840   34.5840   14.3280 C   0  0  1  0  0  0  0  0  0  0  0  0
   30.4110   36.5150   14.3230 O   0  0  0  0  0  0  0  0  0  0  0  0
   31.2310   36.6350   14.8560 H   0  0  0  0  0  0  0  0  0  0  0  0
   31.9230   35.9600   12.6330 C   0  0  0  0  0  0  0  0  0  0  0  0
   32.0470   37.1360   12.2310 O   0  0  0  0  0  0  0  0  0  0  0  0
   32.9320   35.0580   12.4120 O   0  0  0  0  0  0  0  0  0  0  0  0
   32.7490   34.0770   12.2000 H   0  0  0  0  0  0  0  0  0  0  0  0
   27.1860   35.7600   12.7190 O   0  0  0  0  0  0  0  0  0  0  0  0
   26.6290   35.4950   11.9600 H   0  0  0  0  0  0  0  0  0  0  0  0
   27.3010   33.7840   14.5700 N   0  0  0  0  0  0  0  0  0  0  0  0
   26.3300   34.0430   15.5530 C   0  0  0  0  0  0  0  0  0  0  0  0
   27.1620   32.9490   13.9600 H   0  0  0  0  0  0  0  0  0  0  0  0
   25.1250   33.2100   15.7830 C   0  0  0  0  0  0  0  0  0  0  0  0
   26.5120   35.0640   16.2870 O   0  0  0  0  0  0  0  0  0  0  0  0
   29.2360   33.8750   16.8530 O   0  0  0  0  0  0  0  0  0  0  0  0
   29.2280   34.7470   17.3220 H   0  0  0  0  0  0  0  0  0  0  0  0
   31.2120   31.7990   15.1040 O   0  0  0  0  0  0  0  0  0  0  0  0
   31.1430   32.3750   14.2860 H   0  0  0  0  0  0  0  0  0  0  0  0
   27.7170   29.3750   16.8170 O   0  0  0  0  0  0  0  0  0  0  0  0
   27.1310   28.5270   17.7860 C   0  0  0  0  0  0  0  0  0  0  0  0
   25.7090   28.3460   17.3940 C   0  0  0  0  0  0  0  0  0  0  0  0
   25.0160   28.9870   16.3940 C   0  0  0  0  0  0  0  0  0  0  0  0
   24.8010   27.4990   17.9540 N   0  0  0  0  0  0  0  0  0  0  0  0
   23.7420   28.5020   16.4010 N   0  0  0  0  0  0  0  0  0  0  0  0
   23.6460   27.6000   17.3610 N   0  0  0  0  0  0  0  0  0  0  0  0
   22.6520   28.8760   15.5310 C   0  0  0  0  0  0  0  0  0  0  0  0
   22.6690   30.3200   15.2520 C   0  0  0  0  0  0  0  0  0  0  0  0
   22.2150   31.1120   16.1070 O   0  0  0  0  0  0  0  0  0  0  0  0
   23.1950   30.7560   14.0360 O   0  0  0  0  0  0  0  0  0  0  0  0
   22.9020   29.9300   12.9040 C   0  0  0  0  0  0  0  0  0  0  0  0
   21.5360   30.3140   12.3940 C   0  0  0  0  0  0  0  0  0  0  0  0
   29.8670   25.5550   16.9770 C   0  0  0  0  0  0  0  0  0  0  0  0
   28.3450   25.7220   17.0260 C   0  0  0  0  0  0  0  0  0  0  0  0
   27.6030   24.3950   16.9810 C   0  0  0  0  0  0  0  0  0  0  0  0
   26.5360   24.3060   18.0370 C   0  0  0  0  0  0  0  0  0  0  0  0
   25.2100   23.9230   17.3890 C   0  0  0  0  0  0  0  0  0  0  0  0
   24.9500   22.4740   17.5570 N   0  0  0  0  0  0  0  0  0  0  0  0
  1  2  1  0  0  0  0
  1  5  1  0  0  0  0
  2  3  2  0  0  0  0
  4  1  1  0  0  0  0
  6  5  1  1  0  0  0
  7  6  1  0  0  0  0
  7 27  1  1  0  0  0
  8  7  1  1  0  0  0
  9 16  1  6  0  0  0
  9 11  1  0  0  0  0
  9 14  1  0  0  0  0
 10 12  1  0  0  0  0
 10  9  1  0  0  0  0
 11  8  1  0  0  0  0
 12 20  1  1  0  0  0
 12 13  1  0  0  0  0
 13  8  1  0  0  0  0
 13 22  1  6  0  0  0
 14 15  1  0  0  0  0
 17 16  2  0  0  0  0
 18 16  1  0  0  0  0
 19 18  1  0  0  0  0
 21 20  1  0  0  0  0
 22 23  1  0  0  0  0
 23 25  1  0  0  0  0
 23 26  2  0  0  0  0
 24 22  1  0  0  0  0
 27 28  1  0  0  0  0
 29  6  1  0  0  0  0
 30 29  1  0  0  0  0
 31  2  1  0  0  0  0
 31 32  1  0  0  0  0
 33 32  1  0  0  0  0
 33 35  1  0  0  0  0
 34 36  1  0  0  0  0
 34 33  2  0  0  0  0
 36 37  1  0  0  0  0
 37 35  2  0  0  0  0
 38 36  1  0  0  0  0
 39 38  1  0  0  0  0
 39 40  2  0  0  0  0
 41 39  1  0  0  0  0
 42 41  1  0  0  0  0
 43 42  1  0  0  0  0
 44 45  1  0  0  0  0
 46 45  1  0  0  0  0
 46 47  1  0  0  0  0
 48 49  1  0  0  0  0
 48 47  1  0  0  0  0
M  END
>  <REMARK>
 VINA RESULT:    -4.281      3.953      6.771
 INTER + INTRA:         -14.110
 INTER:                  -8.267
 INTRA:                  -5.843
 UNBOUND:                -5.949
 SMILES CCOC(=O)Cn1cc(COC(=O)NC[C@@H](O)C(O)[C@@H]2O[C@@](O)(C(=O)O)C[C@H](O)[C@H]2NC(C)=O)nn1
 SMILES IDX 14 1 12 2 13 3 15 5 16 6 18 7 20 8 22 9 27 10 21 11 28 12
 SMILES IDX 30 13 23 14 24 16 25 17 26 18 29 20 31 22 32 23 33 25 34 26
 SMILES IDX 19 27 17 29 11 31 10 32 9 33 8 34 35 35 7 36 36 37 6 38 4 39
 SMILES IDX 5 40 3 41 2 42 1 43
 H PARENT 14 4 23 15 26 19 29 21 31 24 19 28 17 30
 Flexibility Score: inf
  4 active torsions:
  status: ('A' for Active; 'I' for Inactive)
    1  A    between atoms: CA   and  CB  
    2  A    between atoms: CB   and  CG  
    3  A    between atoms: CG   and  CD  
    4  A    between atoms: CD   and  CE  

>  <TORSDO>
F 18

>  <BEGIN_>
RES LYS A 131

$$$$
ligand_13_pose_3_2HRL.pdbqt
 OpenBabel07062320523D

  6  5  0  0  0  0  0  0  0  0999 V2000
   33.1930   34.6630    9.2900 C   0  0  0  0  0  0  0  0  0  0  0  0
   32.0600   35.3600   10.0340 C   0  0  0  0  0  0  0  0  0  0  0  0
   30.8120   35.5320    9.2070 C   0  0  0  0  0  0  0  0  0  0  0  0
   30.2300   34.1800    8.8250 C   0  0  0  0  0  0  0  0  0  0  0  0
   28.7240   34.1790    9.0030 C   0  0  0  0  0  0  0  0  0  0  0  0
   28.0550   34.9540    7.9220 N   0  0  0  0  0  0  0  0  0  0  0  0
  1  2  1  0  0  0  0
  3  2  1  0  0  0  0
  4  5  1  0  0  0  0
  4  3  1  0  0  0  0
  6  5  1  0  0  0  0
M  END
>  <EGIN_R>
ES LYS A 135

>  <REMARK>
  4 active torsions:
  status: ('A' for Active; 'I' for Inactive)
    5  A    between atoms: CA   and  CB  
    6  A    between atoms: CB   and  CG  
    7  A    between atoms: CG   and  CD  
    8  A    between atoms: CD   and  CE  

$$$$
