ligand_69_pose_0_2HRL.pdbqt
 OpenBabel07062320523D

 54 51  0  0  1  0  0  0  0  0999 V2000
   28.3960   31.1530   16.6860 N   0  0  0  0  0  0  0  0  0  0  0  0
   27.4280   30.1200   16.5090 C   0  0  0  0  0  0  0  0  0  0  0  0
   27.7390   28.9380   16.2110 O   0  0  0  0  0  0  0  0  0  0  0  0
   28.1090   32.1250   16.9320 H   0  0  0  0  0  0  0  0  0  0  0  0
   29.7940   30.7610   16.5000 C   0  0  0  0  0  0  0  0  0  0  0  0
   30.5690   32.0400   16.2430 C   0  0  2  0  0  0  0  0  0  0  0  0
   29.6680   33.2270   15.9940 C   0  0  2  0  0  0  0  0  0  0  0  0
   30.0990   34.0320   14.8080 C   0  0  2  0  0  0  0  0  0  0  0  0
   31.5980   35.4860   13.8940 C   0  0  2  0  0  0  0  0  0  0  0  0
   30.7530   35.1770   12.6760 C   0  0  0  0  0  0  0  0  0  0  0  0
   31.3220   34.6300   14.9520 O   0  0  0  0  0  0  0  0  0  0  0  0
   29.2740   35.3400   12.9610 C   0  0  1  0  0  0  0  0  0  0  0  0
   29.0900   35.0950   14.4310 C   0  0  1  0  0  0  0  0  0  0  0  0
   31.4890   36.8230   14.2590 O   0  0  0  0  0  0  0  0  0  0  0  0
   31.7060   37.4340   13.5060 H   0  0  0  0  0  0  0  0  0  0  0  0
   33.0070   35.2400   13.5040 C   0  0  0  0  0  0  0  0  0  0  0  0
   33.8860   34.8770   14.3320 O   0  0  0  0  0  0  0  0  0  0  0  0
   33.3820   35.4120   12.1900 O   0  0  0  0  0  0  0  0  0  0  0  0
   33.4730   34.6600   11.5140 H   0  0  0  0  0  0  0  0  0  0  0  0
   28.9070   36.6020   12.5540 O   0  0  0  0  0  0  0  0  0  0  0  0
   28.2920   36.4940   11.7640 H   0  0  0  0  0  0  0  0  0  0  0  0
   27.7680   34.7970   14.8380 N   0  0  0  0  0  0  0  0  0  0  0  0
   26.8690   35.7040   15.4600 C   0  0  0  0  0  0  0  0  0  0  0  0
   27.4100   33.8320   14.6740 H   0  0  0  0  0  0  0  0  0  0  0  0
   25.4880   35.2910   15.8540 C   0  0  0  0  0  0  0  0  0  0  0  0
   27.2740   36.8650   15.6670 O   0  0  0  0  0  0  0  0  0  0  0  0
   29.4560   33.9580   17.1370 O   0  0  0  0  0  0  0  0  0  0  0  0
   28.6580   33.6070   17.5910 H   0  0  0  0  0  0  0  0  0  0  0  0
   31.3290   31.8900   15.0590 O   0  0  0  0  0  0  0  0  0  0  0  0
   32.2390   31.5330   15.2640 H   0  0  0  0  0  0  0  0  0  0  0  0
   26.0940   30.4090   16.6660 O   0  0  0  0  0  0  0  0  0  0  0  0
   25.0400   29.6190   16.1440 C   0  0  0  0  0  0  0  0  0  0  0  0
   24.5200   30.2770   14.9230 C   0  0  0  0  0  0  0  0  0  0  0  0
   24.4520   31.6180   14.6150 C   0  0  0  0  0  0  0  0  0  0  0  0
   24.0050   29.6180   13.8670 N   0  0  0  0  0  0  0  0  0  0  0  0
   23.9020   31.7430   13.3920 N   0  0  0  0  0  0  0  0  0  0  0  0
   23.6450   30.5020   12.9730 N   0  0  0  0  0  0  0  0  0  0  0  0
   23.6470   32.9970   12.6820 C   0  0  2  0  0  0  0  0  0  0  0  0
   24.8320   33.8800   12.8830 C   0  0  0  0  0  0  0  0  0  0  0  0
   24.8890   35.0650   11.9840 *   0  0  0  0  0  0  0  0  0  0  0  0
   26.1690   35.6630   11.9610 O   0  0  0  0  0  0  0  0  0  0  0  0
   26.7730   35.0850   11.4480 H   0  0  0  0  0  0  0  0  0  0  0  0
   22.3650   33.5560   13.1960 C   0  0  0  0  0  0  0  0  0  0  0  0
   21.7640   34.6270   12.3380 C   0  0  1  0  0  0  0  0  0  0  0  0
   22.5170   35.9000   12.3620 C   0  0  0  0  0  0  0  0  0  0  0  0
   23.8110   36.0820   12.2200 *   0  0  0  0  0  0  0  0  0  0  0  0
   21.5350   34.2000   11.0310 O   0  0  0  0  0  0  0  0  0  0  0  0
   20.7460   33.6040   10.9750 H   0  0  0  0  0  0  0  0  0  0  0  0
   29.8670   25.5550   16.9770 C   0  0  0  0  0  0  0  0  0  0  0  0
   28.3450   25.7220   17.0260 C   0  0  0  0  0  0  0  0  0  0  0  0
   27.6020   24.4000   16.9090 C   0  0  0  0  0  0  0  0  0  0  0  0
   26.1580   24.5250   17.3120 C   0  0  0  0  0  0  0  0  0  0  0  0
   25.8250   23.4550   18.3470 C   0  0  0  0  0  0  0  0  0  0  0  0
   25.2960   22.2390   17.6850 N   0  0  0  0  0  0  0  0  0  0  0  0
  1  4  1  0  0  0  0
  2 31  1  0  0  0  0
  2  1  1  0  0  0  0
  3  2  2  0  0  0  0
  5  1  1  0  0  0  0
  6  5  1  6  0  0  0
  7  6  1  0  0  0  0
  7 27  1  1  0  0  0
  8 11  1  0  0  0  0
  8  7  1  1  0  0  0
  9 16  1  6  0  0  0
  9 14  1  0  0  0  0
  9 11  1  0  0  0  0
 10 12  1  0  0  0  0
 10  9  1  0  0  0  0
 12 20  1  1  0  0  0
 12 13  1  0  0  0  0
 13  8  1  0  0  0  0
 13 22  1  6  0  0  0
 15 14  1  0  0  0  0
 16 17  2  0  0  0  0
 18 16  1  0  0  0  0
 19 18  1  0  0  0  0
 21 20  1  0  0  0  0
 22 23  1  0  0  0  0
 23 26  2  0  0  0  0
 23 25  1  0  0  0  0
 24 22  1  0  0  0  0
 27 28  1  0  0  0  0
 29 30  1  0  0  0  0
 29  6  1  0  0  0  0
 32 31  1  0  0  0  0
 33 32  1  0  0  0  0
 34 33  2  0  0  0  0
 35 33  1  0  0  0  0
 36 34  1  0  0  0  0
 37 36  1  0  0  0  0
 37 35  2  0  0  0  0
 38 39  1  1  0  0  0
 38 43  1  0  0  0  0
 38 36  1  0  0  0  0
 42 41  1  0  0  0  0
 44 45  1  6  0  0  0
 44 43  1  0  0  0  0
 47 44  1  0  0  0  0
 48 47  1  0  0  0  0
 49 50  1  0  0  0  0
 51 50  1  0  0  0  0
 51 52  1  0  0  0  0
 52 53  1  0  0  0  0
 54 53  1  0  0  0  0
M  END
>  <REMARK>
 VINA RESULT:    -8.018      0.000      0.000
 INTER + INTRA:         -13.658
 INTER:                  -8.429
 INTRA:                  -5.229
 UNBOUND:                 3.032
 SMILES CC(=O)N[C@@H]1[C@@H](O)C[C@](O)(C(=O)O)O[C@H]1C(O)[C@H](O)CNC(=O)OCc1cn(C2CC(O)C=C[C@@H](O)C2)nn1
 SMILES IDX 21 1 22 2 23 3 20 5 18 6 16 7 15 8 9 9 8 10 14 11 6 12 5 13
 SMILES IDX 10 14 11 16 12 17 13 18 7 20 4 22 2 23 1 25 3 26 17 27 19 29
 SMILES IDX 24 31 25 32 26 33 27 34 39 35 28 36 38 37 29 38 30 39 31 40
 SMILES IDX 32 42 37 44 35 45 34 46 33 47 36 49
 H PARENT 21 4 10 15 13 19 7 21 4 24 17 28 19 30 32 43 36 50
 Flexibility Score: 90.00
  4 active torsions:
  status: ('A' for Active; 'I' for Inactive)
    1  A    between atoms: CA   and  CB  
    2  A    between atoms: CB   and  CG  
    3  A    between atoms: CG   and  CD  
    4  A    between atoms: CD   and  CE  

>  <TORSDO>
F 17

>  <BEGIN_>
RES LYS A 131

$$$$
ligand_69_pose_0_2HRL.pdbqt
 OpenBabel07062320523D

  6  5  0  0  0  0  0  0  0  0999 V2000
   33.1930   34.6630    9.2900 C   0  0  0  0  0  0  0  0  0  0  0  0
   32.0600   35.3600   10.0340 C   0  0  0  0  0  0  0  0  0  0  0  0
   30.8420   35.6080    9.1820 C   0  0  0  0  0  0  0  0  0  0  0  0
   29.8960   34.4180    9.2390 C   0  0  0  0  0  0  0  0  0  0  0  0
   28.4530   34.8840    9.2160 C   0  0  0  0  0  0  0  0  0  0  0  0
   27.5200   33.7510    9.4690 N   0  0  0  0  0  0  0  0  0  0  0  0
  1  2  1  0  0  0  0
  3  4  1  0  0  0  0
  3  2  1  0  0  0  0
  5  4  1  0  0  0  0
  5  6  1  0  0  0  0
M  END
>  <EGIN_R>
ES LYS A 135

>  <REMARK>
  4 active torsions:
  status: ('A' for Active; 'I' for Inactive)
    5  A    between atoms: CA   and  CB  
    6  A    between atoms: CB   and  CG  
    7  A    between atoms: CG   and  CD  
    8  A    between atoms: CD   and  CE  

$$$$
