ligand_64_pose_12_2HRL.pdbqt
 OpenBabel07062320523D

 59 61  0  0  1  0  0  0  0  0999 V2000
   28.2680   32.5590   15.6610 N   0  0  0  0  0  0  0  0  0  0  0  0
   26.8880   32.1830   15.7000 C   0  0  0  0  0  0  0  0  0  0  0  0
   26.5550   31.2170   16.4340 O   0  0  0  0  0  0  0  0  0  0  0  0
   28.4810   33.3800   15.0230 H   0  0  0  0  0  0  0  0  0  0  0  0
   29.2940   31.8930   16.4160 C   0  0  0  0  0  0  0  0  0  0  0  0
   30.3260   32.8650   16.9020 C   0  0  2  0  0  0  0  0  0  0  0  0
   31.5040   32.8260   15.9370 C   0  0  2  0  0  0  0  0  0  0  0  0
   32.1070   34.1810   15.8110 C   0  0  2  0  0  0  0  0  0  0  0  0
   32.8690   35.9410   17.1270 C   0  0  2  0  0  0  0  0  0  0  0  0
   33.3920   36.4010   15.7720 C   0  0  0  0  0  0  0  0  0  0  0  0
   32.3860   34.6580   17.1100 O   0  0  0  0  0  0  0  0  0  0  0  0
   32.2520   36.3840   14.8170 C   0  0  1  0  0  0  0  0  0  0  0  0
   31.2780   35.2350   15.1610 C   0  0  1  0  0  0  0  0  0  0  0  0
   31.8570   36.8750   17.4520 O   0  0  0  0  0  0  0  0  0  0  0  0
   32.2570   37.7640   17.2630 H   0  0  0  0  0  0  0  0  0  0  0  0
   33.9170   36.0210   18.1610 C   0  0  0  0  0  0  0  0  0  0  0  0
   35.1020   35.7760   17.8700 O   0  0  0  0  0  0  0  0  0  0  0  0
   33.5980   36.3690   19.4560 O   0  0  0  0  0  0  0  0  0  0  0  0
   33.7540   37.3000   19.8330 H   0  0  0  0  0  0  0  0  0  0  0  0
   31.5810   37.5830   14.7170 O   0  0  0  0  0  0  0  0  0  0  0  0
   31.8610   38.2010   15.4270 H   0  0  0  0  0  0  0  0  0  0  0  0
   30.5910   34.8500   13.9590 N   0  0  0  0  0  0  0  0  0  0  0  0
   29.2700   35.3470   13.6580 C   0  0  0  0  0  0  0  0  0  0  0  0
   31.0390   34.2190   13.2910 H   0  0  0  0  0  0  0  0  0  0  0  0
   28.5320   34.9800   12.4400 C   0  0  0  0  0  0  0  0  0  0  0  0
   28.7780   36.1320   14.5230 O   0  0  0  0  0  0  0  0  0  0  0  0
   31.2170   32.2290   14.7400 O   0  0  0  0  0  0  0  0  0  0  0  0
   31.7680   32.4980   13.9830 H   0  0  0  0  0  0  0  0  0  0  0  0
   30.7470   32.3740   18.1550 O   0  0  0  0  0  0  0  0  0  0  0  0
   31.4550   31.7270   17.9580 H   0  0  0  0  0  0  0  0  0  0  0  0
   25.9480   32.8700   14.9450 O   0  0  0  0  0  0  0  0  0  0  0  0
   24.5850   32.5560   15.1420 C   0  0  0  0  0  0  0  0  0  0  0  0
   23.8040   33.3940   14.1960 C   0  0  0  0  0  0  0  0  0  0  0  0
   24.1980   33.8130   12.9190 C   0  0  0  0  0  0  0  0  0  0  0  0
   22.5690   33.9320   14.3360 N   0  0  0  0  0  0  0  0  0  0  0  0
   23.2250   34.5560   12.3620 N   0  0  0  0  0  0  0  0  0  0  0  0
   22.2520   34.6120   13.2410 N   0  0  0  0  0  0  0  0  0  0  0  0
   23.3150   35.1400   11.0470 C   0  0  0  0  0  0  0  0  0  0  0  0
   22.2410   35.1690   10.1960 C   0  0  0  0  0  0  0  0  0  0  0  0
   24.5120   35.6930   10.6050 C   0  0  0  0  0  0  0  0  0  0  0  0
   22.2930   35.7190    8.9320 C   0  0  0  0  0  0  0  0  0  0  0  0
   24.5780   36.2430    9.3510 C   0  0  0  0  0  0  0  0  0  0  0  0
   23.4760   36.2360    8.5660 N   0  0  0  0  0  0  0  0  0  0  0  0
   21.1400   35.7400    8.0470 C   0  0  0  0  0  0  0  0  0  0  0  0
   20.6630   36.8380    7.7020 O   0  0  0  0  0  0  0  0  0  0  0  0
   20.5660   34.5760    7.5820 O   0  0  0  0  0  0  0  0  0  0  0  0
   19.7880   34.5680    6.9130 H   0  0  0  0  0  0  0  0  0  0  0  0
   25.8340   36.8350    8.8560 C   0  0  0  0  0  0  0  0  0  0  0  0
   26.0400   36.8760    7.4930 C   0  0  0  0  0  0  0  0  0  0  0  0
   26.7600   37.3270    9.7300 C   0  0  0  0  0  0  0  0  0  0  0  0
   27.2100   37.4270    7.0280 C   0  0  0  0  0  0  0  0  0  0  0  0
   27.9220   37.8730    9.2200 C   0  0  0  0  0  0  0  0  0  0  0  0
   28.1760   37.9380    7.8690 C   0  0  0  0  0  0  0  0  0  0  0  0
   29.8670   25.5550   16.9770 C   0  0  0  0  0  0  0  0  0  0  0  0
   28.3450   25.7220   17.0260 C   0  0  0  0  0  0  0  0  0  0  0  0
   27.6020   24.4000   16.9140 C   0  0  0  0  0  0  0  0  0  0  0  0
   26.1440   24.5390   17.2540 C   0  0  0  0  0  0  0  0  0  0  0  0
   25.9260   24.1790   18.7200 C   0  0  0  0  0  0  0  0  0  0  0  0
   25.7630   25.4050   19.5370 N   0  0  0  0  0  0  0  0  0  0  0  0
  1  2  1  0  0  0  0
  1  5  1  0  0  0  0
  2  3  2  0  0  0  0
  4  1  1  0  0  0  0
  6  5  1  6  0  0  0
  6 29  1  0  0  0  0
  7 27  1  6  0  0  0
  7  6  1  0  0  0  0
  8  7  1  1  0  0  0
  8 11  1  0  0  0  0
  9 14  1  1  0  0  0
  9 16  1  0  0  0  0
 10  9  1  0  0  0  0
 11  9  1  0  0  0  0
 12 20  1  1  0  0  0
 12 13  1  0  0  0  0
 12 10  1  0  0  0  0
 13 22  1  6  0  0  0
 13  8  1  0  0  0  0
 15 14  1  0  0  0  0
 16 18  1  0  0  0  0
 17 16  2  0  0  0  0
 18 19  1  0  0  0  0
 20 21  1  0  0  0  0
 23 22  1  0  0  0  0
 23 26  2  0  0  0  0
 24 22  1  0  0  0  0
 25 23  1  0  0  0  0
 28 27  1  0  0  0  0
 30 29  1  0  0  0  0
 31 32  1  0  0  0  0
 31  2  1  0  0  0  0
 33 35  1  0  0  0  0
 33 32  1  0  0  0  0
 34 33  2  0  0  0  0
 36 34  1  0  0  0  0
 36 37  1  0  0  0  0
 37 35  2  0  0  0  0
 38 36  1  0  0  0  0
 39 38  2  0  0  0  0
 40 38  1  0  0  0  0
 41 39  1  0  0  0  0
 42 40  2  0  0  0  0
 43 41  2  0  0  0  0
 43 42  1  0  0  0  0
 44 41  1  0  0  0  0
 45 44  2  0  0  0  0
 46 44  1  0  0  0  0
 47 46  1  0  0  0  0
 48 42  1  0  0  0  0
 48 50  2  0  0  0  0
 49 48  1  0  0  0  0
 51 49  2  0  0  0  0
 51 53  1  0  0  0  0
 52 50  1  0  0  0  0
 53 52  2  0  0  0  0
 54 55  1  0  0  0  0
 56 55  1  0  0  0  0
 56 57  1  0  0  0  0
 57 58  1  0  0  0  0
 58 59  1  0  0  0  0
M  END
>  <REMARK>
 VINA RESULT:    -5.959      2.019      3.701
 INTER + INTRA:         -16.402
 INTER:                 -10.476
 INTRA:                  -5.926
 UNBOUND:                -5.216
 SMILES CC(=O)N[C@@H]1[C@@H](O)C[C@](O)(C(=O)O)O[C@H]1C(O)[C@H](O)CNC(=O)OCc1cn(-c2cc(C(=O)O)nc(-c3ccccc3)c2)nn1
 SMILES IDX 21 1 22 2 23 3 20 5 18 6 16 7 15 8 9 9 8 10 14 11 6 12 5 13
 SMILES IDX 10 14 11 16 12 17 13 18 7 20 4 22 2 23 1 25 3 26 17 27 19 29
 SMILES IDX 24 31 25 32 26 33 27 34 45 35 28 36 44 37 29 38 30 39 43 40
 SMILES IDX 31 41 36 42 35 43 32 44 33 45 34 46 37 48 38 49 42 50 39 51
 SMILES IDX 41 52 40 53
 H PARENT 21 4 10 15 13 19 7 21 4 24 17 28 19 30 34 47
 Flexibility Score: inf
  4 active torsions:
  status: ('A' for Active; 'I' for Inactive)
    1  A    between atoms: CA   and  CB  
    2  A    between atoms: CB   and  CG  
    3  A    between atoms: CG   and  CD  
    4  A    between atoms: CD   and  CE  

>  <TORSDO>
F 18

>  <BEGIN_>
RES LYS A 131

$$$$
ligand_64_pose_12_2HRL.pdbqt
 OpenBabel07062320523D

  6  5  0  0  0  0  0  0  0  0999 V2000
   33.1930   34.6630    9.2900 C   0  0  0  0  0  0  0  0  0  0  0  0
   32.0600   35.3600   10.0340 C   0  0  0  0  0  0  0  0  0  0  0  0
   30.8020   35.5050    9.2170 C   0  0  0  0  0  0  0  0  0  0  0  0
   30.1340   34.1530    9.0160 C   0  0  0  0  0  0  0  0  0  0  0  0
   28.7260   34.3290    8.4810 C   0  0  0  0  0  0  0  0  0  0  0  0
   27.7230   33.7200    9.3990 N   0  0  0  0  0  0  0  0  0  0  0  0
  1  2  1  0  0  0  0
  3  2  1  0  0  0  0
  4  3  1  0  0  0  0
  5  4  1  0  0  0  0
  5  6  1  0  0  0  0
M  END
>  <EGIN_R>
ES LYS A 135

>  <REMARK>
  4 active torsions:
  status: ('A' for Active; 'I' for Inactive)
    5  A    between atoms: CA   and  CB  
    6  A    between atoms: CB   and  CG  
    7  A    between atoms: CG   and  CD  
    8  A    between atoms: CD   and  CE  

$$$$
