ligand_73_pose_1_2HRL.pdbqt
 OpenBabel07062320523D

 54 55  0  0  1  0  0  0  0  0999 V2000
   26.0010   29.1940   19.2070 N   0  0  0  0  0  0  0  0  0  0  0  0
   25.5140   30.4640   18.7970 C   0  0  0  0  0  0  0  0  0  0  0  0
   25.7720   31.5260   19.4560 O   0  0  0  0  0  0  0  0  0  0  0  0
   25.7750   28.3600   18.6420 H   0  0  0  0  0  0  0  0  0  0  0  0
   26.8040   29.1010   20.3900 C   0  0  0  0  0  0  0  0  0  0  0  0
   28.2510   28.8230   20.1930 C   0  0  2  0  0  0  0  0  0  0  0  0
   29.1230   30.0340   19.9890 C   0  0  1  0  0  0  0  0  0  0  0  0
   30.4370   29.9830   20.7060 C   0  0  2  0  0  0  0  0  0  0  0  0
   31.7300   28.8040   22.1920 C   0  0  2  0  0  0  0  0  0  0  0  0
   32.7760   29.7040   21.5740 C   0  0  0  0  0  0  0  0  0  0  0  0
   30.4660   28.9770   21.6560 O   0  0  0  0  0  0  0  0  0  0  0  0
   32.3540   31.1270   21.7230 C   0  0  1  0  0  0  0  0  0  0  0  0
   30.9440   31.3050   21.1490 C   0  0  1  0  0  0  0  0  0  0  0  0
   31.6920   29.1000   23.5470 O   0  0  0  0  0  0  0  0  0  0  0  0
   30.8330   28.7380   23.8990 H   0  0  0  0  0  0  0  0  0  0  0  0
   32.2000   27.4060   22.0320 C   0  0  0  0  0  0  0  0  0  0  0  0
   31.5570   26.5760   21.3360 O   0  0  0  0  0  0  0  0  0  0  0  0
   33.3620   26.9840   22.6480 O   0  0  0  0  0  0  0  0  0  0  0  0
   33.6430   26.0230   22.7100 H   0  0  0  0  0  0  0  0  0  0  0  0
   32.3840   31.4250   23.0980 O   0  0  0  0  0  0  0  0  0  0  0  0
   31.6160   30.9190   23.5030 H   0  0  0  0  0  0  0  0  0  0  0  0
   31.0770   32.1360   19.9420 N   0  0  0  0  0  0  0  0  0  0  0  0
   30.5820   33.4550   19.8640 C   0  0  0  0  0  0  0  0  0  0  0  0
   31.5600   31.7270   19.1080 H   0  0  0  0  0  0  0  0  0  0  0  0
   30.7350   34.2590   18.6270 C   0  0  0  0  0  0  0  0  0  0  0  0
   30.0090   33.9530   20.8410 O   0  0  0  0  0  0  0  0  0  0  0  0
   29.3800   30.2500   18.6350 O   0  0  0  0  0  0  0  0  0  0  0  0
   29.3190   29.4470   18.0920 H   0  0  0  0  0  0  0  0  0  0  0  0
   28.3480   27.9760   19.0790 O   0  0  0  0  0  0  0  0  0  0  0  0
   27.4150   27.7430   18.8040 H   0  0  0  0  0  0  0  0  0  0  0  0
   24.7450   30.5280   17.6590 O   0  0  0  0  0  0  0  0  0  0  0  0
   25.2090   29.9550   16.4760 C   0  0  0  0  0  0  0  0  0  0  0  0
   26.6410   30.2430   16.1990 C   0  0  0  0  0  0  0  0  0  0  0  0
   27.2260   31.4620   15.8850 C   0  0  0  0  0  0  0  0  0  0  0  0
   27.6650   29.3700   16.1990 N   0  0  0  0  0  0  0  0  0  0  0  0
   28.5470   31.3060   15.7080 N   0  0  0  0  0  0  0  0  0  0  0  0
   28.7910   30.0220   15.9040 N   0  0  0  0  0  0  0  0  0  0  0  0
   29.5260   32.2830   15.3760 C   0  0  0  0  0  0  0  0  0  0  0  0
   30.8570   32.0520   15.6560 C   0  0  0  0  0  0  0  0  0  0  0  0
   29.2110   33.4820   14.7720 C   0  0  0  0  0  0  0  0  0  0  0  0
   31.8280   32.9890   15.3410 C   0  0  0  0  0  0  0  0  0  0  0  0
   30.1450   34.4490   14.4400 C   0  0  0  0  0  0  0  0  0  0  0  0
   31.4760   34.1740   14.7400 C   0  0  0  0  0  0  0  0  0  0  0  0
   29.8050   35.6700   13.8230 N   0  0  0  0  0  0  0  0  0  0  0  0
   30.1200   35.8660   12.6480 O   0  0  0  0  0  0  0  0  0  0  0  0
   29.1340   36.6220   14.5230 O   0  0  0  0  0  0  0  0  0  0  0  0
   32.4140   35.1490   14.4050 O   0  0  0  0  0  0  0  0  0  0  0  0
   33.1850   34.8800   13.7760 H   0  0  0  0  0  0  0  0  0  0  0  0
   29.8670   25.5550   16.9770 C   0  0  0  0  0  0  0  0  0  0  0  0
   28.3450   25.7220   17.0260 C   0  0  0  0  0  0  0  0  0  0  0  0
   27.6020   24.3990   16.9180 C   0  0  0  0  0  0  0  0  0  0  0  0
   26.1520   24.5320   17.2920 C   0  0  0  0  0  0  0  0  0  0  0  0
   25.9780   24.2200   18.7750 C   0  0  0  0  0  0  0  0  0  0  0  0
   25.8020   25.4700   19.5520 N   0  0  0  0  0  0  0  0  0  0  0  0
  1  5  1  0  0  0  0
  2  1  1  0  0  0  0
  2  3  2  0  0  0  0
  4  1  1  0  0  0  0
  6  5  1  6  0  0  0
  7 27  1  6  0  0  0
  7  6  1  0  0  0  0
  8  7  1  1  0  0  0
  8 13  1  0  0  0  0
  8 11  1  0  0  0  0
  9 16  1  6  0  0  0
  9 14  1  0  0  0  0
 10 12  1  0  0  0  0
 10  9  1  0  0  0  0
 11  9  1  0  0  0  0
 12 20  1  1  0  0  0
 13 22  1  6  0  0  0
 13 12  1  0  0  0  0
 14 15  1  0  0  0  0
 16 18  1  0  0  0  0
 17 16  2  0  0  0  0
 18 19  1  0  0  0  0
 20 21  1  0  0  0  0
 23 22  1  0  0  0  0
 23 26  2  0  0  0  0
 24 22  1  0  0  0  0
 25 23  1  0  0  0  0
 28 27  1  0  0  0  0
 29  6  1  0  0  0  0
 30 29  1  0  0  0  0
 31  2  1  0  0  0  0
 32 31  1  0  0  0  0
 33 35  1  0  0  0  0
 33 32  1  0  0  0  0
 34 33  2  0  0  0  0
 36 34  1  0  0  0  0
 36 37  1  0  0  0  0
 37 35  2  0  0  0  0
 38 39  1  0  0  0  0
 38 36  1  0  0  0  0
 40 38  2  0  0  0  0
 41 39  2  0  0  0  0
 42 43  2  0  0  0  0
 42 40  1  0  0  0  0
 43 41  1  0  0  0  0
 44 42  1  0  0  0  0
 44 46  2  0  0  0  0
 45 44  2  0  0  0  0
 47 43  1  0  0  0  0
 48 47  1  0  0  0  0
 49 50  1  0  0  0  0
 51 50  1  0  0  0  0
 51 52  1  0  0  0  0
 52 53  1  0  0  0  0
 53 54  1  0  0  0  0
M  END
>  <REMARK>
 VINA RESULT:    -4.432      2.398      6.141
 INTER + INTRA:         -15.370
 INTER:                  -8.789
 INTRA:                  -6.581
 UNBOUND:                -7.311
 SMILES CC(=O)N[C@@H]1[C@@H](O)C[C@](O)(C(=O)O)O[C@H]1C(O)[C@H](O)CNC(=O)OCc1cn(-c2ccc(O)c([N+](=O)[O-])c2)nn1
 SMILES IDX 21 1 22 2 23 3 20 5 18 6 16 7 15 8 9 9 8 10 14 11 6 12 5 13
 SMILES IDX 10 14 11 16 12 17 13 18 7 20 4 22 2 23 1 25 3 26 17 27 19 29
 SMILES IDX 24 31 25 32 26 33 27 34 40 35 28 36 39 37 29 38 30 39 38 40
 SMILES IDX 31 41 34 42 32 43 35 44 36 45 37 46 33 47
 H PARENT 21 4 10 15 13 19 7 21 4 24 17 28 19 30 33 48
 Flexibility Score: inf
  4 active torsions:
  status: ('A' for Active; 'I' for Inactive)
    1  A    between atoms: CA   and  CB  
    2  A    between atoms: CB   and  CG  
    3  A    between atoms: CG   and  CD  
    4  A    between atoms: CD   and  CE  

>  <TORSDO>
F 17

>  <BEGIN_>
RES LYS A 131

$$$$
ligand_73_pose_1_2HRL.pdbqt
 OpenBabel07062320523D

  6  5  0  0  0  0  0  0  0  0999 V2000
   33.1930   34.6630    9.2900 C   0  0  0  0  0  0  0  0  0  0  0  0
   32.0600   35.3600   10.0340 C   0  0  0  0  0  0  0  0  0  0  0  0
   30.8000   35.4980    9.2200 C   0  0  0  0  0  0  0  0  0  0  0  0
   30.1600   34.1380    8.9860 C   0  0  0  0  0  0  0  0  0  0  0  0
   28.6920   34.2930    8.6400 C   0  0  0  0  0  0  0  0  0  0  0  0
   27.8250   33.7140    9.7040 N   0  0  0  0  0  0  0  0  0  0  0  0
  1  2  1  0  0  0  0
  3  2  1  0  0  0  0
  4  3  1  0  0  0  0
  5  4  1  0  0  0  0
  5  6  1  0  0  0  0
M  END
>  <EGIN_R>
ES LYS A 135

>  <REMARK>
  4 active torsions:
  status: ('A' for Active; 'I' for Inactive)
    5  A    between atoms: CA   and  CB  
    6  A    between atoms: CB   and  CG  
    7  A    between atoms: CG   and  CD  
    8  A    between atoms: CD   and  CE  

$$$$
