ligand_29_pose_19_2HRL.pdbqt
 OpenBabel07062320523D

 54 55  0  0  1  0  0  0  0  0999 V2000
   26.9250   32.9580   17.8280 N   0  0  0  0  0  0  0  0  0  0  0  0
   27.2430   31.8230   18.5870 C   0  0  0  0  0  0  0  0  0  0  0  0
   26.5900   30.7630   18.4780 O   0  0  0  0  0  0  0  0  0  0  0  0
   27.5240   33.8240   17.9880 H   0  0  0  0  0  0  0  0  0  0  0  0
   25.8590   33.0560   16.8460 C   0  0  0  0  0  0  0  0  0  0  0  0
   26.3420   32.6650   15.4960 C   0  0  2  0  0  0  0  0  0  0  0  0
   25.5050   31.6100   14.8150 C   0  0  2  0  0  0  0  0  0  0  0  0
   24.1060   32.0240   14.5060 C   0  0  2  0  0  0  0  0  0  0  0  0
   23.0790   30.1620   13.5490 C   0  0  2  0  0  0  0  0  0  0  0  0
   22.1310   30.9620   12.6660 C   0  0  0  0  0  0  0  0  0  0  0  0
   23.2830   30.8950   14.6860 O   0  0  0  0  0  0  0  0  0  0  0  0
   22.3080   32.4240   12.9560 C   0  0  1  0  0  0  0  0  0  0  0  0
   23.8180   32.7450   13.2600 C   0  0  1  0  0  0  0  0  0  0  0  0
   24.2340   29.8100   12.8580 O   0  0  0  0  0  0  0  0  0  0  0  0
   24.0530   29.5560   11.9160 H   0  0  0  0  0  0  0  0  0  0  0  0
   22.4140   28.8850   13.9400 C   0  0  0  0  0  0  0  0  0  0  0  0
   21.3740   28.5340   13.3340 O   0  0  0  0  0  0  0  0  0  0  0  0
   22.8990   28.0680   14.9500 O   0  0  0  0  0  0  0  0  0  0  0  0
   22.2790   27.6260   15.6410 H   0  0  0  0  0  0  0  0  0  0  0  0
   21.8970   33.2270   11.8980 O   0  0  0  0  0  0  0  0  0  0  0  0
   21.1420   33.8000   12.1520 H   0  0  0  0  0  0  0  0  0  0  0  0
   23.7860   34.2000   13.4640 N   0  0  0  0  0  0  0  0  0  0  0  0
   24.8320   35.0750   13.0840 C   0  0  0  0  0  0  0  0  0  0  0  0
   22.9430   34.6570   13.9200 H   0  0  0  0  0  0  0  0  0  0  0  0
   24.7730   36.5420   13.3070 C   0  0  0  0  0  0  0  0  0  0  0  0
   25.8600   34.6080   12.5350 O   0  0  0  0  0  0  0  0  0  0  0  0
   25.3620   30.5200   15.7670 O   0  0  0  0  0  0  0  0  0  0  0  0
   26.1740   29.9640   15.6840 H   0  0  0  0  0  0  0  0  0  0  0  0
   27.6960   32.5080   15.3570 O   0  0  0  0  0  0  0  0  0  0  0  0
   28.0220   32.6090   14.4430 H   0  0  0  0  0  0  0  0  0  0  0  0
   28.3150   31.8420   19.5040 O   0  0  0  0  0  0  0  0  0  0  0  0
   29.4880   31.0840   19.1710 C   0  0  0  0  0  0  0  0  0  0  0  0
   30.0410   31.4920   17.8820 C   0  0  0  0  0  0  0  0  0  0  0  0
   30.7590   32.6320   17.6230 C   0  0  0  0  0  0  0  0  0  0  0  0
   29.9430   30.8080   16.7320 N   0  0  0  0  0  0  0  0  0  0  0  0
   31.0810   32.6220   16.3340 N   0  0  0  0  0  0  0  0  0  0  0  0
   30.5830   31.5200   15.8130 N   0  0  0  0  0  0  0  0  0  0  0  0
   31.8360   33.6330   15.6030 C   0  0  0  0  0  0  0  0  0  0  0  0
   30.8670   34.4760   14.8360 C   0  0  0  0  0  0  0  0  0  0  0  0
   30.3750   35.6460   15.4140 C   0  0  0  0  0  0  0  0  0  0  0  0
   30.4410   34.1510   13.5660 C   0  0  0  0  0  0  0  0  0  0  0  0
   29.4910   36.4530   14.7410 C   0  0  0  0  0  0  0  0  0  0  0  0
   29.5530   34.9420   12.8640 C   0  0  0  0  0  0  0  0  0  0  0  0
   29.0910   36.0870   13.4690 C   0  0  0  0  0  0  0  0  0  0  0  0
   28.9910   37.6230   15.3060 O   0  0  0  0  0  0  0  0  0  0  0  0
   29.8480   38.7480   15.3920 C   0  0  0  0  0  0  0  0  0  0  0  0
   28.1990   36.9080   12.7980 O   0  0  0  0  0  0  0  0  0  0  0  0
   28.2900   37.1340   11.4040 C   0  0  0  0  0  0  0  0  0  0  0  0
   29.8670   25.5550   16.9770 C   0  0  0  0  0  0  0  0  0  0  0  0
   28.3450   25.7220   17.0260 C   0  0  0  0  0  0  0  0  0  0  0  0
   27.6010   24.4020   16.8930 C   0  0  0  0  0  0  0  0  0  0  0  0
   26.2120   24.4750   17.4640 C   0  0  0  0  0  0  0  0  0  0  0  0
   26.0980   25.6950   18.3720 C   0  0  0  0  0  0  0  0  0  0  0  0
   25.5880   25.3040   19.7070 N   0  0  0  0  0  0  0  0  0  0  0  0
  1  4  1  0  0  0  0
  1  2  1  0  0  0  0
  2 31  1  0  0  0  0
  3  2  2  0  0  0  0
  5  1  1  0  0  0  0
  6  5  1  1  0  0  0
  7  6  1  0  0  0  0
  7 27  1  1  0  0  0
  8 11  1  0  0  0  0
  8  7  1  6  0  0  0
  9 14  1  6  0  0  0
  9 16  1  0  0  0  0
  9 11  1  0  0  0  0
 10 12  1  0  0  0  0
 10  9  1  0  0  0  0
 12 20  1  6  0  0  0
 12 13  1  0  0  0  0
 13 22  1  1  0  0  0
 13  8  1  0  0  0  0
 15 14  1  0  0  0  0
 16 18  1  0  0  0  0
 17 16  2  0  0  0  0
 18 19  1  0  0  0  0
 20 21  1  0  0  0  0
 22 24  1  0  0  0  0
 23 25  1  0  0  0  0
 23 22  1  0  0  0  0
 26 23  2  0  0  0  0
 28 27  1  0  0  0  0
 29  6  1  0  0  0  0
 30 29  1  0  0  0  0
 32 31  1  0  0  0  0
 33 32  1  0  0  0  0
 34 33  2  0  0  0  0
 35 33  1  0  0  0  0
 36 34  1  0  0  0  0
 37 36  1  0  0  0  0
 37 35  2  0  0  0  0
 38 36  1  0  0  0  0
 39 40  1  0  0  0  0
 39 38  1  0  0  0  0
 41 39  2  0  0  0  0
 42 45  1  0  0  0  0
 42 40  2  0  0  0  0
 43 44  2  0  0  0  0
 43 41  1  0  0  0  0
 44 42  1  0  0  0  0
 45 46  1  0  0  0  0
 47 44  1  0  0  0  0
 48 47  1  0  0  0  0
 49 50  1  0  0  0  0
 51 50  1  0  0  0  0
 51 52  1  0  0  0  0
 52 53  1  0  0  0  0
 53 54  1  0  0  0  0
M  END
>  <REMARK>
 VINA RESULT:    -4.823      2.218      5.921
 INTER + INTRA:         -14.311
 INTER:                  -7.821
 INTRA:                  -6.490
 UNBOUND:                -5.118
 SMILES COc1ccc(Cn2cc(COC(=O)NC[C@@H](O)C(O)[C@@H]3O[C@@](O)(C(=O)O)C[C@H](O)[C@H]3NC(C)=O)nn2)cc1OC
 SMILES IDX 15 1 13 2 14 3 16 5 17 6 19 7 21 8 23 9 28 10 22 11 29 12
 SMILES IDX 31 13 24 14 25 16 26 17 27 18 30 20 32 22 33 23 34 25 35 26
 SMILES IDX 20 27 18 29 12 31 11 32 10 33 9 34 36 35 8 36 37 37 7 38
 SMILES IDX 6 39 38 40 5 41 39 42 4 43 3 44 40 45 41 46 2 47 1 48
 H PARENT 15 4 24 15 27 19 30 21 32 24 20 28 18 30
 Flexibility Score: inf
  4 active torsions:
  status: ('A' for Active; 'I' for Inactive)
    1  A    between atoms: CA   and  CB  
    2  A    between atoms: CB   and  CG  
    3  A    between atoms: CG   and  CD  
    4  A    between atoms: CD   and  CE  

>  <TORSDO>
F 18

>  <BEGIN_>
RES LYS A 131

$$$$
ligand_29_pose_19_2HRL.pdbqt
 OpenBabel07062320523D

  6  5  0  0  0  0  0  0  0  0999 V2000
   33.1930   34.6630    9.2900 C   0  0  0  0  0  0  0  0  0  0  0  0
   32.0600   35.3600   10.0340 C   0  0  0  0  0  0  0  0  0  0  0  0
   30.8000   35.4980    9.2190 C   0  0  0  0  0  0  0  0  0  0  0  0
   30.1240   34.1470    9.0430 C   0  0  0  0  0  0  0  0  0  0  0  0
   28.6670   34.3270    8.6620 C   0  0  0  0  0  0  0  0  0  0  0  0
   27.7670   33.7280    9.6870 N   0  0  0  0  0  0  0  0  0  0  0  0
  1  2  1  0  0  0  0
  3  2  1  0  0  0  0
  4  3  1  0  0  0  0
  5  4  1  0  0  0  0
  5  6  1  0  0  0  0
M  END
>  <EGIN_R>
ES LYS A 135

>  <REMARK>
  4 active torsions:
  status: ('A' for Active; 'I' for Inactive)
    5  A    between atoms: CA   and  CB  
    6  A    between atoms: CB   and  CG  
    7  A    between atoms: CG   and  CD  
    8  A    between atoms: CD   and  CE  

$$$$
