ligand_81_pose_6_2HRL.pdbqt
 OpenBabel07062320523D

 63 65  0  0  1  0  0  0  0  0999 V2000
   24.4460   36.3230    8.5830 O   0  0  0  0  0  0  0  0  0  0  0  0
   24.4570   37.5440    7.9460 C   0  0  0  0  0  0  0  0  0  0  0  0
   25.6710   38.1030    7.4000 N   0  0  0  0  0  0  0  0  0  0  0  0
   26.5160   37.5120    7.5340 H   0  0  0  0  0  0  0  0  0  0  0  0
   23.3730   38.1720    7.8480 O   0  0  0  0  0  0  0  0  0  0  0  0
   25.6250   39.3880    6.7410 C   0  0  0  0  0  0  0  0  0  0  0  0
   26.9570   40.0830    6.9890 C   0  0  2  0  0  0  0  0  0  0  0  0
   27.9200   39.5460    5.9580 C   0  0  2  0  0  0  0  0  0  0  0  0
   28.6670   40.5890    5.1860 C   0  0  2  0  0  0  0  0  0  0  0  0
   30.7690   40.0710    6.0830 C   0  0  2  0  0  0  0  0  0  0  0  0
   30.5550   41.2270    7.0460 C   0  0  0  0  0  0  0  0  0  0  0  0
   29.9500   40.1330    4.9930 O   0  0  0  0  0  0  0  0  0  0  0  0
   29.9620   42.3850    6.2710 C   0  0  1  0  0  0  0  0  0  0  0  0
   28.5880   41.9800    5.7010 C   0  0  1  0  0  0  0  0  0  0  0  0
   30.5880   38.9080    6.8410 O   0  0  0  0  0  0  0  0  0  0  0  0
   30.0750   38.2240    6.3560 H   0  0  0  0  0  0  0  0  0  0  0  0
   32.1630   40.0600    5.5910 C   0  0  0  0  0  0  0  0  0  0  0  0
   33.0710   39.6440    6.3340 O   0  0  0  0  0  0  0  0  0  0  0  0
   32.4560   40.5050    4.3280 O   0  0  0  0  0  0  0  0  0  0  0  0
   31.7750   40.8530    3.6650 H   0  0  0  0  0  0  0  0  0  0  0  0
   29.8660   43.5110    7.0550 O   0  0  0  0  0  0  0  0  0  0  0  0
   29.2490   43.3770    7.8060 H   0  0  0  0  0  0  0  0  0  0  0  0
   28.3320   42.9600    4.6360 N   0  0  0  0  0  0  0  0  0  0  0  0
   27.0280   43.4800    4.4650 C   0  0  0  0  0  0  0  0  0  0  0  0
   29.0950   43.2800    4.0030 H   0  0  0  0  0  0  0  0  0  0  0  0
   26.6950   44.4780    3.4020 C   0  0  0  0  0  0  0  0  0  0  0  0
   26.1290   43.0680    5.2510 O   0  0  0  0  0  0  0  0  0  0  0  0
   27.0450   38.9510    4.9890 O   0  0  0  0  0  0  0  0  0  0  0  0
   27.2820   38.0110    4.8630 H   0  0  0  0  0  0  0  0  0  0  0  0
   27.3070   39.7940    8.2990 O   0  0  0  0  0  0  0  0  0  0  0  0
   28.2770   39.7080    8.4120 H   0  0  0  0  0  0  0  0  0  0  0  0
   24.7540   36.1030    9.9420 C   0  0  0  0  0  0  0  0  0  0  0  0
   25.9040   36.9730   10.3450 C   0  0  0  0  0  0  0  0  0  0  0  0
   27.2390   36.6560   10.3630 C   0  0  0  0  0  0  0  0  0  0  0  0
   25.8340   38.2520   10.7750 N   0  0  0  0  0  0  0  0  0  0  0  0
   27.9630   37.7320   10.7990 N   0  0  0  0  0  0  0  0  0  0  0  0
   27.0570   38.6730   11.0340 N   0  0  0  0  0  0  0  0  0  0  0  0
   29.3680   37.7940   10.9730 C   0  0  0  0  0  0  0  0  0  0  0  0
   30.1680   38.2790   10.0140 N   0  0  0  0  0  0  0  0  0  0  0  0
   29.9630   37.3200   12.1490 C   0  0  0  0  0  0  0  0  0  0  0  0
   31.5160   38.3150   10.1660 C   0  0  0  0  0  0  0  0  0  0  0  0
   31.3200   37.3530   12.3030 C   0  0  0  0  0  0  0  0  0  0  0  0
   32.0980   37.8640   11.2810 N   0  0  0  0  0  0  0  0  0  0  0  0
   29.0910   36.7550   13.1980 C   0  0  0  0  0  0  0  0  0  0  0  0
   28.9390   35.2600   13.1610 C   0  0  0  0  0  0  0  0  0  0  0  0
   28.2220   34.7740   14.2190 O   0  0  0  0  0  0  0  0  0  0  0  0
   28.8270   33.7300   14.8800 C   0  0  0  0  0  0  0  0  0  0  0  0
   29.8380   34.2180   15.8970 C   0  0  0  0  0  0  0  0  0  0  0  0
   32.3210   38.8360    9.1270 N   0  0  0  0  0  0  0  0  0  0  0  0
   33.0120   39.5800    9.3270 H   0  0  0  0  0  0  0  0  0  0  0  0
   32.2450   38.4960    8.1500 H   0  0  0  0  0  0  0  0  0  0  0  0
   32.0020   36.7750   13.4450 C   0  0  0  0  0  0  0  0  0  0  0  0
   32.0570   37.2290   14.7110 C   0  0  0  0  0  0  0  0  0  0  0  0
   32.6760   35.5600   13.1860 C   0  0  0  0  0  0  0  0  0  0  0  0
   32.7520   36.5200   15.7080 C   0  0  0  0  0  0  0  0  0  0  0  0
   33.3550   34.8620   14.1450 C   0  0  0  0  0  0  0  0  0  0  0  0
   33.4040   35.3400   15.4430 C   0  0  0  0  0  0  0  0  0  0  0  0
   29.8670   25.5550   16.9770 C   0  0  0  0  0  0  0  0  0  0  0  0
   28.3450   25.7220   17.0260 C   0  0  0  0  0  0  0  0  0  0  0  0
   27.5990   24.4310   16.7270 C   0  0  0  0  0  0  0  0  0  0  0  0
   26.6530   24.0540   17.8340 C   0  0  0  0  0  0  0  0  0  0  0  0
   25.2200   24.0930   17.3130 C   0  0  0  0  0  0  0  0  0  0  0  0
   24.6460   25.4500   17.4760 N   0  0  0  0  0  0  0  0  0  0  0  0
  1 32  1  0  0  0  0
  2  1  1  0  0  0  0
  3  4  1  0  0  0  0
  3  2  1  0  0  0  0
  5  2  2  0  0  0  0
  6  3  1  0  0  0  0
  7  6  1  6  0  0  0
  7 30  1  0  0  0  0
  8 28  1  6  0  0  0
  8  7  1  0  0  0  0
  9 14  1  0  0  0  0
  9  8  1  1  0  0  0
 10 17  1  6  0  0  0
 10 15  1  0  0  0  0
 10 11  1  0  0  0  0
 12  9  1  0  0  0  0
 12 10  1  0  0  0  0
 13 11  1  0  0  0  0
 13 21  1  1  0  0  0
 14 23  1  6  0  0  0
 14 13  1  0  0  0  0
 16 15  1  0  0  0  0
 17 18  2  0  0  0  0
 19 17  1  0  0  0  0
 20 19  1  0  0  0  0
 21 22  1  0  0  0  0
 24 23  1  0  0  0  0
 24 27  2  0  0  0  0
 25 23  1  0  0  0  0
 26 24  1  0  0  0  0
 29 28  1  0  0  0  0
 30 31  1  0  0  0  0
 32 33  1  0  0  0  0
 33 34  2  0  0  0  0
 33 35  1  0  0  0  0
 34 36  1  0  0  0  0
 35 37  2  0  0  0  0
 36 38  1  0  0  0  0
 36 37  1  0  0  0  0
 38 40  2  0  0  0  0
 39 41  2  0  0  0  0
 39 38  1  0  0  0  0
 40 42  1  0  0  0  0
 40 44  1  0  0  0  0
 41 43  1  0  0  0  0
 42 52  1  0  0  0  0
 43 42  2  0  0  0  0
 45 44  1  0  0  0  0
 45 46  1  0  0  0  0
 46 47  1  0  0  0  0
 47 48  1  0  0  0  0
 49 50  1  0  0  0  0
 49 41  1  0  0  0  0
 51 49  1  0  0  0  0
 52 53  1  0  0  0  0
 53 55  2  0  0  0  0
 54 52  2  0  0  0  0
 54 56  1  0  0  0  0
 56 57  2  0  0  0  0
 57 55  1  0  0  0  0
 58 59  1  0  0  0  0
 60 59  1  0  0  0  0
 60 61  1  0  0  0  0
 62 63  1  0  0  0  0
 62 61  1  0  0  0  0
M  END
>  <REMARK>
 VINA RESULT:    -4.774      4.097      7.306
 INTER + INTRA:         -16.970
 INTER:                  -9.567
 INTRA:                  -7.403
 UNBOUND:                -7.171
 SMILES CCOCCc1c(-c2ccccc2)nc(N)nc1-n1cc(COC(=O)NC[C@@H](O)C(O)[C@@H]2O[C@@](O)(C(=O)O)C[C@H](O)[C@H]2NC(C)=O)nn1
 SMILES IDX 23 1 24 2 26 3 25 5 27 6 28 7 30 8 32 9 34 10 39 11 33 12
 SMILES IDX 40 13 42 14 35 15 36 17 37 18 38 19 41 21 43 23 44 24 45 26
 SMILES IDX 46 27 31 28 29 30 22 32 21 33 20 34 47 35 19 36 48 37 18 38
 SMILES IDX 17 39 6 40 15 41 7 42 14 43 5 44 4 45 3 46 2 47 1 48 16 49
 SMILES IDX 8 52 9 53 13 54 10 55 12 56 11 57
 H PARENT 26 4 35 16 38 20 41 22 43 25 31 29 29 31 16 50 16 51
 Flexibility Score: inf
  4 active torsions:
  status: ('A' for Active; 'I' for Inactive)
    1  A    between atoms: CA   and  CB  
    2  A    between atoms: CB   and  CG  
    3  A    between atoms: CG   and  CD  
    4  A    between atoms: CD   and  CE  

>  <TORSDO>
F 21

>  <BEGIN_>
RES LYS A 131

$$$$
ligand_81_pose_6_2HRL.pdbqt
 OpenBabel07062320523D

  6  5  0  0  0  0  0  0  0  0999 V2000
   33.1930   34.6630    9.2900 C   0  0  0  0  0  0  0  0  0  0  0  0
   32.0600   35.3600   10.0340 C   0  0  0  0  0  0  0  0  0  0  0  0
   30.7120   34.7250    9.8110 C   0  0  0  0  0  0  0  0  0  0  0  0
   30.4650   34.4970    8.3270 C   0  0  0  0  0  0  0  0  0  0  0  0
   29.0090   34.7450    7.9850 C   0  0  0  0  0  0  0  0  0  0  0  0
   28.8570   35.9490    7.1220 N   0  0  0  0  0  0  0  0  0  0  0  0
  1  2  1  0  0  0  0
  3  2  1  0  0  0  0
  4  3  1  0  0  0  0
  5  4  1  0  0  0  0
  6  5  1  0  0  0  0
M  END
>  <EGIN_R>
ES LYS A 135

>  <REMARK>
  4 active torsions:
  status: ('A' for Active; 'I' for Inactive)
    5  A    between atoms: CA   and  CB  
    6  A    between atoms: CB   and  CG  
    7  A    between atoms: CG   and  CD  
    8  A    between atoms: CD   and  CE  

$$$$
