ligand_39_pose_7_2HRL.pdbqt
 OpenBabel07062320523D

 51 52  0  0  1  0  0  0  0  0999 V2000
   25.6230   36.7340   10.3800 N   0  0  0  0  0  0  0  0  0  0  0  0
   25.0720   35.5160   10.7910 C   0  0  0  0  0  0  0  0  0  0  0  0
   23.8860   35.2350   10.4640 O   0  0  0  0  0  0  0  0  0  0  0  0
   26.6200   36.9310   10.6740 H   0  0  0  0  0  0  0  0  0  0  0  0
   24.9330   37.7330    9.5940 C   0  0  0  0  0  0  0  0  0  0  0  0
   25.7230   38.0170    8.3350 C   0  0  2  0  0  0  0  0  0  0  0  0
   26.3020   39.4160    8.3510 C   0  0  2  0  0  0  0  0  0  0  0  0
   27.1350   39.7020    7.1180 C   0  0  2  0  0  0  0  0  0  0  0  0
   26.8560   40.3430    4.8920 C   0  0  2  0  0  0  0  0  0  0  0  0
   27.6450   39.1930    4.3950 C   0  0  0  0  0  0  0  0  0  0  0  0
   26.2770   40.0330    6.1130 O   0  0  0  0  0  0  0  0  0  0  0  0
   27.9950   38.1290    5.3630 C   0  0  1  0  0  0  0  0  0  0  0  0
   28.0540   38.5570    6.8010 C   0  0  1  0  0  0  0  0  0  0  0  0
   25.7610   40.5530    4.0140 O   0  0  0  0  0  0  0  0  0  0  0  0
   25.1000   41.1790    4.4110 H   0  0  0  0  0  0  0  0  0  0  0  0
   27.6440   41.5770    4.9150 C   0  0  0  0  0  0  0  0  0  0  0  0
   28.8800   41.6130    4.6650 O   0  0  0  0  0  0  0  0  0  0  0  0
   27.0190   42.7760    5.2260 O   0  0  0  0  0  0  0  0  0  0  0  0
   27.4390   43.4770    5.8260 H   0  0  0  0  0  0  0  0  0  0  0  0
   27.1360   37.0250    5.2060 O   0  0  0  0  0  0  0  0  0  0  0  0
   27.6850   36.2370    5.5190 H   0  0  0  0  0  0  0  0  0  0  0  0
   29.4140   38.8080    7.2230 N   0  0  0  0  0  0  0  0  0  0  0  0
   29.9260   38.3590    8.4670 C   0  0  0  0  0  0  0  0  0  0  0  0
   30.0540   39.3380    6.5990 H   0  0  0  0  0  0  0  0  0  0  0  0
   31.3240   38.6100    8.9170 C   0  0  0  0  0  0  0  0  0  0  0  0
   29.1200   37.7100    9.2160 O   0  0  0  0  0  0  0  0  0  0  0  0
   27.0180   39.6160    9.5260 O   0  0  0  0  0  0  0  0  0  0  0  0
   27.0080   38.7600   10.0560 H   0  0  0  0  0  0  0  0  0  0  0  0
   24.7940   37.8860    7.2750 O   0  0  0  0  0  0  0  0  0  0  0  0
   23.8840   37.7900    7.5970 H   0  0  0  0  0  0  0  0  0  0  0  0
   25.7430   34.5650   11.5470 O   0  0  0  0  0  0  0  0  0  0  0  0
   25.3790   34.3430   12.8990 C   0  0  0  0  0  0  0  0  0  0  0  0
   26.5410   34.4730   13.8020 C   0  0  0  0  0  0  0  0  0  0  0  0
   27.5160   35.4810   13.7800 C   0  0  0  0  0  0  0  0  0  0  0  0
   26.9210   33.6850   14.8140 N   0  0  0  0  0  0  0  0  0  0  0  0
   28.4170   35.2890   14.7280 N   0  0  0  0  0  0  0  0  0  0  0  0
   28.0200   34.1590   15.3600 N   0  0  0  0  0  0  0  0  0  0  0  0
   29.6100   35.9860   15.1450 C   0  0  0  0  0  0  0  0  0  0  0  0
   30.6700   36.0830   14.1500 C   0  0  0  0  0  0  0  0  0  0  0  0
   30.6780   37.1130   13.2060 C   0  0  0  0  0  0  0  0  0  0  0  0
   31.7130   35.2030   14.1080 C   0  0  0  0  0  0  0  0  0  0  0  0
   31.6980   37.2070   12.3000 C   0  0  0  0  0  0  0  0  0  0  0  0
   32.7420   35.3020   13.1900 C   0  0  0  0  0  0  0  0  0  0  0  0
   31.7990   33.7050   15.3210 Br  0  0  0  0  0  0  0  0  0  0  0  0
   32.7430   36.3180   12.2670 C   0  0  0  0  0  0  0  0  0  0  0  0
   29.8670   25.5550   16.9770 C   0  0  0  0  0  0  0  0  0  0  0  0
   28.3450   25.7220   17.0260 C   0  0  0  0  0  0  0  0  0  0  0  0
   27.5990   24.4670   16.6000 C   0  0  0  0  0  0  0  0  0  0  0  0
   27.0560   23.7040   17.7770 C   0  0  0  0  0  0  0  0  0  0  0  0
   26.1440   24.6120   18.5950 C   0  0  0  0  0  0  0  0  0  0  0  0
   24.8420   24.7940   17.9100 N   0  0  0  0  0  0  0  0  0  0  0  0
  1  4  1  0  0  0  0
  1  2  1  0  0  0  0
  2 31  1  0  0  0  0
  3  2  2  0  0  0  0
  5  1  1  0  0  0  0
  6  7  1  0  0  0  0
  6  5  1  1  0  0  0
  7 27  1  1  0  0  0
  8  7  1  1  0  0  0
  9 14  1  6  0  0  0
  9 16  1  0  0  0  0
  9 11  1  0  0  0  0
 10  9  1  0  0  0  0
 10 12  1  0  0  0  0
 11  8  1  0  0  0  0
 12 20  1  1  0  0  0
 12 13  1  0  0  0  0
 13  8  1  0  0  0  0
 13 22  1  6  0  0  0
 14 15  1  0  0  0  0
 16 18  1  0  0  0  0
 17 16  2  0  0  0  0
 18 19  1  0  0  0  0
 20 21  1  0  0  0  0
 22 23  1  0  0  0  0
 23 25  1  0  0  0  0
 23 26  2  0  0  0  0
 24 22  1  0  0  0  0
 27 28  1  0  0  0  0
 29 30  1  0  0  0  0
 29  6  1  0  0  0  0
 31 32  1  0  0  0  0
 32 33  1  0  0  0  0
 33 35  1  0  0  0  0
 34 33  2  0  0  0  0
 34 36  1  0  0  0  0
 35 37  2  0  0  0  0
 36 38  1  0  0  0  0
 36 37  1  0  0  0  0
 39 38  1  0  0  0  0
 40 39  2  0  0  0  0
 41 39  1  0  0  0  0
 41 44  1  0  0  0  0
 42 40  1  0  0  0  0
 43 41  2  0  0  0  0
 45 42  2  0  0  0  0
 45 43  1  0  0  0  0
 46 47  1  0  0  0  0
 48 47  1  0  0  0  0
 48 49  1  0  0  0  0
 49 50  1  0  0  0  0
 51 50  1  0  0  0  0
M  END
>  <REMARK>
 VINA RESULT:    -4.117      7.452     11.896
 INTER + INTRA:         -14.792
 INTER:                  -9.040
 INTRA:                  -5.751
 UNBOUND:                -7.426
 SMILES CC(=O)N[C@@H]1[C@@H](O)C[C@](O)(C(=O)O)O[C@H]1C(O)[C@H](O)CNC(=O)OCc1cn(Cc2ccccc2Br)nn1
 SMILES IDX 21 1 22 2 23 3 20 5 18 6 16 7 15 8 9 9 8 10 14 11 6 12 5 13
 SMILES IDX 10 14 11 16 12 17 13 18 7 20 4 22 2 23 1 25 3 26 17 27 19 29
 SMILES IDX 24 31 25 32 26 33 27 34 38 35 28 36 37 37 29 38 30 39 31 40
 SMILES IDX 35 41 32 42 34 43 36 44 33 45
 H PARENT 21 4 10 15 13 19 7 21 4 24 17 28 19 30
 Flexibility Score: inf
  4 active torsions:
  status: ('A' for Active; 'I' for Inactive)
    1  A    between atoms: CA   and  CB  
    2  A    between atoms: CB   and  CG  
    3  A    between atoms: CG   and  CD  
    4  A    between atoms: CD   and  CE  

>  <TORSDO>
F 16

>  <BEGIN_>
RES LYS A 131

$$$$
ligand_39_pose_7_2HRL.pdbqt
 OpenBabel07062320523D

  6  5  0  0  0  0  0  0  0  0999 V2000
   33.1930   34.6630    9.2900 C   0  0  0  0  0  0  0  0  0  0  0  0
   32.0600   35.3600   10.0340 C   0  0  0  0  0  0  0  0  0  0  0  0
   30.7280   34.6720    9.8840 C   0  0  0  0  0  0  0  0  0  0  0  0
   30.3730   34.5030    8.4150 C   0  0  0  0  0  0  0  0  0  0  0  0
   28.8680   34.4740    8.2300 C   0  0  0  0  0  0  0  0  0  0  0  0
   28.1950   33.8590    9.4070 N   0  0  0  0  0  0  0  0  0  0  0  0
  1  2  1  0  0  0  0
  3  2  1  0  0  0  0
  4  3  1  0  0  0  0
  5  4  1  0  0  0  0
  5  6  1  0  0  0  0
M  END
>  <EGIN_R>
ES LYS A 135

>  <REMARK>
  4 active torsions:
  status: ('A' for Active; 'I' for Inactive)
    5  A    between atoms: CA   and  CB  
    6  A    between atoms: CB   and  CG  
    7  A    between atoms: CG   and  CD  
    8  A    between atoms: CD   and  CE  

$$$$
