ligand_5_pose_1_2HRL.pdbqt
 OpenBabel07062320523D

 51 52  0  0  1  0  0  0  0  0999 V2000
   25.6360   28.6370   18.7800 N   0  0  0  0  0  0  0  0  0  0  0  0
   24.7270   28.6390   17.7000 C   0  0  0  0  0  0  0  0  0  0  0  0
   24.1590   27.6080   17.3090 O   0  0  0  0  0  0  0  0  0  0  0  0
   26.0720   29.5910   18.9910 H   0  0  0  0  0  0  0  0  0  0  0  0
   26.0340   27.5650   19.6000 C   0  0  0  0  0  0  0  0  0  0  0  0
   27.3800   27.5340   20.1660 C   0  0  2  0  0  0  0  0  0  0  0  0
   28.1410   28.7570   20.3010 C   0  0  1  0  0  0  0  0  0  0  0  0
   29.3690   28.6970   21.2350 C   0  0  2  0  0  0  0  0  0  0  0  0
   31.5460   27.9060   20.7900 C   0  0  2  0  0  0  0  0  0  0  0  0
   31.2340   26.5750   21.4910 C   0  0  0  0  0  0  0  0  0  0  0  0
   30.3850   28.3960   20.3450 O   0  0  0  0  0  0  0  0  0  0  0  0
   30.4380   26.9230   22.6890 C   0  0  1  0  0  0  0  0  0  0  0  0
   29.2210   27.8160   22.3870 C   0  0  1  0  0  0  0  0  0  0  0  0
   32.2530   27.4920   19.6280 O   0  0  0  0  0  0  0  0  0  0  0  0
   32.6900   26.6180   19.7730 H   0  0  0  0  0  0  0  0  0  0  0  0
   32.4190   28.7780   21.5510 C   0  0  0  0  0  0  0  0  0  0  0  0
   32.2600   30.0240   21.5150 O   0  0  0  0  0  0  0  0  0  0  0  0
   33.4740   28.3620   22.3640 O   0  0  0  0  0  0  0  0  0  0  0  0
   34.1160   29.0220   22.8090 H   0  0  0  0  0  0  0  0  0  0  0  0
   29.9410   25.8070   23.3810 O   0  0  0  0  0  0  0  0  0  0  0  0
   30.4070   25.0180   22.9590 H   0  0  0  0  0  0  0  0  0  0  0  0
   28.9730   28.4190   23.6610 N   0  0  0  0  0  0  0  0  0  0  0  0
   27.9860   28.0830   24.5870 C   0  0  0  0  0  0  0  0  0  0  0  0
   29.6300   29.2170   23.9130 H   0  0  0  0  0  0  0  0  0  0  0  0
   27.8460   28.8140   25.8850 C   0  0  0  0  0  0  0  0  0  0  0  0
   27.2260   27.1540   24.2910 O   0  0  0  0  0  0  0  0  0  0  0  0
   28.5070   29.2390   19.0490 O   0  0  0  0  0  0  0  0  0  0  0  0
   28.8440   28.5240   18.4530 H   0  0  0  0  0  0  0  0  0  0  0  0
   28.1230   26.4750   19.5720 O   0  0  0  0  0  0  0  0  0  0  0  0
   28.9050   26.8440   19.0830 H   0  0  0  0  0  0  0  0  0  0  0  0
   24.4210   29.8290   17.0090 O   0  0  0  0  0  0  0  0  0  0  0  0
   24.9600   30.0480   15.7290 C   0  0  0  0  0  0  0  0  0  0  0  0
   26.4150   30.2430   15.8300 C   0  0  0  0  0  0  0  0  0  0  0  0
   27.0660   31.4220   15.4480 C   0  0  0  0  0  0  0  0  0  0  0  0
   27.3840   29.4410   16.2630 N   0  0  0  0  0  0  0  0  0  0  0  0
   28.3850   31.2700   15.6690 N   0  0  0  0  0  0  0  0  0  0  0  0
   28.5380   30.0460   16.1680 N   0  0  0  0  0  0  0  0  0  0  0  0
   29.4140   32.2180   15.4250 C   0  0  0  0  0  0  0  0  0  0  0  0
   29.1780   33.4570   14.8750 C   0  0  0  0  0  0  0  0  0  0  0  0
   30.7400   31.9190   15.7460 C   0  0  0  0  0  0  0  0  0  0  0  0
   30.1990   34.3720   14.6460 C   0  0  0  0  0  0  0  0  0  0  0  0
   31.7530   32.8300   15.5170 C   0  0  0  0  0  0  0  0  0  0  0  0
   31.4990   34.0640   14.9670 C   0  0  0  0  0  0  0  0  0  0  0  0
   32.4960   34.9650   14.7410 O   0  0  0  0  0  0  0  0  0  0  0  0
   32.7330   35.4400   13.4330 C   0  0  0  0  0  0  0  0  0  0  0  0
   29.8670   25.5550   16.9770 C   0  0  0  0  0  0  0  0  0  0  0  0
   28.3450   25.7220   17.0260 C   0  0  0  0  0  0  0  0  0  0  0  0
   27.6010   24.4010   16.9030 C   0  0  0  0  0  0  0  0  0  0  0  0
   26.1550   24.5270   17.2940 C   0  0  0  0  0  0  0  0  0  0  0  0
   25.8000   23.4310   18.2940 C   0  0  0  0  0  0  0  0  0  0  0  0
   25.1030   22.3140   17.6140 N   0  0  0  0  0  0  0  0  0  0  0  0
  1  4  1  0  0  0  0
  1  5  1  0  0  0  0
  2  1  1  0  0  0  0
  3  2  2  0  0  0  0
  6  5  1  6  0  0  0
  6  7  1  0  0  0  0
  7 27  1  6  0  0  0
  8  7  1  6  0  0  0
  8 13  1  0  0  0  0
  9 14  1  6  0  0  0
  9 10  1  0  0  0  0
  9 16  1  0  0  0  0
 10 12  1  0  0  0  0
 11  9  1  0  0  0  0
 11  8  1  0  0  0  0
 12 20  1  6  0  0  0
 13 12  1  0  0  0  0
 13 22  1  1  0  0  0
 14 15  1  0  0  0  0
 16 18  1  0  0  0  0
 17 16  2  0  0  0  0
 18 19  1  0  0  0  0
 21 20  1  0  0  0  0
 22 24  1  0  0  0  0
 22 23  1  0  0  0  0
 23 25  1  0  0  0  0
 26 23  2  0  0  0  0
 28 27  1  0  0  0  0
 29  6  1  0  0  0  0
 30 29  1  0  0  0  0
 31  2  1  0  0  0  0
 32 33  1  0  0  0  0
 32 31  1  0  0  0  0
 33 35  1  0  0  0  0
 34 36  1  0  0  0  0
 34 33  2  0  0  0  0
 36 37  1  0  0  0  0
 37 35  2  0  0  0  0
 38 36  1  0  0  0  0
 38 40  2  0  0  0  0
 39 38  1  0  0  0  0
 41 39  2  0  0  0  0
 41 43  1  0  0  0  0
 42 40  1  0  0  0  0
 43 42  2  0  0  0  0
 44 43  1  0  0  0  0
 45 44  1  0  0  0  0
 46 47  1  0  0  0  0
 48 47  1  0  0  0  0
 48 49  1  0  0  0  0
 49 50  1  0  0  0  0
 51 50  1  0  0  0  0
M  END
>  <REMARK>
 VINA RESULT:    -5.442      2.566      4.174
 INTER + INTRA:         -14.963
 INTER:                  -9.750
 INTRA:                  -5.214
 UNBOUND:                -5.226
 SMILES COc1ccc(-n2cc(COC(=O)NC[C@@H](O)C(O)[C@@H]3O[C@@](O)(C(=O)O)C[C@H](O)[C@H]3NC(C)=O)nn2)cc1
 SMILES IDX 14 1 12 2 13 3 15 5 16 6 18 7 20 8 22 9 27 10 21 11 28 12
 SMILES IDX 30 13 23 14 24 16 25 17 26 18 29 20 31 22 32 23 33 25 34 26
 SMILES IDX 19 27 17 29 11 31 10 32 9 33 8 34 35 35 7 36 36 37 6 38 5 39
 SMILES IDX 37 40 4 41 38 42 3 43 2 44 1 45
 H PARENT 14 4 23 15 26 19 29 21 31 24 19 28 17 30
 Flexibility Score: inf
  4 active torsions:
  status: ('A' for Active; 'I' for Inactive)
    1  A    between atoms: CA   and  CB  
    2  A    between atoms: CB   and  CG  
    3  A    between atoms: CG   and  CD  
    4  A    between atoms: CD   and  CE  

>  <TORSDO>
F 16

>  <BEGIN_>
RES LYS A 131

$$$$
ligand_5_pose_1_2HRL.pdbqt
 OpenBabel07062320523D

  6  5  0  0  0  0  0  0  0  0999 V2000
   33.1930   34.6630    9.2900 C   0  0  0  0  0  0  0  0  0  0  0  0
   32.0600   35.3600   10.0340 C   0  0  0  0  0  0  0  0  0  0  0  0
   30.7520   34.6150    9.9740 C   0  0  0  0  0  0  0  0  0  0  0  0
   30.2880   34.4590    8.5340 C   0  0  0  0  0  0  0  0  0  0  0  0
   29.6150   35.7290    8.0510 C   0  0  0  0  0  0  0  0  0  0  0  0
   28.8830   35.4970    6.7750 N   0  0  0  0  0  0  0  0  0  0  0  0
  1  2  1  0  0  0  0
  3  2  1  0  0  0  0
  4  3  1  0  0  0  0
  5  4  1  0  0  0  0
  6  5  1  0  0  0  0
M  END
>  <EGIN_R>
ES LYS A 135

>  <REMARK>
  4 active torsions:
  status: ('A' for Active; 'I' for Inactive)
    5  A    between atoms: CA   and  CB  
    6  A    between atoms: CB   and  CG  
    7  A    between atoms: CG   and  CD  
    8  A    between atoms: CD   and  CE  

$$$$
