ligand_60_pose_11_2HRL.pdbqt
 OpenBabel07062320523D

 55 56  0  0  1  0  0  0  0  0999 V2000
   26.3150   30.7810   19.9490 N   0  0  0  0  0  0  0  0  0  0  0  0
   25.3310   31.0670   18.9920 C   0  0  0  0  0  0  0  0  0  0  0  0
   24.8240   32.1980   18.9180 O   0  0  0  0  0  0  0  0  0  0  0  0
   26.7080   29.8000   19.9580 H   0  0  0  0  0  0  0  0  0  0  0  0
   26.7810   31.7490   20.8770 C   0  0  0  0  0  0  0  0  0  0  0  0
   27.9170   31.2400   21.7560 C   0  0  2  0  0  0  0  0  0  0  0  0
   29.1540   31.1260   20.9140 C   0  0  1  0  0  0  0  0  0  0  0  0
   30.0430   29.9960   21.2670 C   0  0  2  0  0  0  0  0  0  0  0  0
   32.2450   29.6150   21.9270 C   0  0  2  0  0  0  0  0  0  0  0  0
   31.6270   28.2670   22.2080 C   0  0  0  0  0  0  0  0  0  0  0  0
   31.3570   30.5170   21.4100 O   0  0  0  0  0  0  0  0  0  0  0  0
   30.8380   27.7270   21.0560 C   0  0  1  0  0  0  0  0  0  0  0  0
   30.1660   28.8610   20.3200 C   0  0  1  0  0  0  0  0  0  0  0  0
   33.3990   29.4850   21.1170 O   0  0  0  0  0  0  0  0  0  0  0  0
   33.8380   30.3630   20.9880 H   0  0  0  0  0  0  0  0  0  0  0  0
   32.7340   30.1470   23.2270 C   0  0  0  0  0  0  0  0  0  0  0  0
   32.1350   29.7930   24.2730 O   0  0  0  0  0  0  0  0  0  0  0  0
   33.8080   31.0070   23.3570 O   0  0  0  0  0  0  0  0  0  0  0  0
   34.4210   30.9600   24.1670 H   0  0  0  0  0  0  0  0  0  0  0  0
   31.6930   26.9880   20.2480 O   0  0  0  0  0  0  0  0  0  0  0  0
   31.9020   26.1580   20.7460 H   0  0  0  0  0  0  0  0  0  0  0  0
   29.0230   28.4700   19.5870 N   0  0  0  0  0  0  0  0  0  0  0  0
   27.9870   27.6910   20.1490 C   0  0  0  0  0  0  0  0  0  0  0  0
   28.9060   28.7700   18.5990 H   0  0  0  0  0  0  0  0  0  0  0  0
   26.7770   27.2820   19.3530 C   0  0  0  0  0  0  0  0  0  0  0  0
   28.1010   27.3430   21.3380 O   0  0  0  0  0  0  0  0  0  0  0  0
   29.0040   31.4240   19.5860 O   0  0  0  0  0  0  0  0  0  0  0  0
   28.5530   30.6750   19.1350 H   0  0  0  0  0  0  0  0  0  0  0  0
   27.5130   30.0890   22.3790 O   0  0  0  0  0  0  0  0  0  0  0  0
   28.2300   29.7530   22.9850 H   0  0  0  0  0  0  0  0  0  0  0  0
   24.8680   30.1080   18.0780 O   0  0  0  0  0  0  0  0  0  0  0  0
   25.2910   30.1160   16.7510 C   0  0  0  0  0  0  0  0  0  0  0  0
   26.7170   30.4900   16.6210 C   0  0  0  0  0  0  0  0  0  0  0  0
   27.2950   31.5770   16.0120 C   0  0  0  0  0  0  0  0  0  0  0  0
   27.7490   29.7640   17.1220 N   0  0  0  0  0  0  0  0  0  0  0  0
   28.6320   31.5060   16.1450 N   0  0  0  0  0  0  0  0  0  0  0  0
   28.8680   30.3980   16.8200 N   0  0  0  0  0  0  0  0  0  0  0  0
   29.6250   32.4110   15.6720 C   0  0  0  0  0  0  0  0  0  0  0  0
   30.9020   32.4230   16.1900 C   0  0  0  0  0  0  0  0  0  0  0  0
   29.3450   33.3210   14.6700 C   0  0  0  0  0  0  0  0  0  0  0  0
   31.8720   33.2930   15.7440 C   0  0  0  0  0  0  0  0  0  0  0  0
   30.3130   34.1940   14.2200 C   0  0  0  0  0  0  0  0  0  0  0  0
   31.5940   34.2160   14.7300 C   0  0  0  0  0  0  0  0  0  0  0  0
   32.8290   35.3190   14.1680 S   0  0  0  0  0  0  0  0  0  0  0  0
   32.2290   36.6970   14.1710 O   0  0  0  0  0  0  0  0  0  0  0  0
   33.9540   35.3350   15.1780 O   0  0  0  0  0  0  0  0  0  0  0  0
   33.4150   34.9230   12.6090 N   0  0  0  0  0  0  0  0  0  0  0  0
   34.4320   34.9890   12.4940 H   0  0  0  0  0  0  0  0  0  0  0  0
   33.0310   34.0160   12.2590 H   0  0  0  0  0  0  0  0  0  0  0  0
   29.8670   25.5550   16.9770 C   0  0  0  0  0  0  0  0  0  0  0  0
   28.3450   25.7220   17.0260 C   0  0  0  0  0  0  0  0  0  0  0  0
   27.6010   24.4030   16.8880 C   0  0  0  0  0  0  0  0  0  0  0  0
   26.1490   24.5290   17.2580 C   0  0  0  0  0  0  0  0  0  0  0  0
   25.6270   23.1790   17.7390 C   0  0  0  0  0  0  0  0  0  0  0  0
   25.4090   23.2000   19.2050 N   0  0  0  0  0  0  0  0  0  0  0  0
  1  4  1  0  0  0  0
  1  5  1  0  0  0  0
  2  1  1  0  0  0  0
  3  2  2  0  0  0  0
  6  5  1  6  0  0  0
  6 29  1  0  0  0  0
  7 27  1  6  0  0  0
  7  6  1  0  0  0  0
  8  7  1  6  0  0  0
  8 11  1  0  0  0  0
  9 14  1  6  0  0  0
  9 10  1  0  0  0  0
  9 16  1  0  0  0  0
 11  9  1  0  0  0  0
 12 20  1  6  0  0  0
 12 10  1  0  0  0  0
 13 22  1  1  0  0  0
 13 12  1  0  0  0  0
 13  8  1  0  0  0  0
 15 14  1  0  0  0  0
 16 18  1  0  0  0  0
 16 17  2  0  0  0  0
 18 19  1  0  0  0  0
 20 21  1  0  0  0  0
 22 23  1  0  0  0  0
 23 26  2  0  0  0  0
 24 22  1  0  0  0  0
 25 23  1  0  0  0  0
 28 27  1  0  0  0  0
 29 30  1  0  0  0  0
 31  2  1  0  0  0  0
 32 31  1  0  0  0  0
 33 32  1  0  0  0  0
 33 35  1  0  0  0  0
 34 36  1  0  0  0  0
 34 33  2  0  0  0  0
 36 37  1  0  0  0  0
 37 35  2  0  0  0  0
 38 36  1  0  0  0  0
 38 39  2  0  0  0  0
 40 38  1  0  0  0  0
 41 39  1  0  0  0  0
 42 40  2  0  0  0  0
 42 43  1  0  0  0  0
 43 41  2  0  0  0  0
 44 45  2  0  0  0  0
 44 43  1  0  0  0  0
 44 46  2  0  0  0  0
 47 44  1  0  0  0  0
 48 47  1  0  0  0  0
 49 47  1  0  0  0  0
 50 51  1  0  0  0  0
 52 51  1  0  0  0  0
 52 53  1  0  0  0  0
 53 54  1  0  0  0  0
 54 55  1  0  0  0  0
M  END
>  <REMARK>
 VINA RESULT:    -4.827      1.891      3.470
 INTER + INTRA:         -14.741
 INTER:                  -8.770
 INTRA:                  -5.970
 UNBOUND:                -5.964
 SMILES CC(=O)N[C@@H]1[C@@H](O)C[C@](O)(C(=O)O)O[C@H]1C(O)[C@H](O)CNC(=O)OCc1cn(-c2ccc(S(N)(=O)=O)cc2)nn1
 SMILES IDX 21 1 22 2 23 3 20 5 18 6 16 7 15 8 9 9 8 10 14 11 6 12 5 13
 SMILES IDX 10 14 11 16 12 17 13 18 7 20 4 22 2 23 1 25 3 26 17 27 19 29
 SMILES IDX 24 31 25 32 26 33 27 34 40 35 28 36 39 37 29 38 30 39 38 40
 SMILES IDX 31 41 37 42 32 43 33 44 35 45 36 46 34 47
 H PARENT 21 4 10 15 13 19 7 21 4 24 17 28 19 30 34 48 34 49
 Flexibility Score: inf
  4 active torsions:
  status: ('A' for Active; 'I' for Inactive)
    1  A    between atoms: CA   and  CB  
    2  A    between atoms: CB   and  CG  
    3  A    between atoms: CG   and  CD  
    4  A    between atoms: CD   and  CE  

>  <TORSDO>
F 17

>  <BEGIN_>
RES LYS A 131

$$$$
ligand_60_pose_11_2HRL.pdbqt
 OpenBabel07062320523D

  6  5  0  0  0  0  0  0  0  0999 V2000
   33.1930   34.6630    9.2900 C   0  0  0  0  0  0  0  0  0  0  0  0
   32.0600   35.3600   10.0340 C   0  0  0  0  0  0  0  0  0  0  0  0
   30.7760   34.5710   10.0530 C   0  0  0  0  0  0  0  0  0  0  0  0
   30.4070   34.1130    8.6500 C   0  0  0  0  0  0  0  0  0  0  0  0
   29.6070   35.1830    7.9340 C   0  0  0  0  0  0  0  0  0  0  0  0
   28.1480   34.8870    7.9860 N   0  0  0  0  0  0  0  0  0  0  0  0
  1  2  1  0  0  0  0
  2  3  1  0  0  0  0
  4  3  1  0  0  0  0
  5  6  1  0  0  0  0
  5  4  1  0  0  0  0
M  END
>  <EGIN_R>
ES LYS A 135

>  <REMARK>
  4 active torsions:
  status: ('A' for Active; 'I' for Inactive)
    5  A    between atoms: CA   and  CB  
    6  A    between atoms: CB   and  CG  
    7  A    between atoms: CG   and  CD  
    8  A    between atoms: CD   and  CE  

$$$$
