ligand_79_pose_18_2HRL.pdbqt
 OpenBabel07062320523D

 58 60  0  0  1  0  0  0  0  0999 V2000
   24.4300   33.4770   16.3690 N   0  0  0  0  0  0  0  0  0  0  0  0
   23.8760   32.4740   15.5390 C   0  0  0  0  0  0  0  0  0  0  0  0
   24.4480   31.3950   15.3730 O   0  0  0  0  0  0  0  0  0  0  0  0
   23.8440   34.3760   16.4490 H   0  0  0  0  0  0  0  0  0  0  0  0
   25.6730   33.3910   17.0860 C   0  0  0  0  0  0  0  0  0  0  0  0
   26.6110   34.5240   16.8990 C   0  0  2  0  0  0  0  0  0  0  0  0
   27.2490   34.5660   15.5190 C   0  0  1  0  0  0  0  0  0  0  0  0
   28.7540   34.5780   15.6010 C   0  0  2  0  0  0  0  0  0  0  0  0
   29.8630   35.1950   13.6620 C   0  0  2  0  0  0  0  0  0  0  0  0
   30.9560   34.1600   13.8160 C   0  0  0  0  0  0  0  0  0  0  0  0
   29.3400   35.5840   14.8890 O   0  0  0  0  0  0  0  0  0  0  0  0
   30.8380   33.4170   15.1310 C   0  0  1  0  0  0  0  0  0  0  0  0
   29.3390   33.2050   15.3470 C   0  0  1  0  0  0  0  0  0  0  0  0
   28.8490   34.7790   12.8000 O   0  0  0  0  0  0  0  0  0  0  0  0
   28.3300   34.0250   13.2010 H   0  0  0  0  0  0  0  0  0  0  0  0
   30.4860   36.3990   13.0500 C   0  0  0  0  0  0  0  0  0  0  0  0
   31.6950   36.3460   12.6620 O   0  0  0  0  0  0  0  0  0  0  0  0
   29.8210   37.5900   12.8740 O   0  0  0  0  0  0  0  0  0  0  0  0
   28.8610   37.6490   12.5590 H   0  0  0  0  0  0  0  0  0  0  0  0
   31.5220   32.2250   15.1270 O   0  0  0  0  0  0  0  0  0  0  0  0
   32.2920   32.3090   15.7750 H   0  0  0  0  0  0  0  0  0  0  0  0
   29.0840   32.3510   16.4760 N   0  0  0  0  0  0  0  0  0  0  0  0
   28.5020   31.0430   16.3260 C   0  0  0  0  0  0  0  0  0  0  0  0
   29.3020   32.6220   17.4660 H   0  0  0  0  0  0  0  0  0  0  0  0
   28.2270   30.1440   17.4480 C   0  0  0  0  0  0  0  0  0  0  0  0
   28.2280   30.6880   15.1350 O   0  0  0  0  0  0  0  0  0  0  0  0
   26.8240   33.4000   14.8770 O   0  0  0  0  0  0  0  0  0  0  0  0
   26.1210   33.5620   14.2180 H   0  0  0  0  0  0  0  0  0  0  0  0
   27.6490   34.4610   17.8080 O   0  0  0  0  0  0  0  0  0  0  0  0
   27.8740   33.5040   17.9430 H   0  0  0  0  0  0  0  0  0  0  0  0
   22.6620   32.6540   14.8730 O   0  0  0  0  0  0  0  0  0  0  0  0
   22.5920   32.5970   13.4780 C   0  0  0  0  0  0  0  0  0  0  0  0
   23.2820   33.7660   12.8750 C   0  0  0  0  0  0  0  0  0  0  0  0
   22.9350   34.3970   11.6900 C   0  0  0  0  0  0  0  0  0  0  0  0
   24.3530   34.4510   13.3240 N   0  0  0  0  0  0  0  0  0  0  0  0
   23.7850   35.4170   11.4640 N   0  0  0  0  0  0  0  0  0  0  0  0
   24.6360   35.4230   12.4750 N   0  0  0  0  0  0  0  0  0  0  0  0
   23.7540   36.3340   10.3080 C   0  0  0  0  0  0  0  0  0  0  0  0
   22.9890   35.6970    9.1990 C   0  0  0  0  0  0  0  0  0  0  0  0
   23.0060   37.5680   10.8480 C   0  0  0  0  0  0  0  0  0  0  0  0
   25.1330   36.7190   10.0190 C   0  0  0  0  0  0  0  0  0  0  0  0
   25.6400   37.7820   10.5220 O   0  0  0  0  0  0  0  0  0  0  0  0
   26.0490   35.9760    9.1600 C   0  0  0  0  0  0  0  0  0  0  0  0
   26.5020   34.6810    9.4090 C   0  0  0  0  0  0  0  0  0  0  0  0
   26.6170   36.4500    8.0060 C   0  0  0  0  0  0  0  0  0  0  0  0
   27.3330   34.3800    8.4140 N   0  0  0  0  0  0  0  0  0  0  0  0
   27.4340   35.4110    7.5480 C   0  0  0  0  0  0  0  0  0  0  0  0
   26.5320   37.6360    7.2830 C   0  0  0  0  0  0  0  0  0  0  0  0
   27.8380   33.4880    8.3040 H   0  0  0  0  0  0  0  0  0  0  0  0
   28.1390   35.6060    6.3770 C   0  0  0  0  0  0  0  0  0  0  0  0
   27.2440   37.7930    6.1300 C   0  0  0  0  0  0  0  0  0  0  0  0
   28.0430   36.7850    5.6790 C   0  0  0  0  0  0  0  0  0  0  0  0
   29.8670   25.5550   16.9770 C   0  0  0  0  0  0  0  0  0  0  0  0
   28.3450   25.7220   17.0260 C   0  0  0  0  0  0  0  0  0  0  0  0
   27.6000   24.4160   16.7950 C   0  0  0  0  0  0  0  0  0  0  0  0
   26.8410   23.9740   18.0160 C   0  0  0  0  0  0  0  0  0  0  0  0
   25.4890   24.6790   18.0580 C   0  0  0  0  0  0  0  0  0  0  0  0
   24.6750   24.3110   16.8760 N   0  0  0  0  0  0  0  0  0  0  0  0
  1  4  1  0  0  0  0
  1  5  1  0  0  0  0
  2  1  1  0  0  0  0
  3  2  2  0  0  0  0
  6  5  1  6  0  0  0
  6 29  1  0  0  0  0
  7 27  1  6  0  0  0
  7  6  1  0  0  0  0
  8  7  1  6  0  0  0
  9 14  1  6  0  0  0
  9 10  1  0  0  0  0
  9 11  1  0  0  0  0
 10 12  1  0  0  0  0
 11  8  1  0  0  0  0
 12 20  1  6  0  0  0
 12 13  1  0  0  0  0
 13  8  1  0  0  0  0
 13 22  1  1  0  0  0
 14 15  1  0  0  0  0
 16  9  1  0  0  0  0
 17 16  2  0  0  0  0
 18 16  1  0  0  0  0
 19 18  1  0  0  0  0
 20 21  1  0  0  0  0
 22 24  1  0  0  0  0
 23 22  1  0  0  0  0
 23 25  1  0  0  0  0
 26 23  2  0  0  0  0
 28 27  1  0  0  0  0
 29 30  1  0  0  0  0
 31  2  1  0  0  0  0
 32 31  1  0  0  0  0
 33 35  1  0  0  0  0
 33 32  1  0  0  0  0
 34 33  2  0  0  0  0
 36 34  1  0  0  0  0
 36 37  1  0  0  0  0
 37 35  2  0  0  0  0
 38 40  1  0  0  0  0
 38 36  1  0  0  0  0
 39 38  1  0  0  0  0
 41 38  1  0  0  0  0
 41 42  2  0  0  0  0
 43 44  2  0  0  0  0
 43 41  1  0  0  0  0
 45 43  1  0  0  0  0
 46 44  1  0  0  0  0
 47 45  1  0  0  0  0
 47 46  1  0  0  0  0
 48 45  2  0  0  0  0
 49 46  1  0  0  0  0
 50 47  2  0  0  0  0
 51 48  1  0  0  0  0
 52 51  2  0  0  0  0
 52 50  1  0  0  0  0
 53 54  1  0  0  0  0
 55 54  1  0  0  0  0
 55 56  1  0  0  0  0
 56 57  1  0  0  0  0
 58 57  1  0  0  0  0
M  END
>  <REMARK>
 VINA RESULT:    -5.825      2.836      8.422
 INTER + INTRA:         -15.540
 INTER:                  -9.757
 INTRA:                  -5.783
 UNBOUND:                -4.777
 SMILES CC(=O)N[C@@H]1[C@@H](O)C[C@](O)(C(=O)O)O[C@H]1C(O)[C@H](O)CNC(=O)OCc1cn(C(C)(C)C(=O)c2c[nH]c3ccccc23)nn1
 SMILES IDX 21 1 22 2 23 3 20 5 18 6 16 7 15 8 9 9 8 10 14 11 6 12 5 13
 SMILES IDX 10 14 11 16 12 17 13 18 7 20 4 22 2 23 1 25 3 26 17 27 19 29
 SMILES IDX 24 31 25 32 26 33 27 34 44 35 28 36 43 37 29 38 30 39 31 40
 SMILES IDX 32 41 33 42 34 43 35 44 42 45 36 46 37 47 41 48 38 50 40 51
 SMILES IDX 39 52
 H PARENT 21 4 10 15 13 19 7 21 4 24 17 28 19 30 36 49
 Flexibility Score: inf
  4 active torsions:
  status: ('A' for Active; 'I' for Inactive)
    1  A    between atoms: CA   and  CB  
    2  A    between atoms: CB   and  CG  
    3  A    between atoms: CG   and  CD  
    4  A    between atoms: CD   and  CE  

>  <TORSDO>
F 17

>  <BEGIN_>
RES LYS A 131

$$$$
ligand_79_pose_18_2HRL.pdbqt
 OpenBabel07062320523D

  6  5  0  0  0  0  0  0  0  0999 V2000
   33.1930   34.6630    9.2900 C   0  0  0  0  0  0  0  0  0  0  0  0
   32.0600   35.3600   10.0340 C   0  0  0  0  0  0  0  0  0  0  0  0
   30.7510   35.3480    9.2870 C   0  0  0  0  0  0  0  0  0  0  0  0
   29.9690   36.6250    9.5530 C   0  0  0  0  0  0  0  0  0  0  0  0
   30.4110   37.7260    8.6080 C   0  0  0  0  0  0  0  0  0  0  0  0
   30.9850   38.8780    9.3570 N   0  0  0  0  0  0  0  0  0  0  0  0
  1  2  1  0  0  0  0
  3  4  1  0  0  0  0
  3  2  1  0  0  0  0
  5  6  1  0  0  0  0
  5  4  1  0  0  0  0
M  END
>  <EGIN_R>
ES LYS A 135

>  <REMARK>
  4 active torsions:
  status: ('A' for Active; 'I' for Inactive)
    5  A    between atoms: CA   and  CB  
    6  A    between atoms: CB   and  CG  
    7  A    between atoms: CG   and  CD  
    8  A    between atoms: CD   and  CE  

$$$$
