ligand_92_pose_9_2HRL.pdbqt
 OpenBabel07062320523D

 59 61  0  0  1  0  0  0  0  0999 V2000
   31.2370   32.1870   15.8360 N   0  0  0  0  0  0  0  0  0  0  0  0
   31.5420   33.3580   16.5650 C   0  0  0  0  0  0  0  0  0  0  0  0
   31.0580   33.4880   17.7410 O   0  0  0  0  0  0  0  0  0  0  0  0
   31.6260   32.0740   14.8850 H   0  0  0  0  0  0  0  0  0  0  0  0
   30.4030   31.1510   16.3820 C   0  0  0  0  0  0  0  0  0  0  0  0
   29.0870   31.0190   15.6570 C   0  0  2  0  0  0  0  0  0  0  0  0
   27.9620   31.6800   16.4000 C   0  0  1  0  0  0  0  0  0  0  0  0
   27.2960   32.7610   15.5300 C   0  0  2  0  0  0  0  0  0  0  0  0
   27.8240   34.7650   16.6580 C   0  0  2  0  0  0  0  0  0  0  0  0
   26.3430   35.0760   16.7630 C   0  0  0  0  0  0  0  0  0  0  0  0
   28.0480   33.8890   15.6550 O   0  0  0  0  0  0  0  0  0  0  0  0
   25.6700   33.7610   17.0750 C   0  0  1  0  0  0  0  0  0  0  0  0
   25.8650   32.8490   15.8890 C   0  0  1  0  0  0  0  0  0  0  0  0
   28.1730   34.1740   17.8800 O   0  0  0  0  0  0  0  0  0  0  0  0
   29.0500   33.7480   17.8630 H   0  0  0  0  0  0  0  0  0  0  0  0
   28.6210   36.0130   16.5340 C   0  0  0  0  0  0  0  0  0  0  0  0
   28.1170   37.0110   15.9980 O   0  0  0  0  0  0  0  0  0  0  0  0
   29.9180   36.0750   17.0060 O   0  0  0  0  0  0  0  0  0  0  0  0
   30.6620   35.5310   16.5440 H   0  0  0  0  0  0  0  0  0  0  0  0
   26.1790   33.2360   18.2580 O   0  0  0  0  0  0  0  0  0  0  0  0
   25.5110   33.4280   18.9780 H   0  0  0  0  0  0  0  0  0  0  0  0
   24.9890   33.2940   14.8540 N   0  0  0  0  0  0  0  0  0  0  0  0
   24.3080   32.3600   14.0430 C   0  0  0  0  0  0  0  0  0  0  0  0
   24.8460   34.3040   14.6870 H   0  0  0  0  0  0  0  0  0  0  0  0
   23.3800   32.7330   12.9450 C   0  0  0  0  0  0  0  0  0  0  0  0
   24.4980   31.1560   14.2610 O   0  0  0  0  0  0  0  0  0  0  0  0
   26.9800   30.7540   16.8210 O   0  0  0  0  0  0  0  0  0  0  0  0
   26.3470   30.6480   16.0890 H   0  0  0  0  0  0  0  0  0  0  0  0
   28.8690   29.6300   15.5280 O   0  0  0  0  0  0  0  0  0  0  0  0
   27.9270   29.4750   15.7850 H   0  0  0  0  0  0  0  0  0  0  0  0
   32.3360   34.3780   16.0840 O   0  0  0  0  0  0  0  0  0  0  0  0
   32.6340   34.5120   14.6870 C   0  0  0  0  0  0  0  0  0  0  0  0
   31.5820   35.4060   14.1210 C   0  0  0  0  0  0  0  0  0  0  0  0
   30.4460   35.0160   13.4090 C   0  0  0  0  0  0  0  0  0  0  0  0
   31.4980   36.7520   14.1710 N   0  0  0  0  0  0  0  0  0  0  0  0
   29.7400   36.1050   13.0650 N   0  0  0  0  0  0  0  0  0  0  0  0
   30.4110   37.1320   13.5460 N   0  0  0  0  0  0  0  0  0  0  0  0
   28.5220   36.0950   12.3320 C   0  0  0  0  0  0  0  0  0  0  0  0
   27.5810   35.1010   12.4700 C   0  0  0  0  0  0  0  0  0  0  0  0
   28.2550   37.1110   11.4400 C   0  0  0  0  0  0  0  0  0  0  0  0
   26.3930   35.1090   11.7400 C   0  0  0  0  0  0  0  0  0  0  0  0
   27.0820   37.1220   10.7180 C   0  0  0  0  0  0  0  0  0  0  0  0
   26.1150   36.1190   10.8480 C   0  0  0  0  0  0  0  0  0  0  0  0
   24.6430   36.1780    9.9250 S   0  0  0  0  0  0  0  0  0  0  0  0
   24.8060   35.1950    8.7720 O   0  0  0  0  0  0  0  0  0  0  0  0
   24.5440   37.5320    9.3120 O   0  0  0  0  0  0  0  0  0  0  0  0
   23.2430   35.7820   10.8020 N   0  0  0  0  0  0  0  0  0  0  0  0
   23.3270   35.7210   11.8540 H   0  0  0  0  0  0  0  0  0  0  0  0
   21.9650   35.5180   10.2870 C   0  0  0  0  0  0  0  0  0  0  0  0
   21.3150   35.5600    9.2540 N   0  0  0  0  0  0  0  0  0  0  0  0
   20.6300   34.8480   11.4440 S   0  0  0  0  0  0  0  0  0  0  0  0
   20.0780   35.2300    9.0600 C   0  0  0  0  0  0  0  0  0  0  0  0
   19.3470   34.7700   10.1000 C   0  0  0  0  0  0  0  0  0  0  0  0
   29.8670   25.5550   16.9770 C   0  0  0  0  0  0  0  0  0  0  0  0
   28.3450   25.7220   17.0260 C   0  0  0  0  0  0  0  0  0  0  0  0
   27.5990   24.4720   16.5840 C   0  0  0  0  0  0  0  0  0  0  0  0
   27.0200   23.7170   17.7480 C   0  0  0  0  0  0  0  0  0  0  0  0
   25.5320   23.4810   17.5120 C   0  0  0  0  0  0  0  0  0  0  0  0
   24.8540   24.7520   17.1600 N   0  0  0  0  0  0  0  0  0  0  0  0
  1  5  1  0  0  0  0
  1  2  1  0  0  0  0
  2  3  2  0  0  0  0
  4  1  1  0  0  0  0
  6  5  1  1  0  0  0
  6  7  1  0  0  0  0
  7 27  1  6  0  0  0
  8 11  1  0  0  0  0
  8 13  1  0  0  0  0
  8  7  1  1  0  0  0
  9 16  1  6  0  0  0
  9 10  1  0  0  0  0
  9 14  1  0  0  0  0
 10 12  1  0  0  0  0
 11  9  1  0  0  0  0
 12 20  1  1  0  0  0
 13 22  1  6  0  0  0
 13 12  1  0  0  0  0
 15 14  1  0  0  0  0
 16 18  1  0  0  0  0
 17 16  2  0  0  0  0
 19 18  1  0  0  0  0
 20 21  1  0  0  0  0
 23 26  2  0  0  0  0
 23 22  1  0  0  0  0
 24 22  1  0  0  0  0
 25 23  1  0  0  0  0
 28 27  1  0  0  0  0
 29  6  1  0  0  0  0
 29 30  1  0  0  0  0
 31  2  1  0  0  0  0
 32 31  1  0  0  0  0
 33 35  1  0  0  0  0
 33 32  1  0  0  0  0
 34 33  2  0  0  0  0
 36 34  1  0  0  0  0
 36 37  1  0  0  0  0
 37 35  2  0  0  0  0
 38 39  1  0  0  0  0
 38 36  1  0  0  0  0
 40 38  2  0  0  0  0
 41 39  2  0  0  0  0
 42 43  2  0  0  0  0
 42 40  1  0  0  0  0
 43 41  1  0  0  0  0
 44 47  1  0  0  0  0
 44 43  1  0  0  0  0
 45 44  2  0  0  0  0
 46 44  2  0  0  0  0
 47 48  1  0  0  0  0
 49 47  1  0  0  0  0
 49 51  1  0  0  0  0
 50 49  2  0  0  0  0
 52 50  1  0  0  0  0
 52 53  2  0  0  0  0
 53 51  1  0  0  0  0
 54 55  1  0  0  0  0
 56 55  1  0  0  0  0
 56 57  1  0  0  0  0
 58 57  1  0  0  0  0
 59 58  1  0  0  0  0
M  END
>  <REMARK>
 VINA RESULT:    -4.970      5.148      8.553
 INTER + INTRA:         -15.880
 INTER:                  -8.317
 INTRA:                  -7.563
 UNBOUND:                -6.408
 SMILES CC(=O)N[C@@H]1[C@@H](O)C[C@](O)(C(=O)O)O[C@H]1C(O)[C@H](O)CNC(=O)OCc1cn(-c2ccc(S(=O)(=O)Nc3nccs3)cc2)nn1
 SMILES IDX 21 1 22 2 23 3 20 5 18 6 16 7 15 8 9 9 8 10 14 11 6 12 5 13
 SMILES IDX 10 14 11 16 12 17 13 18 7 20 4 22 2 23 1 25 3 26 17 27 19 29
 SMILES IDX 24 31 25 32 26 33 27 34 45 35 28 36 44 37 29 38 30 39 43 40
 SMILES IDX 31 41 42 42 32 43 33 44 34 45 35 46 36 47 37 49 38 50 41 51
 SMILES IDX 39 52 40 53
 H PARENT 21 4 10 15 13 19 7 21 4 24 17 28 19 30 36 48
 Flexibility Score: inf
  4 active torsions:
  status: ('A' for Active; 'I' for Inactive)
    1  A    between atoms: CA   and  CB  
    2  A    between atoms: CB   and  CG  
    3  A    between atoms: CG   and  CD  
    4  A    between atoms: CD   and  CE  

>  <TORSDO>
F 18

>  <BEGIN_>
RES LYS A 131

$$$$
ligand_92_pose_9_2HRL.pdbqt
 OpenBabel07062320523D

  6  5  0  0  0  0  0  0  0  0999 V2000
   33.1930   34.6630    9.2900 C   0  0  0  0  0  0  0  0  0  0  0  0
   32.0600   35.3600   10.0340 C   0  0  0  0  0  0  0  0  0  0  0  0
   30.7080   34.7400    9.7900 C   0  0  0  0  0  0  0  0  0  0  0  0
   30.4950   34.4840    8.3060 C   0  0  0  0  0  0  0  0  0  0  0  0
   29.4250   35.4070    7.7550 C   0  0  0  0  0  0  0  0  0  0  0  0
   28.0660   34.8280    7.9480 N   0  0  0  0  0  0  0  0  0  0  0  0
  1  2  1  0  0  0  0
  3  2  1  0  0  0  0
  4  3  1  0  0  0  0
  5  6  1  0  0  0  0
  5  4  1  0  0  0  0
M  END
>  <EGIN_R>
ES LYS A 135

>  <REMARK>
  4 active torsions:
  status: ('A' for Active; 'I' for Inactive)
    5  A    between atoms: CA   and  CB  
    6  A    between atoms: CB   and  CG  
    7  A    between atoms: CG   and  CD  
    8  A    between atoms: CD   and  CE  

$$$$
