ligand_72_pose_10_2HRL.pdbqt
 OpenBabel07062320523D

 49 49  0  0  1  0  0  0  0  0999 V2000
   27.9450   30.8190   18.6380 N   0  0  0  0  0  0  0  0  0  0  0  0
   29.2660   31.2060   19.0330 C   0  0  0  0  0  0  0  0  0  0  0  0
   30.1770   30.3360   19.2470 O   0  0  0  0  0  0  0  0  0  0  0  0
   27.2470   31.5660   18.4650 H   0  0  0  0  0  0  0  0  0  0  0  0
   27.6320   29.4150   18.4750 C   0  0  0  0  0  0  0  0  0  0  0  0
   26.6510   29.1590   17.4000 C   0  0  2  0  0  0  0  0  0  0  0  0
   25.7280   30.2520   17.0150 C   0  0  1  0  0  0  0  0  0  0  0  0
   26.0620   30.8080   15.6520 C   0  0  2  0  0  0  0  0  0  0  0  0
   26.9420   32.9470   16.1430 C   0  0  2  0  0  0  0  0  0  0  0  0
   25.6980   33.5880   15.4990 C   0  0  0  0  0  0  0  0  0  0  0  0
   27.1380   31.6660   15.7410 O   0  0  0  0  0  0  0  0  0  0  0  0
   25.3760   32.7300   14.3210 C   0  0  1  0  0  0  0  0  0  0  0  0
   24.8940   31.3680   14.8980 C   0  0  1  0  0  0  0  0  0  0  0  0
   26.8920   33.1610   17.5050 O   0  0  0  0  0  0  0  0  0  0  0  0
   26.6450   34.0980   17.6900 H   0  0  0  0  0  0  0  0  0  0  0  0
   28.1360   33.7230   15.6240 C   0  0  0  0  0  0  0  0  0  0  0  0
   28.3360   34.9090   15.9790 O   0  0  0  0  0  0  0  0  0  0  0  0
   28.9930   33.0850   14.7530 O   0  0  0  0  0  0  0  0  0  0  0  0
   28.8910   33.1750   13.7470 H   0  0  0  0  0  0  0  0  0  0  0  0
   24.4060   33.2590   13.4930 O   0  0  0  0  0  0  0  0  0  0  0  0
   23.5300   33.0820   13.9270 H   0  0  0  0  0  0  0  0  0  0  0  0
   24.5880   30.6150   13.6710 N   0  0  0  0  0  0  0  0  0  0  0  0
   23.7620   29.4870   13.6460 C   0  0  0  0  0  0  0  0  0  0  0  0
   25.0200   30.9630   12.7900 H   0  0  0  0  0  0  0  0  0  0  0  0
   23.4440   28.7090   12.4210 C   0  0  0  0  0  0  0  0  0  0  0  0
   23.2490   29.0920   14.7300 O   0  0  0  0  0  0  0  0  0  0  0  0
   24.4120   30.1350   17.3200 O   0  0  0  0  0  0  0  0  0  0  0  0
   24.0870   29.2030   17.4230 H   0  0  0  0  0  0  0  0  0  0  0  0
   25.8760   28.0250   17.7350 O   0  0  0  0  0  0  0  0  0  0  0  0
   26.4350   27.4370   18.2890 H   0  0  0  0  0  0  0  0  0  0  0  0
   29.5350   32.5420   19.1790 O   0  0  0  0  0  0  0  0  0  0  0  0
   30.8260   33.0760   19.1540 C   0  0  0  0  0  0  0  0  0  0  0  0
   31.2700   33.3540   17.7640 C   0  0  0  0  0  0  0  0  0  0  0  0
   31.7960   34.5480   17.3390 C   0  0  0  0  0  0  0  0  0  0  0  0
   31.2500   32.5490   16.7010 N   0  0  0  0  0  0  0  0  0  0  0  0
   32.0840   34.4450   16.0380 N   0  0  0  0  0  0  0  0  0  0  0  0
   31.7390   33.2080   15.6740 N   0  0  0  0  0  0  0  0  0  0  0  0
   32.6540   35.4840   15.2200 C   0  0  0  0  0  0  0  0  0  0  0  0
   33.5840   34.9000   14.1780 C   0  0  0  0  0  0  0  0  0  0  0  0
   33.4120   36.4500   16.1210 C   0  0  0  0  0  0  0  0  0  0  0  0
   31.5510   36.2750   14.5640 C   0  0  0  0  0  0  0  0  0  0  0  0
   30.6280   35.4080   13.9720 O   0  0  0  0  0  0  0  0  0  0  0  0
   29.8500   35.3170   14.5790 H   0  0  0  0  0  0  0  0  0  0  0  0
   29.8670   25.5550   16.9770 C   0  0  0  0  0  0  0  0  0  0  0  0
   28.3450   25.7220   17.0260 C   0  0  0  0  0  0  0  0  0  0  0  0
   27.6000   24.4080   16.8470 C   0  0  0  0  0  0  0  0  0  0  0  0
   26.5130   24.2290   17.8700 C   0  0  0  0  0  0  0  0  0  0  0  0
   25.1710   24.0680   17.1640 C   0  0  0  0  0  0  0  0  0  0  0  0
   24.0580   24.1550   18.1390 N   0  0  0  0  0  0  0  0  0  0  0  0
  1  2  1  0  0  0  0
  2 31  1  0  0  0  0
  2  3  2  0  0  0  0
  4  1  1  0  0  0  0
  5  1  1  0  0  0  0
  6 29  1  0  0  0  0
  6  5  1  1  0  0  0
  7 27  1  6  0  0  0
  7  6  1  0  0  0  0
  8 11  1  0  0  0  0
  8  7  1  1  0  0  0
  9 16  1  6  0  0  0
  9 14  1  0  0  0  0
 10  9  1  0  0  0  0
 11  9  1  0  0  0  0
 12 20  1  1  0  0  0
 12 13  1  0  0  0  0
 12 10  1  0  0  0  0
 13 22  1  6  0  0  0
 13  8  1  0  0  0  0
 14 15  1  0  0  0  0
 16 17  2  0  0  0  0
 18 16  1  0  0  0  0
 19 18  1  0  0  0  0
 20 21  1  0  0  0  0
 23 22  1  0  0  0  0
 23 26  2  0  0  0  0
 24 22  1  0  0  0  0
 25 23  1  0  0  0  0
 27 28  1  0  0  0  0
 29 30  1  0  0  0  0
 32 31  1  0  0  0  0
 33 32  1  0  0  0  0
 34 33  2  0  0  0  0
 35 33  1  0  0  0  0
 36 34  1  0  0  0  0
 37 36  1  0  0  0  0
 37 35  2  0  0  0  0
 38 36  1  0  0  0  0
 38 40  1  0  0  0  0
 39 38  1  0  0  0  0
 41 38  1  0  0  0  0
 42 41  1  0  0  0  0
 42 43  1  0  0  0  0
 44 45  1  0  0  0  0
 46 45  1  0  0  0  0
 46 47  1  0  0  0  0
 48 47  1  0  0  0  0
 48 49  1  0  0  0  0
M  END
>  <REMARK>
 VINA RESULT:    -4.356      6.222     11.152
 INTER + INTRA:         -14.066
 INTER:                  -7.124
 INTRA:                  -6.941
 UNBOUND:                -6.145
 SMILES CC(=O)N[C@@H]1[C@@H](O)C[C@](O)(C(=O)O)O[C@H]1C(O)[C@H](O)CNC(=O)OCc1cn(C(C)(C)CO)nn1
 SMILES IDX 21 1 22 2 23 3 20 5 18 6 16 7 15 8 9 9 8 10 14 11 6 12 5 13
 SMILES IDX 10 14 11 16 12 17 13 18 7 20 4 22 2 23 1 25 3 26 17 27 19 29
 SMILES IDX 24 31 25 32 26 33 27 34 35 35 28 36 34 37 29 38 30 39 31 40
 SMILES IDX 32 41 33 42
 H PARENT 21 4 10 15 13 19 7 21 4 24 17 28 19 30 33 43
 Flexibility Score: inf
  4 active torsions:
  status: ('A' for Active; 'I' for Inactive)
    1  A    between atoms: CA   and  CB  
    2  A    between atoms: CB   and  CG  
    3  A    between atoms: CG   and  CD  
    4  A    between atoms: CD   and  CE  

>  <TORSDO>
F 17

>  <BEGIN_>
RES LYS A 131

$$$$
ligand_72_pose_10_2HRL.pdbqt
 OpenBabel07062320523D

  6  5  0  0  0  0  0  0  0  0999 V2000
   33.1930   34.6630    9.2900 C   0  0  0  0  0  0  0  0  0  0  0  0
   32.0600   35.3600   10.0340 C   0  0  0  0  0  0  0  0  0  0  0  0
   30.8580   35.6460    9.1710 C   0  0  0  0  0  0  0  0  0  0  0  0
   30.2070   34.3510    8.7110 C   0  0  0  0  0  0  0  0  0  0  0  0
   28.7000   34.5060    8.6470 C   0  0  0  0  0  0  0  0  0  0  0  0
   28.0260   33.6160    9.6330 N   0  0  0  0  0  0  0  0  0  0  0  0
  1  2  1  0  0  0  0
  3  2  1  0  0  0  0
  4  3  1  0  0  0  0
  5  4  1  0  0  0  0
  5  6  1  0  0  0  0
M  END
>  <EGIN_R>
ES LYS A 135

>  <REMARK>
  4 active torsions:
  status: ('A' for Active; 'I' for Inactive)
    5  A    between atoms: CA   and  CB  
    6  A    between atoms: CB   and  CG  
    7  A    between atoms: CG   and  CD  
    8  A    between atoms: CD   and  CE  

$$$$
