ligand_21_pose_5_2HRL.pdbqt
 OpenBabel07062320523D

 54 55  0  0  1  0  0  0  0  0999 V2000
   26.2840   28.3720   19.6990 N   0  0  0  0  0  0  0  0  0  0  0  0
   26.5790   28.5880   18.3200 C   0  0  0  0  0  0  0  0  0  0  0  0
   27.0680   27.6420   17.6660 O   0  0  0  0  0  0  0  0  0  0  0  0
   25.8800   29.1660   20.2330 H   0  0  0  0  0  0  0  0  0  0  0  0
   26.5440   27.1010   20.3210 C   0  0  0  0  0  0  0  0  0  0  0  0
   27.3540   27.3520   21.5980 C   0  0  2  0  0  0  0  0  0  0  0  0
   28.8010   27.5280   21.2310 C   0  0  2  0  0  0  0  0  0  0  0  0
   29.1230   28.9970   21.1830 C   0  0  2  0  0  0  0  0  0  0  0  0
   29.8200   30.6540   19.7070 C   0  0  2  0  0  0  0  0  0  0  0  0
   31.1650   30.7660   20.3850 C   0  0  0  0  0  0  0  0  0  0  0  0
   29.3890   29.3520   19.8980 O   0  0  0  0  0  0  0  0  0  0  0  0
   30.9750   30.5560   21.8480 C   0  0  1  0  0  0  0  0  0  0  0  0
   30.1680   29.3320   22.1850 C   0  0  1  0  0  0  0  0  0  0  0  0
   30.0850   30.7780   18.3260 O   0  0  0  0  0  0  0  0  0  0  0  0
   29.2550   30.7980   17.7980 H   0  0  0  0  0  0  0  0  0  0  0  0
   28.8510   31.6810   20.1370 C   0  0  0  0  0  0  0  0  0  0  0  0
   29.1580   32.7090   20.7880 O   0  0  0  0  0  0  0  0  0  0  0  0
   27.5160   31.5220   19.8140 O   0  0  0  0  0  0  0  0  0  0  0  0
   26.8990   30.8430   20.2650 H   0  0  0  0  0  0  0  0  0  0  0  0
   32.2620   30.4640   22.4230 O   0  0  0  0  0  0  0  0  0  0  0  0
   32.9240   30.3220   21.6830 H   0  0  0  0  0  0  0  0  0  0  0  0
   29.5270   29.5550   23.4670 N   0  0  0  0  0  0  0  0  0  0  0  0
   29.7630   28.7060   24.5910 C   0  0  0  0  0  0  0  0  0  0  0  0
   28.8690   30.3520   23.6000 H   0  0  0  0  0  0  0  0  0  0  0  0
   29.0820   28.9810   25.8760 C   0  0  0  0  0  0  0  0  0  0  0  0
   30.5450   27.7380   24.4810 O   0  0  0  0  0  0  0  0  0  0  0  0
   29.1020   26.9280   20.0030 O   0  0  0  0  0  0  0  0  0  0  0  0
   28.5920   26.0880   19.9310 H   0  0  0  0  0  0  0  0  0  0  0  0
   27.1110   26.2970   22.4480 O   0  0  0  0  0  0  0  0  0  0  0  0
   26.8980   26.5630   23.3660 H   0  0  0  0  0  0  0  0  0  0  0  0
   26.3220   29.8200   17.7420 O   0  0  0  0  0  0  0  0  0  0  0  0
   26.3300   30.0050   16.3450 C   0  0  0  0  0  0  0  0  0  0  0  0
   27.5370   30.7580   15.9720 C   0  0  0  0  0  0  0  0  0  0  0  0
   27.6220   32.1340   15.7420 C   0  0  0  0  0  0  0  0  0  0  0  0
   28.7980   30.2960   15.7720 N   0  0  0  0  0  0  0  0  0  0  0  0
   28.8820   32.4100   15.4280 N   0  0  0  0  0  0  0  0  0  0  0  0
   29.5920   31.2960   15.4470 N   0  0  0  0  0  0  0  0  0  0  0  0
   29.4110   33.7220   15.1170 C   0  0  0  0  0  0  0  0  0  0  0  0
   30.2130   34.1430   16.3150 C   0  0  0  0  0  0  0  0  0  0  0  0
   31.5770   34.1940   16.2020 C   0  0  0  0  0  0  0  0  0  0  0  0
   29.5720   34.4640   17.4840 C   0  0  0  0  0  0  0  0  0  0  0  0
   32.3530   34.5710   17.2680 C   0  0  0  0  0  0  0  0  0  0  0  0
   30.3510   34.8510   18.5800 C   0  0  0  0  0  0  0  0  0  0  0  0
   31.7120   34.8940   18.4450 C   0  0  0  0  0  0  0  0  0  0  0  0
   32.1870   33.8620   15.0010 O   0  0  0  0  0  0  0  0  0  0  0  0
   32.9160   34.8590   14.3530 C   0  0  0  0  0  0  0  0  0  0  0  0
   34.1610   34.7500   14.2590 O   0  0  0  0  0  0  0  0  0  0  0  0
   32.2370   36.0420   13.7750 C   0  0  0  0  0  0  0  0  0  0  0  0
   29.8670   25.5550   16.9770 C   0  0  0  0  0  0  0  0  0  0  0  0
   28.3450   25.7220   17.0260 C   0  0  0  0  0  0  0  0  0  0  0  0
   27.5990   24.4290   16.7350 C   0  0  0  0  0  0  0  0  0  0  0  0
   26.9560   23.8560   17.9680 C   0  0  0  0  0  0  0  0  0  0  0  0
   25.5740   23.3150   17.6160 C   0  0  0  0  0  0  0  0  0  0  0  0
   24.7760   24.3470   16.9120 N   0  0  0  0  0  0  0  0  0  0  0  0
  1  4  1  0  0  0  0
  1  5  1  0  0  0  0
  2  1  1  0  0  0  0
  3  2  2  0  0  0  0
  6  5  1  6  0  0  0
  6 29  1  0  0  0  0
  7 27  1  6  0  0  0
  7  6  1  0  0  0  0
  8  7  1  6  0  0  0
  8 13  1  0  0  0  0
  9 14  1  6  0  0  0
  9 11  1  0  0  0  0
  9 16  1  0  0  0  0
  9 10  1  0  0  0  0
 10 12  1  0  0  0  0
 11  8  1  0  0  0  0
 12 13  1  0  0  0  0
 12 20  1  1  0  0  0
 13 22  1  1  0  0  0
 15 14  1  0  0  0  0
 16 17  2  0  0  0  0
 18 16  1  0  0  0  0
 18 19  1  0  0  0  0
 21 20  1  0  0  0  0
 22 24  1  0  0  0  0
 22 23  1  0  0  0  0
 23 25  1  0  0  0  0
 26 23  2  0  0  0  0
 28 27  1  0  0  0  0
 29 30  1  0  0  0  0
 31  2  1  0  0  0  0
 32 31  1  0  0  0  0
 33 32  1  0  0  0  0
 34 33  2  0  0  0  0
 35 33  1  0  0  0  0
 36 37  1  0  0  0  0
 36 34  1  0  0  0  0
 37 35  2  0  0  0  0
 38 36  1  0  0  0  0
 38 39  1  0  0  0  0
 39 41  1  0  0  0  0
 40 39  2  0  0  0  0
 40 42  1  0  0  0  0
 41 43  2  0  0  0  0
 42 44  2  0  0  0  0
 44 43  1  0  0  0  0
 45 40  1  0  0  0  0
 46 45  1  0  0  0  0
 47 46  2  0  0  0  0
 48 46  1  0  0  0  0
 49 50  1  0  0  0  0
 51 50  1  0  0  0  0
 51 52  1  0  0  0  0
 53 52  1  0  0  0  0
 54 53  1  0  0  0  0
M  END
>  <REMARK>
 VINA RESULT:    -4.777      7.747     13.665
 INTER + INTRA:         -15.381
 INTER:                  -8.441
 INTRA:                  -6.940
 UNBOUND:                -6.275
 SMILES CC(=O)N[C@@H]1[C@@H](O)C[C@](O)(C(=O)O)O[C@H]1C(O)[C@H](O)CNC(=O)OCc1cn(Cc2ccccc2OC(C)=O)nn1
 SMILES IDX 21 1 22 2 23 3 20 5 18 6 16 7 15 8 9 9 8 10 14 11 6 12 5 13
 SMILES IDX 10 14 11 16 12 17 13 18 7 20 4 22 2 23 1 25 3 26 17 27 19 29
 SMILES IDX 24 31 25 32 26 33 27 34 41 35 28 36 40 37 29 38 30 39 35 40
 SMILES IDX 31 41 34 42 32 43 33 44 36 45 37 46 39 47 38 48
 H PARENT 21 4 10 15 13 19 7 21 4 24 17 28 19 30
 Flexibility Score: inf
  4 active torsions:
  status: ('A' for Active; 'I' for Inactive)
    1  A    between atoms: CA   and  CB  
    2  A    between atoms: CB   and  CG  
    3  A    between atoms: CG   and  CD  
    4  A    between atoms: CD   and  CE  

>  <TORSDO>
F 18

>  <BEGIN_>
RES LYS A 131

$$$$
ligand_21_pose_5_2HRL.pdbqt
 OpenBabel07062320523D

  6  5  0  0  0  0  0  0  0  0999 V2000
   33.1930   34.6630    9.2900 C   0  0  0  0  0  0  0  0  0  0  0  0
   32.0600   35.3600   10.0340 C   0  0  0  0  0  0  0  0  0  0  0  0
   30.7810   35.4460    9.2410 C   0  0  0  0  0  0  0  0  0  0  0  0
   30.1870   34.0620    9.0290 C   0  0  0  0  0  0  0  0  0  0  0  0
   28.6720   34.1220    9.0590 C   0  0  0  0  0  0  0  0  0  0  0  0
   28.1730   35.3790    8.4350 N   0  0  0  0  0  0  0  0  0  0  0  0
  1  2  1  0  0  0  0
  3  2  1  0  0  0  0
  4  5  1  0  0  0  0
  4  3  1  0  0  0  0
  6  5  1  0  0  0  0
M  END
>  <EGIN_R>
ES LYS A 135

>  <REMARK>
  4 active torsions:
  status: ('A' for Active; 'I' for Inactive)
    5  A    between atoms: CA   and  CB  
    6  A    between atoms: CB   and  CG  
    7  A    between atoms: CG   and  CD  
    8  A    between atoms: CD   and  CE  

$$$$
