ligand_29_pose_8_2HRL.pdbqt
 OpenBabel07062320523D

 54 55  0  0  1  0  0  0  0  0999 V2000
   32.5150   32.0200   21.5660 N   0  0  0  0  0  0  0  0  0  0  0  0
   32.9470   33.2910   21.1620 C   0  0  0  0  0  0  0  0  0  0  0  0
   34.1390   33.6440   21.2880 O   0  0  0  0  0  0  0  0  0  0  0  0
   31.4810   31.8020   21.4330 H   0  0  0  0  0  0  0  0  0  0  0  0
   33.3480   30.9810   22.1450 C   0  0  0  0  0  0  0  0  0  0  0  0
   33.0000   29.6490   21.5850 C   0  0  2  0  0  0  0  0  0  0  0  0
   31.5380   29.4730   21.2550 C   0  0  2  0  0  0  0  0  0  0  0  0
   30.9350   28.1980   21.7400 C   0  0  2  0  0  0  0  0  0  0  0  0
   28.7720   28.1360   20.8700 C   0  0  2  0  0  0  0  0  0  0  0  0
   28.1790   27.3420   22.0260 C   0  0  0  0  0  0  0  0  0  0  0  0
   30.0710   27.7290   20.7300 O   0  0  0  0  0  0  0  0  0  0  0  0
   29.2750   26.9770   22.9850 C   0  0  1  0  0  0  0  0  0  0  0  0
   30.3310   28.1390   23.0770 C   0  0  1  0  0  0  0  0  0  0  0  0
   28.5970   29.5030   21.0560 O   0  0  0  0  0  0  0  0  0  0  0  0
   28.5840   30.0050   20.2010 H   0  0  0  0  0  0  0  0  0  0  0  0
   28.0440   27.7820   19.6170 C   0  0  0  0  0  0  0  0  0  0  0  0
   27.3660   26.7290   19.5880 O   0  0  0  0  0  0  0  0  0  0  0  0
   28.0880   28.5730   18.4790 O   0  0  0  0  0  0  0  0  0  0  0  0
   28.2060   29.5930   18.5250 H   0  0  0  0  0  0  0  0  0  0  0  0
   28.7950   26.7230   24.2650 O   0  0  0  0  0  0  0  0  0  0  0  0
   27.8750   27.0440   24.3750 H   0  0  0  0  0  0  0  0  0  0  0  0
   31.2720   27.6190   24.0800 N   0  0  0  0  0  0  0  0  0  0  0  0
   31.8910   28.4150   25.0720 C   0  0  0  0  0  0  0  0  0  0  0  0
   31.5230   26.5870   24.0900 H   0  0  0  0  0  0  0  0  0  0  0  0
   32.8410   27.8610   26.0700 C   0  0  0  0  0  0  0  0  0  0  0  0
   31.6390   29.6440   25.1250 O   0  0  0  0  0  0  0  0  0  0  0  0
   31.4500   29.3910   19.8060 O   0  0  0  0  0  0  0  0  0  0  0  0
   31.1650   28.4710   19.5920 H   0  0  0  0  0  0  0  0  0  0  0  0
   33.5920   28.5650   22.1790 O   0  0  0  0  0  0  0  0  0  0  0  0
   33.1400   28.2500   22.9850 H   0  0  0  0  0  0  0  0  0  0  0  0
   32.0440   34.2170   20.5960 O   0  0  0  0  0  0  0  0  0  0  0  0
   30.6480   33.8810   20.6140 C   0  0  0  0  0  0  0  0  0  0  0  0
   30.3270   32.8820   19.5970 C   0  0  0  0  0  0  0  0  0  0  0  0
   30.7950   32.8450   18.3080 C   0  0  0  0  0  0  0  0  0  0  0  0
   29.5200   31.8220   19.7630 N   0  0  0  0  0  0  0  0  0  0  0  0
   30.2690   31.7760   17.7190 N   0  0  0  0  0  0  0  0  0  0  0  0
   29.5070   31.1730   18.6060 N   0  0  0  0  0  0  0  0  0  0  0  0
   30.4750   31.3350   16.3450 C   0  0  0  0  0  0  0  0  0  0  0  0
   30.6720   32.5460   15.4890 C   0  0  0  0  0  0  0  0  0  0  0  0
   31.9140   33.1800   15.4810 C   0  0  0  0  0  0  0  0  0  0  0  0
   29.6730   33.0640   14.6920 C   0  0  0  0  0  0  0  0  0  0  0  0
   32.1390   34.2900   14.7030 C   0  0  0  0  0  0  0  0  0  0  0  0
   29.8690   34.1780   13.9000 C   0  0  0  0  0  0  0  0  0  0  0  0
   31.1070   34.7750   13.9200 C   0  0  0  0  0  0  0  0  0  0  0  0
   33.3730   34.9340   14.6860 O   0  0  0  0  0  0  0  0  0  0  0  0
   33.7350   35.7240   15.8050 C   0  0  0  0  0  0  0  0  0  0  0  0
   31.3440   35.8950   13.1390 O   0  0  0  0  0  0  0  0  0  0  0  0
   30.4670   37.0060   13.1340 C   0  0  0  0  0  0  0  0  0  0  0  0
   29.8670   25.5550   16.9770 C   0  0  0  0  0  0  0  0  0  0  0  0
   28.3450   25.7220   17.0260 C   0  0  0  0  0  0  0  0  0  0  0  0
   27.5990   24.4760   16.5730 C   0  0  0  0  0  0  0  0  0  0  0  0
   27.0280   23.7060   17.7310 C   0  0  0  0  0  0  0  0  0  0  0  0
   25.5770   24.1200   17.9520 C   0  0  0  0  0  0  0  0  0  0  0  0
   24.6730   22.9590   17.7730 N   0  0  0  0  0  0  0  0  0  0  0  0
  1  5  1  0  0  0  0
  2  3  2  0  0  0  0
  2  1  1  0  0  0  0
  4  1  1  0  0  0  0
  6  5  1  1  0  0  0
  6 29  1  0  0  0  0
  7 27  1  6  0  0  0
  7  6  1  0  0  0  0
  8  7  1  6  0  0  0
  8 13  1  0  0  0  0
  9 16  1  6  0  0  0
  9 14  1  0  0  0  0
  9 10  1  0  0  0  0
 10 12  1  0  0  0  0
 11  9  1  0  0  0  0
 11  8  1  0  0  0  0
 12 13  1  0  0  0  0
 12 20  1  1  0  0  0
 13 22  1  1  0  0  0
 15 14  1  0  0  0  0
 17 16  2  0  0  0  0
 18 19  1  0  0  0  0
 18 16  1  0  0  0  0
 20 21  1  0  0  0  0
 22 24  1  0  0  0  0
 22 23  1  0  0  0  0
 23 26  2  0  0  0  0
 23 25  1  0  0  0  0
 28 27  1  0  0  0  0
 29 30  1  0  0  0  0
 31 32  1  0  0  0  0
 31  2  1  0  0  0  0
 33 35  1  0  0  0  0
 33 32  1  0  0  0  0
 34 33  2  0  0  0  0
 36 34  1  0  0  0  0
 36 37  1  0  0  0  0
 37 35  2  0  0  0  0
 38 36  1  0  0  0  0
 39 38  1  0  0  0  0
 40 39  1  0  0  0  0
 41 39  2  0  0  0  0
 42 40  2  0  0  0  0
 43 44  2  0  0  0  0
 43 41  1  0  0  0  0
 44 42  1  0  0  0  0
 45 42  1  0  0  0  0
 45 46  1  0  0  0  0
 47 44  1  0  0  0  0
 48 47  1  0  0  0  0
 49 50  1  0  0  0  0
 51 50  1  0  0  0  0
 51 52  1  0  0  0  0
 52 53  1  0  0  0  0
 54 53  1  0  0  0  0
M  END
>  <REMARK>
 VINA RESULT:    -5.065      4.078      7.058
 INTER + INTRA:         -14.773
 INTER:                  -8.615
 INTRA:                  -6.158
 UNBOUND:                -5.118
 SMILES COc1ccc(Cn2cc(COC(=O)NC[C@@H](O)C(O)[C@@H]3O[C@@](O)(C(=O)O)C[C@H](O)[C@H]3NC(C)=O)nn2)cc1OC
 SMILES IDX 15 1 13 2 14 3 16 5 17 6 19 7 21 8 23 9 28 10 22 11 29 12
 SMILES IDX 31 13 24 14 25 16 26 17 27 18 30 20 32 22 33 23 34 25 35 26
 SMILES IDX 20 27 18 29 12 31 11 32 10 33 9 34 36 35 8 36 37 37 7 38
 SMILES IDX 6 39 38 40 5 41 39 42 4 43 3 44 40 45 41 46 2 47 1 48
 H PARENT 15 4 24 15 27 19 30 21 32 24 20 28 18 30
 Flexibility Score: inf
  4 active torsions:
  status: ('A' for Active; 'I' for Inactive)
    1  A    between atoms: CA   and  CB  
    2  A    between atoms: CB   and  CG  
    3  A    between atoms: CG   and  CD  
    4  A    between atoms: CD   and  CE  

>  <TORSDO>
F 18

>  <BEGIN_>
RES LYS A 131

$$$$
ligand_29_pose_8_2HRL.pdbqt
 OpenBabel07062320523D

  6  5  0  0  0  0  0  0  0  0999 V2000
   33.1930   34.6630    9.2900 C   0  0  0  0  0  0  0  0  0  0  0  0
   32.0600   35.3600   10.0340 C   0  0  0  0  0  0  0  0  0  0  0  0
   30.7780   35.4360    9.2450 C   0  0  0  0  0  0  0  0  0  0  0  0
   30.1820   34.0490    9.0560 C   0  0  0  0  0  0  0  0  0  0  0  0
   28.6670   34.1140    9.0760 C   0  0  0  0  0  0  0  0  0  0  0  0
   28.1490   34.9230    7.9380 N   0  0  0  0  0  0  0  0  0  0  0  0
  1  2  1  0  0  0  0
  3  2  1  0  0  0  0
  4  5  1  0  0  0  0
  4  3  1  0  0  0  0
  6  5  1  0  0  0  0
M  END
>  <EGIN_R>
ES LYS A 135

>  <REMARK>
  4 active torsions:
  status: ('A' for Active; 'I' for Inactive)
    5  A    between atoms: CA   and  CB  
    6  A    between atoms: CB   and  CG  
    7  A    between atoms: CG   and  CD  
    8  A    between atoms: CD   and  CE  

$$$$
