ligand_57_pose_14_2HRL.pdbqt
 OpenBabel07062320523D

 50 51  0  0  1  0  0  0  0  0999 V2000
   24.0160   39.4610    9.3310 C   0  0  0  0  0  0  0  0  0  0  0  0
   24.9640   39.2720    8.1940 C   0  0  2  0  0  0  0  0  0  0  0  0
   25.6160   37.9060    8.2010 C   0  0  2  0  0  0  0  0  0  0  0  0
   26.8960   37.9490    7.3930 C   0  0  2  0  0  0  0  0  0  0  0  0
   27.8330   38.6680    5.3780 C   0  0  2  0  0  0  0  0  0  0  0  0
   28.5270   37.3520    5.2030 C   0  0  0  0  0  0  0  0  0  0  0  0
   26.7870   38.6810    6.2530 O   0  0  0  0  0  0  0  0  0  0  0  0
   28.7520   36.6660    6.5240 C   0  0  1  0  0  0  0  0  0  0  0  0
   27.3880   36.5490    7.1980 C   0  0  1  0  0  0  0  0  0  0  0  0
   27.4210   39.1060    4.0890 O   0  0  0  0  0  0  0  0  0  0  0  0
   28.2000   39.3010    3.5140 H   0  0  0  0  0  0  0  0  0  0  0  0
   28.8290   39.6560    5.8650 C   0  0  0  0  0  0  0  0  0  0  0  0
   28.4510   40.6380    6.5520 O   0  0  0  0  0  0  0  0  0  0  0  0
   30.1910   39.5820    5.6160 O   0  0  0  0  0  0  0  0  0  0  0  0
   30.6510   38.7190    5.3270 H   0  0  0  0  0  0  0  0  0  0  0  0
   29.2960   35.3900    6.3560 O   0  0  0  0  0  0  0  0  0  0  0  0
   29.8650   35.1210    7.1110 H   0  0  0  0  0  0  0  0  0  0  0  0
   27.6700   35.9340    8.5020 N   0  0  0  0  0  0  0  0  0  0  0  0
   27.0370   34.7480    8.9250 C   0  0  0  0  0  0  0  0  0  0  0  0
   28.3590   36.4130    9.0960 H   0  0  0  0  0  0  0  0  0  0  0  0
   27.3390   34.1310   10.2640 C   0  0  0  0  0  0  0  0  0  0  0  0
   26.2030   34.2070    8.1550 O   0  0  0  0  0  0  0  0  0  0  0  0
   24.7160   36.9830    7.7220 O   0  0  0  0  0  0  0  0  0  0  0  0
   24.2030   37.3540    6.9600 H   0  0  0  0  0  0  0  0  0  0  0  0
   25.9940   40.2340    8.3190 O   0  0  0  0  0  0  0  0  0  0  0  0
   25.7150   41.1030    7.9260 H   0  0  0  0  0  0  0  0  0  0  0  0
   24.4420   38.6270   10.4340 N   0  0  0  0  0  0  0  0  0  0  0  0
   24.8570   39.1190   11.7000 C   0  0  0  0  0  0  0  0  0  0  0  0
   24.4680   37.5650   10.3540 H   0  0  0  0  0  0  0  0  0  0  0  0
   24.8620   40.3430   11.9020 O   0  0  0  0  0  0  0  0  0  0  0  0
   25.2590   38.2770   12.7290 O   0  0  0  0  0  0  0  0  0  0  0  0
   26.4870   38.4900   13.3950 C   0  0  0  0  0  0  0  0  0  0  0  0
   27.6280   38.3480   12.4540 C   0  0  0  0  0  0  0  0  0  0  0  0
   28.8590   38.9350   12.5180 C   0  0  0  0  0  0  0  0  0  0  0  0
   27.6410   37.5910   11.3410 N   0  0  0  0  0  0  0  0  0  0  0  0
   29.5890   38.5370   11.4630 N   0  0  0  0  0  0  0  0  0  0  0  0
   28.8080   37.7100   10.7620 N   0  0  0  0  0  0  0  0  0  0  0  0
   30.9480   38.9340   11.1680 C   0  0  0  0  0  0  0  0  0  0  0  0
   31.0290   40.3980   10.7990 C   0  0  0  0  0  0  0  0  0  0  0  0
   31.5680   38.0450   10.1310 C   0  0  0  0  0  0  0  0  0  0  0  0
   30.7180   40.6450    9.3420 C   0  0  0  0  0  0  0  0  0  0  0  0
   31.1570   38.3660    8.7280 C   0  0  0  0  0  0  0  0  0  0  0  0
   31.4110   39.7500    8.4640 N   0  0  0  0  0  0  0  0  0  0  0  0
   32.8250   39.9850    8.4150 C   0  0  0  0  0  0  0  0  0  0  0  0
   29.8670   25.5550   16.9770 C   0  0  0  0  0  0  0  0  0  0  0  0
   28.3450   25.7220   17.0260 C   0  0  0  0  0  0  0  0  0  0  0  0
   27.6020   24.4000   16.9160 C   0  0  0  0  0  0  0  0  0  0  0  0
   26.5870   24.2270   18.0120 C   0  0  0  0  0  0  0  0  0  0  0  0
   25.2490   23.8160   17.4070 C   0  0  0  0  0  0  0  0  0  0  0  0
   25.0440   22.3550   17.5450 N   0  0  0  0  0  0  0  0  0  0  0  0
  1 27  1  0  0  0  0
  2  3  1  0  0  0  0
  2 25  1  0  0  0  0
  2  1  1  1  0  0  0
  3 23  1  6  0  0  0
  4  3  1  6  0  0  0
  5 10  1  6  0  0  0
  5 12  1  0  0  0  0
  5  7  1  0  0  0  0
  6  5  1  0  0  0  0
  6  8  1  0  0  0  0
  7  4  1  0  0  0  0
  8 16  1  6  0  0  0
  8  9  1  0  0  0  0
  9  4  1  0  0  0  0
  9 18  1  1  0  0  0
 11 10  1  0  0  0  0
 12 13  2  0  0  0  0
 14 12  1  0  0  0  0
 15 14  1  0  0  0  0
 16 17  1  0  0  0  0
 18 19  1  0  0  0  0
 18 20  1  0  0  0  0
 19 21  1  0  0  0  0
 22 19  2  0  0  0  0
 24 23  1  0  0  0  0
 26 25  1  0  0  0  0
 27 28  1  0  0  0  0
 28 30  2  0  0  0  0
 28 31  1  0  0  0  0
 29 27  1  0  0  0  0
 31 32  1  0  0  0  0
 33 34  2  0  0  0  0
 33 32  1  0  0  0  0
 35 33  1  0  0  0  0
 36 34  1  0  0  0  0
 37 35  2  0  0  0  0
 37 36  1  0  0  0  0
 38 36  1  0  0  0  0
 39 38  1  0  0  0  0
 40 38  1  0  0  0  0
 41 39  1  0  0  0  0
 42 40  1  0  0  0  0
 43 42  1  0  0  0  0
 43 41  1  0  0  0  0
 44 43  1  0  0  0  0
 45 46  1  0  0  0  0
 47 46  1  0  0  0  0
 47 48  1  0  0  0  0
 49 50  1  0  0  0  0
 49 48  1  0  0  0  0
M  END
>  <REMARK>
 VINA RESULT:    -4.365      7.951     13.327
 INTER + INTRA:         -13.341
 INTER:                  -7.436
 INTRA:                  -5.905
 UNBOUND:                -5.786
 SMILES CC(=O)N[C@@H]1[C@@H](O)C[C@](O)(C(=O)O)O[C@H]1C(O)[C@H](O)CNC(=O)OCc1cn(C2CCN(C)CC2)nn1
 SMILES IDX 20 1 18 2 16 3 15 4 9 5 8 6 14 7 6 8 5 9 10 10 11 12 12 13
 SMILES IDX 13 14 7 16 4 18 2 19 1 21 3 22 17 23 19 25 21 27 22 28 23 30
 SMILES IDX 24 31 25 32 26 33 27 34 37 35 28 36 36 37 29 38 30 39 35 40
 SMILES IDX 31 41 34 42 32 43 33 44
 H PARENT 10 11 13 15 7 17 4 20 17 24 19 26 21 29
 Flexibility Score: inf
  4 active torsions:
  status: ('A' for Active; 'I' for Inactive)
    1  A    between atoms: CA   and  CB  
    2  A    between atoms: CB   and  CG  
    3  A    between atoms: CG   and  CD  
    4  A    between atoms: CD   and  CE  

>  <TORSDO>
F 15

>  <BEGIN_>
RES LYS A 131

$$$$
ligand_57_pose_14_2HRL.pdbqt
 OpenBabel07062320523D

  6  5  0  0  0  0  0  0  0  0999 V2000
   33.1930   34.6630    9.2900 C   0  0  0  0  0  0  0  0  0  0  0  0
   32.0600   35.3600   10.0340 C   0  0  0  0  0  0  0  0  0  0  0  0
   30.8870   34.4600   10.3240 C   0  0  0  0  0  0  0  0  0  0  0  0
   30.4060   34.6490   11.7550 C   0  0  0  0  0  0  0  0  0  0  0  0
   31.4960   35.2770   12.6040 C   0  0  0  0  0  0  0  0  0  0  0  0
   30.9150   36.1380   13.6710 N   0  0  0  0  0  0  0  0  0  0  0  0
  1  2  1  0  0  0  0
  2  3  1  0  0  0  0
  3  4  1  0  0  0  0
  4  5  1  0  0  0  0
  5  6  1  0  0  0  0
M  END
>  <EGIN_R>
ES LYS A 135

>  <REMARK>
  4 active torsions:
  status: ('A' for Active; 'I' for Inactive)
    5  A    between atoms: CA   and  CB  
    6  A    between atoms: CB   and  CG  
    7  A    between atoms: CG   and  CD  
    8  A    between atoms: CD   and  CE  

$$$$
