ligand_91_pose_12_2HRL.pdbqt
 OpenBabel07062320523D

 57 60  0  0  1  0  0  0  0  0999 V2000
   29.6050   32.1650   16.8780 C   0  0  0  0  0  0  0  0  0  0  0  0
   30.5720   32.5690   15.7990 C   0  0  2  0  0  0  0  0  0  0  0  0
   29.7670   33.1700   14.6900 C   0  0  2  0  0  0  0  0  0  0  0  0
   30.3940   34.4120   14.0740 C   0  0  2  0  0  0  0  0  0  0  0  0
   32.1790   35.7700   14.3920 C   0  0  2  0  0  0  0  0  0  0  0  0
   31.4050   37.0610   14.4110 C   0  0  0  0  0  0  0  0  0  0  0  0
   31.4650   34.7180   14.8660 O   0  0  0  0  0  0  0  0  0  0  0  0
   29.9240   36.8520   14.5370 C   0  0  1  0  0  0  0  0  0  0  0  0
   29.4430   35.5480   13.9960 C   0  0  1  0  0  0  0  0  0  0  0  0
   33.2800   35.9080   15.3020 O   0  0  0  0  0  0  0  0  0  0  0  0
   34.0440   36.3190   14.8300 H   0  0  0  0  0  0  0  0  0  0  0  0
   32.8280   35.5760   13.0730 C   0  0  0  0  0  0  0  0  0  0  0  0
   32.6270   36.3610   12.1080 O   0  0  0  0  0  0  0  0  0  0  0  0
   33.7040   34.5100   12.8120 O   0  0  0  0  0  0  0  0  0  0  0  0
   34.1270   34.0200   13.5860 H   0  0  0  0  0  0  0  0  0  0  0  0
   29.5660   37.0040   15.8800 O   0  0  0  0  0  0  0  0  0  0  0  0
   28.6060   36.8090   16.0210 H   0  0  0  0  0  0  0  0  0  0  0  0
   28.8950   35.7700   12.6530 N   0  0  0  0  0  0  0  0  0  0  0  0
   27.6170   35.2870   12.2570 C   0  0  0  0  0  0  0  0  0  0  0  0
   29.4260   36.2990   11.9260 H   0  0  0  0  0  0  0  0  0  0  0  0
   27.0750   35.5270   10.8840 C   0  0  0  0  0  0  0  0  0  0  0  0
   26.9110   34.6390   13.0710 O   0  0  0  0  0  0  0  0  0  0  0  0
   28.5150   33.5180   15.1740 O   0  0  0  0  0  0  0  0  0  0  0  0
   27.9370   32.7180   15.1160 H   0  0  0  0  0  0  0  0  0  0  0  0
   31.3280   31.4900   15.4050 O   0  0  0  0  0  0  0  0  0  0  0  0
   31.9010   31.7840   14.6340 H   0  0  0  0  0  0  0  0  0  0  0  0
   29.2430   30.7900   16.9220 N   0  0  0  0  0  0  0  0  0  0  0  0
   27.9990   30.2710   16.5080 C   0  0  0  0  0  0  0  0  0  0  0  0
   29.9300   30.0410   17.2910 H   0  0  0  0  0  0  0  0  0  0  0  0
   27.0930   31.0080   16.0680 O   0  0  0  0  0  0  0  0  0  0  0  0
   27.7120   28.8970   16.5650 O   0  0  0  0  0  0  0  0  0  0  0  0
   26.7010   28.4070   17.4460 C   0  0  0  0  0  0  0  0  0  0  0  0
   27.1690   28.6310   18.8340 C   0  0  0  0  0  0  0  0  0  0  0  0
   28.1030   27.8810   19.5190 C   0  0  0  0  0  0  0  0  0  0  0  0
   26.8000   29.5920   19.7170 N   0  0  0  0  0  0  0  0  0  0  0  0
   28.2750   28.3820   20.7530 N   0  0  0  0  0  0  0  0  0  0  0  0
   27.4740   29.4200   20.8550 N   0  0  0  0  0  0  0  0  0  0  0  0
   29.1400   27.9070   21.7630 C   0  0  0  0  0  0  0  0  0  0  0  0
   28.6670   27.0250   22.7400 C   0  0  0  0  0  0  0  0  0  0  0  0
   30.4710   28.2830   21.8260 C   0  0  0  0  0  0  0  0  0  0  0  0
   27.3520   26.6130   22.7320 C   0  0  0  0  0  0  0  0  0  0  0  0
   29.4780   26.5460   23.7210 C   0  0  0  0  0  0  0  0  0  0  0  0
   31.2750   27.7860   22.8290 C   0  0  0  0  0  0  0  0  0  0  0  0
   30.9330   29.1500   20.8690 C   0  0  0  0  0  0  0  0  0  0  0  0
   26.8370   25.7460   23.6720 C   0  0  0  0  0  0  0  0  0  0  0  0
   28.9730   25.6700   24.6760 C   0  0  0  0  0  0  0  0  0  0  0  0
   30.7670   26.9360   23.7470 N   0  0  0  0  0  0  0  0  0  0  0  0
   32.5890   28.1880   22.8530 C   0  0  0  0  0  0  0  0  0  0  0  0
   32.2730   29.5400   20.9200 C   0  0  0  0  0  0  0  0  0  0  0  0
   27.6630   25.2470   24.6850 C   0  0  0  0  0  0  0  0  0  0  0  0
   33.1120   29.0680   21.9060 C   0  0  0  0  0  0  0  0  0  0  0  0
   29.8670   25.5550   16.9770 C   0  0  0  0  0  0  0  0  0  0  0  0
   28.3450   25.7220   17.0260 C   0  0  0  0  0  0  0  0  0  0  0  0
   27.6000   24.4130   16.8140 C   0  0  0  0  0  0  0  0  0  0  0  0
   26.7980   24.0150   18.0220 C   0  0  0  0  0  0  0  0  0  0  0  0
   25.6920   23.0530   17.6050 C   0  0  0  0  0  0  0  0  0  0  0  0
   24.5580   23.7940   17.0030 N   0  0  0  0  0  0  0  0  0  0  0  0
  1 27  1  0  0  0  0
  2  1  1  1  0  0  0
  3 23  1  1  0  0  0
  3  2  1  0  0  0  0
  4  3  1  1  0  0  0
  4  7  1  0  0  0  0
  5 12  1  6  0  0  0
  5  6  1  0  0  0  0
  5  7  1  0  0  0  0
  5 10  1  0  0  0  0
  6  8  1  0  0  0  0
  8 16  1  1  0  0  0
  9 18  1  6  0  0  0
  9  4  1  0  0  0  0
  9  8  1  0  0  0  0
 11 10  1  0  0  0  0
 13 12  2  0  0  0  0
 14 12  1  0  0  0  0
 14 15  1  0  0  0  0
 16 17  1  0  0  0  0
 19 18  1  0  0  0  0
 19 22  2  0  0  0  0
 20 18  1  0  0  0  0
 21 19  1  0  0  0  0
 24 23  1  0  0  0  0
 25  2  1  0  0  0  0
 26 25  1  0  0  0  0
 27 29  1  0  0  0  0
 28 31  1  0  0  0  0
 28 27  1  0  0  0  0
 30 28  2  0  0  0  0
 31 32  1  0  0  0  0
 32 33  1  0  0  0  0
 33 34  2  0  0  0  0
 33 35  1  0  0  0  0
 34 36  1  0  0  0  0
 35 37  2  0  0  0  0
 36 37  1  0  0  0  0
 36 38  1  0  0  0  0
 38 40  2  0  0  0  0
 38 39  1  0  0  0  0
 39 42  1  0  0  0  0
 40 43  1  0  0  0  0
 41 39  2  0  0  0  0
 41 45  1  0  0  0  0
 42 47  1  0  0  0  0
 42 46  2  0  0  0  0
 43 48  1  0  0  0  0
 43 47  2  0  0  0  0
 44 49  2  0  0  0  0
 44 40  1  0  0  0  0
 45 50  2  0  0  0  0
 46 50  1  0  0  0  0
 49 51  1  0  0  0  0
 51 48  2  0  0  0  0
 52 53  1  0  0  0  0
 54 53  1  0  0  0  0
 54 55  1  0  0  0  0
 56 55  1  0  0  0  0
 57 56  1  0  0  0  0
M  END
>  <REMARK>
 VINA RESULT:    -5.303      4.930      9.503
 INTER + INTRA:         -15.261
 INTER:                  -9.815
 INTRA:                  -5.446
 UNBOUND:                -6.084
 SMILES CC(=O)N[C@@H]1[C@@H](O)C[C@](O)(C(=O)O)O[C@H]1C(O)[C@H](O)CNC(=O)OCc1cn(-c2c3ccccc3nc3ccccc23)nn1
 SMILES IDX 20 1 18 2 16 3 15 4 9 5 8 6 14 7 6 8 5 9 10 10 11 12 12 13
 SMILES IDX 13 14 7 16 4 18 2 19 1 21 3 22 17 23 19 25 21 27 22 28 23 30
 SMILES IDX 24 31 25 32 26 33 27 34 44 35 28 36 43 37 29 38 30 39 42 40
 SMILES IDX 31 41 35 42 37 43 41 44 32 45 34 46 36 47 38 48 40 49 33 50
 SMILES IDX 39 51
 H PARENT 10 11 13 15 7 17 4 20 17 24 19 26 21 29
 Flexibility Score: inf
  4 active torsions:
  status: ('A' for Active; 'I' for Inactive)
    1  A    between atoms: CA   and  CB  
    2  A    between atoms: CB   and  CG  
    3  A    between atoms: CG   and  CD  
    4  A    between atoms: CD   and  CE  

>  <TORSDO>
F 15

>  <BEGIN_>
RES LYS A 131

$$$$
ligand_91_pose_12_2HRL.pdbqt
 OpenBabel07062320523D

  6  5  0  0  0  0  0  0  0  0999 V2000
   33.1930   34.6630    9.2900 C   0  0  0  0  0  0  0  0  0  0  0  0
   32.0600   35.3600   10.0340 C   0  0  0  0  0  0  0  0  0  0  0  0
   30.7210   34.6920    9.8550 C   0  0  0  0  0  0  0  0  0  0  0  0
   30.3710   34.5800    8.3790 C   0  0  0  0  0  0  0  0  0  0  0  0
   29.4870   35.7360    7.9520 C   0  0  0  0  0  0  0  0  0  0  0  0
   28.2640   35.2470    7.2550 N   0  0  0  0  0  0  0  0  0  0  0  0
  1  2  1  0  0  0  0
  3  2  1  0  0  0  0
  4  3  1  0  0  0  0
  5  4  1  0  0  0  0
  6  5  1  0  0  0  0
M  END
>  <EGIN_R>
ES LYS A 135

>  <REMARK>
  4 active torsions:
  status: ('A' for Active; 'I' for Inactive)
    5  A    between atoms: CA   and  CB  
    6  A    between atoms: CB   and  CG  
    7  A    between atoms: CG   and  CD  
    8  A    between atoms: CD   and  CE  

$$$$
