ligand_62_pose_6_2HRL.pdbqt
 OpenBabel07062320523D

 52 52  0  0  1  0  0  0  0  0999 V2000
   28.8050   37.4080   11.8890 N   0  0  0  0  0  0  0  0  0  0  0  0
   29.3690   38.5640   12.4650 C   0  0  0  0  0  0  0  0  0  0  0  0
   28.7640   39.2430   13.3250 O   0  0  0  0  0  0  0  0  0  0  0  0
   29.3940   36.9030   11.1800 H   0  0  0  0  0  0  0  0  0  0  0  0
   27.5210   36.8680   12.1760 C   0  0  0  0  0  0  0  0  0  0  0  0
   26.9540   35.8900   11.2150 C   0  0  2  0  0  0  0  0  0  0  0  0
   26.3510   36.5400    9.9890 C   0  0  2  0  0  0  0  0  0  0  0  0
   27.0710   36.2600    8.7090 C   0  0  2  0  0  0  0  0  0  0  0  0
   29.2260   35.9310    7.9320 C   0  0  2  0  0  0  0  0  0  0  0  0
   28.4060   35.5490    6.7280 C   0  0  0  0  0  0  0  0  0  0  0  0
   28.4460   36.2570    9.0280 O   0  0  0  0  0  0  0  0  0  0  0  0
   27.4040   36.5730    6.3330 C   0  0  1  0  0  0  0  0  0  0  0  0
   26.8800   37.2480    7.6100 C   0  0  1  0  0  0  0  0  0  0  0  0
   30.1050   36.9360    7.5740 O   0  0  0  0  0  0  0  0  0  0  0  0
   30.2140   37.6320    8.2690 H   0  0  0  0  0  0  0  0  0  0  0  0
   30.0370   34.7400    8.3080 C   0  0  0  0  0  0  0  0  0  0  0  0
   29.5590   33.8020    9.0040 O   0  0  0  0  0  0  0  0  0  0  0  0
   31.3710   34.5970    7.9110 O   0  0  0  0  0  0  0  0  0  0  0  0
   31.6400   33.9550    7.1780 H   0  0  0  0  0  0  0  0  0  0  0  0
   27.9080   37.5270    5.4510 O   0  0  0  0  0  0  0  0  0  0  0  0
   28.7940   37.8060    5.8130 H   0  0  0  0  0  0  0  0  0  0  0  0
   25.5500   37.6580    7.3180 N   0  0  0  0  0  0  0  0  0  0  0  0
   25.0860   39.0120    7.5270 C   0  0  0  0  0  0  0  0  0  0  0  0
   24.8300   37.0150    6.9250 H   0  0  0  0  0  0  0  0  0  0  0  0
   23.6910   39.3920    7.2070 C   0  0  0  0  0  0  0  0  0  0  0  0
   25.8620   39.8630    7.9770 O   0  0  0  0  0  0  0  0  0  0  0  0
   26.5490   37.9380   10.2200 O   0  0  0  0  0  0  0  0  0  0  0  0
   27.2880   38.0890   10.8300 H   0  0  0  0  0  0  0  0  0  0  0  0
   25.9230   35.1700   11.8140 O   0  0  0  0  0  0  0  0  0  0  0  0
   25.8070   35.4630   12.7490 H   0  0  0  0  0  0  0  0  0  0  0  0
   30.6380   39.0020   12.0970 O   0  0  0  0  0  0  0  0  0  0  0  0
   30.8390   40.2430   11.4710 C   0  0  0  0  0  0  0  0  0  0  0  0
   30.3010   40.2350   10.0990 C   0  0  0  0  0  0  0  0  0  0  0  0
   30.5580   41.1390    9.0870 C   0  0  0  0  0  0  0  0  0  0  0  0
   29.4450   39.3110    9.6110 N   0  0  0  0  0  0  0  0  0  0  0  0
   29.8600   40.7370    8.0310 N   0  0  0  0  0  0  0  0  0  0  0  0
   29.2030   39.6580    8.3430 N   0  0  0  0  0  0  0  0  0  0  0  0
   29.8230   41.3900    6.7250 C   0  0  1  0  0  0  0  0  0  0  0  0
   31.0970   42.1640    6.5440 C   0  0  0  0  0  0  0  0  0  0  0  0
   31.9220   41.5470    5.6320 O   0  0  0  0  0  0  0  0  0  0  0  0
   32.8690   42.3700    5.0600 C   0  0  0  0  0  0  0  0  0  0  0  0
   29.7520   40.3350    5.6620 C   0  0  0  0  0  0  0  0  0  0  0  0
   29.0100   40.4750    4.6780 O   0  0  0  0  0  0  0  0  0  0  0  0
   30.5590   39.1790    5.8260 N   0  0  0  0  0  0  0  0  0  0  0  0
   30.8310   38.6350    4.9750 H   0  0  0  0  0  0  0  0  0  0  0  0
   30.8740   38.8800    6.7570 H   0  0  0  0  0  0  0  0  0  0  0  0
   29.8670   25.5550   16.9770 C   0  0  0  0  0  0  0  0  0  0  0  0
   28.3450   25.7220   17.0260 C   0  0  0  0  0  0  0  0  0  0  0  0
   27.6010   24.4020   16.8950 C   0  0  0  0  0  0  0  0  0  0  0  0
   26.2620   24.4360   17.5780 C   0  0  0  0  0  0  0  0  0  0  0  0
   26.0980   25.7640   18.3100 C   0  0  0  0  0  0  0  0  0  0  0  0
   24.8320   26.4230   17.9100 N   0  0  0  0  0  0  0  0  0  0  0  0
  1  5  1  0  0  0  0
  1  2  1  0  0  0  0
  2  3  2  0  0  0  0
  4  1  1  0  0  0  0
  6 29  1  0  0  0  0
  6  5  1  1  0  0  0
  7 27  1  1  0  0  0
  7  6  1  0  0  0  0
  8 11  1  0  0  0  0
  8  7  1  1  0  0  0
  9 14  1  6  0  0  0
  9 16  1  0  0  0  0
  9 11  1  0  0  0  0
 10  9  1  0  0  0  0
 12 20  1  6  0  0  0
 12 10  1  0  0  0  0
 12 13  1  0  0  0  0
 13 22  1  6  0  0  0
 13  8  1  0  0  0  0
 14 15  1  0  0  0  0
 16 17  2  0  0  0  0
 18 16  1  0  0  0  0
 19 18  1  0  0  0  0
 20 21  1  0  0  0  0
 22 23  1  0  0  0  0
 23 26  2  0  0  0  0
 24 22  1  0  0  0  0
 25 23  1  0  0  0  0
 27 28  1  0  0  0  0
 29 30  1  0  0  0  0
 31  2  1  0  0  0  0
 32 31  1  0  0  0  0
 33 32  1  0  0  0  0
 34 33  2  0  0  0  0
 35 33  1  0  0  0  0
 36 37  1  0  0  0  0
 36 34  1  0  0  0  0
 37 35  2  0  0  0  0
 38 39  1  6  0  0  0
 38 36  1  0  0  0  0
 40 39  1  0  0  0  0
 41 40  1  0  0  0  0
 42 44  1  0  0  0  0
 42 38  1  0  0  0  0
 43 42  2  0  0  0  0
 44 46  1  0  0  0  0
 45 44  1  0  0  0  0
 47 48  1  0  0  0  0
 49 48  1  0  0  0  0
 49 50  1  0  0  0  0
 50 51  1  0  0  0  0
 52 51  1  0  0  0  0
M  END
>  <REMARK>
 VINA RESULT:    -4.145      6.515     11.261
 INTER + INTRA:         -14.654
 INTER:                  -8.468
 INTRA:                  -6.186
 UNBOUND:                -6.753
 SMILES COCC(C(N)=O)n1cc(COC(=O)NC[C@@H](O)C(O)[C@@H]2O[C@@](O)(C(=O)O)C[C@H](O)[C@H]2NC(C)=O)nn1
 SMILES IDX 15 1 13 2 14 3 16 5 17 6 19 7 21 8 23 9 28 10 22 11 29 12
 SMILES IDX 31 13 24 14 25 16 26 17 27 18 30 20 32 22 33 23 34 25 35 26
 SMILES IDX 20 27 18 29 12 31 11 32 10 33 9 34 36 35 8 36 37 37 4 38
 SMILES IDX 3 39 2 40 1 41 5 42 7 43 6 44
 H PARENT 15 4 24 15 27 19 30 21 32 24 20 28 18 30 6 45 6 46
 Flexibility Score: inf
  4 active torsions:
  status: ('A' for Active; 'I' for Inactive)
    1  A    between atoms: CA   and  CB  
    2  A    between atoms: CB   and  CG  
    3  A    between atoms: CG   and  CD  
    4  A    between atoms: CD   and  CE  

>  <TORSDO>
F 18

>  <BEGIN_>
RES LYS A 131

$$$$
ligand_62_pose_6_2HRL.pdbqt
 OpenBabel07062320523D

  6  5  0  0  0  0  0  0  0  0999 V2000
   33.1930   34.6630    9.2900 C   0  0  0  0  0  0  0  0  0  0  0  0
   32.0600   35.3600   10.0340 C   0  0  0  0  0  0  0  0  0  0  0  0
   32.5260   36.1810   11.2080 C   0  0  0  0  0  0  0  0  0  0  0  0
   31.9920   35.6070   12.5110 C   0  0  0  0  0  0  0  0  0  0  0  0
   30.8020   34.7030   12.2460 C   0  0  0  0  0  0  0  0  0  0  0  0
   30.0930   34.3660   13.5120 N   0  0  0  0  0  0  0  0  0  0  0  0
  1  2  1  0  0  0  0
  2  3  1  0  0  0  0
  3  4  1  0  0  0  0
  5  4  1  0  0  0  0
  5  6  1  0  0  0  0
M  END
>  <EGIN_R>
ES LYS A 135

>  <REMARK>
  4 active torsions:
  status: ('A' for Active; 'I' for Inactive)
    5  A    between atoms: CA   and  CB  
    6  A    between atoms: CB   and  CG  
    7  A    between atoms: CG   and  CD  
    8  A    between atoms: CD   and  CE  

$$$$
