ligand_74_pose_8_2HRL.pdbqt
 OpenBabel07062320523D

 54 54  0  0  1  0  0  0  0  0999 V2000
   29.8990   41.1940    8.9050 O   0  0  0  0  0  0  0  0  0  0  0  0
   30.7290   40.4580    9.7690 C   0  0  0  0  0  0  0  0  0  0  0  0
   30.3550   40.2040   11.1100 N   0  0  0  0  0  0  0  0  0  0  0  0
   29.4120   40.6020   11.4160 H   0  0  0  0  0  0  0  0  0  0  0  0
   31.8160   40.0310    9.3110 O   0  0  0  0  0  0  0  0  0  0  0  0
   31.1710   39.4580   12.0410 C   0  0  0  0  0  0  0  0  0  0  0  0
   30.3990   38.2950   12.5590 C   0  0  2  0  0  0  0  0  0  0  0  0
   31.2710   37.1820   13.1170 C   0  0  2  0  0  0  0  0  0  0  0  0
   30.5080   35.9030   13.2620 C   0  0  2  0  0  0  0  0  0  0  0  0
   28.8740   35.6220   14.8880 C   0  0  2  0  0  0  0  0  0  0  0  0
   29.2150   34.1740   15.1390 C   0  0  0  0  0  0  0  0  0  0  0  0
   29.1940   36.0320   13.6030 O   0  0  0  0  0  0  0  0  0  0  0  0
   30.3320   33.6940   14.2360 C   0  0  1  0  0  0  0  0  0  0  0  0
   31.2810   34.8930   14.1060 C   0  0  1  0  0  0  0  0  0  0  0  0
   29.4500   36.4460   15.8590 O   0  0  0  0  0  0  0  0  0  0  0  0
   28.9280   37.2480   16.0470 H   0  0  0  0  0  0  0  0  0  0  0  0
   27.4000   35.7580   15.0300 C   0  0  0  0  0  0  0  0  0  0  0  0
   26.9340   36.3010   16.0780 O   0  0  0  0  0  0  0  0  0  0  0  0
   26.4980   35.3270   14.0800 O   0  0  0  0  0  0  0  0  0  0  0  0
   26.7770   34.5760   13.4290 H   0  0  0  0  0  0  0  0  0  0  0  0
   30.9690   32.5740   14.7060 O   0  0  0  0  0  0  0  0  0  0  0  0
   30.4920   32.3030   15.5510 H   0  0  0  0  0  0  0  0  0  0  0  0
   32.4830   34.5210   13.4030 N   0  0  0  0  0  0  0  0  0  0  0  0
   33.7670   34.7150   14.0010 C   0  0  0  0  0  0  0  0  0  0  0  0
   32.4830   34.1000   12.4410 H   0  0  0  0  0  0  0  0  0  0  0  0
   35.0160   34.3450   13.3090 C   0  0  0  0  0  0  0  0  0  0  0  0
   33.8420   35.2150   15.1510 O   0  0  0  0  0  0  0  0  0  0  0  0
   31.9200   37.5930   14.2580 O   0  0  0  0  0  0  0  0  0  0  0  0
   31.3470   37.4160   15.0320 H   0  0  0  0  0  0  0  0  0  0  0  0
   29.6650   37.7380   11.4840 O   0  0  0  0  0  0  0  0  0  0  0  0
   29.6490   38.3490   10.7130 H   0  0  0  0  0  0  0  0  0  0  0  0
   29.3090   40.5070    7.8300 C   0  0  0  0  0  0  0  0  0  0  0  0
   28.3300   39.4990    8.2750 C   0  0  0  0  0  0  0  0  0  0  0  0
   27.5860   38.5910    7.5360 C   0  0  0  0  0  0  0  0  0  0  0  0
   27.9780   39.2790    9.5470 N   0  0  0  0  0  0  0  0  0  0  0  0
   26.8230   37.8670    8.3730 N   0  0  0  0  0  0  0  0  0  0  0  0
   27.0780   38.3020    9.5810 N   0  0  0  0  0  0  0  0  0  0  0  0
   25.8860   36.7900    7.9530 C   0  0  0  0  0  0  0  0  0  0  0  0
   25.3030   36.1360    9.1570 C   0  0  2  0  0  0  0  0  0  0  0  0
   26.0710   34.8490    9.4030 C   0  0  0  0  0  0  0  0  0  0  0  0
   26.5190   34.8100   10.8180 C   0  0  0  0  0  0  0  0  0  0  0  0
   25.9800   34.0490   11.6410 O   0  0  0  0  0  0  0  0  0  0  0  0
   27.5650   35.6620   11.1840 O   0  0  0  0  0  0  0  0  0  0  0  0
   27.4750   36.2310   12.0020 H   0  0  0  0  0  0  0  0  0  0  0  0
   23.8400   35.9760    9.0910 C   0  0  0  0  0  0  0  0  0  0  0  0
   23.0330   36.4110   10.2550 C   0  0  0  0  0  0  0  0  0  0  0  0
   22.6250   35.1020   10.9890 C   0  0  0  0  0  0  0  0  0  0  0  0
   23.7000   37.2810   11.2640 C   0  0  0  0  0  0  0  0  0  0  0  0
   29.8670   25.5550   16.9770 C   0  0  0  0  0  0  0  0  0  0  0  0
   28.3450   25.7220   17.0260 C   0  0  0  0  0  0  0  0  0  0  0  0
   27.6020   24.4000   16.9150 C   0  0  0  0  0  0  0  0  0  0  0  0
   26.5530   24.2480   17.9810 C   0  0  0  0  0  0  0  0  0  0  0  0
   25.2140   24.7540   17.4540 C   0  0  0  0  0  0  0  0  0  0  0  0
   24.1250   24.4260   18.4040 N   0  0  0  0  0  0  0  0  0  0  0  0
  1  2  1  0  0  0  0
  2  3  1  0  0  0  0
  3  4  1  0  0  0  0
  3  6  1  0  0  0  0
  5  2  2  0  0  0  0
  7  6  1  6  0  0  0
  7  8  1  0  0  0  0
  8 28  1  1  0  0  0
  9  8  1  1  0  0  0
  9 12  1  0  0  0  0
  9 14  1  0  0  0  0
 10 17  1  1  0  0  0
 10 11  1  0  0  0  0
 10 15  1  0  0  0  0
 12 10  1  0  0  0  0
 13 21  1  1  0  0  0
 13 11  1  0  0  0  0
 14 23  1  6  0  0  0
 14 13  1  0  0  0  0
 15 16  1  0  0  0  0
 17 18  2  0  0  0  0
 19 17  1  0  0  0  0
 20 19  1  0  0  0  0
 21 22  1  0  0  0  0
 23 24  1  0  0  0  0
 24 27  2  0  0  0  0
 25 23  1  0  0  0  0
 26 24  1  0  0  0  0
 28 29  1  0  0  0  0
 30  7  1  0  0  0  0
 31 30  1  0  0  0  0
 32 33  1  0  0  0  0
 32  1  1  0  0  0  0
 33 35  1  0  0  0  0
 34 33  2  0  0  0  0
 34 36  1  0  0  0  0
 35 37  2  0  0  0  0
 36 37  1  0  0  0  0
 38 36  1  0  0  0  0
 39 38  1  6  0  0  0
 39 40  1  0  0  0  0
 40 41  1  0  0  0  0
 41 43  1  0  0  0  0
 41 42  2  0  0  0  0
 43 44  1  0  0  0  0
 45 39  1  0  0  0  0
 45 46  1  0  0  0  0
 46 47  1  0  0  0  0
 46 48  1  0  0  0  0
 49 50  1  0  0  0  0
 51 50  1  0  0  0  0
 51 52  1  0  0  0  0
 53 52  1  0  0  0  0
 53 54  1  0  0  0  0
M  END
>  <REMARK>
 VINA RESULT:    -4.257      5.244      9.813
 INTER + INTRA:         -15.855
 INTER:                  -8.247
 INTRA:                  -7.608
 UNBOUND:                -7.118
 SMILES CC(=O)N[C@@H]1[C@@H](O)C[C@](O)(C(=O)O)O[C@H]1C(O)[C@H](O)CNC(=O)OCc1cn(C[C@H](CC(=O)O)CC(C)C)nn1
 SMILES IDX 24 1 22 2 21 3 23 5 20 6 18 7 16 8 15 9 9 10 8 11 14 12 6 13
 SMILES IDX 5 14 10 15 11 17 12 18 13 19 7 21 4 23 2 24 1 26 3 27 17 28
 SMILES IDX 19 30 25 32 26 33 27 34 40 35 28 36 39 37 29 38 30 39 31 40
 SMILES IDX 32 41 33 42 34 43 35 45 36 46 37 47 38 48
 H PARENT 21 4 10 16 13 20 7 22 4 25 17 29 19 31 34 44
 Flexibility Score: inf
  4 active torsions:
  status: ('A' for Active; 'I' for Inactive)
    1  A    between atoms: CA   and  CB  
    2  A    between atoms: CB   and  CG  
    3  A    between atoms: CG   and  CD  
    4  A    between atoms: CD   and  CE  

>  <TORSDO>
F 21

>  <BEGIN_>
RES LYS A 131

$$$$
ligand_74_pose_8_2HRL.pdbqt
 OpenBabel07062320523D

  6  5  0  0  0  0  0  0  0  0999 V2000
   33.1930   34.6630    9.2900 C   0  0  0  0  0  0  0  0  0  0  0  0
   32.0600   35.3600   10.0340 C   0  0  0  0  0  0  0  0  0  0  0  0
   30.7050   34.7550    9.7720 C   0  0  0  0  0  0  0  0  0  0  0  0
   30.5030   34.5170    8.2830 C   0  0  0  0  0  0  0  0  0  0  0  0
   29.0980   34.9080    7.8680 C   0  0  0  0  0  0  0  0  0  0  0  0
   29.0940   35.5440    6.5210 N   0  0  0  0  0  0  0  0  0  0  0  0
  1  2  1  0  0  0  0
  3  2  1  0  0  0  0
  4  3  1  0  0  0  0
  5  4  1  0  0  0  0
  6  5  1  0  0  0  0
M  END
>  <EGIN_R>
ES LYS A 135

>  <REMARK>
  4 active torsions:
  status: ('A' for Active; 'I' for Inactive)
    5  A    between atoms: CA   and  CB  
    6  A    between atoms: CB   and  CG  
    7  A    between atoms: CG   and  CD  
    8  A    between atoms: CD   and  CE  

$$$$
