ligand_60_pose_1_2HRL.pdbqt
 OpenBabel07062320523D

 55 56  0  0  1  0  0  0  0  0999 V2000
   26.7620   29.2810   19.6760 N   0  0  0  0  0  0  0  0  0  0  0  0
   25.4420   29.3100   19.2040 C   0  0  0  0  0  0  0  0  0  0  0  0
   24.5860   28.5320   19.6570 O   0  0  0  0  0  0  0  0  0  0  0  0
   27.4410   29.9710   19.2520 H   0  0  0  0  0  0  0  0  0  0  0  0
   27.1930   28.3740   20.6810 C   0  0  0  0  0  0  0  0  0  0  0  0
   28.6750   28.0330   20.5830 C   0  0  2  0  0  0  0  0  0  0  0  0
   29.4270   29.2820   20.2240 C   0  0  1  0  0  0  0  0  0  0  0  0
   30.7040   29.4680   20.9500 C   0  0  2  0  0  0  0  0  0  0  0  0
   31.6620   28.9460   23.0090 C   0  0  2  0  0  0  0  0  0  0  0  0
   32.8780   29.3890   22.2330 C   0  0  0  0  0  0  0  0  0  0  0  0
   30.5070   29.0130   22.2810 O   0  0  0  0  0  0  0  0  0  0  0  0
   32.6910   30.7030   21.5410 C   0  0  1  0  0  0  0  0  0  0  0  0
   31.2610   30.8360   21.0760 C   0  0  1  0  0  0  0  0  0  0  0  0
   31.5580   29.6470   24.2340 O   0  0  0  0  0  0  0  0  0  0  0  0
   32.4480   29.9580   24.5360 H   0  0  0  0  0  0  0  0  0  0  0  0
   31.8840   27.5240   23.3860 C   0  0  0  0  0  0  0  0  0  0  0  0
   33.0030   27.0130   23.1320 O   0  0  0  0  0  0  0  0  0  0  0  0
   30.9340   26.7290   24.0000 O   0  0  0  0  0  0  0  0  0  0  0  0
   31.0010   25.7140   23.9650 H   0  0  0  0  0  0  0  0  0  0  0  0
   33.0730   31.7160   22.4110 O   0  0  0  0  0  0  0  0  0  0  0  0
   33.8940   31.3980   22.8670 H   0  0  0  0  0  0  0  0  0  0  0  0
   31.0910   31.7340   19.9980 N   0  0  0  0  0  0  0  0  0  0  0  0
   30.8410   33.1120   20.1860 C   0  0  0  0  0  0  0  0  0  0  0  0
   31.1670   31.3970   19.0180 H   0  0  0  0  0  0  0  0  0  0  0  0
   30.6610   34.0540   19.0270 C   0  0  0  0  0  0  0  0  0  0  0  0
   30.7710   33.5360   21.3540 O   0  0  0  0  0  0  0  0  0  0  0  0
   29.3880   29.6450   18.9040 O   0  0  0  0  0  0  0  0  0  0  0  0
   29.7030   30.5730   18.8150 H   0  0  0  0  0  0  0  0  0  0  0  0
   28.8320   26.9770   19.7260 O   0  0  0  0  0  0  0  0  0  0  0  0
   29.1580   27.2960   18.8390 H   0  0  0  0  0  0  0  0  0  0  0  0
   25.0170   30.2040   18.2090 O   0  0  0  0  0  0  0  0  0  0  0  0
   25.2590   29.9480   16.8610 C   0  0  0  0  0  0  0  0  0  0  0  0
   26.6520   30.2630   16.4740 C   0  0  0  0  0  0  0  0  0  0  0  0
   27.2260   31.4640   16.1320 C   0  0  0  0  0  0  0  0  0  0  0  0
   27.6510   29.3480   16.3920 N   0  0  0  0  0  0  0  0  0  0  0  0
   28.5280   31.2750   15.8550 N   0  0  0  0  0  0  0  0  0  0  0  0
   28.7480   29.9860   16.0220 N   0  0  0  0  0  0  0  0  0  0  0  0
   29.5040   32.2340   15.4590 C   0  0  0  0  0  0  0  0  0  0  0  0
   30.8270   32.1170   15.8260 C   0  0  0  0  0  0  0  0  0  0  0  0
   29.1600   33.3290   14.6870 C   0  0  0  0  0  0  0  0  0  0  0  0
   31.7820   33.0350   15.4520 C   0  0  0  0  0  0  0  0  0  0  0  0
   30.1140   34.2510   14.3110 C   0  0  0  0  0  0  0  0  0  0  0  0
   31.4400   34.1450   14.6710 C   0  0  0  0  0  0  0  0  0  0  0  0
   32.6560   35.3100   14.2000 S   0  0  0  0  0  0  0  0  0  0  0  0
   32.0600   36.6760   14.3900 O   0  0  0  0  0  0  0  0  0  0  0  0
   33.8180   35.2070   15.1610 O   0  0  0  0  0  0  0  0  0  0  0  0
   33.1820   35.1050   12.5830 N   0  0  0  0  0  0  0  0  0  0  0  0
   33.5530   35.9500   12.1340 H   0  0  0  0  0  0  0  0  0  0  0  0
   33.8160   34.2820   12.4740 H   0  0  0  0  0  0  0  0  0  0  0  0
   29.8670   25.5550   16.9770 C   0  0  0  0  0  0  0  0  0  0  0  0
   28.3450   25.7220   17.0260 C   0  0  0  0  0  0  0  0  0  0  0  0
   27.6000   24.4090   16.8420 C   0  0  0  0  0  0  0  0  0  0  0  0
   26.7230   24.0860   18.0200 C   0  0  0  0  0  0  0  0  0  0  0  0
   26.0800   25.3660   18.5420 C   0  0  0  0  0  0  0  0  0  0  0  0
   25.6020   25.1780   19.9320 N   0  0  0  0  0  0  0  0  0  0  0  0
  1  5  1  0  0  0  0
  2  3  2  0  0  0  0
  2  1  1  0  0  0  0
  4  1  1  0  0  0  0
  6  5  1  6  0  0  0
  7 27  1  6  0  0  0
  7  6  1  0  0  0  0
  8  7  1  6  0  0  0
  8 13  1  0  0  0  0
  8 11  1  0  0  0  0
  9 16  1  1  0  0  0
  9 14  1  0  0  0  0
 10  9  1  0  0  0  0
 11  9  1  0  0  0  0
 12 10  1  0  0  0  0
 12 20  1  1  0  0  0
 13 22  1  6  0  0  0
 13 12  1  0  0  0  0
 14 15  1  0  0  0  0
 16 18  1  0  0  0  0
 17 16  2  0  0  0  0
 19 18  1  0  0  0  0
 20 21  1  0  0  0  0
 22 23  1  0  0  0  0
 23 26  2  0  0  0  0
 24 22  1  0  0  0  0
 25 23  1  0  0  0  0
 28 27  1  0  0  0  0
 29  6  1  0  0  0  0
 30 29  1  0  0  0  0
 31  2  1  0  0  0  0
 32 31  1  0  0  0  0
 33 32  1  0  0  0  0
 34 33  2  0  0  0  0
 35 33  1  0  0  0  0
 36 37  1  0  0  0  0
 36 34  1  0  0  0  0
 37 35  2  0  0  0  0
 38 39  1  0  0  0  0
 38 36  1  0  0  0  0
 40 38  2  0  0  0  0
 41 39  2  0  0  0  0
 42 43  2  0  0  0  0
 42 40  1  0  0  0  0
 43 41  1  0  0  0  0
 44 45  2  0  0  0  0
 44 43  1  0  0  0  0
 44 46  2  0  0  0  0
 47 44  1  0  0  0  0
 48 47  1  0  0  0  0
 49 47  1  0  0  0  0
 50 51  1  0  0  0  0
 52 51  1  0  0  0  0
 52 53  1  0  0  0  0
 53 54  1  0  0  0  0
 54 55  1  0  0  0  0
M  END
>  <REMARK>
 VINA RESULT:    -5.273      1.654      2.100
 INTER + INTRA:         -15.552
 INTER:                  -9.505
 INTRA:                  -6.047
 UNBOUND:                -5.964
 SMILES CC(=O)N[C@@H]1[C@@H](O)C[C@](O)(C(=O)O)O[C@H]1C(O)[C@H](O)CNC(=O)OCc1cn(-c2ccc(S(N)(=O)=O)cc2)nn1
 SMILES IDX 21 1 22 2 23 3 20 5 18 6 16 7 15 8 9 9 8 10 14 11 6 12 5 13
 SMILES IDX 10 14 11 16 12 17 13 18 7 20 4 22 2 23 1 25 3 26 17 27 19 29
 SMILES IDX 24 31 25 32 26 33 27 34 40 35 28 36 39 37 29 38 30 39 38 40
 SMILES IDX 31 41 37 42 32 43 33 44 35 45 36 46 34 47
 H PARENT 21 4 10 15 13 19 7 21 4 24 17 28 19 30 34 48 34 49
 Flexibility Score: inf
  4 active torsions:
  status: ('A' for Active; 'I' for Inactive)
    1  A    between atoms: CA   and  CB  
    2  A    between atoms: CB   and  CG  
    3  A    between atoms: CG   and  CD  
    4  A    between atoms: CD   and  CE  

>  <TORSDO>
F 17

>  <BEGIN_>
RES LYS A 131

$$$$
ligand_60_pose_1_2HRL.pdbqt
 OpenBabel07062320523D

  6  5  0  0  0  0  0  0  0  0999 V2000
   33.1930   34.6630    9.2900 C   0  0  0  0  0  0  0  0  0  0  0  0
   32.0600   35.3600   10.0340 C   0  0  0  0  0  0  0  0  0  0  0  0
   30.8010   35.5010    9.2180 C   0  0  0  0  0  0  0  0  0  0  0  0
   30.1670   34.1410    8.9700 C   0  0  0  0  0  0  0  0  0  0  0  0
   28.7820   34.0790    9.5870 C   0  0  0  0  0  0  0  0  0  0  0  0
   27.7310   34.3790    8.5760 N   0  0  0  0  0  0  0  0  0  0  0  0
  1  2  1  0  0  0  0
  3  2  1  0  0  0  0
  4  3  1  0  0  0  0
  4  5  1  0  0  0  0
  6  5  1  0  0  0  0
M  END
>  <EGIN_R>
ES LYS A 135

>  <REMARK>
  4 active torsions:
  status: ('A' for Active; 'I' for Inactive)
    5  A    between atoms: CA   and  CB  
    6  A    between atoms: CB   and  CG  
    7  A    between atoms: CG   and  CD  
    8  A    between atoms: CD   and  CE  

$$$$
