ligand_82_pose_2_2HRL.pdbqt
 OpenBabel07062320523D

 53 55  0  0  1  0  0  0  0  0999 V2000
   29.9300   30.8000   17.3160 N   0  0  0  0  0  0  0  0  0  0  0  0
   28.8100   30.7160   18.2120 C   0  0  0  0  0  0  0  0  0  0  0  0
   28.5400   31.7130   18.9300 O   0  0  0  0  0  0  0  0  0  0  0  0
   30.1580   29.9770   16.7180 H   0  0  0  0  0  0  0  0  0  0  0  0
   30.7170   32.0140   17.2590 C   0  0  0  0  0  0  0  0  0  0  0  0
   30.6690   32.5380   15.8530 C   0  0  2  0  0  0  0  0  0  0  0  0
   29.7450   33.7280   15.7140 C   0  0  1  0  0  0  0  0  0  0  0  0
   29.6230   34.0310   14.2390 C   0  0  2  0  0  0  0  0  0  0  0  0
   31.3540   35.4920   13.7510 C   0  0  2  0  0  0  0  0  0  0  0  0
   30.4290   36.6030   13.3080 C   0  0  0  0  0  0  0  0  0  0  0  0
   30.8140   34.2360   13.6070 O   0  0  0  0  0  0  0  0  0  0  0  0
   29.1290   35.9780   12.8670 C   0  0  1  0  0  0  0  0  0  0  0  0
   28.6210   35.1420   14.0240 C   0  0  1  0  0  0  0  0  0  0  0  0
   31.7940   35.7450   15.0540 O   0  0  0  0  0  0  0  0  0  0  0  0
   31.3710   36.6060   15.3190 H   0  0  0  0  0  0  0  0  0  0  0  0
   32.5590   35.5630   12.8730 C   0  0  0  0  0  0  0  0  0  0  0  0
   32.6640   36.5260   12.0410 O   0  0  0  0  0  0  0  0  0  0  0  0
   33.5740   34.6310   12.9170 O   0  0  0  0  0  0  0  0  0  0  0  0
   34.1290   34.4040   12.0960 H   0  0  0  0  0  0  0  0  0  0  0  0
   28.1690   36.9200   12.5540 O   0  0  0  0  0  0  0  0  0  0  0  0
   28.2880   37.1610   11.6010 H   0  0  0  0  0  0  0  0  0  0  0  0
   27.2860   34.6580   13.7870 N   0  0  0  0  0  0  0  0  0  0  0  0
   26.1440   35.3440   14.2750 C   0  0  0  0  0  0  0  0  0  0  0  0
   27.1740   33.7770   13.2390 H   0  0  0  0  0  0  0  0  0  0  0  0
   24.8010   34.7730   13.9840 C   0  0  0  0  0  0  0  0  0  0  0  0
   26.2720   36.4050   14.9360 O   0  0  0  0  0  0  0  0  0  0  0  0
   28.4720   33.4240   16.1910 O   0  0  0  0  0  0  0  0  0  0  0  0
   28.4620   32.6930   16.8300 H   0  0  0  0  0  0  0  0  0  0  0  0
   30.1620   31.4920   15.0520 O   0  0  0  0  0  0  0  0  0  0  0  0
   30.8730   30.8130   14.8820 H   0  0  0  0  0  0  0  0  0  0  0  0
   28.0230   29.6020   18.3180 O   0  0  0  0  0  0  0  0  0  0  0  0
   27.3770   28.9790   17.2210 C   0  0  0  0  0  0  0  0  0  0  0  0
   26.6120   29.9770   16.4460 C   0  0  0  0  0  0  0  0  0  0  0  0
   25.2490   30.1250   16.3430 C   0  0  0  0  0  0  0  0  0  0  0  0
   27.1450   30.9430   15.6840 N   0  0  0  0  0  0  0  0  0  0  0  0
   24.9780   31.1810   15.5190 N   0  0  0  0  0  0  0  0  0  0  0  0
   26.1560   31.6530   15.1370 N   0  0  0  0  0  0  0  0  0  0  0  0
   23.6560   31.6410   15.1700 C   0  0  0  0  0  0  0  0  0  0  0  0
   22.9610   30.6550   14.2700 C   0  0  0  0  0  0  0  0  0  0  0  0
   23.5020   30.2730   13.1160 C   0  0  0  0  0  0  0  0  0  0  0  0
   21.6520   30.0780   14.6340 C   0  0  2  0  0  0  0  0  0  0  0  0
   22.8960   29.1230   12.3920 C   0  0  0  0  0  0  0  0  0  0  0  0
   21.8190   28.5540   14.5350 C   0  0  0  0  0  0  0  0  0  0  0  0
   20.7880   29.9760   13.3930 C   0  0  0  0  0  0  0  0  0  0  0  0
   21.6060   28.7250   13.0400 C   0  0  1  0  0  0  0  0  0  0  0  0
   19.3620   29.5920   13.6720 C   0  0  0  0  0  0  0  0  0  0  0  0
   20.9090   31.0980   12.4190 C   0  0  0  0  0  0  0  0  0  0  0  0
   29.8670   25.5550   16.9770 C   0  0  0  0  0  0  0  0  0  0  0  0
   28.3450   25.7220   17.0260 C   0  0  0  0  0  0  0  0  0  0  0  0
   27.6000   24.4090   16.8430 C   0  0  0  0  0  0  0  0  0  0  0  0
   26.1710   24.4990   17.3010 C   0  0  0  0  0  0  0  0  0  0  0  0
   26.0280   23.8160   18.6580 C   0  0  0  0  0  0  0  0  0  0  0  0
   24.8650   22.8980   18.6560 N   0  0  0  0  0  0  0  0  0  0  0  0
  1  2  1  0  0  0  0
  2 31  1  0  0  0  0
  2  3  2  0  0  0  0
  4  1  1  0  0  0  0
  5  1  1  0  0  0  0
  6  5  1  1  0  0  0
  7  6  1  0  0  0  0
  7 27  1  6  0  0  0
  8  7  1  1  0  0  0
  9 16  1  6  0  0  0
  9 14  1  0  0  0  0
 10  9  1  0  0  0  0
 11  9  1  0  0  0  0
 11  8  1  0  0  0  0
 12 20  1  1  0  0  0
 12 10  1  0  0  0  0
 12 13  1  0  0  0  0
 13 22  1  6  0  0  0
 13  8  1  0  0  0  0
 14 15  1  0  0  0  0
 16 18  1  0  0  0  0
 17 16  2  0  0  0  0
 19 18  1  0  0  0  0
 21 20  1  0  0  0  0
 22 23  1  0  0  0  0
 23 26  2  0  0  0  0
 24 22  1  0  0  0  0
 25 23  1  0  0  0  0
 27 28  1  0  0  0  0
 29  6  1  0  0  0  0
 30 29  1  0  0  0  0
 32 31  1  0  0  0  0
 33 32  1  0  0  0  0
 34 33  2  0  0  0  0
 35 33  1  0  0  0  0
 36 34  1  0  0  0  0
 37 36  1  0  0  0  0
 37 35  2  0  0  0  0
 38 36  1  0  0  0  0
 39 41  1  0  0  0  0
 39 38  1  0  0  0  0
 40 39  2  0  0  0  0
 41 43  1  6  0  0  0
 42 40  1  0  0  0  0
 44 46  1  0  0  0  0
 44 41  1  0  0  0  0
 45 42  1  6  0  0  0
 45 44  1  0  0  0  0
 45 43  1  0  0  0  0
 47 44  1  0  0  0  0
 48 49  1  0  0  0  0
 50 49  1  0  0  0  0
 50 51  1  0  0  0  0
 51 52  1  0  0  0  0
 53 52  1  0  0  0  0
M  END
>  <REMARK>
 VINA RESULT:    -5.660      4.171      8.668
 INTER + INTRA:         -15.464
 INTER:                  -9.188
 INTRA:                  -6.276
 UNBOUND:                -5.337
 SMILES CC(=O)N[C@@H]1[C@@H](O)C[C@](O)(C(=O)O)O[C@H]1C(O)[C@H](O)CNC(=O)OCc1cn(CC2=CC[C@H]3C[C@@H]2C3(C)C)nn1
 SMILES IDX 21 1 22 2 23 3 20 5 18 6 16 7 15 8 9 9 8 10 14 11 6 12 5 13
 SMILES IDX 10 14 11 16 12 17 13 18 7 20 4 22 2 23 1 25 3 26 17 27 19 29
 SMILES IDX 24 31 25 32 26 33 27 34 40 35 28 36 39 37 29 38 30 39 31 40
 SMILES IDX 35 41 32 42 34 43 36 44 33 45 37 46 38 47
 H PARENT 21 4 10 15 13 19 7 21 4 24 17 28 19 30
 Flexibility Score: inf
  4 active torsions:
  status: ('A' for Active; 'I' for Inactive)
    1  A    between atoms: CA   and  CB  
    2  A    between atoms: CB   and  CG  
    3  A    between atoms: CG   and  CD  
    4  A    between atoms: CD   and  CE  

>  <TORSDO>
F 16

>  <BEGIN_>
RES LYS A 131

$$$$
ligand_82_pose_2_2HRL.pdbqt
 OpenBabel07062320523D

  6  5  0  0  0  0  0  0  0  0999 V2000
   33.1930   34.6630    9.2900 C   0  0  0  0  0  0  0  0  0  0  0  0
   32.0600   35.3600   10.0340 C   0  0  0  0  0  0  0  0  0  0  0  0
   30.7310   34.6620    9.8990 C   0  0  0  0  0  0  0  0  0  0  0  0
   30.3700   34.4740    8.4340 C   0  0  0  0  0  0  0  0  0  0  0  0
   29.5060   35.6200    7.9470 C   0  0  0  0  0  0  0  0  0  0  0  0
   28.1770   35.1310    7.4830 N   0  0  0  0  0  0  0  0  0  0  0  0
  1  2  1  0  0  0  0
  3  2  1  0  0  0  0
  4  3  1  0  0  0  0
  5  4  1  0  0  0  0
  6  5  1  0  0  0  0
M  END
>  <EGIN_R>
ES LYS A 135

>  <REMARK>
  4 active torsions:
  status: ('A' for Active; 'I' for Inactive)
    5  A    between atoms: CA   and  CB  
    6  A    between atoms: CB   and  CG  
    7  A    between atoms: CG   and  CD  
    8  A    between atoms: CD   and  CE  

$$$$
