ligand_61_pose_1_2HRL.pdbqt
 OpenBabel07062320523D

 49 50  0  0  1  0  0  0  0  0999 V2000
   29.1120   30.4980   16.6090 N   0  0  0  0  0  0  0  0  0  0  0  0
   27.9830   30.1100   17.3660 C   0  0  0  0  0  0  0  0  0  0  0  0
   27.9840   30.2980   18.6040 O   0  0  0  0  0  0  0  0  0  0  0  0
   29.0520   30.3160   15.5580 H   0  0  0  0  0  0  0  0  0  0  0  0
   30.3020   31.1080   17.1610 C   0  0  0  0  0  0  0  0  0  0  0  0
   30.6760   32.2880   16.3250 C   0  0  2  0  0  0  0  0  0  0  0  0
   29.5030   33.1540   15.9190 C   0  0  2  0  0  0  0  0  0  0  0  0
   29.8050   33.7980   14.6070 C   0  0  2  0  0  0  0  0  0  0  0  0
   31.0890   35.4090   13.5580 C   0  0  2  0  0  0  0  0  0  0  0  0
   30.2580   35.0170   12.3590 C   0  0  0  0  0  0  0  0  0  0  0  0
   30.9930   34.5010   14.5940 O   0  0  0  0  0  0  0  0  0  0  0  0
   28.8060   34.8690   12.6720 C   0  0  1  0  0  0  0  0  0  0  0  0
   28.6490   34.7090   14.1690 C   0  0  1  0  0  0  0  0  0  0  0  0
   30.8410   36.7230   13.9580 O   0  0  0  0  0  0  0  0  0  0  0  0
   29.9470   36.7840   14.3650 H   0  0  0  0  0  0  0  0  0  0  0  0
   32.5240   35.3750   13.0960 C   0  0  0  0  0  0  0  0  0  0  0  0
   32.9460   36.0500   12.1490 O   0  0  0  0  0  0  0  0  0  0  0  0
   33.4240   34.5460   13.7640 O   0  0  0  0  0  0  0  0  0  0  0  0
   33.5990   33.5870   13.4910 H   0  0  0  0  0  0  0  0  0  0  0  0
   28.0130   35.8720   12.1590 O   0  0  0  0  0  0  0  0  0  0  0  0
   27.7850   35.7100   11.1920 H   0  0  0  0  0  0  0  0  0  0  0  0
   27.3890   34.1170   14.5380 N   0  0  0  0  0  0  0  0  0  0  0  0
   26.2640   34.9360   14.8750 C   0  0  0  0  0  0  0  0  0  0  0  0
   27.2490   33.0840   14.5740 H   0  0  0  0  0  0  0  0  0  0  0  0
   24.9520   34.4100   15.2590 C   0  0  0  0  0  0  0  0  0  0  0  0
   26.4120   36.2020   14.8360 O   0  0  0  0  0  0  0  0  0  0  0  0
   29.3710   34.1270   16.9110 O   0  0  0  0  0  0  0  0  0  0  0  0
   30.2150   34.6360   16.9880 H   0  0  0  0  0  0  0  0  0  0  0  0
   31.2350   31.7980   15.1340 O   0  0  0  0  0  0  0  0  0  0  0  0
   31.9890   32.3410   14.8160 H   0  0  0  0  0  0  0  0  0  0  0  0
   26.8780   29.5210   16.7170 O   0  0  0  0  0  0  0  0  0  0  0  0
   25.6430   30.2010   16.8930 C   0  0  0  0  0  0  0  0  0  0  0  0
   24.7090   29.7220   15.8650 C   0  0  0  0  0  0  0  0  0  0  0  0
   24.6880   30.0430   14.5170 C   0  0  0  0  0  0  0  0  0  0  0  0
   23.6850   28.8640   16.0630 N   0  0  0  0  0  0  0  0  0  0  0  0
   23.6620   29.3680   13.9820 N   0  0  0  0  0  0  0  0  0  0  0  0
   23.0530   28.6540   14.9090 N   0  0  0  0  0  0  0  0  0  0  0  0
   23.2780   29.4120   12.5980 C   0  0  0  0  0  0  0  0  0  0  0  0
   21.8540   29.9500   12.4550 C   0  0  0  0  0  0  0  0  0  0  0  0
   21.5690   31.2360   12.6250 C   0  0  0  0  0  0  0  0  0  0  0  0
   20.8570   29.0560   12.1390 C   0  0  0  0  0  0  0  0  0  0  0  0
   20.2800   31.6740   12.4850 C   0  0  0  0  0  0  0  0  0  0  0  0
   19.3950   30.1530   12.0810 S   0  0  0  0  0  0  0  0  0  0  0  0
   29.8670   25.5550   16.9770 C   0  0  0  0  0  0  0  0  0  0  0  0
   28.3450   25.7220   17.0260 C   0  0  0  0  0  0  0  0  0  0  0  0
   27.6010   24.4020   16.8960 C   0  0  0  0  0  0  0  0  0  0  0  0
   26.1450   24.5350   17.2450 C   0  0  0  0  0  0  0  0  0  0  0  0
   25.5700   23.1590   17.5630 C   0  0  0  0  0  0  0  0  0  0  0  0
   24.1730   23.0550   17.0770 N   0  0  0  0  0  0  0  0  0  0  0  0
  1  5  1  0  0  0  0
  1  2  1  0  0  0  0
  2  3  2  0  0  0  0
  4  1  1  0  0  0  0
  6  5  1  1  0  0  0
  7  6  1  0  0  0  0
  7 27  1  1  0  0  0
  8  7  1  1  0  0  0
  9 16  1  6  0  0  0
  9 14  1  0  0  0  0
  9 11  1  0  0  0  0
 10 12  1  0  0  0  0
 10  9  1  0  0  0  0
 11  8  1  0  0  0  0
 12 20  1  1  0  0  0
 12 13  1  0  0  0  0
 13 22  1  6  0  0  0
 13  8  1  0  0  0  0
 14 15  1  0  0  0  0
 16 18  1  0  0  0  0
 17 16  2  0  0  0  0
 19 18  1  0  0  0  0
 21 20  1  0  0  0  0
 22 24  1  0  0  0  0
 22 23  1  0  0  0  0
 23 25  1  0  0  0  0
 26 23  2  0  0  0  0
 27 28  1  0  0  0  0
 29  6  1  0  0  0  0
 30 29  1  0  0  0  0
 31 32  1  0  0  0  0
 31  2  1  0  0  0  0
 33 35  1  0  0  0  0
 33 32  1  0  0  0  0
 34 33  2  0  0  0  0
 36 34  1  0  0  0  0
 36 37  1  0  0  0  0
 37 35  2  0  0  0  0
 38 36  1  0  0  0  0
 39 38  1  0  0  0  0
 39 40  1  0  0  0  0
 41 39  2  0  0  0  0
 42 40  2  0  0  0  0
 43 41  1  0  0  0  0
 43 42  1  0  0  0  0
 44 45  1  0  0  0  0
 46 45  1  0  0  0  0
 46 47  1  0  0  0  0
 47 48  1  0  0  0  0
 49 48  1  0  0  0  0
M  END
>  <REMARK>
 VINA RESULT:    -4.583      5.011      8.395
 INTER + INTRA:         -14.337
 INTER:                  -9.192
 INTRA:                  -5.145
 UNBOUND:                -6.136
 SMILES CC(=O)N[C@@H]1[C@@H](O)C[C@](O)(C(=O)O)O[C@H]1C(O)[C@H](O)CNC(=O)OCc1cn(Cc2ccsc2)nn1
 SMILES IDX 21 1 22 2 23 3 20 5 18 6 16 7 15 8 9 9 8 10 14 11 6 12 5 13
 SMILES IDX 10 14 11 16 12 17 13 18 7 20 4 22 2 23 1 25 3 26 17 27 19 29
 SMILES IDX 24 31 25 32 26 33 27 34 36 35 28 36 35 37 29 38 30 39 31 40
 SMILES IDX 34 41 32 42 33 43
 H PARENT 21 4 10 15 13 19 7 21 4 24 17 28 19 30
 Flexibility Score: inf
  4 active torsions:
  status: ('A' for Active; 'I' for Inactive)
    1  A    between atoms: CA   and  CB  
    2  A    between atoms: CB   and  CG  
    3  A    between atoms: CG   and  CD  
    4  A    between atoms: CD   and  CE  

>  <TORSDO>
F 16

>  <BEGIN_>
RES LYS A 131

$$$$
ligand_61_pose_1_2HRL.pdbqt
 OpenBabel07062320523D

  6  5  0  0  0  0  0  0  0  0999 V2000
   33.1930   34.6630    9.2900 C   0  0  0  0  0  0  0  0  0  0  0  0
   32.0600   35.3600   10.0340 C   0  0  0  0  0  0  0  0  0  0  0  0
   30.8320   35.5840    9.1890 C   0  0  0  0  0  0  0  0  0  0  0  0
   30.2840   34.2600    8.6780 C   0  0  0  0  0  0  0  0  0  0  0  0
   28.8020   34.1470    8.9760 C   0  0  0  0  0  0  0  0  0  0  0  0
   27.9950   34.9140    7.9850 N   0  0  0  0  0  0  0  0  0  0  0  0
  1  2  1  0  0  0  0
  3  2  1  0  0  0  0
  4  5  1  0  0  0  0
  4  3  1  0  0  0  0
  6  5  1  0  0  0  0
M  END
>  <EGIN_R>
ES LYS A 135

>  <REMARK>
  4 active torsions:
  status: ('A' for Active; 'I' for Inactive)
    5  A    between atoms: CA   and  CB  
    6  A    between atoms: CB   and  CG  
    7  A    between atoms: CG   and  CD  
    8  A    between atoms: CD   and  CE  

$$$$
