ligand_49_pose_5_2HRL.pdbqt
 OpenBabel07062320523D

 48 49  0  0  1  0  0  0  0  0999 V2000
   29.5770   30.3840   20.3070 C   0  0  0  0  0  0  0  0  0  0  0  0
   30.6110   30.9720   19.3870 C   0  0  2  0  0  0  0  0  0  0  0  0
   30.4390   32.4770   19.4560 C   0  0  1  0  0  0  0  0  0  0  0  0
   29.9530   33.0580   18.1670 C   0  0  2  0  0  0  0  0  0  0  0  0
   30.7340   34.1570   16.2810 C   0  0  2  0  0  0  0  0  0  0  0  0
   29.2480   34.1090   15.9560 C   0  0  0  0  0  0  0  0  0  0  0  0
   30.8880   33.9230   17.6490 O   0  0  0  0  0  0  0  0  0  0  0  0
   28.5200   34.7280   17.1320 C   0  0  1  0  0  0  0  0  0  0  0  0
   28.6070   33.7210   18.2720 C   0  0  1  0  0  0  0  0  0  0  0  0
   31.1720   35.4310   15.9440 O   0  0  0  0  0  0  0  0  0  0  0  0
   30.9800   35.5560   14.9630 H   0  0  0  0  0  0  0  0  0  0  0  0
   31.4990   33.1700   15.5100 C   0  0  0  0  0  0  0  0  0  0  0  0
   31.2460   31.9410   15.5810 O   0  0  0  0  0  0  0  0  0  0  0  0
   32.5320   33.5680   14.6770 O   0  0  0  0  0  0  0  0  0  0  0  0
   32.6670   34.5490   14.4000 H   0  0  0  0  0  0  0  0  0  0  0  0
   29.2280   35.8910   17.4800 O   0  0  0  0  0  0  0  0  0  0  0  0
   29.8750   36.0650   16.7470 H   0  0  0  0  0  0  0  0  0  0  0  0
   27.5180   32.7750   18.1380 N   0  0  0  0  0  0  0  0  0  0  0  0
   26.4670   32.7400   19.0800 C   0  0  0  0  0  0  0  0  0  0  0  0
   27.5020   32.1100   17.3430 H   0  0  0  0  0  0  0  0  0  0  0  0
   25.3220   31.7990   19.0040 C   0  0  0  0  0  0  0  0  0  0  0  0
   26.5020   33.5500   20.0340 O   0  0  0  0  0  0  0  0  0  0  0  0
   29.4680   32.7190   20.4290 O   0  0  0  0  0  0  0  0  0  0  0  0
   28.7120   33.2490   20.1070 H   0  0  0  0  0  0  0  0  0  0  0  0
   30.4540   30.5430   18.0900 O   0  0  0  0  0  0  0  0  0  0  0  0
   29.5890   30.8810   17.7340 H   0  0  0  0  0  0  0  0  0  0  0  0
   28.3920   29.8910   19.6790 N   0  0  0  0  0  0  0  0  0  0  0  0
   28.0000   28.5510   19.5890 C   0  0  0  0  0  0  0  0  0  0  0  0
   27.7510   30.6270   19.2400 H   0  0  0  0  0  0  0  0  0  0  0  0
   28.7190   27.6510   20.0800 O   0  0  0  0  0  0  0  0  0  0  0  0
   26.7970   28.2030   18.9480 O   0  0  0  0  0  0  0  0  0  0  0  0
   26.8660   27.8730   17.5730 C   0  0  0  0  0  0  0  0  0  0  0  0
   26.8870   29.1310   16.7940 C   0  0  0  0  0  0  0  0  0  0  0  0
   25.7750   29.6530   16.1470 C   0  0  0  0  0  0  0  0  0  0  0  0
   27.8810   29.9770   16.5510 N   0  0  0  0  0  0  0  0  0  0  0  0
   26.1490   30.7840   15.5490 N   0  0  0  0  0  0  0  0  0  0  0  0
   27.4300   30.9690   15.8010 N   0  0  0  0  0  0  0  0  0  0  0  0
   25.2470   31.6210   14.7650 C   0  0  0  0  0  0  0  0  0  0  0  0
   23.9210   31.6440   15.4700 C   0  0  0  0  0  0  0  0  0  0  0  0
   25.7750   33.0380   14.7640 C   0  0  0  0  0  0  0  0  0  0  0  0
   23.5970   33.0800   15.7330 C   0  0  0  0  0  0  0  0  0  0  0  0
   24.9430   33.7470   15.8180 C   0  0  0  0  0  0  0  0  0  0  0  0
   29.8670   25.5550   16.9770 C   0  0  0  0  0  0  0  0  0  0  0  0
   28.3450   25.7220   17.0260 C   0  0  0  0  0  0  0  0  0  0  0  0
   27.6000   24.4130   16.8130 C   0  0  0  0  0  0  0  0  0  0  0  0
   26.6980   24.0800   17.9690 C   0  0  0  0  0  0  0  0  0  0  0  0
   25.3770   23.5290   17.4420 C   0  0  0  0  0  0  0  0  0  0  0  0
   24.5180   24.6290   16.9430 N   0  0  0  0  0  0  0  0  0  0  0  0
  2  3  1  0  0  0  0
  2  1  1  1  0  0  0
  3 23  1  1  0  0  0
  4  9  1  0  0  0  0
  4  3  1  1  0  0  0
  5 12  1  6  0  0  0
  5  7  1  0  0  0  0
  6  5  1  0  0  0  0
  6  8  1  0  0  0  0
  7  4  1  0  0  0  0
  8 16  1  1  0  0  0
  8  9  1  0  0  0  0
  9 18  1  6  0  0  0
 10  5  1  0  0  0  0
 11 10  1  0  0  0  0
 12 13  2  0  0  0  0
 14 12  1  0  0  0  0
 15 14  1  0  0  0  0
 17 16  1  0  0  0  0
 18 19  1  0  0  0  0
 19 22  2  0  0  0  0
 20 18  1  0  0  0  0
 21 19  1  0  0  0  0
 24 23  1  0  0  0  0
 25  2  1  0  0  0  0
 26 25  1  0  0  0  0
 27  1  1  0  0  0  0
 28 27  1  0  0  0  0
 28 30  2  0  0  0  0
 29 27  1  0  0  0  0
 31 28  1  0  0  0  0
 32 31  1  0  0  0  0
 33 32  1  0  0  0  0
 34 33  2  0  0  0  0
 35 33  1  0  0  0  0
 36 37  1  0  0  0  0
 36 34  1  0  0  0  0
 37 35  2  0  0  0  0
 38 39  1  0  0  0  0
 38 36  1  0  0  0  0
 39 41  1  0  0  0  0
 40 38  1  0  0  0  0
 40 42  1  0  0  0  0
 41 42  1  0  0  0  0
 43 44  1  0  0  0  0
 45 44  1  0  0  0  0
 45 46  1  0  0  0  0
 47 46  1  0  0  0  0
 48 47  1  0  0  0  0
M  END
>  <REMARK>
 VINA RESULT:    -5.208      2.319      3.560
 INTER + INTRA:         -14.039
 INTER:                  -6.390
 INTRA:                  -7.650
 UNBOUND:                -5.026
 SMILES CC(=O)N[C@@H]1[C@@H](O)C[C@](O)(C(=O)O)O[C@H]1C(O)[C@H](O)CNC(=O)OCc1cn(C2CCCC2)nn1
 SMILES IDX 20 1 18 2 16 3 15 4 9 5 8 6 14 7 6 8 5 9 10 10 11 12 12 13
 SMILES IDX 13 14 7 16 4 18 2 19 1 21 3 22 17 23 19 25 21 27 22 28 23 30
 SMILES IDX 24 31 25 32 26 33 27 34 35 35 28 36 34 37 29 38 30 39 33 40
 SMILES IDX 31 41 32 42
 H PARENT 10 11 13 15 7 17 4 20 17 24 19 26 21 29
 Flexibility Score: inf
  4 active torsions:
  status: ('A' for Active; 'I' for Inactive)
    1  A    between atoms: CA   and  CB  
    2  A    between atoms: CB   and  CG  
    3  A    between atoms: CG   and  CD  
    4  A    between atoms: CD   and  CE  

>  <TORSDO>
F 15

>  <BEGIN_>
RES LYS A 131

$$$$
ligand_49_pose_5_2HRL.pdbqt
 OpenBabel07062320523D

  6  5  0  0  0  0  0  0  0  0999 V2000
   33.1930   34.6630    9.2900 C   0  0  0  0  0  0  0  0  0  0  0  0
   32.0600   35.3600   10.0340 C   0  0  0  0  0  0  0  0  0  0  0  0
   30.7830   35.4510    9.2390 C   0  0  0  0  0  0  0  0  0  0  0  0
   30.1960   34.0680    9.0060 C   0  0  0  0  0  0  0  0  0  0  0  0
   28.6820   34.1100    9.0890 C   0  0  0  0  0  0  0  0  0  0  0  0
   28.1050   34.9010    7.9670 N   0  0  0  0  0  0  0  0  0  0  0  0
  1  2  1  0  0  0  0
  3  2  1  0  0  0  0
  4  5  1  0  0  0  0
  4  3  1  0  0  0  0
  6  5  1  0  0  0  0
M  END
>  <EGIN_R>
ES LYS A 135

>  <REMARK>
  4 active torsions:
  status: ('A' for Active; 'I' for Inactive)
    5  A    between atoms: CA   and  CB  
    6  A    between atoms: CB   and  CG  
    7  A    between atoms: CG   and  CD  
    8  A    between atoms: CD   and  CE  

$$$$
