ligand_39_pose_15_2HRL.pdbqt
 OpenBabel07062320523D

 51 52  0  0  1  0  0  0  0  0999 V2000
   29.6230   27.0710   20.3650 N   0  0  0  0  0  0  0  0  0  0  0  0
   28.2670   27.2190   20.6780 C   0  0  0  0  0  0  0  0  0  0  0  0
   27.9220   27.3090   21.8890 O   0  0  0  0  0  0  0  0  0  0  0  0
   29.8710   26.9990   19.3390 H   0  0  0  0  0  0  0  0  0  0  0  0
   30.6950   27.0070   21.3340 C   0  0  0  0  0  0  0  0  0  0  0  0
   31.8770   27.8070   20.8290 C   0  0  2  0  0  0  0  0  0  0  0  0
   31.5320   29.2740   20.6970 C   0  0  2  0  0  0  0  0  0  0  0  0
   30.8030   29.8010   21.9170 C   0  0  2  0  0  0  0  0  0  0  0  0
   29.0560   31.2480   22.4580 C   0  0  2  0  0  0  0  0  0  0  0  0
   29.9000   32.0170   23.4020 C   0  0  0  0  0  0  0  0  0  0  0  0
   29.8450   30.6640   21.4790 O   0  0  0  0  0  0  0  0  0  0  0  0
   31.3550   31.7500   23.3970 C   0  0  1  0  0  0  0  0  0  0  0  0
   31.7610   30.3870   22.9160 C   0  0  1  0  0  0  0  0  0  0  0  0
   28.2200   32.1560   21.7570 O   0  0  0  0  0  0  0  0  0  0  0  0
   27.8630   32.8550   22.3660 H   0  0  0  0  0  0  0  0  0  0  0  0
   28.1860   30.2970   23.1530 C   0  0  0  0  0  0  0  0  0  0  0  0
   26.9370   30.2510   22.9840 O   0  0  0  0  0  0  0  0  0  0  0  0
   28.7440   29.3960   24.0490 O   0  0  0  0  0  0  0  0  0  0  0  0
   28.1910   28.8490   24.6970 H   0  0  0  0  0  0  0  0  0  0  0  0
   32.0340   32.7540   22.6830 O   0  0  0  0  0  0  0  0  0  0  0  0
   32.5800   33.2330   23.3840 H   0  0  0  0  0  0  0  0  0  0  0  0
   32.0230   29.4910   24.0200 N   0  0  0  0  0  0  0  0  0  0  0  0
   33.2560   28.8080   24.1760 C   0  0  0  0  0  0  0  0  0  0  0  0
   31.2870   29.3330   24.7360 H   0  0  0  0  0  0  0  0  0  0  0  0
   33.5420   27.8810   25.3080 C   0  0  0  0  0  0  0  0  0  0  0  0
   34.1440   29.0200   23.2830 O   0  0  0  0  0  0  0  0  0  0  0  0
   30.8140   29.4870   19.5250 O   0  0  0  0  0  0  0  0  0  0  0  0
   31.3940   29.2250   18.7440 H   0  0  0  0  0  0  0  0  0  0  0  0
   32.1810   27.2600   19.5600 O   0  0  0  0  0  0  0  0  0  0  0  0
   31.3830   27.0950   19.0320 H   0  0  0  0  0  0  0  0  0  0  0  0
   27.2460   27.2770   19.7410 O   0  0  0  0  0  0  0  0  0  0  0  0
   27.4620   27.9070   18.4900 C   0  0  0  0  0  0  0  0  0  0  0  0
   27.4140   29.3790   18.6080 C   0  0  0  0  0  0  0  0  0  0  0  0
   27.9210   30.3140   17.6930 C   0  0  0  0  0  0  0  0  0  0  0  0
   26.8970   30.1360   19.5820 N   0  0  0  0  0  0  0  0  0  0  0  0
   27.7110   31.5490   18.1140 N   0  0  0  0  0  0  0  0  0  0  0  0
   27.0680   31.4090   19.2980 N   0  0  0  0  0  0  0  0  0  0  0  0
   28.0220   32.8600   17.5960 C   0  0  0  0  0  0  0  0  0  0  0  0
   29.2390   32.9570   16.8000 C   0  0  0  0  0  0  0  0  0  0  0  0
   29.1990   32.8360   15.4090 C   0  0  0  0  0  0  0  0  0  0  0  0
   30.4590   33.2000   17.3620 C   0  0  0  0  0  0  0  0  0  0  0  0
   30.3460   32.9620   14.6750 C   0  0  0  0  0  0  0  0  0  0  0  0
   31.6170   33.3260   16.6160 C   0  0  0  0  0  0  0  0  0  0  0  0
   30.6640   33.3390   19.2760 Br  0  0  0  0  0  0  0  0  0  0  0  0
   31.5690   33.2070   15.2500 C   0  0  0  0  0  0  0  0  0  0  0  0
   29.8670   25.5550   16.9770 C   0  0  0  0  0  0  0  0  0  0  0  0
   28.3450   25.7220   17.0260 C   0  0  0  0  0  0  0  0  0  0  0  0
   27.6030   24.3950   16.9890 C   0  0  0  0  0  0  0  0  0  0  0  0
   26.1410   24.5540   17.3000 C   0  0  0  0  0  0  0  0  0  0  0  0
   25.8930   24.2160   18.7670 C   0  0  0  0  0  0  0  0  0  0  0  0
   25.2590   22.8820   18.8920 N   0  0  0  0  0  0  0  0  0  0  0  0
  1  2  1  0  0  0  0
  1  5  1  0  0  0  0
  2  3  2  0  0  0  0
  4  1  1  0  0  0  0
  6  5  1  6  0  0  0
  7 27  1  6  0  0  0
  7  6  1  0  0  0  0
  8  7  1  6  0  0  0
  8 13  1  0  0  0  0
  9 14  1  6  0  0  0
  9 16  1  0  0  0  0
  9 10  1  0  0  0  0
 11  8  1  0  0  0  0
 11  9  1  0  0  0  0
 12 20  1  6  0  0  0
 12 10  1  0  0  0  0
 13 12  1  0  0  0  0
 13 22  1  1  0  0  0
 14 15  1  0  0  0  0
 16 18  1  0  0  0  0
 17 16  2  0  0  0  0
 18 19  1  0  0  0  0
 20 21  1  0  0  0  0
 22 23  1  0  0  0  0
 22 24  1  0  0  0  0
 23 25  1  0  0  0  0
 26 23  2  0  0  0  0
 28 27  1  0  0  0  0
 29  6  1  0  0  0  0
 30 29  1  0  0  0  0
 31  2  1  0  0  0  0
 32 33  1  0  0  0  0
 32 31  1  0  0  0  0
 33 35  1  0  0  0  0
 34 36  1  0  0  0  0
 34 33  2  0  0  0  0
 36 37  1  0  0  0  0
 37 35  2  0  0  0  0
 38 36  1  0  0  0  0
 39 41  1  0  0  0  0
 39 38  1  0  0  0  0
 40 39  2  0  0  0  0
 41 44  1  0  0  0  0
 42 45  2  0  0  0  0
 42 40  1  0  0  0  0
 43 41  2  0  0  0  0
 45 43  1  0  0  0  0
 46 47  1  0  0  0  0
 48 47  1  0  0  0  0
 48 49  1  0  0  0  0
 49 50  1  0  0  0  0
 50 51  1  0  0  0  0
M  END
>  <REMARK>
 VINA RESULT:    -3.893      2.190      3.147
 INTER + INTRA:         -14.391
 INTER:                  -7.931
 INTRA:                  -6.460
 UNBOUND:                -7.426
 SMILES CC(=O)N[C@@H]1[C@@H](O)C[C@](O)(C(=O)O)O[C@H]1C(O)[C@H](O)CNC(=O)OCc1cn(Cc2ccccc2Br)nn1
 SMILES IDX 21 1 22 2 23 3 20 5 18 6 16 7 15 8 9 9 8 10 14 11 6 12 5 13
 SMILES IDX 10 14 11 16 12 17 13 18 7 20 4 22 2 23 1 25 3 26 17 27 19 29
 SMILES IDX 24 31 25 32 26 33 27 34 38 35 28 36 37 37 29 38 30 39 31 40
 SMILES IDX 35 41 32 42 34 43 36 44 33 45
 H PARENT 21 4 10 15 13 19 7 21 4 24 17 28 19 30
 Flexibility Score: inf
  4 active torsions:
  status: ('A' for Active; 'I' for Inactive)
    1  A    between atoms: CA   and  CB  
    2  A    between atoms: CB   and  CG  
    3  A    between atoms: CG   and  CD  
    4  A    between atoms: CD   and  CE  

>  <TORSDO>
F 16

>  <BEGIN_>
RES LYS A 131

$$$$
ligand_39_pose_15_2HRL.pdbqt
 OpenBabel07062320523D

  6  5  0  0  0  0  0  0  0  0999 V2000
   33.1930   34.6630    9.2900 C   0  0  0  0  0  0  0  0  0  0  0  0
   32.0600   35.3600   10.0340 C   0  0  0  0  0  0  0  0  0  0  0  0
   30.7880   35.4640    9.2330 C   0  0  0  0  0  0  0  0  0  0  0  0
   30.2170   34.0830    8.9490 C   0  0  0  0  0  0  0  0  0  0  0  0
   28.7160   34.0740    9.1600 C   0  0  0  0  0  0  0  0  0  0  0  0
   28.0150   34.7990    8.0640 N   0  0  0  0  0  0  0  0  0  0  0  0
  1  2  1  0  0  0  0
  3  2  1  0  0  0  0
  4  5  1  0  0  0  0
  4  3  1  0  0  0  0
  6  5  1  0  0  0  0
M  END
>  <EGIN_R>
ES LYS A 135

>  <REMARK>
  4 active torsions:
  status: ('A' for Active; 'I' for Inactive)
    5  A    between atoms: CA   and  CB  
    6  A    between atoms: CB   and  CG  
    7  A    between atoms: CG   and  CD  
    8  A    between atoms: CD   and  CE  

$$$$
