ligand_40_pose_9_2HRL.pdbqt
 OpenBabel07062320523D

 50 51  0  0  1  0  0  0  0  0999 V2000
   26.2840   31.5740   16.3080 C   0  0  0  0  0  0  0  0  0  0  0  0
   27.7290   31.7340   16.0760 C   0  0  2  0  0  0  0  0  0  0  0  0
   28.2530   33.0350   15.5590 C   0  0  2  0  0  0  0  0  0  0  0  0
   29.3160   33.7060   16.3700 C   0  0  2  0  0  0  0  0  0  0  0  0
   30.6050   34.7290   14.7020 C   0  0  2  0  0  0  0  0  0  0  0  0
   31.8760   34.0110   15.1180 C   0  0  0  0  0  0  0  0  0  0  0  0
   29.6990   34.8800   15.7030 O   0  0  0  0  0  0  0  0  0  0  0  0
   31.5030   32.7210   15.8310 C   0  0  1  0  0  0  0  0  0  0  0  0
   30.4640   32.9370   16.8820 C   0  0  1  0  0  0  0  0  0  0  0  0
   30.1390   34.0920   13.5770 O   0  0  0  0  0  0  0  0  0  0  0  0
   29.7100   33.2140   13.7480 H   0  0  0  0  0  0  0  0  0  0  0  0
   31.0460   36.1040   14.3060 C   0  0  0  0  0  0  0  0  0  0  0  0
   32.2580   36.4640   14.3730 O   0  0  0  0  0  0  0  0  0  0  0  0
   30.1200   37.0210   13.8530 O   0  0  0  0  0  0  0  0  0  0  0  0
   29.6420   36.8510   12.9650 H   0  0  0  0  0  0  0  0  0  0  0  0
   30.9370   31.9280   14.8310 O   0  0  0  0  0  0  0  0  0  0  0  0
   31.6030   31.6780   14.1400 H   0  0  0  0  0  0  0  0  0  0  0  0
   30.9520   33.6460   18.0500 N   0  0  0  0  0  0  0  0  0  0  0  0
   31.0620   33.0610   19.3220 C   0  0  0  0  0  0  0  0  0  0  0  0
   31.2250   34.6380   17.8880 H   0  0  0  0  0  0  0  0  0  0  0  0
   31.5550   33.7560   20.5270 C   0  0  0  0  0  0  0  0  0  0  0  0
   30.7100   31.8700   19.4080 O   0  0  0  0  0  0  0  0  0  0  0  0
   27.1370   33.9670   15.7870 O   0  0  0  0  0  0  0  0  0  0  0  0
   26.3200   33.5040   15.4620 H   0  0  0  0  0  0  0  0  0  0  0  0
   28.2930   30.6220   15.4700 O   0  0  0  0  0  0  0  0  0  0  0  0
   27.9050   29.7660   15.8300 H   0  0  0  0  0  0  0  0  0  0  0  0
   25.4400   31.8230   15.1370 N   0  0  0  0  0  0  0  0  0  0  0  0
   24.3180   32.6810   15.1970 C   0  0  0  0  0  0  0  0  0  0  0  0
   25.6250   31.3690   14.2050 H   0  0  0  0  0  0  0  0  0  0  0  0
   24.0290   33.2420   16.2590 O   0  0  0  0  0  0  0  0  0  0  0  0
   23.5010   32.9340   14.0940 O   0  0  0  0  0  0  0  0  0  0  0  0
   23.5320   34.2060   13.4890 C   0  0  0  0  0  0  0  0  0  0  0  0
   24.7270   34.4260   12.6690 C   0  0  0  0  0  0  0  0  0  0  0  0
   24.6910   34.8940   11.3730 C   0  0  0  0  0  0  0  0  0  0  0  0
   26.0370   34.2470   12.9360 N   0  0  0  0  0  0  0  0  0  0  0  0
   25.9460   34.9900   10.8850 N   0  0  0  0  0  0  0  0  0  0  0  0
   26.7340   34.5900   11.8600 N   0  0  0  0  0  0  0  0  0  0  0  0
   26.3820   35.4240    9.5980 C   0  0  0  0  0  0  0  0  0  0  0  0
   27.0670   34.5730    8.7550 C   0  0  0  0  0  0  0  0  0  0  0  0
   26.1450   36.7030    9.1370 C   0  0  0  0  0  0  0  0  0  0  0  0
   27.4960   34.9790    7.5060 C   0  0  0  0  0  0  0  0  0  0  0  0
   26.5710   37.1150    7.8910 C   0  0  0  0  0  0  0  0  0  0  0  0
   27.2540   36.2590    7.0540 C   0  0  0  0  0  0  0  0  0  0  0  0
   27.6960   36.7430    5.7200 C   0  0  0  0  0  0  0  0  0  0  0  0
   29.8670   25.5550   16.9770 C   0  0  0  0  0  0  0  0  0  0  0  0
   28.3450   25.7220   17.0260 C   0  0  0  0  0  0  0  0  0  0  0  0
   27.6020   24.3990   16.9230 C   0  0  0  0  0  0  0  0  0  0  0  0
   26.1650   24.5220   17.3490 C   0  0  0  0  0  0  0  0  0  0  0  0
   25.9410   23.7130   18.6230 C   0  0  0  0  0  0  0  0  0  0  0  0
   24.5420   23.8600   19.0910 N   0  0  0  0  0  0  0  0  0  0  0  0
  2  1  1  6  0  0  0
  3 23  1  1  0  0  0
  3  2  1  0  0  0  0
  4  3  1  6  0  0  0
  4  9  1  0  0  0  0
  5 10  1  6  0  0  0
  5  6  1  0  0  0  0
  5  7  1  0  0  0  0
  6  8  1  0  0  0  0
  7  4  1  0  0  0  0
  8 16  1  6  0  0  0
  8  9  1  0  0  0  0
  9 18  1  1  0  0  0
 10 11  1  0  0  0  0
 12 13  2  0  0  0  0
 12  5  1  0  0  0  0
 14 12  1  0  0  0  0
 15 14  1  0  0  0  0
 17 16  1  0  0  0  0
 18 19  1  0  0  0  0
 19 22  2  0  0  0  0
 19 21  1  0  0  0  0
 20 18  1  0  0  0  0
 24 23  1  0  0  0  0
 25 26  1  0  0  0  0
 25  2  1  0  0  0  0
 27 28  1  0  0  0  0
 27  1  1  0  0  0  0
 28 30  2  0  0  0  0
 29 27  1  0  0  0  0
 31 28  1  0  0  0  0
 32 31  1  0  0  0  0
 33 35  1  0  0  0  0
 33 32  1  0  0  0  0
 34 33  2  0  0  0  0
 36 34  1  0  0  0  0
 36 37  1  0  0  0  0
 37 35  2  0  0  0  0
 38 36  1  0  0  0  0
 39 38  2  0  0  0  0
 40 38  1  0  0  0  0
 41 39  1  0  0  0  0
 42 40  2  0  0  0  0
 43 41  2  0  0  0  0
 43 42  1  0  0  0  0
 44 43  1  0  0  0  0
 45 46  1  0  0  0  0
 47 46  1  0  0  0  0
 47 48  1  0  0  0  0
 48 49  1  0  0  0  0
 49 50  1  0  0  0  0
M  END
>  <REMARK>
 VINA RESULT:    -5.239      2.628      5.523
 INTER + INTRA:         -14.079
 INTER:                  -9.659
 INTRA:                  -4.420
 UNBOUND:                -5.012
 SMILES CC(=O)N[C@@H]1[C@@H](O)C[C@](O)(C(=O)O)O[C@H]1C(O)[C@H](O)CNC(=O)OCc1cn(-c2ccc(C)cc2)nn1
 SMILES IDX 20 1 18 2 16 3 15 4 9 5 8 6 14 7 6 8 5 9 10 10 11 12 12 13
 SMILES IDX 13 14 7 16 4 18 2 19 1 21 3 22 17 23 19 25 21 27 22 28 23 30
 SMILES IDX 24 31 25 32 26 33 27 34 37 35 28 36 36 37 29 38 30 39 35 40
 SMILES IDX 31 41 34 42 32 43 33 44
 H PARENT 10 11 13 15 7 17 4 20 17 24 19 26 21 29
 Flexibility Score: inf
  4 active torsions:
  status: ('A' for Active; 'I' for Inactive)
    1  A    between atoms: CA   and  CB  
    2  A    between atoms: CB   and  CG  
    3  A    between atoms: CG   and  CD  
    4  A    between atoms: CD   and  CE  

>  <TORSDO>
F 15

>  <BEGIN_>
RES LYS A 131

$$$$
ligand_40_pose_9_2HRL.pdbqt
 OpenBabel07062320523D

  6  5  0  0  0  0  0  0  0  0999 V2000
   33.1930   34.6630    9.2900 C   0  0  0  0  0  0  0  0  0  0  0  0
   32.0600   35.3600   10.0340 C   0  0  0  0  0  0  0  0  0  0  0  0
   30.7710   35.4150    9.2550 C   0  0  0  0  0  0  0  0  0  0  0  0
   30.0120   36.6960    9.5620 C   0  0  0  0  0  0  0  0  0  0  0  0
   30.3600   37.7760    8.5560 C   0  0  0  0  0  0  0  0  0  0  0  0
   31.2860   38.7810    9.1470 N   0  0  0  0  0  0  0  0  0  0  0  0
  1  2  1  0  0  0  0
  3  4  1  0  0  0  0
  3  2  1  0  0  0  0
  5  6  1  0  0  0  0
  5  4  1  0  0  0  0
M  END
>  <EGIN_R>
ES LYS A 135

>  <REMARK>
  4 active torsions:
  status: ('A' for Active; 'I' for Inactive)
    5  A    between atoms: CA   and  CB  
    6  A    between atoms: CB   and  CG  
    7  A    between atoms: CG   and  CD  
    8  A    between atoms: CD   and  CE  

$$$$
