ligand_45_pose_12_2HRL.pdbqt
 OpenBabel07062320523D

 52 52  0  0  1  0  0  0  0  0999 V2000
   27.0490   30.6040   17.5460 O   0  0  0  0  0  0  0  0  0  0  0  0
   28.3900   30.9060   17.6610 C   0  0  0  0  0  0  0  0  0  0  0  0
   29.2050   31.2050   16.5220 N   0  0  0  0  0  0  0  0  0  0  0  0
   28.7290   31.1910   15.6130 H   0  0  0  0  0  0  0  0  0  0  0  0
   28.9100   30.9160   18.8010 O   0  0  0  0  0  0  0  0  0  0  0  0
   30.5740   31.5050   16.7210 C   0  0  0  0  0  0  0  0  0  0  0  0
   31.2860   32.1810   15.5960 C   0  0  2  0  0  0  0  0  0  0  0  0
   31.7510   33.5780   15.8680 C   0  0  1  0  0  0  0  0  0  0  0  0
   31.1680   34.6270   14.9700 C   0  0  2  0  0  0  0  0  0  0  0  0
   31.7580   36.3650   13.5850 C   0  0  2  0  0  0  0  0  0  0  0  0
   30.2960   36.1940   13.2170 C   0  0  0  0  0  0  0  0  0  0  0  0
   32.1860   35.3970   14.4620 O   0  0  0  0  0  0  0  0  0  0  0  0
   29.4320   36.2600   14.4380 C   0  0  1  0  0  0  0  0  0  0  0  0
   30.1080   35.4820   15.5700 C   0  0  1  0  0  0  0  0  0  0  0  0
   31.8790   37.6170   14.2150 O   0  0  0  0  0  0  0  0  0  0  0  0
   32.3110   37.4360   15.0910 H   0  0  0  0  0  0  0  0  0  0  0  0
   32.5820   36.3720   12.3660 C   0  0  0  0  0  0  0  0  0  0  0  0
   32.4160   37.2660   11.4900 O   0  0  0  0  0  0  0  0  0  0  0  0
   33.5520   35.4170   12.1420 O   0  0  0  0  0  0  0  0  0  0  0  0
   34.4140   35.4200   12.6530 H   0  0  0  0  0  0  0  0  0  0  0  0
   29.2690   37.6040   14.8000 O   0  0  0  0  0  0  0  0  0  0  0  0
   30.1310   37.9710   15.0940 H   0  0  0  0  0  0  0  0  0  0  0  0
   29.0260   34.6820   16.1520 N   0  0  0  0  0  0  0  0  0  0  0  0
   28.1960   35.2230   17.1620 C   0  0  0  0  0  0  0  0  0  0  0  0
   28.8780   33.7050   15.8090 H   0  0  0  0  0  0  0  0  0  0  0  0
   27.0970   34.3920   17.7490 C   0  0  0  0  0  0  0  0  0  0  0  0
   28.3290   36.4030   17.6120 O   0  0  0  0  0  0  0  0  0  0  0  0
   31.4940   33.8870   17.2120 O   0  0  0  0  0  0  0  0  0  0  0  0
   32.3490   33.7620   17.7100 H   0  0  0  0  0  0  0  0  0  0  0  0
   30.4000   32.1750   14.4970 O   0  0  0  0  0  0  0  0  0  0  0  0
   30.4320   31.3350   13.9960 H   0  0  0  0  0  0  0  0  0  0  0  0
   26.6310   29.7070   16.5260 C   0  0  0  0  0  0  0  0  0  0  0  0
   25.7150   30.3990   15.5900 C   0  0  0  0  0  0  0  0  0  0  0  0
   25.7040   31.7120   15.1730 C   0  0  0  0  0  0  0  0  0  0  0  0
   24.6720   29.8310   14.9500 N   0  0  0  0  0  0  0  0  0  0  0  0
   24.6870   31.9140   14.3140 N   0  0  0  0  0  0  0  0  0  0  0  0
   24.0860   30.7480   14.2060 N   0  0  0  0  0  0  0  0  0  0  0  0
   24.2960   33.1100   13.6410 C   0  0  0  0  0  0  0  0  0  0  0  0
   25.4150   34.0310   13.3370 C   0  0  0  0  0  0  0  0  0  0  0  0
   25.6720   34.3930   11.9340 C   0  0  0  0  0  0  0  0  0  0  0  0
   25.1570   35.5800   11.3860 N   0  0  0  0  0  0  0  0  0  0  0  0
   24.7290   36.5950   12.3100 C   0  0  0  0  0  0  0  0  0  0  0  0
   26.2760   36.2010   10.6490 C   0  0  0  0  0  0  0  0  0  0  0  0
   27.1680   37.0380   11.4810 C   0  0  0  0  0  0  0  0  0  0  0  0
   24.1120   35.3760   10.4230 C   0  0  0  0  0  0  0  0  0  0  0  0
   24.3240   36.0390    9.1100 C   0  0  0  0  0  0  0  0  0  0  0  0
   29.8670   25.5550   16.9770 C   0  0  0  0  0  0  0  0  0  0  0  0
   28.3450   25.7220   17.0260 C   0  0  0  0  0  0  0  0  0  0  0  0
   27.6010   24.4020   16.8940 C   0  0  0  0  0  0  0  0  0  0  0  0
   26.4300   24.3150   17.8320 C   0  0  0  0  0  0  0  0  0  0  0  0
   26.0240   25.7190   18.2710 C   0  0  0  0  0  0  0  0  0  0  0  0
   25.9020   25.7870   19.7460 N   0  0  0  0  0  0  0  0  0  0  0  0
  1  2  1  0  0  0  0
  2  5  2  0  0  0  0
  3  6  1  0  0  0  0
  3  2  1  0  0  0  0
  4  3  1  0  0  0  0
  7  8  1  0  0  0  0
  7  6  1  1  0  0  0
  8 28  1  1  0  0  0
  9 14  1  0  0  0  0
  9  8  1  1  0  0  0
 10 17  1  6  0  0  0
 10 15  1  0  0  0  0
 10 12  1  0  0  0  0
 11 10  1  0  0  0  0
 11 13  1  0  0  0  0
 12  9  1  0  0  0  0
 13 21  1  1  0  0  0
 13 14  1  0  0  0  0
 14 23  1  6  0  0  0
 15 16  1  0  0  0  0
 18 17  2  0  0  0  0
 19 17  1  0  0  0  0
 19 20  1  0  0  0  0
 21 22  1  0  0  0  0
 23 24  1  0  0  0  0
 24 27  2  0  0  0  0
 24 26  1  0  0  0  0
 25 23  1  0  0  0  0
 28 29  1  0  0  0  0
 30  7  1  0  0  0  0
 31 30  1  0  0  0  0
 32  1  1  0  0  0  0
 33 32  1  0  0  0  0
 34 33  2  0  0  0  0
 35 33  1  0  0  0  0
 36 34  1  0  0  0  0
 37 36  1  0  0  0  0
 37 35  2  0  0  0  0
 38 36  1  0  0  0  0
 39 38  1  0  0  0  0
 40 39  1  0  0  0  0
 41 40  1  0  0  0  0
 41 42  1  0  0  0  0
 43 41  1  0  0  0  0
 43 44  1  0  0  0  0
 45 41  1  0  0  0  0
 46 45  1  0  0  0  0
 47 48  1  0  0  0  0
 49 48  1  0  0  0  0
 49 50  1  0  0  0  0
 50 51  1  0  0  0  0
 51 52  1  0  0  0  0
M  END
>  <REMARK>
 VINA RESULT:    -4.138      4.578      7.489
 INTER + INTRA:         -14.246
 INTER:                  -8.371
 INTRA:                  -5.875
 UNBOUND:                -5.875
 SMILES CC[N+](C)(CC)CCCn1cc(COC(=O)NC[C@@H](O)C(O)[C@@H]2O[C@@](O)(C(=O)O)C[C@H](O)[C@H]2NC(C)=O)nn1
 SMILES IDX 14 1 15 2 17 3 16 5 18 6 19 7 21 8 23 9 25 10 30 11 24 12
 SMILES IDX 31 13 33 14 26 15 27 17 28 18 29 19 32 21 34 23 35 24 36 26
 SMILES IDX 37 27 22 28 20 30 13 32 12 33 11 34 38 35 10 36 39 37 9 38
 SMILES IDX 8 39 7 40 3 41 4 42 2 43 1 44 5 45 6 46
 H PARENT 17 4 26 16 29 20 32 22 34 25 22 29 20 31
 Flexibility Score: inf
  4 active torsions:
  status: ('A' for Active; 'I' for Inactive)
    1  A    between atoms: CA   and  CB  
    2  A    between atoms: CB   and  CG  
    3  A    between atoms: CG   and  CD  
    4  A    between atoms: CD   and  CE  

>  <TORSDO>
F 20

>  <BEGIN_>
RES LYS A 131

$$$$
ligand_45_pose_12_2HRL.pdbqt
 OpenBabel07062320523D

  6  5  0  0  0  0  0  0  0  0999 V2000
   33.1930   34.6630    9.2900 C   0  0  0  0  0  0  0  0  0  0  0  0
   32.0600   35.3600   10.0340 C   0  0  0  0  0  0  0  0  0  0  0  0
   30.7020   34.7680    9.7550 C   0  0  0  0  0  0  0  0  0  0  0  0
   30.5740   34.3890    8.2880 C   0  0  0  0  0  0  0  0  0  0  0  0
   29.4600   35.1800    7.6290 C   0  0  0  0  0  0  0  0  0  0  0  0
   28.1230   34.6840    8.0590 N   0  0  0  0  0  0  0  0  0  0  0  0
  1  2  1  0  0  0  0
  3  2  1  0  0  0  0
  4  3  1  0  0  0  0
  5  6  1  0  0  0  0
  5  4  1  0  0  0  0
M  END
>  <EGIN_R>
ES LYS A 135

>  <REMARK>
  4 active torsions:
  status: ('A' for Active; 'I' for Inactive)
    5  A    between atoms: CA   and  CB  
    6  A    between atoms: CB   and  CG  
    7  A    between atoms: CG   and  CD  
    8  A    between atoms: CD   and  CE  

$$$$
