ligand_2_pose_18_2HRL.pdbqt
 OpenBabel07062320523D

 50 51  0  0  1  0  0  0  0  0999 V2000
   17.3450   33.7800    9.0760 C   0  0  0  0  0  0  0  0  0  0  0  0
   17.1960   33.1760    7.7150 C   0  0  2  0  0  0  0  0  0  0  0  0
   17.1800   31.6480    7.8780 C   0  0  2  0  0  0  0  0  0  0  0  0
   17.1750   30.9530    6.5190 C   0  0  2  0  0  0  0  0  0  0  0  0
   15.2740   31.4580    5.2380 C   0  0  2  0  0  0  0  0  0  0  0  0
   15.1570   30.0960    4.5900 C   0  0  0  0  0  0  0  0  0  0  0  0
   16.5140   31.8010    5.6540 O   0  0  0  0  0  0  0  0  0  0  0  0
   16.2250   29.2110    5.1260 C   0  0  1  0  0  0  0  0  0  0  0  0
   16.5280   29.6290    6.5520 C   0  0  1  0  0  0  0  0  0  0  0  0
   14.2950   31.5040    6.2270 O   0  0  0  0  0  0  0  0  0  0  0  0
   14.1020   32.4640    6.3800 H   0  0  0  0  0  0  0  0  0  0  0  0
   14.8740   32.4340    4.1910 C   0  0  0  0  0  0  0  0  0  0  0  0
   14.3900   31.9890    3.1260 O   0  0  0  0  0  0  0  0  0  0  0  0
   15.0200   33.7830    4.3610 O   0  0  0  0  0  0  0  0  0  0  0  0
   14.3320   34.3000    4.9160 H   0  0  0  0  0  0  0  0  0  0  0  0
   15.9240   27.8580    5.0310 O   0  0  0  0  0  0  0  0  0  0  0  0
   15.3690   27.5700    5.7840 H   0  0  0  0  0  0  0  0  0  0  0  0
   17.2310   28.5600    7.1720 N   0  0  0  0  0  0  0  0  0  0  0  0
   16.7980   27.9290    8.3620 C   0  0  0  0  0  0  0  0  0  0  0  0
   18.1150   28.2530    6.6860 H   0  0  0  0  0  0  0  0  0  0  0  0
   17.5550   26.8200    8.9770 C   0  0  0  0  0  0  0  0  0  0  0  0
   15.7260   28.3910    8.8420 O   0  0  0  0  0  0  0  0  0  0  0  0
   16.0510   31.2650    8.6110 O   0  0  0  0  0  0  0  0  0  0  0  0
   15.5650   30.5130    8.1690 H   0  0  0  0  0  0  0  0  0  0  0  0
   18.1760   33.5710    6.8340 O   0  0  0  0  0  0  0  0  0  0  0  0
   17.9500   33.5480    5.8880 H   0  0  0  0  0  0  0  0  0  0  0  0
   18.6220   34.3270    9.3910 N   0  0  0  0  0  0  0  0  0  0  0  0
   19.0830   35.6040    8.9870 C   0  0  0  0  0  0  0  0  0  0  0  0
   19.2950   33.7510    9.9700 H   0  0  0  0  0  0  0  0  0  0  0  0
   18.3780   36.3720    8.3110 O   0  0  0  0  0  0  0  0  0  0  0  0
   20.3740   36.0360    9.3510 O   0  0  0  0  0  0  0  0  0  0  0  0
   20.8460   35.8680   10.6850 C   0  0  0  0  0  0  0  0  0  0  0  0
   22.3150   35.6810   10.5980 C   0  0  0  0  0  0  0  0  0  0  0  0
   23.0810   35.8520    9.4820 C   0  0  0  0  0  0  0  0  0  0  0  0
   23.1270   35.3200   11.5800 N   0  0  0  0  0  0  0  0  0  0  0  0
   24.3560   35.5830    9.8340 N   0  0  0  0  0  0  0  0  0  0  0  0
   24.3680   35.2600   11.1140 N   0  0  0  0  0  0  0  0  0  0  0  0
   25.4520   35.6560    8.9160 C   0  0  0  0  0  0  0  0  0  0  0  0
   25.6190   36.7860    8.1530 C   0  0  0  0  0  0  0  0  0  0  0  0
   26.2980   34.5790    8.8420 C   0  0  0  0  0  0  0  0  0  0  0  0
   26.6900   36.8150    7.2800 C   0  0  0  0  0  0  0  0  0  0  0  0
   27.3590   34.6400    7.9600 C   0  0  0  0  0  0  0  0  0  0  0  0
   27.5680   35.7460    7.1750 C   0  0  0  0  0  0  0  0  0  0  0  0
   28.9250   35.7610    6.0820 Cl  0  0  0  0  0  0  0  0  0  0  0  0
   29.8670   25.5550   16.9770 C   0  0  0  0  0  0  0  0  0  0  0  0
   28.3450   25.7220   17.0260 C   0  0  0  0  0  0  0  0  0  0  0  0
   27.5990   24.4780   16.5690 C   0  0  0  0  0  0  0  0  0  0  0  0
   27.0240   23.7060   17.7240 C   0  0  0  0  0  0  0  0  0  0  0  0
   25.6840   24.3130   18.1260 C   0  0  0  0  0  0  0  0  0  0  0  0
   24.7640   24.3530   16.9650 N   0  0  0  0  0  0  0  0  0  0  0  0
  1 27  1  0  0  0  0
  2  3  1  0  0  0  0
  2  1  1  1  0  0  0
  3 23  1  6  0  0  0
  4  9  1  0  0  0  0
  4  3  1  1  0  0  0
  5 12  1  6  0  0  0
  5  7  1  0  0  0  0
  5 10  1  0  0  0  0
  6  8  1  0  0  0  0
  6  5  1  0  0  0  0
  7  4  1  0  0  0  0
  8 16  1  1  0  0  0
  8  9  1  0  0  0  0
  9 18  1  6  0  0  0
 10 11  1  0  0  0  0
 12 14  1  0  0  0  0
 13 12  2  0  0  0  0
 14 15  1  0  0  0  0
 16 17  1  0  0  0  0
 18 19  1  0  0  0  0
 19 22  2  0  0  0  0
 19 21  1  0  0  0  0
 20 18  1  0  0  0  0
 24 23  1  0  0  0  0
 25  2  1  0  0  0  0
 26 25  1  0  0  0  0
 27 29  1  0  0  0  0
 28 31  1  0  0  0  0
 28 27  1  0  0  0  0
 30 28  2  0  0  0  0
 31 32  1  0  0  0  0
 33 32  1  0  0  0  0
 33 35  1  0  0  0  0
 34 36  1  0  0  0  0
 34 33  2  0  0  0  0
 36 37  1  0  0  0  0
 37 35  2  0  0  0  0
 38 36  1  0  0  0  0
 39 38  2  0  0  0  0
 40 38  1  0  0  0  0
 41 39  1  0  0  0  0
 42 40  2  0  0  0  0
 43 41  2  0  0  0  0
 43 42  1  0  0  0  0
 44 43  1  0  0  0  0
 45 46  1  0  0  0  0
 47 46  1  0  0  0  0
 47 48  1  0  0  0  0
 48 49  1  0  0  0  0
 50 49  1  0  0  0  0
M  END
>  <REMARK>
 VINA RESULT:    -3.992     11.220     17.532
 INTER + INTRA:         -13.917
 INTER:                  -9.661
 INTRA:                  -4.256
 UNBOUND:                -7.007
 SMILES CC(=O)N[C@@H]1[C@@H](O)C[C@](O)(C(=O)O)O[C@H]1C(O)[C@H](O)CNC(=O)OCc1cn(-c2ccc(Cl)cc2)nn1
 SMILES IDX 20 1 18 2 16 3 15 4 9 5 8 6 14 7 6 8 5 9 10 10 11 12 12 13
 SMILES IDX 13 14 7 16 4 18 2 19 1 21 3 22 17 23 19 25 21 27 22 28 23 30
 SMILES IDX 24 31 25 32 26 33 27 34 37 35 28 36 36 37 29 38 30 39 35 40
 SMILES IDX 31 41 34 42 32 43 33 44
 H PARENT 10 11 13 15 7 17 4 20 17 24 19 26 21 29
 Flexibility Score: inf
  4 active torsions:
  status: ('A' for Active; 'I' for Inactive)
    1  A    between atoms: CA   and  CB  
    2  A    between atoms: CB   and  CG  
    3  A    between atoms: CG   and  CD  
    4  A    between atoms: CD   and  CE  

>  <TORSDO>
F 15

>  <BEGIN_>
RES LYS A 131

$$$$
ligand_2_pose_18_2HRL.pdbqt
 OpenBabel07062320523D

  6  5  0  0  0  0  0  0  0  0999 V2000
   33.1930   34.6630    9.2900 C   0  0  0  0  0  0  0  0  0  0  0  0
   32.0600   35.3600   10.0340 C   0  0  0  0  0  0  0  0  0  0  0  0
   30.6890   34.9080    9.6030 C   0  0  0  0  0  0  0  0  0  0  0  0
   29.6450   35.2960   10.6400 C   0  0  0  0  0  0  0  0  0  0  0  0
   30.2340   35.2350   12.0360 C   0  0  0  0  0  0  0  0  0  0  0  0
   29.3430   34.4820   12.9610 N   0  0  0  0  0  0  0  0  0  0  0  0
  1  2  1  0  0  0  0
  3  2  1  0  0  0  0
  3  4  1  0  0  0  0
  4  5  1  0  0  0  0
  5  6  1  0  0  0  0
M  END
>  <EGIN_R>
ES LYS A 135

>  <REMARK>
  4 active torsions:
  status: ('A' for Active; 'I' for Inactive)
    5  A    between atoms: CA   and  CB  
    6  A    between atoms: CB   and  CG  
    7  A    between atoms: CG   and  CD  
    8  A    between atoms: CD   and  CE  

$$$$
