ligand_29_pose_16_2HRL.pdbqt
 OpenBabel07062320523D

 54 55  0  0  1  0  0  0  0  0999 V2000
   28.2270   30.6740   19.1060 N   0  0  0  0  0  0  0  0  0  0  0  0
   28.0910   29.3400   19.5140 C   0  0  0  0  0  0  0  0  0  0  0  0
   29.0310   28.7280   20.0650 O   0  0  0  0  0  0  0  0  0  0  0  0
   27.3810   31.1190   18.6360 H   0  0  0  0  0  0  0  0  0  0  0  0
   29.4120   31.4980   19.2680 C   0  0  0  0  0  0  0  0  0  0  0  0
   30.0430   31.7830   17.9530 C   0  0  2  0  0  0  0  0  0  0  0  0
   29.4140   32.9240   17.1920 C   0  0  2  0  0  0  0  0  0  0  0  0
   30.2320   34.1710   17.1460 C   0  0  2  0  0  0  0  0  0  0  0  0
   31.4490   34.0690   15.1580 C   0  0  2  0  0  0  0  0  0  0  0  0
   32.6420   34.8550   15.6840 C   0  0  0  0  0  0  0  0  0  0  0  0
   30.3380   34.5550   15.7930 O   0  0  0  0  0  0  0  0  0  0  0  0
   32.3490   35.3160   17.0820 C   0  0  1  0  0  0  0  0  0  0  0  0
   31.5160   34.2280   17.8550 C   0  0  1  0  0  0  0  0  0  0  0  0
   31.6510   32.6990   15.2860 O   0  0  0  0  0  0  0  0  0  0  0  0
   31.7220   32.2400   14.4100 H   0  0  0  0  0  0  0  0  0  0  0  0
   31.2960   34.3400   13.6990 C   0  0  0  0  0  0  0  0  0  0  0  0
   30.1520   34.2840   13.1900 O   0  0  0  0  0  0  0  0  0  0  0  0
   32.3710   34.6500   12.8800 O   0  0  0  0  0  0  0  0  0  0  0  0
   33.2880   34.9190   13.2590 H   0  0  0  0  0  0  0  0  0  0  0  0
   33.5070   35.5740   17.8080 O   0  0  0  0  0  0  0  0  0  0  0  0
   33.5610   35.0130   18.6100 H   0  0  0  0  0  0  0  0  0  0  0  0
   31.3790   34.8360   19.1860 N   0  0  0  0  0  0  0  0  0  0  0  0
   31.7680   34.2000   20.3900 C   0  0  0  0  0  0  0  0  0  0  0  0
   30.9690   35.8100   19.2880 H   0  0  0  0  0  0  0  0  0  0  0  0
   31.6140   34.8390   21.7220 C   0  0  0  0  0  0  0  0  0  0  0  0
   32.2650   33.0480   20.3480 O   0  0  0  0  0  0  0  0  0  0  0  0
   28.2180   33.2990   17.9280 O   0  0  0  0  0  0  0  0  0  0  0  0
   28.4360   34.1270   18.4200 H   0  0  0  0  0  0  0  0  0  0  0  0
   30.3770   30.6950   17.1900 O   0  0  0  0  0  0  0  0  0  0  0  0
   30.1310   30.7720   16.2480 H   0  0  0  0  0  0  0  0  0  0  0  0
   26.8810   28.6410   19.3160 O   0  0  0  0  0  0  0  0  0  0  0  0
   26.6070   28.1490   17.9940 C   0  0  0  0  0  0  0  0  0  0  0  0
   26.7610   29.1990   16.9900 C   0  0  0  0  0  0  0  0  0  0  0  0
   25.8280   30.1430   16.6430 C   0  0  0  0  0  0  0  0  0  0  0  0
   27.8540   29.4200   16.2440 N   0  0  0  0  0  0  0  0  0  0  0  0
   26.3640   30.9120   15.7000 N   0  0  0  0  0  0  0  0  0  0  0  0
   27.5810   30.4640   15.4720 N   0  0  0  0  0  0  0  0  0  0  0  0
   25.7410   32.0420   15.0220 C   0  0  0  0  0  0  0  0  0  0  0  0
   24.5660   31.5330   14.2490 C   0  0  0  0  0  0  0  0  0  0  0  0
   23.3640   32.2380   14.2920 C   0  0  0  0  0  0  0  0  0  0  0  0
   24.6200   30.3900   13.4800 C   0  0  0  0  0  0  0  0  0  0  0  0
   22.2640   31.8100   13.5910 C   0  0  0  0  0  0  0  0  0  0  0  0
   23.5310   29.9330   12.7640 C   0  0  0  0  0  0  0  0  0  0  0  0
   22.3640   30.6580   12.8320 C   0  0  0  0  0  0  0  0  0  0  0  0
   21.0570   32.5030   13.6260 O   0  0  0  0  0  0  0  0  0  0  0  0
   20.1740   32.2620   14.7080 C   0  0  0  0  0  0  0  0  0  0  0  0
   21.2480   30.2330   12.1280 O   0  0  0  0  0  0  0  0  0  0  0  0
   20.8680   28.8710   12.0750 C   0  0  0  0  0  0  0  0  0  0  0  0
   29.8670   25.5550   16.9770 C   0  0  0  0  0  0  0  0  0  0  0  0
   28.3450   25.7220   17.0260 C   0  0  0  0  0  0  0  0  0  0  0  0
   27.6010   24.4030   16.8870 C   0  0  0  0  0  0  0  0  0  0  0  0
   26.1600   24.5190   17.3010 C   0  0  0  0  0  0  0  0  0  0  0  0
   25.8150   23.3900   18.2670 C   0  0  0  0  0  0  0  0  0  0  0  0
   24.9790   22.3680   17.5940 N   0  0  0  0  0  0  0  0  0  0  0  0
  1  5  1  0  0  0  0
  1  2  1  0  0  0  0
  2  3  2  0  0  0  0
  4  1  1  0  0  0  0
  6  5  1  1  0  0  0
  7 27  1  1  0  0  0
  7  6  1  0  0  0  0
  8  7  1  6  0  0  0
  8 13  1  0  0  0  0
  9 16  1  6  0  0  0
  9 14  1  0  0  0  0
  9 10  1  0  0  0  0
  9 11  1  0  0  0  0
 10 12  1  0  0  0  0
 11  8  1  0  0  0  0
 12 20  1  1  0  0  0
 12 13  1  0  0  0  0
 13 22  1  1  0  0  0
 15 14  1  0  0  0  0
 17 16  2  0  0  0  0
 18 19  1  0  0  0  0
 18 16  1  0  0  0  0
 20 21  1  0  0  0  0
 22 24  1  0  0  0  0
 22 23  1  0  0  0  0
 23 25  1  0  0  0  0
 26 23  2  0  0  0  0
 27 28  1  0  0  0  0
 29  6  1  0  0  0  0
 30 29  1  0  0  0  0
 31  2  1  0  0  0  0
 32 31  1  0  0  0  0
 33 32  1  0  0  0  0
 34 33  2  0  0  0  0
 35 33  1  0  0  0  0
 36 34  1  0  0  0  0
 37 36  1  0  0  0  0
 37 35  2  0  0  0  0
 38 36  1  0  0  0  0
 39 40  1  0  0  0  0
 39 38  1  0  0  0  0
 41 39  2  0  0  0  0
 42 45  1  0  0  0  0
 42 40  2  0  0  0  0
 43 44  2  0  0  0  0
 43 41  1  0  0  0  0
 44 42  1  0  0  0  0
 45 46  1  0  0  0  0
 47 44  1  0  0  0  0
 48 47  1  0  0  0  0
 49 50  1  0  0  0  0
 51 50  1  0  0  0  0
 51 52  1  0  0  0  0
 52 53  1  0  0  0  0
 54 53  1  0  0  0  0
M  END
>  <REMARK>
 VINA RESULT:    -4.894      2.431      5.994
 INTER + INTRA:         -14.447
 INTER:                  -8.764
 INTRA:                  -5.683
 UNBOUND:                -5.118
 SMILES COc1ccc(Cn2cc(COC(=O)NC[C@@H](O)C(O)[C@@H]3O[C@@](O)(C(=O)O)C[C@H](O)[C@H]3NC(C)=O)nn2)cc1OC
 SMILES IDX 15 1 13 2 14 3 16 5 17 6 19 7 21 8 23 9 28 10 22 11 29 12
 SMILES IDX 31 13 24 14 25 16 26 17 27 18 30 20 32 22 33 23 34 25 35 26
 SMILES IDX 20 27 18 29 12 31 11 32 10 33 9 34 36 35 8 36 37 37 7 38
 SMILES IDX 6 39 38 40 5 41 39 42 4 43 3 44 40 45 41 46 2 47 1 48
 H PARENT 15 4 24 15 27 19 30 21 32 24 20 28 18 30
 Flexibility Score: inf
  4 active torsions:
  status: ('A' for Active; 'I' for Inactive)
    1  A    between atoms: CA   and  CB  
    2  A    between atoms: CB   and  CG  
    3  A    between atoms: CG   and  CD  
    4  A    between atoms: CD   and  CE  

>  <TORSDO>
F 18

>  <BEGIN_>
RES LYS A 131

$$$$
ligand_29_pose_16_2HRL.pdbqt
 OpenBabel07062320523D

  6  5  0  0  0  0  0  0  0  0999 V2000
   33.1930   34.6630    9.2900 C   0  0  0  0  0  0  0  0  0  0  0  0
   32.0600   35.3600   10.0340 C   0  0  0  0  0  0  0  0  0  0  0  0
   30.7040   34.7620    9.7630 C   0  0  0  0  0  0  0  0  0  0  0  0
   30.5130   34.5170    8.2740 C   0  0  0  0  0  0  0  0  0  0  0  0
   29.1210   34.9340    7.8390 C   0  0  0  0  0  0  0  0  0  0  0  0
   28.0820   34.3430    8.7270 N   0  0  0  0  0  0  0  0  0  0  0  0
  1  2  1  0  0  0  0
  3  2  1  0  0  0  0
  4  3  1  0  0  0  0
  5  4  1  0  0  0  0
  5  6  1  0  0  0  0
M  END
>  <EGIN_R>
ES LYS A 135

>  <REMARK>
  4 active torsions:
  status: ('A' for Active; 'I' for Inactive)
    5  A    between atoms: CA   and  CB  
    6  A    between atoms: CB   and  CG  
    7  A    between atoms: CG   and  CD  
    8  A    between atoms: CD   and  CE  

$$$$
