ligand_13_pose_12_2HRL.pdbqt
 OpenBabel07062320523D

 49 49  0  0  1  0  0  0  0  0999 V2000
   25.4550   39.6380    6.3930 N   0  0  0  0  0  0  0  0  0  0  0  0
   25.4920   40.8190    5.6190 C   0  0  0  0  0  0  0  0  0  0  0  0
   24.5940   41.6670    5.6550 O   0  0  0  0  0  0  0  0  0  0  0  0
   26.3120   39.0080    6.2530 H   0  0  0  0  0  0  0  0  0  0  0  0
   24.4190   39.2440    7.2920 C   0  0  0  0  0  0  0  0  0  0  0  0
   24.5400   37.9000    7.9230 C   0  0  2  0  0  0  0  0  0  0  0  0
   25.0990   37.9150    9.3010 C   0  0  1  0  0  0  0  0  0  0  0  0
   26.5730   37.6380    9.4200 C   0  0  2  0  0  0  0  0  0  0  0  0
   27.0700   36.5140   11.4090 C   0  0  2  0  0  0  0  0  0  0  0  0
   28.5110   36.9730   11.4690 C   0  0  0  0  0  0  0  0  0  0  0  0
   26.6820   36.4320   10.1090 O   0  0  0  0  0  0  0  0  0  0  0  0
   28.6830   38.1760   10.6160 C   0  0  1  0  0  0  0  0  0  0  0  0
   27.3550   38.7370   10.0820 C   0  0  1  0  0  0  0  0  0  0  0  0
   26.3430   37.3700   12.2160 O   0  0  0  0  0  0  0  0  0  0  0  0
   25.6150   37.7510   11.6730 H   0  0  0  0  0  0  0  0  0  0  0  0
   27.0390   35.1530   11.9930 C   0  0  0  0  0  0  0  0  0  0  0  0
   28.0850   34.6960   12.5000 O   0  0  0  0  0  0  0  0  0  0  0  0
   25.8990   34.3910   11.9890 O   0  0  0  0  0  0  0  0  0  0  0  0
   25.0680   34.6580   11.4600 H   0  0  0  0  0  0  0  0  0  0  0  0
   29.3790   39.2080   11.2390 O   0  0  0  0  0  0  0  0  0  0  0  0
   30.0890   39.5960   10.6900 H   0  0  0  0  0  0  0  0  0  0  0  0
   27.7630   39.7510    9.1330 N   0  0  0  0  0  0  0  0  0  0  0  0
   27.2860   41.0730    9.0980 C   0  0  0  0  0  0  0  0  0  0  0  0
   28.4700   39.4720    8.4180 H   0  0  0  0  0  0  0  0  0  0  0  0
   27.7190   42.0960    8.1160 C   0  0  0  0  0  0  0  0  0  0  0  0
   26.4260   41.3980    9.9750 O   0  0  0  0  0  0  0  0  0  0  0  0
   24.7100   39.0380    9.9910 O   0  0  0  0  0  0  0  0  0  0  0  0
   24.0590   39.6100    9.5110 H   0  0  0  0  0  0  0  0  0  0  0  0
   25.4370   37.1370    7.1470 O   0  0  0  0  0  0  0  0  0  0  0  0
   25.0090   36.8780    6.2790 H   0  0  0  0  0  0  0  0  0  0  0  0
   26.5820   41.0810    4.7560 O   0  0  0  0  0  0  0  0  0  0  0  0
   27.3440   40.0250    4.2050 C   0  0  0  0  0  0  0  0  0  0  0  0
   28.3530   39.6450    5.2300 C   0  0  0  0  0  0  0  0  0  0  0  0
   29.5880   40.2070    5.4540 C   0  0  0  0  0  0  0  0  0  0  0  0
   28.2510   38.6550    6.1590 N   0  0  0  0  0  0  0  0  0  0  0  0
   30.1620   39.5370    6.4920 N   0  0  0  0  0  0  0  0  0  0  0  0
   29.3230   38.6000    6.8970 N   0  0  0  0  0  0  0  0  0  0  0  0
   31.4590   39.7710    7.0840 C   0  0  0  0  0  0  0  0  0  0  0  0
   31.3770   39.7670    8.5520 C   0  0  0  0  0  0  0  0  0  0  0  0
   31.8830   38.8190    9.1900 O   0  0  0  0  0  0  0  0  0  0  0  0
   30.7310   40.8300    9.1850 O   0  0  0  0  0  0  0  0  0  0  0  0
   31.5640   41.9410    9.5320 C   0  0  0  0  0  0  0  0  0  0  0  0
   31.8390   41.8660   11.0120 C   0  0  0  0  0  0  0  0  0  0  0  0
   29.8670   25.5550   16.9770 C   0  0  0  0  0  0  0  0  0  0  0  0
   28.3450   25.7220   17.0260 C   0  0  0  0  0  0  0  0  0  0  0  0
   27.6010   24.4020   16.8920 C   0  0  0  0  0  0  0  0  0  0  0  0
   26.1480   24.5310   17.2580 C   0  0  0  0  0  0  0  0  0  0  0  0
   25.5800   23.1520   17.5780 C   0  0  0  0  0  0  0  0  0  0  0  0
   24.4440   23.2660   18.5230 N   0  0  0  0  0  0  0  0  0  0  0  0
  1  5  1  0  0  0  0
  2  3  2  0  0  0  0
  2  1  1  0  0  0  0
  4  1  1  0  0  0  0
  6  5  1  6  0  0  0
  6  7  1  0  0  0  0
  7 27  1  6  0  0  0
  8  7  1  1  0  0  0
  8 13  1  0  0  0  0
  8 11  1  0  0  0  0
  9 10  1  0  0  0  0
  9 16  1  1  0  0  0
  9 14  1  0  0  0  0
 11  9  1  0  0  0  0
 12 20  1  1  0  0  0
 12 10  1  0  0  0  0
 13 22  1  6  0  0  0
 13 12  1  0  0  0  0
 15 14  1  0  0  0  0
 16 17  2  0  0  0  0
 18 16  1  0  0  0  0
 19 18  1  0  0  0  0
 21 20  1  0  0  0  0
 23 22  1  0  0  0  0
 23 26  2  0  0  0  0
 24 22  1  0  0  0  0
 25 23  1  0  0  0  0
 28 27  1  0  0  0  0
 29  6  1  0  0  0  0
 30 29  1  0  0  0  0
 31  2  1  0  0  0  0
 32 31  1  0  0  0  0
 32 33  1  0  0  0  0
 33 34  2  0  0  0  0
 33 35  1  0  0  0  0
 34 36  1  0  0  0  0
 35 37  2  0  0  0  0
 36 37  1  0  0  0  0
 36 38  1  0  0  0  0
 38 39  1  0  0  0  0
 39 41  1  0  0  0  0
 39 40  2  0  0  0  0
 41 42  1  0  0  0  0
 42 43  1  0  0  0  0
 44 45  1  0  0  0  0
 46 45  1  0  0  0  0
 46 47  1  0  0  0  0
 47 48  1  0  0  0  0
 48 49  1  0  0  0  0
M  END
>  <REMARK>
 VINA RESULT:    -4.112      6.909     13.417
 INTER + INTRA:         -13.787
 INTER:                  -6.199
 INTRA:                  -7.588
 UNBOUND:                -5.949
 SMILES CCOC(=O)Cn1cc(COC(=O)NC[C@@H](O)C(O)[C@@H]2O[C@@](O)(C(=O)O)C[C@H](O)[C@H]2NC(C)=O)nn1
 SMILES IDX 14 1 12 2 13 3 15 5 16 6 18 7 20 8 22 9 27 10 21 11 28 12
 SMILES IDX 30 13 23 14 24 16 25 17 26 18 29 20 31 22 32 23 33 25 34 26
 SMILES IDX 19 27 17 29 11 31 10 32 9 33 8 34 35 35 7 36 36 37 6 38 4 39
 SMILES IDX 5 40 3 41 2 42 1 43
 H PARENT 14 4 23 15 26 19 29 21 31 24 19 28 17 30
 Flexibility Score: inf
  4 active torsions:
  status: ('A' for Active; 'I' for Inactive)
    1  A    between atoms: CA   and  CB  
    2  A    between atoms: CB   and  CG  
    3  A    between atoms: CG   and  CD  
    4  A    between atoms: CD   and  CE  

>  <TORSDO>
F 18

>  <BEGIN_>
RES LYS A 131

$$$$
ligand_13_pose_12_2HRL.pdbqt
 OpenBabel07062320523D

  6  5  0  0  0  0  0  0  0  0999 V2000
   33.1930   34.6630    9.2900 C   0  0  0  0  0  0  0  0  0  0  0  0
   32.0600   35.3600   10.0340 C   0  0  0  0  0  0  0  0  0  0  0  0
   30.7780   35.4340    9.2460 C   0  0  0  0  0  0  0  0  0  0  0  0
   29.9850   34.1440    9.3890 C   0  0  0  0  0  0  0  0  0  0  0  0
   28.6660   34.2440    8.6460 C   0  0  0  0  0  0  0  0  0  0  0  0
   28.7430   35.2490    7.5490 N   0  0  0  0  0  0  0  0  0  0  0  0
  1  2  1  0  0  0  0
  3  4  1  0  0  0  0
  3  2  1  0  0  0  0
  5  4  1  0  0  0  0
  6  5  1  0  0  0  0
M  END
>  <EGIN_R>
ES LYS A 135

>  <REMARK>
  4 active torsions:
  status: ('A' for Active; 'I' for Inactive)
    5  A    between atoms: CA   and  CB  
    6  A    between atoms: CB   and  CG  
    7  A    between atoms: CG   and  CD  
    8  A    between atoms: CD   and  CE  

$$$$
