ligand_1_pose_18_2HRL.pdbqt
 OpenBabel07062320523D

 47 47  0  0  1  0  0  0  0  0999 V2000
   31.2420   35.0920   15.4050 N   0  0  0  0  0  0  0  0  0  0  0  0
   30.2060   35.2970   14.4880 C   0  0  0  0  0  0  0  0  0  0  0  0
   29.7450   34.3510   13.8560 O   0  0  0  0  0  0  0  0  0  0  0  0
   31.5780   35.9830   15.9040 H   0  0  0  0  0  0  0  0  0  0  0  0
   31.9070   33.9000   15.7670 C   0  0  0  0  0  0  0  0  0  0  0  0
   31.3020   33.0660   16.8520 C   0  0  2  0  0  0  0  0  0  0  0  0
   30.7390   31.7770   16.3350 C   0  0  1  0  0  0  0  0  0  0  0  0
   29.3250   31.4640   16.5830 C   0  0  2  0  0  0  0  0  0  0  0  0
   27.1340   32.1400   16.3450 C   0  0  2  0  0  0  0  0  0  0  0  0
   26.8800   30.6610   16.5440 C   0  0  0  0  0  0  0  0  0  0  0  0
   28.4780   32.4470   16.1360 O   0  0  0  0  0  0  0  0  0  0  0  0
   27.6520   30.1490   17.7520 C   0  0  1  0  0  0  0  0  0  0  0  0
   28.9140   31.0140   17.9430 C   0  0  1  0  0  0  0  0  0  0  0  0
   26.7330   32.8600   17.4660 O   0  0  0  0  0  0  0  0  0  0  0  0
   25.9430   33.4220   17.2970 H   0  0  0  0  0  0  0  0  0  0  0  0
   26.4060   32.6520   15.1620 C   0  0  0  0  0  0  0  0  0  0  0  0
   25.3800   32.0940   14.6970 O   0  0  0  0  0  0  0  0  0  0  0  0
   26.8650   33.7950   14.5330 O   0  0  0  0  0  0  0  0  0  0  0  0
   26.9990   34.6590   15.0790 H   0  0  0  0  0  0  0  0  0  0  0  0
   26.8380   30.2170   18.8740 O   0  0  0  0  0  0  0  0  0  0  0  0
   27.1320   29.4940   19.4880 H   0  0  0  0  0  0  0  0  0  0  0  0
   29.9090   30.2250   18.6400 N   0  0  0  0  0  0  0  0  0  0  0  0
   30.5320   30.7760   19.7900 C   0  0  0  0  0  0  0  0  0  0  0  0
   30.1790   29.2630   18.3200 H   0  0  0  0  0  0  0  0  0  0  0  0
   31.5650   30.0400   20.5680 C   0  0  0  0  0  0  0  0  0  0  0  0
   30.2100   31.9230   20.1740 O   0  0  0  0  0  0  0  0  0  0  0  0
   30.9760   31.8620   14.9120 O   0  0  0  0  0  0  0  0  0  0  0  0
   31.3150   32.7510   14.7130 H   0  0  0  0  0  0  0  0  0  0  0  0
   30.4340   33.7750   17.6140 O   0  0  0  0  0  0  0  0  0  0  0  0
   29.9400   33.2720   18.2900 H   0  0  0  0  0  0  0  0  0  0  0  0
   29.6700   36.5640   14.2640 O   0  0  0  0  0  0  0  0  0  0  0  0
   28.4410   36.9630   14.8320 C   0  0  0  0  0  0  0  0  0  0  0  0
   28.4340   36.6350   16.2780 C   0  0  0  0  0  0  0  0  0  0  0  0
   29.0470   37.3260   17.2930 C   0  0  0  0  0  0  0  0  0  0  0  0
   27.8230   35.6010   16.8380 N   0  0  0  0  0  0  0  0  0  0  0  0
   28.7630   36.6550   18.4230 N   0  0  0  0  0  0  0  0  0  0  0  0
   28.0150   35.5980   18.1540 N   0  0  0  0  0  0  0  0  0  0  0  0
   29.2220   37.0490   19.7400 C   0  0  0  0  0  0  0  0  0  0  0  0
   29.1630   35.8320   20.6600 C   0  0  0  0  0  0  0  0  0  0  0  0
   30.1150   34.8900   20.2180 O   0  0  0  0  0  0  0  0  0  0  0  0
   30.7610   34.6880   20.9610 H   0  0  0  0  0  0  0  0  0  0  0  0
   29.8670   25.5550   16.9770 C   0  0  0  0  0  0  0  0  0  0  0  0
   28.3450   25.7220   17.0260 C   0  0  0  0  0  0  0  0  0  0  0  0
   27.6010   24.4010   16.9070 C   0  0  0  0  0  0  0  0  0  0  0  0
   26.6480   24.1820   18.0490 C   0  0  0  0  0  0  0  0  0  0  0  0
   26.3860   25.5080   18.7540 C   0  0  0  0  0  0  0  0  0  0  0  0
   25.5560   25.2980   19.9630 N   0  0  0  0  0  0  0  0  0  0  0  0
  1  5  1  0  0  0  0
  1  4  1  0  0  0  0
  2  1  1  0  0  0  0
  3  2  2  0  0  0  0
  6  5  1  6  0  0  0
  6 29  1  0  0  0  0
  7 27  1  6  0  0  0
  7  6  1  0  0  0  0
  8  7  1  1  0  0  0
  8 13  1  0  0  0  0
  9 16  1  6  0  0  0
  9 10  1  0  0  0  0
  9 14  1  0  0  0  0
 10 12  1  0  0  0  0
 11  9  1  0  0  0  0
 11  8  1  0  0  0  0
 12 13  1  0  0  0  0
 12 20  1  1  0  0  0
 13 22  1  6  0  0  0
 15 14  1  0  0  0  0
 17 16  2  0  0  0  0
 18 19  1  0  0  0  0
 18 16  1  0  0  0  0
 20 21  1  0  0  0  0
 22 23  1  0  0  0  0
 23 26  2  0  0  0  0
 23 25  1  0  0  0  0
 24 22  1  0  0  0  0
 28 27  1  0  0  0  0
 29 30  1  0  0  0  0
 31  2  1  0  0  0  0
 31 32  1  0  0  0  0
 32 33  1  0  0  0  0
 33 35  1  0  0  0  0
 33 34  2  0  0  0  0
 34 36  1  0  0  0  0
 35 37  2  0  0  0  0
 36 38  1  0  0  0  0
 37 36  1  0  0  0  0
 38 39  1  0  0  0  0
 40 39  1  0  0  0  0
 40 41  1  0  0  0  0
 42 43  1  0  0  0  0
 44 43  1  0  0  0  0
 44 45  1  0  0  0  0
 45 46  1  0  0  0  0
 46 47  1  0  0  0  0
M  END
>  <REMARK>
 VINA RESULT:    -3.087      6.580     11.052
 INTER + INTRA:         -13.185
 INTER:                  -5.613
 INTRA:                  -7.572
 UNBOUND:                -7.572
 SMILES CC(=O)N[C@@H]1[C@@H](O)C[C@](O)(C(=O)O)O[C@H]1C(O)[C@H](O)CNC(=O)OCc1cn(CCO)nn1
 SMILES IDX 21 1 22 2 23 3 20 5 18 6 16 7 15 8 9 9 8 10 14 11 6 12 5 13
 SMILES IDX 10 14 11 16 12 17 13 18 7 20 4 22 2 23 1 25 3 26 17 27 19 29
 SMILES IDX 24 31 25 32 26 33 27 34 33 35 28 36 32 37 29 38 30 39 31 40
 H PARENT 21 4 10 15 13 19 7 21 4 24 17 28 19 30 31 41
 Flexibility Score: inf
  4 active torsions:
  status: ('A' for Active; 'I' for Inactive)
    1  A    between atoms: CA   and  CB  
    2  A    between atoms: CB   and  CG  
    3  A    between atoms: CG   and  CD  
    4  A    between atoms: CD   and  CE  

>  <TORSDO>
F 17

>  <BEGIN_>
RES LYS A 131

$$$$
ligand_1_pose_18_2HRL.pdbqt
 OpenBabel07062320523D

  6  5  0  0  0  0  0  0  0  0999 V2000
   33.1930   34.6630    9.2900 C   0  0  0  0  0  0  0  0  0  0  0  0
   32.0600   35.3600   10.0340 C   0  0  0  0  0  0  0  0  0  0  0  0
   30.6980   34.7940    9.7240 C   0  0  0  0  0  0  0  0  0  0  0  0
   30.1720   35.3510    8.4110 C   0  0  0  0  0  0  0  0  0  0  0  0
   28.8200   34.7470    8.0800 C   0  0  0  0  0  0  0  0  0  0  0  0
   28.2210   35.3970    6.8820 N   0  0  0  0  0  0  0  0  0  0  0  0
  1  2  1  0  0  0  0
  3  2  1  0  0  0  0
  4  3  1  0  0  0  0
  5  4  1  0  0  0  0
  6  5  1  0  0  0  0
M  END
>  <EGIN_R>
ES LYS A 135

>  <REMARK>
  4 active torsions:
  status: ('A' for Active; 'I' for Inactive)
    5  A    between atoms: CA   and  CB  
    6  A    between atoms: CB   and  CG  
    7  A    between atoms: CG   and  CD  
    8  A    between atoms: CD   and  CE  

$$$$
