ligand_82_pose_6_2HRL.pdbqt
 OpenBabel07062320523D

 53 55  0  0  1  0  0  0  0  0999 V2000
   22.1630   39.9440    8.0980 N   0  0  0  0  0  0  0  0  0  0  0  0
   22.6590   40.9760    7.2290 C   0  0  0  0  0  0  0  0  0  0  0  0
   21.8310   41.7420    6.6730 O   0  0  0  0  0  0  0  0  0  0  0  0
   22.8450   39.3070    8.5610 H   0  0  0  0  0  0  0  0  0  0  0  0
   20.7380   39.8090    8.3120 C   0  0  0  0  0  0  0  0  0  0  0  0
   20.4550   38.3830    8.6920 C   0  0  2  0  0  0  0  0  0  0  0  0
   21.7200   37.5730    8.8650 C   0  0  1  0  0  0  0  0  0  0  0  0
   21.7330   37.0600   10.2870 C   0  0  2  0  0  0  0  0  0  0  0  0
   23.9440   36.5460   10.7510 C   0  0  2  0  0  0  0  0  0  0  0  0
   23.6580   35.0830   11.0020 C   0  0  0  0  0  0  0  0  0  0  0  0
   22.8650   37.3650   10.9840 O   0  0  0  0  0  0  0  0  0  0  0  0
   22.2100   34.9530   11.4040 C   0  0  1  0  0  0  0  0  0  0  0  0
   21.3840   35.5900   10.3050 C   0  0  1  0  0  0  0  0  0  0  0  0
   24.4740   36.7040    9.4670 O   0  0  0  0  0  0  0  0  0  0  0  0
   24.6600   35.7820    9.1380 H   0  0  0  0  0  0  0  0  0  0  0  0
   25.0190   36.9430   11.7080 C   0  0  0  0  0  0  0  0  0  0  0  0
   25.7220   36.0320   12.2630 O   0  0  0  0  0  0  0  0  0  0  0  0
   25.2930   38.2560   12.0240 O   0  0  0  0  0  0  0  0  0  0  0  0
   25.4950   38.9490   11.3080 H   0  0  0  0  0  0  0  0  0  0  0  0
   21.8160   33.6360   11.5400 O   0  0  0  0  0  0  0  0  0  0  0  0
   20.9800   33.6300   12.0730 H   0  0  0  0  0  0  0  0  0  0  0  0
   19.9760   35.3470   10.4870 N   0  0  0  0  0  0  0  0  0  0  0  0
   19.1510   34.8990    9.4240 C   0  0  0  0  0  0  0  0  0  0  0  0
   19.5700   35.5100   11.4340 H   0  0  0  0  0  0  0  0  0  0  0  0
   17.7060   34.6740    9.7010 C   0  0  0  0  0  0  0  0  0  0  0  0
   19.6350   34.7010    8.2810 O   0  0  0  0  0  0  0  0  0  0  0  0
   21.7210   36.4690    8.0170 O   0  0  0  0  0  0  0  0  0  0  0  0
   20.8300   36.1440    7.8030 H   0  0  0  0  0  0  0  0  0  0  0  0
   19.7160   37.8240    7.6280 O   0  0  0  0  0  0  0  0  0  0  0  0
   19.1110   37.1060    7.9680 H   0  0  0  0  0  0  0  0  0  0  0  0
   23.9910   41.1630    6.9800 O   0  0  0  0  0  0  0  0  0  0  0  0
   24.8650   40.1430    6.5280 C   0  0  0  0  0  0  0  0  0  0  0  0
   25.7430   39.6990    7.6310 C   0  0  0  0  0  0  0  0  0  0  0  0
   27.0610   39.3120    7.5790 C   0  0  0  0  0  0  0  0  0  0  0  0
   25.3800   39.5960    8.9170 N   0  0  0  0  0  0  0  0  0  0  0  0
   27.4770   38.9810    8.8370 N   0  0  0  0  0  0  0  0  0  0  0  0
   26.4280   39.1660    9.6250 N   0  0  0  0  0  0  0  0  0  0  0  0
   28.8030   38.5270    9.1790 C   0  0  0  0  0  0  0  0  0  0  0  0
   28.9550   37.0540    8.9130 C   0  0  0  0  0  0  0  0  0  0  0  0
   30.0420   36.5670    8.3220 C   0  0  0  0  0  0  0  0  0  0  0  0
   27.9010   36.0950    9.3000 C   0  0  2  0  0  0  0  0  0  0  0  0
   30.2450   35.0930    8.3090 C   0  0  0  0  0  0  0  0  0  0  0  0
   28.5990   35.0150   10.1410 C   0  0  0  0  0  0  0  0  0  0  0  0
   27.7630   35.0410    8.2200 C   0  0  0  0  0  0  0  0  0  0  0  0
   29.0220   34.3960    8.8190 C   0  0  1  0  0  0  0  0  0  0  0  0
   26.5840   34.1280    8.4050 C   0  0  0  0  0  0  0  0  0  0  0  0
   27.9140   35.5210    6.8160 C   0  0  0  0  0  0  0  0  0  0  0  0
   29.8670   25.5550   16.9770 C   0  0  0  0  0  0  0  0  0  0  0  0
   28.3450   25.7220   17.0260 C   0  0  0  0  0  0  0  0  0  0  0  0
   27.6010   24.4020   16.8890 C   0  0  0  0  0  0  0  0  0  0  0  0
   26.3730   24.3520   17.7560 C   0  0  0  0  0  0  0  0  0  0  0  0
   25.6720   23.0100   17.5680 C   0  0  0  0  0  0  0  0  0  0  0  0
   24.2610   23.2140   17.1640 N   0  0  0  0  0  0  0  0  0  0  0  0
  1  5  1  0  0  0  0
  1  4  1  0  0  0  0
  2  1  1  0  0  0  0
  3  2  2  0  0  0  0
  6  5  1  6  0  0  0
  6  7  1  0  0  0  0
  7 27  1  6  0  0  0
  8  7  1  6  0  0  0
  8 13  1  0  0  0  0
  8 11  1  0  0  0  0
  9 14  1  6  0  0  0
  9 11  1  0  0  0  0
  9 10  1  0  0  0  0
  9 16  1  0  0  0  0
 10 12  1  0  0  0  0
 12 20  1  6  0  0  0
 13 22  1  1  0  0  0
 13 12  1  0  0  0  0
 15 14  1  0  0  0  0
 16 18  1  0  0  0  0
 16 17  2  0  0  0  0
 19 18  1  0  0  0  0
 20 21  1  0  0  0  0
 22 24  1  0  0  0  0
 23 25  1  0  0  0  0
 23 22  1  0  0  0  0
 26 23  2  0  0  0  0
 28 27  1  0  0  0  0
 29 30  1  0  0  0  0
 29  6  1  0  0  0  0
 31  2  1  0  0  0  0
 32 31  1  0  0  0  0
 32 33  1  0  0  0  0
 33 35  1  0  0  0  0
 34 33  2  0  0  0  0
 34 36  1  0  0  0  0
 35 37  2  0  0  0  0
 36 38  1  0  0  0  0
 36 37  1  0  0  0  0
 39 38  1  0  0  0  0
 39 41  1  0  0  0  0
 40 39  2  0  0  0  0
 41 43  1  1  0  0  0
 42 40  1  0  0  0  0
 44 46  1  0  0  0  0
 44 45  1  0  0  0  0
 44 41  1  0  0  0  0
 45 42  1  6  0  0  0
 45 43  1  0  0  0  0
 47 44  1  0  0  0  0
 48 49  1  0  0  0  0
 50 49  1  0  0  0  0
 50 51  1  0  0  0  0
 52 51  1  0  0  0  0
 53 52  1  0  0  0  0
M  END
>  <REMARK>
 VINA RESULT:    -5.617      7.391     12.982
 INTER + INTRA:         -15.387
 INTER:                  -9.490
 INTRA:                  -5.897
 UNBOUND:                -5.337
 SMILES CC(=O)N[C@@H]1[C@@H](O)C[C@](O)(C(=O)O)O[C@H]1C(O)[C@H](O)CNC(=O)OCc1cn(CC2=CC[C@H]3C[C@@H]2C3(C)C)nn1
 SMILES IDX 21 1 22 2 23 3 20 5 18 6 16 7 15 8 9 9 8 10 14 11 6 12 5 13
 SMILES IDX 10 14 11 16 12 17 13 18 7 20 4 22 2 23 1 25 3 26 17 27 19 29
 SMILES IDX 24 31 25 32 26 33 27 34 40 35 28 36 39 37 29 38 30 39 31 40
 SMILES IDX 35 41 32 42 34 43 36 44 33 45 37 46 38 47
 H PARENT 21 4 10 15 13 19 7 21 4 24 17 28 19 30
 Flexibility Score: inf
  4 active torsions:
  status: ('A' for Active; 'I' for Inactive)
    1  A    between atoms: CA   and  CB  
    2  A    between atoms: CB   and  CG  
    3  A    between atoms: CG   and  CD  
    4  A    between atoms: CD   and  CE  

>  <TORSDO>
F 16

>  <BEGIN_>
RES LYS A 131

$$$$
ligand_82_pose_6_2HRL.pdbqt
 OpenBabel07062320523D

  6  5  0  0  0  0  0  0  0  0999 V2000
   33.1930   34.6630    9.2900 C   0  0  0  0  0  0  0  0  0  0  0  0
   32.0600   35.3600   10.0340 C   0  0  0  0  0  0  0  0  0  0  0  0
   32.4150   35.7470   11.4460 C   0  0  0  0  0  0  0  0  0  0  0  0
   31.5910   36.9430   11.8990 C   0  0  0  0  0  0  0  0  0  0  0  0
   31.8950   38.1550   11.0390 C   0  0  0  0  0  0  0  0  0  0  0  0
   31.4230   39.4070   11.6920 N   0  0  0  0  0  0  0  0  0  0  0  0
  1  2  1  0  0  0  0
  2  3  1  0  0  0  0
  3  4  1  0  0  0  0
  5  6  1  0  0  0  0
  5  4  1  0  0  0  0
M  END
>  <EGIN_R>
ES LYS A 135

>  <REMARK>
  4 active torsions:
  status: ('A' for Active; 'I' for Inactive)
    5  A    between atoms: CA   and  CB  
    6  A    between atoms: CB   and  CG  
    7  A    between atoms: CG   and  CD  
    8  A    between atoms: CD   and  CE  

$$$$
