ligand_78_pose_10_2HRL.pdbqt
 OpenBabel07062320523D

 53 54  0  0  1  0  0  0  0  0999 V2000
   30.8950   40.9170    8.7850 N   0  0  0  0  0  0  0  0  0  0  0  0
   30.0610   41.5330    9.7860 C   0  0  0  0  0  0  0  0  0  0  0  0
   28.8400   41.6060    9.5870 O   0  0  0  0  0  0  0  0  0  0  0  0
   31.9030   40.8900    9.0320 H   0  0  0  0  0  0  0  0  0  0  0  0
   30.3130   40.3910    7.5640 C   0  0  0  0  0  0  0  0  0  0  0  0
   30.2200   38.9030    7.5650 C   0  0  2  0  0  0  0  0  0  0  0  0
   28.9380   38.3640    8.1030 C   0  0  2  0  0  0  0  0  0  0  0  0
   27.6920   39.0780    7.7210 C   0  0  2  0  0  0  0  0  0  0  0  0
   26.2550   37.5130    8.6990 C   0  0  2  0  0  0  0  0  0  0  0  0
   26.2700   36.7350    7.4250 C   0  0  0  0  0  0  0  0  0  0  0  0
   26.6750   38.8170    8.6360 O   0  0  0  0  0  0  0  0  0  0  0  0
   26.5380   37.4890    6.1820 C   0  0  1  0  0  0  0  0  0  0  0  0
   27.1090   38.8650    6.3810 C   0  0  1  0  0  0  0  0  0  0  0  0
   27.0230   36.8910    9.6850 O   0  0  0  0  0  0  0  0  0  0  0  0
   26.6190   36.8960   10.5670 H   0  0  0  0  0  0  0  0  0  0  0  0
   24.8610   37.5560    9.2120 C   0  0  0  0  0  0  0  0  0  0  0  0
   24.0550   38.3760    8.7240 O   0  0  0  0  0  0  0  0  0  0  0  0
   24.3980   36.7210   10.2220 O   0  0  0  0  0  0  0  0  0  0  0  0
   23.7940   35.9160   10.0050 H   0  0  0  0  0  0  0  0  0  0  0  0
   27.3510   36.7250    5.3470 O   0  0  0  0  0  0  0  0  0  0  0  0
   27.1590   35.7700    5.3970 H   0  0  0  0  0  0  0  0  0  0  0  0
   26.0950   39.9000    6.1560 N   0  0  0  0  0  0  0  0  0  0  0  0
   26.0910   40.7010    4.9930 C   0  0  0  0  0  0  0  0  0  0  0  0
   25.3520   40.0590    6.8650 H   0  0  0  0  0  0  0  0  0  0  0  0
   25.0650   41.7590    4.7490 C   0  0  0  0  0  0  0  0  0  0  0  0
   26.9970   40.4920    4.1490 O   0  0  0  0  0  0  0  0  0  0  0  0
   29.0430   38.6890    9.5270 O   0  0  0  0  0  0  0  0  0  0  0  0
   28.9020   39.6500    9.5850 H   0  0  0  0  0  0  0  0  0  0  0  0
   31.3350   38.2300    8.0230 O   0  0  0  0  0  0  0  0  0  0  0  0
   31.8330   37.7810    7.2980 H   0  0  0  0  0  0  0  0  0  0  0  0
   30.5980   42.0390   10.9550 O   0  0  0  0  0  0  0  0  0  0  0  0
   31.6780   41.4210   11.6300 C   0  0  0  0  0  0  0  0  0  0  0  0
   31.5010   39.9650   11.7280 C   0  0  0  0  0  0  0  0  0  0  0  0
   30.9740   39.1990   12.7290 C   0  0  0  0  0  0  0  0  0  0  0  0
   31.8620   39.0940   10.7620 N   0  0  0  0  0  0  0  0  0  0  0  0
   31.0310   37.8980   12.3470 N   0  0  0  0  0  0  0  0  0  0  0  0
   31.5780   37.8660   11.1430 N   0  0  0  0  0  0  0  0  0  0  0  0
   30.5670   36.7910   13.1400 C   0  0  0  0  0  0  0  0  0  0  0  0
   31.9470   35.9580   13.9130 S   0  0  0  0  0  0  0  0  0  0  0  0
   32.5670   36.9120   14.9010 O   0  0  0  0  0  0  0  0  0  0  0  0
   32.9240   35.6210   12.8500 O   0  0  0  0  0  0  0  0  0  0  0  0
   31.3480   34.5250   14.7280 C   0  0  0  0  0  0  0  0  0  0  0  0
   30.2840   33.8430   14.1490 C   0  0  0  0  0  0  0  0  0  0  0  0
   31.9230   34.1020   15.9030 C   0  0  0  0  0  0  0  0  0  0  0  0
   29.8160   32.7200   14.7890 C   0  0  0  0  0  0  0  0  0  0  0  0
   31.4160   32.9720   16.5050 C   0  0  0  0  0  0  0  0  0  0  0  0
   30.3670   32.2560   15.9800 C   0  0  0  0  0  0  0  0  0  0  0  0
   29.8670   25.5550   16.9770 C   0  0  0  0  0  0  0  0  0  0  0  0
   28.3450   25.7220   17.0260 C   0  0  0  0  0  0  0  0  0  0  0  0
   27.6010   24.4010   16.9040 C   0  0  0  0  0  0  0  0  0  0  0  0
   26.6280   24.1920   18.0310 C   0  0  0  0  0  0  0  0  0  0  0  0
   25.6050   23.1340   17.6310 C   0  0  0  0  0  0  0  0  0  0  0  0
   24.9250   22.5910   18.8300 N   0  0  0  0  0  0  0  0  0  0  0  0
  1  4  1  0  0  0  0
  1  2  1  0  0  0  0
  2 31  1  0  0  0  0
  3  2  2  0  0  0  0
  5  1  1  0  0  0  0
  6  5  1  1  0  0  0
  6 29  1  0  0  0  0
  6  7  1  0  0  0  0
  7 27  1  1  0  0  0
  8  7  1  1  0  0  0
  8 11  1  0  0  0  0
  9 16  1  1  0  0  0
  9 14  1  0  0  0  0
 10  9  1  0  0  0  0
 11  9  1  0  0  0  0
 12 20  1  6  0  0  0
 12 13  1  0  0  0  0
 12 10  1  0  0  0  0
 13 22  1  1  0  0  0
 13  8  1  0  0  0  0
 14 15  1  0  0  0  0
 16 18  1  0  0  0  0
 17 16  2  0  0  0  0
 19 18  1  0  0  0  0
 20 21  1  0  0  0  0
 22 24  1  0  0  0  0
 23 22  1  0  0  0  0
 25 23  1  0  0  0  0
 26 23  2  0  0  0  0
 27 28  1  0  0  0  0
 30 29  1  0  0  0  0
 31 32  1  0  0  0  0
 32 33  1  0  0  0  0
 33 34  2  0  0  0  0
 35 37  2  0  0  0  0
 35 33  1  0  0  0  0
 36 34  1  0  0  0  0
 36 38  1  0  0  0  0
 37 36  1  0  0  0  0
 38 39  1  0  0  0  0
 39 42  1  0  0  0  0
 39 40  2  0  0  0  0
 41 39  2  0  0  0  0
 42 44  1  0  0  0  0
 43 42  2  0  0  0  0
 43 45  1  0  0  0  0
 44 46  2  0  0  0  0
 45 47  2  0  0  0  0
 47 46  1  0  0  0  0
 48 49  1  0  0  0  0
 50 49  1  0  0  0  0
 50 51  1  0  0  0  0
 52 51  1  0  0  0  0
 52 53  1  0  0  0  0
M  END
>  <REMARK>
 VINA RESULT:    -5.326      6.489     12.157
 INTER + INTRA:         -14.852
 INTER:                  -8.988
 INTRA:                  -5.864
 UNBOUND:                -5.011
 SMILES CC(=O)N[C@@H]1[C@@H](O)C[C@](O)(C(=O)O)O[C@H]1C(O)[C@H](O)CNC(=O)OCc1cn(CS(=O)(=O)c2ccccc2)nn1
 SMILES IDX 21 1 22 2 23 3 20 5 18 6 16 7 15 8 9 9 8 10 14 11 6 12 5 13
 SMILES IDX 10 14 11 16 12 17 13 18 7 20 4 22 2 23 1 25 3 26 17 27 19 29
 SMILES IDX 24 31 25 32 26 33 27 34 40 35 28 36 39 37 29 38 30 39 31 40
 SMILES IDX 32 41 33 42 34 43 38 44 35 45 37 46 36 47
 H PARENT 21 4 10 15 13 19 7 21 4 24 17 28 19 30
 Flexibility Score: inf
  4 active torsions:
  status: ('A' for Active; 'I' for Inactive)
    1  A    between atoms: CA   and  CB  
    2  A    between atoms: CB   and  CG  
    3  A    between atoms: CG   and  CD  
    4  A    between atoms: CD   and  CE  

>  <TORSDO>
F 17

>  <BEGIN_>
RES LYS A 131

$$$$
ligand_78_pose_10_2HRL.pdbqt
 OpenBabel07062320523D

  6  5  0  0  0  0  0  0  0  0999 V2000
   33.1930   34.6630    9.2900 C   0  0  0  0  0  0  0  0  0  0  0  0
   32.0600   35.3600   10.0340 C   0  0  0  0  0  0  0  0  0  0  0  0
   30.7390   34.6430    9.9290 C   0  0  0  0  0  0  0  0  0  0  0  0
   30.3500   34.4450    8.4720 C   0  0  0  0  0  0  0  0  0  0  0  0
   28.8410   34.4250    8.3210 C   0  0  0  0  0  0  0  0  0  0  0  0
   28.1970   33.7240    9.4670 N   0  0  0  0  0  0  0  0  0  0  0  0
  1  2  1  0  0  0  0
  3  2  1  0  0  0  0
  4  3  1  0  0  0  0
  5  4  1  0  0  0  0
  5  6  1  0  0  0  0
M  END
>  <EGIN_R>
ES LYS A 135

>  <REMARK>
  4 active torsions:
  status: ('A' for Active; 'I' for Inactive)
    5  A    between atoms: CA   and  CB  
    6  A    between atoms: CB   and  CG  
    7  A    between atoms: CG   and  CD  
    8  A    between atoms: CD   and  CE  

$$$$
