ligand_79_pose_3_2HRL.pdbqt
 OpenBabel07062320523D

 58 60  0  0  1  0  0  0  0  0999 V2000
   29.6140   30.3870   17.8950 N   0  0  0  0  0  0  0  0  0  0  0  0
   28.3820   30.2740   18.5830 C   0  0  0  0  0  0  0  0  0  0  0  0
   27.8690   31.2480   19.1380 O   0  0  0  0  0  0  0  0  0  0  0  0
   29.9660   29.4770   17.4420 H   0  0  0  0  0  0  0  0  0  0  0  0
   30.4020   31.5810   17.7630 C   0  0  0  0  0  0  0  0  0  0  0  0
   30.4410   32.1880   16.4100 C   0  0  2  0  0  0  0  0  0  0  0  0
   29.5230   33.3910   16.2550 C   0  0  1  0  0  0  0  0  0  0  0  0
   29.6310   34.0000   14.8810 C   0  0  2  0  0  0  0  0  0  0  0  0
   31.5640   35.2080   14.4640 C   0  0  2  0  0  0  0  0  0  0  0  0
   30.8570   36.3040   13.6960 C   0  0  0  0  0  0  0  0  0  0  0  0
   30.8960   33.9930   14.3690 O   0  0  0  0  0  0  0  0  0  0  0  0
   29.3900   35.9850   13.4970 C   0  0  1  0  0  0  0  0  0  0  0  0
   28.9300   35.3390   14.8050 C   0  0  1  0  0  0  0  0  0  0  0  0
   31.7900   35.5480   15.7970 O   0  0  0  0  0  0  0  0  0  0  0  0
   32.7430   35.8160   15.9380 H   0  0  0  0  0  0  0  0  0  0  0  0
   32.8980   35.0240   13.8320 C   0  0  0  0  0  0  0  0  0  0  0  0
   33.9290   34.9180   14.5690 O   0  0  0  0  0  0  0  0  0  0  0  0
   33.0900   34.9610   12.4710 O   0  0  0  0  0  0  0  0  0  0  0  0
   33.2000   34.0910   11.9650 H   0  0  0  0  0  0  0  0  0  0  0  0
   28.6440   37.0990   13.1930 O   0  0  0  0  0  0  0  0  0  0  0  0
   28.0390   36.8640   12.4200 H   0  0  0  0  0  0  0  0  0  0  0  0
   27.5060   35.1450   14.8260 N   0  0  0  0  0  0  0  0  0  0  0  0
   26.6180   36.0790   15.4690 C   0  0  0  0  0  0  0  0  0  0  0  0
   27.0280   34.3230   14.3810 H   0  0  0  0  0  0  0  0  0  0  0  0
   25.1640   35.9180   15.5130 C   0  0  0  0  0  0  0  0  0  0  0  0
   27.1710   37.0860   16.0170 O   0  0  0  0  0  0  0  0  0  0  0  0
   28.2290   32.9000   16.4500 O   0  0  0  0  0  0  0  0  0  0  0  0
   28.1240   31.9760   16.1520 H   0  0  0  0  0  0  0  0  0  0  0  0
   30.0540   31.2740   15.4480 O   0  0  0  0  0  0  0  0  0  0  0  0
   30.1670   30.3670   15.8330 H   0  0  0  0  0  0  0  0  0  0  0  0
   27.6910   29.0630   18.6660 O   0  0  0  0  0  0  0  0  0  0  0  0
   27.2340   28.4170   17.5140 C   0  0  0  0  0  0  0  0  0  0  0  0
   26.5210   29.3740   16.6290 C   0  0  0  0  0  0  0  0  0  0  0  0
   25.1460   29.4870   16.4870 C   0  0  0  0  0  0  0  0  0  0  0  0
   27.0260   30.3120   15.8020 N   0  0  0  0  0  0  0  0  0  0  0  0
   24.8690   30.4630   15.6010 N   0  0  0  0  0  0  0  0  0  0  0  0
   26.0340   30.9440   15.2020 N   0  0  0  0  0  0  0  0  0  0  0  0
   23.5230   30.8920   15.1740 C   0  0  0  0  0  0  0  0  0  0  0  0
   22.5130   29.9380   15.7100 C   0  0  0  0  0  0  0  0  0  0  0  0
   23.3650   32.2780   15.8270 C   0  0  0  0  0  0  0  0  0  0  0  0
   23.5600   31.0650   13.7240 C   0  0  0  0  0  0  0  0  0  0  0  0
   24.0710   30.1670   12.9660 O   0  0  0  0  0  0  0  0  0  0  0  0
   23.0490   32.2260   13.0040 C   0  0  0  0  0  0  0  0  0  0  0  0
   21.7110   32.4340   12.6730 C   0  0  0  0  0  0  0  0  0  0  0  0
   23.8080   33.2630   12.5260 C   0  0  0  0  0  0  0  0  0  0  0  0
   21.6660   33.5830   12.0030 N   0  0  0  0  0  0  0  0  0  0  0  0
   22.9010   34.1170   11.8910 C   0  0  0  0  0  0  0  0  0  0  0  0
   25.1610   33.5890   12.5620 C   0  0  0  0  0  0  0  0  0  0  0  0
   20.8160   34.0190   11.6180 H   0  0  0  0  0  0  0  0  0  0  0  0
   23.3900   35.2700   11.3100 C   0  0  0  0  0  0  0  0  0  0  0  0
   25.6080   34.7380   11.9780 C   0  0  0  0  0  0  0  0  0  0  0  0
   24.7300   35.5740   11.3550 C   0  0  0  0  0  0  0  0  0  0  0  0
   29.8670   25.5550   16.9770 C   0  0  0  0  0  0  0  0  0  0  0  0
   28.3450   25.7220   17.0260 C   0  0  0  0  0  0  0  0  0  0  0  0
   27.6020   24.3990   16.9240 C   0  0  0  0  0  0  0  0  0  0  0  0
   26.1440   24.5400   17.2660 C   0  0  0  0  0  0  0  0  0  0  0  0
   25.5950   23.1920   17.7210 C   0  0  0  0  0  0  0  0  0  0  0  0
   25.4940   23.1440   19.1980 N   0  0  0  0  0  0  0  0  0  0  0  0
  1  2  1  0  0  0  0
  2 31  1  0  0  0  0
  2  3  2  0  0  0  0
  4  1  1  0  0  0  0
  5  1  1  0  0  0  0
  6  5  1  1  0  0  0
  7  6  1  0  0  0  0
  7 27  1  6  0  0  0
  8  7  1  1  0  0  0
  9 16  1  6  0  0  0
  9 14  1  0  0  0  0
 10  9  1  0  0  0  0
 11  9  1  0  0  0  0
 11  8  1  0  0  0  0
 12 20  1  1  0  0  0
 12 10  1  0  0  0  0
 12 13  1  0  0  0  0
 13 22  1  6  0  0  0
 13  8  1  0  0  0  0
 14 15  1  0  0  0  0
 16 17  2  0  0  0  0
 18 16  1  0  0  0  0
 19 18  1  0  0  0  0
 21 20  1  0  0  0  0
 22 23  1  0  0  0  0
 23 25  1  0  0  0  0
 23 26  2  0  0  0  0
 24 22  1  0  0  0  0
 28 27  1  0  0  0  0
 29 30  1  0  0  0  0
 29  6  1  0  0  0  0
 32 31  1  0  0  0  0
 33 32  1  0  0  0  0
 34 33  2  0  0  0  0
 35 33  1  0  0  0  0
 36 34  1  0  0  0  0
 37 36  1  0  0  0  0
 37 35  2  0  0  0  0
 38 36  1  0  0  0  0
 38 39  1  0  0  0  0
 38 40  1  0  0  0  0
 41 38  1  0  0  0  0
 42 41  2  0  0  0  0
 43 41  1  0  0  0  0
 44 43  2  0  0  0  0
 45 48  1  0  0  0  0
 45 43  1  0  0  0  0
 46 44  1  0  0  0  0
 47 46  1  0  0  0  0
 47 45  2  0  0  0  0
 49 46  1  0  0  0  0
 50 52  2  0  0  0  0
 50 47  1  0  0  0  0
 51 48  2  0  0  0  0
 52 51  1  0  0  0  0
 53 54  1  0  0  0  0
 55 54  1  0  0  0  0
 55 56  1  0  0  0  0
 56 57  1  0  0  0  0
 57 58  1  0  0  0  0
M  END
>  <REMARK>
 VINA RESULT:    -6.439      3.816      8.608
 INTER + INTRA:         -16.675
 INTER:                  -9.420
 INTRA:                  -7.255
 UNBOUND:                -4.777
 SMILES CC(=O)N[C@@H]1[C@@H](O)C[C@](O)(C(=O)O)O[C@H]1C(O)[C@H](O)CNC(=O)OCc1cn(C(C)(C)C(=O)c2c[nH]c3ccccc23)nn1
 SMILES IDX 21 1 22 2 23 3 20 5 18 6 16 7 15 8 9 9 8 10 14 11 6 12 5 13
 SMILES IDX 10 14 11 16 12 17 13 18 7 20 4 22 2 23 1 25 3 26 17 27 19 29
 SMILES IDX 24 31 25 32 26 33 27 34 44 35 28 36 43 37 29 38 30 39 31 40
 SMILES IDX 32 41 33 42 34 43 35 44 42 45 36 46 37 47 41 48 38 50 40 51
 SMILES IDX 39 52
 H PARENT 21 4 10 15 13 19 7 21 4 24 17 28 19 30 36 49
 Flexibility Score: inf
  4 active torsions:
  status: ('A' for Active; 'I' for Inactive)
    1  A    between atoms: CA   and  CB  
    2  A    between atoms: CB   and  CG  
    3  A    between atoms: CG   and  CD  
    4  A    between atoms: CD   and  CE  

>  <TORSDO>
F 17

>  <BEGIN_>
RES LYS A 131

$$$$
ligand_79_pose_3_2HRL.pdbqt
 OpenBabel07062320523D

  6  5  0  0  0  0  0  0  0  0999 V2000
   33.1930   34.6630    9.2900 C   0  0  0  0  0  0  0  0  0  0  0  0
   32.0600   35.3600   10.0340 C   0  0  0  0  0  0  0  0  0  0  0  0
   30.7800   35.4430    9.2420 C   0  0  0  0  0  0  0  0  0  0  0  0
   30.1780   34.0590    9.0500 C   0  0  0  0  0  0  0  0  0  0  0  0
   28.7290   34.0430    9.4960 C   0  0  0  0  0  0  0  0  0  0  0  0
   28.1450   35.4130    9.4750 N   0  0  0  0  0  0  0  0  0  0  0  0
  1  2  1  0  0  0  0
  3  2  1  0  0  0  0
  4  3  1  0  0  0  0
  4  5  1  0  0  0  0
  6  5  1  0  0  0  0
M  END
>  <EGIN_R>
ES LYS A 135

>  <REMARK>
  4 active torsions:
  status: ('A' for Active; 'I' for Inactive)
    5  A    between atoms: CA   and  CB  
    6  A    between atoms: CB   and  CG  
    7  A    between atoms: CG   and  CD  
    8  A    between atoms: CD   and  CE  

$$$$
