ligand_53_pose_1_2HRL.pdbqt
 OpenBabel07062320523D

 48 48  0  0  1  0  0  0  0  0999 V2000
   27.0370   38.6910    4.8850 N   0  0  0  0  0  0  0  0  0  0  0  0
   27.0990   40.0780    4.6480 C   0  0  0  0  0  0  0  0  0  0  0  0
   28.1640   40.6670    4.4670 O   0  0  0  0  0  0  0  0  0  0  0  0
   26.0540   38.3030    5.0180 H   0  0  0  0  0  0  0  0  0  0  0  0
   28.1490   37.7800    4.9640 C   0  0  0  0  0  0  0  0  0  0  0  0
   28.0240   36.6860    5.9750 C   0  0  2  0  0  0  0  0  0  0  0  0
   27.6520   37.1570    7.3310 C   0  0  1  0  0  0  0  0  0  0  0  0
   28.4790   38.2930    7.8690 C   0  0  2  0  0  0  0  0  0  0  0  0
   30.7070   39.0490    7.9310 C   0  0  2  0  0  0  0  0  0  0  0  0
   30.5370   39.6150    9.3020 C   0  0  0  0  0  0  0  0  0  0  0  0
   29.8240   38.1130    7.5160 O   0  0  0  0  0  0  0  0  0  0  0  0
   29.0900   39.8210    9.6220 C   0  0  1  0  0  0  0  0  0  0  0  0
   28.4190   38.4580    9.3640 C   0  0  1  0  0  0  0  0  0  0  0  0
   32.0380   38.5410    7.8750 O   0  0  0  0  0  0  0  0  0  0  0  0
   32.3600   38.5580    8.8170 H   0  0  0  0  0  0  0  0  0  0  0  0
   30.7180   40.1840    6.9600 C   0  0  0  0  0  0  0  0  0  0  0  0
   30.7010   41.3900    7.2810 O   0  0  0  0  0  0  0  0  0  0  0  0
   30.7480   39.8930    5.6120 O   0  0  0  0  0  0  0  0  0  0  0  0
   31.5730   39.5240    5.1440 H   0  0  0  0  0  0  0  0  0  0  0  0
   28.8830   40.2180   10.9400 O   0  0  0  0  0  0  0  0  0  0  0  0
   29.6820   39.9340   11.4560 H   0  0  0  0  0  0  0  0  0  0  0  0
   27.1260   38.4620    9.9650 N   0  0  0  0  0  0  0  0  0  0  0  0
   26.7440   37.5200   10.9680 C   0  0  0  0  0  0  0  0  0  0  0  0
   26.4260   39.1740    9.6870 H   0  0  0  0  0  0  0  0  0  0  0  0
   25.4120   37.4920   11.6130 C   0  0  0  0  0  0  0  0  0  0  0  0
   27.5920   36.6680   11.3200 O   0  0  0  0  0  0  0  0  0  0  0  0
   26.2870   37.3610    7.4480 O   0  0  0  0  0  0  0  0  0  0  0  0
   25.7820   36.9480    6.7020 H   0  0  0  0  0  0  0  0  0  0  0  0
   29.2260   35.9620    5.9930 O   0  0  0  0  0  0  0  0  0  0  0  0
   29.1930   35.1810    5.3960 H   0  0  0  0  0  0  0  0  0  0  0  0
   25.9390   40.8470    4.6070 O   0  0  0  0  0  0  0  0  0  0  0  0
   25.4050   41.5510    5.6840 C   0  0  0  0  0  0  0  0  0  0  0  0
   24.8690   40.6990    6.7740 C   0  0  0  0  0  0  0  0  0  0  0  0
   23.6790   40.0460    6.8670 C   0  0  0  0  0  0  0  0  0  0  0  0
   25.5240   40.4110    7.9360 N   0  0  0  0  0  0  0  0  0  0  0  0
   23.6350   39.3970    8.0430 N   0  0  0  0  0  0  0  0  0  0  0  0
   24.7540   39.6250    8.6780 N   0  0  0  0  0  0  0  0  0  0  0  0
   22.5290   38.5870    8.5120 C   0  0  0  0  0  0  0  0  0  0  0  0
   22.6700   37.2070    8.0050 C   0  0  0  0  0  0  0  0  0  0  0  0
   23.5750   36.4650    8.4810 O   0  0  0  0  0  0  0  0  0  0  0  0
   21.8270   36.7300    7.0240 O   0  0  0  0  0  0  0  0  0  0  0  0
   22.1830   36.7440    6.0640 H   0  0  0  0  0  0  0  0  0  0  0  0
   29.8670   25.5550   16.9770 C   0  0  0  0  0  0  0  0  0  0  0  0
   28.3450   25.7220   17.0260 C   0  0  0  0  0  0  0  0  0  0  0  0
   27.6020   24.3970   16.9420 C   0  0  0  0  0  0  0  0  0  0  0  0
   26.1520   24.5370   17.3150 C   0  0  0  0  0  0  0  0  0  0  0  0
   25.5340   23.1520   17.4780 C   0  0  0  0  0  0  0  0  0  0  0  0
   24.1180   23.1610   17.0390 N   0  0  0  0  0  0  0  0  0  0  0  0
  1  5  1  0  0  0  0
  1  4  1  0  0  0  0
  2  1  1  0  0  0  0
  3  2  2  0  0  0  0
  6  5  1  6  0  0  0
  6 29  1  0  0  0  0
  6  7  1  0  0  0  0
  7 27  1  6  0  0  0
  8  7  1  1  0  0  0
  8 13  1  0  0  0  0
  9 16  1  6  0  0  0
  9 10  1  0  0  0  0
 10 12  1  0  0  0  0
 11  8  1  0  0  0  0
 11  9  1  0  0  0  0
 12 20  1  1  0  0  0
 13 12  1  0  0  0  0
 13 22  1  6  0  0  0
 14  9  1  0  0  0  0
 14 15  1  0  0  0  0
 16 17  2  0  0  0  0
 18 16  1  0  0  0  0
 19 18  1  0  0  0  0
 20 21  1  0  0  0  0
 22 23  1  0  0  0  0
 23 26  2  0  0  0  0
 23 25  1  0  0  0  0
 24 22  1  0  0  0  0
 28 27  1  0  0  0  0
 30 29  1  0  0  0  0
 31  2  1  0  0  0  0
 31 32  1  0  0  0  0
 32 33  1  0  0  0  0
 33 34  2  0  0  0  0
 33 35  1  0  0  0  0
 34 36  1  0  0  0  0
 35 37  2  0  0  0  0
 36 38  1  0  0  0  0
 36 37  1  0  0  0  0
 39 40  2  0  0  0  0
 39 38  1  0  0  0  0
 41 39  1  0  0  0  0
 42 41  1  0  0  0  0
 43 44  1  0  0  0  0
 45 44  1  0  0  0  0
 45 46  1  0  0  0  0
 46 47  1  0  0  0  0
 48 47  1  0  0  0  0
M  END
>  <REMARK>
 VINA RESULT:    -4.471      5.597      9.769
 INTER + INTRA:         -14.492
 INTER:                  -7.764
 INTRA:                  -6.729
 UNBOUND:                -6.362
 SMILES CC(=O)N[C@@H]1[C@@H](O)C[C@](O)(C(=O)O)O[C@H]1C(O)[C@H](O)CNC(=O)OCc1cn(CC(=O)O)nn1
 SMILES IDX 21 1 22 2 23 3 20 5 18 6 16 7 15 8 9 9 8 10 14 11 6 12 5 13
 SMILES IDX 10 14 11 16 12 17 13 18 7 20 4 22 2 23 1 25 3 26 17 27 19 29
 SMILES IDX 24 31 25 32 26 33 27 34 34 35 28 36 33 37 29 38 30 39 31 40
 SMILES IDX 32 41
 H PARENT 21 4 10 15 13 19 7 21 4 24 17 28 19 30 32 42
 Flexibility Score: inf
  4 active torsions:
  status: ('A' for Active; 'I' for Inactive)
    1  A    between atoms: CA   and  CB  
    2  A    between atoms: CB   and  CG  
    3  A    between atoms: CG   and  CD  
    4  A    between atoms: CD   and  CE  

>  <TORSDO>
F 17

>  <BEGIN_>
RES LYS A 131

$$$$
ligand_53_pose_1_2HRL.pdbqt
 OpenBabel07062320523D

  6  5  0  0  0  0  0  0  0  0999 V2000
   33.1930   34.6630    9.2900 C   0  0  0  0  0  0  0  0  0  0  0  0
   32.0600   35.3600   10.0340 C   0  0  0  0  0  0  0  0  0  0  0  0
   30.7570   35.3680    9.2770 C   0  0  0  0  0  0  0  0  0  0  0  0
   29.8290   34.2800    9.7930 C   0  0  0  0  0  0  0  0  0  0  0  0
   28.6190   34.1390    8.8910 C   0  0  0  0  0  0  0  0  0  0  0  0
   27.4170   33.7240    9.6660 N   0  0  0  0  0  0  0  0  0  0  0  0
  1  2  1  0  0  0  0
  3  4  1  0  0  0  0
  3  2  1  0  0  0  0
  5  6  1  0  0  0  0
  5  4  1  0  0  0  0
M  END
>  <EGIN_R>
ES LYS A 135

>  <REMARK>
  4 active torsions:
  status: ('A' for Active; 'I' for Inactive)
    5  A    between atoms: CA   and  CB  
    6  A    between atoms: CB   and  CG  
    7  A    between atoms: CG   and  CD  
    8  A    between atoms: CD   and  CE  

$$$$
