ligand_90_pose_8_2HRL.pdbqt
 OpenBabel07062320523D

 61 62  0  0  1  0  0  0  0  0999 V2000
   23.6220   39.1350    7.1880 C   0  0  0  0  0  0  0  0  0  0  0  0
   24.6230   40.1290    7.0910 O   0  0  0  0  0  0  0  0  0  0  0  0
   25.5160   40.1620    6.0350 C   0  0  0  0  0  0  0  0  0  0  0  0
   26.6550   39.2870    5.9950 N   0  0  0  0  0  0  0  0  0  0  0  0
   26.7670   38.6440    6.8040 H   0  0  0  0  0  0  0  0  0  0  0  0
   25.3130   40.9700    5.1130 O   0  0  0  0  0  0  0  0  0  0  0  0
   27.5960   39.2760    4.9290 C   0  0  0  0  0  0  0  0  0  0  0  0
   28.6980   40.2690    5.0610 C   0  0  2  0  0  0  0  0  0  0  0  0
   29.7900   39.6800    5.9390 C   0  0  1  0  0  0  0  0  0  0  0  0
   30.5480   40.7210    6.6980 C   0  0  2  0  0  0  0  0  0  0  0  0
   32.6340   39.8960    7.3280 C   0  0  2  0  0  0  0  0  0  0  0  0
   32.6270   40.5130    8.7200 C   0  0  0  0  0  0  0  0  0  0  0  0
   31.8920   40.6260    6.4420 O   0  0  0  0  0  0  0  0  0  0  0  0
   31.4210   41.4310    8.8640 C   0  0  1  0  0  0  0  0  0  0  0  0
   30.2620   40.7120    8.1640 C   0  0  1  0  0  0  0  0  0  0  0  0
   32.0870   38.6340    7.4670 O   0  0  0  0  0  0  0  0  0  0  0  0
   31.8220   38.4660    8.4070 H   0  0  0  0  0  0  0  0  0  0  0  0
   34.0180   39.7430    6.8110 C   0  0  0  0  0  0  0  0  0  0  0  0
   34.8910   40.6440    6.9660 O   0  0  0  0  0  0  0  0  0  0  0  0
   34.4070   38.5970    6.1380 O   0  0  0  0  0  0  0  0  0  0  0  0
   35.2390   38.4980    5.5850 H   0  0  0  0  0  0  0  0  0  0  0  0
   31.1710   41.5840   10.2160 O   0  0  0  0  0  0  0  0  0  0  0  0
   30.4700   40.9820   10.5540 H   0  0  0  0  0  0  0  0  0  0  0  0
   29.0120   41.3930    8.4730 N   0  0  0  0  0  0  0  0  0  0  0  0
   27.9510   40.6660    9.0490 C   0  0  0  0  0  0  0  0  0  0  0  0
   28.9140   42.3900    8.2670 H   0  0  0  0  0  0  0  0  0  0  0  0
   26.6390   41.3320    9.3860 C   0  0  0  0  0  0  0  0  0  0  0  0
   28.0150   39.4430    9.3150 O   0  0  0  0  0  0  0  0  0  0  0  0
   29.2740   38.7470    6.8240 O   0  0  0  0  0  0  0  0  0  0  0  0
   29.8720   38.5410    7.5650 H   0  0  0  0  0  0  0  0  0  0  0  0
   28.3140   41.4950    5.5780 O   0  0  0  0  0  0  0  0  0  0  0  0
   27.7480   41.4070    6.3920 H   0  0  0  0  0  0  0  0  0  0  0  0
   24.1720   38.0980    8.0940 C   0  0  0  0  0  0  0  0  0  0  0  0
   23.7790   37.9280    9.4030 C   0  0  0  0  0  0  0  0  0  0  0  0
   25.1050   37.1540    7.8990 N   0  0  0  0  0  0  0  0  0  0  0  0
   24.4760   36.8950    9.9710 N   0  0  0  0  0  0  0  0  0  0  0  0
   25.2720   36.4460    9.0320 N   0  0  0  0  0  0  0  0  0  0  0  0
   24.2720   36.4980   11.3470 C   0  0  0  0  0  0  0  0  0  0  0  0
   25.3670   35.4980   11.6640 C   0  0  0  0  0  0  0  0  0  0  0  0
   25.0760   34.3080   11.9090 O   0  0  0  0  0  0  0  0  0  0  0  0
   26.7170   35.8580   11.6960 N   0  0  0  0  0  0  0  0  0  0  0  0
   26.8780   36.9070   11.4490 H   0  0  0  0  0  0  0  0  0  0  0  0
   27.8650   35.0840   11.9960 C   0  0  0  0  0  0  0  0  0  0  0  0
   28.5620   35.2500   13.2690 C   0  0  1  0  0  0  0  0  0  0  0  0
   29.3930   34.1450   13.5960 O   0  0  0  0  0  0  0  0  0  0  0  0
   29.5740   34.1500   14.5670 H   0  0  0  0  0  0  0  0  0  0  0  0
   29.0920   36.5530   13.7030 C   0  0  0  0  0  0  0  0  0  0  0  0
   30.0780   37.1110   12.7970 N   0  0  0  0  0  0  0  0  0  0  0  0
   29.8110   37.9230   11.7430 C   0  0  0  0  0  0  0  0  0  0  0  0
   31.4050   36.9000   12.8460 C   0  0  0  0  0  0  0  0  0  0  0  0
   31.0260   38.2020   11.1440 C   0  0  0  0  0  0  0  0  0  0  0  0
   31.9950   37.5780   11.8150 N   0  0  0  0  0  0  0  0  0  0  0  0
   32.1550   36.1270   13.7670 N   0  0  0  0  0  0  0  0  0  0  0  0
   32.3630   34.9110   13.4790 O   0  0  0  0  0  0  0  0  0  0  0  0
   32.6760   36.5580   14.9390 O   0  0  0  0  0  0  0  0  0  0  0  0
   29.8670   25.5550   16.9770 C   0  0  0  0  0  0  0  0  0  0  0  0
   28.3450   25.7220   17.0260 C   0  0  0  0  0  0  0  0  0  0  0  0
   27.5990   24.4340   16.7140 C   0  0  0  0  0  0  0  0  0  0  0  0
   26.9970   23.8150   17.9450 C   0  0  0  0  0  0  0  0  0  0  0  0
   25.5780   23.3460   17.6370 C   0  0  0  0  0  0  0  0  0  0  0  0
   24.8390   24.3870   16.8840 N   0  0  0  0  0  0  0  0  0  0  0  0
  1 33  1  0  0  0  0
  2  1  1  0  0  0  0
  3  2  1  0  0  0  0
  4  3  1  0  0  0  0
  4  5  1  0  0  0  0
  6  3  2  0  0  0  0
  7  4  1  0  0  0  0
  8  7  1  1  0  0  0
  8 31  1  0  0  0  0
  8  9  1  0  0  0  0
  9 29  1  1  0  0  0
 10  9  1  6  0  0  0
 10 15  1  0  0  0  0
 11 18  1  6  0  0  0
 11 16  1  0  0  0  0
 11 12  1  0  0  0  0
 12 14  1  0  0  0  0
 13 10  1  0  0  0  0
 13 11  1  0  0  0  0
 14 22  1  1  0  0  0
 15 24  1  6  0  0  0
 15 14  1  0  0  0  0
 16 17  1  0  0  0  0
 18 19  2  0  0  0  0
 20 18  1  0  0  0  0
 21 20  1  0  0  0  0
 22 23  1  0  0  0  0
 24 25  1  0  0  0  0
 25 28  2  0  0  0  0
 25 27  1  0  0  0  0
 26 24  1  0  0  0  0
 29 30  1  0  0  0  0
 31 32  1  0  0  0  0
 33 34  2  0  0  0  0
 34 36  1  0  0  0  0
 35 33  1  0  0  0  0
 35 37  2  0  0  0  0
 36 38  1  0  0  0  0
 37 36  1  0  0  0  0
 38 39  1  0  0  0  0
 39 41  1  0  0  0  0
 39 40  2  0  0  0  0
 41 43  1  0  0  0  0
 42 41  1  0  0  0  0
 44 43  1  6  0  0  0
 44 45  1  0  0  0  0
 44 47  1  0  0  0  0
 45 46  1  0  0  0  0
 48 50  1  0  0  0  0
 48 47  1  0  0  0  0
 49 48  1  0  0  0  0
 50 53  1  0  0  0  0
 51 49  2  0  0  0  0
 51 52  1  0  0  0  0
 52 50  2  0  0  0  0
 53 55  2  0  0  0  0
 54 53  2  0  0  0  0
 56 57  1  0  0  0  0
 58 57  1  0  0  0  0
 58 59  1  0  0  0  0
 60 59  1  0  0  0  0
 61 60  1  0  0  0  0
M  END
>  <REMARK>
 VINA RESULT:    -5.207      2.652      6.947
 INTER + INTRA:         -16.750
 INTER:                  -8.859
 INTRA:                  -7.891
 UNBOUND:                -5.759
 SMILES CC(=O)N[C@@H]1[C@@H](O)C[C@](O)(C(=O)O)O[C@H]1C(O)[C@H](O)CNC(=O)OCc1cn(CC(=O)NCC(O)Cn2ccnc2[N+](=O)[O-])nn1
 SMILES IDX 25 1 24 2 22 3 21 4 23 6 20 7 18 8 16 9 15 10 9 11 8 12
 SMILES IDX 14 13 6 14 5 15 10 16 11 18 12 19 13 20 7 22 4 24 2 25 1 27
 SMILES IDX 3 28 17 29 19 31 26 33 27 34 46 35 28 36 45 37 29 38 30 39
 SMILES IDX 31 40 32 41 33 43 34 44 35 45 36 47 37 48 38 49 41 50 39 51
 SMILES IDX 40 52 42 53 43 54 44 55
 H PARENT 21 5 10 17 13 21 7 23 4 26 17 30 19 32 32 42 35 46
 Flexibility Score: inf
  4 active torsions:
  status: ('A' for Active; 'I' for Inactive)
    1  A    between atoms: CA   and  CB  
    2  A    between atoms: CB   and  CG  
    3  A    between atoms: CG   and  CD  
    4  A    between atoms: CD   and  CE  

>  <TORSDO>
F 22

>  <BEGIN_>
RES LYS A 131

$$$$
ligand_90_pose_8_2HRL.pdbqt
 OpenBabel07062320523D

  6  5  0  0  0  0  0  0  0  0999 V2000
   33.1930   34.6630    9.2900 C   0  0  0  0  0  0  0  0  0  0  0  0
   32.0600   35.3600   10.0340 C   0  0  0  0  0  0  0  0  0  0  0  0
   30.7010   34.7780    9.7430 C   0  0  0  0  0  0  0  0  0  0  0  0
   30.5490   34.4840    8.2590 C   0  0  0  0  0  0  0  0  0  0  0  0
   29.2590   35.0800    7.7270 C   0  0  0  0  0  0  0  0  0  0  0  0
   28.0740   34.4830    8.4040 N   0  0  0  0  0  0  0  0  0  0  0  0
  1  2  1  0  0  0  0
  3  2  1  0  0  0  0
  4  3  1  0  0  0  0
  5  4  1  0  0  0  0
  5  6  1  0  0  0  0
M  END
>  <EGIN_R>
ES LYS A 135

>  <REMARK>
  4 active torsions:
  status: ('A' for Active; 'I' for Inactive)
    5  A    between atoms: CA   and  CB  
    6  A    between atoms: CB   and  CG  
    7  A    between atoms: CG   and  CD  
    8  A    between atoms: CD   and  CE  

$$$$
