ligand_22_pose_2_2HRL.pdbqt
 OpenBabel07062320523D

 50 50  0  0  1  0  0  0  0  0999 V2000
   28.7390   29.6590   16.0380 N   0  0  0  0  0  0  0  0  0  0  0  0
   27.4450   29.6550   16.6090 C   0  0  0  0  0  0  0  0  0  0  0  0
   26.7430   30.7240   16.6420 O   0  0  0  0  0  0  0  0  0  0  0  0
   29.2990   28.7870   16.0140 H   0  0  0  0  0  0  0  0  0  0  0  0
   29.2350   30.8990   15.4970 C   0  0  0  0  0  0  0  0  0  0  0  0
   30.5030   31.3940   16.0960 C   0  0  2  0  0  0  0  0  0  0  0  0
   30.3090   32.5410   17.0560 C   0  0  1  0  0  0  0  0  0  0  0  0
   30.6610   33.8370   16.3160 C   0  0  2  0  0  0  0  0  0  0  0  0
   32.4770   35.2750   16.1060 C   0  0  2  0  0  0  0  0  0  0  0  0
   31.5870   36.4780   16.3240 C   0  0  0  0  0  0  0  0  0  0  0  0
   31.9800   34.1170   16.6540 O   0  0  0  0  0  0  0  0  0  0  0  0
   30.4840   36.1350   17.2830 C   0  0  1  0  0  0  0  0  0  0  0  0
   29.7200   34.9400   16.7490 C   0  0  1  0  0  0  0  0  0  0  0  0
   33.6750   35.5500   16.7840 O   0  0  0  0  0  0  0  0  0  0  0  0
   33.5170   36.2060   17.4870 H   0  0  0  0  0  0  0  0  0  0  0  0
   32.7950   35.1150   14.6700 C   0  0  0  0  0  0  0  0  0  0  0  0
   32.5380   36.0340   13.8670 O   0  0  0  0  0  0  0  0  0  0  0  0
   33.3790   33.9600   14.1700 O   0  0  0  0  0  0  0  0  0  0  0  0
   33.4640   33.1160   14.7180 H   0  0  0  0  0  0  0  0  0  0  0  0
   30.9220   35.9470   18.5720 O   0  0  0  0  0  0  0  0  0  0  0  0
   31.0960   35.0130   18.8160 H   0  0  0  0  0  0  0  0  0  0  0  0
   28.9290   35.4230   15.6190 N   0  0  0  0  0  0  0  0  0  0  0  0
   27.6070   34.9540   15.3870 C   0  0  0  0  0  0  0  0  0  0  0  0
   29.3300   36.1250   14.9630 H   0  0  0  0  0  0  0  0  0  0  0  0
   26.7850   35.4370   14.2380 C   0  0  0  0  0  0  0  0  0  0  0  0
   27.1630   34.0970   16.2160 O   0  0  0  0  0  0  0  0  0  0  0  0
   29.0730   32.6140   17.6340 O   0  0  0  0  0  0  0  0  0  0  0  0
   28.8380   31.7720   18.0680 H   0  0  0  0  0  0  0  0  0  0  0  0
   31.2980   31.8420   15.0100 O   0  0  0  0  0  0  0  0  0  0  0  0
   31.3410   32.8410   15.0470 H   0  0  0  0  0  0  0  0  0  0  0  0
   26.8530   28.5370   17.1620 O   0  0  0  0  0  0  0  0  0  0  0  0
   26.4410   28.5110   18.5400 C   0  0  0  0  0  0  0  0  0  0  0  0
   27.6580   28.3020   19.3670 C   0  0  0  0  0  0  0  0  0  0  0  0
   28.5940   29.2750   19.6800 C   0  0  0  0  0  0  0  0  0  0  0  0
   28.1080   27.1850   19.9690 N   0  0  0  0  0  0  0  0  0  0  0  0
   29.5670   28.7340   20.4480 N   0  0  0  0  0  0  0  0  0  0  0  0
   29.2390   27.4650   20.6030 N   0  0  0  0  0  0  0  0  0  0  0  0
   30.7190   29.4370   20.9760 C   0  0  0  0  0  0  0  0  0  0  0  0
   30.8000   30.8280   20.3820 C   0  0  0  0  0  0  0  0  0  0  0  0
   30.6030   29.5290   22.4830 C   0  0  0  0  0  0  0  0  0  0  0  0
   31.9850   28.7360   20.6110 C   0  0  0  0  0  0  0  0  0  0  0  0
   33.0630   29.2490   21.0040 O   0  0  0  0  0  0  0  0  0  0  0  0
   31.9970   27.5670   19.8740 O   0  0  0  0  0  0  0  0  0  0  0  0
   32.4740   27.5870   18.9770 H   0  0  0  0  0  0  0  0  0  0  0  0
   29.8670   25.5550   16.9770 C   0  0  0  0  0  0  0  0  0  0  0  0
   28.3450   25.7220   17.0260 C   0  0  0  0  0  0  0  0  0  0  0  0
   27.6030   24.3950   16.9740 C   0  0  0  0  0  0  0  0  0  0  0  0
   26.1400   24.5520   17.2830 C   0  0  0  0  0  0  0  0  0  0  0  0
   25.9340   24.5400   18.7940 C   0  0  0  0  0  0  0  0  0  0  0  0
   25.5200   23.1920   19.2510 N   0  0  0  0  0  0  0  0  0  0  0  0
  1  2  1  0  0  0  0
  2  3  2  0  0  0  0
  2 31  1  0  0  0  0
  4  1  1  0  0  0  0
  5  1  1  0  0  0  0
  6  5  1  6  0  0  0
  6  7  1  0  0  0  0
  7 27  1  6  0  0  0
  8 11  1  0  0  0  0
  8 13  1  0  0  0  0
  8  7  1  1  0  0  0
  9 16  1  6  0  0  0
  9 10  1  0  0  0  0
  9 11  1  0  0  0  0
  9 14  1  0  0  0  0
 10 12  1  0  0  0  0
 12 20  1  1  0  0  0
 13 22  1  6  0  0  0
 13 12  1  0  0  0  0
 14 15  1  0  0  0  0
 17 16  2  0  0  0  0
 18 16  1  0  0  0  0
 18 19  1  0  0  0  0
 20 21  1  0  0  0  0
 23 22  1  0  0  0  0
 23 26  2  0  0  0  0
 24 22  1  0  0  0  0
 25 23  1  0  0  0  0
 27 28  1  0  0  0  0
 29 30  1  0  0  0  0
 29  6  1  0  0  0  0
 31 32  1  0  0  0  0
 32 33  1  0  0  0  0
 33 34  2  0  0  0  0
 33 35  1  0  0  0  0
 34 36  1  0  0  0  0
 35 37  2  0  0  0  0
 36 37  1  0  0  0  0
 36 38  1  0  0  0  0
 38 40  1  0  0  0  0
 39 38  1  0  0  0  0
 41 38  1  0  0  0  0
 41 42  2  0  0  0  0
 43 41  1  0  0  0  0
 44 43  1  0  0  0  0
 45 46  1  0  0  0  0
 47 46  1  0  0  0  0
 47 48  1  0  0  0  0
 48 49  1  0  0  0  0
 49 50  1  0  0  0  0
M  END
>  <REMARK>
 VINA RESULT:    -5.087      3.516      5.177
 INTER + INTRA:         -14.829
 INTER:                  -8.911
 INTRA:                  -5.918
 UNBOUND:                -5.578
 SMILES CC(=O)N[C@@H]1[C@@H](O)C[C@](O)(C(=O)O)O[C@H]1C(O)[C@H](O)CNC(=O)OCc1cn(C(C)(C)C(=O)O)nn1
 SMILES IDX 21 1 22 2 23 3 20 5 18 6 16 7 15 8 9 9 8 10 14 11 6 12 5 13
 SMILES IDX 10 14 11 16 12 17 13 18 7 20 4 22 2 23 1 25 3 26 17 27 19 29
 SMILES IDX 24 31 25 32 26 33 27 34 36 35 28 36 35 37 29 38 30 39 31 40
 SMILES IDX 32 41 33 42 34 43
 H PARENT 21 4 10 15 13 19 7 21 4 24 17 28 19 30 34 44
 Flexibility Score: inf
  4 active torsions:
  status: ('A' for Active; 'I' for Inactive)
    1  A    between atoms: CA   and  CB  
    2  A    between atoms: CB   and  CG  
    3  A    between atoms: CG   and  CD  
    4  A    between atoms: CD   and  CE  

>  <TORSDO>
F 17

>  <BEGIN_>
RES LYS A 131

$$$$
ligand_22_pose_2_2HRL.pdbqt
 OpenBabel07062320523D

  6  5  0  0  0  0  0  0  0  0999 V2000
   33.1930   34.6630    9.2900 C   0  0  0  0  0  0  0  0  0  0  0  0
   32.0600   35.3600   10.0340 C   0  0  0  0  0  0  0  0  0  0  0  0
   30.8550   35.6390    9.1730 C   0  0  0  0  0  0  0  0  0  0  0  0
   30.3150   34.3500    8.5720 C   0  0  0  0  0  0  0  0  0  0  0  0
   28.8160   34.4460    8.3660 C   0  0  0  0  0  0  0  0  0  0  0  0
   28.3550   35.8610    8.4260 N   0  0  0  0  0  0  0  0  0  0  0  0
  1  2  1  0  0  0  0
  3  2  1  0  0  0  0
  4  3  1  0  0  0  0
  5  6  1  0  0  0  0
  5  4  1  0  0  0  0
M  END
>  <EGIN_R>
ES LYS A 135

>  <REMARK>
  4 active torsions:
  status: ('A' for Active; 'I' for Inactive)
    5  A    between atoms: CA   and  CB  
    6  A    between atoms: CB   and  CG  
    7  A    between atoms: CG   and  CD  
    8  A    between atoms: CD   and  CE  

$$$$
