ligand_82_pose_17_2HRL.pdbqt
 OpenBabel07062320523D

 53 55  0  0  1  0  0  0  0  0999 V2000
   26.0990   29.3270   19.2680 N   0  0  0  0  0  0  0  0  0  0  0  0
   26.9300   28.4720   18.4650 C   0  0  0  0  0  0  0  0  0  0  0  0
   27.7400   27.7050   19.0450 O   0  0  0  0  0  0  0  0  0  0  0  0
   25.4260   29.9640   18.7920 H   0  0  0  0  0  0  0  0  0  0  0  0
   26.2120   29.2890   20.7110 C   0  0  0  0  0  0  0  0  0  0  0  0
   26.6120   30.6570   21.1850 C   0  0  2  0  0  0  0  0  0  0  0  0
   27.9850   30.6660   21.8200 C   0  0  1  0  0  0  0  0  0  0  0  0
   28.9960   30.7300   20.6980 C   0  0  2  0  0  0  0  0  0  0  0  0
   31.0000   30.0160   21.6160 C   0  0  2  0  0  0  0  0  0  0  0  0
   31.7080   31.3240   21.3460 C   0  0  0  0  0  0  0  0  0  0  0  0
   29.9590   29.7660   20.7550 O   0  0  0  0  0  0  0  0  0  0  0  0
   31.0050   32.0060   20.1980 C   0  0  1  0  0  0  0  0  0  0  0  0
   29.5450   32.1330   20.5820 C   0  0  1  0  0  0  0  0  0  0  0  0
   30.6140   29.9650   22.9590 O   0  0  0  0  0  0  0  0  0  0  0  0
   29.6310   30.1230   22.9630 H   0  0  0  0  0  0  0  0  0  0  0  0
   32.0100   28.9340   21.4210 C   0  0  0  0  0  0  0  0  0  0  0  0
   31.6390   27.7150   21.5160 O   0  0  0  0  0  0  0  0  0  0  0  0
   33.3350   29.1880   21.1420 O   0  0  0  0  0  0  0  0  0  0  0  0
   34.0600   28.4950   21.3060 H   0  0  0  0  0  0  0  0  0  0  0  0
   31.5040   33.2700   19.9490 O   0  0  0  0  0  0  0  0  0  0  0  0
   31.8550   33.6250   20.8040 H   0  0  0  0  0  0  0  0  0  0  0  0
   28.8160   32.9480   19.6450 N   0  0  0  0  0  0  0  0  0  0  0  0
   28.1020   34.1020   20.0560 C   0  0  0  0  0  0  0  0  0  0  0  0
   28.8260   32.6670   18.6410 H   0  0  0  0  0  0  0  0  0  0  0  0
   27.3750   34.8870   19.0200 C   0  0  0  0  0  0  0  0  0  0  0  0
   28.0870   34.4470   21.2640 O   0  0  0  0  0  0  0  0  0  0  0  0
   28.1570   31.7990   22.6100 O   0  0  0  0  0  0  0  0  0  0  0  0
   28.6260   31.6230   23.4430 H   0  0  0  0  0  0  0  0  0  0  0  0
   25.6700   31.0310   22.1680 O   0  0  0  0  0  0  0  0  0  0  0  0
   26.0450   31.7530   22.7470 H   0  0  0  0  0  0  0  0  0  0  0  0
   26.8780   28.4550   17.0980 O   0  0  0  0  0  0  0  0  0  0  0  0
   26.5850   29.5880   16.3000 C   0  0  0  0  0  0  0  0  0  0  0  0
   27.7080   30.5460   16.3430 C   0  0  0  0  0  0  0  0  0  0  0  0
   28.9430   30.4520   15.7470 C   0  0  0  0  0  0  0  0  0  0  0  0
   27.7060   31.7150   17.0010 N   0  0  0  0  0  0  0  0  0  0  0  0
   29.6710   31.5680   16.0520 N   0  0  0  0  0  0  0  0  0  0  0  0
   28.8860   32.3130   16.8160 N   0  0  0  0  0  0  0  0  0  0  0  0
   31.0170   31.8260   15.6040 C   0  0  0  0  0  0  0  0  0  0  0  0
   31.2310   33.2950   15.3560 C   0  0  0  0  0  0  0  0  0  0  0  0
   30.7350   33.8930   14.2760 C   0  0  0  0  0  0  0  0  0  0  0  0
   32.0010   34.1270   16.3030 C   0  0  2  0  0  0  0  0  0  0  0  0
   30.7660   35.3790   14.2080 C   0  0  0  0  0  0  0  0  0  0  0  0
   31.0990   35.3200   16.6500 C   0  0  0  0  0  0  0  0  0  0  0  0
   32.8540   35.1090   15.5260 C   0  0  0  0  0  0  0  0  0  0  0  0
   31.5710   35.9340   15.3420 C   0  0  1  0  0  0  0  0  0  0  0  0
   33.8330   35.8700   16.3750 C   0  0  0  0  0  0  0  0  0  0  0  0
   33.4550   34.5950   14.2620 C   0  0  0  0  0  0  0  0  0  0  0  0
   29.8670   25.5550   16.9770 C   0  0  0  0  0  0  0  0  0  0  0  0
   28.3450   25.7220   17.0260 C   0  0  0  0  0  0  0  0  0  0  0  0
   27.6020   24.4000   16.9130 C   0  0  0  0  0  0  0  0  0  0  0  0
   26.4990   24.2820   17.9290 C   0  0  0  0  0  0  0  0  0  0  0  0
   25.2870   25.0800   17.4600 C   0  0  0  0  0  0  0  0  0  0  0  0
   24.2090   24.1700   17.0090 N   0  0  0  0  0  0  0  0  0  0  0  0
  1  5  1  0  0  0  0
  2  3  2  0  0  0  0
  2  1  1  0  0  0  0
  4  1  1  0  0  0  0
  6  5  1  1  0  0  0
  6  7  1  0  0  0  0
  6 29  1  0  0  0  0
  7 27  1  1  0  0  0
  8 11  1  0  0  0  0
  8  7  1  1  0  0  0
  9 16  1  6  0  0  0
  9 14  1  0  0  0  0
 10  9  1  0  0  0  0
 11  9  1  0  0  0  0
 12 20  1  1  0  0  0
 12 13  1  0  0  0  0
 12 10  1  0  0  0  0
 13 22  1  6  0  0  0
 13  8  1  0  0  0  0
 14 15  1  0  0  0  0
 16 17  2  0  0  0  0
 18 19  1  0  0  0  0
 18 16  1  0  0  0  0
 20 21  1  0  0  0  0
 22 23  1  0  0  0  0
 23 26  2  0  0  0  0
 24 22  1  0  0  0  0
 25 23  1  0  0  0  0
 27 28  1  0  0  0  0
 29 30  1  0  0  0  0
 31  2  1  0  0  0  0
 32 33  1  0  0  0  0
 32 31  1  0  0  0  0
 33 35  1  0  0  0  0
 34 36  1  0  0  0  0
 34 33  2  0  0  0  0
 36 37  1  0  0  0  0
 37 35  2  0  0  0  0
 38 36  1  0  0  0  0
 39 38  1  0  0  0  0
 39 41  1  0  0  0  0
 40 39  2  0  0  0  0
 41 43  1  1  0  0  0
 42 40  1  0  0  0  0
 44 41  1  0  0  0  0
 44 46  1  0  0  0  0
 45 42  1  6  0  0  0
 45 44  1  0  0  0  0
 45 43  1  0  0  0  0
 47 44  1  0  0  0  0
 48 49  1  0  0  0  0
 50 49  1  0  0  0  0
 50 51  1  0  0  0  0
 52 51  1  0  0  0  0
 53 52  1  0  0  0  0
M  END
>  <REMARK>
 VINA RESULT:    -5.260      1.827      3.462
 INTER + INTRA:         -14.747
 INTER:                  -7.853
 INTRA:                  -6.895
 UNBOUND:                -5.337
 SMILES CC(=O)N[C@@H]1[C@@H](O)C[C@](O)(C(=O)O)O[C@H]1C(O)[C@H](O)CNC(=O)OCc1cn(CC2=CC[C@H]3C[C@@H]2C3(C)C)nn1
 SMILES IDX 21 1 22 2 23 3 20 5 18 6 16 7 15 8 9 9 8 10 14 11 6 12 5 13
 SMILES IDX 10 14 11 16 12 17 13 18 7 20 4 22 2 23 1 25 3 26 17 27 19 29
 SMILES IDX 24 31 25 32 26 33 27 34 40 35 28 36 39 37 29 38 30 39 31 40
 SMILES IDX 35 41 32 42 34 43 36 44 33 45 37 46 38 47
 H PARENT 21 4 10 15 13 19 7 21 4 24 17 28 19 30
 Flexibility Score: inf
  4 active torsions:
  status: ('A' for Active; 'I' for Inactive)
    1  A    between atoms: CA   and  CB  
    2  A    between atoms: CB   and  CG  
    3  A    between atoms: CG   and  CD  
    4  A    between atoms: CD   and  CE  

>  <TORSDO>
F 16

>  <BEGIN_>
RES LYS A 131

$$$$
ligand_82_pose_17_2HRL.pdbqt
 OpenBabel07062320523D

  6  5  0  0  0  0  0  0  0  0999 V2000
   33.1930   34.6630    9.2900 C   0  0  0  0  0  0  0  0  0  0  0  0
   32.0600   35.3600   10.0340 C   0  0  0  0  0  0  0  0  0  0  0  0
   30.7310   34.6620    9.8990 C   0  0  0  0  0  0  0  0  0  0  0  0
   30.3230   34.5620    8.4370 C   0  0  0  0  0  0  0  0  0  0  0  0
   28.8130   34.5520    8.3060 C   0  0  0  0  0  0  0  0  0  0  0  0
   28.1780   33.8500    9.4560 N   0  0  0  0  0  0  0  0  0  0  0  0
  1  2  1  0  0  0  0
  3  2  1  0  0  0  0
  4  3  1  0  0  0  0
  5  4  1  0  0  0  0
  5  6  1  0  0  0  0
M  END
>  <EGIN_R>
ES LYS A 135

>  <REMARK>
  4 active torsions:
  status: ('A' for Active; 'I' for Inactive)
    5  A    between atoms: CA   and  CB  
    6  A    between atoms: CB   and  CG  
    7  A    between atoms: CG   and  CD  
    8  A    between atoms: CD   and  CE  

$$$$
