ligand_12_pose_12_2HRL.pdbqt
 OpenBabel07062320523D

 52 53  0  0  1  0  0  0  0  0999 V2000
   29.0250   30.6200   17.7940 N   0  0  0  0  0  0  0  0  0  0  0  0
   28.4670   30.2980   19.0650 C   0  0  0  0  0  0  0  0  0  0  0  0
   29.1310   30.4600   20.1340 O   0  0  0  0  0  0  0  0  0  0  0  0
   28.4560   30.4770   16.9450 H   0  0  0  0  0  0  0  0  0  0  0  0
   30.3790   31.1380   17.7770 C   0  0  0  0  0  0  0  0  0  0  0  0
   30.4640   32.4830   17.1080 C   0  0  2  0  0  0  0  0  0  0  0  0
   30.8420   32.3130   15.6520 C   0  0  2  0  0  0  0  0  0  0  0  0
   31.0190   33.6160   14.9440 C   0  0  2  0  0  0  0  0  0  0  0  0
   32.5850   35.3180   14.6660 C   0  0  2  0  0  0  0  0  0  0  0  0
   31.3900   36.1750   14.2720 C   0  0  0  0  0  0  0  0  0  0  0  0
   32.2220   34.1730   15.3660 O   0  0  0  0  0  0  0  0  0  0  0  0
   30.3410   35.9780   15.3440 C   0  0  1  0  0  0  0  0  0  0  0  0
   29.8520   34.5480   15.1850 C   0  0  1  0  0  0  0  0  0  0  0  0
   33.3220   36.0950   15.5570 O   0  0  0  0  0  0  0  0  0  0  0  0
   32.7420   36.6120   16.1700 H   0  0  0  0  0  0  0  0  0  0  0  0
   33.4190   35.0240   13.4940 C   0  0  0  0  0  0  0  0  0  0  0  0
   33.1950   35.6190   12.4110 O   0  0  0  0  0  0  0  0  0  0  0  0
   34.4630   34.1070   13.5070 O   0  0  0  0  0  0  0  0  0  0  0  0
   35.4110   34.4700   13.4790 H   0  0  0  0  0  0  0  0  0  0  0  0
   30.8660   36.1760   16.6180 O   0  0  0  0  0  0  0  0  0  0  0  0
   30.7600   35.3210   17.1390 H   0  0  0  0  0  0  0  0  0  0  0  0
   28.9830   34.5260   14.0280 N   0  0  0  0  0  0  0  0  0  0  0  0
   27.5720   34.5260   14.1960 C   0  0  0  0  0  0  0  0  0  0  0  0
   29.3360   34.5120   13.0400 H   0  0  0  0  0  0  0  0  0  0  0  0
   26.6320   34.5060   13.0420 C   0  0  0  0  0  0  0  0  0  0  0  0
   27.0640   34.5430   15.3470 O   0  0  0  0  0  0  0  0  0  0  0  0
   29.9750   31.4370   15.0470 O   0  0  0  0  0  0  0  0  0  0  0  0
   29.5250   30.9130   15.7690 H   0  0  0  0  0  0  0  0  0  0  0  0
   31.3870   33.2680   17.7870 O   0  0  0  0  0  0  0  0  0  0  0  0
   32.2990   33.1030   17.4280 H   0  0  0  0  0  0  0  0  0  0  0  0
   27.1800   29.7960   19.2030 O   0  0  0  0  0  0  0  0  0  0  0  0
   26.7120   28.6380   18.5410 C   0  0  0  0  0  0  0  0  0  0  0  0
   25.8160   28.9490   17.4060 C   0  0  0  0  0  0  0  0  0  0  0  0
   25.9920   29.7810   16.3200 C   0  0  0  0  0  0  0  0  0  0  0  0
   24.5890   28.4240   17.2450 N   0  0  0  0  0  0  0  0  0  0  0  0
   24.8830   29.7410   15.5410 N   0  0  0  0  0  0  0  0  0  0  0  0
   24.0590   28.9040   16.1410 N   0  0  0  0  0  0  0  0  0  0  0  0
   24.6460   30.4740   14.2880 C   0  0  0  0  0  0  0  0  0  0  0  0
   23.3170   30.8860   14.2420 O   0  0  0  0  0  0  0  0  0  0  0  0
   22.9170   31.2410   12.9750 C   0  0  0  0  0  0  0  0  0  0  0  0
   21.6430   30.6320   12.5420 C   0  0  0  0  0  0  0  0  0  0  0  0
   21.5820   29.2770   12.2880 C   0  0  0  0  0  0  0  0  0  0  0  0
   20.5080   31.3880   12.3910 C   0  0  0  0  0  0  0  0  0  0  0  0
   20.3860   28.6790   11.8830 C   0  0  0  0  0  0  0  0  0  0  0  0
   19.3240   30.7900   11.9890 C   0  0  0  0  0  0  0  0  0  0  0  0
   19.2540   29.4560   11.7360 C   0  0  0  0  0  0  0  0  0  0  0  0
   29.8670   25.5550   16.9770 C   0  0  0  0  0  0  0  0  0  0  0  0
   28.3450   25.7220   17.0260 C   0  0  0  0  0  0  0  0  0  0  0  0
   27.5990   24.4500   16.6540 C   0  0  0  0  0  0  0  0  0  0  0  0
   26.7850   23.9150   17.8000 C   0  0  0  0  0  0  0  0  0  0  0  0
   26.2940   25.0750   18.6610 C   0  0  0  0  0  0  0  0  0  0  0  0
   24.8150   25.0630   18.7510 N   0  0  0  0  0  0  0  0  0  0  0  0
  1  2  1  0  0  0  0
  2 31  1  0  0  0  0
  2  3  2  0  0  0  0
  4  1  1  0  0  0  0
  5  1  1  0  0  0  0
  6  5  1  1  0  0  0
  6 29  1  0  0  0  0
  7 27  1  6  0  0  0
  7  6  1  0  0  0  0
  8 13  1  0  0  0  0
  8 11  1  0  0  0  0
  8  7  1  1  0  0  0
  9 16  1  6  0  0  0
  9 11  1  0  0  0  0
  9 14  1  0  0  0  0
 10  9  1  0  0  0  0
 10 12  1  0  0  0  0
 12 20  1  1  0  0  0
 13 22  1  6  0  0  0
 13 12  1  0  0  0  0
 14 15  1  0  0  0  0
 16 18  1  0  0  0  0
 17 16  2  0  0  0  0
 19 18  1  0  0  0  0
 20 21  1  0  0  0  0
 22 23  1  0  0  0  0
 23 26  2  0  0  0  0
 24 22  1  0  0  0  0
 25 23  1  0  0  0  0
 27 28  1  0  0  0  0
 30 29  1  0  0  0  0
 32 31  1  0  0  0  0
 33 32  1  0  0  0  0
 34 33  2  0  0  0  0
 35 33  1  0  0  0  0
 36 37  1  0  0  0  0
 36 34  1  0  0  0  0
 37 35  2  0  0  0  0
 38 36  1  0  0  0  0
 39 38  1  0  0  0  0
 40 39  1  0  0  0  0
 41 40  1  0  0  0  0
 42 41  2  0  0  0  0
 43 41  1  0  0  0  0
 44 42  1  0  0  0  0
 45 43  2  0  0  0  0
 46 44  2  0  0  0  0
 46 45  1  0  0  0  0
 47 48  1  0  0  0  0
 49 48  1  0  0  0  0
 49 50  1  0  0  0  0
 50 51  1  0  0  0  0
 51 52  1  0  0  0  0
M  END
>  <REMARK>
 VINA RESULT:    -6.005      5.371      8.791
 INTER + INTRA:         -15.220
 INTER:                 -10.012
 INTRA:                  -5.208
 UNBOUND:                -3.774
 SMILES CC(=O)N[C@@H]1[C@@H](O)C[C@](O)(C(=O)O)O[C@H]1C(O)[C@H](O)CNC(=O)OCc1cn(COCc2ccccc2)nn1
 SMILES IDX 21 1 22 2 23 3 20 5 18 6 16 7 15 8 9 9 8 10 14 11 6 12 5 13
 SMILES IDX 10 14 11 16 12 17 13 18 7 20 4 22 2 23 1 25 3 26 17 27 19 29
 SMILES IDX 24 31 25 32 26 33 27 34 39 35 28 36 38 37 29 38 30 39 31 40
 SMILES IDX 32 41 33 42 37 43 34 44 36 45 35 46
 H PARENT 21 4 10 15 13 19 7 21 4 24 17 28 19 30
 Flexibility Score: inf
  4 active torsions:
  status: ('A' for Active; 'I' for Inactive)
    1  A    between atoms: CA   and  CB  
    2  A    between atoms: CB   and  CG  
    3  A    between atoms: CG   and  CD  
    4  A    between atoms: CD   and  CE  

>  <TORSDO>
F 18

>  <BEGIN_>
RES LYS A 131

$$$$
ligand_12_pose_12_2HRL.pdbqt
 OpenBabel07062320523D

  6  5  0  0  0  0  0  0  0  0999 V2000
   33.1930   34.6630    9.2900 C   0  0  0  0  0  0  0  0  0  0  0  0
   32.0600   35.3600   10.0340 C   0  0  0  0  0  0  0  0  0  0  0  0
   30.8810   35.6960    9.1580 C   0  0  0  0  0  0  0  0  0  0  0  0
   30.3780   34.4560    8.4360 C   0  0  0  0  0  0  0  0  0  0  0  0
   28.8640   34.4670    8.3490 C   0  0  0  0  0  0  0  0  0  0  0  0
   28.2560   33.7440    9.5000 N   0  0  0  0  0  0  0  0  0  0  0  0
  1  2  1  0  0  0  0
  3  2  1  0  0  0  0
  4  3  1  0  0  0  0
  5  4  1  0  0  0  0
  5  6  1  0  0  0  0
M  END
>  <EGIN_R>
ES LYS A 135

>  <REMARK>
  4 active torsions:
  status: ('A' for Active; 'I' for Inactive)
    5  A    between atoms: CA   and  CB  
    6  A    between atoms: CB   and  CG  
    7  A    between atoms: CG   and  CD  
    8  A    between atoms: CD   and  CE  

$$$$
