ligand_3_pose_15_2HRL.pdbqt
 OpenBabel07062320523D

 49 50  0  0  1  0  0  0  0  0999 V2000
   31.7740   35.8440   18.6980 C   0  0  0  0  0  0  0  0  0  0  0  0
   31.7080   34.3320   18.7760 C   0  0  2  0  0  0  0  0  0  0  0  0
   31.4760   33.7070   17.4180 C   0  0  1  0  0  0  0  0  0  0  0  0
   30.0290   33.6020   17.0700 C   0  0  2  0  0  0  0  0  0  0  0  0
   29.3890   31.3500   17.2670 C   0  0  2  0  0  0  0  0  0  0  0  0
   29.5160   31.1000   15.8050 C   0  0  0  0  0  0  0  0  0  0  0  0
   29.3400   32.6250   17.6870 O   0  0  0  0  0  0  0  0  0  0  0  0
   30.0970   32.2370   15.0180 C   0  0  1  0  0  0  0  0  0  0  0  0
   29.7690   33.5790   15.5910 C   0  0  1  0  0  0  0  0  0  0  0  0
   30.5010   30.7300   17.8760 O   0  0  0  0  0  0  0  0  0  0  0  0
   30.9410   30.1740   17.1730 H   0  0  0  0  0  0  0  0  0  0  0  0
   28.1990   30.6340   17.8000 C   0  0  0  0  0  0  0  0  0  0  0  0
   27.3490   31.1890   18.5300 O   0  0  0  0  0  0  0  0  0  0  0  0
   28.0050   29.3060   17.4880 O   0  0  0  0  0  0  0  0  0  0  0  0
   27.3610   28.6930   17.9720 H   0  0  0  0  0  0  0  0  0  0  0  0
   31.4920   32.0910   14.9130 O   0  0  0  0  0  0  0  0  0  0  0  0
   31.7490   31.4480   14.2240 H   0  0  0  0  0  0  0  0  0  0  0  0
   28.3330   33.7970   15.4020 N   0  0  0  0  0  0  0  0  0  0  0  0
   27.8210   34.4370   14.2400 C   0  0  0  0  0  0  0  0  0  0  0  0
   27.6410   33.4880   16.1170 H   0  0  0  0  0  0  0  0  0  0  0  0
   26.3670   34.6670   14.0290 C   0  0  0  0  0  0  0  0  0  0  0  0
   28.5970   34.8390   13.3300 O   0  0  0  0  0  0  0  0  0  0  0  0
   32.1540   34.5370   16.5110 O   0  0  0  0  0  0  0  0  0  0  0  0
   31.4260   34.9730   15.9750 H   0  0  0  0  0  0  0  0  0  0  0  0
   30.8070   33.9120   19.7400 O   0  0  0  0  0  0  0  0  0  0  0  0
   31.2260   33.7200   20.6040 H   0  0  0  0  0  0  0  0  0  0  0  0
   33.0840   36.3730   18.9100 N   0  0  0  0  0  0  0  0  0  0  0  0
   33.8180   37.0810   17.9210 C   0  0  0  0  0  0  0  0  0  0  0  0
   33.5580   36.2500   19.8360 H   0  0  0  0  0  0  0  0  0  0  0  0
   33.3510   37.2830   16.7930 O   0  0  0  0  0  0  0  0  0  0  0  0
   35.0920   37.5740   18.1800 O   0  0  0  0  0  0  0  0  0  0  0  0
   35.9840   36.8350   19.0000 C   0  0  0  0  0  0  0  0  0  0  0  0
   36.7980   35.9780   18.1080 C   0  0  0  0  0  0  0  0  0  0  0  0
   37.0010   36.1400   16.7560 C   0  0  0  0  0  0  0  0  0  0  0  0
   37.4830   34.8800   18.4850 N   0  0  0  0  0  0  0  0  0  0  0  0
   37.8010   35.1310   16.3750 N   0  0  0  0  0  0  0  0  0  0  0  0
   38.0830   34.3830   17.4220 N   0  0  0  0  0  0  0  0  0  0  0  0
   38.2630   34.9180   15.0460 C   0  0  0  0  0  0  0  0  0  0  0  0
   39.2170   35.7690   14.5170 C   0  0  0  0  0  0  0  0  0  0  0  0
   37.7680   33.8750   14.2860 C   0  0  0  0  0  0  0  0  0  0  0  0
   39.6440   35.5340   13.2220 C   0  0  0  0  0  0  0  0  0  0  0  0
   38.2030   33.6550   13.0040 C   0  0  0  0  0  0  0  0  0  0  0  0
   39.1520   34.4990   12.4710 C   0  0  0  0  0  0  0  0  0  0  0  0
   29.8670   25.5550   16.9770 C   0  0  0  0  0  0  0  0  0  0  0  0
   28.3450   25.7220   17.0260 C   0  0  0  0  0  0  0  0  0  0  0  0
   27.6010   24.4020   16.8910 C   0  0  0  0  0  0  0  0  0  0  0  0
   26.1800   24.5010   17.3730 C   0  0  0  0  0  0  0  0  0  0  0  0
   26.0170   25.7570   18.2230 C   0  0  0  0  0  0  0  0  0  0  0  0
   25.6040   25.4000   19.6010 N   0  0  0  0  0  0  0  0  0  0  0  0
  1 27  1  0  0  0  0
  2  1  1  6  0  0  0
  2 25  1  0  0  0  0
  3 23  1  6  0  0  0
  3  2  1  0  0  0  0
  4  3  1  6  0  0  0
  4  7  1  0  0  0  0
  5  7  1  0  0  0  0
  5 12  1  1  0  0  0
  5 10  1  0  0  0  0
  6  5  1  0  0  0  0
  8 16  1  1  0  0  0
  8  9  1  0  0  0  0
  8  6  1  0  0  0  0
  9 18  1  1  0  0  0
  9  4  1  0  0  0  0
 11 10  1  0  0  0  0
 12 13  2  0  0  0  0
 14 12  1  0  0  0  0
 14 15  1  0  0  0  0
 17 16  1  0  0  0  0
 18 20  1  0  0  0  0
 19 18  1  0  0  0  0
 21 19  1  0  0  0  0
 22 19  2  0  0  0  0
 24 23  1  0  0  0  0
 25 26  1  0  0  0  0
 27 29  1  0  0  0  0
 28 31  1  0  0  0  0
 28 27  1  0  0  0  0
 30 28  2  0  0  0  0
 31 32  1  0  0  0  0
 33 35  1  0  0  0  0
 33 32  1  0  0  0  0
 34 33  2  0  0  0  0
 36 34  1  0  0  0  0
 36 37  1  0  0  0  0
 37 35  2  0  0  0  0
 38 36  1  0  0  0  0
 39 38  1  0  0  0  0
 40 38  2  0  0  0  0
 41 39  2  0  0  0  0
 42 40  1  0  0  0  0
 43 42  2  0  0  0  0
 43 41  1  0  0  0  0
 44 45  1  0  0  0  0
 46 45  1  0  0  0  0
 46 47  1  0  0  0  0
 47 48  1  0  0  0  0
 48 49  1  0  0  0  0
M  END
>  <REMARK>
 VINA RESULT:    -5.238      8.224     13.448
 INTER + INTRA:         -13.550
 INTER:                  -8.671
 INTRA:                  -4.879
 UNBOUND:                -4.485
 SMILES CC(=O)N[C@@H]1[C@@H](O)C[C@](O)(C(=O)O)O[C@H]1C(O)[C@H](O)CNC(=O)OCc1cn(-c2ccccc2)nn1
 SMILES IDX 20 1 18 2 16 3 15 4 9 5 8 6 14 7 6 8 5 9 10 10 11 12 12 13
 SMILES IDX 13 14 7 16 4 18 2 19 1 21 3 22 17 23 19 25 21 27 22 28 23 30
 SMILES IDX 24 31 25 32 26 33 27 34 36 35 28 36 35 37 29 38 30 39 34 40
 SMILES IDX 31 41 33 42 32 43
 H PARENT 10 11 13 15 7 17 4 20 17 24 19 26 21 29
 Flexibility Score: inf
  4 active torsions:
  status: ('A' for Active; 'I' for Inactive)
    1  A    between atoms: CA   and  CB  
    2  A    between atoms: CB   and  CG  
    3  A    between atoms: CG   and  CD  
    4  A    between atoms: CD   and  CE  

>  <TORSDO>
F 15

>  <BEGIN_>
RES LYS A 131

$$$$
ligand_3_pose_15_2HRL.pdbqt
 OpenBabel07062320523D

  6  5  0  0  0  0  0  0  0  0999 V2000
   33.1930   34.6630    9.2900 C   0  0  0  0  0  0  0  0  0  0  0  0
   32.0600   35.3600   10.0340 C   0  0  0  0  0  0  0  0  0  0  0  0
   30.7160   34.7090    9.8320 C   0  0  0  0  0  0  0  0  0  0  0  0
   30.1850   34.9960    8.4360 C   0  0  0  0  0  0  0  0  0  0  0  0
   28.7140   34.6400    8.3420 C   0  0  0  0  0  0  0  0  0  0  0  0
   28.0770   35.2960    7.1660 N   0  0  0  0  0  0  0  0  0  0  0  0
  1  2  1  0  0  0  0
  3  2  1  0  0  0  0
  4  3  1  0  0  0  0
  5  4  1  0  0  0  0
  6  5  1  0  0  0  0
M  END
>  <EGIN_R>
ES LYS A 135

>  <REMARK>
  4 active torsions:
  status: ('A' for Active; 'I' for Inactive)
    5  A    between atoms: CA   and  CB  
    6  A    between atoms: CB   and  CG  
    7  A    between atoms: CG   and  CD  
    8  A    between atoms: CD   and  CE  

$$$$
