ligand_17_pose_5_2HRL.pdbqt
 OpenBabel07062320523D

 50 50  0  0  1  0  0  0  0  0999 V2000
   28.3830   35.0330    7.2630 N   0  0  0  0  0  0  0  0  0  0  0  0
   29.2340   34.4790    8.2670 C   0  0  0  0  0  0  0  0  0  0  0  0
   30.4690   34.5920    8.1700 O   0  0  0  0  0  0  0  0  0  0  0  0
   27.3670   34.9000    7.4070 H   0  0  0  0  0  0  0  0  0  0  0  0
   28.8610   35.7340    6.1120 C   0  0  0  0  0  0  0  0  0  0  0  0
   28.3390   37.1390    5.9930 C   0  0  2  0  0  0  0  0  0  0  0  0
   28.2770   37.7950    7.3540 C   0  0  1  0  0  0  0  0  0  0  0  0
   28.7450   39.2210    7.3030 C   0  0  2  0  0  0  0  0  0  0  0  0
   30.8870   38.8420    8.1990 C   0  0  2  0  0  0  0  0  0  0  0  0
   30.3760   39.3370    9.5450 C   0  0  0  0  0  0  0  0  0  0  0  0
   30.1080   39.2400    7.1520 O   0  0  0  0  0  0  0  0  0  0  0  0
   29.4650   40.5320    9.2470 C   0  0  1  0  0  0  0  0  0  0  0  0
   28.3010   40.0160    8.4800 C   0  0  1  0  0  0  0  0  0  0  0  0
   31.0800   37.4680    8.3110 O   0  0  0  0  0  0  0  0  0  0  0  0
   30.4660   37.0750    8.9940 H   0  0  0  0  0  0  0  0  0  0  0  0
   32.2340   39.4620    7.9850 C   0  0  0  0  0  0  0  0  0  0  0  0
   32.7390   40.2610    8.8020 O   0  0  0  0  0  0  0  0  0  0  0  0
   32.9410   39.1370    6.8470 O   0  0  0  0  0  0  0  0  0  0  0  0
   33.8960   39.4370    6.6750 H   0  0  0  0  0  0  0  0  0  0  0  0
   29.1130   41.1070   10.4670 O   0  0  0  0  0  0  0  0  0  0  0  0
   28.1750   40.7890   10.6610 H   0  0  0  0  0  0  0  0  0  0  0  0
   27.3410   41.0480    8.1370 N   0  0  0  0  0  0  0  0  0  0  0  0
   25.9560   40.9620    8.4580 C   0  0  0  0  0  0  0  0  0  0  0  0
   27.6360   41.9270    7.6240 H   0  0  0  0  0  0  0  0  0  0  0  0
   25.0090   42.0580    8.0790 C   0  0  0  0  0  0  0  0  0  0  0  0
   25.5130   39.9660    9.0610 O   0  0  0  0  0  0  0  0  0  0  0  0
   26.9250   37.7000    7.7310 O   0  0  0  0  0  0  0  0  0  0  0  0
   26.5570   36.9430    7.2030 H   0  0  0  0  0  0  0  0  0  0  0  0
   27.1700   37.1610    5.2890 O   0  0  0  0  0  0  0  0  0  0  0  0
   26.4140   36.9300    5.8840 H   0  0  0  0  0  0  0  0  0  0  0  0
   28.7400   33.8060    9.3710 O   0  0  0  0  0  0  0  0  0  0  0  0
   28.2780   34.4880   10.5300 C   0  0  0  0  0  0  0  0  0  0  0  0
   26.9580   35.0880   10.2110 C   0  0  0  0  0  0  0  0  0  0  0  0
   26.3310   36.0430   11.0100 C   0  0  0  0  0  0  0  0  0  0  0  0
   26.1250   34.8830    9.1820 N   0  0  0  0  0  0  0  0  0  0  0  0
   25.1750   36.3620   10.4360 N   0  0  0  0  0  0  0  0  0  0  0  0
   25.0620   35.6550    9.3320 N   0  0  0  0  0  0  0  0  0  0  0  0
   24.2120   37.3100   10.9290 C   0  0  0  0  0  0  0  0  0  0  0  0
   22.9130   37.1270   10.1650 C   0  0  0  0  0  0  0  0  0  0  0  0
   22.6570   38.1620    9.2160 N   0  0  0  0  0  0  0  0  0  0  0  0
   21.6350   39.0830    9.5870 C   0  0  0  0  0  0  0  0  0  0  0  0
   21.7130   40.2590    8.6030 C   0  0  0  0  0  0  0  0  0  0  0  0
   22.6530   37.7130    7.8650 C   0  0  0  0  0  0  0  0  0  0  0  0
   21.6980   36.5930    7.5920 C   0  0  0  0  0  0  0  0  0  0  0  0
   29.8670   25.5550   16.9770 C   0  0  0  0  0  0  0  0  0  0  0  0
   28.3450   25.7220   17.0260 C   0  0  0  0  0  0  0  0  0  0  0  0
   27.6010   24.4040   16.8760 C   0  0  0  0  0  0  0  0  0  0  0  0
   26.1550   24.5220   17.2710 C   0  0  0  0  0  0  0  0  0  0  0  0
   25.7970   23.3950   18.2350 C   0  0  0  0  0  0  0  0  0  0  0  0
   25.0290   22.3380   17.5350 N   0  0  0  0  0  0  0  0  0  0  0  0
  1  4  1  0  0  0  0
  1  2  1  0  0  0  0
  2 31  1  0  0  0  0
  3  2  2  0  0  0  0
  5  1  1  0  0  0  0
  6  5  1  1  0  0  0
  6  7  1  0  0  0  0
  7 27  1  6  0  0  0
  8  7  1  1  0  0  0
  8 13  1  0  0  0  0
  9 16  1  6  0  0  0
  9 14  1  0  0  0  0
  9 10  1  0  0  0  0
 11  8  1  0  0  0  0
 11  9  1  0  0  0  0
 12 10  1  0  0  0  0
 12 20  1  1  0  0  0
 13 22  1  6  0  0  0
 13 12  1  0  0  0  0
 14 15  1  0  0  0  0
 16 17  2  0  0  0  0
 18 16  1  0  0  0  0
 19 18  1  0  0  0  0
 20 21  1  0  0  0  0
 22 23  1  0  0  0  0
 23 26  2  0  0  0  0
 24 22  1  0  0  0  0
 25 23  1  0  0  0  0
 28 27  1  0  0  0  0
 29 30  1  0  0  0  0
 29  6  1  0  0  0  0
 31 32  1  0  0  0  0
 33 32  1  0  0  0  0
 33 34  2  0  0  0  0
 35 37  2  0  0  0  0
 35 33  1  0  0  0  0
 36 38  1  0  0  0  0
 36 34  1  0  0  0  0
 37 36  1  0  0  0  0
 39 38  1  0  0  0  0
 40 41  1  0  0  0  0
 40 39  1  0  0  0  0
 42 41  1  0  0  0  0
 43 40  1  0  0  0  0
 44 43  1  0  0  0  0
 45 46  1  0  0  0  0
 47 46  1  0  0  0  0
 47 48  1  0  0  0  0
 48 49  1  0  0  0  0
 50 49  1  0  0  0  0
M  END
>  <REMARK>
 VINA RESULT:    -3.669      7.491     12.982
 INTER + INTRA:         -14.365
 INTER:                  -9.121
 INTRA:                  -5.244
 UNBOUND:                -7.158
 SMILES CCN(CC)CCn1cc(COC(=O)NC[C@@H](O)C(O)[C@@H]2O[C@@](O)(C(=O)O)C[C@H](O)[C@H]2NC(C)=O)nn1
 SMILES IDX 15 1 13 2 14 3 16 5 17 6 19 7 21 8 23 9 28 10 22 11 29 12
 SMILES IDX 31 13 24 14 25 16 26 17 27 18 30 20 32 22 33 23 34 25 35 26
 SMILES IDX 20 27 18 29 12 31 11 32 10 33 9 34 36 35 8 36 37 37 7 38
 SMILES IDX 6 39 3 40 2 41 1 42 4 43 5 44
 H PARENT 15 4 24 15 27 19 30 21 32 24 20 28 18 30
 Flexibility Score: inf
  4 active torsions:
  status: ('A' for Active; 'I' for Inactive)
    1  A    between atoms: CA   and  CB  
    2  A    between atoms: CB   and  CG  
    3  A    between atoms: CG   and  CD  
    4  A    between atoms: CD   and  CE  

>  <TORSDO>
F 19

>  <BEGIN_>
RES LYS A 131

$$$$
ligand_17_pose_5_2HRL.pdbqt
 OpenBabel07062320523D

  6  5  0  0  0  0  0  0  0  0999 V2000
   33.1930   34.6630    9.2900 C   0  0  0  0  0  0  0  0  0  0  0  0
   32.0600   35.3600   10.0340 C   0  0  0  0  0  0  0  0  0  0  0  0
   32.5330   36.2610   11.1450 C   0  0  0  0  0  0  0  0  0  0  0  0
   31.5200   36.2940   12.2780 C   0  0  0  0  0  0  0  0  0  0  0  0
   31.6950   35.0900   13.1840 C   0  0  0  0  0  0  0  0  0  0  0  0
   30.3990   34.3910   13.4030 N   0  0  0  0  0  0  0  0  0  0  0  0
  1  2  1  0  0  0  0
  2  3  1  0  0  0  0
  3  4  1  0  0  0  0
  4  5  1  0  0  0  0
  5  6  1  0  0  0  0
M  END
>  <EGIN_R>
ES LYS A 135

>  <REMARK>
  4 active torsions:
  status: ('A' for Active; 'I' for Inactive)
    5  A    between atoms: CA   and  CB  
    6  A    between atoms: CB   and  CG  
    7  A    between atoms: CG   and  CD  
    8  A    between atoms: CD   and  CE  

$$$$
