ligand_9_pose_19_2HRL.pdbqt
 OpenBabel07062320523D

 54 55  0  0  1  0  0  0  0  0999 V2000
   30.5720   35.5490   13.3450 N   0  0  0  0  0  0  0  0  0  0  0  0
   30.3090   36.8640   13.8150 C   0  0  0  0  0  0  0  0  0  0  0  0
   30.5360   37.1240   15.0220 O   0  0  0  0  0  0  0  0  0  0  0  0
   30.3770   35.3550   12.3420 H   0  0  0  0  0  0  0  0  0  0  0  0
   31.0880   34.5200   14.2240 C   0  0  0  0  0  0  0  0  0  0  0  0
   30.1730   33.3470   14.3460 C   0  0  2  0  0  0  0  0  0  0  0  0
   28.9120   33.6410   15.0920 C   0  0  1  0  0  0  0  0  0  0  0  0
   28.4780   32.4090   15.9280 C   0  0  2  0  0  0  0  0  0  0  0  0
   26.8580   30.8370   16.0860 C   0  0  2  0  0  0  0  0  0  0  0  0
   26.3930   31.3040   17.4470 C   0  0  0  0  0  0  0  0  0  0  0  0
   27.3280   31.9030   15.3840 O   0  0  0  0  0  0  0  0  0  0  0  0
   27.4730   31.9970   18.2200 C   0  0  1  0  0  0  0  0  0  0  0  0
   28.4230   32.7830   17.3630 C   0  0  1  0  0  0  0  0  0  0  0  0
   25.6730   30.4080   15.4250 O   0  0  0  0  0  0  0  0  0  0  0  0
   25.7570   29.5040   15.0730 H   0  0  0  0  0  0  0  0  0  0  0  0
   27.7500   29.6750   16.2030 C   0  0  0  0  0  0  0  0  0  0  0  0
   27.4770   28.6530   16.9200 O   0  0  0  0  0  0  0  0  0  0  0  0
   28.9630   29.6930   15.4880 O   0  0  0  0  0  0  0  0  0  0  0  0
   29.0930   28.9710   14.7700 H   0  0  0  0  0  0  0  0  0  0  0  0
   26.8810   32.7960   19.1960 O   0  0  0  0  0  0  0  0  0  0  0  0
   27.0180   32.4440   20.1120 H   0  0  0  0  0  0  0  0  0  0  0  0
   29.7650   32.7870   17.9160 N   0  0  0  0  0  0  0  0  0  0  0  0
   30.1640   33.7140   18.9140 C   0  0  0  0  0  0  0  0  0  0  0  0
   30.4550   32.0650   17.5510 H   0  0  0  0  0  0  0  0  0  0  0  0
   31.5560   33.6570   19.4320 C   0  0  0  0  0  0  0  0  0  0  0  0
   29.3480   34.5870   19.3680 O   0  0  0  0  0  0  0  0  0  0  0  0
   28.9720   34.7190   15.9390 O   0  0  0  0  0  0  0  0  0  0  0  0
   28.8430   35.5900   15.5220 H   0  0  0  0  0  0  0  0  0  0  0  0
   30.8530   32.2320   14.8300 O   0  0  0  0  0  0  0  0  0  0  0  0
   30.6090   31.4630   14.2470 H   0  0  0  0  0  0  0  0  0  0  0  0
   29.8150   37.8810   13.0170 O   0  0  0  0  0  0  0  0  0  0  0  0
   30.0460   37.9190   11.6210 C   0  0  0  0  0  0  0  0  0  0  0  0
   28.7970   37.6540   10.8810 C   0  0  0  0  0  0  0  0  0  0  0  0
   27.6800   36.9470   11.2920 C   0  0  0  0  0  0  0  0  0  0  0  0
   28.4990   38.0600    9.6280 N   0  0  0  0  0  0  0  0  0  0  0  0
   26.7640   36.9480   10.3010 N   0  0  0  0  0  0  0  0  0  0  0  0
   27.3070   37.6420    9.2970 N   0  0  0  0  0  0  0  0  0  0  0  0
   25.4830   36.3540   10.2730 C   0  0  0  0  0  0  0  0  0  0  0  0
   25.0080   35.6100   11.3370 C   0  0  0  0  0  0  0  0  0  0  0  0
   24.6550   36.4950    9.1810 C   0  0  0  0  0  0  0  0  0  0  0  0
   23.7630   35.0140   11.3500 C   0  0  0  0  0  0  0  0  0  0  0  0
   23.3930   35.9070    9.1650 C   0  0  0  0  0  0  0  0  0  0  0  0
   22.9620   35.1760   10.2430 C   0  0  0  0  0  0  0  0  0  0  0  0
   23.2870   34.2350   12.4870 C   0  0  0  0  0  0  0  0  0  0  0  0
   23.6110   34.5820   13.6490 O   0  0  0  0  0  0  0  0  0  0  0  0
   22.4830   33.1170   12.3420 O   0  0  0  0  0  0  0  0  0  0  0  0
   22.4200   32.0900   13.3120 C   0  0  0  0  0  0  0  0  0  0  0  0
   23.2750   30.9440   12.8540 C   0  0  0  0  0  0  0  0  0  0  0  0
   29.8670   25.5550   16.9770 C   0  0  0  0  0  0  0  0  0  0  0  0
   28.3450   25.7220   17.0260 C   0  0  0  0  0  0  0  0  0  0  0  0
   27.6010   24.4040   16.8790 C   0  0  0  0  0  0  0  0  0  0  0  0
   26.1590   24.5180   17.2900 C   0  0  0  0  0  0  0  0  0  0  0  0
   25.8120   23.3840   18.2490 C   0  0  0  0  0  0  0  0  0  0  0  0
   24.9840   22.3620   17.5660 N   0  0  0  0  0  0  0  0  0  0  0  0
  1  2  1  0  0  0  0
  1  5  1  0  0  0  0
  2  3  2  0  0  0  0
  4  1  1  0  0  0  0
  6  5  1  1  0  0  0
  6 29  1  0  0  0  0
  6  7  1  0  0  0  0
  7 27  1  1  0  0  0
  8  7  1  6  0  0  0
  8 13  1  0  0  0  0
  9 14  1  6  0  0  0
  9 16  1  0  0  0  0
  9 10  1  0  0  0  0
 10 12  1  0  0  0  0
 11  8  1  0  0  0  0
 11  9  1  0  0  0  0
 12 20  1  1  0  0  0
 13 22  1  1  0  0  0
 13 12  1  0  0  0  0
 15 14  1  0  0  0  0
 16 17  2  0  0  0  0
 18 16  1  0  0  0  0
 19 18  1  0  0  0  0
 20 21  1  0  0  0  0
 22 23  1  0  0  0  0
 23 26  2  0  0  0  0
 23 25  1  0  0  0  0
 24 22  1  0  0  0  0
 28 27  1  0  0  0  0
 30 29  1  0  0  0  0
 31  2  1  0  0  0  0
 32 31  1  0  0  0  0
 33 34  2  0  0  0  0
 33 32  1  0  0  0  0
 35 33  1  0  0  0  0
 36 34  1  0  0  0  0
 37 35  2  0  0  0  0
 37 36  1  0  0  0  0
 38 36  1  0  0  0  0
 38 39  2  0  0  0  0
 39 41  1  0  0  0  0
 40 38  1  0  0  0  0
 41 44  1  0  0  0  0
 42 40  2  0  0  0  0
 42 43  1  0  0  0  0
 43 41  2  0  0  0  0
 44 45  2  0  0  0  0
 46 44  1  0  0  0  0
 46 47  1  0  0  0  0
 48 47  1  0  0  0  0
 49 50  1  0  0  0  0
 51 50  1  0  0  0  0
 51 52  1  0  0  0  0
 52 53  1  0  0  0  0
 54 53  1  0  0  0  0
M  END
>  <REMARK>
 VINA RESULT:    -4.745      3.349      7.457
 INTER + INTRA:         -14.715
 INTER:                  -9.044
 INTRA:                  -5.671
 UNBOUND:                -5.671
 SMILES CCOC(=O)c1cccc(-n2cc(COC(=O)NC[C@@H](O)C(O)[C@@H]3O[C@@](O)(C(=O)O)C[C@H](O)[C@H]3NC(C)=O)nn2)c1
 SMILES IDX 18 1 16 2 17 3 19 5 20 6 22 7 24 8 26 9 31 10 25 11 32 12
 SMILES IDX 34 13 27 14 28 16 29 17 30 18 33 20 35 22 36 23 37 25 38 26
 SMILES IDX 23 27 21 29 15 31 14 32 13 33 12 34 39 35 11 36 40 37 10 38
 SMILES IDX 41 39 9 40 6 41 8 42 7 43 4 44 5 45 3 46 2 47 1 48
 H PARENT 18 4 27 15 30 19 33 21 35 24 23 28 21 30
 Flexibility Score: inf
  4 active torsions:
  status: ('A' for Active; 'I' for Inactive)
    1  A    between atoms: CA   and  CB  
    2  A    between atoms: CB   and  CG  
    3  A    between atoms: CG   and  CD  
    4  A    between atoms: CD   and  CE  

>  <TORSDO>
F 18

>  <BEGIN_>
RES LYS A 131

$$$$
ligand_9_pose_19_2HRL.pdbqt
 OpenBabel07062320523D

  6  5  0  0  0  0  0  0  0  0999 V2000
   33.1930   34.6630    9.2900 C   0  0  0  0  0  0  0  0  0  0  0  0
   32.0600   35.3600   10.0340 C   0  0  0  0  0  0  0  0  0  0  0  0
   30.7170   34.7070    9.8340 C   0  0  0  0  0  0  0  0  0  0  0  0
   30.2250   34.9160    8.4100 C   0  0  0  0  0  0  0  0  0  0  0  0
   28.7670   34.5160    8.2860 C   0  0  0  0  0  0  0  0  0  0  0  0
   28.2950   33.8190    9.5150 N   0  0  0  0  0  0  0  0  0  0  0  0
  1  2  1  0  0  0  0
  3  2  1  0  0  0  0
  4  3  1  0  0  0  0
  5  4  1  0  0  0  0
  5  6  1  0  0  0  0
M  END
>  <EGIN_R>
ES LYS A 135

>  <REMARK>
  4 active torsions:
  status: ('A' for Active; 'I' for Inactive)
    5  A    between atoms: CA   and  CB  
    6  A    between atoms: CB   and  CG  
    7  A    between atoms: CG   and  CD  
    8  A    between atoms: CD   and  CE  

$$$$
