ligand_91_pose_0_2HRL.pdbqt
 OpenBabel07062320523D

 57 60  0  0  1  0  0  0  0  0999 V2000
   24.6410   37.1930    9.1640 C   0  0  0  0  0  0  0  0  0  0  0  0
   25.7380   37.3340    8.1440 C   0  0  2  0  0  0  0  0  0  0  0  0
   26.9330   37.8820    8.8590 C   0  0  2  0  0  0  0  0  0  0  0  0
   28.1410   38.1050    7.9610 C   0  0  2  0  0  0  0  0  0  0  0  0
   28.8740   39.5790    6.4040 C   0  0  2  0  0  0  0  0  0  0  0  0
   29.1890   38.5590    5.3430 C   0  0  0  0  0  0  0  0  0  0  0  0
   27.8460   39.2070    7.2080 O   0  0  0  0  0  0  0  0  0  0  0  0
   28.6150   37.2050    5.6460 C   0  0  1  0  0  0  0  0  0  0  0  0
   28.4320   36.9310    7.1010 C   0  0  1  0  0  0  0  0  0  0  0  0
   28.4140   40.7680    5.7450 O   0  0  0  0  0  0  0  0  0  0  0  0
   27.4740   40.6430    5.4660 H   0  0  0  0  0  0  0  0  0  0  0  0
   30.1150   40.0100    7.0920 C   0  0  0  0  0  0  0  0  0  0  0  0
   30.1770   41.0830    7.7490 O   0  0  0  0  0  0  0  0  0  0  0  0
   31.2980   39.2540    7.0550 O   0  0  0  0  0  0  0  0  0  0  0  0
   31.8130   39.1860    6.1900 H   0  0  0  0  0  0  0  0  0  0  0  0
   27.4090   37.0670    4.9520 O   0  0  0  0  0  0  0  0  0  0  0  0
   26.6760   36.7880    5.5550 H   0  0  0  0  0  0  0  0  0  0  0  0
   29.5600   36.1180    7.5700 N   0  0  0  0  0  0  0  0  0  0  0  0
   29.3830   34.8820    8.2510 C   0  0  0  0  0  0  0  0  0  0  0  0
   30.5490   36.4170    7.4210 H   0  0  0  0  0  0  0  0  0  0  0  0
   30.5460   34.0660    8.7190 C   0  0  0  0  0  0  0  0  0  0  0  0
   28.2230   34.4480    8.4750 O   0  0  0  0  0  0  0  0  0  0  0  0
   27.3040   37.0040    9.8650 O   0  0  0  0  0  0  0  0  0  0  0  0
   26.9580   37.3610   10.7190 H   0  0  0  0  0  0  0  0  0  0  0  0
   25.3190   38.1190    7.0960 O   0  0  0  0  0  0  0  0  0  0  0  0
   25.2420   39.0620    7.4330 H   0  0  0  0  0  0  0  0  0  0  0  0
   24.5840   35.9580    9.8660 N   0  0  0  0  0  0  0  0  0  0  0  0
   23.8440   35.7350   11.0460 C   0  0  0  0  0  0  0  0  0  0  0  0
   25.1270   35.0890    9.5180 H   0  0  0  0  0  0  0  0  0  0  0  0
   23.1730   36.6400   11.5810 O   0  0  0  0  0  0  0  0  0  0  0  0
   23.8210   34.4830   11.6820 O   0  0  0  0  0  0  0  0  0  0  0  0
   24.4760   34.2990   12.9370 C   0  0  0  0  0  0  0  0  0  0  0  0
   25.9090   34.6220   12.7470 C   0  0  0  0  0  0  0  0  0  0  0  0
   26.7720   35.1270   13.6980 C   0  0  0  0  0  0  0  0  0  0  0  0
   26.6730   34.5000   11.6340 N   0  0  0  0  0  0  0  0  0  0  0  0
   27.9930   35.2930   13.1640 N   0  0  0  0  0  0  0  0  0  0  0  0
   27.9130   34.9080   11.9090 N   0  0  0  0  0  0  0  0  0  0  0  0
   29.1530   35.7830   13.8030 C   0  0  0  0  0  0  0  0  0  0  0  0
   29.4010   37.1570   13.8590 C   0  0  0  0  0  0  0  0  0  0  0  0
   30.0770   34.9380   14.3950 C   0  0  0  0  0  0  0  0  0  0  0  0
   28.5190   38.0510   13.2890 C   0  0  0  0  0  0  0  0  0  0  0  0
   30.5060   37.6590   14.4720 C   0  0  0  0  0  0  0  0  0  0  0  0
   31.1910   35.4670   15.0110 C   0  0  0  0  0  0  0  0  0  0  0  0
   29.8350   33.5890   14.3360 C   0  0  0  0  0  0  0  0  0  0  0  0
   28.7180   39.4140   13.3170 C   0  0  0  0  0  0  0  0  0  0  0  0
   30.7200   39.0320   14.5090 C   0  0  0  0  0  0  0  0  0  0  0  0
   31.3810   36.8030   15.0360 N   0  0  0  0  0  0  0  0  0  0  0  0
   32.0810   34.5900   15.5830 C   0  0  0  0  0  0  0  0  0  0  0  0
   30.7580   32.7240   14.9270 C   0  0  0  0  0  0  0  0  0  0  0  0
   29.8520   39.9400   13.9450 C   0  0  0  0  0  0  0  0  0  0  0  0
   31.8850   33.2100   15.5530 C   0  0  0  0  0  0  0  0  0  0  0  0
   29.8670   25.5550   16.9770 C   0  0  0  0  0  0  0  0  0  0  0  0
   28.3450   25.7220   17.0260 C   0  0  0  0  0  0  0  0  0  0  0  0
   27.6010   24.4030   16.8810 C   0  0  0  0  0  0  0  0  0  0  0  0
   26.1650   24.5130   17.3120 C   0  0  0  0  0  0  0  0  0  0  0  0
   26.0990   25.0940   18.7200 C   0  0  0  0  0  0  0  0  0  0  0  0
   25.4170   24.1530   19.6390 N   0  0  0  0  0  0  0  0  0  0  0  0
  1 27  1  0  0  0  0
  2  3  1  0  0  0  0
  2  1  1  1  0  0  0
  3 23  1  1  0  0  0
  4  3  1  1  0  0  0
  5 10  1  6  0  0  0
  5 12  1  0  0  0  0
  5  7  1  0  0  0  0
  6  8  1  0  0  0  0
  6  5  1  0  0  0  0
  7  4  1  0  0  0  0
  8 16  1  6  0  0  0
  8  9  1  0  0  0  0
  9 18  1  1  0  0  0
  9  4  1  0  0  0  0
 11 10  1  0  0  0  0
 12 13  2  0  0  0  0
 14 12  1  0  0  0  0
 15 14  1  0  0  0  0
 16 17  1  0  0  0  0
 18 19  1  0  0  0  0
 19 22  2  0  0  0  0
 19 21  1  0  0  0  0
 20 18  1  0  0  0  0
 23 24  1  0  0  0  0
 25 26  1  0  0  0  0
 25  2  1  0  0  0  0
 27 28  1  0  0  0  0
 28 30  2  0  0  0  0
 28 31  1  0  0  0  0
 29 27  1  0  0  0  0
 31 32  1  0  0  0  0
 33 32  1  0  0  0  0
 33 34  2  0  0  0  0
 35 37  2  0  0  0  0
 35 33  1  0  0  0  0
 36 34  1  0  0  0  0
 36 38  1  0  0  0  0
 37 36  1  0  0  0  0
 38 39  2  0  0  0  0
 38 40  1  0  0  0  0
 39 42  1  0  0  0  0
 40 43  1  0  0  0  0
 41 45  2  0  0  0  0
 41 39  1  0  0  0  0
 42 46  1  0  0  0  0
 42 47  2  0  0  0  0
 43 47  1  0  0  0  0
 43 48  2  0  0  0  0
 44 40  2  0  0  0  0
 44 49  1  0  0  0  0
 45 50  1  0  0  0  0
 49 51  2  0  0  0  0
 50 46  2  0  0  0  0
 51 48  1  0  0  0  0
 52 53  1  0  0  0  0
 54 53  1  0  0  0  0
 54 55  1  0  0  0  0
 55 56  1  0  0  0  0
 56 57  1  0  0  0  0
M  END
>  <REMARK>
 VINA RESULT:    -6.124      0.000      0.000
 INTER + INTRA:         -16.683
 INTER:                 -11.511
 INTRA:                  -5.172
 UNBOUND:                -6.084
 SMILES CC(=O)N[C@@H]1[C@@H](O)C[C@](O)(C(=O)O)O[C@H]1C(O)[C@H](O)CNC(=O)OCc1cn(-c2c3ccccc3nc3ccccc23)nn1
 SMILES IDX 20 1 18 2 16 3 15 4 9 5 8 6 14 7 6 8 5 9 10 10 11 12 12 13
 SMILES IDX 13 14 7 16 4 18 2 19 1 21 3 22 17 23 19 25 21 27 22 28 23 30
 SMILES IDX 24 31 25 32 26 33 27 34 44 35 28 36 43 37 29 38 30 39 42 40
 SMILES IDX 31 41 35 42 37 43 41 44 32 45 34 46 36 47 38 48 40 49 33 50
 SMILES IDX 39 51
 H PARENT 10 11 13 15 7 17 4 20 17 24 19 26 21 29
 Flexibility Score: inf
  4 active torsions:
  status: ('A' for Active; 'I' for Inactive)
    1  A    between atoms: CA   and  CB  
    2  A    between atoms: CB   and  CG  
    3  A    between atoms: CG   and  CD  
    4  A    between atoms: CD   and  CE  

>  <TORSDO>
F 15

>  <BEGIN_>
RES LYS A 131

$$$$
ligand_91_pose_0_2HRL.pdbqt
 OpenBabel07062320523D

  6  5  0  0  0  0  0  0  0  0999 V2000
   33.1930   34.6630    9.2900 C   0  0  0  0  0  0  0  0  0  0  0  0
   32.0600   35.3600   10.0340 C   0  0  0  0  0  0  0  0  0  0  0  0
   32.4570   35.8710   11.3950 C   0  0  0  0  0  0  0  0  0  0  0  0
   32.2580   37.3760   11.4830 C   0  0  0  0  0  0  0  0  0  0  0  0
   31.0810   37.8080   10.6290 C   0  0  0  0  0  0  0  0  0  0  0  0
   31.0090   39.2920   10.5270 N   0  0  0  0  0  0  0  0  0  0  0  0
  1  2  1  0  0  0  0
  2  3  1  0  0  0  0
  3  4  1  0  0  0  0
  5  4  1  0  0  0  0
  6  5  1  0  0  0  0
M  END
>  <EGIN_R>
ES LYS A 135

>  <REMARK>
  4 active torsions:
  status: ('A' for Active; 'I' for Inactive)
    5  A    between atoms: CA   and  CB  
    6  A    between atoms: CB   and  CG  
    7  A    between atoms: CG   and  CD  
    8  A    between atoms: CD   and  CE  

$$$$
