ligand_84_pose_3_2HRL.pdbqt
 OpenBabel07062320523D

 60 62  0  0  1  0  0  0  0  0999 V2000
   23.0980   35.3420   16.5210 O   0  0  0  0  0  0  0  0  0  0  0  0
   23.8830   35.6240   15.4140 C   0  0  0  0  0  0  0  0  0  0  0  0
   23.3910   36.2100   14.2150 N   0  0  0  0  0  0  0  0  0  0  0  0
   22.3750   36.4210   14.1860 H   0  0  0  0  0  0  0  0  0  0  0  0
   25.1060   35.3320   15.5170 O   0  0  0  0  0  0  0  0  0  0  0  0
   24.3360   36.4480   13.1740 C   0  0  0  0  0  0  0  0  0  0  0  0
   24.2760   35.5500   12.0040 C   0  0  2  0  0  0  0  0  0  0  0  0
   22.9010   35.3680   11.3860 C   0  0  1  0  0  0  0  0  0  0  0  0
   23.0990   35.7490    9.9170 C   0  0  2  0  0  0  0  0  0  0  0  0
   24.2060   37.3900    8.6820 C   0  0  2  0  0  0  0  0  0  0  0  0
   23.0390   37.4660    7.7390 C   0  0  0  0  0  0  0  0  0  0  0  0
   23.9060   36.8530    9.9040 O   0  0  0  0  0  0  0  0  0  0  0  0
   22.1140   36.3040    7.7950 C   0  0  1  0  0  0  0  0  0  0  0  0
   21.7830   36.0540    9.2820 C   0  0  1  0  0  0  0  0  0  0  0  0
   24.5680   38.7420    8.9180 O   0  0  0  0  0  0  0  0  0  0  0  0
   24.4360   38.9840    9.8530 H   0  0  0  0  0  0  0  0  0  0  0  0
   25.4070   36.7500    8.0680 C   0  0  0  0  0  0  0  0  0  0  0  0
   26.0210   35.8390    8.6790 O   0  0  0  0  0  0  0  0  0  0  0  0
   25.9010   37.1130    6.8230 O   0  0  0  0  0  0  0  0  0  0  0  0
   25.3310   37.2420    5.9960 H   0  0  0  0  0  0  0  0  0  0  0  0
   20.9290   36.6420    7.1390 O   0  0  0  0  0  0  0  0  0  0  0  0
   20.2340   36.9200    7.7920 H   0  0  0  0  0  0  0  0  0  0  0  0
   20.8320   34.9800    9.4000 N   0  0  0  0  0  0  0  0  0  0  0  0
   19.4550   35.2350    9.5830 C   0  0  0  0  0  0  0  0  0  0  0  0
   21.1670   34.0030    9.3490 H   0  0  0  0  0  0  0  0  0  0  0  0
   18.5570   34.0470    9.6950 C   0  0  0  0  0  0  0  0  0  0  0  0
   18.9730   36.3850    9.6520 O   0  0  0  0  0  0  0  0  0  0  0  0
   22.5310   34.0190   11.5050 O   0  0  0  0  0  0  0  0  0  0  0  0
   21.5440   33.9970   11.4180 H   0  0  0  0  0  0  0  0  0  0  0  0
   24.6020   34.2480   12.4760 O   0  0  0  0  0  0  0  0  0  0  0  0
   25.1270   34.4200   13.3090 H   0  0  0  0  0  0  0  0  0  0  0  0
   22.1320   34.3030   16.4810 C   0  0  0  0  0  0  0  0  0  0  0  0
   22.5600   33.2350   15.5500 C   0  0  0  0  0  0  0  0  0  0  0  0
   23.3050   32.1180   15.9360 C   0  0  0  0  0  0  0  0  0  0  0  0
   22.3620   33.0590   14.2360 N   0  0  0  0  0  0  0  0  0  0  0  0
   23.5300   31.3210   14.8810 N   0  0  0  0  0  0  0  0  0  0  0  0
   22.9310   31.9360   13.8370 N   0  0  0  0  0  0  0  0  0  0  0  0
   24.2320   30.0520   14.8110 C   0  0  0  0  0  0  0  0  0  0  0  0
   23.9690   29.2580   16.0970 C   0  0  1  0  0  0  0  0  0  0  0  0
   23.0090   28.1490   15.8790 C   0  0  0  0  0  0  0  0  0  0  0  0
   25.2090   29.0060   16.8480 C   0  0  0  0  0  0  0  0  0  0  0  0
   26.2830   29.8830   16.5010 N   0  0  0  0  0  0  0  0  0  0  0  0
   26.4500   30.9160   17.5600 C   0  0  0  0  0  0  0  0  0  0  0  0
   27.5470   29.1550   16.5410 C   0  0  0  0  0  0  0  0  0  0  0  0
   27.6570   31.7510   17.3210 C   0  0  0  0  0  0  0  0  0  0  0  0
   28.5030   30.0140   15.6990 C   0  0  0  0  0  0  0  0  0  0  0  0
   28.5190   31.3340   16.2590 N   0  0  0  0  0  0  0  0  0  0  0  0
   29.4530   32.2640   15.7220 C   0  0  0  0  0  0  0  0  0  0  0  0
   28.9930   33.3490   15.0080 C   0  0  0  0  0  0  0  0  0  0  0  0
   30.8180   32.0890   15.8990 C   0  0  0  0  0  0  0  0  0  0  0  0
   29.9000   34.2400   14.4850 C   0  0  0  0  0  0  0  0  0  0  0  0
   31.7120   32.9820   15.3720 C   0  0  0  0  0  0  0  0  0  0  0  0
   31.2410   34.0720   14.6560 C   0  0  0  0  0  0  0  0  0  0  0  0
   32.3930   35.1950   13.9850 Cl  0  0  0  0  0  0  0  0  0  0  0  0
   29.8670   25.5550   16.9770 C   0  0  0  0  0  0  0  0  0  0  0  0
   28.3450   25.7220   17.0260 C   0  0  0  0  0  0  0  0  0  0  0  0
   27.6020   24.3990   16.9230 C   0  0  0  0  0  0  0  0  0  0  0  0
   26.5730   24.2420   18.0080 C   0  0  0  0  0  0  0  0  0  0  0  0
   25.9520   25.5990   18.3220 C   0  0  0  0  0  0  0  0  0  0  0  0
   25.8840   25.8130   19.7870 N   0  0  0  0  0  0  0  0  0  0  0  0
  2  5  2  0  0  0  0
  2  1  1  0  0  0  0
  3  2  1  0  0  0  0
  4  3  1  0  0  0  0
  6  3  1  0  0  0  0
  7 30  1  0  0  0  0
  7  6  1  1  0  0  0
  8 28  1  6  0  0  0
  8  7  1  0  0  0  0
  9  8  1  1  0  0  0
 10 17  1  6  0  0  0
 10 15  1  0  0  0  0
 10 12  1  0  0  0  0
 11 13  1  0  0  0  0
 11 10  1  0  0  0  0
 12  9  1  0  0  0  0
 13 21  1  6  0  0  0
 13 14  1  0  0  0  0
 14 23  1  6  0  0  0
 14  9  1  0  0  0  0
 15 16  1  0  0  0  0
 17 18  2  0  0  0  0
 19 17  1  0  0  0  0
 20 19  1  0  0  0  0
 21 22  1  0  0  0  0
 23 24  1  0  0  0  0
 24 27  2  0  0  0  0
 24 26  1  0  0  0  0
 25 23  1  0  0  0  0
 29 28  1  0  0  0  0
 30 31  1  0  0  0  0
 32  1  1  0  0  0  0
 33 34  2  0  0  0  0
 33 32  1  0  0  0  0
 35 33  1  0  0  0  0
 36 34  1  0  0  0  0
 37 35  2  0  0  0  0
 37 36  1  0  0  0  0
 38 36  1  0  0  0  0
 38 39  1  0  0  0  0
 39 40  1  6  0  0  0
 39 41  1  0  0  0  0
 42 44  1  0  0  0  0
 42 41  1  0  0  0  0
 42 43  1  0  0  0  0
 45 43  1  0  0  0  0
 46 47  1  0  0  0  0
 46 44  1  0  0  0  0
 47 45  1  0  0  0  0
 48 50  1  0  0  0  0
 48 47  1  0  0  0  0
 49 48  2  0  0  0  0
 51 53  2  0  0  0  0
 51 49  1  0  0  0  0
 52 50  2  0  0  0  0
 53 52  1  0  0  0  0
 54 53  1  0  0  0  0
 55 56  1  0  0  0  0
 57 56  1  0  0  0  0
 57 58  1  0  0  0  0
 58 59  1  0  0  0  0
 59 60  1  0  0  0  0
M  END
>  <REMARK>
 VINA RESULT:    -5.258      2.350      4.321
 INTER + INTRA:         -16.450
 INTER:                 -10.104
 INTRA:                  -6.347
 UNBOUND:                -6.121
 SMILES CC(=O)N[C@@H]1[C@@H](O)C[C@](O)(C(=O)O)O[C@H]1C(O)[C@H](O)CNC(=O)OCc1cn(C[C@@H](C)CN2CCN(c3ccc(Cl)cc3)CC2)nn1
 SMILES IDX 24 1 22 2 21 3 23 5 20 6 18 7 16 8 15 9 9 10 8 11 14 12 6 13
 SMILES IDX 5 14 10 15 11 17 12 18 13 19 7 21 4 23 2 24 1 26 3 27 17 28
 SMILES IDX 19 30 25 32 26 33 27 34 47 35 28 36 46 37 29 38 30 39 31 40
 SMILES IDX 32 41 33 42 34 43 45 44 35 45 44 46 36 47 37 48 38 49 43 50
 SMILES IDX 39 51 42 52 40 53 41 54
 H PARENT 21 4 10 16 13 20 7 22 4 25 17 29 19 31
 Flexibility Score: inf
  4 active torsions:
  status: ('A' for Active; 'I' for Inactive)
    1  A    between atoms: CA   and  CB  
    2  A    between atoms: CB   and  CG  
    3  A    between atoms: CG   and  CD  
    4  A    between atoms: CD   and  CE  

>  <TORSDO>
F 19

>  <BEGIN_>
RES LYS A 131

$$$$
ligand_84_pose_3_2HRL.pdbqt
 OpenBabel07062320523D

  6  5  0  0  0  0  0  0  0  0999 V2000
   33.1930   34.6630    9.2900 C   0  0  0  0  0  0  0  0  0  0  0  0
   32.0600   35.3600   10.0340 C   0  0  0  0  0  0  0  0  0  0  0  0
   30.6950   34.8170    9.6990 C   0  0  0  0  0  0  0  0  0  0  0  0
   30.5990   34.4840    8.2180 C   0  0  0  0  0  0  0  0  0  0  0  0
   29.3750   35.1370    7.6040 C   0  0  0  0  0  0  0  0  0  0  0  0
   29.2960   36.5790    7.9680 N   0  0  0  0  0  0  0  0  0  0  0  0
  1  2  1  0  0  0  0
  3  2  1  0  0  0  0
  4  3  1  0  0  0  0
  5  6  1  0  0  0  0
  5  4  1  0  0  0  0
M  END
>  <EGIN_R>
ES LYS A 135

>  <REMARK>
  4 active torsions:
  status: ('A' for Active; 'I' for Inactive)
    5  A    between atoms: CA   and  CB  
    6  A    between atoms: CB   and  CG  
    7  A    between atoms: CG   and  CD  
    8  A    between atoms: CD   and  CE  

$$$$
