ligand_60_pose_2_2HRL.pdbqt
 OpenBabel07062320523D

 55 56  0  0  1  0  0  0  0  0999 V2000
   26.0740   27.3910   19.5220 N   0  0  0  0  0  0  0  0  0  0  0  0
   25.4380   28.3960   18.7800 C   0  0  0  0  0  0  0  0  0  0  0  0
   24.7110   29.2360   19.3360 O   0  0  0  0  0  0  0  0  0  0  0  0
   26.6810   26.7090   18.9890 H   0  0  0  0  0  0  0  0  0  0  0  0
   25.9260   27.2710   20.9290 C   0  0  0  0  0  0  0  0  0  0  0  0
   27.2430   27.4030   21.6840 C   0  0  2  0  0  0  0  0  0  0  0  0
   28.3350   27.6690   20.6880 C   0  0  1  0  0  0  0  0  0  0  0  0
   29.0590   28.9450   20.8890 C   0  0  2  0  0  0  0  0  0  0  0  0
   29.5000   30.9290   19.7490 C   0  0  2  0  0  0  0  0  0  0  0  0
   29.9480   31.2960   21.1420 C   0  0  0  0  0  0  0  0  0  0  0  0
   29.0360   29.6460   19.6540 O   0  0  0  0  0  0  0  0  0  0  0  0
   30.8690   30.2860   21.7530 C   0  0  1  0  0  0  0  0  0  0  0  0
   30.4850   28.9010   21.2950 C   0  0  1  0  0  0  0  0  0  0  0  0
   30.5190   31.1940   18.8020 O   0  0  0  0  0  0  0  0  0  0  0  0
   30.1340   31.5660   17.9690 H   0  0  0  0  0  0  0  0  0  0  0  0
   28.3850   31.8470   19.3960 C   0  0  0  0  0  0  0  0  0  0  0  0
   28.6670   33.0380   19.1110 O   0  0  0  0  0  0  0  0  0  0  0  0
   27.0540   31.4730   19.3620 O   0  0  0  0  0  0  0  0  0  0  0  0
   26.6970   30.8820   18.6150 H   0  0  0  0  0  0  0  0  0  0  0  0
   32.1740   30.6250   21.4160 O   0  0  0  0  0  0  0  0  0  0  0  0
   32.7310   29.8320   21.6230 H   0  0  0  0  0  0  0  0  0  0  0  0
   30.9040   27.8720   22.1690 N   0  0  0  0  0  0  0  0  0  0  0  0
   30.4970   27.8070   23.5200 C   0  0  0  0  0  0  0  0  0  0  0  0
   31.5190   27.1090   21.8240 H   0  0  0  0  0  0  0  0  0  0  0  0
   30.9530   26.7060   24.4370 C   0  0  0  0  0  0  0  0  0  0  0  0
   29.7400   28.7000   23.9430 O   0  0  0  0  0  0  0  0  0  0  0  0
   29.0650   26.5800   20.2940 O   0  0  0  0  0  0  0  0  0  0  0  0
   28.6820   26.2170   19.4650 H   0  0  0  0  0  0  0  0  0  0  0  0
   27.4140   26.2970   22.4730 O   0  0  0  0  0  0  0  0  0  0  0  0
   26.5360   25.8620   22.6560 H   0  0  0  0  0  0  0  0  0  0  0  0
   25.5820   28.5110   17.3890 O   0  0  0  0  0  0  0  0  0  0  0  0
   26.8400   28.4880   16.7920 C   0  0  0  0  0  0  0  0  0  0  0  0
   27.3060   29.8410   16.4160 C   0  0  0  0  0  0  0  0  0  0  0  0
   28.5540   30.2760   16.0400 C   0  0  0  0  0  0  0  0  0  0  0  0
   26.5130   30.9420   16.3810 N   0  0  0  0  0  0  0  0  0  0  0  0
   28.5090   31.5970   15.7870 N   0  0  0  0  0  0  0  0  0  0  0  0
   27.2620   31.9630   16.0040 N   0  0  0  0  0  0  0  0  0  0  0  0
   29.5630   32.4600   15.3700 C   0  0  0  0  0  0  0  0  0  0  0  0
   29.3210   33.5910   14.6210 C   0  0  0  0  0  0  0  0  0  0  0  0
   30.8790   32.1960   15.7020 C   0  0  0  0  0  0  0  0  0  0  0  0
   30.3280   34.4350   14.2100 C   0  0  0  0  0  0  0  0  0  0  0  0
   31.8910   33.0390   15.2920 C   0  0  0  0  0  0  0  0  0  0  0  0
   31.6610   34.1730   14.5420 C   0  0  0  0  0  0  0  0  0  0  0  0
   32.9370   35.2470   14.0170 S   0  0  0  0  0  0  0  0  0  0  0  0
   32.2930   36.3480   13.2230 O   0  0  0  0  0  0  0  0  0  0  0  0
   33.5510   35.8960   15.2370 O   0  0  0  0  0  0  0  0  0  0  0  0
   34.1320   34.4530   13.0820 N   0  0  0  0  0  0  0  0  0  0  0  0
   34.7980   35.0730   12.6070 H   0  0  0  0  0  0  0  0  0  0  0  0
   34.6050   33.6870   13.6100 H   0  0  0  0  0  0  0  0  0  0  0  0
   29.8670   25.5550   16.9770 C   0  0  0  0  0  0  0  0  0  0  0  0
   28.3450   25.7220   17.0260 C   0  0  0  0  0  0  0  0  0  0  0  0
   27.6000   24.4080   16.8470 C   0  0  0  0  0  0  0  0  0  0  0  0
   26.7810   24.0520   18.0570 C   0  0  0  0  0  0  0  0  0  0  0  0
   25.5530   23.2580   17.6240 C   0  0  0  0  0  0  0  0  0  0  0  0
   24.5810   24.1400   16.9350 N   0  0  0  0  0  0  0  0  0  0  0  0
  1  5  1  0  0  0  0
  2  3  2  0  0  0  0
  2  1  1  0  0  0  0
  4  1  1  0  0  0  0
  6  5  1  6  0  0  0
  6 29  1  0  0  0  0
  7 27  1  1  0  0  0
  7  6  1  0  0  0  0
  8  7  1  6  0  0  0
  8 13  1  0  0  0  0
  9 14  1  6  0  0  0
  9 10  1  0  0  0  0
 10 12  1  0  0  0  0
 11  9  1  0  0  0  0
 11  8  1  0  0  0  0
 12 20  1  6  0  0  0
 13 12  1  0  0  0  0
 13 22  1  1  0  0  0
 15 14  1  0  0  0  0
 16  9  1  0  0  0  0
 17 16  2  0  0  0  0
 18 16  1  0  0  0  0
 19 18  1  0  0  0  0
 20 21  1  0  0  0  0
 22 23  1  0  0  0  0
 23 26  2  0  0  0  0
 23 25  1  0  0  0  0
 24 22  1  0  0  0  0
 28 27  1  0  0  0  0
 29 30  1  0  0  0  0
 31  2  1  0  0  0  0
 32 31  1  0  0  0  0
 33 32  1  0  0  0  0
 34 33  2  0  0  0  0
 35 33  1  0  0  0  0
 36 37  1  0  0  0  0
 36 34  1  0  0  0  0
 37 35  2  0  0  0  0
 38 40  1  0  0  0  0
 38 36  1  0  0  0  0
 39 38  2  0  0  0  0
 41 43  2  0  0  0  0
 41 39  1  0  0  0  0
 42 40  2  0  0  0  0
 43 42  1  0  0  0  0
 44 43  1  0  0  0  0
 44 46  2  0  0  0  0
 45 44  2  0  0  0  0
 47 49  1  0  0  0  0
 47 44  1  0  0  0  0
 48 47  1  0  0  0  0
 50 51  1  0  0  0  0
 52 51  1  0  0  0  0
 52 53  1  0  0  0  0
 54 53  1  0  0  0  0
 55 54  1  0  0  0  0
M  END
>  <REMARK>
 VINA RESULT:    -5.147      2.344      4.051
 INTER + INTRA:         -15.323
 INTER:                  -9.120
 INTRA:                  -6.203
 UNBOUND:                -5.964
 SMILES CC(=O)N[C@@H]1[C@@H](O)C[C@](O)(C(=O)O)O[C@H]1C(O)[C@H](O)CNC(=O)OCc1cn(-c2ccc(S(N)(=O)=O)cc2)nn1
 SMILES IDX 21 1 22 2 23 3 20 5 18 6 16 7 15 8 9 9 8 10 14 11 6 12 5 13
 SMILES IDX 10 14 11 16 12 17 13 18 7 20 4 22 2 23 1 25 3 26 17 27 19 29
 SMILES IDX 24 31 25 32 26 33 27 34 40 35 28 36 39 37 29 38 30 39 38 40
 SMILES IDX 31 41 37 42 32 43 33 44 35 45 36 46 34 47
 H PARENT 21 4 10 15 13 19 7 21 4 24 17 28 19 30 34 48 34 49
 Flexibility Score: inf
  4 active torsions:
  status: ('A' for Active; 'I' for Inactive)
    1  A    between atoms: CA   and  CB  
    2  A    between atoms: CB   and  CG  
    3  A    between atoms: CG   and  CD  
    4  A    between atoms: CD   and  CE  

>  <TORSDO>
F 17

>  <BEGIN_>
RES LYS A 131

$$$$
ligand_60_pose_2_2HRL.pdbqt
 OpenBabel07062320523D

  6  5  0  0  0  0  0  0  0  0999 V2000
   33.1930   34.6630    9.2900 C   0  0  0  0  0  0  0  0  0  0  0  0
   32.0600   35.3600   10.0340 C   0  0  0  0  0  0  0  0  0  0  0  0
   30.8000   35.4980    9.2200 C   0  0  0  0  0  0  0  0  0  0  0  0
   30.1470   34.1410    9.0070 C   0  0  0  0  0  0  0  0  0  0  0  0
   28.6830   34.3050    8.6440 C   0  0  0  0  0  0  0  0  0  0  0  0
   27.8040   33.6530    9.6530 N   0  0  0  0  0  0  0  0  0  0  0  0
  1  2  1  0  0  0  0
  3  2  1  0  0  0  0
  4  3  1  0  0  0  0
  5  4  1  0  0  0  0
  5  6  1  0  0  0  0
M  END
>  <EGIN_R>
ES LYS A 135

>  <REMARK>
  4 active torsions:
  status: ('A' for Active; 'I' for Inactive)
    5  A    between atoms: CA   and  CB  
    6  A    between atoms: CB   and  CG  
    7  A    between atoms: CG   and  CD  
    8  A    between atoms: CD   and  CE  

$$$$
