ligand_33_pose_15_2HRL.pdbqt
 OpenBabel07062320523D

 52 52  0  0  1  0  0  0  0  0999 V2000
   26.7790   35.3240   11.0360 C   0  0  0  0  0  0  0  0  0  0  0  0
   27.1270   36.5510   10.4050 O   0  0  0  0  0  0  0  0  0  0  0  0
   26.2950   37.0110    9.3770 C   0  0  0  0  0  0  0  0  0  0  0  0
   24.9940   36.4460    9.2640 N   0  0  0  0  0  0  0  0  0  0  0  0
   24.7180   35.7100    9.9660 H   0  0  0  0  0  0  0  0  0  0  0  0
   26.7400   37.8960    8.6060 O   0  0  0  0  0  0  0  0  0  0  0  0
   24.1280   36.8950    8.2200 C   0  0  0  0  0  0  0  0  0  0  0  0
   22.9130   37.6560    8.6900 C   0  0  2  0  0  0  0  0  0  0  0  0
   21.6850   37.0140    8.0740 C   0  0  2  0  0  0  0  0  0  0  0  0
   21.3170   35.6890    8.6540 C   0  0  2  0  0  0  0  0  0  0  0  0
   19.0830   35.8500    7.9680 C   0  0  2  0  0  0  0  0  0  0  0  0
   18.7610   36.2740    9.4100 C   0  0  0  0  0  0  0  0  0  0  0  0
   20.2650   35.1680    7.9280 O   0  0  0  0  0  0  0  0  0  0  0  0
   19.5260   35.3100   10.2830 C   0  0  1  0  0  0  0  0  0  0  0  0
   21.0180   35.6480   10.1090 C   0  0  1  0  0  0  0  0  0  0  0  0
   19.0030   36.9520    7.1200 O   0  0  0  0  0  0  0  0  0  0  0  0
   18.5900   36.7030    6.2330 H   0  0  0  0  0  0  0  0  0  0  0  0
   18.0080   34.9030    7.5750 C   0  0  0  0  0  0  0  0  0  0  0  0
   16.8230   35.0880    7.9870 O   0  0  0  0  0  0  0  0  0  0  0  0
   18.3260   33.8310    6.7620 O   0  0  0  0  0  0  0  0  0  0  0  0
   19.3160   33.7520    6.4890 H   0  0  0  0  0  0  0  0  0  0  0  0
   19.1610   35.4150   11.6250 O   0  0  0  0  0  0  0  0  0  0  0  0
   18.6320   34.6020   11.8400 H   0  0  0  0  0  0  0  0  0  0  0  0
   21.8160   34.6500   10.8080 N   0  0  0  0  0  0  0  0  0  0  0  0
   22.8940   34.9820   11.6520 C   0  0  0  0  0  0  0  0  0  0  0  0
   21.5670   33.6290   10.6750 H   0  0  0  0  0  0  0  0  0  0  0  0
   23.7020   33.9240   12.3600 C   0  0  0  0  0  0  0  0  0  0  0  0
   23.1820   36.2080   11.8090 O   0  0  0  0  0  0  0  0  0  0  0  0
   22.0880   36.7350    6.7350 O   0  0  0  0  0  0  0  0  0  0  0  0
   22.9490   36.2620    6.8140 H   0  0  0  0  0  0  0  0  0  0  0  0
   23.0730   38.9790    8.3420 O   0  0  0  0  0  0  0  0  0  0  0  0
   24.0070   39.2770    8.4720 H   0  0  0  0  0  0  0  0  0  0  0  0
   27.3250   35.3990   12.4110 C   0  0  0  0  0  0  0  0  0  0  0  0
   28.6740   35.3890   12.7010 C   0  0  0  0  0  0  0  0  0  0  0  0
   26.6650   35.4880   13.5660 N   0  0  0  0  0  0  0  0  0  0  0  0
   28.7550   35.4720   14.0470 N   0  0  0  0  0  0  0  0  0  0  0  0
   27.5450   35.5310   14.5580 N   0  0  0  0  0  0  0  0  0  0  0  0
   30.0450   35.4840   14.7400 C   0  0  0  0  0  0  0  0  0  0  0  0
   30.8230   34.2780   14.2830 C   0  0  0  0  0  0  0  0  0  0  0  0
   30.1930   32.9720   14.7180 C   0  0  0  0  0  0  0  0  0  0  0  0
   31.1110   32.1350   15.5390 C   0  0  0  0  0  0  0  0  0  0  0  0
   30.4560   31.5040   16.7370 C   0  0  0  0  0  0  0  0  0  0  0  0
   29.1610   30.8700   16.4450 C   0  0  0  0  0  0  0  0  0  0  0  0
   28.1200   31.2430   17.0070 O   0  0  0  0  0  0  0  0  0  0  0  0
   29.0720   29.8190   15.5150 O   0  0  0  0  0  0  0  0  0  0  0  0
   28.8640   28.8670   15.8340 H   0  0  0  0  0  0  0  0  0  0  0  0
   29.8670   25.5550   16.9770 C   0  0  0  0  0  0  0  0  0  0  0  0
   28.3450   25.7220   17.0260 C   0  0  0  0  0  0  0  0  0  0  0  0
   27.6030   24.3960   16.9560 C   0  0  0  0  0  0  0  0  0  0  0  0
   26.2640   24.4600   17.6390 C   0  0  0  0  0  0  0  0  0  0  0  0
   25.5410   23.1280   17.4670 C   0  0  0  0  0  0  0  0  0  0  0  0
   24.1070   23.2680   17.8140 N   0  0  0  0  0  0  0  0  0  0  0  0
  1 33  1  0  0  0  0
  2  1  1  0  0  0  0
  3  2  1  0  0  0  0
  4  3  1  0  0  0  0
  4  5  1  0  0  0  0
  6  3  2  0  0  0  0
  7  4  1  0  0  0  0
  8  7  1  6  0  0  0
  9 29  1  6  0  0  0
  9  8  1  0  0  0  0
 10  9  1  6  0  0  0
 10 15  1  0  0  0  0
 11 16  1  6  0  0  0
 11 12  1  0  0  0  0
 12 14  1  0  0  0  0
 13 11  1  0  0  0  0
 13 10  1  0  0  0  0
 14 22  1  1  0  0  0
 15 14  1  0  0  0  0
 15 24  1  1  0  0  0
 17 16  1  0  0  0  0
 18 11  1  0  0  0  0
 18 19  2  0  0  0  0
 20 18  1  0  0  0  0
 21 20  1  0  0  0  0
 22 23  1  0  0  0  0
 24 25  1  0  0  0  0
 25 28  2  0  0  0  0
 25 27  1  0  0  0  0
 26 24  1  0  0  0  0
 29 30  1  0  0  0  0
 31 32  1  0  0  0  0
 31  8  1  0  0  0  0
 33 34  2  0  0  0  0
 33 35  1  0  0  0  0
 34 36  1  0  0  0  0
 35 37  2  0  0  0  0
 36 37  1  0  0  0  0
 36 38  1  0  0  0  0
 39 40  1  0  0  0  0
 39 38  1  0  0  0  0
 40 41  1  0  0  0  0
 41 42  1  0  0  0  0
 43 42  1  0  0  0  0
 43 44  2  0  0  0  0
 45 46  1  0  0  0  0
 45 43  1  0  0  0  0
 47 48  1  0  0  0  0
 49 48  1  0  0  0  0
 49 50  1  0  0  0  0
 51 50  1  0  0  0  0
 51 52  1  0  0  0  0
M  END
>  <REMARK>
 VINA RESULT:    -4.250      2.827      4.777
 INTER + INTRA:         -14.640
 INTER:                  -9.497
 INTRA:                  -5.142
 UNBOUND:                -5.918
 SMILES CC(=O)N[C@@H]1[C@@H](O)C[C@](O)(C(=O)O)O[C@H]1C(O)[C@H](O)CNC(=O)OCc1cn(CCCCCC(=O)O)nn1
 SMILES IDX 25 1 24 2 22 3 21 4 23 6 20 7 18 8 16 9 15 10 9 11 8 12
 SMILES IDX 14 13 6 14 5 15 10 16 11 18 12 19 13 20 7 22 4 24 2 25 1 27
 SMILES IDX 3 28 17 29 19 31 26 33 27 34 38 35 28 36 37 37 29 38 30 39
 SMILES IDX 31 40 32 41 33 42 34 43 35 44 36 45
 H PARENT 21 5 10 17 13 21 7 23 4 26 17 30 19 32 36 46
 Flexibility Score: inf
  4 active torsions:
  status: ('A' for Active; 'I' for Inactive)
    1  A    between atoms: CA   and  CB  
    2  A    between atoms: CB   and  CG  
    3  A    between atoms: CG   and  CD  
    4  A    between atoms: CD   and  CE  

>  <TORSDO>
F 21

>  <BEGIN_>
RES LYS A 131

$$$$
ligand_33_pose_15_2HRL.pdbqt
 OpenBabel07062320523D

  6  5  0  0  0  0  0  0  0  0999 V2000
   33.1930   34.6630    9.2900 C   0  0  0  0  0  0  0  0  0  0  0  0
   32.0600   35.3600   10.0340 C   0  0  0  0  0  0  0  0  0  0  0  0
   30.7050   34.7540    9.7730 C   0  0  0  0  0  0  0  0  0  0  0  0
   30.4590   34.6120    8.2790 C   0  0  0  0  0  0  0  0  0  0  0  0
   28.9950   34.8390    7.9570 C   0  0  0  0  0  0  0  0  0  0  0  0
   28.8360   35.5790    6.6740 N   0  0  0  0  0  0  0  0  0  0  0  0
  1  2  1  0  0  0  0
  3  2  1  0  0  0  0
  4  3  1  0  0  0  0
  5  4  1  0  0  0  0
  6  5  1  0  0  0  0
M  END
>  <EGIN_R>
ES LYS A 135

>  <REMARK>
  4 active torsions:
  status: ('A' for Active; 'I' for Inactive)
    5  A    between atoms: CA   and  CB  
    6  A    between atoms: CB   and  CG  
    7  A    between atoms: CG   and  CD  
    8  A    between atoms: CD   and  CE  

$$$$
