ligand_47_pose_13_2HRL.pdbqt
 OpenBabel07062320523D

 62 64  0  0  1  0  0  0  0  0999 V2000
   30.4130   36.3820   18.4460 N   0  0  0  0  0  0  0  0  0  0  0  0
   30.9790   37.3890   17.6220 C   0  0  0  0  0  0  0  0  0  0  0  0
   32.1500   37.8060   17.8570 O   0  0  0  0  0  0  0  0  0  0  0  0
   29.4270   36.0870   18.1820 H   0  0  0  0  0  0  0  0  0  0  0  0
   31.1050   35.7860   19.5640 C   0  0  0  0  0  0  0  0  0  0  0  0
   31.9440   34.5740   19.1550 C   0  0  2  0  0  0  0  0  0  0  0  0
   30.9840   33.4330   19.0010 C   0  0  2  0  0  0  0  0  0  0  0  0
   30.8720   32.9320   17.5890 C   0  0  2  0  0  0  0  0  0  0  0  0
   29.9770   33.5720   15.5490 C   0  0  2  0  0  0  0  0  0  0  0  0
   30.3920   32.2070   15.0660 C   0  0  0  0  0  0  0  0  0  0  0  0
   30.5180   33.9490   16.7470 O   0  0  0  0  0  0  0  0  0  0  0  0
   30.2180   31.1390   16.0900 C   0  0  1  0  0  0  0  0  0  0  0  0
   29.9030   31.7830   17.4390 C   0  0  1  0  0  0  0  0  0  0  0  0
   28.5800   33.5980   15.5960 O   0  0  0  0  0  0  0  0  0  0  0  0
   28.2160   32.7080   15.8550 H   0  0  0  0  0  0  0  0  0  0  0  0
   30.4130   34.5470   14.5190 C   0  0  0  0  0  0  0  0  0  0  0  0
   29.9680   34.4450   13.3500 O   0  0  0  0  0  0  0  0  0  0  0  0
   31.2950   35.5660   14.8090 O   0  0  0  0  0  0  0  0  0  0  0  0
   32.2220   35.5790   14.3620 H   0  0  0  0  0  0  0  0  0  0  0  0
   29.3240   30.1520   15.7580 O   0  0  0  0  0  0  0  0  0  0  0  0
   28.5960   30.0900   16.4300 H   0  0  0  0  0  0  0  0  0  0  0  0
   30.0760   30.8060   18.5050 N   0  0  0  0  0  0  0  0  0  0  0  0
   28.9310   30.3570   19.2030 C   0  0  0  0  0  0  0  0  0  0  0  0
   31.0250   30.4660   18.7240 H   0  0  0  0  0  0  0  0  0  0  0  0
   29.0480   29.3660   20.2940 C   0  0  0  0  0  0  0  0  0  0  0  0
   27.7910   30.7950   18.9070 O   0  0  0  0  0  0  0  0  0  0  0  0
   29.7700   33.7400   19.5780 O   0  0  0  0  0  0  0  0  0  0  0  0
   29.8610   34.2700   20.4200 H   0  0  0  0  0  0  0  0  0  0  0  0
   32.8310   34.3460   20.2210 O   0  0  0  0  0  0  0  0  0  0  0  0
   32.2410   34.3200   21.0330 H   0  0  0  0  0  0  0  0  0  0  0  0
   30.2780   37.9290   16.5620 O   0  0  0  0  0  0  0  0  0  0  0  0
   28.8680   37.7190   16.4130 C   0  0  0  0  0  0  0  0  0  0  0  0
   28.5140   37.5280   14.9890 C   0  0  0  0  0  0  0  0  0  0  0  0
   27.3400   36.9170   14.5220 C   0  0  0  0  0  0  0  0  0  0  0  0
   29.1750   37.8630   13.8760 N   0  0  0  0  0  0  0  0  0  0  0  0
   27.3270   36.9050   13.1900 N   0  0  0  0  0  0  0  0  0  0  0  0
   28.4810   37.5000   12.8110 N   0  0  0  0  0  0  0  0  0  0  0  0
   26.3850   36.4350   12.2160 C   0  0  0  0  0  0  0  0  0  0  0  0
   26.5170   35.0110   11.7900 C   0  0  1  0  0  0  0  0  0  0  0  0
   25.6780   34.1290   12.6030 C   0  0  0  0  0  0  0  0  0  0  0  0
   24.5530   33.7000   12.2930 O   0  0  0  0  0  0  0  0  0  0  0  0
   26.1450   33.6990   13.8630 O   0  0  0  0  0  0  0  0  0  0  0  0
   25.5220   33.7820   14.6710 H   0  0  0  0  0  0  0  0  0  0  0  0
   26.2640   34.8360   10.3030 C   0  0  0  0  0  0  0  0  0  0  0  0
   27.5310   34.7710    9.5390 C   0  0  0  0  0  0  0  0  0  0  0  0
   28.7390   34.4320   10.1600 C   0  0  0  0  0  0  0  0  0  0  0  0
   27.5860   35.0390    8.1840 C   0  0  0  0  0  0  0  0  0  0  0  0
   29.9180   34.3700    9.4500 C   0  0  0  0  0  0  0  0  0  0  0  0
   28.7500   34.9820    7.4640 C   0  0  0  0  0  0  0  0  0  0  0  0
   29.9280   34.6480    8.0820 C   0  0  0  0  0  0  0  0  0  0  0  0
   25.4160   35.8810    9.7200 C   0  0  0  0  0  0  0  0  0  0  0  0
   24.0860   35.5500    9.4300 C   0  0  0  0  0  0  0  0  0  0  0  0
   25.8510   37.1600    9.4450 C   0  0  0  0  0  0  0  0  0  0  0  0
   23.2590   36.5030    8.8830 C   0  0  0  0  0  0  0  0  0  0  0  0
   25.0250   38.1160    8.8970 C   0  0  0  0  0  0  0  0  0  0  0  0
   23.7030   37.7960    8.6060 C   0  0  0  0  0  0  0  0  0  0  0  0
   29.8670   25.5550   16.9770 C   0  0  0  0  0  0  0  0  0  0  0  0
   28.3450   25.7220   17.0260 C   0  0  0  0  0  0  0  0  0  0  0  0
   27.6020   24.4000   16.9120 C   0  0  0  0  0  0  0  0  0  0  0  0
   26.1770   24.5090   17.3810 C   0  0  0  0  0  0  0  0  0  0  0  0
   25.7250   23.1700   17.9540 C   0  0  0  0  0  0  0  0  0  0  0  0
   25.4630   23.2900   19.4080 N   0  0  0  0  0  0  0  0  0  0  0  0
  1  5  1  0  0  0  0
  2  3  2  0  0  0  0
  2  1  1  0  0  0  0
  4  1  1  0  0  0  0
  6  5  1  1  0  0  0
  6 29  1  0  0  0  0
  7  6  1  0  0  0  0
  7 27  1  6  0  0  0
  8  7  1  1  0  0  0
  9 16  1  6  0  0  0
  9 14  1  0  0  0  0
  9 11  1  0  0  0  0
 10  9  1  0  0  0  0
 10 12  1  0  0  0  0
 11  8  1  0  0  0  0
 12 20  1  6  0  0  0
 12 13  1  0  0  0  0
 13  8  1  0  0  0  0
 13 22  1  1  0  0  0
 14 15  1  0  0  0  0
 16 18  1  0  0  0  0
 17 16  2  0  0  0  0
 19 18  1  0  0  0  0
 20 21  1  0  0  0  0
 22 24  1  0  0  0  0
 22 23  1  0  0  0  0
 23 25  1  0  0  0  0
 26 23  2  0  0  0  0
 27 28  1  0  0  0  0
 29 30  1  0  0  0  0
 31  2  1  0  0  0  0
 32 31  1  0  0  0  0
 33 32  1  0  0  0  0
 34 33  2  0  0  0  0
 35 33  1  0  0  0  0
 36 34  1  0  0  0  0
 37 36  1  0  0  0  0
 37 35  2  0  0  0  0
 38 36  1  0  0  0  0
 39 38  1  1  0  0  0
 39 40  1  0  0  0  0
 40 42  1  0  0  0  0
 41 40  2  0  0  0  0
 42 43  1  0  0  0  0
 44 39  1  0  0  0  0
 45 46  1  0  0  0  0
 45 44  1  0  0  0  0
 47 45  2  0  0  0  0
 48 46  2  0  0  0  0
 49 50  2  0  0  0  0
 49 47  1  0  0  0  0
 50 48  1  0  0  0  0
 51 44  1  0  0  0  0
 52 51  2  0  0  0  0
 53 51  1  0  0  0  0
 54 52  1  0  0  0  0
 55 53  2  0  0  0  0
 56 54  2  0  0  0  0
 56 55  1  0  0  0  0
 57 58  1  0  0  0  0
 59 58  1  0  0  0  0
 59 60  1  0  0  0  0
 60 61  1  0  0  0  0
 61 62  1  0  0  0  0
M  END
>  <REMARK>
 VINA RESULT:    -5.332      2.366      4.343
 INTER + INTRA:         -17.241
 INTER:                 -11.250
 INTRA:                  -5.991
 UNBOUND:                -6.299
 SMILES CC(=O)N[C@@H]1[C@@H](O)C[C@](O)(C(=O)O)O[C@H]1C(O)[C@H](O)CNC(=O)OCc1cn(C[C@@H](C(=O)O)C(c2ccccc2)c2ccccc2)nn1
 SMILES IDX 21 1 22 2 23 3 20 5 18 6 16 7 15 8 9 9 8 10 14 11 6 12 5 13
 SMILES IDX 10 14 11 16 12 17 13 18 7 20 4 22 2 23 1 25 3 26 17 27 19 29
 SMILES IDX 24 31 25 32 26 33 27 34 48 35 28 36 47 37 29 38 30 39 31 40
 SMILES IDX 32 41 33 42 34 44 35 45 36 46 40 47 37 48 39 49 38 50 41 51
 SMILES IDX 42 52 46 53 43 54 45 55 44 56
 H PARENT 21 4 10 15 13 19 7 21 4 24 17 28 19 30 33 43
 Flexibility Score: inf
  4 active torsions:
  status: ('A' for Active; 'I' for Inactive)
    1  A    between atoms: CA   and  CB  
    2  A    between atoms: CB   and  CG  
    3  A    between atoms: CG   and  CD  
    4  A    between atoms: CD   and  CE  

>  <TORSDO>
F 21

>  <BEGIN_>
RES LYS A 131

$$$$
ligand_47_pose_13_2HRL.pdbqt
 OpenBabel07062320523D

  6  5  0  0  0  0  0  0  0  0999 V2000
   33.1930   34.6630    9.2900 C   0  0  0  0  0  0  0  0  0  0  0  0
   32.0600   35.3600   10.0340 C   0  0  0  0  0  0  0  0  0  0  0  0
   32.4890   35.9840   11.3370 C   0  0  0  0  0  0  0  0  0  0  0  0
   31.9090   37.3830   11.4790 C   0  0  0  0  0  0  0  0  0  0  0  0
   31.2800   37.8330   10.1740 C   0  0  0  0  0  0  0  0  0  0  0  0
   31.9960   39.0130    9.6130 N   0  0  0  0  0  0  0  0  0  0  0  0
  1  2  1  0  0  0  0
  2  3  1  0  0  0  0
  3  4  1  0  0  0  0
  5  4  1  0  0  0  0
  6  5  1  0  0  0  0
M  END
>  <EGIN_R>
ES LYS A 135

>  <REMARK>
  4 active torsions:
  status: ('A' for Active; 'I' for Inactive)
    5  A    between atoms: CA   and  CB  
    6  A    between atoms: CB   and  CG  
    7  A    between atoms: CG   and  CD  
    8  A    between atoms: CD   and  CE  

$$$$
