ligand_91_pose_13_2HRL.pdbqt
 OpenBabel07062320523D

 57 60  0  0  1  0  0  0  0  0999 V2000
   29.7700   31.3900   17.5110 C   0  0  0  0  0  0  0  0  0  0  0  0
   30.3010   32.7120   17.0270 C   0  0  2  0  0  0  0  0  0  0  0  0
   30.9670   32.4610   15.7110 C   0  0  2  0  0  0  0  0  0  0  0  0
   31.3870   33.7280   14.9800 C   0  0  2  0  0  0  0  0  0  0  0  0
   33.1330   35.1710   14.9110 C   0  0  2  0  0  0  0  0  0  0  0  0
   32.3210   36.4250   15.1050 C   0  0  0  0  0  0  0  0  0  0  0  0
   32.5890   34.0890   15.5230 O   0  0  0  0  0  0  0  0  0  0  0  0
   30.9150   36.1460   15.5480 C   0  0  1  0  0  0  0  0  0  0  0  0
   30.3890   34.8180   15.1170 C   0  0  1  0  0  0  0  0  0  0  0  0
   34.3970   35.3640   15.5600 O   0  0  0  0  0  0  0  0  0  0  0  0
   34.2450   35.6020   16.5070 H   0  0  0  0  0  0  0  0  0  0  0  0
   33.4880   35.0020   13.4810 C   0  0  0  0  0  0  0  0  0  0  0  0
   32.9390   35.6800   12.5720 O   0  0  0  0  0  0  0  0  0  0  0  0
   34.4520   34.0780   13.0470 O   0  0  0  0  0  0  0  0  0  0  0  0
   34.1920   33.3740   12.3750 H   0  0  0  0  0  0  0  0  0  0  0  0
   30.8500   36.2870   16.9380 O   0  0  0  0  0  0  0  0  0  0  0  0
   30.7310   35.4110   17.3830 H   0  0  0  0  0  0  0  0  0  0  0  0
   29.5530   35.0090   13.9270 N   0  0  0  0  0  0  0  0  0  0  0  0
   28.2370   34.4780   13.8210 C   0  0  0  0  0  0  0  0  0  0  0  0
   29.8920   35.5480   13.1000 H   0  0  0  0  0  0  0  0  0  0  0  0
   27.3990   34.6860   12.6000 C   0  0  0  0  0  0  0  0  0  0  0  0
   27.7500   33.8140   14.7720 O   0  0  0  0  0  0  0  0  0  0  0  0
   30.1000   31.7600   14.8870 O   0  0  0  0  0  0  0  0  0  0  0  0
   29.7280   31.0100   15.4120 H   0  0  0  0  0  0  0  0  0  0  0  0
   31.1370   33.2660   17.9680 O   0  0  0  0  0  0  0  0  0  0  0  0
   32.0720   33.2260   17.6050 H   0  0  0  0  0  0  0  0  0  0  0  0
   28.3610   31.2110   17.4480 N   0  0  0  0  0  0  0  0  0  0  0  0
   27.6990   30.3260   16.5720 C   0  0  0  0  0  0  0  0  0  0  0  0
   27.6950   31.7680   18.0940 H   0  0  0  0  0  0  0  0  0  0  0  0
   28.3260   29.6200   15.7550 O   0  0  0  0  0  0  0  0  0  0  0  0
   26.3020   30.1880   16.5710 O   0  0  0  0  0  0  0  0  0  0  0  0
   25.4620   31.3430   16.5550 C   0  0  0  0  0  0  0  0  0  0  0  0
   24.7760   31.3790   15.2420 C   0  0  0  0  0  0  0  0  0  0  0  0
   23.4600   31.7220   15.0110 C   0  0  0  0  0  0  0  0  0  0  0  0
   25.2680   31.0930   14.0110 N   0  0  0  0  0  0  0  0  0  0  0  0
   23.1910   31.6420   13.6970 N   0  0  0  0  0  0  0  0  0  0  0  0
   24.3010   31.2580   13.1070 N   0  0  0  0  0  0  0  0  0  0  0  0
   21.9650   31.9130   13.0510 C   0  0  0  0  0  0  0  0  0  0  0  0
   21.0890   30.8700   12.7340 C   0  0  0  0  0  0  0  0  0  0  0  0
   21.5820   33.2000   12.7120 C   0  0  0  0  0  0  0  0  0  0  0  0
   21.4120   29.5670   13.0450 C   0  0  0  0  0  0  0  0  0  0  0  0
   19.9000   31.1010   12.1170 C   0  0  0  0  0  0  0  0  0  0  0  0
   20.3730   33.4110   12.0870 C   0  0  0  0  0  0  0  0  0  0  0  0
   22.4440   34.2220   13.0210 C   0  0  0  0  0  0  0  0  0  0  0  0
   20.5840   28.5040   12.7540 C   0  0  0  0  0  0  0  0  0  0  0  0
   19.0530   30.0390   11.8180 C   0  0  0  0  0  0  0  0  0  0  0  0
   19.5640   32.3680   11.8040 N   0  0  0  0  0  0  0  0  0  0  0  0
   20.0360   34.7050   11.7680 C   0  0  0  0  0  0  0  0  0  0  0  0
   22.0730   35.5250   12.6840 C   0  0  0  0  0  0  0  0  0  0  0  0
   19.3570   28.7300   12.1200 C   0  0  0  0  0  0  0  0  0  0  0  0
   20.8730   35.7810   12.0580 C   0  0  0  0  0  0  0  0  0  0  0  0
   29.8670   25.5550   16.9770 C   0  0  0  0  0  0  0  0  0  0  0  0
   28.3450   25.7220   17.0260 C   0  0  0  0  0  0  0  0  0  0  0  0
   27.6010   24.4000   16.9070 C   0  0  0  0  0  0  0  0  0  0  0  0
   26.1530   24.5290   17.2880 C   0  0  0  0  0  0  0  0  0  0  0  0
   26.0190   25.4980   18.4590 C   0  0  0  0  0  0  0  0  0  0  0  0
   24.6260   25.5100   18.9650 N   0  0  0  0  0  0  0  0  0  0  0  0
  2  1  1  1  0  0  0
  2 25  1  0  0  0  0
  3 23  1  6  0  0  0
  3  2  1  0  0  0  0
  4  9  1  0  0  0  0
  4  7  1  0  0  0  0
  4  3  1  1  0  0  0
  5 12  1  6  0  0  0
  5  6  1  0  0  0  0
  5  7  1  0  0  0  0
  5 10  1  0  0  0  0
  6  8  1  0  0  0  0
  8 16  1  1  0  0  0
  9 18  1  6  0  0  0
  9  8  1  0  0  0  0
 10 11  1  0  0  0  0
 13 12  2  0  0  0  0
 14 12  1  0  0  0  0
 15 14  1  0  0  0  0
 16 17  1  0  0  0  0
 19 18  1  0  0  0  0
 19 22  2  0  0  0  0
 20 18  1  0  0  0  0
 21 19  1  0  0  0  0
 23 24  1  0  0  0  0
 26 25  1  0  0  0  0
 27  1  1  0  0  0  0
 27 29  1  0  0  0  0
 28 27  1  0  0  0  0
 30 28  2  0  0  0  0
 31 28  1  0  0  0  0
 32 31  1  0  0  0  0
 33 32  1  0  0  0  0
 34 33  2  0  0  0  0
 35 33  1  0  0  0  0
 36 34  1  0  0  0  0
 37 36  1  0  0  0  0
 37 35  2  0  0  0  0
 38 36  1  0  0  0  0
 39 41  2  0  0  0  0
 39 38  1  0  0  0  0
 40 44  1  0  0  0  0
 40 38  2  0  0  0  0
 42 39  1  0  0  0  0
 43 40  1  0  0  0  0
 45 41  1  0  0  0  0
 46 42  2  0  0  0  0
 46 50  1  0  0  0  0
 47 43  2  0  0  0  0
 47 42  1  0  0  0  0
 48 51  2  0  0  0  0
 48 43  1  0  0  0  0
 49 44  2  0  0  0  0
 50 45  2  0  0  0  0
 51 49  1  0  0  0  0
 52 53  1  0  0  0  0
 54 53  1  0  0  0  0
 54 55  1  0  0  0  0
 55 56  1  0  0  0  0
 56 57  1  0  0  0  0
M  END
>  <REMARK>
 VINA RESULT:    -5.286      4.741      9.116
 INTER + INTRA:         -15.232
 INTER:                  -9.635
 INTRA:                  -5.597
 UNBOUND:                -6.084
 SMILES CC(=O)N[C@@H]1[C@@H](O)C[C@](O)(C(=O)O)O[C@H]1C(O)[C@H](O)CNC(=O)OCc1cn(-c2c3ccccc3nc3ccccc23)nn1
 SMILES IDX 20 1 18 2 16 3 15 4 9 5 8 6 14 7 6 8 5 9 10 10 11 12 12 13
 SMILES IDX 13 14 7 16 4 18 2 19 1 21 3 22 17 23 19 25 21 27 22 28 23 30
 SMILES IDX 24 31 25 32 26 33 27 34 44 35 28 36 43 37 29 38 30 39 42 40
 SMILES IDX 31 41 35 42 37 43 41 44 32 45 34 46 36 47 38 48 40 49 33 50
 SMILES IDX 39 51
 H PARENT 10 11 13 15 7 17 4 20 17 24 19 26 21 29
 Flexibility Score: inf
  4 active torsions:
  status: ('A' for Active; 'I' for Inactive)
    1  A    between atoms: CA   and  CB  
    2  A    between atoms: CB   and  CG  
    3  A    between atoms: CG   and  CD  
    4  A    between atoms: CD   and  CE  

>  <TORSDO>
F 15

>  <BEGIN_>
RES LYS A 131

$$$$
ligand_91_pose_13_2HRL.pdbqt
 OpenBabel07062320523D

  6  5  0  0  0  0  0  0  0  0999 V2000
   33.1930   34.6630    9.2900 C   0  0  0  0  0  0  0  0  0  0  0  0
   32.0600   35.3600   10.0340 C   0  0  0  0  0  0  0  0  0  0  0  0
   30.7870   35.4630    9.2340 C   0  0  0  0  0  0  0  0  0  0  0  0
   30.2180   34.0810    8.9520 C   0  0  0  0  0  0  0  0  0  0  0  0
   28.7150   34.0720    9.1570 C   0  0  0  0  0  0  0  0  0  0  0  0
   28.0190   34.7920    8.0540 N   0  0  0  0  0  0  0  0  0  0  0  0
  1  2  1  0  0  0  0
  3  2  1  0  0  0  0
  4  5  1  0  0  0  0
  4  3  1  0  0  0  0
  6  5  1  0  0  0  0
M  END
>  <EGIN_R>
ES LYS A 135

>  <REMARK>
  4 active torsions:
  status: ('A' for Active; 'I' for Inactive)
    5  A    between atoms: CA   and  CB  
    6  A    between atoms: CB   and  CG  
    7  A    between atoms: CG   and  CD  
    8  A    between atoms: CD   and  CE  

$$$$
