ligand_59_pose_10_2HRL.pdbqt
 OpenBabel07062320523D

 52 53  0  0  1  0  0  0  0  0999 V2000
   29.6100   27.0270   20.3100 N   0  0  0  0  0  0  0  0  0  0  0  0
   28.2360   27.4330   20.2400 C   0  0  0  0  0  0  0  0  0  0  0  0
   27.7150   27.8170   21.3120 O   0  0  0  0  0  0  0  0  0  0  0  0
   30.0080   26.7280   19.3940 H   0  0  0  0  0  0  0  0  0  0  0  0
   30.3370   27.0750   21.5500 C   0  0  0  0  0  0  0  0  0  0  0  0
   31.7210   27.6560   21.3060 C   0  0  2  0  0  0  0  0  0  0  0  0
   31.5640   29.1470   21.3790 C   0  0  2  0  0  0  0  0  0  0  0  0
   32.3420   29.8660   22.4430 C   0  0  2  0  0  0  0  0  0  0  0  0
   34.3420   31.1180   22.4180 C   0  0  2  0  0  0  0  0  0  0  0  0
   34.8180   30.5170   23.7170 C   0  0  0  0  0  0  0  0  0  0  0  0
   33.4440   30.3360   21.7780 O   0  0  0  0  0  0  0  0  0  0  0  0
   34.2990   29.0920   23.7010 C   0  0  1  0  0  0  0  0  0  0  0  0
   32.7510   29.1130   23.6350 C   0  0  1  0  0  0  0  0  0  0  0  0
   35.5160   31.2340   21.6100 O   0  0  0  0  0  0  0  0  0  0  0  0
   35.3000   30.9530   20.6840 H   0  0  0  0  0  0  0  0  0  0  0  0
   33.8220   32.4940   22.5570 C   0  0  0  0  0  0  0  0  0  0  0  0
   33.4500   33.1160   21.5420 O   0  0  0  0  0  0  0  0  0  0  0  0
   33.7360   33.1050   23.7930 O   0  0  0  0  0  0  0  0  0  0  0  0
   34.5870   33.4190   24.2440 H   0  0  0  0  0  0  0  0  0  0  0  0
   34.8410   28.3380   22.6900 O   0  0  0  0  0  0  0  0  0  0  0  0
   34.9830   28.9140   21.8850 H   0  0  0  0  0  0  0  0  0  0  0  0
   32.3560   29.6540   24.8950 N   0  0  0  0  0  0  0  0  0  0  0  0
   31.0600   29.4920   25.4100 C   0  0  0  0  0  0  0  0  0  0  0  0
   33.0480   30.1900   25.4460 H   0  0  0  0  0  0  0  0  0  0  0  0
   30.6490   30.0530   26.7190 C   0  0  0  0  0  0  0  0  0  0  0  0
   30.2180   28.8520   24.7480 O   0  0  0  0  0  0  0  0  0  0  0  0
   30.2110   29.4190   21.6530 O   0  0  0  0  0  0  0  0  0  0  0  0
   29.8080   30.0060   20.9580 H   0  0  0  0  0  0  0  0  0  0  0  0
   31.9920   27.2770   19.9620 O   0  0  0  0  0  0  0  0  0  0  0  0
   32.3470   28.0480   19.4910 H   0  0  0  0  0  0  0  0  0  0  0  0
   27.5060   27.4150   19.0830 O   0  0  0  0  0  0  0  0  0  0  0  0
   26.8410   28.5190   18.5510 C   0  0  0  0  0  0  0  0  0  0  0  0
   27.6400   29.2780   17.5570 C   0  0  0  0  0  0  0  0  0  0  0  0
   28.4990   30.3300   17.8850 C   0  0  0  0  0  0  0  0  0  0  0  0
   27.7360   29.1670   16.2390 N   0  0  0  0  0  0  0  0  0  0  0  0
   29.0580   30.7950   16.7680 N   0  0  0  0  0  0  0  0  0  0  0  0
   28.5880   30.0830   15.7720 N   0  0  0  0  0  0  0  0  0  0  0  0
   29.9930   31.8810   16.6780 C   0  0  0  0  0  0  0  0  0  0  0  0
   30.7900   32.0950   15.5730 C   0  0  0  0  0  0  0  0  0  0  0  0
   30.1260   32.7330   17.7070 N   0  0  0  0  0  0  0  0  0  0  0  0
   31.6930   33.1220   15.4860 C   0  0  0  0  0  0  0  0  0  0  0  0
   30.9960   33.7540   17.6680 C   0  0  0  0  0  0  0  0  0  0  0  0
   31.8060   33.9830   16.5610 C   0  0  0  0  0  0  0  0  0  0  0  0
   32.7550   35.1330   16.5700 C   0  0  0  0  0  0  0  0  0  0  0  0
   33.0590   35.4550   17.8860 O   0  0  0  0  0  0  0  0  0  0  0  0
   32.2950   35.9310   18.3030 H   0  0  0  0  0  0  0  0  0  0  0  0
   29.8670   25.5550   16.9770 C   0  0  0  0  0  0  0  0  0  0  0  0
   28.3450   25.7220   17.0260 C   0  0  0  0  0  0  0  0  0  0  0  0
   27.6020   24.3980   16.9320 C   0  0  0  0  0  0  0  0  0  0  0  0
   26.1600   24.5280   17.3370 C   0  0  0  0  0  0  0  0  0  0  0  0
   25.9240   23.7590   18.6330 C   0  0  0  0  0  0  0  0  0  0  0  0
   25.5260   24.6850   19.7200 N   0  0  0  0  0  0  0  0  0  0  0  0
  1  5  1  0  0  0  0
  2  1  1  0  0  0  0
  2  3  2  0  0  0  0
  4  1  1  0  0  0  0
  6  7  1  0  0  0  0
  6  5  1  6  0  0  0
  7 27  1  1  0  0  0
  8  7  1  6  0  0  0
  8 13  1  0  0  0  0
  9 14  1  6  0  0  0
  9 16  1  0  0  0  0
  9 10  1  0  0  0  0
 11  9  1  0  0  0  0
 11  8  1  0  0  0  0
 12 20  1  6  0  0  0
 12 10  1  0  0  0  0
 13 12  1  0  0  0  0
 13 22  1  1  0  0  0
 15 14  1  0  0  0  0
 16 18  1  0  0  0  0
 17 16  2  0  0  0  0
 18 19  1  0  0  0  0
 21 20  1  0  0  0  0
 22 23  1  0  0  0  0
 22 24  1  0  0  0  0
 23 25  1  0  0  0  0
 26 23  2  0  0  0  0
 28 27  1  0  0  0  0
 29  6  1  0  0  0  0
 30 29  1  0  0  0  0
 31  2  1  0  0  0  0
 32 31  1  0  0  0  0
 33 34  2  0  0  0  0
 33 32  1  0  0  0  0
 35 33  1  0  0  0  0
 36 34  1  0  0  0  0
 37 35  2  0  0  0  0
 37 36  1  0  0  0  0
 38 36  1  0  0  0  0
 38 40  2  0  0  0  0
 39 38  1  0  0  0  0
 41 39  2  0  0  0  0
 41 43  1  0  0  0  0
 42 40  1  0  0  0  0
 43 44  1  0  0  0  0
 43 42  2  0  0  0  0
 44 45  1  0  0  0  0
 45 46  1  0  0  0  0
 47 48  1  0  0  0  0
 49 48  1  0  0  0  0
 49 50  1  0  0  0  0
 50 51  1  0  0  0  0
 51 52  1  0  0  0  0
M  END
>  <REMARK>
 VINA RESULT:    -4.925      2.409      3.800
 INTER + INTRA:         -14.691
 INTER:                  -9.287
 INTRA:                  -5.403
 UNBOUND:                -5.735
 SMILES CC(=O)N[C@@H]1[C@@H](O)C[C@](O)(C(=O)O)O[C@H]1C(O)[C@H](O)CNC(=O)OCc1cn(-c2ccc(CO)cn2)nn1
 SMILES IDX 21 1 22 2 23 3 20 5 18 6 16 7 15 8 9 9 8 10 14 11 6 12 5 13
 SMILES IDX 10 14 11 16 12 17 13 18 7 20 4 22 2 23 1 25 3 26 17 27 19 29
 SMILES IDX 24 31 25 32 26 33 27 34 38 35 28 36 37 37 29 38 30 39 36 40
 SMILES IDX 31 41 35 42 32 43 33 44 34 45
 H PARENT 21 4 10 15 13 19 7 21 4 24 17 28 19 30 34 46
 Flexibility Score: inf
  4 active torsions:
  status: ('A' for Active; 'I' for Inactive)
    1  A    between atoms: CA   and  CB  
    2  A    between atoms: CB   and  CG  
    3  A    between atoms: CG   and  CD  
    4  A    between atoms: CD   and  CE  

>  <TORSDO>
F 17

>  <BEGIN_>
RES LYS A 131

$$$$
ligand_59_pose_10_2HRL.pdbqt
 OpenBabel07062320523D

  6  5  0  0  0  0  0  0  0  0999 V2000
   33.1930   34.6630    9.2900 C   0  0  0  0  0  0  0  0  0  0  0  0
   32.0600   35.3600   10.0340 C   0  0  0  0  0  0  0  0  0  0  0  0
   30.7010   34.7780    9.7430 C   0  0  0  0  0  0  0  0  0  0  0  0
   30.5390   34.5100    8.2550 C   0  0  0  0  0  0  0  0  0  0  0  0
   29.1390   34.8720    7.7970 C   0  0  0  0  0  0  0  0  0  0  0  0
   28.1160   34.3770    8.7590 N   0  0  0  0  0  0  0  0  0  0  0  0
  1  2  1  0  0  0  0
  3  2  1  0  0  0  0
  4  3  1  0  0  0  0
  5  4  1  0  0  0  0
  5  6  1  0  0  0  0
M  END
>  <EGIN_R>
ES LYS A 135

>  <REMARK>
  4 active torsions:
  status: ('A' for Active; 'I' for Inactive)
    5  A    between atoms: CA   and  CB  
    6  A    between atoms: CB   and  CG  
    7  A    between atoms: CG   and  CD  
    8  A    between atoms: CD   and  CE  

$$$$
