ligand_74_pose_5_2HRL.pdbqt
 OpenBabel07062320523D

 54 54  0  0  1  0  0  0  0  0999 V2000
   31.7960   32.5100   22.8100 O   0  0  0  0  0  0  0  0  0  0  0  0
   32.5000   31.3880   22.3380 C   0  0  0  0  0  0  0  0  0  0  0  0
   31.8720   30.4140   21.5250 N   0  0  0  0  0  0  0  0  0  0  0  0
   30.8430   30.5890   21.2960 H   0  0  0  0  0  0  0  0  0  0  0  0
   33.7070   31.2760   22.6610 O   0  0  0  0  0  0  0  0  0  0  0  0
   32.5450   29.2410   21.0160 C   0  0  0  0  0  0  0  0  0  0  0  0
   31.5500   28.3290   20.3860 C   0  0  2  0  0  0  0  0  0  0  0  0
   30.6710   27.5990   21.3890 C   0  0  2  0  0  0  0  0  0  0  0  0
   29.2250   27.6670   21.0070 C   0  0  2  0  0  0  0  0  0  0  0  0
   28.1760   29.6790   20.5130 C   0  0  2  0  0  0  0  0  0  0  0  0
   26.8640   29.2760   21.1410 C   0  0  0  0  0  0  0  0  0  0  0  0
   28.9060   28.5920   20.0580 O   0  0  0  0  0  0  0  0  0  0  0  0
   26.9100   27.8640   21.6840 C   0  0  1  0  0  0  0  0  0  0  0  0
   28.3300   27.6990   22.2430 C   0  0  1  0  0  0  0  0  0  0  0  0
   28.9200   30.4820   21.3820 O   0  0  0  0  0  0  0  0  0  0  0  0
   29.8840   30.3660   21.2870 H   0  0  0  0  0  0  0  0  0  0  0  0
   27.8570   30.5130   19.3240 C   0  0  0  0  0  0  0  0  0  0  0  0
   27.6130   29.9370   18.2200 O   0  0  0  0  0  0  0  0  0  0  0  0
   27.8070   31.8910   19.3490 O   0  0  0  0  0  0  0  0  0  0  0  0
   28.6390   32.4160   19.6600 H   0  0  0  0  0  0  0  0  0  0  0  0
   25.9460   27.6120   22.6280 O   0  0  0  0  0  0  0  0  0  0  0  0
   25.1440   28.1650   22.3780 H   0  0  0  0  0  0  0  0  0  0  0  0
   28.4620   26.4470   22.9460 N   0  0  0  0  0  0  0  0  0  0  0  0
   28.3170   26.3900   24.3670 C   0  0  0  0  0  0  0  0  0  0  0  0
   28.6670   25.5350   22.4680 H   0  0  0  0  0  0  0  0  0  0  0  0
   28.4460   25.1260   25.1160 C   0  0  0  0  0  0  0  0  0  0  0  0
   28.0720   27.4450   25.0040 O   0  0  0  0  0  0  0  0  0  0  0  0
   30.9430   28.0130   22.6720 O   0  0  0  0  0  0  0  0  0  0  0  0
   31.8830   28.2850   22.7270 H   0  0  0  0  0  0  0  0  0  0  0  0
   32.2550   27.3370   19.6640 O   0  0  0  0  0  0  0  0  0  0  0  0
   32.7540   27.7330   18.9130 H   0  0  0  0  0  0  0  0  0  0  0  0
   31.9940   33.7290   22.1400 C   0  0  0  0  0  0  0  0  0  0  0  0
   31.5450   33.6800   20.7370 C   0  0  0  0  0  0  0  0  0  0  0  0
   32.1740   34.1210   19.5830 C   0  0  0  0  0  0  0  0  0  0  0  0
   30.3820   33.1650   20.3200 N   0  0  0  0  0  0  0  0  0  0  0  0
   31.3840   33.8620   18.5270 N   0  0  0  0  0  0  0  0  0  0  0  0
   30.3080   33.2850   18.9980 N   0  0  0  0  0  0  0  0  0  0  0  0
   31.7170   34.1910   17.1140 C   0  0  0  0  0  0  0  0  0  0  0  0
   30.6610   33.6550   16.2120 C   0  0  2  0  0  0  0  0  0  0  0  0
   31.1350   32.3110   15.6880 C   0  0  0  0  0  0  0  0  0  0  0  0
   30.2030   31.2500   16.1460 C   0  0  0  0  0  0  0  0  0  0  0  0
   29.2460   30.8880   15.4390 O   0  0  0  0  0  0  0  0  0  0  0  0
   30.4460   30.6800   17.3990 O   0  0  0  0  0  0  0  0  0  0  0  0
   30.1140   29.7550   17.5930 H   0  0  0  0  0  0  0  0  0  0  0  0
   30.2350   34.6060   15.1710 C   0  0  0  0  0  0  0  0  0  0  0  0
   30.6740   34.3650   13.7770 C   0  0  0  0  0  0  0  0  0  0  0  0
   29.4220   34.6400   12.8960 C   0  0  0  0  0  0  0  0  0  0  0  0
   31.7710   35.2230   13.2470 C   0  0  0  0  0  0  0  0  0  0  0  0
   29.8670   25.5550   16.9770 C   0  0  0  0  0  0  0  0  0  0  0  0
   28.3450   25.7220   17.0260 C   0  0  0  0  0  0  0  0  0  0  0  0
   27.5990   24.4320   16.7200 C   0  0  0  0  0  0  0  0  0  0  0  0
   26.9880   23.8260   17.9530 C   0  0  0  0  0  0  0  0  0  0  0  0
   25.6480   24.4970   18.2390 C   0  0  0  0  0  0  0  0  0  0  0  0
   24.7840   24.4650   17.0360 N   0  0  0  0  0  0  0  0  0  0  0  0
  2  5  2  0  0  0  0
  2  1  1  0  0  0  0
  3  2  1  0  0  0  0
  4  3  1  0  0  0  0
  6  3  1  0  0  0  0
  7  6  1  1  0  0  0
  7  8  1  0  0  0  0
  8 28  1  1  0  0  0
  9  8  1  1  0  0  0
  9 14  1  0  0  0  0
 10 17  1  6  0  0  0
 10 11  1  0  0  0  0
 10 15  1  0  0  0  0
 11 13  1  0  0  0  0
 12 10  1  0  0  0  0
 12  9  1  0  0  0  0
 13 14  1  0  0  0  0
 13 21  1  1  0  0  0
 14 23  1  6  0  0  0
 16 15  1  0  0  0  0
 17 19  1  0  0  0  0
 18 17  2  0  0  0  0
 19 20  1  0  0  0  0
 22 21  1  0  0  0  0
 23 24  1  0  0  0  0
 24 27  2  0  0  0  0
 24 26  1  0  0  0  0
 25 23  1  0  0  0  0
 28 29  1  0  0  0  0
 30  7  1  0  0  0  0
 31 30  1  0  0  0  0
 32  1  1  0  0  0  0
 33 32  1  0  0  0  0
 34 33  2  0  0  0  0
 35 33  1  0  0  0  0
 36 37  1  0  0  0  0
 36 34  1  0  0  0  0
 37 35  2  0  0  0  0
 38 36  1  0  0  0  0
 39 45  1  6  0  0  0
 39 38  1  0  0  0  0
 40 41  1  0  0  0  0
 40 39  1  0  0  0  0
 41 43  1  0  0  0  0
 42 41  2  0  0  0  0
 43 44  1  0  0  0  0
 46 45  1  0  0  0  0
 47 46  1  0  0  0  0
 48 46  1  0  0  0  0
 49 50  1  0  0  0  0
 51 50  1  0  0  0  0
 51 52  1  0  0  0  0
 52 53  1  0  0  0  0
 54 53  1  0  0  0  0
M  END
>  <REMARK>
 VINA RESULT:    -4.430      2.313      4.299
 INTER + INTRA:         -16.209
 INTER:                  -8.589
 INTRA:                  -7.620
 UNBOUND:                -7.118
 SMILES CC(=O)N[C@@H]1[C@@H](O)C[C@](O)(C(=O)O)O[C@H]1C(O)[C@H](O)CNC(=O)OCc1cn(C[C@H](CC(=O)O)CC(C)C)nn1
 SMILES IDX 24 1 22 2 21 3 23 5 20 6 18 7 16 8 15 9 9 10 8 11 14 12 6 13
 SMILES IDX 5 14 10 15 11 17 12 18 13 19 7 21 4 23 2 24 1 26 3 27 17 28
 SMILES IDX 19 30 25 32 26 33 27 34 40 35 28 36 39 37 29 38 30 39 31 40
 SMILES IDX 32 41 33 42 34 43 35 45 36 46 37 47 38 48
 H PARENT 21 4 10 16 13 20 7 22 4 25 17 29 19 31 34 44
 Flexibility Score: inf
  4 active torsions:
  status: ('A' for Active; 'I' for Inactive)
    1  A    between atoms: CA   and  CB  
    2  A    between atoms: CB   and  CG  
    3  A    between atoms: CG   and  CD  
    4  A    between atoms: CD   and  CE  

>  <TORSDO>
F 21

>  <BEGIN_>
RES LYS A 131

$$$$
ligand_74_pose_5_2HRL.pdbqt
 OpenBabel07062320523D

  6  5  0  0  0  0  0  0  0  0999 V2000
   33.1930   34.6630    9.2900 C   0  0  0  0  0  0  0  0  0  0  0  0
   32.0600   35.3600   10.0340 C   0  0  0  0  0  0  0  0  0  0  0  0
   30.7710   35.4130    9.2550 C   0  0  0  0  0  0  0  0  0  0  0  0
   30.1620   34.0250    9.1300 C   0  0  0  0  0  0  0  0  0  0  0  0
   28.6490   34.1120    9.0610 C   0  0  0  0  0  0  0  0  0  0  0  0
   28.2150   35.1390    8.0740 N   0  0  0  0  0  0  0  0  0  0  0  0
  1  2  1  0  0  0  0
  3  2  1  0  0  0  0
  4  3  1  0  0  0  0
  5  4  1  0  0  0  0
  6  5  1  0  0  0  0
M  END
>  <EGIN_R>
ES LYS A 135

>  <REMARK>
  4 active torsions:
  status: ('A' for Active; 'I' for Inactive)
    5  A    between atoms: CA   and  CB  
    6  A    between atoms: CB   and  CG  
    7  A    between atoms: CG   and  CD  
    8  A    between atoms: CD   and  CE  

$$$$
