ligand_28_pose_14_2HRL.pdbqt
 OpenBabel07062320523D

 53 55  0  0  1  0  0  0  0  0999 V2000
   28.1520   29.3820   17.7720 N   0  0  0  0  0  0  0  0  0  0  0  0
   27.9510   30.6670   17.1960 C   0  0  0  0  0  0  0  0  0  0  0  0
   26.8360   30.9380   16.6410 O   0  0  0  0  0  0  0  0  0  0  0  0
   29.0630   29.1920   18.2150 H   0  0  0  0  0  0  0  0  0  0  0  0
   27.0620   28.4430   17.6940 C   0  0  0  0  0  0  0  0  0  0  0  0
   26.3880   28.1970   19.0060 C   0  0  2  0  0  0  0  0  0  0  0  0
   27.1960   27.3030   19.9200 C   0  0  2  0  0  0  0  0  0  0  0  0
   27.9190   28.1300   20.9790 C   0  0  2  0  0  0  0  0  0  0  0  0
   30.2210   27.9700   21.2270 C   0  0  2  0  0  0  0  0  0  0  0  0
   30.1720   28.1260   22.7300 C   0  0  0  0  0  0  0  0  0  0  0  0
   29.1590   28.5250   20.5730 O   0  0  0  0  0  0  0  0  0  0  0  0
   28.7540   28.2760   23.2410 C   0  0  1  0  0  0  0  0  0  0  0  0
   27.8720   27.4590   22.3260 C   0  0  1  0  0  0  0  0  0  0  0  0
   30.3850   26.6170   20.8760 O   0  0  0  0  0  0  0  0  0  0  0  0
   29.6500   26.0580   21.1880 H   0  0  0  0  0  0  0  0  0  0  0  0
   31.4550   28.6630   20.7660 C   0  0  0  0  0  0  0  0  0  0  0  0
   31.7580   29.8060   21.2270 O   0  0  0  0  0  0  0  0  0  0  0  0
   32.3290   28.1300   19.8350 O   0  0  0  0  0  0  0  0  0  0  0  0
   33.3300   28.3100   19.9640 H   0  0  0  0  0  0  0  0  0  0  0  0
   28.6470   27.8910   24.5730 O   0  0  0  0  0  0  0  0  0  0  0  0
   29.2630   28.4580   25.0960 H   0  0  0  0  0  0  0  0  0  0  0  0
   26.5310   27.3370   22.7750 N   0  0  0  0  0  0  0  0  0  0  0  0
   26.0720   26.2140   23.5110 C   0  0  0  0  0  0  0  0  0  0  0  0
   25.8650   28.1310   22.5380 H   0  0  0  0  0  0  0  0  0  0  0  0
   24.6500   26.1180   23.9710 C   0  0  0  0  0  0  0  0  0  0  0  0
   26.9180   25.3160   23.7530 O   0  0  0  0  0  0  0  0  0  0  0  0
   28.1780   26.6850   19.1470 O   0  0  0  0  0  0  0  0  0  0  0  0
   27.7770   26.3410   18.3110 H   0  0  0  0  0  0  0  0  0  0  0  0
   25.1510   27.6090   18.7430 O   0  0  0  0  0  0  0  0  0  0  0  0
   24.4840   27.8140   19.4430 H   0  0  0  0  0  0  0  0  0  0  0  0
   28.9260   31.6580   17.2090 O   0  0  0  0  0  0  0  0  0  0  0  0
   30.2130   31.3500   16.6860 C   0  0  0  0  0  0  0  0  0  0  0  0
   30.6440   32.3890   15.7250 C   0  0  0  0  0  0  0  0  0  0  0  0
   31.8250   33.0710   15.7910 C   0  0  0  0  0  0  0  0  0  0  0  0
   30.0020   32.8540   14.6530 N   0  0  0  0  0  0  0  0  0  0  0  0
   31.8650   33.9270   14.7610 N   0  0  0  0  0  0  0  0  0  0  0  0
   30.7530   33.7850   14.0790 N   0  0  0  0  0  0  0  0  0  0  0  0
   32.9510   34.8380   14.4720 C   0  0  0  0  0  0  0  0  0  0  0  0
   32.3500   36.0470   13.8410 C   0  0  0  0  0  0  0  0  0  0  0  0
   31.6210   36.9080   14.6280 C   0  0  0  0  0  0  0  0  0  0  0  0
   32.5020   36.3250   12.5060 C   0  0  0  0  0  0  0  0  0  0  0  0
   31.0510   38.0430   14.0600 C   0  0  0  0  0  0  0  0  0  0  0  0
   31.9340   37.4520   11.9470 C   0  0  0  0  0  0  0  0  0  0  0  0
   31.2060   38.3180   12.7170 C   0  0  0  0  0  0  0  0  0  0  0  0
   31.9570   37.9220   10.6470 O   0  0  0  0  0  0  0  0  0  0  0  0
   30.7500   39.3560   11.9300 O   0  0  0  0  0  0  0  0  0  0  0  0
   31.4080   39.2210   10.6780 C   0  0  0  0  0  0  0  0  0  0  0  0
   29.8670   25.5550   16.9770 C   0  0  0  0  0  0  0  0  0  0  0  0
   28.3450   25.7220   17.0260 C   0  0  0  0  0  0  0  0  0  0  0  0
   27.5990   24.4790   16.5640 C   0  0  0  0  0  0  0  0  0  0  0  0
   26.9810   23.7310   17.7120 C   0  0  0  0  0  0  0  0  0  0  0  0
   25.4610   23.7670   17.5840 C   0  0  0  0  0  0  0  0  0  0  0  0
   24.9080   22.3920   17.5820 N   0  0  0  0  0  0  0  0  0  0  0  0
  1  4  1  0  0  0  0
  2 31  1  0  0  0  0
  2  1  1  0  0  0  0
  3  2  2  0  0  0  0
  5  1  1  0  0  0  0
  6  5  1  6  0  0  0
  6  7  1  0  0  0  0
  7 27  1  6  0  0  0
  8  7  1  6  0  0  0
  8 13  1  0  0  0  0
  9 16  1  6  0  0  0
  9 10  1  0  0  0  0
 10 12  1  0  0  0  0
 11  8  1  0  0  0  0
 11  9  1  0  0  0  0
 12 20  1  1  0  0  0
 13 22  1  1  0  0  0
 13 12  1  0  0  0  0
 14 15  1  0  0  0  0
 14  9  1  0  0  0  0
 16 17  2  0  0  0  0
 18 19  1  0  0  0  0
 18 16  1  0  0  0  0
 20 21  1  0  0  0  0
 22 23  1  0  0  0  0
 23 26  2  0  0  0  0
 23 25  1  0  0  0  0
 24 22  1  0  0  0  0
 28 27  1  0  0  0  0
 29  6  1  0  0  0  0
 29 30  1  0  0  0  0
 32 31  1  0  0  0  0
 33 34  2  0  0  0  0
 33 32  1  0  0  0  0
 35 33  1  0  0  0  0
 36 34  1  0  0  0  0
 37 35  2  0  0  0  0
 37 36  1  0  0  0  0
 38 36  1  0  0  0  0
 39 38  1  0  0  0  0
 39 40  2  0  0  0  0
 41 39  1  0  0  0  0
 42 40  1  0  0  0  0
 43 41  2  0  0  0  0
 43 44  1  0  0  0  0
 44 42  2  0  0  0  0
 45 47  1  0  0  0  0
 45 43  1  0  0  0  0
 46 44  1  0  0  0  0
 47 46  1  0  0  0  0
 48 49  1  0  0  0  0
 50 49  1  0  0  0  0
 50 51  1  0  0  0  0
 52 51  1  0  0  0  0
 53 52  1  0  0  0  0
M  END
>  <REMARK>
 VINA RESULT:    -4.877      3.808     12.029
 INTER + INTRA:         -14.729
 INTER:                  -9.910
 INTRA:                  -4.819
 UNBOUND:                -6.003
 SMILES CC(=O)N[C@@H]1[C@@H](O)C[C@](O)(C(=O)O)O[C@H]1C(O)[C@H](O)CNC(=O)OCc1cn(Cc2ccc3c(c2)OCO3)nn1
 SMILES IDX 21 1 22 2 23 3 20 5 18 6 16 7 15 8 9 9 8 10 14 11 6 12 5 13
 SMILES IDX 10 14 11 16 12 17 13 18 7 20 4 22 2 23 1 25 3 26 17 27 19 29
 SMILES IDX 24 31 25 32 26 33 27 34 40 35 28 36 39 37 29 38 30 39 31 40
 SMILES IDX 35 41 32 42 34 43 33 44 36 45 38 46 37 47
 H PARENT 21 4 10 15 13 19 7 21 4 24 17 28 19 30
 Flexibility Score: inf
  4 active torsions:
  status: ('A' for Active; 'I' for Inactive)
    1  A    between atoms: CA   and  CB  
    2  A    between atoms: CB   and  CG  
    3  A    between atoms: CG   and  CD  
    4  A    between atoms: CD   and  CE  

>  <TORSDO>
F 16

>  <BEGIN_>
RES LYS A 131

$$$$
ligand_28_pose_14_2HRL.pdbqt
 OpenBabel07062320523D

  6  5  0  0  0  0  0  0  0  0999 V2000
   33.1930   34.6630    9.2900 C   0  0  0  0  0  0  0  0  0  0  0  0
   32.0600   35.3600   10.0340 C   0  0  0  0  0  0  0  0  0  0  0  0
   30.7040   34.7590    9.7670 C   0  0  0  0  0  0  0  0  0  0  0  0
   30.5430   34.4340    8.2900 C   0  0  0  0  0  0  0  0  0  0  0  0
   29.2610   35.0370    7.7480 C   0  0  0  0  0  0  0  0  0  0  0  0
   28.0710   34.5020    8.4680 N   0  0  0  0  0  0  0  0  0  0  0  0
  1  2  1  0  0  0  0
  3  2  1  0  0  0  0
  4  3  1  0  0  0  0
  5  4  1  0  0  0  0
  5  6  1  0  0  0  0
M  END
>  <EGIN_R>
ES LYS A 135

>  <REMARK>
  4 active torsions:
  status: ('A' for Active; 'I' for Inactive)
    5  A    between atoms: CA   and  CB  
    6  A    between atoms: CB   and  CG  
    7  A    between atoms: CG   and  CD  
    8  A    between atoms: CD   and  CE  

$$$$
