ligand_93_pose_7_2HRL.pdbqt
 OpenBabel07062320523D

 50 51  0  0  1  0  0  0  0  0999 V2000
   29.7520   31.2660   16.3650 C   0  0  0  0  0  0  0  0  0  0  0  0
   30.8140   32.3020   16.0800 C   0  0  2  0  0  0  0  0  0  0  0  0
   30.2000   33.6340   15.8310 C   0  0  1  0  0  0  0  0  0  0  0  0
   30.0020   34.0070   14.3850 C   0  0  2  0  0  0  0  0  0  0  0  0
   31.5930   35.5910   13.6690 C   0  0  2  0  0  0  0  0  0  0  0  0
   30.4950   36.5150   13.1830 C   0  0  0  0  0  0  0  0  0  0  0  0
   31.2180   34.3120   13.8730 O   0  0  0  0  0  0  0  0  0  0  0  0
   29.3360   36.3580   14.1330 C   0  0  1  0  0  0  0  0  0  0  0  0
   28.8820   34.9210   14.0820 C   0  0  1  0  0  0  0  0  0  0  0  0
   32.0260   36.1260   14.8810 O   0  0  0  0  0  0  0  0  0  0  0  0
   31.4010   35.7780   15.5850 H   0  0  0  0  0  0  0  0  0  0  0  0
   32.7260   35.7200   12.6990 C   0  0  0  0  0  0  0  0  0  0  0  0
   32.8070   36.6440   11.8610 O   0  0  0  0  0  0  0  0  0  0  0  0
   33.7240   34.7700   12.7320 O   0  0  0  0  0  0  0  0  0  0  0  0
   34.5460   34.8480   13.3340 H   0  0  0  0  0  0  0  0  0  0  0  0
   29.7990   36.7360   15.3950 O   0  0  0  0  0  0  0  0  0  0  0  0
   30.0770   35.9590   15.9390 H   0  0  0  0  0  0  0  0  0  0  0  0
   28.3980   34.6870   12.7090 N   0  0  0  0  0  0  0  0  0  0  0  0
   27.0420   34.8830   12.3500 C   0  0  0  0  0  0  0  0  0  0  0  0
   29.0590   34.3690   11.9730 H   0  0  0  0  0  0  0  0  0  0  0  0
   26.6350   34.6270   10.9500 C   0  0  0  0  0  0  0  0  0  0  0  0
   26.1870   35.2690   13.2030 O   0  0  0  0  0  0  0  0  0  0  0  0
   29.0950   33.8790   16.6350 O   0  0  0  0  0  0  0  0  0  0  0  0
   28.2420   33.7830   16.1260 H   0  0  0  0  0  0  0  0  0  0  0  0
   31.5010   31.8270   14.9320 O   0  0  0  0  0  0  0  0  0  0  0  0
   30.8530   31.7360   14.1820 H   0  0  0  0  0  0  0  0  0  0  0  0
   29.7950   30.7390   17.7100 N   0  0  0  0  0  0  0  0  0  0  0  0
   28.7060   31.0150   18.5950 C   0  0  0  0  0  0  0  0  0  0  0  0
   30.6110   30.1700   17.9960 H   0  0  0  0  0  0  0  0  0  0  0  0
   27.7600   31.7010   18.1720 O   0  0  0  0  0  0  0  0  0  0  0  0
   28.7730   30.4990   19.8780 O   0  0  0  0  0  0  0  0  0  0  0  0
   29.5480   31.1680   20.8390 C   0  0  0  0  0  0  0  0  0  0  0  0
   30.8560   30.4760   20.9390 C   0  0  0  0  0  0  0  0  0  0  0  0
   31.8920   30.8750   21.7910 C   0  0  0  0  0  0  0  0  0  0  0  0
   31.3120   29.3980   20.2900 N   0  0  0  0  0  0  0  0  0  0  0  0
   32.8820   30.0020   21.5800 N   0  0  0  0  0  0  0  0  0  0  0  0
   32.5430   29.1060   20.6740 N   0  0  0  0  0  0  0  0  0  0  0  0
   34.1360   30.0280   22.2380 C   0  0  0  0  0  0  0  0  0  0  0  0
   35.0370   31.0470   21.9310 C   0  0  0  0  0  0  0  0  0  0  0  0
   34.4340   29.0590   23.1560 C   0  0  0  0  0  0  0  0  0  0  0  0
   36.2600   31.0800   22.5670 C   0  0  0  0  0  0  0  0  0  0  0  0
   35.6660   29.1090   23.7830 C   0  0  0  0  0  0  0  0  0  0  0  0
   33.1060   27.5010   23.6520 I   0  0  0  0  0  0  0  0  0  0  0  0
   36.5750   30.1110   23.4940 C   0  0  0  0  0  0  0  0  0  0  0  0
   29.8670   25.5550   16.9770 C   0  0  0  0  0  0  0  0  0  0  0  0
   28.3450   25.7220   17.0260 C   0  0  0  0  0  0  0  0  0  0  0  0
   27.6020   24.4000   16.9100 C   0  0  0  0  0  0  0  0  0  0  0  0
   26.6320   24.1940   18.0410 C   0  0  0  0  0  0  0  0  0  0  0  0
   25.4350   25.1210   17.8600 C   0  0  0  0  0  0  0  0  0  0  0  0
   25.3090   26.0380   19.0170 N   0  0  0  0  0  0  0  0  0  0  0  0
  1 27  1  0  0  0  0
  2  1  1  6  0  0  0
  3  2  1  0  0  0  0
  3 23  1  1  0  0  0
  4  3  1  1  0  0  0
  5 12  1  6  0  0  0
  5  7  1  0  0  0  0
  5 10  1  0  0  0  0
  6  5  1  0  0  0  0
  6  8  1  0  0  0  0
  7  4  1  0  0  0  0
  8 16  1  1  0  0  0
  9 18  1  6  0  0  0
  9  8  1  0  0  0  0
  9  4  1  0  0  0  0
 10 11  1  0  0  0  0
 12 14  1  0  0  0  0
 13 12  2  0  0  0  0
 14 15  1  0  0  0  0
 16 17  1  0  0  0  0
 19 18  1  0  0  0  0
 19 22  2  0  0  0  0
 20 18  1  0  0  0  0
 21 19  1  0  0  0  0
 24 23  1  0  0  0  0
 25  2  1  0  0  0  0
 26 25  1  0  0  0  0
 27 29  1  0  0  0  0
 27 28  1  0  0  0  0
 28 31  1  0  0  0  0
 30 28  2  0  0  0  0
 31 32  1  0  0  0  0
 32 33  1  0  0  0  0
 33 34  2  0  0  0  0
 35 37  2  0  0  0  0
 35 33  1  0  0  0  0
 36 34  1  0  0  0  0
 36 38  1  0  0  0  0
 37 36  1  0  0  0  0
 38 40  1  0  0  0  0
 39 38  2  0  0  0  0
 39 41  1  0  0  0  0
 40 43  1  0  0  0  0
 40 42  2  0  0  0  0
 41 44  2  0  0  0  0
 44 42  1  0  0  0  0
 45 46  1  0  0  0  0
 47 46  1  0  0  0  0
 47 48  1  0  0  0  0
 49 48  1  0  0  0  0
 49 50  1  0  0  0  0
M  END
>  <REMARK>
 VINA RESULT:    -4.544      3.943      9.134
 INTER + INTRA:         -14.149
 INTER:                  -9.372
 INTRA:                  -4.778
 UNBOUND:                -6.285
 SMILES CC(=O)N[C@@H]1[C@@H](O)C[C@](O)(C(=O)O)O[C@H]1C(O)[C@H](O)CNC(=O)OCc1cn(-c2ccccc2I)nn1
 SMILES IDX 20 1 18 2 16 3 15 4 9 5 8 6 14 7 6 8 5 9 10 10 11 12 12 13
 SMILES IDX 13 14 7 16 4 18 2 19 1 21 3 22 17 23 19 25 21 27 22 28 23 30
 SMILES IDX 24 31 25 32 26 33 27 34 37 35 28 36 36 37 29 38 30 39 34 40
 SMILES IDX 31 41 33 42 35 43 32 44
 H PARENT 10 11 13 15 7 17 4 20 17 24 19 26 21 29
 Flexibility Score: inf
  4 active torsions:
  status: ('A' for Active; 'I' for Inactive)
    1  A    between atoms: CA   and  CB  
    2  A    between atoms: CB   and  CG  
    3  A    between atoms: CG   and  CD  
    4  A    between atoms: CD   and  CE  

>  <TORSDO>
F 15

>  <BEGIN_>
RES LYS A 131

$$$$
ligand_93_pose_7_2HRL.pdbqt
 OpenBabel07062320523D

  6  5  0  0  0  0  0  0  0  0999 V2000
   33.1930   34.6630    9.2900 C   0  0  0  0  0  0  0  0  0  0  0  0
   32.0600   35.3600   10.0340 C   0  0  0  0  0  0  0  0  0  0  0  0
   30.7100   34.7320    9.8010 C   0  0  0  0  0  0  0  0  0  0  0  0
   30.4640   34.5240    8.3150 C   0  0  0  0  0  0  0  0  0  0  0  0
   29.0170   34.8160    7.9680 C   0  0  0  0  0  0  0  0  0  0  0  0
   28.9100   35.5240    6.6630 N   0  0  0  0  0  0  0  0  0  0  0  0
  1  2  1  0  0  0  0
  3  2  1  0  0  0  0
  4  3  1  0  0  0  0
  5  4  1  0  0  0  0
  6  5  1  0  0  0  0
M  END
>  <EGIN_R>
ES LYS A 135

>  <REMARK>
  4 active torsions:
  status: ('A' for Active; 'I' for Inactive)
    5  A    between atoms: CA   and  CB  
    6  A    between atoms: CB   and  CG  
    7  A    between atoms: CG   and  CD  
    8  A    between atoms: CD   and  CE  

$$$$
