ligand_44_pose_2_2HRL.pdbqt
 OpenBabel07062320523D

 51 52  0  0  1  0  0  0  0  0999 V2000
   23.5680   32.9240   14.2520 N   0  0  0  0  0  0  0  0  0  0  0  0
   23.6400   31.6730   13.5910 C   0  0  0  0  0  0  0  0  0  0  0  0
   22.7820   31.2040   12.8200 O   0  0  0  0  0  0  0  0  0  0  0  0
   24.3690   33.2290   14.8900 H   0  0  0  0  0  0  0  0  0  0  0  0
   22.4320   33.7700   14.0670 C   0  0  0  0  0  0  0  0  0  0  0  0
   22.7370   35.1300   13.4930 C   0  0  2  0  0  0  0  0  0  0  0  0
   22.5830   35.2000   12.0170 C   0  0  1  0  0  0  0  0  0  0  0  0
   23.3910   36.1790   11.2610 C   0  0  2  0  0  0  0  0  0  0  0  0
   22.5580   36.4740    9.1310 C   0  0  2  0  0  0  0  0  0  0  0  0
   23.7990   37.1590    8.6060 C   0  0  0  0  0  0  0  0  0  0  0  0
   22.4680   36.8680   10.4570 O   0  0  0  0  0  0  0  0  0  0  0  0
   24.9540   36.5620    9.3350 C   0  0  1  0  0  0  0  0  0  0  0  0
   24.5950   35.7390   10.5570 C   0  0  1  0  0  0  0  0  0  0  0  0
   22.7150   35.1200    8.9380 O   0  0  0  0  0  0  0  0  0  0  0  0
   22.0650   34.5620    9.4050 H   0  0  0  0  0  0  0  0  0  0  0  0
   21.3970   37.0270    8.3930 C   0  0  0  0  0  0  0  0  0  0  0  0
   20.6170   37.8750    8.8790 O   0  0  0  0  0  0  0  0  0  0  0  0
   21.1880   36.5580    7.0990 O   0  0  0  0  0  0  0  0  0  0  0  0
   20.3460   36.0840    6.8140 H   0  0  0  0  0  0  0  0  0  0  0  0
   25.5930   35.6760    8.4350 O   0  0  0  0  0  0  0  0  0  0  0  0
   26.5530   35.6110    8.6090 H   0  0  0  0  0  0  0  0  0  0  0  0
   25.8030   35.8960   11.3980 N   0  0  0  0  0  0  0  0  0  0  0  0
   26.3100   34.8780   12.2130 C   0  0  0  0  0  0  0  0  0  0  0  0
   26.2510   36.8430   11.3320 H   0  0  0  0  0  0  0  0  0  0  0  0
   27.5310   35.1400   13.0300 C   0  0  0  0  0  0  0  0  0  0  0  0
   25.7560   33.7690   12.2600 O   0  0  0  0  0  0  0  0  0  0  0  0
   22.5210   33.9150   11.4990 O   0  0  0  0  0  0  0  0  0  0  0  0
   22.0690   33.3130   12.1560 H   0  0  0  0  0  0  0  0  0  0  0  0
   23.8920   35.7180   13.9780 O   0  0  0  0  0  0  0  0  0  0  0  0
   23.7320   36.5430   14.4790 H   0  0  0  0  0  0  0  0  0  0  0  0
   24.7680   30.8820   13.8090 O   0  0  0  0  0  0  0  0  0  0  0  0
   25.0740   30.3770   15.0860 C   0  0  0  0  0  0  0  0  0  0  0  0
   26.3590   30.8920   15.5900 C   0  0  0  0  0  0  0  0  0  0  0  0
   27.4520   30.2390   16.1080 C   0  0  0  0  0  0  0  0  0  0  0  0
   26.6430   32.2150   15.6060 N   0  0  0  0  0  0  0  0  0  0  0  0
   28.3660   31.1850   16.4230 N   0  0  0  0  0  0  0  0  0  0  0  0
   27.8430   32.3540   16.1060 N   0  0  0  0  0  0  0  0  0  0  0  0
   29.6680   30.9190   17.0000 C   0  0  0  0  0  0  0  0  0  0  0  0
   30.5320   32.1150   16.7270 C   0  0  0  0  0  0  0  0  0  0  0  0
   31.0900   32.2720   15.4670 C   0  0  0  0  0  0  0  0  0  0  0  0
   30.7550   33.0380   17.7260 C   0  0  0  0  0  0  0  0  0  0  0  0
   31.8760   33.3710   15.2400 C   0  0  0  0  0  0  0  0  0  0  0  0
   31.5540   34.1580   17.4960 C   0  0  0  0  0  0  0  0  0  0  0  0
   32.0950   34.2890   16.2420 C   0  0  0  0  0  0  0  0  0  0  0  0
   33.1940   35.8150   15.8950 Br  0  0  0  0  0  0  0  0  0  0  0  0
   29.8670   25.5550   16.9770 C   0  0  0  0  0  0  0  0  0  0  0  0
   28.3450   25.7220   17.0260 C   0  0  0  0  0  0  0  0  0  0  0  0
   27.6020   24.3990   16.9270 C   0  0  0  0  0  0  0  0  0  0  0  0
   26.6220   24.2140   18.0510 C   0  0  0  0  0  0  0  0  0  0  0  0
   26.2590   25.5730   18.6400 C   0  0  0  0  0  0  0  0  0  0  0  0
   24.8970   25.9760   18.2160 N   0  0  0  0  0  0  0  0  0  0  0  0
  1  4  1  0  0  0  0
  2 31  1  0  0  0  0
  2  1  1  0  0  0  0
  3  2  2  0  0  0  0
  5  1  1  0  0  0  0
  6 29  1  0  0  0  0
  6  5  1  6  0  0  0
  7 27  1  6  0  0  0
  7  6  1  0  0  0  0
  8  7  1  6  0  0  0
  9 16  1  6  0  0  0
  9 11  1  0  0  0  0
 10  9  1  0  0  0  0
 10 12  1  0  0  0  0
 11  8  1  0  0  0  0
 12 20  1  6  0  0  0
 12 13  1  0  0  0  0
 13  8  1  0  0  0  0
 13 22  1  1  0  0  0
 14  9  1  0  0  0  0
 14 15  1  0  0  0  0
 16 17  2  0  0  0  0
 18 16  1  0  0  0  0
 19 18  1  0  0  0  0
 20 21  1  0  0  0  0
 22 23  1  0  0  0  0
 23 26  2  0  0  0  0
 23 25  1  0  0  0  0
 24 22  1  0  0  0  0
 27 28  1  0  0  0  0
 29 30  1  0  0  0  0
 31 32  1  0  0  0  0
 32 33  1  0  0  0  0
 33 35  1  0  0  0  0
 33 34  2  0  0  0  0
 34 36  1  0  0  0  0
 35 37  2  0  0  0  0
 36 38  1  0  0  0  0
 37 36  1  0  0  0  0
 39 38  1  0  0  0  0
 39 41  2  0  0  0  0
 40 39  1  0  0  0  0
 42 40  2  0  0  0  0
 42 44  1  0  0  0  0
 43 41  1  0  0  0  0
 44 43  2  0  0  0  0
 45 44  1  0  0  0  0
 46 47  1  0  0  0  0
 48 47  1  0  0  0  0
 48 49  1  0  0  0  0
 49 50  1  0  0  0  0
 51 50  1  0  0  0  0
M  END
>  <REMARK>
 VINA RESULT:    -4.739      4.152      7.374
 INTER + INTRA:         -14.876
 INTER:                  -9.434
 INTRA:                  -5.442
 UNBOUND:                -6.398
 SMILES CC(=O)N[C@@H]1[C@@H](O)C[C@](O)(C(=O)O)O[C@H]1C(O)[C@H](O)CNC(=O)OCc1cn(Cc2ccc(Br)cc2)nn1
 SMILES IDX 21 1 22 2 23 3 20 5 18 6 16 7 15 8 9 9 8 10 14 11 6 12 5 13
 SMILES IDX 10 14 11 16 12 17 13 18 7 20 4 22 2 23 1 25 3 26 17 27 19 29
 SMILES IDX 24 31 25 32 26 33 27 34 38 35 28 36 37 37 29 38 30 39 31 40
 SMILES IDX 36 41 32 42 35 43 33 44 34 45
 H PARENT 21 4 10 15 13 19 7 21 4 24 17 28 19 30
 Flexibility Score: inf
  4 active torsions:
  status: ('A' for Active; 'I' for Inactive)
    1  A    between atoms: CA   and  CB  
    2  A    between atoms: CB   and  CG  
    3  A    between atoms: CG   and  CD  
    4  A    between atoms: CD   and  CE  

>  <TORSDO>
F 16

>  <BEGIN_>
RES LYS A 131

$$$$
ligand_44_pose_2_2HRL.pdbqt
 OpenBabel07062320523D

  6  5  0  0  0  0  0  0  0  0999 V2000
   33.1930   34.6630    9.2900 C   0  0  0  0  0  0  0  0  0  0  0  0
   32.0600   35.3600   10.0340 C   0  0  0  0  0  0  0  0  0  0  0  0
   30.7150   34.7120    9.8270 C   0  0  0  0  0  0  0  0  0  0  0  0
   30.0300   35.2800    8.5940 C   0  0  0  0  0  0  0  0  0  0  0  0
   28.7670   34.5000    8.2800 C   0  0  0  0  0  0  0  0  0  0  0  0
   28.2700   33.7770    9.4830 N   0  0  0  0  0  0  0  0  0  0  0  0
  1  2  1  0  0  0  0
  3  2  1  0  0  0  0
  4  3  1  0  0  0  0
  5  4  1  0  0  0  0
  5  6  1  0  0  0  0
M  END
>  <EGIN_R>
ES LYS A 135

>  <REMARK>
  4 active torsions:
  status: ('A' for Active; 'I' for Inactive)
    5  A    between atoms: CA   and  CB  
    6  A    between atoms: CB   and  CG  
    7  A    between atoms: CG   and  CD  
    8  A    between atoms: CD   and  CE  

$$$$
