ligand_76_pose_7_2HRL.pdbqt
 OpenBabel07062320523D

 55 56  0  0  1  0  0  0  0  0999 V2000
   28.9980   37.4800   14.8720 O   0  0  0  0  0  0  0  0  0  0  0  0
   29.9190   36.5420   15.3040 C   0  0  0  0  0  0  0  0  0  0  0  0
   30.3070   35.4740   14.4700 N   0  0  0  0  0  0  0  0  0  0  0  0
   29.8930   35.3960   13.5230 H   0  0  0  0  0  0  0  0  0  0  0  0
   30.4180   36.6370   16.4490 O   0  0  0  0  0  0  0  0  0  0  0  0
   31.2740   34.4680   14.8850 C   0  0  0  0  0  0  0  0  0  0  0  0
   30.6020   33.1220   15.0830 C   0  0  2  0  0  0  0  0  0  0  0  0
   30.1940   33.0070   16.5420 C   0  0  1  0  0  0  0  0  0  0  0  0
   29.8710   31.5500   16.8870 C   0  0  2  0  0  0  0  0  0  0  0  0
   27.6270   31.0830   16.4410 C   0  0  2  0  0  0  0  0  0  0  0  0
   27.3200   31.7460   17.7370 C   0  0  0  0  0  0  0  0  0  0  0  0
   28.9290   30.9970   16.0960 O   0  0  0  0  0  0  0  0  0  0  0  0
   28.2680   31.4070   18.8310 C   0  0  1  0  0  0  0  0  0  0  0  0
   29.7000   31.4150   18.3680 C   0  0  1  0  0  0  0  0  0  0  0  0
   26.9550   31.8160   15.4330 O   0  0  0  0  0  0  0  0  0  0  0  0
   27.4530   31.7320   14.5800 H   0  0  0  0  0  0  0  0  0  0  0  0
   26.9700   29.7270   16.4560 C   0  0  0  0  0  0  0  0  0  0  0  0
   25.7600   29.5540   16.1830 O   0  0  0  0  0  0  0  0  0  0  0  0
   27.6970   28.5770   16.7800 O   0  0  0  0  0  0  0  0  0  0  0  0
   27.5640   28.1230   17.6950 H   0  0  0  0  0  0  0  0  0  0  0  0
   28.0600   32.3120   19.8980 O   0  0  0  0  0  0  0  0  0  0  0  0
   28.2260   31.8580   20.7770 H   0  0  0  0  0  0  0  0  0  0  0  0
   30.4260   30.2420   18.8620 N   0  0  0  0  0  0  0  0  0  0  0  0
   31.0110   30.2190   20.1360 C   0  0  0  0  0  0  0  0  0  0  0  0
   30.4830   29.4140   18.1990 H   0  0  0  0  0  0  0  0  0  0  0  0
   31.7330   29.0170   20.5890 C   0  0  0  0  0  0  0  0  0  0  0  0
   30.9280   31.2070   20.8910 O   0  0  0  0  0  0  0  0  0  0  0  0
   31.3580   33.2990   17.2760 O   0  0  0  0  0  0  0  0  0  0  0  0
   32.1550   32.8090   16.9120 H   0  0  0  0  0  0  0  0  0  0  0  0
   31.4790   32.0970   14.7490 O   0  0  0  0  0  0  0  0  0  0  0  0
   31.3760   31.9260   13.7830 H   0  0  0  0  0  0  0  0  0  0  0  0
   27.6330   37.2490   15.2580 C   0  0  0  0  0  0  0  0  0  0  0  0
   27.0570   36.1490   14.4550 C   0  0  0  0  0  0  0  0  0  0  0  0
   26.4900   36.1860   13.2030 C   0  0  0  0  0  0  0  0  0  0  0  0
   27.0000   34.8660   14.8550 N   0  0  0  0  0  0  0  0  0  0  0  0
   26.1080   34.9430   12.8780 N   0  0  0  0  0  0  0  0  0  0  0  0
   26.4190   34.1700   13.8700 N   0  0  0  0  0  0  0  0  0  0  0  0
   25.4510   34.4960   11.6300 C   0  0  0  0  0  0  0  0  0  0  0  0
   25.1060   35.7090   10.8220 C   0  0  2  0  0  0  0  0  0  0  0  0
   23.7400   36.0150   10.8950 O   0  0  0  0  0  0  0  0  0  0  0  0
   23.6180   36.9150   10.4750 H   0  0  0  0  0  0  0  0  0  0  0  0
   25.7680   35.8790    9.5490 C   0  0  0  0  0  0  0  0  0  0  0  0
   26.2380   34.7010    8.8100 C   0  0  0  0  0  0  0  0  0  0  0  0
   27.6730   34.6350    8.5850 C   0  0  0  0  0  0  0  0  0  0  0  0
   28.4640   34.0050    9.5540 C   0  0  0  0  0  0  0  0  0  0  0  0
   28.3390   35.1950    7.5400 C   0  0  0  0  0  0  0  0  0  0  0  0
   29.8330   33.9670    9.4380 C   0  0  0  0  0  0  0  0  0  0  0  0
   29.7160   35.1660    7.4050 C   0  0  0  0  0  0  0  0  0  0  0  0
   30.4810   34.5420    8.3690 C   0  0  0  0  0  0  0  0  0  0  0  0
   29.8670   25.5550   16.9770 C   0  0  0  0  0  0  0  0  0  0  0  0
   28.3450   25.7220   17.0260 C   0  0  0  0  0  0  0  0  0  0  0  0
   27.6010   24.4010   16.9010 C   0  0  0  0  0  0  0  0  0  0  0  0
   26.3510   24.3740   17.7360 C   0  0  0  0  0  0  0  0  0  0  0  0
   26.0020   25.7920   18.1770 C   0  0  0  0  0  0  0  0  0  0  0  0
   24.8020   25.7840   19.0460 N   0  0  0  0  0  0  0  0  0  0  0  0
  1 32  1  0  0  0  0
  1  2  1  0  0  0  0
  2  5  2  0  0  0  0
  3  6  1  0  0  0  0
  3  2  1  0  0  0  0
  4  3  1  0  0  0  0
  7  6  1  1  0  0  0
  7  8  1  0  0  0  0
  8 28  1  1  0  0  0
  9  8  1  1  0  0  0
  9 14  1  0  0  0  0
 10 15  1  6  0  0  0
 10 17  1  0  0  0  0
 10 11  1  0  0  0  0
 11 13  1  0  0  0  0
 12 10  1  0  0  0  0
 12  9  1  0  0  0  0
 13 21  1  1  0  0  0
 14 13  1  0  0  0  0
 14 23  1  6  0  0  0
 16 15  1  0  0  0  0
 17 19  1  0  0  0  0
 18 17  2  0  0  0  0
 19 20  1  0  0  0  0
 21 22  1  0  0  0  0
 23 24  1  0  0  0  0
 24 26  1  0  0  0  0
 24 27  2  0  0  0  0
 25 23  1  0  0  0  0
 29 28  1  0  0  0  0
 30  7  1  0  0  0  0
 31 30  1  0  0  0  0
 33 35  1  0  0  0  0
 33 32  1  0  0  0  0
 34 33  2  0  0  0  0
 36 34  1  0  0  0  0
 36 37  1  0  0  0  0
 37 35  2  0  0  0  0
 38 36  1  0  0  0  0
 39 42  1  6  0  0  0
 39 40  1  0  0  0  0
 39 38  1  0  0  0  0
 41 40  1  0  0  0  0
 43 42  1  0  0  0  0
 44 43  1  0  0  0  0
 44 45  2  0  0  0  0
 46 44  1  0  0  0  0
 47 45  1  0  0  0  0
 48 46  2  0  0  0  0
 48 49  1  0  0  0  0
 49 47  2  0  0  0  0
 50 51  1  0  0  0  0
 52 51  1  0  0  0  0
 52 53  1  0  0  0  0
 53 54  1  0  0  0  0
 54 55  1  0  0  0  0
M  END
>  <REMARK>
 VINA RESULT:    -5.091      4.516      9.212
 INTER + INTRA:         -16.922
 INTER:                 -12.306
 INTRA:                  -4.616
 UNBOUND:                -6.771
 SMILES CC(=O)N[C@@H]1[C@@H](O)C[C@](O)(C(=O)O)O[C@H]1C(O)[C@H](O)CNC(=O)OCc1cn(CC(O)CCc2ccccc2)nn1
 SMILES IDX 24 1 22 2 21 3 23 5 20 6 18 7 16 8 15 9 9 10 8 11 14 12 6 13
 SMILES IDX 5 14 10 15 11 17 12 18 13 19 7 21 4 23 2 24 1 26 3 27 17 28
 SMILES IDX 19 30 25 32 26 33 27 34 41 35 28 36 40 37 29 38 30 39 31 40
 SMILES IDX 32 42 33 43 34 44 35 45 39 46 36 47 38 48 37 49
 H PARENT 21 4 10 16 13 20 7 22 4 25 17 29 19 31 31 41
 Flexibility Score: inf
  4 active torsions:
  status: ('A' for Active; 'I' for Inactive)
    1  A    between atoms: CA   and  CB  
    2  A    between atoms: CB   and  CG  
    3  A    between atoms: CG   and  CD  
    4  A    between atoms: CD   and  CE  

>  <TORSDO>
F 20

>  <BEGIN_>
RES LYS A 131

$$$$
ligand_76_pose_7_2HRL.pdbqt
 OpenBabel07062320523D

  6  5  0  0  0  0  0  0  0  0999 V2000
   33.1930   34.6630    9.2900 C   0  0  0  0  0  0  0  0  0  0  0  0
   32.0600   35.3600   10.0340 C   0  0  0  0  0  0  0  0  0  0  0  0
   32.4700   35.9130   11.3750 C   0  0  0  0  0  0  0  0  0  0  0  0
   31.8620   37.2890   11.5960 C   0  0  0  0  0  0  0  0  0  0  0  0
   30.6360   37.4770   10.7220 C   0  0  0  0  0  0  0  0  0  0  0  0
   29.3940   37.1040   11.4530 N   0  0  0  0  0  0  0  0  0  0  0  0
  1  2  1  0  0  0  0
  2  3  1  0  0  0  0
  3  4  1  0  0  0  0
  5  6  1  0  0  0  0
  5  4  1  0  0  0  0
M  END
>  <EGIN_R>
ES LYS A 135

>  <REMARK>
  4 active torsions:
  status: ('A' for Active; 'I' for Inactive)
    5  A    between atoms: CA   and  CB  
    6  A    between atoms: CB   and  CG  
    7  A    between atoms: CG   and  CD  
    8  A    between atoms: CD   and  CE  

$$$$
