ligand_28_pose_2_2HRL.pdbqt
 OpenBabel07062320523D

 53 55  0  0  1  0  0  0  0  0999 V2000
   29.3920   30.6390   16.7150 N   0  0  0  0  0  0  0  0  0  0  0  0
   28.1440   30.6260   17.3970 C   0  0  0  0  0  0  0  0  0  0  0  0
   27.8800   31.5470   18.2380 O   0  0  0  0  0  0  0  0  0  0  0  0
   29.5780   29.8820   16.0410 H   0  0  0  0  0  0  0  0  0  0  0  0
   30.3030   31.7130   17.0180 C   0  0  0  0  0  0  0  0  0  0  0  0
   30.6430   32.5620   15.8340 C   0  0  2  0  0  0  0  0  0  0  0  0
   29.4180   33.0530   15.0950 C   0  0  2  0  0  0  0  0  0  0  0  0
   29.7930   34.1470   14.0990 C   0  0  2  0  0  0  0  0  0  0  0  0
   30.8670   36.0740   14.8180 C   0  0  2  0  0  0  0  0  0  0  0  0
   30.1450   36.9650   13.8330 C   0  0  0  0  0  0  0  0  0  0  0  0
   30.9610   34.7700   14.4270 O   0  0  0  0  0  0  0  0  0  0  0  0
   29.1670   36.1900   12.9740 C   0  0  1  0  0  0  0  0  0  0  0  0
   28.6320   35.0660   13.8310 C   0  0  1  0  0  0  0  0  0  0  0  0
   30.2890   36.1820   16.0970 O   0  0  0  0  0  0  0  0  0  0  0  0
   29.4490   36.6780   16.0870 H   0  0  0  0  0  0  0  0  0  0  0  0
   32.2490   36.6130   14.9480 C   0  0  0  0  0  0  0  0  0  0  0  0
   33.2480   35.8930   14.6430 O   0  0  0  0  0  0  0  0  0  0  0  0
   32.5310   37.8920   15.3960 O   0  0  0  0  0  0  0  0  0  0  0  0
   33.2790   38.4080   14.9210 H   0  0  0  0  0  0  0  0  0  0  0  0
   28.1590   37.0110   12.4790 O   0  0  0  0  0  0  0  0  0  0  0  0
   27.3050   36.5250   12.5800 H   0  0  0  0  0  0  0  0  0  0  0  0
   27.5580   34.3510   13.2390 N   0  0  0  0  0  0  0  0  0  0  0  0
   26.2430   34.3710   13.7730 C   0  0  0  0  0  0  0  0  0  0  0  0
   27.7720   33.7880   12.3640 H   0  0  0  0  0  0  0  0  0  0  0  0
   25.1310   33.6060   13.1230 C   0  0  0  0  0  0  0  0  0  0  0  0
   26.0670   35.0590   14.8100 O   0  0  0  0  0  0  0  0  0  0  0  0
   28.5640   33.6330   16.0320 O   0  0  0  0  0  0  0  0  0  0  0  0
   27.6380   33.6300   15.6860 H   0  0  0  0  0  0  0  0  0  0  0  0
   31.4360   31.7980   14.9790 O   0  0  0  0  0  0  0  0  0  0  0  0
   30.9400   31.0360   14.5920 H   0  0  0  0  0  0  0  0  0  0  0  0
   27.1830   29.6430   17.1900 O   0  0  0  0  0  0  0  0  0  0  0  0
   25.8280   29.9410   17.5090 C   0  0  0  0  0  0  0  0  0  0  0  0
   24.9510   29.6660   16.3480 C   0  0  0  0  0  0  0  0  0  0  0  0
   25.1590   30.1400   15.0850 C   0  0  0  0  0  0  0  0  0  0  0  0
   23.8330   28.9420   16.3000 N   0  0  0  0  0  0  0  0  0  0  0  0
   24.1640   29.6900   14.3080 N   0  0  0  0  0  0  0  0  0  0  0  0
   23.3670   28.9650   15.0570 N   0  0  0  0  0  0  0  0  0  0  0  0
   24.0150   29.9670   12.8960 C   0  0  0  0  0  0  0  0  0  0  0  0
   22.5660   30.2190   12.6520 C   0  0  0  0  0  0  0  0  0  0  0  0
   22.0700   31.4850   12.8660 C   0  0  0  0  0  0  0  0  0  0  0  0
   21.7160   29.2310   12.2240 C   0  0  0  0  0  0  0  0  0  0  0  0
   20.7220   31.7420   12.6450 C   0  0  0  0  0  0  0  0  0  0  0  0
   20.3770   29.4910   12.0060 C   0  0  0  0  0  0  0  0  0  0  0  0
   19.8710   30.7450   12.2140 C   0  0  0  0  0  0  0  0  0  0  0  0
   19.3560   28.6620   11.5810 O   0  0  0  0  0  0  0  0  0  0  0  0
   18.5210   30.7450   11.9280 O   0  0  0  0  0  0  0  0  0  0  0  0
   18.2460   29.4920   11.3180 C   0  0  0  0  0  0  0  0  0  0  0  0
   29.8670   25.5550   16.9770 C   0  0  0  0  0  0  0  0  0  0  0  0
   28.3450   25.7220   17.0260 C   0  0  0  0  0  0  0  0  0  0  0  0
   27.6010   24.4040   16.8730 C   0  0  0  0  0  0  0  0  0  0  0  0
   26.1730   24.5030   17.3340 C   0  0  0  0  0  0  0  0  0  0  0  0
   25.6300   23.1050   17.6110 C   0  0  0  0  0  0  0  0  0  0  0  0
   25.2400   22.9730   19.0350 N   0  0  0  0  0  0  0  0  0  0  0  0
  1  5  1  0  0  0  0
  1  2  1  0  0  0  0
  2  3  2  0  0  0  0
  4  1  1  0  0  0  0
  6  5  1  1  0  0  0
  7  6  1  0  0  0  0
  7 27  1  1  0  0  0
  8 11  1  0  0  0  0
  8  7  1  1  0  0  0
  9 16  1  1  0  0  0
  9 14  1  0  0  0  0
 10  9  1  0  0  0  0
 11  9  1  0  0  0  0
 12 20  1  1  0  0  0
 12 13  1  0  0  0  0
 12 10  1  0  0  0  0
 13 22  1  6  0  0  0
 13  8  1  0  0  0  0
 15 14  1  0  0  0  0
 16 18  1  0  0  0  0
 17 16  2  0  0  0  0
 19 18  1  0  0  0  0
 20 21  1  0  0  0  0
 22 23  1  0  0  0  0
 23 26  2  0  0  0  0
 24 22  1  0  0  0  0
 25 23  1  0  0  0  0
 28 27  1  0  0  0  0
 29  6  1  0  0  0  0
 30 29  1  0  0  0  0
 31  2  1  0  0  0  0
 31 32  1  0  0  0  0
 33 32  1  0  0  0  0
 34 33  2  0  0  0  0
 35 33  1  0  0  0  0
 36 37  1  0  0  0  0
 36 34  1  0  0  0  0
 37 35  2  0  0  0  0
 38 36  1  0  0  0  0
 39 40  1  0  0  0  0
 39 38  1  0  0  0  0
 41 39  2  0  0  0  0
 42 40  2  0  0  0  0
 43 44  2  0  0  0  0
 43 41  1  0  0  0  0
 44 42  1  0  0  0  0
 45 43  1  0  0  0  0
 46 44  1  0  0  0  0
 47 45  1  0  0  0  0
 47 46  1  0  0  0  0
 48 49  1  0  0  0  0
 50 49  1  0  0  0  0
 50 51  1  0  0  0  0
 51 52  1  0  0  0  0
 52 53  1  0  0  0  0
M  END
>  <REMARK>
 VINA RESULT:    -5.276      4.544      8.070
 INTER + INTRA:         -15.442
 INTER:                  -9.594
 INTRA:                  -5.848
 UNBOUND:                -6.003
 SMILES CC(=O)N[C@@H]1[C@@H](O)C[C@](O)(C(=O)O)O[C@H]1C(O)[C@H](O)CNC(=O)OCc1cn(Cc2ccc3c(c2)OCO3)nn1
 SMILES IDX 21 1 22 2 23 3 20 5 18 6 16 7 15 8 9 9 8 10 14 11 6 12 5 13
 SMILES IDX 10 14 11 16 12 17 13 18 7 20 4 22 2 23 1 25 3 26 17 27 19 29
 SMILES IDX 24 31 25 32 26 33 27 34 40 35 28 36 39 37 29 38 30 39 31 40
 SMILES IDX 35 41 32 42 34 43 33 44 36 45 38 46 37 47
 H PARENT 21 4 10 15 13 19 7 21 4 24 17 28 19 30
 Flexibility Score: inf
  4 active torsions:
  status: ('A' for Active; 'I' for Inactive)
    1  A    between atoms: CA   and  CB  
    2  A    between atoms: CB   and  CG  
    3  A    between atoms: CG   and  CD  
    4  A    between atoms: CD   and  CE  

>  <TORSDO>
F 16

>  <BEGIN_>
RES LYS A 131

$$$$
ligand_28_pose_2_2HRL.pdbqt
 OpenBabel07062320523D

  6  5  0  0  0  0  0  0  0  0999 V2000
   33.1930   34.6630    9.2900 C   0  0  0  0  0  0  0  0  0  0  0  0
   32.0600   35.3600   10.0340 C   0  0  0  0  0  0  0  0  0  0  0  0
   30.7120   34.7240    9.8120 C   0  0  0  0  0  0  0  0  0  0  0  0
   30.1990   35.0280    8.4130 C   0  0  0  0  0  0  0  0  0  0  0  0
   28.7630   34.5650    8.2590 C   0  0  0  0  0  0  0  0  0  0  0  0
   28.2970   33.8500    9.4800 N   0  0  0  0  0  0  0  0  0  0  0  0
  1  2  1  0  0  0  0
  3  2  1  0  0  0  0
  4  3  1  0  0  0  0
  5  4  1  0  0  0  0
  5  6  1  0  0  0  0
M  END
>  <EGIN_R>
ES LYS A 135

>  <REMARK>
  4 active torsions:
  status: ('A' for Active; 'I' for Inactive)
    5  A    between atoms: CA   and  CB  
    6  A    between atoms: CB   and  CG  
    7  A    between atoms: CG   and  CD  
    8  A    between atoms: CD   and  CE  

$$$$
