ligand_68_pose_12_2HRL.pdbqt
 OpenBabel07062320523D

 53 54  0  0  1  0  0  0  0  0999 V2000
   20.2210   36.6840    7.7780 N   0  0  0  0  0  0  0  0  0  0  0  0
   19.1900   35.7250    7.9330 C   0  0  0  0  0  0  0  0  0  0  0  0
   19.3920   34.5540    7.5400 O   0  0  0  0  0  0  0  0  0  0  0  0
   19.9700   37.6550    8.1420 H   0  0  0  0  0  0  0  0  0  0  0  0
   21.5130   36.4220    7.1880 C   0  0  0  0  0  0  0  0  0  0  0  0
   22.6060   37.2690    7.8050 C   0  0  2  0  0  0  0  0  0  0  0  0
   23.1800   36.5740    9.0410 C   0  0  2  0  0  0  0  0  0  0  0  0
   24.6660   36.3430    8.9730 C   0  0  2  0  0  0  0  0  0  0  0  0
   24.9740   36.1810   11.2880 C   0  0  2  0  0  0  0  0  0  0  0  0
   24.9230   37.6540   11.3590 C   0  0  0  0  0  0  0  0  0  0  0  0
   25.0290   35.5730   10.0800 O   0  0  0  0  0  0  0  0  0  0  0  0
   25.3600   38.4190   10.1490 C   0  0  1  0  0  0  0  0  0  0  0  0
   25.4330   37.5930    8.8880 C   0  0  1  0  0  0  0  0  0  0  0  0
   23.7700   35.7160   11.8980 O   0  0  0  0  0  0  0  0  0  0  0  0
   24.0490   34.9880   12.4950 H   0  0  0  0  0  0  0  0  0  0  0  0
   26.0600   35.6940   12.2190 C   0  0  0  0  0  0  0  0  0  0  0  0
   26.8620   36.4790   12.7760 O   0  0  0  0  0  0  0  0  0  0  0  0
   26.1870   34.3330   12.4780 O   0  0  0  0  0  0  0  0  0  0  0  0
   26.5060   33.9600   13.3590 H   0  0  0  0  0  0  0  0  0  0  0  0
   24.4960   39.5340    9.9560 O   0  0  0  0  0  0  0  0  0  0  0  0
   24.4430   39.9950   10.8150 H   0  0  0  0  0  0  0  0  0  0  0  0
   26.8500   37.4010    8.6210 N   0  0  0  0  0  0  0  0  0  0  0  0
   27.5740   38.1150    7.6350 C   0  0  0  0  0  0  0  0  0  0  0  0
   27.3230   36.6860    9.2140 H   0  0  0  0  0  0  0  0  0  0  0  0
   29.0200   37.8960    7.3880 C   0  0  0  0  0  0  0  0  0  0  0  0
   26.9140   38.9570    6.9710 O   0  0  0  0  0  0  0  0  0  0  0  0
   22.5760   35.2630    8.9390 O   0  0  0  0  0  0  0  0  0  0  0  0
   21.6310   35.3270    8.7300 H   0  0  0  0  0  0  0  0  0  0  0  0
   22.1050   38.5220    8.0690 O   0  0  0  0  0  0  0  0  0  0  0  0
   22.5310   38.8500    8.8950 H   0  0  0  0  0  0  0  0  0  0  0  0
   17.9610   36.0210    8.5040 O   0  0  0  0  0  0  0  0  0  0  0  0
   17.8140   36.3390    9.8740 C   0  0  0  0  0  0  0  0  0  0  0  0
   18.9280   35.7250   10.6250 C   0  0  0  0  0  0  0  0  0  0  0  0
   18.9240   34.4780   11.2300 C   0  0  0  0  0  0  0  0  0  0  0  0
   20.1610   36.2200   10.8860 N   0  0  0  0  0  0  0  0  0  0  0  0
   20.1130   34.2600   11.8200 N   0  0  0  0  0  0  0  0  0  0  0  0
   20.8370   35.3290   11.5950 N   0  0  0  0  0  0  0  0  0  0  0  0
   20.4840   33.0460   12.5590 C   0  0  0  0  0  0  0  0  0  0  0  0
   21.9870   32.9080   12.5450 C   0  0  1  0  0  0  0  0  0  0  0  0
   22.4690   33.5500   13.7080 O   0  0  0  0  0  0  0  0  0  0  0  0
   22.2760   34.5250   13.6420 H   0  0  0  0  0  0  0  0  0  0  0  0
   22.3590   31.4820   12.6310 C   0  0  0  0  0  0  0  0  0  0  0  0
   21.4710   30.4630   12.3520 C   0  0  0  0  0  0  0  0  0  0  0  0
   23.6650   31.1460   13.0110 C   0  0  0  0  0  0  0  0  0  0  0  0
   21.8370   29.1420   12.4370 C   0  0  0  0  0  0  0  0  0  0  0  0
   24.0310   29.8330   13.0960 C   0  0  0  0  0  0  0  0  0  0  0  0
   23.1250   28.8380   12.8120 C   0  0  0  0  0  0  0  0  0  0  0  0
   29.8670   25.5550   16.9770 C   0  0  0  0  0  0  0  0  0  0  0  0
   28.3450   25.7220   17.0260 C   0  0  0  0  0  0  0  0  0  0  0  0
   27.6010   24.4030   16.8880 C   0  0  0  0  0  0  0  0  0  0  0  0
   26.4950   24.2680   17.8980 C   0  0  0  0  0  0  0  0  0  0  0  0
   25.1560   24.5610   17.2280 C   0  0  0  0  0  0  0  0  0  0  0  0
   24.3730   25.5260   18.0360 N   0  0  0  0  0  0  0  0  0  0  0  0
  1  2  1  0  0  0  0
  1  4  1  0  0  0  0
  2 31  1  0  0  0  0
  3  2  2  0  0  0  0
  5  1  1  0  0  0  0
  6  5  1  1  0  0  0
  6 29  1  0  0  0  0
  6  7  1  0  0  0  0
  7 27  1  6  0  0  0
  8  7  1  1  0  0  0
  8 11  1  0  0  0  0
  9 10  1  0  0  0  0
  9 14  1  1  0  0  0
  9 16  1  0  0  0  0
 11  9  1  0  0  0  0
 12 20  1  6  0  0  0
 12 10  1  0  0  0  0
 13 22  1  1  0  0  0
 13  8  1  0  0  0  0
 13 12  1  0  0  0  0
 14 15  1  0  0  0  0
 16 18  1  0  0  0  0
 16 17  2  0  0  0  0
 18 19  1  0  0  0  0
 20 21  1  0  0  0  0
 22 24  1  0  0  0  0
 23 22  1  0  0  0  0
 25 23  1  0  0  0  0
 26 23  2  0  0  0  0
 28 27  1  0  0  0  0
 29 30  1  0  0  0  0
 31 32  1  0  0  0  0
 32 33  1  0  0  0  0
 33 35  1  0  0  0  0
 33 34  2  0  0  0  0
 34 36  1  0  0  0  0
 35 37  2  0  0  0  0
 36 38  1  0  0  0  0
 37 36  1  0  0  0  0
 39 38  1  1  0  0  0
 39 42  1  0  0  0  0
 39 40  1  0  0  0  0
 41 40  1  0  0  0  0
 42 44  2  0  0  0  0
 43 45  2  0  0  0  0
 43 42  1  0  0  0  0
 44 46  1  0  0  0  0
 45 47  1  0  0  0  0
 47 46  2  0  0  0  0
 48 49  1  0  0  0  0
 50 49  1  0  0  0  0
 50 51  1  0  0  0  0
 52 51  1  0  0  0  0
 52 53  1  0  0  0  0
M  END
>  <REMARK>
 VINA RESULT:    -5.427      7.925     13.070
 INTER + INTRA:         -15.198
 INTER:                  -8.642
 INTRA:                  -6.556
 UNBOUND:                -5.012
 SMILES CC(=O)N[C@@H]1[C@@H](O)C[C@](O)(C(=O)O)O[C@H]1C(O)[C@H](O)CNC(=O)OCc1cn(CC(O)c2ccccc2)nn1
 SMILES IDX 21 1 22 2 23 3 20 5 18 6 16 7 15 8 9 9 8 10 14 11 6 12 5 13
 SMILES IDX 10 14 11 16 12 17 13 18 7 20 4 22 2 23 1 25 3 26 17 27 19 29
 SMILES IDX 24 31 25 32 26 33 27 34 39 35 28 36 38 37 29 38 30 39 31 40
 SMILES IDX 32 42 33 43 37 44 34 45 36 46 35 47
 H PARENT 21 4 10 15 13 19 7 21 4 24 17 28 19 30 31 41
 Flexibility Score: inf
  4 active torsions:
  status: ('A' for Active; 'I' for Inactive)
    1  A    between atoms: CA   and  CB  
    2  A    between atoms: CB   and  CG  
    3  A    between atoms: CG   and  CD  
    4  A    between atoms: CD   and  CE  

>  <TORSDO>
F 18

>  <BEGIN_>
RES LYS A 131

$$$$
ligand_68_pose_12_2HRL.pdbqt
 OpenBabel07062320523D

  6  5  0  0  0  0  0  0  0  0999 V2000
   33.1930   34.6630    9.2900 C   0  0  0  0  0  0  0  0  0  0  0  0
   32.0600   35.3600   10.0340 C   0  0  0  0  0  0  0  0  0  0  0  0
   30.7420   34.6360    9.9390 C   0  0  0  0  0  0  0  0  0  0  0  0
   30.3280   34.4630    8.4850 C   0  0  0  0  0  0  0  0  0  0  0  0
   28.8180   34.4070    8.3640 C   0  0  0  0  0  0  0  0  0  0  0  0
   28.2010   33.8530    9.6010 N   0  0  0  0  0  0  0  0  0  0  0  0
  1  2  1  0  0  0  0
  3  2  1  0  0  0  0
  4  3  1  0  0  0  0
  5  4  1  0  0  0  0
  5  6  1  0  0  0  0
M  END
>  <EGIN_R>
ES LYS A 135

>  <REMARK>
  4 active torsions:
  status: ('A' for Active; 'I' for Inactive)
    5  A    between atoms: CA   and  CB  
    6  A    between atoms: CB   and  CG  
    7  A    between atoms: CG   and  CD  
    8  A    between atoms: CD   and  CE  

$$$$
