ligand_72_pose_7_2HRL.pdbqt
 OpenBabel07062320523D

 49 49  0  0  1  0  0  0  0  0999 V2000
   17.4770   32.8420    8.7000 N   0  0  0  0  0  0  0  0  0  0  0  0
   17.1550   31.6580    7.9620 C   0  0  0  0  0  0  0  0  0  0  0  0
   16.8300   31.7130    6.7280 O   0  0  0  0  0  0  0  0  0  0  0  0
   17.7470   32.7400    9.6970 H   0  0  0  0  0  0  0  0  0  0  0  0
   17.4370   34.1290    8.0380 C   0  0  0  0  0  0  0  0  0  0  0  0
   18.7560   34.7940    7.9800 C   0  0  2  0  0  0  0  0  0  0  0  0
   18.8160   36.2560    8.2160 C   0  0  1  0  0  0  0  0  0  0  0  0
   19.8250   36.6050    9.2830 C   0  0  2  0  0  0  0  0  0  0  0  0
   21.8390   36.8380    8.0650 C   0  0  2  0  0  0  0  0  0  0  0  0
   22.3750   35.5620    8.7410 C   0  0  0  0  0  0  0  0  0  0  0  0
   20.8160   37.4050    8.7550 O   0  0  0  0  0  0  0  0  0  0  0  0
   21.8810   35.6210   10.1470 C   0  0  1  0  0  0  0  0  0  0  0  0
   20.3380   35.4370   10.0700 C   0  0  1  0  0  0  0  0  0  0  0  0
   21.6020   36.5640    6.7340 O   0  0  0  0  0  0  0  0  0  0  0  0
   21.1860   37.3450    6.2980 H   0  0  0  0  0  0  0  0  0  0  0  0
   22.9680   37.8480    8.1080 C   0  0  0  0  0  0  0  0  0  0  0  0
   23.0640   38.6650    9.0540 O   0  0  0  0  0  0  0  0  0  0  0  0
   23.8830   37.8400    7.0770 O   0  0  0  0  0  0  0  0  0  0  0  0
   23.6590   38.2230    6.1650 H   0  0  0  0  0  0  0  0  0  0  0  0
   22.4280   34.6600   10.9730 O   0  0  0  0  0  0  0  0  0  0  0  0
   21.6690   34.1710   11.3890 H   0  0  0  0  0  0  0  0  0  0  0  0
   19.9590   35.4900   11.4910 N   0  0  0  0  0  0  0  0  0  0  0  0
   18.9830   34.6640   12.0590 C   0  0  0  0  0  0  0  0  0  0  0  0
   20.4580   36.1860   12.0820 H   0  0  0  0  0  0  0  0  0  0  0  0
   18.5810   34.7040   13.4880 C   0  0  0  0  0  0  0  0  0  0  0  0
   18.3980   33.8260   11.3170 O   0  0  0  0  0  0  0  0  0  0  0  0
   18.7380   37.0940    7.1540 O   0  0  0  0  0  0  0  0  0  0  0  0
   19.4670   36.9960    6.4880 H   0  0  0  0  0  0  0  0  0  0  0  0
   19.3590   34.5250    6.7300 O   0  0  0  0  0  0  0  0  0  0  0  0
   20.1360   33.9450    6.8940 H   0  0  0  0  0  0  0  0  0  0  0  0
   17.2020   30.4530    8.6140 O   0  0  0  0  0  0  0  0  0  0  0  0
   16.8290   30.2850    9.9500 C   0  0  0  0  0  0  0  0  0  0  0  0
   17.9480   29.7370   10.7590 C   0  0  0  0  0  0  0  0  0  0  0  0
   18.8200   30.4980   11.4980 C   0  0  0  0  0  0  0  0  0  0  0  0
   18.3180   28.4670   10.9260 N   0  0  0  0  0  0  0  0  0  0  0  0
   19.6940   29.6800   12.0940 N   0  0  0  0  0  0  0  0  0  0  0  0
   19.3610   28.4410   11.7260 N   0  0  0  0  0  0  0  0  0  0  0  0
   20.7710   30.0900   12.9580 C   0  0  0  0  0  0  0  0  0  0  0  0
   22.1050   29.6300   12.4090 C   0  0  0  0  0  0  0  0  0  0  0  0
   20.5380   29.4970   14.3410 C   0  0  0  0  0  0  0  0  0  0  0  0
   20.7510   31.5890   13.1180 C   0  0  0  0  0  0  0  0  0  0  0  0
   21.6320   32.1790   12.2070 O   0  0  0  0  0  0  0  0  0  0  0  0
   21.1720   32.9430   11.7750 H   0  0  0  0  0  0  0  0  0  0  0  0
   29.8670   25.5550   16.9770 C   0  0  0  0  0  0  0  0  0  0  0  0
   28.3450   25.7220   17.0260 C   0  0  0  0  0  0  0  0  0  0  0  0
   27.6010   24.4030   16.8870 C   0  0  0  0  0  0  0  0  0  0  0  0
   26.5370   24.2390   17.9370 C   0  0  0  0  0  0  0  0  0  0  0  0
   25.1610   24.3370   17.2860 C   0  0  0  0  0  0  0  0  0  0  0  0
   24.5010   25.6110   17.6550 N   0  0  0  0  0  0  0  0  0  0  0  0
  1  4  1  0  0  0  0
  2 31  1  0  0  0  0
  2  1  1  0  0  0  0
  3  2  2  0  0  0  0
  5  1  1  0  0  0  0
  6  5  1  6  0  0  0
  6  7  1  0  0  0  0
  7 27  1  6  0  0  0
  8  7  1  6  0  0  0
  8 13  1  0  0  0  0
  9 14  1  6  0  0  0
  9 16  1  0  0  0  0
  9 10  1  0  0  0  0
  9 11  1  0  0  0  0
 10 12  1  0  0  0  0
 11  8  1  0  0  0  0
 12 20  1  1  0  0  0
 13 12  1  0  0  0  0
 13 22  1  1  0  0  0
 15 14  1  0  0  0  0
 16 17  2  0  0  0  0
 18 16  1  0  0  0  0
 19 18  1  0  0  0  0
 20 21  1  0  0  0  0
 22 23  1  0  0  0  0
 22 24  1  0  0  0  0
 23 25  1  0  0  0  0
 26 23  2  0  0  0  0
 28 27  1  0  0  0  0
 29 30  1  0  0  0  0
 29  6  1  0  0  0  0
 31 32  1  0  0  0  0
 32 33  1  0  0  0  0
 33 35  1  0  0  0  0
 33 34  2  0  0  0  0
 34 36  1  0  0  0  0
 35 37  2  0  0  0  0
 36 38  1  0  0  0  0
 37 36  1  0  0  0  0
 38 41  1  0  0  0  0
 38 40  1  0  0  0  0
 39 38  1  0  0  0  0
 42 41  1  0  0  0  0
 43 42  1  0  0  0  0
 44 45  1  0  0  0  0
 46 45  1  0  0  0  0
 46 47  1  0  0  0  0
 48 49  1  0  0  0  0
 48 47  1  0  0  0  0
M  END
>  <REMARK>
 VINA RESULT:    -4.380      7.324     11.557
 INTER + INTRA:         -14.110
 INTER:                  -8.482
 INTRA:                  -5.628
 UNBOUND:                -6.145
 SMILES CC(=O)N[C@@H]1[C@@H](O)C[C@](O)(C(=O)O)O[C@H]1C(O)[C@H](O)CNC(=O)OCc1cn(C(C)(C)CO)nn1
 SMILES IDX 21 1 22 2 23 3 20 5 18 6 16 7 15 8 9 9 8 10 14 11 6 12 5 13
 SMILES IDX 10 14 11 16 12 17 13 18 7 20 4 22 2 23 1 25 3 26 17 27 19 29
 SMILES IDX 24 31 25 32 26 33 27 34 35 35 28 36 34 37 29 38 30 39 31 40
 SMILES IDX 32 41 33 42
 H PARENT 21 4 10 15 13 19 7 21 4 24 17 28 19 30 33 43
 Flexibility Score: inf
  4 active torsions:
  status: ('A' for Active; 'I' for Inactive)
    1  A    between atoms: CA   and  CB  
    2  A    between atoms: CB   and  CG  
    3  A    between atoms: CG   and  CD  
    4  A    between atoms: CD   and  CE  

>  <TORSDO>
F 17

>  <BEGIN_>
RES LYS A 131

$$$$
ligand_72_pose_7_2HRL.pdbqt
 OpenBabel07062320523D

  6  5  0  0  0  0  0  0  0  0999 V2000
   33.1930   34.6630    9.2900 C   0  0  0  0  0  0  0  0  0  0  0  0
   32.0600   35.3600   10.0340 C   0  0  0  0  0  0  0  0  0  0  0  0
   30.8020   35.5050    9.2170 C   0  0  0  0  0  0  0  0  0  0  0  0
   29.8710   34.3260    9.4510 C   0  0  0  0  0  0  0  0  0  0  0  0
   28.4530   34.8080    9.6920 C   0  0  0  0  0  0  0  0  0  0  0  0
   27.4670   33.7210    9.4380 N   0  0  0  0  0  0  0  0  0  0  0  0
  1  2  1  0  0  0  0
  3  4  1  0  0  0  0
  3  2  1  0  0  0  0
  4  5  1  0  0  0  0
  6  5  1  0  0  0  0
M  END
>  <EGIN_R>
ES LYS A 135

>  <REMARK>
  4 active torsions:
  status: ('A' for Active; 'I' for Inactive)
    5  A    between atoms: CA   and  CB  
    6  A    between atoms: CB   and  CG  
    7  A    between atoms: CG   and  CD  
    8  A    between atoms: CD   and  CE  

$$$$
