ligand_72_pose_18_2HRL.pdbqt
 OpenBabel07062320523D

 49 49  0  0  1  0  0  0  0  0999 V2000
   29.2950   30.0580   18.3520 N   0  0  0  0  0  0  0  0  0  0  0  0
   28.0860   30.6160   17.8250 C   0  0  0  0  0  0  0  0  0  0  0  0
   27.5050   31.6010   18.3960 O   0  0  0  0  0  0  0  0  0  0  0  0
   29.7320   29.2680   17.8430 H   0  0  0  0  0  0  0  0  0  0  0  0
   29.8740   30.6180   19.5550 C   0  0  0  0  0  0  0  0  0  0  0  0
   29.7450   29.7320   20.7300 C   0  0  2  0  0  0  0  0  0  0  0  0
   30.4000   28.4030   20.6850 C   0  0  1  0  0  0  0  0  0  0  0  0
   31.1250   28.0970   21.9720 C   0  0  2  0  0  0  0  0  0  0  0  0
   29.4120   27.2530   23.3690 C   0  0  2  0  0  0  0  0  0  0  0  0
   29.5250   28.5170   24.2410 C   0  0  0  0  0  0  0  0  0  0  0  0
   30.5210   27.0370   22.6160 O   0  0  0  0  0  0  0  0  0  0  0  0
   30.9810   28.8360   24.2890 C   0  0  1  0  0  0  0  0  0  0  0  0
   31.3740   29.2840   22.8520 C   0  0  1  0  0  0  0  0  0  0  0  0
   28.2110   27.2910   22.6910 O   0  0  0  0  0  0  0  0  0  0  0  0
   28.3060   26.8550   21.8120 H   0  0  0  0  0  0  0  0  0  0  0  0
   29.3360   26.0810   24.3270 C   0  0  0  0  0  0  0  0  0  0  0  0
   29.0300   26.2540   25.5300 O   0  0  0  0  0  0  0  0  0  0  0  0
   29.6120   24.8240   23.8340 O   0  0  0  0  0  0  0  0  0  0  0  0
   29.0920   24.4330   23.0560 H   0  0  0  0  0  0  0  0  0  0  0  0
   31.3060   29.8270   25.1950 O   0  0  0  0  0  0  0  0  0  0  0  0
   31.3860   29.3910   26.0830 H   0  0  0  0  0  0  0  0  0  0  0  0
   32.8040   29.5900   23.0140 N   0  0  0  0  0  0  0  0  0  0  0  0
   33.4540   30.6180   22.3230 C   0  0  0  0  0  0  0  0  0  0  0  0
   33.3350   28.9970   23.6840 H   0  0  0  0  0  0  0  0  0  0  0  0
   34.8970   30.9410   22.4670 C   0  0  0  0  0  0  0  0  0  0  0  0
   32.7810   31.3230   21.5200 O   0  0  0  0  0  0  0  0  0  0  0  0
   29.7480   27.3730   20.0920 O   0  0  0  0  0  0  0  0  0  0  0  0
   30.0020   27.2040   19.1480 H   0  0  0  0  0  0  0  0  0  0  0  0
   28.3750   29.5380   21.0200 O   0  0  0  0  0  0  0  0  0  0  0  0
   27.9420   30.4200   21.0160 H   0  0  0  0  0  0  0  0  0  0  0  0
   27.5600   30.0670   16.6850 O   0  0  0  0  0  0  0  0  0  0  0  0
   26.4930   29.1640   16.6850 C   0  0  0  0  0  0  0  0  0  0  0  0
   26.4250   28.4080   17.9630 C   0  0  0  0  0  0  0  0  0  0  0  0
   25.3020   28.3020   18.7450 C   0  0  0  0  0  0  0  0  0  0  0  0
   27.3830   27.7160   18.5800 N   0  0  0  0  0  0  0  0  0  0  0  0
   25.5990   27.5530   19.8120 N   0  0  0  0  0  0  0  0  0  0  0  0
   26.8810   27.2080   19.6830 N   0  0  0  0  0  0  0  0  0  0  0  0
   24.6880   27.2070   20.8730 C   0  0  0  0  0  0  0  0  0  0  0  0
   25.1330   25.9390   21.5710 C   0  0  0  0  0  0  0  0  0  0  0  0
   23.2980   27.0200   20.2780 C   0  0  0  0  0  0  0  0  0  0  0  0
   24.5930   28.3480   21.8530 C   0  0  0  0  0  0  0  0  0  0  0  0
   25.8720   28.7240   22.2740 O   0  0  0  0  0  0  0  0  0  0  0  0
   26.3380   27.9200   22.6180 H   0  0  0  0  0  0  0  0  0  0  0  0
   29.8670   25.5550   16.9770 C   0  0  0  0  0  0  0  0  0  0  0  0
   28.3450   25.7220   17.0260 C   0  0  0  0  0  0  0  0  0  0  0  0
   27.6020   24.3990   16.9250 C   0  0  0  0  0  0  0  0  0  0  0  0
   26.1460   24.5390   17.2730 C   0  0  0  0  0  0  0  0  0  0  0  0
   25.6010   23.1910   17.7340 C   0  0  0  0  0  0  0  0  0  0  0  0
   25.4820   23.1560   19.2110 N   0  0  0  0  0  0  0  0  0  0  0  0
  1  5  1  0  0  0  0
  2  1  1  0  0  0  0
  2  3  2  0  0  0  0
  4  1  1  0  0  0  0
  6  5  1  6  0  0  0
  6 29  1  0  0  0  0
  7 27  1  1  0  0  0
  7  6  1  0  0  0  0
  8  7  1  6  0  0  0
  8 11  1  0  0  0  0
  8 13  1  0  0  0  0
  9 14  1  6  0  0  0
  9 10  1  0  0  0  0
  9 16  1  0  0  0  0
 10 12  1  0  0  0  0
 11  9  1  0  0  0  0
 12 20  1  1  0  0  0
 13 22  1  1  0  0  0
 13 12  1  0  0  0  0
 15 14  1  0  0  0  0
 16 17  2  0  0  0  0
 18 16  1  0  0  0  0
 19 18  1  0  0  0  0
 20 21  1  0  0  0  0
 22 24  1  0  0  0  0
 23 25  1  0  0  0  0
 23 22  1  0  0  0  0
 26 23  2  0  0  0  0
 28 27  1  0  0  0  0
 30 29  1  0  0  0  0
 31 32  1  0  0  0  0
 31  2  1  0  0  0  0
 32 33  1  0  0  0  0
 33 35  1  0  0  0  0
 33 34  2  0  0  0  0
 34 36  1  0  0  0  0
 35 37  2  0  0  0  0
 36 38  1  0  0  0  0
 37 36  1  0  0  0  0
 38 39  1  0  0  0  0
 38 41  1  0  0  0  0
 40 38  1  0  0  0  0
 41 42  1  0  0  0  0
 42 43  1  0  0  0  0
 44 45  1  0  0  0  0
 46 45  1  0  0  0  0
 46 47  1  0  0  0  0
 47 48  1  0  0  0  0
 48 49  1  0  0  0  0
M  END
>  <REMARK>
 VINA RESULT:    -4.160      8.928     16.570
 INTER + INTRA:         -13.709
 INTER:                  -6.213
 INTRA:                  -7.496
 UNBOUND:                -6.145
 SMILES CC(=O)N[C@@H]1[C@@H](O)C[C@](O)(C(=O)O)O[C@H]1C(O)[C@H](O)CNC(=O)OCc1cn(C(C)(C)CO)nn1
 SMILES IDX 21 1 22 2 23 3 20 5 18 6 16 7 15 8 9 9 8 10 14 11 6 12 5 13
 SMILES IDX 10 14 11 16 12 17 13 18 7 20 4 22 2 23 1 25 3 26 17 27 19 29
 SMILES IDX 24 31 25 32 26 33 27 34 35 35 28 36 34 37 29 38 30 39 31 40
 SMILES IDX 32 41 33 42
 H PARENT 21 4 10 15 13 19 7 21 4 24 17 28 19 30 33 43
 Flexibility Score: inf
  4 active torsions:
  status: ('A' for Active; 'I' for Inactive)
    1  A    between atoms: CA   and  CB  
    2  A    between atoms: CB   and  CG  
    3  A    between atoms: CG   and  CD  
    4  A    between atoms: CD   and  CE  

>  <TORSDO>
F 17

>  <BEGIN_>
RES LYS A 131

$$$$
ligand_72_pose_18_2HRL.pdbqt
 OpenBabel07062320523D

  6  5  0  0  0  0  0  0  0  0999 V2000
   33.1930   34.6630    9.2900 C   0  0  0  0  0  0  0  0  0  0  0  0
   32.0600   35.3600   10.0340 C   0  0  0  0  0  0  0  0  0  0  0  0
   30.7060   34.7520    9.7750 C   0  0  0  0  0  0  0  0  0  0  0  0
   30.4950   34.5240    8.2860 C   0  0  0  0  0  0  0  0  0  0  0  0
   29.0590   34.8210    7.8990 C   0  0  0  0  0  0  0  0  0  0  0  0
   28.1060   34.2120    8.8680 N   0  0  0  0  0  0  0  0  0  0  0  0
  1  2  1  0  0  0  0
  3  2  1  0  0  0  0
  4  3  1  0  0  0  0
  5  4  1  0  0  0  0
  5  6  1  0  0  0  0
M  END
>  <EGIN_R>
ES LYS A 135

>  <REMARK>
  4 active torsions:
  status: ('A' for Active; 'I' for Inactive)
    5  A    between atoms: CA   and  CB  
    6  A    between atoms: CB   and  CG  
    7  A    between atoms: CG   and  CD  
    8  A    between atoms: CD   and  CE  

$$$$
