ligand_92_pose_2_2HRL.pdbqt
 OpenBabel07062320523D

 59 61  0  0  1  0  0  0  0  0999 V2000
   25.6880   31.8440   20.5650 N   0  0  0  0  0  0  0  0  0  0  0  0
   26.5710   32.0600   21.6460 C   0  0  0  0  0  0  0  0  0  0  0  0
   26.5280   33.1830   22.2540 O   0  0  0  0  0  0  0  0  0  0  0  0
   25.7150   30.9370   20.0690 H   0  0  0  0  0  0  0  0  0  0  0  0
   24.7520   32.8490   20.1390 C   0  0  0  0  0  0  0  0  0  0  0  0
   23.9800   32.4440   18.9080 C   0  0  2  0  0  0  0  0  0  0  0  0
   24.8760   32.2260   17.7240 C   0  0  1  0  0  0  0  0  0  0  0  0
   24.7090   30.8000   17.1690 C   0  0  2  0  0  0  0  0  0  0  0  0
   26.6320   29.6840   17.9580 C   0  0  2  0  0  0  0  0  0  0  0  0
   26.9940   29.3350   16.5270 C   0  0  0  0  0  0  0  0  0  0  0  0
   25.3130   29.9580   18.0520 O   0  0  0  0  0  0  0  0  0  0  0  0
   26.6700   30.5630   15.7110 C   0  0  1  0  0  0  0  0  0  0  0  0
   25.1780   30.7740   15.7680 C   0  0  1  0  0  0  0  0  0  0  0  0
   27.3700   30.8350   18.2640 O   0  0  0  0  0  0  0  0  0  0  0  0
   26.8570   31.6570   18.1610 H   0  0  0  0  0  0  0  0  0  0  0  0
   27.0750   28.6180   18.8940 C   0  0  0  0  0  0  0  0  0  0  0  0
   27.4680   27.5320   18.4440 O   0  0  0  0  0  0  0  0  0  0  0  0
   27.0530   28.8220   20.2600 O   0  0  0  0  0  0  0  0  0  0  0  0
   26.1780   29.1040   20.7260 H   0  0  0  0  0  0  0  0  0  0  0  0
   27.3950   31.6510   16.1840 O   0  0  0  0  0  0  0  0  0  0  0  0
   26.7330   32.3410   16.4800 H   0  0  0  0  0  0  0  0  0  0  0  0
   24.5710   29.7950   14.9250 N   0  0  0  0  0  0  0  0  0  0  0  0
   24.1640   30.1320   13.6150 C   0  0  0  0  0  0  0  0  0  0  0  0
   24.4220   28.8310   15.2650 H   0  0  0  0  0  0  0  0  0  0  0  0
   23.5260   29.1790   12.6720 C   0  0  0  0  0  0  0  0  0  0  0  0
   24.3510   31.2940   13.2320 O   0  0  0  0  0  0  0  0  0  0  0  0
   24.6310   33.1580   16.6880 O   0  0  0  0  0  0  0  0  0  0  0  0
   23.7950   33.6140   16.8980 H   0  0  0  0  0  0  0  0  0  0  0  0
   23.0680   33.4960   18.6760 O   0  0  0  0  0  0  0  0  0  0  0  0
   22.7910   33.8210   19.5680 H   0  0  0  0  0  0  0  0  0  0  0  0
   27.4850   31.1270   22.0900 O   0  0  0  0  0  0  0  0  0  0  0  0
   28.8730   31.4470   22.2580 C   0  0  0  0  0  0  0  0  0  0  0  0
   29.4930   31.3330   20.9050 C   0  0  0  0  0  0  0  0  0  0  0  0
   29.9020   32.3840   20.0810 C   0  0  0  0  0  0  0  0  0  0  0  0
   29.7890   30.2210   20.2000 N   0  0  0  0  0  0  0  0  0  0  0  0
   30.4110   31.8840   18.9430 N   0  0  0  0  0  0  0  0  0  0  0  0
   30.3240   30.5740   19.0570 N   0  0  0  0  0  0  0  0  0  0  0  0
   30.9270   32.6570   17.8680 C   0  0  0  0  0  0  0  0  0  0  0  0
   31.4480   33.9180   18.0430 C   0  0  0  0  0  0  0  0  0  0  0  0
   30.9140   32.1410   16.5900 C   0  0  0  0  0  0  0  0  0  0  0  0
   31.9480   34.6610   16.9740 C   0  0  0  0  0  0  0  0  0  0  0  0
   31.4080   32.8720   15.5320 C   0  0  0  0  0  0  0  0  0  0  0  0
   31.9400   34.1550   15.6950 C   0  0  0  0  0  0  0  0  0  0  0  0
   32.5640   35.0380   14.3330 S   0  0  0  0  0  0  0  0  0  0  0  0
   33.9670   34.5070   14.0690 O   0  0  0  0  0  0  0  0  0  0  0  0
   32.7230   36.4600   14.7440 O   0  0  0  0  0  0  0  0  0  0  0  0
   31.6380   34.8940   12.9150 N   0  0  0  0  0  0  0  0  0  0  0  0
   32.1460   34.6380   12.0250 H   0  0  0  0  0  0  0  0  0  0  0  0
   30.2530   35.0810   12.7830 C   0  0  0  0  0  0  0  0  0  0  0  0
   29.2400   34.5260   12.3880 N   0  0  0  0  0  0  0  0  0  0  0  0
   29.4860   36.7030   13.3750 S   0  0  0  0  0  0  0  0  0  0  0  0
   28.0210   34.9620   12.3950 C   0  0  0  0  0  0  0  0  0  0  0  0
   27.7640   36.1930   12.8930 C   0  0  0  0  0  0  0  0  0  0  0  0
   29.8670   25.5550   16.9770 C   0  0  0  0  0  0  0  0  0  0  0  0
   28.3450   25.7220   17.0260 C   0  0  0  0  0  0  0  0  0  0  0  0
   27.5990   24.4450   16.6710 C   0  0  0  0  0  0  0  0  0  0  0  0
   26.7370   23.9590   17.8030 C   0  0  0  0  0  0  0  0  0  0  0  0
   25.2740   23.9770   17.3730 C   0  0  0  0  0  0  0  0  0  0  0  0
   24.6710   22.6320   17.5280 N   0  0  0  0  0  0  0  0  0  0  0  0
  1  2  1  0  0  0  0
  2 31  1  0  0  0  0
  2  3  2  0  0  0  0
  4  1  1  0  0  0  0
  5  1  1  0  0  0  0
  6  5  1  1  0  0  0
  7 27  1  6  0  0  0
  7  6  1  0  0  0  0
  8  7  1  1  0  0  0
  8 11  1  0  0  0  0
  9 11  1  0  0  0  0
  9 14  1  1  0  0  0
  9 16  1  0  0  0  0
 10  9  1  0  0  0  0
 12 13  1  0  0  0  0
 12 20  1  1  0  0  0
 12 10  1  0  0  0  0
 13 22  1  6  0  0  0
 13  8  1  0  0  0  0
 15 14  1  0  0  0  0
 16 18  1  0  0  0  0
 17 16  2  0  0  0  0
 18 19  1  0  0  0  0
 20 21  1  0  0  0  0
 22 24  1  0  0  0  0
 23 22  1  0  0  0  0
 25 23  1  0  0  0  0
 26 23  2  0  0  0  0
 27 28  1  0  0  0  0
 29  6  1  0  0  0  0
 29 30  1  0  0  0  0
 31 32  1  0  0  0  0
 33 32  1  0  0  0  0
 34 33  2  0  0  0  0
 35 33  1  0  0  0  0
 36 37  1  0  0  0  0
 36 34  1  0  0  0  0
 37 35  2  0  0  0  0
 38 39  1  0  0  0  0
 38 36  1  0  0  0  0
 40 38  2  0  0  0  0
 41 39  2  0  0  0  0
 42 43  2  0  0  0  0
 42 40  1  0  0  0  0
 43 41  1  0  0  0  0
 44 46  2  0  0  0  0
 44 43  1  0  0  0  0
 45 44  2  0  0  0  0
 47 44  1  0  0  0  0
 48 47  1  0  0  0  0
 49 47  1  0  0  0  0
 49 51  1  0  0  0  0
 50 52  1  0  0  0  0
 50 49  2  0  0  0  0
 52 53  2  0  0  0  0
 53 51  1  0  0  0  0
 54 55  1  0  0  0  0
 56 55  1  0  0  0  0
 56 57  1  0  0  0  0
 58 59  1  0  0  0  0
 58 57  1  0  0  0  0
M  END
>  <REMARK>
 VINA RESULT:    -5.338      3.636      6.589
 INTER + INTRA:         -16.583
 INTER:                  -9.044
 INTRA:                  -7.540
 UNBOUND:                -6.408
 SMILES CC(=O)N[C@@H]1[C@@H](O)C[C@](O)(C(=O)O)O[C@H]1C(O)[C@H](O)CNC(=O)OCc1cn(-c2ccc(S(=O)(=O)Nc3nccs3)cc2)nn1
 SMILES IDX 21 1 22 2 23 3 20 5 18 6 16 7 15 8 9 9 8 10 14 11 6 12 5 13
 SMILES IDX 10 14 11 16 12 17 13 18 7 20 4 22 2 23 1 25 3 26 17 27 19 29
 SMILES IDX 24 31 25 32 26 33 27 34 45 35 28 36 44 37 29 38 30 39 43 40
 SMILES IDX 31 41 42 42 32 43 33 44 34 45 35 46 36 47 37 49 38 50 41 51
 SMILES IDX 39 52 40 53
 H PARENT 21 4 10 15 13 19 7 21 4 24 17 28 19 30 36 48
 Flexibility Score: inf
  4 active torsions:
  status: ('A' for Active; 'I' for Inactive)
    1  A    between atoms: CA   and  CB  
    2  A    between atoms: CB   and  CG  
    3  A    between atoms: CG   and  CD  
    4  A    between atoms: CD   and  CE  

>  <TORSDO>
F 18

>  <BEGIN_>
RES LYS A 131

$$$$
ligand_92_pose_2_2HRL.pdbqt
 OpenBabel07062320523D

  6  5  0  0  0  0  0  0  0  0999 V2000
   33.1930   34.6630    9.2900 C   0  0  0  0  0  0  0  0  0  0  0  0
   32.0600   35.3600   10.0340 C   0  0  0  0  0  0  0  0  0  0  0  0
   30.8460   35.6170    9.1790 C   0  0  0  0  0  0  0  0  0  0  0  0
   30.1330   34.3130    8.8540 C   0  0  0  0  0  0  0  0  0  0  0  0
   28.7050   34.5810    8.4180 C   0  0  0  0  0  0  0  0  0  0  0  0
   27.7400   33.7810    9.2230 N   0  0  0  0  0  0  0  0  0  0  0  0
  1  2  1  0  0  0  0
  3  2  1  0  0  0  0
  4  3  1  0  0  0  0
  5  4  1  0  0  0  0
  5  6  1  0  0  0  0
M  END
>  <EGIN_R>
ES LYS A 135

>  <REMARK>
  4 active torsions:
  status: ('A' for Active; 'I' for Inactive)
    5  A    between atoms: CA   and  CB  
    6  A    between atoms: CB   and  CG  
    7  A    between atoms: CG   and  CD  
    8  A    between atoms: CD   and  CE  

$$$$
