ligand_51_pose_3_2HRL.pdbqt
 OpenBabel07062320523D

 53 56  0  0  1  0  0  0  0  0999 V2000
   26.8470   27.3470   19.4760 C   0  0  0  0  0  0  0  0  0  0  0  0
   27.5390   27.6510   20.7790 C   0  0  2  0  0  0  0  0  0  0  0  0
   29.0300   27.8620   20.6130 C   0  0  1  0  0  0  0  0  0  0  0  0
   29.5650   28.7530   21.7400 C   0  0  2  0  0  0  0  0  0  0  0  0
   31.0450   30.4050   20.9770 C   0  0  2  0  0  0  0  0  0  0  0  0
   32.0810   29.3110   20.9090 C   0  0  0  0  0  0  0  0  0  0  0  0
   29.7990   30.0310   21.3430 O   0  0  0  0  0  0  0  0  0  0  0  0
   32.0440   28.5090   22.1620 C   0  0  1  0  0  0  0  0  0  0  0  0
   30.6410   28.1020   22.5270 C   0  0  1  0  0  0  0  0  0  0  0  0
   30.9600   30.9050   19.6570 O   0  0  0  0  0  0  0  0  0  0  0  0
   30.2120   31.5590   19.6490 H   0  0  0  0  0  0  0  0  0  0  0  0
   31.6160   31.4940   21.8090 C   0  0  0  0  0  0  0  0  0  0  0  0
   32.6760   32.0990   21.4900 O   0  0  0  0  0  0  0  0  0  0  0  0
   30.9830   31.8720   22.9720 O   0  0  0  0  0  0  0  0  0  0  0  0
   31.4700   31.9510   23.8660 H   0  0  0  0  0  0  0  0  0  0  0  0
   32.8860   27.3890   21.9740 O   0  0  0  0  0  0  0  0  0  0  0  0
   32.4250   26.5730   22.2650 H   0  0  0  0  0  0  0  0  0  0  0  0
   30.4080   28.3690   23.9400 N   0  0  0  0  0  0  0  0  0  0  0  0
   29.5380   27.5730   24.7300 C   0  0  0  0  0  0  0  0  0  0  0  0
   30.9010   29.1850   24.4060 H   0  0  0  0  0  0  0  0  0  0  0  0
   29.3610   27.9130   26.1490 C   0  0  0  0  0  0  0  0  0  0  0  0
   28.9480   26.5970   24.1750 O   0  0  0  0  0  0  0  0  0  0  0  0
   29.7320   26.7030   20.4830 O   0  0  0  0  0  0  0  0  0  0  0  0
   30.2110   26.3850   21.2630 H   0  0  0  0  0  0  0  0  0  0  0  0
   27.2550   26.6120   21.6610 O   0  0  0  0  0  0  0  0  0  0  0  0
   26.5420   26.9270   22.3030 H   0  0  0  0  0  0  0  0  0  0  0  0
   27.6610   27.9190   18.4180 N   0  0  0  0  0  0  0  0  0  0  0  0
   27.0770   28.5330   17.2570 C   0  0  0  0  0  0  0  0  0  0  0  0
   28.7080   27.9180   18.4360 H   0  0  0  0  0  0  0  0  0  0  0  0
   25.8240   28.5600   17.1870 O   0  0  0  0  0  0  0  0  0  0  0  0
   27.8340   29.0770   16.2490 O   0  0  0  0  0  0  0  0  0  0  0  0
   27.5540   30.3870   15.8080 C   0  0  0  0  0  0  0  0  0  0  0  0
   28.7840   31.2080   16.0440 C   0  0  0  0  0  0  0  0  0  0  0  0
   29.0760   32.3790   15.3710 C   0  0  0  0  0  0  0  0  0  0  0  0
   29.8000   31.0170   16.8820 N   0  0  0  0  0  0  0  0  0  0  0  0
   30.2350   32.8360   15.8230 N   0  0  0  0  0  0  0  0  0  0  0  0
   30.6660   31.9980   16.7430 N   0  0  0  0  0  0  0  0  0  0  0  0
   30.8840   34.0630   15.3540 C   0  0  2  0  0  0  0  0  0  0  0  0
   32.3650   33.7360   15.2180 C   0  0  0  0  0  0  0  0  0  0  0  0
   30.6830   35.1810   16.3290 C   0  0  0  0  0  0  0  0  0  0  0  0
   30.2960   34.4590   14.0220 C   0  0  0  0  0  0  0  0  0  0  0  0
   33.0990   34.9610   14.7070 C   0  0  1  0  0  0  0  0  0  0  0  0
   31.4640   36.3800   15.8420 C   0  0  1  0  0  0  0  0  0  0  0  0
   31.0380   35.6730   13.5050 C   0  0  2  0  0  0  0  0  0  0  0  0
   32.5150   35.3430   13.3780 C   0  0  0  0  0  0  0  0  0  0  0  0
   32.9240   36.0570   15.7280 C   0  0  0  0  0  0  0  0  0  0  0  0
   30.8780   36.7880   14.5100 C   0  0  0  0  0  0  0  0  0  0  0  0
   29.8670   25.5550   16.9770 C   0  0  0  0  0  0  0  0  0  0  0  0
   28.3450   25.7220   17.0260 C   0  0  0  0  0  0  0  0  0  0  0  0
   27.6010   24.4020   16.8900 C   0  0  0  0  0  0  0  0  0  0  0  0
   26.1470   24.5320   17.2500 C   0  0  0  0  0  0  0  0  0  0  0  0
   25.6500   23.2160   17.8390 C   0  0  0  0  0  0  0  0  0  0  0  0
   24.3590   22.8260   17.2220 N   0  0  0  0  0  0  0  0  0  0  0  0
  2  1  1  6  0  0  0
  2 25  1  0  0  0  0
  3 23  1  1  0  0  0
  3  2  1  0  0  0  0
  4  3  1  6  0  0  0
  4  9  1  0  0  0  0
  5 10  1  6  0  0  0
  5  7  1  0  0  0  0
  5 12  1  0  0  0  0
  6  5  1  0  0  0  0
  6  8  1  0  0  0  0
  7  4  1  0  0  0  0
  8 16  1  6  0  0  0
  8  9  1  0  0  0  0
  9 18  1  1  0  0  0
 11 10  1  0  0  0  0
 12 14  1  0  0  0  0
 13 12  2  0  0  0  0
 14 15  1  0  0  0  0
 16 17  1  0  0  0  0
 18 20  1  0  0  0  0
 18 19  1  0  0  0  0
 19 21  1  0  0  0  0
 22 19  2  0  0  0  0
 23 24  1  0  0  0  0
 25 26  1  0  0  0  0
 27 29  1  0  0  0  0
 27  1  1  0  0  0  0
 28 27  1  0  0  0  0
 30 28  2  0  0  0  0
 31 28  1  0  0  0  0
 32 33  1  0  0  0  0
 32 31  1  0  0  0  0
 33 35  1  0  0  0  0
 34 36  1  0  0  0  0
 34 33  2  0  0  0  0
 36 37  1  0  0  0  0
 37 35  2  0  0  0  0
 38 41  1  6  0  0  0
 38 36  1  0  0  0  0
 38 40  1  0  0  0  0
 39 38  1  0  0  0  0
 42 45  1  6  0  0  0
 42 39  1  0  0  0  0
 42 46  1  0  0  0  0
 43 47  1  6  0  0  0
 43 40  1  0  0  0  0
 44 45  1  1  0  0  0
 44 41  1  0  0  0  0
 44 47  1  0  0  0  0
 46 43  1  0  0  0  0
 48 49  1  0  0  0  0
 50 49  1  0  0  0  0
 50 51  1  0  0  0  0
 51 52  1  0  0  0  0
 53 52  1  0  0  0  0
M  END
>  <REMARK>
 VINA RESULT:    -5.070      1.367      2.063
 INTER + INTRA:         -15.330
 INTER:                  -9.581
 INTRA:                  -5.749
 UNBOUND:                -6.554
 SMILES CC(=O)N[C@@H]1[C@@H](O)C[C@](O)(C(=O)O)O[C@H]1C(O)[C@H](O)CNC(=O)OCc1cn(C23CC4CC(CC(C4)C2)C3)nn1
 SMILES IDX 20 1 18 2 16 3 15 4 9 5 8 6 14 7 6 8 5 9 10 10 11 12 12 13
 SMILES IDX 13 14 7 16 4 18 2 19 1 21 3 22 17 23 19 25 21 27 22 28 23 30
 SMILES IDX 24 31 25 32 26 33 27 34 40 35 28 36 39 37 29 38 38 39 37 40
 SMILES IDX 30 41 33 42 35 43 31 44 32 45 34 46 36 47
 H PARENT 10 11 13 15 7 17 4 20 17 24 19 26 21 29
 Flexibility Score: inf
  4 active torsions:
  status: ('A' for Active; 'I' for Inactive)
    1  A    between atoms: CA   and  CB  
    2  A    between atoms: CB   and  CG  
    3  A    between atoms: CG   and  CD  
    4  A    between atoms: CD   and  CE  

>  <TORSDO>
F 15

>  <BEGIN_>
RES LYS A 131

$$$$
ligand_51_pose_3_2HRL.pdbqt
 OpenBabel07062320523D

  6  5  0  0  0  0  0  0  0  0999 V2000
   33.1930   34.6630    9.2900 C   0  0  0  0  0  0  0  0  0  0  0  0
   32.0600   35.3600   10.0340 C   0  0  0  0  0  0  0  0  0  0  0  0
   30.7310   34.6640    9.8970 C   0  0  0  0  0  0  0  0  0  0  0  0
   30.2900   34.6310    8.4410 C   0  0  0  0  0  0  0  0  0  0  0  0
   28.7830   34.4920    8.3450 C   0  0  0  0  0  0  0  0  0  0  0  0
   28.2260   33.8260    9.5540 N   0  0  0  0  0  0  0  0  0  0  0  0
  1  2  1  0  0  0  0
  3  2  1  0  0  0  0
  4  3  1  0  0  0  0
  5  4  1  0  0  0  0
  5  6  1  0  0  0  0
M  END
>  <EGIN_R>
ES LYS A 135

>  <REMARK>
  4 active torsions:
  status: ('A' for Active; 'I' for Inactive)
    5  A    between atoms: CA   and  CB  
    6  A    between atoms: CB   and  CG  
    7  A    between atoms: CG   and  CD  
    8  A    between atoms: CD   and  CE  

$$$$
