ligand_10_pose_18_2HRL.pdbqt
 OpenBabel07062320523D

 53 53  0  0  1  0  0  0  0  0999 V2000
   32.3580   30.1220   21.7680 N   0  0  0  0  0  0  0  0  0  0  0  0
   32.8710   31.4510   21.7110 C   0  0  0  0  0  0  0  0  0  0  0  0
   33.9110   31.7130   22.3270 O   0  0  0  0  0  0  0  0  0  0  0  0
   31.4700   29.9740   21.2190 H   0  0  0  0  0  0  0  0  0  0  0  0
   32.9590   29.0470   22.4930 C   0  0  0  0  0  0  0  0  0  0  0  0
   32.2850   27.7300   22.1680 C   0  0  2  0  0  0  0  0  0  0  0  0
   31.2200   27.9080   21.1020 C   0  0  2  0  0  0  0  0  0  0  0  0
   29.9630   27.1580   21.3610 C   0  0  2  0  0  0  0  0  0  0  0  0
   28.6350   28.7040   20.2470 C   0  0  2  0  0  0  0  0  0  0  0  0
   28.5440   29.5210   21.4670 C   0  0  0  0  0  0  0  0  0  0  0  0
   29.0000   27.3890   20.3750 O   0  0  0  0  0  0  0  0  0  0  0  0
   28.8420   28.8910   22.7700 C   0  0  1  0  0  0  0  0  0  0  0  0
   29.3590   27.4820   22.6990 C   0  0  1  0  0  0  0  0  0  0  0  0
   29.5580   29.2650   19.3270 O   0  0  0  0  0  0  0  0  0  0  0  0
   30.3200   29.5710   19.8880 H   0  0  0  0  0  0  0  0  0  0  0  0
   27.3430   28.7070   19.5070 C   0  0  0  0  0  0  0  0  0  0  0  0
   27.0150   29.5740   18.6640 O   0  0  0  0  0  0  0  0  0  0  0  0
   26.4500   27.6810   19.7710 O   0  0  0  0  0  0  0  0  0  0  0  0
   25.7090   27.7690   20.4780 H   0  0  0  0  0  0  0  0  0  0  0  0
   29.7300   29.6760   23.5000 O   0  0  0  0  0  0  0  0  0  0  0  0
   30.5930   29.8130   23.0750 H   0  0  0  0  0  0  0  0  0  0  0  0
   28.2580   26.5240   22.9620 N   0  0  0  0  0  0  0  0  0  0  0  0
   28.0730   25.9660   24.2480 C   0  0  0  0  0  0  0  0  0  0  0  0
   27.5960   26.2370   22.2110 H   0  0  0  0  0  0  0  0  0  0  0  0
   26.9810   24.9970   24.5580 C   0  0  0  0  0  0  0  0  0  0  0  0
   28.8600   26.3000   25.1590 O   0  0  0  0  0  0  0  0  0  0  0  0
   31.8510   27.3860   19.9360 O   0  0  0  0  0  0  0  0  0  0  0  0
   32.5030   26.6880   20.1820 H   0  0  0  0  0  0  0  0  0  0  0  0
   31.8040   27.1850   23.3510 O   0  0  0  0  0  0  0  0  0  0  0  0
   31.1250   27.7500   23.7960 H   0  0  0  0  0  0  0  0  0  0  0  0
   32.2490   32.4580   20.9910 O   0  0  0  0  0  0  0  0  0  0  0  0
   30.8480   32.4810   20.8770 C   0  0  0  0  0  0  0  0  0  0  0  0
   30.3910   32.6090   19.4720 C   0  0  0  0  0  0  0  0  0  0  0  0
   31.0350   33.3980   18.5490 C   0  0  0  0  0  0  0  0  0  0  0  0
   29.3590   32.0490   18.8440 N   0  0  0  0  0  0  0  0  0  0  0  0
   30.3660   33.2900   17.3730 N   0  0  0  0  0  0  0  0  0  0  0  0
   29.3730   32.4770   17.5930 N   0  0  0  0  0  0  0  0  0  0  0  0
   30.7790   34.0000   16.1660 C   0  0  1  0  0  0  0  0  0  0  0  0
   32.2520   34.2960   16.2370 C   0  0  0  0  0  0  0  0  0  0  0  0
   32.7430   35.0020   15.0430 C   0  0  0  0  0  0  0  0  0  0  0  0
   32.3960   36.1950   14.8580 O   0  0  0  0  0  0  0  0  0  0  0  0
   33.5730   34.3360   14.1540 O   0  0  0  0  0  0  0  0  0  0  0  0
   34.3460   34.8550   13.7100 H   0  0  0  0  0  0  0  0  0  0  0  0
   30.5690   33.0980   15.0000 C   0  0  0  0  0  0  0  0  0  0  0  0
   29.8770   33.4000   13.9960 O   0  0  0  0  0  0  0  0  0  0  0  0
   31.1710   31.8510   15.0230 O   0  0  0  0  0  0  0  0  0  0  0  0
   30.7270   31.0370   15.4320 H   0  0  0  0  0  0  0  0  0  0  0  0
   29.8670   25.5550   16.9770 C   0  0  0  0  0  0  0  0  0  0  0  0
   28.3450   25.7220   17.0260 C   0  0  0  0  0  0  0  0  0  0  0  0
   27.6010   24.4020   16.8970 C   0  0  0  0  0  0  0  0  0  0  0  0
   26.6470   24.1760   18.0370 C   0  0  0  0  0  0  0  0  0  0  0  0
   25.5790   23.1720   17.6150 C   0  0  0  0  0  0  0  0  0  0  0  0
   24.4570   23.8620   16.9350 N   0  0  0  0  0  0  0  0  0  0  0  0
  1  5  1  0  0  0  0
  2  1  1  0  0  0  0
  2  3  2  0  0  0  0
  4  1  1  0  0  0  0
  6  5  1  1  0  0  0
  6 29  1  0  0  0  0
  7 27  1  6  0  0  0
  7  6  1  0  0  0  0
  8  7  1  6  0  0  0
  8 13  1  0  0  0  0
  9 14  1  6  0  0  0
  9 11  1  0  0  0  0
  9 10  1  0  0  0  0
 10 12  1  0  0  0  0
 11  8  1  0  0  0  0
 12 20  1  6  0  0  0
 13 12  1  0  0  0  0
 13 22  1  6  0  0  0
 14 15  1  0  0  0  0
 16 18  1  0  0  0  0
 16  9  1  0  0  0  0
 17 16  2  0  0  0  0
 18 19  1  0  0  0  0
 21 20  1  0  0  0  0
 22 23  1  0  0  0  0
 23 25  1  0  0  0  0
 23 26  2  0  0  0  0
 24 22  1  0  0  0  0
 27 28  1  0  0  0  0
 29 30  1  0  0  0  0
 31  2  1  0  0  0  0
 32 31  1  0  0  0  0
 33 32  1  0  0  0  0
 34 33  2  0  0  0  0
 35 33  1  0  0  0  0
 36 37  1  0  0  0  0
 36 34  1  0  0  0  0
 37 35  2  0  0  0  0
 38 39  1  1  0  0  0
 38 36  1  0  0  0  0
 40 39  1  0  0  0  0
 41 40  2  0  0  0  0
 42 40  1  0  0  0  0
 43 42  1  0  0  0  0
 44 46  1  0  0  0  0
 44 38  1  0  0  0  0
 45 44  2  0  0  0  0
 46 47  1  0  0  0  0
 48 49  1  0  0  0  0
 50 49  1  0  0  0  0
 50 51  1  0  0  0  0
 52 51  1  0  0  0  0
 53 52  1  0  0  0  0
M  END
>  <REMARK>
 VINA RESULT:    -4.329      4.127      7.668
 INTER + INTRA:         -14.248
 INTER:                  -8.504
 INTRA:                  -5.744
 UNBOUND:                -5.744
 SMILES CC(=O)N[C@@H]1[C@@H](O)C[C@](O)(C(=O)O)O[C@H]1C(O)[C@H](O)CNC(=O)OCc1cn([C@@H](CC(=O)O)C(=O)O)nn1
 SMILES IDX 21 1 22 2 23 3 20 5 18 6 16 7 15 8 9 9 8 10 14 11 6 12 5 13
 SMILES IDX 10 14 11 16 12 17 13 18 7 20 4 22 2 23 1 25 3 26 17 27 19 29
 SMILES IDX 24 31 25 32 26 33 27 34 38 35 28 36 37 37 29 38 30 39 31 40
 SMILES IDX 32 41 33 42 34 44 35 45 36 46
 H PARENT 21 4 10 15 13 19 7 21 4 24 17 28 19 30 33 43 36 47
 Flexibility Score: inf
  4 active torsions:
  status: ('A' for Active; 'I' for Inactive)
    1  A    between atoms: CA   and  CB  
    2  A    between atoms: CB   and  CG  
    3  A    between atoms: CG   and  CD  
    4  A    between atoms: CD   and  CE  

>  <TORSDO>
F 20

>  <BEGIN_>
RES LYS A 131

$$$$
ligand_10_pose_18_2HRL.pdbqt
 OpenBabel07062320523D

  6  5  0  0  0  0  0  0  0  0999 V2000
   33.1930   34.6630    9.2900 C   0  0  0  0  0  0  0  0  0  0  0  0
   32.0600   35.3600   10.0340 C   0  0  0  0  0  0  0  0  0  0  0  0
   30.7220   34.6900    9.8580 C   0  0  0  0  0  0  0  0  0  0  0  0
   30.2820   34.7420    8.4030 C   0  0  0  0  0  0  0  0  0  0  0  0
   28.7880   34.5080    8.2890 C   0  0  0  0  0  0  0  0  0  0  0  0
   28.2580   33.8280    9.5040 N   0  0  0  0  0  0  0  0  0  0  0  0
  1  2  1  0  0  0  0
  3  2  1  0  0  0  0
  4  3  1  0  0  0  0
  5  4  1  0  0  0  0
  5  6  1  0  0  0  0
M  END
>  <EGIN_R>
ES LYS A 135

>  <REMARK>
  4 active torsions:
  status: ('A' for Active; 'I' for Inactive)
    5  A    between atoms: CA   and  CB  
    6  A    between atoms: CB   and  CG  
    7  A    between atoms: CG   and  CD  
    8  A    between atoms: CD   and  CE  

$$$$
