ligand_46_pose_9_2HRL.pdbqt
 OpenBabel07062320523D

 50 51  0  0  1  0  0  0  0  0999 V2000
   31.1670   32.9820   17.6930 N   0  0  0  0  0  0  0  0  0  0  0  0
   31.4790   34.0000   16.7690 C   0  0  0  0  0  0  0  0  0  0  0  0
   31.5770   35.1920   17.1020 O   0  0  0  0  0  0  0  0  0  0  0  0
   31.1160   32.0090   17.2950 H   0  0  0  0  0  0  0  0  0  0  0  0
   30.9310   33.2300   19.0820 C   0  0  0  0  0  0  0  0  0  0  0  0
   30.9870   31.9300   19.8500 C   0  0  2  0  0  0  0  0  0  0  0  0
   29.7430   31.1130   19.6410 C   0  0  2  0  0  0  0  0  0  0  0  0
   29.5890   29.9860   20.6350 C   0  0  2  0  0  0  0  0  0  0  0  0
   30.9660   28.2000   21.2480 C   0  0  2  0  0  0  0  0  0  0  0  0
   29.7130   27.6370   21.9370 C   0  0  0  0  0  0  0  0  0  0  0  0
   30.7740   29.5450   21.1380 O   0  0  0  0  0  0  0  0  0  0  0  0
   28.6630   27.6430   20.8280 C   0  0  1  0  0  0  0  0  0  0  0  0
   28.6480   28.9670   20.0980 C   0  0  1  0  0  0  0  0  0  0  0  0
   31.2100   27.5300   20.0680 O   0  0  0  0  0  0  0  0  0  0  0  0
   32.1800   27.4880   19.9270 H   0  0  0  0  0  0  0  0  0  0  0  0
   32.1020   27.9920   22.2160 C   0  0  0  0  0  0  0  0  0  0  0  0
   31.9880   27.2410   23.2070 O   0  0  0  0  0  0  0  0  0  0  0  0
   33.3060   28.6410   22.0200 O   0  0  0  0  0  0  0  0  0  0  0  0
   34.1290   28.0880   21.8470 H   0  0  0  0  0  0  0  0  0  0  0  0
   29.0060   26.5900   19.9780 O   0  0  0  0  0  0  0  0  0  0  0  0
   28.6270   25.7550   20.3310 H   0  0  0  0  0  0  0  0  0  0  0  0
   27.2970   29.5530   20.1810 N   0  0  0  0  0  0  0  0  0  0  0  0
   26.4340   29.6440   19.0620 C   0  0  0  0  0  0  0  0  0  0  0  0
   26.9530   29.9250   21.1130 H   0  0  0  0  0  0  0  0  0  0  0  0
   25.0690   30.2250   19.0970 C   0  0  0  0  0  0  0  0  0  0  0  0
   26.8480   29.2010   17.9620 O   0  0  0  0  0  0  0  0  0  0  0  0
   29.6970   30.6800   18.3300 O   0  0  0  0  0  0  0  0  0  0  0  0
   30.0310   29.7510   18.2980 H   0  0  0  0  0  0  0  0  0  0  0  0
   31.1700   32.2870   21.1860 O   0  0  0  0  0  0  0  0  0  0  0  0
   32.1170   32.3220   21.4470 H   0  0  0  0  0  0  0  0  0  0  0  0
   31.6940   33.6930   15.4260 O   0  0  0  0  0  0  0  0  0  0  0  0
   30.6060   33.6820   14.5340 C   0  0  0  0  0  0  0  0  0  0  0  0
   29.4800   32.8670   15.0510 C   0  0  0  0  0  0  0  0  0  0  0  0
   28.2140   33.3140   15.3140 C   0  0  0  0  0  0  0  0  0  0  0  0
   29.5140   31.5650   15.3500 N   0  0  0  0  0  0  0  0  0  0  0  0
   27.5070   32.2660   15.7680 N   0  0  0  0  0  0  0  0  0  0  0  0
   28.3290   31.2110   15.7790 N   0  0  0  0  0  0  0  0  0  0  0  0
   26.1270   32.2170   16.1810 C   0  0  0  0  0  0  0  0  0  0  0  0
   25.2740   31.6020   15.1290 C   0  0  0  0  0  0  0  0  0  0  0  0
   24.8530   32.3320   14.0230 C   0  0  0  0  0  0  0  0  0  0  0  0
   24.8630   30.2940   15.1980 C   0  0  0  0  0  0  0  0  0  0  0  0
   24.0650   31.7590   13.0560 C   0  0  0  0  0  0  0  0  0  0  0  0
   24.0690   29.7070   14.2280 C   0  0  0  0  0  0  0  0  0  0  0  0
   23.6610   30.4440   13.1400 C   0  0  0  0  0  0  0  0  0  0  0  0
   29.8670   25.5550   16.9770 C   0  0  0  0  0  0  0  0  0  0  0  0
   28.3450   25.7220   17.0260 C   0  0  0  0  0  0  0  0  0  0  0  0
   27.6010   24.4020   16.8960 C   0  0  0  0  0  0  0  0  0  0  0  0
   26.2590   24.4390   17.5720 C   0  0  0  0  0  0  0  0  0  0  0  0
   25.9760   25.8540   18.0650 C   0  0  0  0  0  0  0  0  0  0  0  0
   25.7230   25.8540   19.5250 N   0  0  0  0  0  0  0  0  0  0  0  0
  1  5  1  0  0  0  0
  2  3  2  0  0  0  0
  2  1  1  0  0  0  0
  4  1  1  0  0  0  0
  6  5  1  6  0  0  0
  6 29  1  0  0  0  0
  7 27  1  6  0  0  0
  7  6  1  0  0  0  0
  8  7  1  6  0  0  0
  8 11  1  0  0  0  0
  9 14  1  6  0  0  0
  9 10  1  0  0  0  0
  9 16  1  0  0  0  0
 11  9  1  0  0  0  0
 12 20  1  6  0  0  0
 12 10  1  0  0  0  0
 13 22  1  1  0  0  0
 13  8  1  0  0  0  0
 13 12  1  0  0  0  0
 15 14  1  0  0  0  0
 16 17  2  0  0  0  0
 18 16  1  0  0  0  0
 19 18  1  0  0  0  0
 20 21  1  0  0  0  0
 22 24  1  0  0  0  0
 23 25  1  0  0  0  0
 23 22  1  0  0  0  0
 26 23  2  0  0  0  0
 28 27  1  0  0  0  0
 29 30  1  0  0  0  0
 31  2  1  0  0  0  0
 32 33  1  0  0  0  0
 32 31  1  0  0  0  0
 33 34  2  0  0  0  0
 33 35  1  0  0  0  0
 34 36  1  0  0  0  0
 35 37  2  0  0  0  0
 36 37  1  0  0  0  0
 36 38  1  0  0  0  0
 39 41  1  0  0  0  0
 39 38  1  0  0  0  0
 40 39  2  0  0  0  0
 42 44  2  0  0  0  0
 42 40  1  0  0  0  0
 43 41  2  0  0  0  0
 44 43  1  0  0  0  0
 45 46  1  0  0  0  0
 47 46  1  0  0  0  0
 47 48  1  0  0  0  0
 48 49  1  0  0  0  0
 49 50  1  0  0  0  0
M  END
>  <REMARK>
 VINA RESULT:    -5.362      8.281     13.027
 INTER + INTRA:         -14.883
 INTER:                  -8.761
 INTRA:                  -6.122
 UNBOUND:                -5.290
 SMILES CC(=O)N[C@@H]1[C@@H](O)C[C@](O)(C(=O)O)O[C@H]1C(O)[C@H](O)CNC(=O)OCc1cn(Cc2ccccc2)nn1
 SMILES IDX 21 1 22 2 23 3 20 5 18 6 16 7 15 8 9 9 8 10 14 11 6 12 5 13
 SMILES IDX 10 14 11 16 12 17 13 18 7 20 4 22 2 23 1 25 3 26 17 27 19 29
 SMILES IDX 24 31 25 32 26 33 27 34 37 35 28 36 36 37 29 38 30 39 31 40
 SMILES IDX 35 41 32 42 34 43 33 44
 H PARENT 21 4 10 15 13 19 7 21 4 24 17 28 19 30
 Flexibility Score: inf
  4 active torsions:
  status: ('A' for Active; 'I' for Inactive)
    1  A    between atoms: CA   and  CB  
    2  A    between atoms: CB   and  CG  
    3  A    between atoms: CG   and  CD  
    4  A    between atoms: CD   and  CE  

>  <TORSDO>
F 16

>  <BEGIN_>
RES LYS A 131

$$$$
ligand_46_pose_9_2HRL.pdbqt
 OpenBabel07062320523D

  6  5  0  0  0  0  0  0  0  0999 V2000
   33.1930   34.6630    9.2900 C   0  0  0  0  0  0  0  0  0  0  0  0
   32.0600   35.3600   10.0340 C   0  0  0  0  0  0  0  0  0  0  0  0
   30.7930   35.4790    9.2270 C   0  0  0  0  0  0  0  0  0  0  0  0
   30.2200   34.1030    8.9220 C   0  0  0  0  0  0  0  0  0  0  0  0
   28.7150   34.0980    9.1140 C   0  0  0  0  0  0  0  0  0  0  0  0
   28.0330   34.8410    8.0180 N   0  0  0  0  0  0  0  0  0  0  0  0
  1  2  1  0  0  0  0
  3  2  1  0  0  0  0
  4  5  1  0  0  0  0
  4  3  1  0  0  0  0
  6  5  1  0  0  0  0
M  END
>  <EGIN_R>
ES LYS A 135

>  <REMARK>
  4 active torsions:
  status: ('A' for Active; 'I' for Inactive)
    5  A    between atoms: CA   and  CB  
    6  A    between atoms: CB   and  CG  
    7  A    between atoms: CG   and  CD  
    8  A    between atoms: CD   and  CE  

$$$$
