ligand_81_pose_14_2HRL.pdbqt
 OpenBabel07062320523D

 63 65  0  0  1  0  0  0  0  0999 V2000
   32.5180   36.4340   13.6850 O   0  0  0  0  0  0  0  0  0  0  0  0
   32.6180   35.3350   14.5100 C   0  0  0  0  0  0  0  0  0  0  0  0
   31.8040   35.2010   15.6950 N   0  0  0  0  0  0  0  0  0  0  0  0
   31.1540   35.9950   15.8630 H   0  0  0  0  0  0  0  0  0  0  0  0
   33.4450   34.4390   14.2070 O   0  0  0  0  0  0  0  0  0  0  0  0
   31.9500   34.0280   16.5240 C   0  0  0  0  0  0  0  0  0  0  0  0
   30.5540   33.5540   16.9060 C   0  0  2  0  0  0  0  0  0  0  0  0
   30.2490   32.3650   16.0270 C   0  0  2  0  0  0  0  0  0  0  0  0
   29.9290   31.1000   16.7630 C   0  0  2  0  0  0  0  0  0  0  0  0
   27.6330   31.1420   16.2950 C   0  0  2  0  0  0  0  0  0  0  0  0
   27.4440   31.7530   17.6730 C   0  0  0  0  0  0  0  0  0  0  0  0
   28.8410   30.5210   16.1530 O   0  0  0  0  0  0  0  0  0  0  0  0
   28.3390   31.0130   18.6450 C   0  0  1  0  0  0  0  0  0  0  0  0
   29.8140   31.2020   18.2400 C   0  0  1  0  0  0  0  0  0  0  0  0
   27.4450   32.1910   15.3860 O   0  0  0  0  0  0  0  0  0  0  0  0
   26.6830   32.7610   15.6300 H   0  0  0  0  0  0  0  0  0  0  0  0
   26.5840   30.1370   16.0260 C   0  0  0  0  0  0  0  0  0  0  0  0
   26.7140   28.9810   16.4720 O   0  0  0  0  0  0  0  0  0  0  0  0
   25.4760   30.4710   15.2920 O   0  0  0  0  0  0  0  0  0  0  0  0
   24.8710   31.2590   15.4840 H   0  0  0  0  0  0  0  0  0  0  0  0
   28.1190   31.4280   19.9380 O   0  0  0  0  0  0  0  0  0  0  0  0
   28.8450   31.1490   20.5360 H   0  0  0  0  0  0  0  0  0  0  0  0
   30.5240   30.1190   18.9350 N   0  0  0  0  0  0  0  0  0  0  0  0
   31.1820   30.3880   20.1590 C   0  0  0  0  0  0  0  0  0  0  0  0
   30.5530   29.1540   18.5430 H   0  0  0  0  0  0  0  0  0  0  0  0
   31.9230   29.3350   20.9190 C   0  0  0  0  0  0  0  0  0  0  0  0
   31.1250   31.5690   20.6030 O   0  0  0  0  0  0  0  0  0  0  0  0
   31.5140   32.0990   15.4060 O   0  0  0  0  0  0  0  0  0  0  0  0
   31.8720   31.2510   15.7330 H   0  0  0  0  0  0  0  0  0  0  0  0
   29.7110   34.6370   16.7100 O   0  0  0  0  0  0  0  0  0  0  0  0
   28.7660   34.3920   16.8110 H   0  0  0  0  0  0  0  0  0  0  0  0
   31.5080   36.6500   12.7240 C   0  0  0  0  0  0  0  0  0  0  0  0
   30.3000   35.8360   13.0720 C   0  0  0  0  0  0  0  0  0  0  0  0
   29.1300   36.2610   13.6490 C   0  0  0  0  0  0  0  0  0  0  0  0
   30.1430   34.5080   12.8800 N   0  0  0  0  0  0  0  0  0  0  0  0
   28.2790   35.2010   13.8020 N   0  0  0  0  0  0  0  0  0  0  0  0
   28.9470   34.1620   13.3170 N   0  0  0  0  0  0  0  0  0  0  0  0
   26.9840   35.2310   14.3750 C   0  0  0  0  0  0  0  0  0  0  0  0
   26.8080   35.1660   15.7020 N   0  0  0  0  0  0  0  0  0  0  0  0
   25.8450   35.3030   13.5640 C   0  0  0  0  0  0  0  0  0  0  0  0
   25.5680   35.1680   16.2540 C   0  0  0  0  0  0  0  0  0  0  0  0
   24.5960   35.3020   14.1160 C   0  0  0  0  0  0  0  0  0  0  0  0
   24.4720   35.2330   15.4910 N   0  0  0  0  0  0  0  0  0  0  0  0
   26.0300   35.3430   12.0990 C   0  0  0  0  0  0  0  0  0  0  0  0
   26.0390   36.7200   11.4970 C   0  0  0  0  0  0  0  0  0  0  0  0
   25.2660   36.8120   10.3730 O   0  0  0  0  0  0  0  0  0  0  0  0
   24.8090   35.6040    9.9000 C   0  0  0  0  0  0  0  0  0  0  0  0
   23.5160   35.7560    9.1260 C   0  0  0  0  0  0  0  0  0  0  0  0
   25.4300   35.0980   17.6590 N   0  0  0  0  0  0  0  0  0  0  0  0
   25.8130   35.8510   18.2580 H   0  0  0  0  0  0  0  0  0  0  0  0
   24.9490   34.3060   18.1250 H   0  0  0  0  0  0  0  0  0  0  0  0
   23.3810   35.2580   13.3270 C   0  0  0  0  0  0  0  0  0  0  0  0
   22.6020   36.2800   12.9240 C   0  0  0  0  0  0  0  0  0  0  0  0
   22.9830   33.9670   12.9130 C   0  0  0  0  0  0  0  0  0  0  0  0
   21.4590   36.0550   12.1330 C   0  0  0  0  0  0  0  0  0  0  0  0
   21.8760   33.7350   12.1450 C   0  0  0  0  0  0  0  0  0  0  0  0
   21.0840   34.7940   11.7370 C   0  0  0  0  0  0  0  0  0  0  0  0
   29.8670   25.5550   16.9770 C   0  0  0  0  0  0  0  0  0  0  0  0
   28.3450   25.7220   17.0260 C   0  0  0  0  0  0  0  0  0  0  0  0
   27.6020   24.3990   16.9260 C   0  0  0  0  0  0  0  0  0  0  0  0
   26.6540   24.1930   18.0750 C   0  0  0  0  0  0  0  0  0  0  0  0
   26.3720   25.5320   18.7480 C   0  0  0  0  0  0  0  0  0  0  0  0
   25.5980   25.3330   19.9960 N   0  0  0  0  0  0  0  0  0  0  0  0
  1  2  1  0  0  0  0
  2  3  1  0  0  0  0
  3  4  1  0  0  0  0
  3  6  1  0  0  0  0
  5  2  2  0  0  0  0
  7  6  1  6  0  0  0
  8 28  1  6  0  0  0
  8  7  1  0  0  0  0
  9  8  1  6  0  0  0
  9 14  1  0  0  0  0
 10 15  1  6  0  0  0
 10 11  1  0  0  0  0
 11 13  1  0  0  0  0
 12 10  1  0  0  0  0
 12  9  1  0  0  0  0
 13 21  1  1  0  0  0
 14 13  1  0  0  0  0
 14 23  1  1  0  0  0
 15 16  1  0  0  0  0
 17 10  1  0  0  0  0
 17 18  2  0  0  0  0
 19 20  1  0  0  0  0
 19 17  1  0  0  0  0
 21 22  1  0  0  0  0
 23 24  1  0  0  0  0
 24 27  2  0  0  0  0
 24 26  1  0  0  0  0
 25 23  1  0  0  0  0
 28 29  1  0  0  0  0
 30 31  1  0  0  0  0
 30  7  1  0  0  0  0
 32 33  1  0  0  0  0
 32  1  1  0  0  0  0
 33 34  2  0  0  0  0
 34 36  1  0  0  0  0
 35 33  1  0  0  0  0
 35 37  2  0  0  0  0
 36 38  1  0  0  0  0
 37 36  1  0  0  0  0
 38 39  1  0  0  0  0
 39 41  2  0  0  0  0
 40 42  1  0  0  0  0
 40 38  2  0  0  0  0
 41 49  1  0  0  0  0
 42 43  2  0  0  0  0
 43 41  1  0  0  0  0
 44 40  1  0  0  0  0
 45 44  1  0  0  0  0
 46 45  1  0  0  0  0
 47 46  1  0  0  0  0
 48 47  1  0  0  0  0
 49 51  1  0  0  0  0
 49 50  1  0  0  0  0
 52 42  1  0  0  0  0
 53 52  2  0  0  0  0
 54 52  1  0  0  0  0
 55 53  1  0  0  0  0
 56 54  2  0  0  0  0
 57 55  2  0  0  0  0
 57 56  1  0  0  0  0
 58 59  1  0  0  0  0
 60 59  1  0  0  0  0
 60 61  1  0  0  0  0
 61 62  1  0  0  0  0
 62 63  1  0  0  0  0
M  END
>  <REMARK>
 VINA RESULT:    -4.632      3.189      9.225
 INTER + INTRA:         -16.679
 INTER:                  -9.157
 INTRA:                  -7.521
 UNBOUND:                -7.171
 SMILES CCOCCc1c(-c2ccccc2)nc(N)nc1-n1cc(COC(=O)NC[C@@H](O)C(O)[C@@H]2O[C@@](O)(C(=O)O)C[C@H](O)[C@H]2NC(C)=O)nn1
 SMILES IDX 23 1 24 2 26 3 25 5 27 6 28 7 30 8 32 9 34 10 39 11 33 12
 SMILES IDX 40 13 42 14 35 15 36 17 37 18 38 19 41 21 43 23 44 24 45 26
 SMILES IDX 46 27 31 28 29 30 22 32 21 33 20 34 47 35 19 36 48 37 18 38
 SMILES IDX 17 39 6 40 15 41 7 42 14 43 5 44 4 45 3 46 2 47 1 48 16 49
 SMILES IDX 8 52 9 53 13 54 10 55 12 56 11 57
 H PARENT 26 4 35 16 38 20 41 22 43 25 31 29 29 31 16 50 16 51
 Flexibility Score: inf
  4 active torsions:
  status: ('A' for Active; 'I' for Inactive)
    1  A    between atoms: CA   and  CB  
    2  A    between atoms: CB   and  CG  
    3  A    between atoms: CG   and  CD  
    4  A    between atoms: CD   and  CE  

>  <TORSDO>
F 21

>  <BEGIN_>
RES LYS A 131

$$$$
ligand_81_pose_14_2HRL.pdbqt
 OpenBabel07062320523D

  6  5  0  0  0  0  0  0  0  0999 V2000
   33.1930   34.6630    9.2900 C   0  0  0  0  0  0  0  0  0  0  0  0
   32.0600   35.3600   10.0340 C   0  0  0  0  0  0  0  0  0  0  0  0
   30.8290   35.5750    9.1920 C   0  0  0  0  0  0  0  0  0  0  0  0
   30.0130   34.2950    9.0990 C   0  0  0  0  0  0  0  0  0  0  0  0
   28.5310   34.6120    9.0360 C   0  0  0  0  0  0  0  0  0  0  0  0
   27.7220   33.5150    9.6380 N   0  0  0  0  0  0  0  0  0  0  0  0
  1  2  1  0  0  0  0
  3  2  1  0  0  0  0
  4  3  1  0  0  0  0
  5  4  1  0  0  0  0
  5  6  1  0  0  0  0
M  END
>  <EGIN_R>
ES LYS A 135

>  <REMARK>
  4 active torsions:
  status: ('A' for Active; 'I' for Inactive)
    5  A    between atoms: CA   and  CB  
    6  A    between atoms: CB   and  CG  
    7  A    between atoms: CG   and  CD  
    8  A    between atoms: CD   and  CE  

$$$$
