ligand_23_pose_14_2HRL.pdbqt
 OpenBabel07062320523D

 55 56  0  0  1  0  0  0  0  0999 V2000
   25.4730   36.5560   15.0000 N   0  0  0  0  0  0  0  0  0  0  0  0
   24.5620   35.4880   15.1980 C   0  0  0  0  0  0  0  0  0  0  0  0
   24.5490   34.9060   16.2960 O   0  0  0  0  0  0  0  0  0  0  0  0
   25.4280   37.0050   14.0450 H   0  0  0  0  0  0  0  0  0  0  0  0
   26.3910   37.0010   16.0170 C   0  0  0  0  0  0  0  0  0  0  0  0
   27.8170   36.6510   15.6520 C   0  0  2  0  0  0  0  0  0  0  0  0
   28.0120   35.1460   15.7840 C   0  0  1  0  0  0  0  0  0  0  0  0
   29.5080   34.8470   15.7230 C   0  0  2  0  0  0  0  0  0  0  0  0
   30.6420   35.1000   13.7180 C   0  0  2  0  0  0  0  0  0  0  0  0
   31.6050   33.9760   14.0220 C   0  0  0  0  0  0  0  0  0  0  0  0
   30.1300   35.6900   14.8560 O   0  0  0  0  0  0  0  0  0  0  0  0
   31.1990   33.1610   15.2030 C   0  0  1  0  0  0  0  0  0  0  0  0
   29.7080   33.3860   15.4540 C   0  0  1  0  0  0  0  0  0  0  0  0
   29.6020   34.6840   12.8920 O   0  0  0  0  0  0  0  0  0  0  0  0
   29.9970   34.2280   12.0850 H   0  0  0  0  0  0  0  0  0  0  0  0
   31.4100   36.1410   12.9840 C   0  0  0  0  0  0  0  0  0  0  0  0
   31.0240   37.3380   12.9390 O   0  0  0  0  0  0  0  0  0  0  0  0
   32.5960   35.8430   12.3110 O   0  0  0  0  0  0  0  0  0  0  0  0
   33.4350   36.3840   12.4850 H   0  0  0  0  0  0  0  0  0  0  0  0
   31.4750   31.8110   15.0810 O   0  0  0  0  0  0  0  0  0  0  0  0
   32.2920   31.5290   15.5830 H   0  0  0  0  0  0  0  0  0  0  0  0
   29.3160   32.6610   16.6500 N   0  0  0  0  0  0  0  0  0  0  0  0
   28.7650   31.3470   16.6020 C   0  0  0  0  0  0  0  0  0  0  0  0
   29.4450   33.1270   17.5910 H   0  0  0  0  0  0  0  0  0  0  0  0
   28.4010   30.7010   17.8900 C   0  0  0  0  0  0  0  0  0  0  0  0
   28.6210   30.8140   15.4880 O   0  0  0  0  0  0  0  0  0  0  0  0
   27.5450   34.7690   17.0310 O   0  0  0  0  0  0  0  0  0  0  0  0
   27.7610   33.8260   17.2250 H   0  0  0  0  0  0  0  0  0  0  0  0
   28.6720   37.3200   16.5460 O   0  0  0  0  0  0  0  0  0  0  0  0
   28.3090   38.2320   16.7730 H   0  0  0  0  0  0  0  0  0  0  0  0
   23.6840   35.0800   14.1880 O   0  0  0  0  0  0  0  0  0  0  0  0
   24.0160   34.0230   13.3120 C   0  0  0  0  0  0  0  0  0  0  0  0
   25.1190   34.4350   12.4090 C   0  0  0  0  0  0  0  0  0  0  0  0
   24.9570   34.8690   11.1070 C   0  0  0  0  0  0  0  0  0  0  0  0
   26.4340   34.4710   12.6550 N   0  0  0  0  0  0  0  0  0  0  0  0
   26.1940   35.1370   10.6590 N   0  0  0  0  0  0  0  0  0  0  0  0
   27.1010   34.8980   11.5930 N   0  0  0  0  0  0  0  0  0  0  0  0
   26.5110   35.6150    9.3530 C   0  0  0  0  0  0  0  0  0  0  0  0
   26.2460   36.9050    8.9470 C   0  0  0  0  0  0  0  0  0  0  0  0
   27.1110   34.7780    8.4280 C   0  0  0  0  0  0  0  0  0  0  0  0
   26.5590   37.3650    7.6690 C   0  0  0  0  0  0  0  0  0  0  0  0
   27.4290   35.2060    7.1680 C   0  0  0  0  0  0  0  0  0  0  0  0
   27.1520   36.4980    6.7910 C   0  0  0  0  0  0  0  0  0  0  0  0
   26.2230   38.9890    7.1630 S   0  0  0  0  0  0  0  0  0  0  0  0
   27.0620   39.2880    5.9470 O   0  0  0  0  0  0  0  0  0  0  0  0
   26.6730   39.9490    8.2390 O   0  0  0  0  0  0  0  0  0  0  0  0
   24.5660   39.2050    6.7720 N   0  0  0  0  0  0  0  0  0  0  0  0
   24.4810   39.7630    5.9040 H   0  0  0  0  0  0  0  0  0  0  0  0
   24.0230   39.6300    7.5530 H   0  0  0  0  0  0  0  0  0  0  0  0
   29.8670   25.5550   16.9770 C   0  0  0  0  0  0  0  0  0  0  0  0
   28.3450   25.7220   17.0260 C   0  0  0  0  0  0  0  0  0  0  0  0
   27.6000   24.4090   16.8400 C   0  0  0  0  0  0  0  0  0  0  0  0
   26.6100   24.1580   17.9430 C   0  0  0  0  0  0  0  0  0  0  0  0
   25.1940   24.3610   17.4120 C   0  0  0  0  0  0  0  0  0  0  0  0
   24.5100   23.0560   17.2490 N   0  0  0  0  0  0  0  0  0  0  0  0
  1  2  1  0  0  0  0
  1  5  1  0  0  0  0
  2  3  2  0  0  0  0
  4  1  1  0  0  0  0
  6  7  1  0  0  0  0
  6  5  1  1  0  0  0
  6 29  1  0  0  0  0
  7 27  1  1  0  0  0
  8  7  1  6  0  0  0
  9 14  1  6  0  0  0
  9 10  1  0  0  0  0
  9 11  1  0  0  0  0
 10 12  1  0  0  0  0
 11  8  1  0  0  0  0
 12 20  1  6  0  0  0
 12 13  1  0  0  0  0
 13  8  1  0  0  0  0
 13 22  1  1  0  0  0
 15 14  1  0  0  0  0
 16  9  1  0  0  0  0
 17 16  2  0  0  0  0
 18 19  1  0  0  0  0
 18 16  1  0  0  0  0
 20 21  1  0  0  0  0
 22 24  1  0  0  0  0
 23 22  1  0  0  0  0
 23 25  1  0  0  0  0
 26 23  2  0  0  0  0
 27 28  1  0  0  0  0
 29 30  1  0  0  0  0
 31  2  1  0  0  0  0
 32 31  1  0  0  0  0
 33 35  1  0  0  0  0
 33 32  1  0  0  0  0
 34 33  2  0  0  0  0
 36 34  1  0  0  0  0
 36 37  1  0  0  0  0
 37 35  2  0  0  0  0
 38 36  1  0  0  0  0
 39 38  1  0  0  0  0
 40 38  2  0  0  0  0
 41 39  2  0  0  0  0
 42 40  1  0  0  0  0
 43 42  2  0  0  0  0
 43 41  1  0  0  0  0
 44 41  1  0  0  0  0
 44 46  2  0  0  0  0
 45 44  2  0  0  0  0
 47 44  1  0  0  0  0
 47 49  1  0  0  0  0
 48 47  1  0  0  0  0
 50 51  1  0  0  0  0
 52 51  1  0  0  0  0
 52 53  1  0  0  0  0
 54 53  1  0  0  0  0
 55 54  1  0  0  0  0
M  END
>  <REMARK>
 VINA RESULT:    -4.223      3.363      8.438
 INTER + INTRA:         -14.302
 INTER:                  -8.975
 INTRA:                  -5.327
 UNBOUND:                -6.624
 SMILES CC(=O)N[C@@H]1[C@@H](O)C[C@](O)(C(=O)O)O[C@H]1C(O)[C@H](O)CNC(=O)OCc1cn(-c2cccc(S(N)(=O)=O)c2)nn1
 SMILES IDX 21 1 22 2 23 3 20 5 18 6 16 7 15 8 9 9 8 10 14 11 6 12 5 13
 SMILES IDX 10 14 11 16 12 17 13 18 7 20 4 22 2 23 1 25 3 26 17 27 19 29
 SMILES IDX 24 31 25 32 26 33 27 34 40 35 28 36 39 37 29 38 38 39 30 40
 SMILES IDX 33 41 31 42 32 43 34 44 36 45 37 46 35 47
 H PARENT 21 4 10 15 13 19 7 21 4 24 17 28 19 30 35 48 35 49
 Flexibility Score: inf
  4 active torsions:
  status: ('A' for Active; 'I' for Inactive)
    1  A    between atoms: CA   and  CB  
    2  A    between atoms: CB   and  CG  
    3  A    between atoms: CG   and  CD  
    4  A    between atoms: CD   and  CE  

>  <TORSDO>
F 17

>  <BEGIN_>
RES LYS A 131

$$$$
ligand_23_pose_14_2HRL.pdbqt
 OpenBabel07062320523D

  6  5  0  0  0  0  0  0  0  0999 V2000
   33.1930   34.6630    9.2900 C   0  0  0  0  0  0  0  0  0  0  0  0
   32.0600   35.3600   10.0340 C   0  0  0  0  0  0  0  0  0  0  0  0
   30.7590   35.3750    9.2730 C   0  0  0  0  0  0  0  0  0  0  0  0
   29.9420   36.6070    9.6320 C   0  0  0  0  0  0  0  0  0  0  0  0
   30.6550   37.8680    9.1820 C   0  0  0  0  0  0  0  0  0  0  0  0
   30.0690   38.3930    7.9180 N   0  0  0  0  0  0  0  0  0  0  0  0
  1  2  1  0  0  0  0
  3  4  1  0  0  0  0
  3  2  1  0  0  0  0
  5  4  1  0  0  0  0
  6  5  1  0  0  0  0
M  END
>  <EGIN_R>
ES LYS A 135

>  <REMARK>
  4 active torsions:
  status: ('A' for Active; 'I' for Inactive)
    5  A    between atoms: CA   and  CB  
    6  A    between atoms: CB   and  CG  
    7  A    between atoms: CG   and  CD  
    8  A    between atoms: CD   and  CE  

$$$$
