ligand_55_pose_8_2HRL.pdbqt
 OpenBabel07062320523D

 51 51  0  0  1  0  0  0  0  0999 V2000
   28.6630   29.9830   15.8280 N   0  0  0  0  0  0  0  0  0  0  0  0
   27.4860   29.8640   16.5960 C   0  0  0  0  0  0  0  0  0  0  0  0
   26.8460   30.8380   17.0220 O   0  0  0  0  0  0  0  0  0  0  0  0
   29.1200   29.0750   15.5110 H   0  0  0  0  0  0  0  0  0  0  0  0
   29.2870   31.1930   15.4450 C   0  0  0  0  0  0  0  0  0  0  0  0
   30.5590   31.5690   16.1650 C   0  0  2  0  0  0  0  0  0  0  0  0
   30.1980   32.6160   17.1720 C   0  0  2  0  0  0  0  0  0  0  0  0
   30.1350   32.1920   18.6050 C   0  0  2  0  0  0  0  0  0  0  0  0
   30.1310   30.2310   19.8890 C   0  0  2  0  0  0  0  0  0  0  0  0
   29.2510   30.8690   20.9090 C   0  0  0  0  0  0  0  0  0  0  0  0
   30.3030   30.8740   18.7260 O   0  0  0  0  0  0  0  0  0  0  0  0
   28.3240   31.9090   20.3410 C   0  0  1  0  0  0  0  0  0  0  0  0
   29.0240   32.8190   19.3900 C   0  0  1  0  0  0  0  0  0  0  0  0
   29.6380   28.9470   19.6270 O   0  0  0  0  0  0  0  0  0  0  0  0
   30.1010   28.5900   18.8380 H   0  0  0  0  0  0  0  0  0  0  0  0
   31.4750   30.0330   20.5060 C   0  0  0  0  0  0  0  0  0  0  0  0
   32.1630   29.0060   20.3630 O   0  0  0  0  0  0  0  0  0  0  0  0
   32.0350   31.0470   21.3060 O   0  0  0  0  0  0  0  0  0  0  0  0
   32.7990   30.8550   21.9400 H   0  0  0  0  0  0  0  0  0  0  0  0
   27.2160   31.2660   19.8030 O   0  0  0  0  0  0  0  0  0  0  0  0
   27.0520   31.6740   18.9140 H   0  0  0  0  0  0  0  0  0  0  0  0
   29.4680   33.9820   20.1360 N   0  0  0  0  0  0  0  0  0  0  0  0
   29.2880   35.3180   19.6890 C   0  0  0  0  0  0  0  0  0  0  0  0
   29.9600   33.8860   21.0750 H   0  0  0  0  0  0  0  0  0  0  0  0
   29.7670   36.4880   20.4980 C   0  0  0  0  0  0  0  0  0  0  0  0
   28.7100   35.4750   18.5830 O   0  0  0  0  0  0  0  0  0  0  0  0
   28.9280   33.1000   16.7400 O   0  0  0  0  0  0  0  0  0  0  0  0
   28.2630   32.3810   16.7430 H   0  0  0  0  0  0  0  0  0  0  0  0
   31.5120   31.9160   15.2460 O   0  0  0  0  0  0  0  0  0  0  0  0
   32.3560   32.1440   15.6530 H   0  0  0  0  0  0  0  0  0  0  0  0
   26.9950   28.6010   16.9060 O   0  0  0  0  0  0  0  0  0  0  0  0
   25.9030   28.3740   17.7610 C   0  0  0  0  0  0  0  0  0  0  0  0
   26.3550   27.8440   19.0610 C   0  0  0  0  0  0  0  0  0  0  0  0
   25.7220   27.9030   20.2860 C   0  0  0  0  0  0  0  0  0  0  0  0
   27.4960   27.1950   19.2740 N   0  0  0  0  0  0  0  0  0  0  0  0
   26.4900   27.2930   21.2000 N   0  0  0  0  0  0  0  0  0  0  0  0
   27.5690   26.8710   20.5490 N   0  0  0  0  0  0  0  0  0  0  0  0
   26.2790   27.0880   22.6080 C   0  0  0  0  0  0  0  0  0  0  0  0
   27.5240   27.3870   23.4240 C   0  0  0  0  0  0  0  0  0  0  0  0
   28.4270   26.2680   23.2610 N   0  0  0  0  0  0  0  0  0  0  0  0
   28.2340   25.7320   22.4030 H   0  0  0  0  0  0  0  0  0  0  0  0
   30.0770   26.7510   23.3040 S   0  0  0  0  0  0  0  0  0  0  0  0
   30.7340   26.0020   24.4340 O   0  0  0  0  0  0  0  0  0  0  0  0
   30.7210   26.4500   21.9890 O   0  0  0  0  0  0  0  0  0  0  0  0
   30.2180   28.4910   23.6450 C   0  0  0  0  0  0  0  0  0  0  0  0
   29.8670   25.5550   16.9770 C   0  0  0  0  0  0  0  0  0  0  0  0
   28.3450   25.7220   17.0260 C   0  0  0  0  0  0  0  0  0  0  0  0
   27.6010   24.4020   16.8890 C   0  0  0  0  0  0  0  0  0  0  0  0
   26.6220   24.1850   18.0100 C   0  0  0  0  0  0  0  0  0  0  0  0
   25.2050   24.1510   17.4480 C   0  0  0  0  0  0  0  0  0  0  0  0
   24.7170   22.7550   17.3550 N   0  0  0  0  0  0  0  0  0  0  0  0
  1  2  1  0  0  0  0
  2 31  1  0  0  0  0
  2  3  2  0  0  0  0
  4  1  1  0  0  0  0
  5  1  1  0  0  0  0
  6  5  1  6  0  0  0
  6  7  1  0  0  0  0
  7 27  1  6  0  0  0
  8  7  1  6  0  0  0
  8 11  1  0  0  0  0
  8 13  1  0  0  0  0
  9 14  1  6  0  0  0
  9 16  1  0  0  0  0
  9 10  1  0  0  0  0
 11  9  1  0  0  0  0
 12 20  1  6  0  0  0
 12 10  1  0  0  0  0
 13 22  1  1  0  0  0
 13 12  1  0  0  0  0
 15 14  1  0  0  0  0
 16 18  1  0  0  0  0
 17 16  2  0  0  0  0
 18 19  1  0  0  0  0
 21 20  1  0  0  0  0
 22 24  1  0  0  0  0
 23 22  1  0  0  0  0
 23 25  1  0  0  0  0
 26 23  2  0  0  0  0
 27 28  1  0  0  0  0
 29 30  1  0  0  0  0
 29  6  1  0  0  0  0
 31 32  1  0  0  0  0
 32 33  1  0  0  0  0
 33 35  1  0  0  0  0
 33 34  2  0  0  0  0
 34 36  1  0  0  0  0
 35 37  2  0  0  0  0
 36 38  1  0  0  0  0
 37 36  1  0  0  0  0
 38 39  1  0  0  0  0
 40 42  1  0  0  0  0
 40 39  1  0  0  0  0
 41 40  1  0  0  0  0
 42 45  1  0  0  0  0
 42 43  2  0  0  0  0
 44 42  2  0  0  0  0
 46 47  1  0  0  0  0
 48 47  1  0  0  0  0
 48 49  1  0  0  0  0
 50 49  1  0  0  0  0
 51 50  1  0  0  0  0
M  END
>  <REMARK>
 VINA RESULT:    -4.385      2.287      3.248
 INTER + INTRA:         -14.635
 INTER:                  -7.226
 INTRA:                  -7.410
 UNBOUND:                -6.277
 SMILES CC(=O)N[C@@H]1[C@@H](O)C[C@](O)(C(=O)O)O[C@H]1C(O)[C@H](O)CNC(=O)OCc1cn(CCNS(C)(=O)=O)nn1
 SMILES IDX 21 1 22 2 23 3 20 5 18 6 16 7 15 8 9 9 8 10 14 11 6 12 5 13
 SMILES IDX 10 14 11 16 12 17 13 18 7 20 4 22 2 23 1 25 3 26 17 27 19 29
 SMILES IDX 24 31 25 32 26 33 27 34 37 35 28 36 36 37 29 38 30 39 31 40
 SMILES IDX 32 42 34 43 35 44 33 45
 H PARENT 21 4 10 15 13 19 7 21 4 24 17 28 19 30 31 41
 Flexibility Score: inf
  4 active torsions:
  status: ('A' for Active; 'I' for Inactive)
    1  A    between atoms: CA   and  CB  
    2  A    between atoms: CB   and  CG  
    3  A    between atoms: CG   and  CD  
    4  A    between atoms: CD   and  CE  

>  <TORSDO>
F 18

>  <BEGIN_>
RES LYS A 131

$$$$
ligand_55_pose_8_2HRL.pdbqt
 OpenBabel07062320523D

  6  5  0  0  0  0  0  0  0  0999 V2000
   33.1930   34.6630    9.2900 C   0  0  0  0  0  0  0  0  0  0  0  0
   32.0600   35.3600   10.0340 C   0  0  0  0  0  0  0  0  0  0  0  0
   30.7130   34.7200    9.8160 C   0  0  0  0  0  0  0  0  0  0  0  0
   30.4270   34.5640    8.3310 C   0  0  0  0  0  0  0  0  0  0  0  0
   28.9600   34.8200    8.0410 C   0  0  0  0  0  0  0  0  0  0  0  0
   28.0890   34.1120    9.0190 N   0  0  0  0  0  0  0  0  0  0  0  0
  1  2  1  0  0  0  0
  3  2  1  0  0  0  0
  4  3  1  0  0  0  0
  5  4  1  0  0  0  0
  5  6  1  0  0  0  0
M  END
>  <EGIN_R>
ES LYS A 135

>  <REMARK>
  4 active torsions:
  status: ('A' for Active; 'I' for Inactive)
    5  A    between atoms: CA   and  CB  
    6  A    between atoms: CB   and  CG  
    7  A    between atoms: CG   and  CD  
    8  A    between atoms: CD   and  CE  

$$$$
