ligand_77_pose_7_2HRL.pdbqt
 OpenBabel07062320523D

 61 63  0  0  1  0  0  0  0  0999 V2000
   31.4830   33.3600   16.9290 N   0  0  0  0  0  0  0  0  0  0  0  0
   31.5770   34.7630   16.7710 C   0  0  0  0  0  0  0  0  0  0  0  0
   31.0190   35.5160   17.5760 O   0  0  0  0  0  0  0  0  0  0  0  0
   31.9990   32.7890   16.1890 H   0  0  0  0  0  0  0  0  0  0  0  0
   30.7640   32.6860   17.9850 C   0  0  0  0  0  0  0  0  0  0  0  0
   29.3950   32.3430   17.5080 C   0  0  2  0  0  0  0  0  0  0  0  0
   29.3490   31.0450   16.7290 C   0  0  1  0  0  0  0  0  0  0  0  0
   27.9910   30.6540   16.2540 C   0  0  2  0  0  0  0  0  0  0  0  0
   26.0160   31.6910   15.6300 C   0  0  2  0  0  0  0  0  0  0  0  0
   25.3240   30.3650   15.6910 C   0  0  0  0  0  0  0  0  0  0  0  0
   27.3840   31.5920   15.4510 O   0  0  0  0  0  0  0  0  0  0  0  0
   25.9710   29.3670   16.5830 C   0  0  1  0  0  0  0  0  0  0  0  0
   27.1070   30.0820   17.3350 C   0  0  1  0  0  0  0  0  0  0  0  0
   25.6950   32.4920   16.7500 O   0  0  0  0  0  0  0  0  0  0  0  0
   25.6950   33.4230   16.4720 H   0  0  0  0  0  0  0  0  0  0  0  0
   25.4750   32.4250   14.4480 C   0  0  0  0  0  0  0  0  0  0  0  0
   24.6140   31.8450   13.7160 O   0  0  0  0  0  0  0  0  0  0  0  0
   25.8490   33.6970   14.0960 O   0  0  0  0  0  0  0  0  0  0  0  0
   25.1590   34.3620   13.7530 H   0  0  0  0  0  0  0  0  0  0  0  0
   25.0970   28.7650   17.4750 O   0  0  0  0  0  0  0  0  0  0  0  0
   24.4140   29.4430   17.7780 H   0  0  0  0  0  0  0  0  0  0  0  0
   27.8810   29.0760   18.0520 N   0  0  0  0  0  0  0  0  0  0  0  0
   27.6230   28.8250   19.4220 C   0  0  0  0  0  0  0  0  0  0  0  0
   28.6330   28.5200   17.5920 H   0  0  0  0  0  0  0  0  0  0  0  0
   28.4070   27.7950   20.1920 C   0  0  0  0  0  0  0  0  0  0  0  0
   26.7440   29.4350   20.0670 O   0  0  0  0  0  0  0  0  0  0  0  0
   30.2520   31.2090   15.6710 O   0  0  0  0  0  0  0  0  0  0  0  0
   29.7840   31.6740   14.9460 H   0  0  0  0  0  0  0  0  0  0  0  0
   28.8190   33.4070   16.8290 O   0  0  0  0  0  0  0  0  0  0  0  0
   28.5850   33.1070   15.9150 H   0  0  0  0  0  0  0  0  0  0  0  0
   32.2820   35.3590   15.7300 O   0  0  0  0  0  0  0  0  0  0  0  0
   32.2670   34.8310   14.4120 C   0  0  0  0  0  0  0  0  0  0  0  0
   30.8770   34.6400   13.9080 C   0  0  0  0  0  0  0  0  0  0  0  0
   30.2960   35.4160   12.9420 C   0  0  0  0  0  0  0  0  0  0  0  0
   29.9720   33.7230   14.2790 N   0  0  0  0  0  0  0  0  0  0  0  0
   29.0400   34.9520   12.7430 N   0  0  0  0  0  0  0  0  0  0  0  0
   28.8910   33.9460   13.5590 N   0  0  0  0  0  0  0  0  0  0  0  0
   28.1400   35.5210   11.8060 C   0  0  0  0  0  0  0  0  0  0  0  0
   27.5440   34.7290   10.8480 C   0  0  0  0  0  0  0  0  0  0  0  0
   27.8230   36.8610   11.8060 C   0  0  0  0  0  0  0  0  0  0  0  0
   26.6590   35.2420    9.9150 C   0  0  0  0  0  0  0  0  0  0  0  0
   26.9300   37.3900   10.8680 C   0  0  0  0  0  0  0  0  0  0  0  0
   26.3500   36.5800    9.9230 C   0  0  0  0  0  0  0  0  0  0  0  0
   25.2450   37.2200    8.7580 S   0  0  0  0  0  0  0  0  0  0  0  0
   25.7200   36.9070    7.3800 O   0  0  0  0  0  0  0  0  0  0  0  0
   25.0900   38.7080    8.8660 O   0  0  0  0  0  0  0  0  0  0  0  0
   23.6670   36.5040    9.0690 C   0  0  0  0  0  0  0  0  0  0  0  0
   22.7210   36.5360    8.0790 C   0  0  0  0  0  0  0  0  0  0  0  0
   23.3660   35.9090   10.2900 C   0  0  0  0  0  0  0  0  0  0  0  0
   21.4620   35.9820    8.2800 C   0  0  0  0  0  0  0  0  0  0  0  0
   22.1210   35.3480   10.5250 C   0  0  0  0  0  0  0  0  0  0  0  0
   21.1990   35.4010    9.5060 C   0  0  0  0  0  0  0  0  0  0  0  0
   19.9230   34.8350    9.7240 N   0  0  0  0  0  0  0  0  0  0  0  0
   19.8280   33.8340    9.9610 H   0  0  0  0  0  0  0  0  0  0  0  0
   19.0810   35.4320    9.6430 H   0  0  0  0  0  0  0  0  0  0  0  0
   29.8670   25.5550   16.9770 C   0  0  0  0  0  0  0  0  0  0  0  0
   28.3450   25.7220   17.0260 C   0  0  0  0  0  0  0  0  0  0  0  0
   27.6010   24.4010   16.9000 C   0  0  0  0  0  0  0  0  0  0  0  0
   26.1430   24.5380   17.2410 C   0  0  0  0  0  0  0  0  0  0  0  0
   25.9660   25.6270   18.2940 C   0  0  0  0  0  0  0  0  0  0  0  0
   25.6490   25.0270   19.6120 N   0  0  0  0  0  0  0  0  0  0  0  0
  1  5  1  0  0  0  0
  2  1  1  0  0  0  0
  2  3  2  0  0  0  0
  4  1  1  0  0  0  0
  6  5  1  6  0  0  0
  7 27  1  6  0  0  0
  7  6  1  0  0  0  0
  8  7  1  1  0  0  0
  8 13  1  0  0  0  0
  9 16  1  6  0  0  0
  9 10  1  0  0  0  0
  9 14  1  0  0  0  0
 10 12  1  0  0  0  0
 11  9  1  0  0  0  0
 11  8  1  0  0  0  0
 12 13  1  0  0  0  0
 12 20  1  1  0  0  0
 13 22  1  6  0  0  0
 15 14  1  0  0  0  0
 17 16  2  0  0  0  0
 18 16  1  0  0  0  0
 19 18  1  0  0  0  0
 20 21  1  0  0  0  0
 22 23  1  0  0  0  0
 23 26  2  0  0  0  0
 23 25  1  0  0  0  0
 24 22  1  0  0  0  0
 28 27  1  0  0  0  0
 29  6  1  0  0  0  0
 30 29  1  0  0  0  0
 31  2  1  0  0  0  0
 32 31  1  0  0  0  0
 33 35  1  0  0  0  0
 33 32  1  0  0  0  0
 34 33  2  0  0  0  0
 36 34  1  0  0  0  0
 36 37  1  0  0  0  0
 37 35  2  0  0  0  0
 38 36  1  0  0  0  0
 39 38  2  0  0  0  0
 40 38  1  0  0  0  0
 41 43  2  0  0  0  0
 41 39  1  0  0  0  0
 42 40  2  0  0  0  0
 43 42  1  0  0  0  0
 44 46  2  0  0  0  0
 44 47  1  0  0  0  0
 44 43  1  0  0  0  0
 45 44  2  0  0  0  0
 47 49  2  0  0  0  0
 48 50  2  0  0  0  0
 48 47  1  0  0  0  0
 49 51  1  0  0  0  0
 50 52  1  0  0  0  0
 52 53  1  0  0  0  0
 52 51  2  0  0  0  0
 53 54  1  0  0  0  0
 55 53  1  0  0  0  0
 56 57  1  0  0  0  0
 58 57  1  0  0  0  0
 58 59  1  0  0  0  0
 59 60  1  0  0  0  0
 60 61  1  0  0  0  0
M  END
>  <REMARK>
 VINA RESULT:    -5.245      4.561      9.267
 INTER + INTRA:         -16.371
 INTER:                 -10.285
 INTRA:                  -6.086
 UNBOUND:                -6.527
 SMILES CC(=O)N[C@@H]1[C@@H](O)C[C@](O)(C(=O)O)O[C@H]1C(O)[C@H](O)CNC(=O)OCc1cn(-c2ccc(S(=O)(=O)c3ccc(N)cc3)cc2)nn1
 SMILES IDX 21 1 22 2 23 3 20 5 18 6 16 7 15 8 9 9 8 10 14 11 6 12 5 13
 SMILES IDX 10 14 11 16 12 17 13 18 7 20 4 22 2 23 1 25 3 26 17 27 19 29
 SMILES IDX 24 31 25 32 26 33 27 34 46 35 28 36 45 37 29 38 30 39 44 40
 SMILES IDX 31 41 43 42 32 43 33 44 34 45 35 46 36 47 37 48 42 49 38 50
 SMILES IDX 41 51 39 52 40 53
 H PARENT 21 4 10 15 13 19 7 21 4 24 17 28 19 30 40 54 40 55
 Flexibility Score: inf
  4 active torsions:
  status: ('A' for Active; 'I' for Inactive)
    1  A    between atoms: CA   and  CB  
    2  A    between atoms: CB   and  CG  
    3  A    between atoms: CG   and  CD  
    4  A    between atoms: CD   and  CE  

>  <TORSDO>
F 18

>  <BEGIN_>
RES LYS A 131

$$$$
ligand_77_pose_7_2HRL.pdbqt
 OpenBabel07062320523D

  6  5  0  0  0  0  0  0  0  0999 V2000
   33.1930   34.6630    9.2900 C   0  0  0  0  0  0  0  0  0  0  0  0
   32.0600   35.3600   10.0340 C   0  0  0  0  0  0  0  0  0  0  0  0
   30.7490   35.3390    9.2910 C   0  0  0  0  0  0  0  0  0  0  0  0
   30.3080   36.7520    8.9410 C   0  0  0  0  0  0  0  0  0  0  0  0
   29.2770   36.7280    7.8290 C   0  0  0  0  0  0  0  0  0  0  0  0
   29.1430   35.3620    7.2510 N   0  0  0  0  0  0  0  0  0  0  0  0
  1  2  1  0  0  0  0
  3  2  1  0  0  0  0
  4  3  1  0  0  0  0
  5  4  1  0  0  0  0
  6  5  1  0  0  0  0
M  END
>  <EGIN_R>
ES LYS A 135

>  <REMARK>
  4 active torsions:
  status: ('A' for Active; 'I' for Inactive)
    5  A    between atoms: CA   and  CB  
    6  A    between atoms: CB   and  CG  
    7  A    between atoms: CG   and  CD  
    8  A    between atoms: CD   and  CE  

$$$$
