ligand_7_pose_8_2HRL.pdbqt
 OpenBabel07062320523D

 52 53  0  0  1  0  0  0  0  0999 V2000
   29.0460   33.7720   15.1660 C   0  0  0  0  0  0  0  0  0  0  0  0
   29.6460   32.4170   15.0700 C   0  0  2  0  0  0  0  0  0  0  0  0
   29.5330   31.5720   16.2980 C   0  0  1  0  0  0  0  0  0  0  0  0
   28.3020   30.7560   16.4200 C   0  0  2  0  0  0  0  0  0  0  0  0
   26.0000   31.1150   16.2180 C   0  0  2  0  0  0  0  0  0  0  0  0
   25.7140   29.8060   16.8960 C   0  0  0  0  0  0  0  0  0  0  0  0
   27.2510   31.2320   15.6920 O   0  0  0  0  0  0  0  0  0  0  0  0
   26.8690   29.2580   17.6610 C   0  0  1  0  0  0  0  0  0  0  0  0
   27.9190   30.3730   17.8170 C   0  0  1  0  0  0  0  0  0  0  0  0
   25.7530   32.1330   17.1360 O   0  0  0  0  0  0  0  0  0  0  0  0
   25.2470   31.7330   17.9000 H   0  0  0  0  0  0  0  0  0  0  0  0
   25.0240   31.2430   15.1030 C   0  0  0  0  0  0  0  0  0  0  0  0
   25.0480   30.4450   14.1450 O   0  0  0  0  0  0  0  0  0  0  0  0
   24.0600   32.2600   15.1070 O   0  0  0  0  0  0  0  0  0  0  0  0
   23.3760   32.2830   15.8770 H   0  0  0  0  0  0  0  0  0  0  0  0
   26.5380   28.6920   18.8760 O   0  0  0  0  0  0  0  0  0  0  0  0
   26.7380   29.3740   19.5850 H   0  0  0  0  0  0  0  0  0  0  0  0
   29.0080   29.7600   18.5320 N   0  0  0  0  0  0  0  0  0  0  0  0
   29.4860   30.3950   19.7080 C   0  0  0  0  0  0  0  0  0  0  0  0
   29.4580   28.8650   18.2170 H   0  0  0  0  0  0  0  0  0  0  0  0
   30.6070   29.8450   20.5150 C   0  0  0  0  0  0  0  0  0  0  0  0
   28.9660   31.4660   20.1100 O   0  0  0  0  0  0  0  0  0  0  0  0
   30.6500   30.7420   16.3500 O   0  0  0  0  0  0  0  0  0  0  0  0
   30.3680   29.8820   16.7500 H   0  0  0  0  0  0  0  0  0  0  0  0
   30.9510   32.4720   14.5750 O   0  0  0  0  0  0  0  0  0  0  0  0
   31.6130   32.6320   15.2920 H   0  0  0  0  0  0  0  0  0  0  0  0
   27.8740   33.9360   14.3300 N   0  0  0  0  0  0  0  0  0  0  0  0
   26.6500   34.4850   14.8060 C   0  0  0  0  0  0  0  0  0  0  0  0
   27.8630   33.6520   13.3050 H   0  0  0  0  0  0  0  0  0  0  0  0
   26.5460   34.8530   15.9910 O   0  0  0  0  0  0  0  0  0  0  0  0
   25.5460   34.6250   13.9610 O   0  0  0  0  0  0  0  0  0  0  0  0
   25.1340   35.9430   13.5650 C   0  0  0  0  0  0  0  0  0  0  0  0
   25.0500   35.9760   12.0830 C   0  0  0  0  0  0  0  0  0  0  0  0
   26.0800   36.3290   11.2270 C   0  0  0  0  0  0  0  0  0  0  0  0
   24.0160   35.6870   11.3050 N   0  0  0  0  0  0  0  0  0  0  0  0
   25.6530   36.2470    9.9640 N   0  0  0  0  0  0  0  0  0  0  0  0
   24.3740   35.8460   10.0630 N   0  0  0  0  0  0  0  0  0  0  0  0
   26.3390   36.5070    8.7470 C   0  0  0  0  0  0  0  0  0  0  0  0
   27.0200   35.4970    8.1040 C   0  0  0  0  0  0  0  0  0  0  0  0
   26.3510   37.7660    8.1680 C   0  0  0  0  0  0  0  0  0  0  0  0
   27.0220   34.1430    8.7000 C   0  0  0  0  0  0  0  0  0  0  0  0
   27.6950   35.7580    6.9040 C   0  0  0  0  0  0  0  0  0  0  0  0
   27.0200   38.0130    6.9850 C   0  0  0  0  0  0  0  0  0  0  0  0
   25.6010   38.8580    8.8860 C   0  0  0  0  0  0  0  0  0  0  0  0
   27.7040   37.0120    6.3310 C   0  0  0  0  0  0  0  0  0  0  0  0
   28.4320   37.2630    5.0510 C   0  0  0  0  0  0  0  0  0  0  0  0
   29.8670   25.5550   16.9770 C   0  0  0  0  0  0  0  0  0  0  0  0
   28.3450   25.7220   17.0260 C   0  0  0  0  0  0  0  0  0  0  0  0
   27.6040   24.3940   16.9940 C   0  0  0  0  0  0  0  0  0  0  0  0
   26.1260   24.5650   17.2150 C   0  0  0  0  0  0  0  0  0  0  0  0
   25.7720   24.1400   18.6360 C   0  0  0  0  0  0  0  0  0  0  0  0
   25.8280   25.3020   19.5550 N   0  0  0  0  0  0  0  0  0  0  0  0
  2  1  1  1  0  0  0
  2  3  1  0  0  0  0
  3 23  1  6  0  0  0
  4  3  1  1  0  0  0
  4  9  1  0  0  0  0
  5 12  1  6  0  0  0
  5  6  1  0  0  0  0
  5 10  1  0  0  0  0
  6  8  1  0  0  0  0
  7  5  1  0  0  0  0
  7  4  1  0  0  0  0
  8  9  1  0  0  0  0
  8 16  1  1  0  0  0
  9 18  1  1  0  0  0
 10 11  1  0  0  0  0
 12 14  1  0  0  0  0
 13 12  2  0  0  0  0
 14 15  1  0  0  0  0
 16 17  1  0  0  0  0
 18 19  1  0  0  0  0
 19 22  2  0  0  0  0
 19 21  1  0  0  0  0
 20 18  1  0  0  0  0
 23 24  1  0  0  0  0
 25  2  1  0  0  0  0
 25 26  1  0  0  0  0
 27 28  1  0  0  0  0
 27  1  1  0  0  0  0
 28 30  2  0  0  0  0
 29 27  1  0  0  0  0
 31 28  1  0  0  0  0
 32 31  1  0  0  0  0
 33 32  1  0  0  0  0
 34 33  2  0  0  0  0
 35 33  1  0  0  0  0
 36 37  1  0  0  0  0
 36 34  1  0  0  0  0
 37 35  2  0  0  0  0
 38 36  1  0  0  0  0
 39 41  1  0  0  0  0
 39 38  2  0  0  0  0
 40 38  1  0  0  0  0
 40 44  1  0  0  0  0
 42 39  1  0  0  0  0
 43 40  2  0  0  0  0
 45 42  2  0  0  0  0
 45 43  1  0  0  0  0
 46 45  1  0  0  0  0
 47 48  1  0  0  0  0
 49 48  1  0  0  0  0
 49 50  1  0  0  0  0
 50 51  1  0  0  0  0
 51 52  1  0  0  0  0
M  END
>  <REMARK>
 VINA RESULT:    -4.729      3.491      6.983
 INTER + INTRA:         -14.102
 INTER:                  -9.894
 INTRA:                  -4.208
 UNBOUND:                -5.917
 SMILES CC(=O)N[C@@H]1[C@@H](O)C[C@](O)(C(=O)O)O[C@H]1C(O)[C@H](O)CNC(=O)OCc1cn(-c2c(C)cc(C)cc2C)nn1
 SMILES IDX 20 1 18 2 16 3 15 4 9 5 8 6 14 7 6 8 5 9 10 10 11 12 12 13
 SMILES IDX 13 14 7 16 4 18 2 19 1 21 3 22 17 23 19 25 21 27 22 28 23 30
 SMILES IDX 24 31 25 32 26 33 27 34 39 35 28 36 38 37 29 38 30 39 36 40
 SMILES IDX 31 41 32 42 35 43 37 44 33 45 34 46
 H PARENT 10 11 13 15 7 17 4 20 17 24 19 26 21 29
 Flexibility Score: inf
  4 active torsions:
  status: ('A' for Active; 'I' for Inactive)
    1  A    between atoms: CA   and  CB  
    2  A    between atoms: CB   and  CG  
    3  A    between atoms: CG   and  CD  
    4  A    between atoms: CD   and  CE  

>  <TORSDO>
F 15

>  <BEGIN_>
RES LYS A 131

$$$$
ligand_7_pose_8_2HRL.pdbqt
 OpenBabel07062320523D

  6  5  0  0  0  0  0  0  0  0999 V2000
   33.1930   34.6630    9.2900 C   0  0  0  0  0  0  0  0  0  0  0  0
   32.0600   35.3600   10.0340 C   0  0  0  0  0  0  0  0  0  0  0  0
   30.7740   35.4240    9.2500 C   0  0  0  0  0  0  0  0  0  0  0  0
   30.0040   36.6920    9.5870 C   0  0  0  0  0  0  0  0  0  0  0  0
   30.4650   37.8430    8.7140 C   0  0  0  0  0  0  0  0  0  0  0  0
   29.7260   39.0940    9.0410 N   0  0  0  0  0  0  0  0  0  0  0  0
  1  2  1  0  0  0  0
  3  4  1  0  0  0  0
  3  2  1  0  0  0  0
  5  6  1  0  0  0  0
  5  4  1  0  0  0  0
M  END
>  <EGIN_R>
ES LYS A 135

>  <REMARK>
  4 active torsions:
  status: ('A' for Active; 'I' for Inactive)
    5  A    between atoms: CA   and  CB  
    6  A    between atoms: CB   and  CG  
    7  A    between atoms: CG   and  CD  
    8  A    between atoms: CD   and  CE  

$$$$
