ligand_75_pose_1_2HRL.pdbqt
 OpenBabel07062320523D

 55 56  0  0  1  0  0  0  0  0999 V2000
   17.0480   32.8710    8.6370 N   0  0  0  0  0  0  0  0  0  0  0  0
   16.9030   31.4650    8.6290 C   0  0  0  0  0  0  0  0  0  0  0  0
   17.2490   30.7570    7.6610 O   0  0  0  0  0  0  0  0  0  0  0  0
   16.7010   33.3680    9.5290 H   0  0  0  0  0  0  0  0  0  0  0  0
   17.6050   33.6730    7.5860 C   0  0  0  0  0  0  0  0  0  0  0  0
   18.9730   34.1570    7.9430 C   0  0  2  0  0  0  0  0  0  0  0  0
   19.0470   34.8650    9.2830 C   0  0  2  0  0  0  0  0  0  0  0  0
   19.8000   36.1400    9.1710 C   0  0  2  0  0  0  0  0  0  0  0  0
   21.7980   37.2650    8.9030 C   0  0  2  0  0  0  0  0  0  0  0  0
   20.8820   38.4570    8.8710 C   0  0  0  0  0  0  0  0  0  0  0  0
   21.1280   36.0580    8.8940 O   0  0  0  0  0  0  0  0  0  0  0  0
   19.8030   38.4590    9.8910 C   0  0  1  0  0  0  0  0  0  0  0  0
   19.5630   37.0500   10.3750 C   0  0  1  0  0  0  0  0  0  0  0  0
   22.6800   37.3900    9.9750 O   0  0  0  0  0  0  0  0  0  0  0  0
   23.6120   37.5010    9.6860 H   0  0  0  0  0  0  0  0  0  0  0  0
   22.6190   37.3130    7.6600 C   0  0  0  0  0  0  0  0  0  0  0  0
   23.7460   37.9140    7.6800 O   0  0  0  0  0  0  0  0  0  0  0  0
   22.2030   36.7270    6.4730 O   0  0  0  0  0  0  0  0  0  0  0  0
   21.5800   35.9450    6.4420 H   0  0  0  0  0  0  0  0  0  0  0  0
   20.0370   39.3350   10.9470 O   0  0  0  0  0  0  0  0  0  0  0  0
   19.4960   40.1340   10.8370 H   0  0  0  0  0  0  0  0  0  0  0  0
   18.2680   36.8740   10.9560 N   0  0  0  0  0  0  0  0  0  0  0  0
   18.0770   36.2960   12.2380 C   0  0  0  0  0  0  0  0  0  0  0  0
   17.3860   37.1740   10.4430 H   0  0  0  0  0  0  0  0  0  0  0  0
   16.7220   36.1360   12.7970 C   0  0  0  0  0  0  0  0  0  0  0  0
   19.0590   35.9110   12.9200 O   0  0  0  0  0  0  0  0  0  0  0  0
   19.4720   34.0190   10.3020 O   0  0  0  0  0  0  0  0  0  0  0  0
   18.8070   33.3030   10.3960 H   0  0  0  0  0  0  0  0  0  0  0  0
   19.4970   35.0050    6.9650 O   0  0  0  0  0  0  0  0  0  0  0  0
   20.4090   34.6820    6.7240 H   0  0  0  0  0  0  0  0  0  0  0  0
   16.3490   30.7880    9.7360 O   0  0  0  0  0  0  0  0  0  0  0  0
   16.7860   31.1180   11.0160 C   0  0  0  0  0  0  0  0  0  0  0  0
   18.0460   30.4310   11.3910 C   0  0  0  0  0  0  0  0  0  0  0  0
   19.2750   30.9470   11.7270 C   0  0  0  0  0  0  0  0  0  0  0  0
   18.1910   29.0980   11.4650 N   0  0  0  0  0  0  0  0  0  0  0  0
   20.1340   29.9330   11.9960 N   0  0  0  0  0  0  0  0  0  0  0  0
   19.4440   28.8200   11.8280 N   0  0  0  0  0  0  0  0  0  0  0  0
   21.5010   30.0920   12.3800 C   0  0  0  0  0  0  0  0  0  0  0  0
   22.0120   31.3220   12.6990 C   0  0  0  0  0  0  0  0  0  0  0  0
   22.3360   29.0000   12.4340 C   0  0  0  0  0  0  0  0  0  0  0  0
   23.3720   31.4900   13.0810 C   0  0  0  0  0  0  0  0  0  0  0  0
   23.6480   29.0930   12.7920 C   0  0  0  0  0  0  0  0  0  0  0  0
   24.1520   30.3640   13.1170 C   0  0  0  0  0  0  0  0  0  0  0  0
   23.8310   32.7860   13.4410 C   0  0  0  0  0  0  0  0  0  0  0  0
   23.8830   33.9620   12.9500 C   0  0  0  0  0  0  0  0  0  0  0  0
   23.4850   34.5790   11.7480 C   0  0  0  0  0  0  0  0  0  0  0  0
   24.3540   35.3910   11.1480 O   0  0  0  0  0  0  0  0  0  0  0  0
   22.3230   34.5200   11.0210 O   0  0  0  0  0  0  0  0  0  0  0  0
   21.8810   33.6580   10.7450 H   0  0  0  0  0  0  0  0  0  0  0  0
   29.8670   25.5550   16.9770 C   0  0  0  0  0  0  0  0  0  0  0  0
   28.3450   25.7220   17.0260 C   0  0  0  0  0  0  0  0  0  0  0  0
   27.6010   24.4030   16.8840 C   0  0  0  0  0  0  0  0  0  0  0  0
   26.5390   24.2360   17.9340 C   0  0  0  0  0  0  0  0  0  0  0  0
   25.1610   24.3460   17.2880 C   0  0  0  0  0  0  0  0  0  0  0  0
   24.4160   23.0730   17.4350 N   0  0  0  0  0  0  0  0  0  0  0  0
  1  4  1  0  0  0  0
  2  1  1  0  0  0  0
  2 31  1  0  0  0  0
  3  2  2  0  0  0  0
  5  1  1  0  0  0  0
  6  5  1  6  0  0  0
  6  7  1  0  0  0  0
  7 27  1  1  0  0  0
  8  7  1  1  0  0  0
  8 13  1  0  0  0  0
  9 16  1  6  0  0  0
  9 14  1  0  0  0  0
 10  9  1  0  0  0  0
 10 12  1  0  0  0  0
 11  9  1  0  0  0  0
 11  8  1  0  0  0  0
 12 13  1  0  0  0  0
 12 20  1  1  0  0  0
 13 22  1  6  0  0  0
 15 14  1  0  0  0  0
 16 17  2  0  0  0  0
 18 16  1  0  0  0  0
 19 18  1  0  0  0  0
 21 20  1  0  0  0  0
 22 23  1  0  0  0  0
 23 25  1  0  0  0  0
 23 26  2  0  0  0  0
 24 22  1  0  0  0  0
 27 28  1  0  0  0  0
 29  6  1  0  0  0  0
 30 29  1  0  0  0  0
 31 32  1  0  0  0  0
 32 33  1  0  0  0  0
 33 35  1  0  0  0  0
 33 34  2  0  0  0  0
 34 36  1  0  0  0  0
 35 37  2  0  0  0  0
 36 38  1  0  0  0  0
 37 36  1  0  0  0  0
 38 40  2  0  0  0  0
 38 39  1  0  0  0  0
 39 41  2  0  0  0  0
 40 42  1  0  0  0  0
 41 43  1  0  0  0  0
 41 44  1  0  0  0  0
 42 43  2  0  0  0  0
 45 44  2  0  0  0  0
 46 45  1  0  0  0  0
 47 46  2  0  0  0  0
 48 46  1  0  0  0  0
 49 48  1  0  0  0  0
 50 51  1  0  0  0  0
 52 51  1  0  0  0  0
 52 53  1  0  0  0  0
 54 55  1  0  0  0  0
 54 53  1  0  0  0  0
M  END
>  <REMARK>
 VINA RESULT:    -5.473      4.606      7.619
 INTER + INTRA:         -16.590
 INTER:                  -9.442
 INTRA:                  -7.148
 UNBOUND:                -6.317
 SMILES CC(=O)N[C@@H]1[C@@H](O)C[C@](O)(C(=O)O)O[C@H]1C(O)[C@H](O)CNC(=O)OCc1cn(-c2cccc(C=CC(=O)O)c2)nn1
 SMILES IDX 21 1 22 2 23 3 20 5 18 6 16 7 15 8 9 9 8 10 14 11 6 12 5 13
 SMILES IDX 10 14 11 16 12 17 13 18 7 20 4 22 2 23 1 25 3 26 17 27 19 29
 SMILES IDX 24 31 25 32 26 33 27 34 41 35 28 36 40 37 29 38 39 39 30 40
 SMILES IDX 33 41 31 42 32 43 34 44 35 45 36 46 37 47 38 48
 H PARENT 21 4 10 15 13 19 7 21 4 24 17 28 19 30 38 49
 Flexibility Score: inf
  4 active torsions:
  status: ('A' for Active; 'I' for Inactive)
    1  A    between atoms: CA   and  CB  
    2  A    between atoms: CB   and  CG  
    3  A    between atoms: CG   and  CD  
    4  A    between atoms: CD   and  CE  

>  <TORSDO>
F 18

>  <BEGIN_>
RES LYS A 131

$$$$
ligand_75_pose_1_2HRL.pdbqt
 OpenBabel07062320523D

  6  5  0  0  0  0  0  0  0  0999 V2000
   33.1930   34.6630    9.2900 C   0  0  0  0  0  0  0  0  0  0  0  0
   32.0600   35.3600   10.0340 C   0  0  0  0  0  0  0  0  0  0  0  0
   30.8430   35.6100    9.1810 C   0  0  0  0  0  0  0  0  0  0  0  0
   30.2550   34.2980    8.6880 C   0  0  0  0  0  0  0  0  0  0  0  0
   28.8600   34.0950    9.2480 C   0  0  0  0  0  0  0  0  0  0  0  0
   27.8240   34.5980    8.3030 N   0  0  0  0  0  0  0  0  0  0  0  0
  1  2  1  0  0  0  0
  3  2  1  0  0  0  0
  4  3  1  0  0  0  0
  4  5  1  0  0  0  0
  6  5  1  0  0  0  0
M  END
>  <EGIN_R>
ES LYS A 135

>  <REMARK>
  4 active torsions:
  status: ('A' for Active; 'I' for Inactive)
    5  A    between atoms: CA   and  CB  
    6  A    between atoms: CB   and  CG  
    7  A    between atoms: CG   and  CD  
    8  A    between atoms: CD   and  CE  

$$$$
