ligand_58_pose_2_2HRL.pdbqt
 OpenBabel07062320523D

 56 58  0  0  1  0  0  0  0  0999 V2000
   30.5920   37.8110   13.1200 N   0  0  0  0  0  0  0  0  0  0  0  0
   30.4750   39.0270   12.4120 C   0  0  0  0  0  0  0  0  0  0  0  0
   31.4170   39.4280   11.6880 O   0  0  0  0  0  0  0  0  0  0  0  0
   29.7940   37.5080   13.7140 H   0  0  0  0  0  0  0  0  0  0  0  0
   31.7680   37.0040   13.0350 C   0  0  0  0  0  0  0  0  0  0  0  0
   31.3570   35.5320   13.0640 C   0  0  2  0  0  0  0  0  0  0  0  0
   31.3850   35.1300   14.5300 C   0  0  2  0  0  0  0  0  0  0  0  0
   30.0350   34.8720   15.1380 C   0  0  2  0  0  0  0  0  0  0  0  0
   30.6710   33.8660   17.1700 C   0  0  2  0  0  0  0  0  0  0  0  0
   30.1740   32.5200   16.6930 C   0  0  0  0  0  0  0  0  0  0  0  0
   30.1910   34.9450   16.5080 O   0  0  0  0  0  0  0  0  0  0  0  0
   30.1390   32.4050   15.1990 C   0  0  1  0  0  0  0  0  0  0  0  0
   29.4210   33.6110   14.6720 C   0  0  1  0  0  0  0  0  0  0  0  0
   32.0580   33.8300   17.0100 O   0  0  0  0  0  0  0  0  0  0  0  0
   32.2300   33.7710   16.0280 H   0  0  0  0  0  0  0  0  0  0  0  0
   30.4170   33.9640   18.6530 C   0  0  0  0  0  0  0  0  0  0  0  0
   30.7160   33.0450   19.4220 O   0  0  0  0  0  0  0  0  0  0  0  0
   29.8380   35.1130   19.1390 O   0  0  0  0  0  0  0  0  0  0  0  0
   29.3780   35.0900   20.0560 H   0  0  0  0  0  0  0  0  0  0  0  0
   31.4180   32.2570   14.7440 O   0  0  0  0  0  0  0  0  0  0  0  0
   31.8140   31.3910   15.0360 H   0  0  0  0  0  0  0  0  0  0  0  0
   28.0200   33.5040   15.1250 N   0  0  0  0  0  0  0  0  0  0  0  0
   26.9500   34.0330   14.3820 C   0  0  0  0  0  0  0  0  0  0  0  0
   27.8360   33.0200   16.0300 H   0  0  0  0  0  0  0  0  0  0  0  0
   25.5540   33.9040   14.8740 C   0  0  0  0  0  0  0  0  0  0  0  0
   27.1610   34.6230   13.2870 O   0  0  0  0  0  0  0  0  0  0  0  0
   31.9430   36.2810   15.1990 O   0  0  0  0  0  0  0  0  0  0  0  0
   31.2410   36.8580   15.5370 H   0  0  0  0  0  0  0  0  0  0  0  0
   32.3200   34.8690   12.3170 O   0  0  0  0  0  0  0  0  0  0  0  0
   33.2290   35.0100   12.6440 H   0  0  0  0  0  0  0  0  0  0  0  0
   29.3310   39.8130   12.4880 O   0  0  0  0  0  0  0  0  0  0  0  0
   28.1510   39.2450   12.9850 C   0  0  0  0  0  0  0  0  0  0  0  0
   27.2720   38.8830   11.8430 C   0  0  0  0  0  0  0  0  0  0  0  0
   27.3980   37.7300   11.0640 C   0  0  0  0  0  0  0  0  0  0  0  0
   26.2180   39.5280   11.3140 N   0  0  0  0  0  0  0  0  0  0  0  0
   26.4440   37.7330   10.1290 N   0  0  0  0  0  0  0  0  0  0  0  0
   25.7420   38.8230   10.2940 N   0  0  0  0  0  0  0  0  0  0  0  0
   26.1960   36.7330    9.1000 C   0  0  0  0  0  0  0  0  0  0  0  0
   24.7680   36.6000    8.8120 C   0  0  0  0  0  0  0  0  0  0  0  0
   24.1240   37.3990    7.8600 C   0  0  0  0  0  0  0  0  0  0  0  0
   24.0160   35.6490    9.4730 C   0  0  0  0  0  0  0  0  0  0  0  0
   22.7810   37.2400    7.5970 C   0  0  0  0  0  0  0  0  0  0  0  0
   22.6720   35.5090    9.1900 C   0  0  0  0  0  0  0  0  0  0  0  0
   22.0250   36.2910    8.2560 C   0  0  0  0  0  0  0  0  0  0  0  0
   27.0850   36.8530    7.9420 C   0  0  0  0  0  0  0  0  0  0  0  0
   27.3200   35.7470    7.1060 C   0  0  0  0  0  0  0  0  0  0  0  0
   27.6970   38.0480    7.6480 C   0  0  0  0  0  0  0  0  0  0  0  0
   28.1440   35.8560    6.0160 C   0  0  0  0  0  0  0  0  0  0  0  0
   28.5370   38.1470    6.5340 C   0  0  0  0  0  0  0  0  0  0  0  0
   28.7560   37.0560    5.7260 C   0  0  0  0  0  0  0  0  0  0  0  0
   29.8670   25.5550   16.9770 C   0  0  0  0  0  0  0  0  0  0  0  0
   28.3450   25.7220   17.0260 C   0  0  0  0  0  0  0  0  0  0  0  0
   27.5990   24.4370   16.7010 C   0  0  0  0  0  0  0  0  0  0  0  0
   27.0010   23.8030   17.9260 C   0  0  0  0  0  0  0  0  0  0  0  0
   25.6160   23.2580   17.5930 C   0  0  0  0  0  0  0  0  0  0  0  0
   24.7940   24.2990   16.9320 N   0  0  0  0  0  0  0  0  0  0  0  0
  1  4  1  0  0  0  0
  2 31  1  0  0  0  0
  2  1  1  0  0  0  0
  3  2  2  0  0  0  0
  5  1  1  0  0  0  0
  6  5  1  1  0  0  0
  6  7  1  0  0  0  0
  7 27  1  1  0  0  0
  8  7  1  6  0  0  0
  8 11  1  0  0  0  0
  9 14  1  6  0  0  0
  9 16  1  0  0  0  0
 10  9  1  0  0  0  0
 11  9  1  0  0  0  0
 12 20  1  6  0  0  0
 12 10  1  0  0  0  0
 13 22  1  1  0  0  0
 13  8  1  0  0  0  0
 13 12  1  0  0  0  0
 15 14  1  0  0  0  0
 16 18  1  0  0  0  0
 16 17  2  0  0  0  0
 18 19  1  0  0  0  0
 20 21  1  0  0  0  0
 22 24  1  0  0  0  0
 23 25  1  0  0  0  0
 23 22  1  0  0  0  0
 26 23  2  0  0  0  0
 27 28  1  0  0  0  0
 29 30  1  0  0  0  0
 29  6  1  0  0  0  0
 31 32  1  0  0  0  0
 33 32  1  0  0  0  0
 34 33  2  0  0  0  0
 35 33  1  0  0  0  0
 36 37  1  0  0  0  0
 36 34  1  0  0  0  0
 37 35  2  0  0  0  0
 38 36  1  0  0  0  0
 39 38  1  0  0  0  0
 39 41  2  0  0  0  0
 40 39  1  0  0  0  0
 42 40  2  0  0  0  0
 42 44  1  0  0  0  0
 43 41  1  0  0  0  0
 44 43  2  0  0  0  0
 45 38  1  0  0  0  0
 46 45  2  0  0  0  0
 47 45  1  0  0  0  0
 48 46  1  0  0  0  0
 49 47  2  0  0  0  0
 50 48  2  0  0  0  0
 50 49  1  0  0  0  0
 51 52  1  0  0  0  0
 53 52  1  0  0  0  0
 53 54  1  0  0  0  0
 55 54  1  0  0  0  0
 56 55  1  0  0  0  0
M  END
>  <REMARK>
 VINA RESULT:    -5.970      2.280      4.554
 INTER + INTRA:         -16.522
 INTER:                 -10.966
 INTRA:                  -5.556
 UNBOUND:                -5.490
 SMILES CC(=O)N[C@@H]1[C@@H](O)C[C@](O)(C(=O)O)O[C@H]1C(O)[C@H](O)CNC(=O)OCc1cn(C(c2ccccc2)c2ccccc2)nn1
 SMILES IDX 21 1 22 2 23 3 20 5 18 6 16 7 15 8 9 9 8 10 14 11 6 12 5 13
 SMILES IDX 10 14 11 16 12 17 13 18 7 20 4 22 2 23 1 25 3 26 17 27 19 29
 SMILES IDX 24 31 25 32 26 33 27 34 43 35 28 36 42 37 29 38 30 39 31 40
 SMILES IDX 35 41 32 42 34 43 33 44 36 45 37 46 41 47 38 48 40 49 39 50
 H PARENT 21 4 10 15 13 19 7 21 4 24 17 28 19 30
 Flexibility Score: inf
  4 active torsions:
  status: ('A' for Active; 'I' for Inactive)
    1  A    between atoms: CA   and  CB  
    2  A    between atoms: CB   and  CG  
    3  A    between atoms: CG   and  CD  
    4  A    between atoms: CD   and  CE  

>  <TORSDO>
F 17

>  <BEGIN_>
RES LYS A 131

$$$$
ligand_58_pose_2_2HRL.pdbqt
 OpenBabel07062320523D

  6  5  0  0  0  0  0  0  0  0999 V2000
   33.1930   34.6630    9.2900 C   0  0  0  0  0  0  0  0  0  0  0  0
   32.0600   35.3600   10.0340 C   0  0  0  0  0  0  0  0  0  0  0  0
   30.8310   35.5800    9.1900 C   0  0  0  0  0  0  0  0  0  0  0  0
   29.9790   34.3210    9.1450 C   0  0  0  0  0  0  0  0  0  0  0  0
   28.8720   34.3890   10.1790 C   0  0  0  0  0  0  0  0  0  0  0  0
   27.7010   33.5670    9.7660 N   0  0  0  0  0  0  0  0  0  0  0  0
  1  2  1  0  0  0  0
  3  2  1  0  0  0  0
  4  3  1  0  0  0  0
  4  5  1  0  0  0  0
  6  5  1  0  0  0  0
M  END
>  <EGIN_R>
ES LYS A 135

>  <REMARK>
  4 active torsions:
  status: ('A' for Active; 'I' for Inactive)
    5  A    between atoms: CA   and  CB  
    6  A    between atoms: CB   and  CG  
    7  A    between atoms: CG   and  CD  
    8  A    between atoms: CD   and  CE  

$$$$
