ligand_86_pose_3_2HRL.pdbqt
 OpenBabel07062320523D

 52 54  0  0  1  0  0  0  0  0999 V2000
   29.7150   27.3740   21.2720 C   0  0  0  0  0  0  0  0  0  0  0  0
   31.0760   26.7760   21.3770 C   0  0  2  0  0  0  0  0  0  0  0  0
   31.8690   27.2690   22.5470 C   0  0  2  0  0  0  0  0  0  0  0  0
   31.7040   28.7520   22.7840 C   0  0  2  0  0  0  0  0  0  0  0  0
   32.2290   30.8050   21.8590 C   0  0  2  0  0  0  0  0  0  0  0  0
   31.6170   31.2480   23.1600 C   0  0  0  0  0  0  0  0  0  0  0  0
   32.1500   29.4350   21.6610 O   0  0  0  0  0  0  0  0  0  0  0  0
   32.1720   30.5370   24.3570 C   0  0  1  0  0  0  0  0  0  0  0  0
   32.5990   29.1570   23.9360 C   0  0  1  0  0  0  0  0  0  0  0  0
   33.5400   31.2530   21.7040 O   0  0  0  0  0  0  0  0  0  0  0  0
   33.9490   31.4340   22.5820 H   0  0  0  0  0  0  0  0  0  0  0  0
   31.4310   31.4410   20.7630 C   0  0  0  0  0  0  0  0  0  0  0  0
   31.4800   32.7020   20.5710 O   0  0  0  0  0  0  0  0  0  0  0  0
   30.6170   30.7250   19.9170 O   0  0  0  0  0  0  0  0  0  0  0  0
   31.0450   30.3070   19.0820 H   0  0  0  0  0  0  0  0  0  0  0  0
   33.1440   31.2440   25.0240 O   0  0  0  0  0  0  0  0  0  0  0  0
   33.6540   31.7690   24.3520 H   0  0  0  0  0  0  0  0  0  0  0  0
   32.5770   28.2000   25.0140 N   0  0  0  0  0  0  0  0  0  0  0  0
   33.7240   27.9240   25.8170 C   0  0  0  0  0  0  0  0  0  0  0  0
   31.7050   27.6710   25.2420 H   0  0  0  0  0  0  0  0  0  0  0  0
   33.6350   26.9310   26.9070 C   0  0  0  0  0  0  0  0  0  0  0  0
   34.7790   28.5480   25.5600 O   0  0  0  0  0  0  0  0  0  0  0  0
   33.2220   27.0200   22.3170 O   0  0  0  0  0  0  0  0  0  0  0  0
   33.6850   26.7250   23.1210 H   0  0  0  0  0  0  0  0  0  0  0  0
   31.8300   27.0260   20.2070 O   0  0  0  0  0  0  0  0  0  0  0  0
   31.6690   26.2330   19.6220 H   0  0  0  0  0  0  0  0  0  0  0  0
   29.3310   27.6330   19.9060 N   0  0  0  0  0  0  0  0  0  0  0  0
   28.0250   28.1090   19.6190 C   0  0  0  0  0  0  0  0  0  0  0  0
   29.9780   27.4860   19.0940 H   0  0  0  0  0  0  0  0  0  0  0  0
   27.1580   28.3220   20.5100 O   0  0  0  0  0  0  0  0  0  0  0  0
   27.6010   28.3760   18.3170 O   0  0  0  0  0  0  0  0  0  0  0  0
   26.9410   29.5750   17.9620 C   0  0  0  0  0  0  0  0  0  0  0  0
   27.9310   30.6740   17.8050 C   0  0  0  0  0  0  0  0  0  0  0  0
   28.8930   30.7400   16.8190 C   0  0  0  0  0  0  0  0  0  0  0  0
   28.1020   31.7860   18.5410 N   0  0  0  0  0  0  0  0  0  0  0  0
   29.6200   31.8800   16.9790 N   0  0  0  0  0  0  0  0  0  0  0  0
   29.0980   32.4760   18.0370 N   0  0  0  0  0  0  0  0  0  0  0  0
   30.7340   32.3390   16.1540 C   0  0  2  0  0  0  0  0  0  0  0  0
   31.4820   33.3670   16.9190 C   0  0  0  0  0  0  0  0  0  0  0  0
   30.1780   32.7890   14.8500 C   0  0  0  0  0  0  0  0  0  0  0  0
   32.1050   34.4440   16.1080 C   0  0  1  0  0  0  0  0  0  0  0  0
   30.7360   34.1000   14.3600 C   0  0  2  0  0  0  0  0  0  0  0  0
   32.1480   34.1190   14.7000 N   0  0  0  0  0  0  0  0  0  0  0  0
   31.1750   35.6470   16.1270 C   0  0  0  0  0  0  0  0  0  0  0  0
   30.0970   35.2080   15.1570 C   0  0  0  0  0  0  0  0  0  0  0  0
   32.8690   35.1350   13.9760 C   0  0  0  0  0  0  0  0  0  0  0  0
   29.8670   25.5550   16.9770 C   0  0  0  0  0  0  0  0  0  0  0  0
   28.3450   25.7220   17.0260 C   0  0  0  0  0  0  0  0  0  0  0  0
   27.6010   24.4010   16.8990 C   0  0  0  0  0  0  0  0  0  0  0  0
   26.1610   24.5200   17.3140 C   0  0  0  0  0  0  0  0  0  0  0  0
   26.0840   25.1020   18.7220 C   0  0  0  0  0  0  0  0  0  0  0  0
   25.0210   26.1320   18.8000 N   0  0  0  0  0  0  0  0  0  0  0  0
  2  1  1  6  0  0  0
  2  3  1  0  0  0  0
  3 23  1  6  0  0  0
  4  3  1  6  0  0  0
  4  9  1  0  0  0  0
  5 12  1  6  0  0  0
  5  6  1  0  0  0  0
  6  8  1  0  0  0  0
  7  5  1  0  0  0  0
  7  4  1  0  0  0  0
  8 16  1  6  0  0  0
  9  8  1  0  0  0  0
  9 18  1  1  0  0  0
 10  5  1  0  0  0  0
 10 11  1  0  0  0  0
 13 12  2  0  0  0  0
 14 12  1  0  0  0  0
 15 14  1  0  0  0  0
 17 16  1  0  0  0  0
 18 20  1  0  0  0  0
 18 19  1  0  0  0  0
 19 21  1  0  0  0  0
 22 19  2  0  0  0  0
 23 24  1  0  0  0  0
 25  2  1  0  0  0  0
 26 25  1  0  0  0  0
 27  1  1  0  0  0  0
 28 27  1  0  0  0  0
 28 30  2  0  0  0  0
 29 27  1  0  0  0  0
 31 28  1  0  0  0  0
 32 31  1  0  0  0  0
 33 32  1  0  0  0  0
 33 35  1  0  0  0  0
 34 36  1  0  0  0  0
 34 33  2  0  0  0  0
 36 37  1  0  0  0  0
 37 35  2  0  0  0  0
 38 40  1  6  0  0  0
 38 39  1  0  0  0  0
 38 36  1  0  0  0  0
 41 44  1  6  0  0  0
 41 39  1  0  0  0  0
 42 43  1  0  0  0  0
 42 40  1  1  0  0  0
 42 45  1  0  0  0  0
 43 41  1  0  0  0  0
 45 44  1  0  0  0  0
 46 43  1  0  0  0  0
 47 48  1  0  0  0  0
 49 48  1  0  0  0  0
 49 50  1  0  0  0  0
 50 51  1  0  0  0  0
 51 52  1  0  0  0  0
M  END
>  <REMARK>
 VINA RESULT:    -4.677      2.167      4.337
 INTER + INTRA:         -14.649
 INTER:                  -8.502
 INTRA:                  -6.148
 UNBOUND:                -6.555
 SMILES CC(=O)N[C@@H]1[C@@H](O)C[C@](O)(C(=O)O)O[C@H]1C(O)[C@H](O)CNC(=O)OCc1cn([C@H]2C[C@H]3CC[C@@H](C2)N3C)nn1
 SMILES IDX 20 1 18 2 16 3 15 4 9 5 8 6 14 7 6 8 5 9 10 10 11 12 12 13
 SMILES IDX 13 14 7 16 4 18 2 19 1 21 3 22 17 23 19 25 21 27 22 28 23 30
 SMILES IDX 24 31 25 32 26 33 27 34 39 35 28 36 38 37 29 38 35 39 30 40
 SMILES IDX 34 41 31 42 36 43 33 44 32 45 37 46
 H PARENT 10 11 13 15 7 17 4 20 17 24 19 26 21 29
 Flexibility Score: inf
  4 active torsions:
  status: ('A' for Active; 'I' for Inactive)
    1  A    between atoms: CA   and  CB  
    2  A    between atoms: CB   and  CG  
    3  A    between atoms: CG   and  CD  
    4  A    between atoms: CD   and  CE  

>  <TORSDO>
F 15

>  <BEGIN_>
RES LYS A 131

$$$$
ligand_86_pose_3_2HRL.pdbqt
 OpenBabel07062320523D

  6  5  0  0  0  0  0  0  0  0999 V2000
   33.1930   34.6630    9.2900 C   0  0  0  0  0  0  0  0  0  0  0  0
   32.0600   35.3600   10.0340 C   0  0  0  0  0  0  0  0  0  0  0  0
   30.7990   35.4960    9.2200 C   0  0  0  0  0  0  0  0  0  0  0  0
   30.1700   34.1340    8.9730 C   0  0  0  0  0  0  0  0  0  0  0  0
   28.6910   34.2770    8.6690 C   0  0  0  0  0  0  0  0  0  0  0  0
   27.8610   33.7910    9.8070 N   0  0  0  0  0  0  0  0  0  0  0  0
  1  2  1  0  0  0  0
  3  2  1  0  0  0  0
  4  3  1  0  0  0  0
  5  4  1  0  0  0  0
  5  6  1  0  0  0  0
M  END
>  <EGIN_R>
ES LYS A 135

>  <REMARK>
  4 active torsions:
  status: ('A' for Active; 'I' for Inactive)
    5  A    between atoms: CA   and  CB  
    6  A    between atoms: CB   and  CG  
    7  A    between atoms: CG   and  CD  
    8  A    between atoms: CD   and  CE  

$$$$
