ligand_93_pose_17_2HRL.pdbqt
 OpenBabel07062320523D

 50 51  0  0  1  0  0  0  0  0999 V2000
   31.5170   33.3110   20.0870 C   0  0  0  0  0  0  0  0  0  0  0  0
   31.2990   34.3630   19.0240 C   0  0  2  0  0  0  0  0  0  0  0  0
   31.2650   33.7480   17.6700 C   0  0  1  0  0  0  0  0  0  0  0  0
   29.9020   33.6190   17.0400 C   0  0  2  0  0  0  0  0  0  0  0  0
   29.1790   31.3770   16.9820 C   0  0  2  0  0  0  0  0  0  0  0  0
   28.9310   31.4670   15.4900 C   0  0  0  0  0  0  0  0  0  0  0  0
   29.2850   32.5610   17.6180 O   0  0  0  0  0  0  0  0  0  0  0  0
   29.9900   32.3770   14.9230 C   0  0  1  0  0  0  0  0  0  0  0  0
   29.8360   33.7300   15.5690 C   0  0  1  0  0  0  0  0  0  0  0  0
   30.3820   30.6870   17.1230 O   0  0  0  0  0  0  0  0  0  0  0  0
   30.8600   30.7660   16.2430 H   0  0  0  0  0  0  0  0  0  0  0  0
   28.1010   30.5050   17.5470 C   0  0  0  0  0  0  0  0  0  0  0  0
   27.1600   30.9450   18.2430 O   0  0  0  0  0  0  0  0  0  0  0  0
   28.1520   29.1530   17.2850 O   0  0  0  0  0  0  0  0  0  0  0  0
   28.2520   28.7720   16.3420 H   0  0  0  0  0  0  0  0  0  0  0  0
   31.2210   31.7800   15.2010 O   0  0  0  0  0  0  0  0  0  0  0  0
   31.3260   31.5690   16.1610 H   0  0  0  0  0  0  0  0  0  0  0  0
   28.5130   34.2380   15.1610 N   0  0  0  0  0  0  0  0  0  0  0  0
   28.3380   35.0090   13.9860 C   0  0  0  0  0  0  0  0  0  0  0  0
   27.6770   34.0330   15.7420 H   0  0  0  0  0  0  0  0  0  0  0  0
   26.9770   35.4810   13.6440 C   0  0  0  0  0  0  0  0  0  0  0  0
   29.3190   35.2940   13.2360 O   0  0  0  0  0  0  0  0  0  0  0  0
   32.2340   34.2600   16.8190 O   0  0  0  0  0  0  0  0  0  0  0  0
   33.1450   33.9280   17.0570 H   0  0  0  0  0  0  0  0  0  0  0  0
   32.3920   35.2600   19.1560 O   0  0  0  0  0  0  0  0  0  0  0  0
   32.7730   35.1730   20.0720 H   0  0  0  0  0  0  0  0  0  0  0  0
   30.2940   32.7800   20.6430 N   0  0  0  0  0  0  0  0  0  0  0  0
   30.0740   31.3670   20.6050 C   0  0  0  0  0  0  0  0  0  0  0  0
   29.6110   33.4360   21.0600 H   0  0  0  0  0  0  0  0  0  0  0  0
   30.9470   30.6470   20.0930 O   0  0  0  0  0  0  0  0  0  0  0  0
   28.8940   30.8850   21.1450 O   0  0  0  0  0  0  0  0  0  0  0  0
   28.8960   29.6230   21.7610 C   0  0  0  0  0  0  0  0  0  0  0  0
   28.1950   28.6720   20.8650 C   0  0  0  0  0  0  0  0  0  0  0  0
   26.8060   28.6250   20.7010 C   0  0  0  0  0  0  0  0  0  0  0  0
   28.6880   27.7150   20.0700 N   0  0  0  0  0  0  0  0  0  0  0  0
   26.5840   27.6430   19.8220 N   0  0  0  0  0  0  0  0  0  0  0  0
   27.7140   27.0860   19.4340 N   0  0  0  0  0  0  0  0  0  0  0  0
   25.3050   27.2460   19.3600 C   0  0  0  0  0  0  0  0  0  0  0  0
   24.8270   27.7750   18.1620 C   0  0  0  0  0  0  0  0  0  0  0  0
   24.5720   26.3550   20.0940 C   0  0  0  0  0  0  0  0  0  0  0  0
   23.5840   27.3940   17.7040 C   0  0  0  0  0  0  0  0  0  0  0  0
   23.3270   25.9850   19.6180 C   0  0  0  0  0  0  0  0  0  0  0  0
   25.2520   25.5290   21.9080 I   0  0  0  0  0  0  0  0  0  0  0  0
   22.8320   26.4980   18.4320 C   0  0  0  0  0  0  0  0  0  0  0  0
   29.8670   25.5550   16.9770 C   0  0  0  0  0  0  0  0  0  0  0  0
   28.3450   25.7220   17.0260 C   0  0  0  0  0  0  0  0  0  0  0  0
   27.6000   24.4170   16.7910 C   0  0  0  0  0  0  0  0  0  0  0  0
   26.9360   23.9110   18.0420 C   0  0  0  0  0  0  0  0  0  0  0  0
   25.6660   23.1510   17.6720 C   0  0  0  0  0  0  0  0  0  0  0  0
   24.7530   24.0170   16.8890 N   0  0  0  0  0  0  0  0  0  0  0  0
  1 27  1  0  0  0  0
  2 25  1  0  0  0  0
  2  1  1  1  0  0  0
  3 23  1  6  0  0  0
  3  2  1  0  0  0  0
  4  7  1  0  0  0  0
  4  3  1  6  0  0  0
  5 10  1  1  0  0  0
  5 12  1  0  0  0  0
  5  7  1  0  0  0  0
  6  5  1  0  0  0  0
  8 16  1  1  0  0  0
  8  6  1  0  0  0  0
  8  9  1  0  0  0  0
  9 18  1  1  0  0  0
  9  4  1  0  0  0  0
 11 10  1  0  0  0  0
 12 13  2  0  0  0  0
 14 12  1  0  0  0  0
 15 14  1  0  0  0  0
 16 17  1  0  0  0  0
 18 20  1  0  0  0  0
 19 18  1  0  0  0  0
 21 19  1  0  0  0  0
 22 19  2  0  0  0  0
 23 24  1  0  0  0  0
 25 26  1  0  0  0  0
 27 29  1  0  0  0  0
 28 27  1  0  0  0  0
 28 31  1  0  0  0  0
 30 28  2  0  0  0  0
 31 32  1  0  0  0  0
 33 32  1  0  0  0  0
 34 33  2  0  0  0  0
 35 33  1  0  0  0  0
 36 34  1  0  0  0  0
 37 36  1  0  0  0  0
 37 35  2  0  0  0  0
 38 36  1  0  0  0  0
 38 40  2  0  0  0  0
 39 38  1  0  0  0  0
 40 43  1  0  0  0  0
 41 39  2  0  0  0  0
 41 44  1  0  0  0  0
 42 40  1  0  0  0  0
 44 42  2  0  0  0  0
 45 46  1  0  0  0  0
 47 46  1  0  0  0  0
 47 48  1  0  0  0  0
 49 48  1  0  0  0  0
 50 49  1  0  0  0  0
M  END
>  <REMARK>
 VINA RESULT:    -4.190      3.369      6.161
 INTER + INTRA:         -13.537
 INTER:                  -7.251
 INTRA:                  -6.285
 UNBOUND:                -6.285
 SMILES CC(=O)N[C@@H]1[C@@H](O)C[C@](O)(C(=O)O)O[C@H]1C(O)[C@H](O)CNC(=O)OCc1cn(-c2ccccc2I)nn1
 SMILES IDX 20 1 18 2 16 3 15 4 9 5 8 6 14 7 6 8 5 9 10 10 11 12 12 13
 SMILES IDX 13 14 7 16 4 18 2 19 1 21 3 22 17 23 19 25 21 27 22 28 23 30
 SMILES IDX 24 31 25 32 26 33 27 34 37 35 28 36 36 37 29 38 30 39 34 40
 SMILES IDX 31 41 33 42 35 43 32 44
 H PARENT 10 11 13 15 7 17 4 20 17 24 19 26 21 29
 Flexibility Score: inf
  4 active torsions:
  status: ('A' for Active; 'I' for Inactive)
    1  A    between atoms: CA   and  CB  
    2  A    between atoms: CB   and  CG  
    3  A    between atoms: CG   and  CD  
    4  A    between atoms: CD   and  CE  

>  <TORSDO>
F 15

>  <BEGIN_>
RES LYS A 131

$$$$
ligand_93_pose_17_2HRL.pdbqt
 OpenBabel07062320523D

  6  5  0  0  0  0  0  0  0  0999 V2000
   33.1930   34.6630    9.2900 C   0  0  0  0  0  0  0  0  0  0  0  0
   32.0600   35.3600   10.0340 C   0  0  0  0  0  0  0  0  0  0  0  0
   30.9090   35.7560    9.1450 C   0  0  0  0  0  0  0  0  0  0  0  0
   30.3850   34.5520    8.3780 C   0  0  0  0  0  0  0  0  0  0  0  0
   28.9300   34.7530    8.0000 C   0  0  0  0  0  0  0  0  0  0  0  0
   28.8070   35.4720    6.7020 N   0  0  0  0  0  0  0  0  0  0  0  0
  1  2  1  0  0  0  0
  3  2  1  0  0  0  0
  4  3  1  0  0  0  0
  5  4  1  0  0  0  0
  6  5  1  0  0  0  0
M  END
>  <EGIN_R>
ES LYS A 135

>  <REMARK>
  4 active torsions:
  status: ('A' for Active; 'I' for Inactive)
    5  A    between atoms: CA   and  CB  
    6  A    between atoms: CB   and  CG  
    7  A    between atoms: CG   and  CD  
    8  A    between atoms: CD   and  CE  

$$$$
