ligand_66_pose_4_2HRL.pdbqt
 OpenBabel07062320523D

 52 53  0  0  1  0  0  0  0  0999 V2000
   25.8900   40.1280    8.2600 N   0  0  0  0  0  0  0  0  0  0  0  0
   27.0460   40.2150    9.0450 C   0  0  0  0  0  0  0  0  0  0  0  0
   27.0220   39.9050   10.2540 O   0  0  0  0  0  0  0  0  0  0  0  0
   25.9900   40.4050    7.2380 H   0  0  0  0  0  0  0  0  0  0  0  0
   24.6120   39.6950    8.7580 C   0  0  0  0  0  0  0  0  0  0  0  0
   24.1500   38.4010    8.1480 C   0  0  2  0  0  0  0  0  0  0  0  0
   23.8310   37.3160    9.1000 C   0  0  2  0  0  0  0  0  0  0  0  0
   22.3360   36.9820    9.2300 C   0  0  2  0  0  0  0  0  0  0  0  0
   20.7350   35.6040    8.3770 C   0  0  2  0  0  0  0  0  0  0  0  0
   19.9650   36.7810    7.8140 C   0  0  0  0  0  0  0  0  0  0  0  0
   22.0590   35.9580    8.4160 O   0  0  0  0  0  0  0  0  0  0  0  0
   20.0950   37.9910    8.6990 C   0  0  1  0  0  0  0  0  0  0  0  0
   21.4950   38.2000    9.1970 C   0  0  1  0  0  0  0  0  0  0  0  0
   20.5700   34.5190    7.4800 O   0  0  0  0  0  0  0  0  0  0  0  0
   20.9510   33.7360    7.9720 H   0  0  0  0  0  0  0  0  0  0  0  0
   20.1310   35.1850    9.6460 C   0  0  0  0  0  0  0  0  0  0  0  0
   18.9410   35.4470    9.9350 O   0  0  0  0  0  0  0  0  0  0  0  0
   20.8320   34.4640   10.6350 O   0  0  0  0  0  0  0  0  0  0  0  0
   21.3630   33.6630   10.2860 H   0  0  0  0  0  0  0  0  0  0  0  0
   19.6720   39.0980    7.9640 O   0  0  0  0  0  0  0  0  0  0  0  0
   18.8620   38.9160    7.4430 H   0  0  0  0  0  0  0  0  0  0  0  0
   21.4360   38.8280   10.5030 N   0  0  0  0  0  0  0  0  0  0  0  0
   21.4170   40.2600   10.6730 C   0  0  0  0  0  0  0  0  0  0  0  0
   21.4060   38.2990   11.4120 H   0  0  0  0  0  0  0  0  0  0  0  0
   21.3580   40.8620   12.0430 C   0  0  0  0  0  0  0  0  0  0  0  0
   21.4490   41.0080    9.6760 O   0  0  0  0  0  0  0  0  0  0  0  0
   24.2890   37.5660   10.3950 O   0  0  0  0  0  0  0  0  0  0  0  0
   23.6120   38.0080   10.9640 H   0  0  0  0  0  0  0  0  0  0  0  0
   25.0400   38.0670    7.1280 O   0  0  0  0  0  0  0  0  0  0  0  0
   25.8360   37.6550    7.5440 H   0  0  0  0  0  0  0  0  0  0  0  0
   28.2710   40.6460    8.5370 O   0  0  0  0  0  0  0  0  0  0  0  0
   28.4360   40.7090    7.1440 C   0  0  0  0  0  0  0  0  0  0  0  0
   28.2670   39.3540    6.5800 C   0  0  0  0  0  0  0  0  0  0  0  0
   28.9520   38.2040    6.9050 C   0  0  0  0  0  0  0  0  0  0  0  0
   27.3870   39.0020    5.6250 N   0  0  0  0  0  0  0  0  0  0  0  0
   28.4750   37.1990    6.1490 N   0  0  0  0  0  0  0  0  0  0  0  0
   27.5250   37.7280    5.3870 N   0  0  0  0  0  0  0  0  0  0  0  0
   28.8370   35.8070    6.1060 C   0  0  0  0  0  0  0  0  0  0  0  0
   28.8210   35.2120    7.4830 C   0  0  0  0  0  0  0  0  0  0  0  0
   29.9650   34.6470    7.9990 C   0  0  0  0  0  0  0  0  0  0  0  0
   27.6910   35.2180    8.2570 C   0  0  0  0  0  0  0  0  0  0  0  0
   29.9590   34.0970    9.2860 C   0  0  0  0  0  0  0  0  0  0  0  0
   27.6480   34.6860    9.5290 C   0  0  0  0  0  0  0  0  0  0  0  0
   28.7930   34.1220   10.0440 C   0  0  0  0  0  0  0  0  0  0  0  0
   26.4790   34.6810   10.3580 C   0  0  0  0  0  0  0  0  0  0  0  0
   25.5310   34.6950   11.0380 N   0  0  0  0  0  0  0  0  0  0  0  0
   29.8670   25.5550   16.9770 C   0  0  0  0  0  0  0  0  0  0  0  0
   28.3450   25.7220   17.0260 C   0  0  0  0  0  0  0  0  0  0  0  0
   27.6030   24.3960   16.9550 C   0  0  0  0  0  0  0  0  0  0  0  0
   26.5050   24.3070   17.9790 C   0  0  0  0  0  0  0  0  0  0  0  0
   25.3660   23.4530   17.4310 C   0  0  0  0  0  0  0  0  0  0  0  0
   24.8200   22.5730   18.4920 N   0  0  0  0  0  0  0  0  0  0  0  0
  1  5  1  0  0  0  0
  1  2  1  0  0  0  0
  2  3  2  0  0  0  0
  4  1  1  0  0  0  0
  6  5  1  1  0  0  0
  6  7  1  0  0  0  0
  7 27  1  1  0  0  0
  8  7  1  6  0  0  0
  9 14  1  6  0  0  0
  9 11  1  0  0  0  0
  9 16  1  0  0  0  0
 10  9  1  0  0  0  0
 10 12  1  0  0  0  0
 11  8  1  0  0  0  0
 12 20  1  6  0  0  0
 12 13  1  0  0  0  0
 13  8  1  0  0  0  0
 13 22  1  1  0  0  0
 14 15  1  0  0  0  0
 16 17  2  0  0  0  0
 16 18  1  0  0  0  0
 19 18  1  0  0  0  0
 21 20  1  0  0  0  0
 22 23  1  0  0  0  0
 22 24  1  0  0  0  0
 23 25  1  0  0  0  0
 26 23  2  0  0  0  0
 27 28  1  0  0  0  0
 29 30  1  0  0  0  0
 29  6  1  0  0  0  0
 31  2  1  0  0  0  0
 32 31  1  0  0  0  0
 33 34  2  0  0  0  0
 33 32  1  0  0  0  0
 35 33  1  0  0  0  0
 36 34  1  0  0  0  0
 37 35  2  0  0  0  0
 37 36  1  0  0  0  0
 38 36  1  0  0  0  0
 38 39  1  0  0  0  0
 39 40  2  0  0  0  0
 39 41  1  0  0  0  0
 40 42  1  0  0  0  0
 41 43  2  0  0  0  0
 42 44  2  0  0  0  0
 43 44  1  0  0  0  0
 43 45  1  0  0  0  0
 45 46  3  0  0  0  0
 47 48  1  0  0  0  0
 49 48  1  0  0  0  0
 49 50  1  0  0  0  0
 51 50  1  0  0  0  0
 51 52  1  0  0  0  0
M  END
>  <REMARK>
 VINA RESULT:    -5.233      6.421     10.710
 INTER + INTRA:         -14.880
 INTER:                 -10.531
 INTRA:                  -4.350
 UNBOUND:                -5.212
 SMILES CC(=O)N[C@@H]1[C@@H](O)C[C@](O)(C(=O)O)O[C@H]1C(O)[C@H](O)CNC(=O)OCc1cn(Cc2cccc(C#N)c2)nn1
 SMILES IDX 21 1 22 2 23 3 20 5 18 6 16 7 15 8 9 9 8 10 14 11 6 12 5 13
 SMILES IDX 10 14 11 16 12 17 13 18 7 20 4 22 2 23 1 25 3 26 17 27 19 29
 SMILES IDX 24 31 25 32 26 33 27 34 39 35 28 36 38 37 29 38 30 39 31 40
 SMILES IDX 37 41 32 42 34 43 33 44 35 45 36 46
 H PARENT 21 4 10 15 13 19 7 21 4 24 17 28 19 30
 Flexibility Score: inf
  4 active torsions:
  status: ('A' for Active; 'I' for Inactive)
    1  A    between atoms: CA   and  CB  
    2  A    between atoms: CB   and  CG  
    3  A    between atoms: CG   and  CD  
    4  A    between atoms: CD   and  CE  

>  <TORSDO>
F 17

>  <BEGIN_>
RES LYS A 131

$$$$
ligand_66_pose_4_2HRL.pdbqt
 OpenBabel07062320523D

  6  5  0  0  0  0  0  0  0  0999 V2000
   33.1930   34.6630    9.2900 C   0  0  0  0  0  0  0  0  0  0  0  0
   32.0600   35.3600   10.0340 C   0  0  0  0  0  0  0  0  0  0  0  0
   32.5120   36.0920   11.2710 C   0  0  0  0  0  0  0  0  0  0  0  0
   31.9170   37.4910   11.3150 C   0  0  0  0  0  0  0  0  0  0  0  0
   30.9340   37.6870   10.1770 C   0  0  0  0  0  0  0  0  0  0  0  0
   29.5300   37.6680   10.6720 N   0  0  0  0  0  0  0  0  0  0  0  0
  1  2  1  0  0  0  0
  2  3  1  0  0  0  0
  3  4  1  0  0  0  0
  5  6  1  0  0  0  0
  5  4  1  0  0  0  0
M  END
>  <EGIN_R>
ES LYS A 135

>  <REMARK>
  4 active torsions:
  status: ('A' for Active; 'I' for Inactive)
    5  A    between atoms: CA   and  CB  
    6  A    between atoms: CB   and  CG  
    7  A    between atoms: CG   and  CD  
    8  A    between atoms: CD   and  CE  

$$$$
