ligand_64_pose_2_2HRL.pdbqt
 OpenBabel07062320523D

 59 61  0  0  1  0  0  0  0  0999 V2000
   30.6790   34.4360   16.6330 N   0  0  0  0  0  0  0  0  0  0  0  0
   31.6490   35.2100   15.9210 C   0  0  0  0  0  0  0  0  0  0  0  0
   32.6860   34.6300   15.5080 O   0  0  0  0  0  0  0  0  0  0  0  0
   29.8290   34.9850   16.9540 H   0  0  0  0  0  0  0  0  0  0  0  0
   30.8250   33.0310   16.9010 C   0  0  0  0  0  0  0  0  0  0  0  0
   30.2780   32.2050   15.7760 C   0  0  2  0  0  0  0  0  0  0  0  0
   29.6830   30.9350   16.3690 C   0  0  2  0  0  0  0  0  0  0  0  0
   28.2360   30.8430   16.0340 C   0  0  2  0  0  0  0  0  0  0  0  0
   26.3920   32.2040   15.6370 C   0  0  2  0  0  0  0  0  0  0  0  0
   25.8100   30.8650   15.1970 C   0  0  0  0  0  0  0  0  0  0  0  0
   27.7420   32.1560   15.8640 O   0  0  0  0  0  0  0  0  0  0  0  0
   26.0240   29.8940   16.3030 C   0  0  1  0  0  0  0  0  0  0  0  0
   27.3450   30.2030   17.0430 C   0  0  1  0  0  0  0  0  0  0  0  0
   25.6750   32.5320   16.8120 O   0  0  0  0  0  0  0  0  0  0  0  0
   26.3370   32.9780   17.4010 H   0  0  0  0  0  0  0  0  0  0  0  0
   26.1350   33.2540   14.6330 C   0  0  0  0  0  0  0  0  0  0  0  0
   27.0100   34.1000   14.3760 O   0  0  0  0  0  0  0  0  0  0  0  0
   24.9270   33.3080   13.9710 O   0  0  0  0  0  0  0  0  0  0  0  0
   24.0320   33.2260   14.4460 H   0  0  0  0  0  0  0  0  0  0  0  0
   24.9740   29.8080   17.1900 O   0  0  0  0  0  0  0  0  0  0  0  0
   24.9980   28.9570   17.6800 H   0  0  0  0  0  0  0  0  0  0  0  0
   27.8280   28.9830   17.6320 N   0  0  0  0  0  0  0  0  0  0  0  0
   27.5420   28.6490   19.0060 C   0  0  0  0  0  0  0  0  0  0  0  0
   28.3790   28.3270   17.0740 H   0  0  0  0  0  0  0  0  0  0  0  0
   28.0150   27.4130   19.6470 C   0  0  0  0  0  0  0  0  0  0  0  0
   26.8460   29.5010   19.6360 O   0  0  0  0  0  0  0  0  0  0  0  0
   29.9610   30.7620   17.6970 O   0  0  0  0  0  0  0  0  0  0  0  0
   29.9250   29.8470   18.0280 H   0  0  0  0  0  0  0  0  0  0  0  0
   31.3930   31.8610   14.9840 O   0  0  0  0  0  0  0  0  0  0  0  0
   32.0890   31.5880   15.6180 H   0  0  0  0  0  0  0  0  0  0  0  0
   31.4440   36.5640   15.6960 O   0  0  0  0  0  0  0  0  0  0  0  0
   31.6930   37.0630   14.3980 C   0  0  0  0  0  0  0  0  0  0  0  0
   30.3890   37.0950   13.6860 C   0  0  0  0  0  0  0  0  0  0  0  0
   30.1830   37.2870   12.3140 C   0  0  0  0  0  0  0  0  0  0  0  0
   29.1350   36.9490   14.1750 N   0  0  0  0  0  0  0  0  0  0  0  0
   28.8670   37.2510   12.0420 N   0  0  0  0  0  0  0  0  0  0  0  0
   28.2560   37.0460   13.1850 N   0  0  0  0  0  0  0  0  0  0  0  0
   28.3170   37.4150   10.7190 C   0  0  0  0  0  0  0  0  0  0  0  0
   29.0660   37.9140    9.6840 C   0  0  0  0  0  0  0  0  0  0  0  0
   26.9960   37.0690   10.4590 C   0  0  0  0  0  0  0  0  0  0  0  0
   28.5710   38.0860    8.4080 C   0  0  0  0  0  0  0  0  0  0  0  0
   26.4910   37.2330    9.1950 C   0  0  0  0  0  0  0  0  0  0  0  0
   27.2900   37.7310    8.2230 N   0  0  0  0  0  0  0  0  0  0  0  0
   29.3840   38.6160    7.3260 C   0  0  0  0  0  0  0  0  0  0  0  0
   28.8190   39.1460    6.3490 O   0  0  0  0  0  0  0  0  0  0  0  0
   30.7610   38.5460    7.3560 O   0  0  0  0  0  0  0  0  0  0  0  0
   31.3600   39.3780    7.3250 H   0  0  0  0  0  0  0  0  0  0  0  0
   25.0940   36.8750    8.8910 C   0  0  0  0  0  0  0  0  0  0  0  0
   24.4040   37.6580    7.9900 C   0  0  0  0  0  0  0  0  0  0  0  0
   24.5090   35.7960    9.4910 C   0  0  0  0  0  0  0  0  0  0  0  0
   23.1010   37.3260    7.7050 C   0  0  0  0  0  0  0  0  0  0  0  0
   23.1980   35.4980    9.1750 C   0  0  0  0  0  0  0  0  0  0  0  0
   22.4650   36.2480    8.2820 C   0  0  0  0  0  0  0  0  0  0  0  0
   29.8670   25.5550   16.9770 C   0  0  0  0  0  0  0  0  0  0  0  0
   28.3450   25.7220   17.0260 C   0  0  0  0  0  0  0  0  0  0  0  0
   27.6010   24.4040   16.8780 C   0  0  0  0  0  0  0  0  0  0  0  0
   26.6340   24.1690   18.0050 C   0  0  0  0  0  0  0  0  0  0  0  0
   25.5190   23.2400   17.5340 C   0  0  0  0  0  0  0  0  0  0  0  0
   24.4580   24.0110   16.8450 N   0  0  0  0  0  0  0  0  0  0  0  0
  1  5  1  0  0  0  0
  1  4  1  0  0  0  0
  2  1  1  0  0  0  0
  3  2  2  0  0  0  0
  6  7  1  0  0  0  0
  6  5  1  1  0  0  0
  7 27  1  1  0  0  0
  8  7  1  1  0  0  0
  8 13  1  0  0  0  0
  9 16  1  6  0  0  0
  9 11  1  0  0  0  0
  9 14  1  0  0  0  0
 10  9  1  0  0  0  0
 10 12  1  0  0  0  0
 11  8  1  0  0  0  0
 12 13  1  0  0  0  0
 12 20  1  1  0  0  0
 13 22  1  6  0  0  0
 14 15  1  0  0  0  0
 17 16  2  0  0  0  0
 18 19  1  0  0  0  0
 18 16  1  0  0  0  0
 20 21  1  0  0  0  0
 22 23  1  0  0  0  0
 23 26  2  0  0  0  0
 23 25  1  0  0  0  0
 24 22  1  0  0  0  0
 27 28  1  0  0  0  0
 29 30  1  0  0  0  0
 29  6  1  0  0  0  0
 31  2  1  0  0  0  0
 32 31  1  0  0  0  0
 33 35  1  0  0  0  0
 33 32  1  0  0  0  0
 34 33  2  0  0  0  0
 36 34  1  0  0  0  0
 36 37  1  0  0  0  0
 37 35  2  0  0  0  0
 38 36  1  0  0  0  0
 39 38  2  0  0  0  0
 40 38  1  0  0  0  0
 41 39  1  0  0  0  0
 42 40  2  0  0  0  0
 43 41  2  0  0  0  0
 43 42  1  0  0  0  0
 44 46  1  0  0  0  0
 44 41  1  0  0  0  0
 45 44  2  0  0  0  0
 47 46  1  0  0  0  0
 48 42  1  0  0  0  0
 48 50  2  0  0  0  0
 49 48  1  0  0  0  0
 51 49  2  0  0  0  0
 51 53  1  0  0  0  0
 52 50  1  0  0  0  0
 53 52  2  0  0  0  0
 54 55  1  0  0  0  0
 56 55  1  0  0  0  0
 56 57  1  0  0  0  0
 58 57  1  0  0  0  0
 59 58  1  0  0  0  0
M  END
>  <REMARK>
 VINA RESULT:    -6.155      2.567      5.440
 INTER + INTRA:         -16.768
 INTER:                 -11.049
 INTRA:                  -5.719
 UNBOUND:                -5.216
 SMILES CC(=O)N[C@@H]1[C@@H](O)C[C@](O)(C(=O)O)O[C@H]1C(O)[C@H](O)CNC(=O)OCc1cn(-c2cc(C(=O)O)nc(-c3ccccc3)c2)nn1
 SMILES IDX 21 1 22 2 23 3 20 5 18 6 16 7 15 8 9 9 8 10 14 11 6 12 5 13
 SMILES IDX 10 14 11 16 12 17 13 18 7 20 4 22 2 23 1 25 3 26 17 27 19 29
 SMILES IDX 24 31 25 32 26 33 27 34 45 35 28 36 44 37 29 38 30 39 43 40
 SMILES IDX 31 41 36 42 35 43 32 44 33 45 34 46 37 48 38 49 42 50 39 51
 SMILES IDX 41 52 40 53
 H PARENT 21 4 10 15 13 19 7 21 4 24 17 28 19 30 34 47
 Flexibility Score: inf
  4 active torsions:
  status: ('A' for Active; 'I' for Inactive)
    1  A    between atoms: CA   and  CB  
    2  A    between atoms: CB   and  CG  
    3  A    between atoms: CG   and  CD  
    4  A    between atoms: CD   and  CE  

>  <TORSDO>
F 18

>  <BEGIN_>
RES LYS A 131

$$$$
ligand_64_pose_2_2HRL.pdbqt
 OpenBabel07062320523D

  6  5  0  0  0  0  0  0  0  0999 V2000
   33.1930   34.6630    9.2900 C   0  0  0  0  0  0  0  0  0  0  0  0
   32.0600   35.3600   10.0340 C   0  0  0  0  0  0  0  0  0  0  0  0
   30.7370   34.6470    9.9220 C   0  0  0  0  0  0  0  0  0  0  0  0
   30.3310   34.4940    8.4650 C   0  0  0  0  0  0  0  0  0  0  0  0
   28.8210   34.4350    8.3360 C   0  0  0  0  0  0  0  0  0  0  0  0
   28.2070   33.7700    9.5180 N   0  0  0  0  0  0  0  0  0  0  0  0
  1  2  1  0  0  0  0
  3  2  1  0  0  0  0
  4  3  1  0  0  0  0
  5  4  1  0  0  0  0
  5  6  1  0  0  0  0
M  END
>  <EGIN_R>
ES LYS A 135

>  <REMARK>
  4 active torsions:
  status: ('A' for Active; 'I' for Inactive)
    5  A    between atoms: CA   and  CB  
    6  A    between atoms: CB   and  CG  
    7  A    between atoms: CG   and  CD  
    8  A    between atoms: CD   and  CE  

$$$$
