ligand_75_pose_15_2HRL.pdbqt
 OpenBabel07062320523D

 55 56  0  0  1  0  0  0  0  0999 V2000
   25.6960   35.9180   10.5220 N   0  0  0  0  0  0  0  0  0  0  0  0
   26.7260   36.1800   11.4540 C   0  0  0  0  0  0  0  0  0  0  0  0
   27.5230   37.1320   11.3290 O   0  0  0  0  0  0  0  0  0  0  0  0
   25.0810   35.0600   10.7390 H   0  0  0  0  0  0  0  0  0  0  0  0
   25.4060   36.6800    9.3410 C   0  0  0  0  0  0  0  0  0  0  0  0
   24.0370   36.3750    8.8250 C   0  0  2  0  0  0  0  0  0  0  0  0
   23.2700   37.5970    8.3560 C   0  0  2  0  0  0  0  0  0  0  0  0
   21.8100   37.4220    8.5630 C   0  0  2  0  0  0  0  0  0  0  0  0
   19.7890   36.5230    7.8990 C   0  0  2  0  0  0  0  0  0  0  0  0
   19.3270   37.1460    9.1860 C   0  0  0  0  0  0  0  0  0  0  0  0
   21.1590   36.5700    7.7270 O   0  0  0  0  0  0  0  0  0  0  0  0
   19.8310   38.5170    9.4490 C   0  0  1  0  0  0  0  0  0  0  0  0
   21.0780   38.7610    8.6340 C   0  0  1  0  0  0  0  0  0  0  0  0
   19.0880   37.0890    6.8350 O   0  0  0  0  0  0  0  0  0  0  0  0
   18.3460   36.5240    6.5290 H   0  0  0  0  0  0  0  0  0  0  0  0
   19.4090   35.0840    7.9500 C   0  0  0  0  0  0  0  0  0  0  0  0
   19.3530   34.4920    9.0810 O   0  0  0  0  0  0  0  0  0  0  0  0
   19.1110   34.3540    6.8070 O   0  0  0  0  0  0  0  0  0  0  0  0
   19.3490   33.3890    6.7000 H   0  0  0  0  0  0  0  0  0  0  0  0
   18.8790   39.5100    9.2450 O   0  0  0  0  0  0  0  0  0  0  0  0
   18.4760   39.4030    8.3680 H   0  0  0  0  0  0  0  0  0  0  0  0
   21.8930   39.8100    9.1630 N   0  0  0  0  0  0  0  0  0  0  0  0
   21.7770   41.1580    8.7360 C   0  0  0  0  0  0  0  0  0  0  0  0
   22.6280   39.6170    9.9070 H   0  0  0  0  0  0  0  0  0  0  0  0
   22.6400   42.2070    9.3120 C   0  0  0  0  0  0  0  0  0  0  0  0
   20.9370   41.4830    7.8610 O   0  0  0  0  0  0  0  0  0  0  0  0
   23.6370   37.9880    7.0720 O   0  0  0  0  0  0  0  0  0  0  0  0
   24.4700   38.5050    7.1420 H   0  0  0  0  0  0  0  0  0  0  0  0
   23.2620   35.7030    9.7710 O   0  0  0  0  0  0  0  0  0  0  0  0
   22.3160   35.6970    9.4570 H   0  0  0  0  0  0  0  0  0  0  0  0
   26.9010   35.3610   12.5890 O   0  0  0  0  0  0  0  0  0  0  0  0
   25.9070   35.3380   13.5640 C   0  0  0  0  0  0  0  0  0  0  0  0
   24.7490   34.4920   13.1880 C   0  0  0  0  0  0  0  0  0  0  0  0
   24.5880   33.1280   13.2390 C   0  0  0  0  0  0  0  0  0  0  0  0
   23.5890   34.9650   12.7020 N   0  0  0  0  0  0  0  0  0  0  0  0
   23.3510   32.7990   12.7900 N   0  0  0  0  0  0  0  0  0  0  0  0
   22.7680   33.9390   12.4710 N   0  0  0  0  0  0  0  0  0  0  0  0
   22.8330   31.4710   12.7010 C   0  0  0  0  0  0  0  0  0  0  0  0
   21.5100   31.2400   12.4320 C   0  0  0  0  0  0  0  0  0  0  0  0
   23.6640   30.3900   12.8880 C   0  0  0  0  0  0  0  0  0  0  0  0
   20.9850   29.9210   12.3430 C   0  0  0  0  0  0  0  0  0  0  0  0
   23.2240   29.1020   12.8150 C   0  0  0  0  0  0  0  0  0  0  0  0
   21.8630   28.8870   12.5380 C   0  0  0  0  0  0  0  0  0  0  0  0
   19.6120   29.7470   12.0200 C   0  0  0  0  0  0  0  0  0  0  0  0
   18.7830   28.8010   11.8040 C   0  0  0  0  0  0  0  0  0  0  0  0
   18.8320   27.3940   11.7860 C   0  0  0  0  0  0  0  0  0  0  0  0
   18.8200   26.7860   10.6010 O   0  0  0  0  0  0  0  0  0  0  0  0
   18.8890   26.4590   12.7890 O   0  0  0  0  0  0  0  0  0  0  0  0
   19.4190   26.5830   13.6380 H   0  0  0  0  0  0  0  0  0  0  0  0
   29.8670   25.5550   16.9770 C   0  0  0  0  0  0  0  0  0  0  0  0
   28.3450   25.7220   17.0260 C   0  0  0  0  0  0  0  0  0  0  0  0
   27.6010   24.4040   16.8780 C   0  0  0  0  0  0  0  0  0  0  0  0
   26.5390   24.2310   17.9280 C   0  0  0  0  0  0  0  0  0  0  0  0
   25.2040   23.9280   17.2570 C   0  0  0  0  0  0  0  0  0  0  0  0
   24.2640   23.3140   18.2250 N   0  0  0  0  0  0  0  0  0  0  0  0
  1  4  1  0  0  0  0
  1  2  1  0  0  0  0
  2 31  1  0  0  0  0
  3  2  2  0  0  0  0
  5  1  1  0  0  0  0
  6  5  1  1  0  0  0
  6 29  1  0  0  0  0
  7 27  1  6  0  0  0
  7  6  1  0  0  0  0
  8  7  1  6  0  0  0
  8 13  1  0  0  0  0
  9 14  1  6  0  0  0
  9 16  1  0  0  0  0
  9 10  1  0  0  0  0
 10 12  1  0  0  0  0
 11  9  1  0  0  0  0
 11  8  1  0  0  0  0
 12 20  1  6  0  0  0
 13 22  1  1  0  0  0
 13 12  1  0  0  0  0
 15 14  1  0  0  0  0
 16 17  2  0  0  0  0
 18 16  1  0  0  0  0
 19 18  1  0  0  0  0
 21 20  1  0  0  0  0
 22 24  1  0  0  0  0
 23 22  1  0  0  0  0
 23 25  1  0  0  0  0
 26 23  2  0  0  0  0
 27 28  1  0  0  0  0
 30 29  1  0  0  0  0
 31 32  1  0  0  0  0
 33 34  2  0  0  0  0
 33 32  1  0  0  0  0
 35 33  1  0  0  0  0
 36 34  1  0  0  0  0
 37 35  2  0  0  0  0
 37 36  1  0  0  0  0
 38 36  1  0  0  0  0
 38 40  2  0  0  0  0
 39 38  1  0  0  0  0
 41 39  2  0  0  0  0
 41 43  1  0  0  0  0
 42 40  1  0  0  0  0
 43 42  2  0  0  0  0
 44 41  1  0  0  0  0
 45 44  2  0  0  0  0
 46 45  1  0  0  0  0
 46 48  1  0  0  0  0
 47 46  2  0  0  0  0
 48 49  1  0  0  0  0
 50 51  1  0  0  0  0
 52 51  1  0  0  0  0
 52 53  1  0  0  0  0
 54 53  1  0  0  0  0
 54 55  1  0  0  0  0
M  END
>  <REMARK>
 VINA RESULT:    -4.891      4.110      7.066
 INTER + INTRA:         -15.498
 INTER:                  -9.897
 INTRA:                  -5.601
 UNBOUND:                -6.317
 SMILES CC(=O)N[C@@H]1[C@@H](O)C[C@](O)(C(=O)O)O[C@H]1C(O)[C@H](O)CNC(=O)OCc1cn(-c2cccc(C=CC(=O)O)c2)nn1
 SMILES IDX 21 1 22 2 23 3 20 5 18 6 16 7 15 8 9 9 8 10 14 11 6 12 5 13
 SMILES IDX 10 14 11 16 12 17 13 18 7 20 4 22 2 23 1 25 3 26 17 27 19 29
 SMILES IDX 24 31 25 32 26 33 27 34 41 35 28 36 40 37 29 38 39 39 30 40
 SMILES IDX 33 41 31 42 32 43 34 44 35 45 36 46 37 47 38 48
 H PARENT 21 4 10 15 13 19 7 21 4 24 17 28 19 30 38 49
 Flexibility Score: inf
  4 active torsions:
  status: ('A' for Active; 'I' for Inactive)
    1  A    between atoms: CA   and  CB  
    2  A    between atoms: CB   and  CG  
    3  A    between atoms: CG   and  CD  
    4  A    between atoms: CD   and  CE  

>  <TORSDO>
F 18

>  <BEGIN_>
RES LYS A 131

$$$$
ligand_75_pose_15_2HRL.pdbqt
 OpenBabel07062320523D

  6  5  0  0  0  0  0  0  0  0999 V2000
   33.1930   34.6630    9.2900 C   0  0  0  0  0  0  0  0  0  0  0  0
   32.0600   35.3600   10.0340 C   0  0  0  0  0  0  0  0  0  0  0  0
   30.7250   34.6800    9.8730 C   0  0  0  0  0  0  0  0  0  0  0  0
   30.3050   34.6620    8.4110 C   0  0  0  0  0  0  0  0  0  0  0  0
   28.7960   34.5680    8.2910 C   0  0  0  0  0  0  0  0  0  0  0  0
   28.2200   33.7500    9.3950 N   0  0  0  0  0  0  0  0  0  0  0  0
  1  2  1  0  0  0  0
  3  2  1  0  0  0  0
  4  3  1  0  0  0  0
  5  4  1  0  0  0  0
  5  6  1  0  0  0  0
M  END
>  <EGIN_R>
ES LYS A 135

>  <REMARK>
  4 active torsions:
  status: ('A' for Active; 'I' for Inactive)
    5  A    between atoms: CA   and  CB  
    6  A    between atoms: CB   and  CG  
    7  A    between atoms: CG   and  CD  
    8  A    between atoms: CD   and  CE  

$$$$
