ligand_7_pose_1_2HRL.pdbqt
 OpenBabel07062320523D

 52 53  0  0  1  0  0  0  0  0999 V2000
   27.7120   36.5050   11.9890 C   0  0  0  0  0  0  0  0  0  0  0  0
   27.0390   37.2740   10.9100 C   0  0  2  0  0  0  0  0  0  0  0  0
   26.2590   36.4600    9.9290 C   0  0  1  0  0  0  0  0  0  0  0  0
   26.9920   36.0140    8.7190 C   0  0  2  0  0  0  0  0  0  0  0  0
   29.2250   35.6730    8.1170 C   0  0  2  0  0  0  0  0  0  0  0  0
   28.8490   35.6240    6.6630 C   0  0  0  0  0  0  0  0  0  0  0  0
   28.2020   35.4450    8.9860 O   0  0  0  0  0  0  0  0  0  0  0  0
   27.5100   36.2080    6.3670 C   0  0  1  0  0  0  0  0  0  0  0  0
   27.0470   37.0080    7.5980 C   0  0  1  0  0  0  0  0  0  0  0  0
   29.8160   36.9110    8.3620 O   0  0  0  0  0  0  0  0  0  0  0  0
   29.4330   37.5620    7.7060 H   0  0  0  0  0  0  0  0  0  0  0  0
   30.2490   34.6160    8.3300 C   0  0  0  0  0  0  0  0  0  0  0  0
   30.0970   33.7570    9.2220 O   0  0  0  0  0  0  0  0  0  0  0  0
   31.4020   34.5630    7.5360 O   0  0  0  0  0  0  0  0  0  0  0  0
   32.1090   33.8440    7.7480 H   0  0  0  0  0  0  0  0  0  0  0  0
   27.4540   36.9650    5.2140 O   0  0  0  0  0  0  0  0  0  0  0  0
   28.3380   37.4300    5.1220 H   0  0  0  0  0  0  0  0  0  0  0  0
   25.7430   37.5080    7.2480 N   0  0  0  0  0  0  0  0  0  0  0  0
   25.4390   38.8640    7.5410 C   0  0  0  0  0  0  0  0  0  0  0  0
   25.0140   36.9100    6.7860 H   0  0  0  0  0  0  0  0  0  0  0  0
   24.1220   39.4740    7.2220 C   0  0  0  0  0  0  0  0  0  0  0  0
   26.2930   39.6030    8.0920 O   0  0  0  0  0  0  0  0  0  0  0  0
   25.7510   35.3510   10.6010 O   0  0  0  0  0  0  0  0  0  0  0  0
   24.9040   35.0930   10.1600 H   0  0  0  0  0  0  0  0  0  0  0  0
   27.9230   38.1600   10.2900 O   0  0  0  0  0  0  0  0  0  0  0  0
   27.7950   38.1850    9.3090 H   0  0  0  0  0  0  0  0  0  0  0  0
   26.8470   36.2380   13.1210 N   0  0  0  0  0  0  0  0  0  0  0  0
   27.0590   35.1580   14.0230 C   0  0  0  0  0  0  0  0  0  0  0  0
   25.9980   36.8390   13.3410 H   0  0  0  0  0  0  0  0  0  0  0  0
   28.0230   34.3860   13.8630 O   0  0  0  0  0  0  0  0  0  0  0  0
   26.1980   34.9390   15.1020 O   0  0  0  0  0  0  0  0  0  0  0  0
   24.8450   35.4130   15.0190 C   0  0  0  0  0  0  0  0  0  0  0  0
   24.1360   34.6130   13.9880 C   0  0  0  0  0  0  0  0  0  0  0  0
   23.4940   33.4060   14.2080 C   0  0  0  0  0  0  0  0  0  0  0  0
   23.9760   34.8780   12.6990 N   0  0  0  0  0  0  0  0  0  0  0  0
   22.9650   32.9700   13.0620 N   0  0  0  0  0  0  0  0  0  0  0  0
   23.2880   33.9120   12.1590 N   0  0  0  0  0  0  0  0  0  0  0  0
   22.2200   31.7920   12.7860 C   0  0  0  0  0  0  0  0  0  0  0  0
   22.8470   30.5670   12.7460 C   0  0  0  0  0  0  0  0  0  0  0  0
   20.8550   31.8290   12.5480 C   0  0  0  0  0  0  0  0  0  0  0  0
   24.3040   30.5000   12.9980 C   0  0  0  0  0  0  0  0  0  0  0  0
   22.1090   29.4080   12.4720 C   0  0  0  0  0  0  0  0  0  0  0  0
   20.1360   30.6800   12.2790 C   0  0  0  0  0  0  0  0  0  0  0  0
   20.1870   33.1780   12.5960 C   0  0  0  0  0  0  0  0  0  0  0  0
   20.7510   29.4480   12.2370 C   0  0  0  0  0  0  0  0  0  0  0  0
   19.9870   28.1970   11.9480 C   0  0  0  0  0  0  0  0  0  0  0  0
   29.8670   25.5550   16.9770 C   0  0  0  0  0  0  0  0  0  0  0  0
   28.3450   25.7220   17.0260 C   0  0  0  0  0  0  0  0  0  0  0  0
   27.6010   24.4010   16.9030 C   0  0  0  0  0  0  0  0  0  0  0  0
   26.1550   24.5270   17.2920 C   0  0  0  0  0  0  0  0  0  0  0  0
   25.9500   23.9450   18.6880 C   0  0  0  0  0  0  0  0  0  0  0  0
   25.5280   25.0040   19.6350 N   0  0  0  0  0  0  0  0  0  0  0  0
  1 27  1  0  0  0  0
  2  1  1  1  0  0  0
  3 23  1  1  0  0  0
  3  2  1  0  0  0  0
  4  7  1  0  0  0  0
  4  3  1  1  0  0  0
  5 12  1  1  0  0  0
  5 10  1  0  0  0  0
  5  7  1  0  0  0  0
  6  5  1  0  0  0  0
  8 16  1  6  0  0  0
  8  6  1  0  0  0  0
  8  9  1  0  0  0  0
  9 18  1  6  0  0  0
  9  4  1  0  0  0  0
 11 10  1  0  0  0  0
 12 13  2  0  0  0  0
 14 15  1  0  0  0  0
 14 12  1  0  0  0  0
 17 16  1  0  0  0  0
 18 19  1  0  0  0  0
 19 22  2  0  0  0  0
 20 18  1  0  0  0  0
 21 19  1  0  0  0  0
 24 23  1  0  0  0  0
 25  2  1  0  0  0  0
 26 25  1  0  0  0  0
 27 29  1  0  0  0  0
 27 28  1  0  0  0  0
 28 31  1  0  0  0  0
 30 28  2  0  0  0  0
 32 31  1  0  0  0  0
 33 34  2  0  0  0  0
 33 32  1  0  0  0  0
 35 33  1  0  0  0  0
 36 34  1  0  0  0  0
 37 35  2  0  0  0  0
 37 36  1  0  0  0  0
 38 36  1  0  0  0  0
 39 38  1  0  0  0  0
 39 41  1  0  0  0  0
 40 44  1  0  0  0  0
 40 38  2  0  0  0  0
 42 39  2  0  0  0  0
 43 40  1  0  0  0  0
 45 43  2  0  0  0  0
 45 42  1  0  0  0  0
 46 45  1  0  0  0  0
 47 48  1  0  0  0  0
 49 48  1  0  0  0  0
 49 50  1  0  0  0  0
 50 51  1  0  0  0  0
 51 52  1  0  0  0  0
M  END
>  <REMARK>
 VINA RESULT:    -4.999      6.897     12.663
 INTER + INTRA:         -14.568
 INTER:                 -10.652
 INTRA:                  -3.916
 UNBOUND:                -5.917
 SMILES CC(=O)N[C@@H]1[C@@H](O)C[C@](O)(C(=O)O)O[C@H]1C(O)[C@H](O)CNC(=O)OCc1cn(-c2c(C)cc(C)cc2C)nn1
 SMILES IDX 20 1 18 2 16 3 15 4 9 5 8 6 14 7 6 8 5 9 10 10 11 12 12 13
 SMILES IDX 13 14 7 16 4 18 2 19 1 21 3 22 17 23 19 25 21 27 22 28 23 30
 SMILES IDX 24 31 25 32 26 33 27 34 39 35 28 36 38 37 29 38 30 39 36 40
 SMILES IDX 31 41 32 42 35 43 37 44 33 45 34 46
 H PARENT 10 11 13 15 7 17 4 20 17 24 19 26 21 29
 Flexibility Score: inf
  4 active torsions:
  status: ('A' for Active; 'I' for Inactive)
    1  A    between atoms: CA   and  CB  
    2  A    between atoms: CB   and  CG  
    3  A    between atoms: CG   and  CD  
    4  A    between atoms: CD   and  CE  

>  <TORSDO>
F 15

>  <BEGIN_>
RES LYS A 131

$$$$
ligand_7_pose_1_2HRL.pdbqt
 OpenBabel07062320523D

  6  5  0  0  0  0  0  0  0  0999 V2000
   33.1930   34.6630    9.2900 C   0  0  0  0  0  0  0  0  0  0  0  0
   32.0600   35.3600   10.0340 C   0  0  0  0  0  0  0  0  0  0  0  0
   32.4720   35.9190   11.3720 C   0  0  0  0  0  0  0  0  0  0  0  0
   31.8940   37.3110   11.5720 C   0  0  0  0  0  0  0  0  0  0  0  0
   31.4990   37.5200   13.0220 C   0  0  0  0  0  0  0  0  0  0  0  0
   32.1900   36.5460   13.9120 N   0  0  0  0  0  0  0  0  0  0  0  0
  1  2  1  0  0  0  0
  2  3  1  0  0  0  0
  3  4  1  0  0  0  0
  4  5  1  0  0  0  0
  5  6  1  0  0  0  0
M  END
>  <EGIN_R>
ES LYS A 135

>  <REMARK>
  4 active torsions:
  status: ('A' for Active; 'I' for Inactive)
    5  A    between atoms: CA   and  CB  
    6  A    between atoms: CB   and  CG  
    7  A    between atoms: CG   and  CD  
    8  A    between atoms: CD   and  CE  

$$$$
