ligand_39_pose_9_2HRL.pdbqt
 OpenBabel07062320523D

 51 52  0  0  1  0  0  0  0  0999 V2000
   26.6810   35.8950    7.6310 N   0  0  0  0  0  0  0  0  0  0  0  0
   25.5470   36.2940    8.3470 C   0  0  0  0  0  0  0  0  0  0  0  0
   24.7550   37.1290    7.8290 O   0  0  0  0  0  0  0  0  0  0  0  0
   27.3190   35.1930    8.0980 H   0  0  0  0  0  0  0  0  0  0  0  0
   27.0400   36.3720    6.3130 C   0  0  0  0  0  0  0  0  0  0  0  0
   28.4600   36.8950    6.3360 C   0  0  2  0  0  0  0  0  0  0  0  0
   28.6750   37.9520    5.2730 C   0  0  2  0  0  0  0  0  0  0  0  0
   29.4840   39.1240    5.7910 C   0  0  2  0  0  0  0  0  0  0  0  0
   31.2720   39.5560    7.2250 C   0  0  2  0  0  0  0  0  0  0  0  0
   30.4960   40.5550    7.9960 C   0  0  0  0  0  0  0  0  0  0  0  0
   30.4180   38.6280    6.6490 O   0  0  0  0  0  0  0  0  0  0  0  0
   29.0420   40.6430    7.7380 C   0  0  1  0  0  0  0  0  0  0  0  0
   28.5970   40.1840    6.3790 C   0  0  1  0  0  0  0  0  0  0  0  0
   32.0660   38.8060    8.1300 O   0  0  0  0  0  0  0  0  0  0  0  0
   32.0180   39.1850    9.0470 H   0  0  0  0  0  0  0  0  0  0  0  0
   32.1790   40.1910    6.2670 C   0  0  0  0  0  0  0  0  0  0  0  0
   32.1460   41.4230    5.9950 O   0  0  0  0  0  0  0  0  0  0  0  0
   33.1260   39.4170    5.6130 O   0  0  0  0  0  0  0  0  0  0  0  0
   33.4480   39.6160    4.6730 H   0  0  0  0  0  0  0  0  0  0  0  0
   28.3240   39.9770    8.7490 O   0  0  0  0  0  0  0  0  0  0  0  0
   28.9120   39.1940    8.9970 H   0  0  0  0  0  0  0  0  0  0  0  0
   28.4000   41.3000    5.4810 N   0  0  0  0  0  0  0  0  0  0  0  0
   27.1260   41.6580    4.9710 C   0  0  0  0  0  0  0  0  0  0  0  0
   29.2170   41.8720    5.1900 H   0  0  0  0  0  0  0  0  0  0  0  0
   26.9070   42.8050    4.0450 C   0  0  0  0  0  0  0  0  0  0  0  0
   26.1380   40.9390    5.3440 O   0  0  0  0  0  0  0  0  0  0  0  0
   27.4490   38.3510    4.7500 O   0  0  0  0  0  0  0  0  0  0  0  0
   26.9450   37.5300    4.4580 H   0  0  0  0  0  0  0  0  0  0  0  0
   29.2750   35.7680    6.0750 O   0  0  0  0  0  0  0  0  0  0  0  0
   30.2050   35.9310    6.2990 H   0  0  0  0  0  0  0  0  0  0  0  0
   25.2140   35.8310    9.6110 O   0  0  0  0  0  0  0  0  0  0  0  0
   24.9090   36.7490   10.6480 C   0  0  0  0  0  0  0  0  0  0  0  0
   26.1250   37.4180   11.1540 C   0  0  0  0  0  0  0  0  0  0  0  0
   26.8930   37.0420   12.2660 C   0  0  0  0  0  0  0  0  0  0  0  0
   26.7530   38.5030   10.6870 N   0  0  0  0  0  0  0  0  0  0  0  0
   27.9130   37.8650   12.4380 N   0  0  0  0  0  0  0  0  0  0  0  0
   27.8010   38.7700   11.4360 N   0  0  0  0  0  0  0  0  0  0  0  0
   28.9850   37.9590   13.4000 C   0  0  0  0  0  0  0  0  0  0  0  0
   30.1610   37.1460   13.1220 C   0  0  0  0  0  0  0  0  0  0  0  0
   30.2350   35.8190   13.5520 C   0  0  0  0  0  0  0  0  0  0  0  0
   31.2230   37.6210   12.4080 C   0  0  0  0  0  0  0  0  0  0  0  0
   31.3330   35.0600   13.2540 C   0  0  0  0  0  0  0  0  0  0  0  0
   32.3320   36.8500   12.1090 C   0  0  0  0  0  0  0  0  0  0  0  0
   31.2730   39.4510   11.7960 Br  0  0  0  0  0  0  0  0  0  0  0  0
   32.3960   35.5470   12.5350 C   0  0  0  0  0  0  0  0  0  0  0  0
   29.8670   25.5550   16.9770 C   0  0  0  0  0  0  0  0  0  0  0  0
   28.3450   25.7220   17.0260 C   0  0  0  0  0  0  0  0  0  0  0  0
   27.6020   24.4000   16.9140 C   0  0  0  0  0  0  0  0  0  0  0  0
   26.3320   24.3940   17.7200 C   0  0  0  0  0  0  0  0  0  0  0  0
   26.1610   25.7430   18.4100 C   0  0  0  0  0  0  0  0  0  0  0  0
   25.7450   25.5560   19.8200 N   0  0  0  0  0  0  0  0  0  0  0  0
  1  4  1  0  0  0  0
  1  2  1  0  0  0  0
  2 31  1  0  0  0  0
  3  2  2  0  0  0  0
  5  1  1  0  0  0  0
  6  5  1  6  0  0  0
  7 27  1  1  0  0  0
  7  6  1  0  0  0  0
  8  7  1  1  0  0  0
  8 13  1  0  0  0  0
  8 11  1  0  0  0  0
  9 16  1  6  0  0  0
  9 10  1  0  0  0  0
  9 14  1  0  0  0  0
 11  9  1  0  0  0  0
 12 10  1  0  0  0  0
 12 20  1  1  0  0  0
 13 22  1  6  0  0  0
 13 12  1  0  0  0  0
 14 15  1  0  0  0  0
 17 16  2  0  0  0  0
 18 16  1  0  0  0  0
 19 18  1  0  0  0  0
 20 21  1  0  0  0  0
 23 26  2  0  0  0  0
 23 22  1  0  0  0  0
 24 22  1  0  0  0  0
 25 23  1  0  0  0  0
 28 27  1  0  0  0  0
 29 30  1  0  0  0  0
 29  6  1  0  0  0  0
 31 32  1  0  0  0  0
 32 33  1  0  0  0  0
 33 34  2  0  0  0  0
 34 36  1  0  0  0  0
 35 33  1  0  0  0  0
 35 37  2  0  0  0  0
 36 38  1  0  0  0  0
 37 36  1  0  0  0  0
 39 38  1  0  0  0  0
 39 40  2  0  0  0  0
 41 39  1  0  0  0  0
 42 40  1  0  0  0  0
 43 41  2  0  0  0  0
 43 45  1  0  0  0  0
 44 41  1  0  0  0  0
 45 42  2  0  0  0  0
 46 47  1  0  0  0  0
 48 47  1  0  0  0  0
 48 49  1  0  0  0  0
 49 50  1  0  0  0  0
 50 51  1  0  0  0  0
M  END
>  <REMARK>
 VINA RESULT:    -4.016      7.814     12.919
 INTER + INTRA:         -14.612
 INTER:                  -8.911
 INTRA:                  -5.700
 UNBOUND:                -7.426
 SMILES CC(=O)N[C@@H]1[C@@H](O)C[C@](O)(C(=O)O)O[C@H]1C(O)[C@H](O)CNC(=O)OCc1cn(Cc2ccccc2Br)nn1
 SMILES IDX 21 1 22 2 23 3 20 5 18 6 16 7 15 8 9 9 8 10 14 11 6 12 5 13
 SMILES IDX 10 14 11 16 12 17 13 18 7 20 4 22 2 23 1 25 3 26 17 27 19 29
 SMILES IDX 24 31 25 32 26 33 27 34 38 35 28 36 37 37 29 38 30 39 31 40
 SMILES IDX 35 41 32 42 34 43 36 44 33 45
 H PARENT 21 4 10 15 13 19 7 21 4 24 17 28 19 30
 Flexibility Score: inf
  4 active torsions:
  status: ('A' for Active; 'I' for Inactive)
    1  A    between atoms: CA   and  CB  
    2  A    between atoms: CB   and  CG  
    3  A    between atoms: CG   and  CD  
    4  A    between atoms: CD   and  CE  

>  <TORSDO>
F 16

>  <BEGIN_>
RES LYS A 131

$$$$
ligand_39_pose_9_2HRL.pdbqt
 OpenBabel07062320523D

  6  5  0  0  0  0  0  0  0  0999 V2000
   33.1930   34.6630    9.2900 C   0  0  0  0  0  0  0  0  0  0  0  0
   32.0600   35.3600   10.0340 C   0  0  0  0  0  0  0  0  0  0  0  0
   30.8730   35.6790    9.1620 C   0  0  0  0  0  0  0  0  0  0  0  0
   29.5780   35.2810    9.8520 C   0  0  0  0  0  0  0  0  0  0  0  0
   29.0630   33.9650    9.3010 C   0  0  0  0  0  0  0  0  0  0  0  0
   27.7320   33.6260    9.8770 N   0  0  0  0  0  0  0  0  0  0  0  0
  1  2  1  0  0  0  0
  3  4  1  0  0  0  0
  3  2  1  0  0  0  0
  5  4  1  0  0  0  0
  5  6  1  0  0  0  0
M  END
>  <EGIN_R>
ES LYS A 135

>  <REMARK>
  4 active torsions:
  status: ('A' for Active; 'I' for Inactive)
    5  A    between atoms: CA   and  CB  
    6  A    between atoms: CB   and  CG  
    7  A    between atoms: CG   and  CD  
    8  A    between atoms: CD   and  CE  

$$$$
