ligand_12_pose_15_2HRL.pdbqt
 OpenBabel07062320523D

 52 53  0  0  1  0  0  0  0  0999 V2000
   27.7800   28.9530   17.4210 N   0  0  0  0  0  0  0  0  0  0  0  0
   27.0050   29.7080   16.4920 C   0  0  0  0  0  0  0  0  0  0  0  0
   25.7410   29.6090   16.4590 O   0  0  0  0  0  0  0  0  0  0  0  0
   28.8070   29.0590   17.4200 H   0  0  0  0  0  0  0  0  0  0  0  0
   27.0620   28.0730   18.3210 C   0  0  0  0  0  0  0  0  0  0  0  0
   27.7580   27.9260   19.6470 C   0  0  2  0  0  0  0  0  0  0  0  0
   28.5260   29.1900   19.9710 C   0  0  2  0  0  0  0  0  0  0  0  0
   29.4520   29.0230   21.1290 C   0  0  2  0  0  0  0  0  0  0  0  0
   31.5820   28.2230   21.6350 C   0  0  2  0  0  0  0  0  0  0  0  0
   31.0570   28.1050   23.0580 C   0  0  0  0  0  0  0  0  0  0  0  0
   30.5660   28.3150   20.6890 O   0  0  0  0  0  0  0  0  0  0  0  0
   29.7340   27.3750   22.9750 C   0  0  1  0  0  0  0  0  0  0  0  0
   28.7740   28.3390   22.2960 C   0  0  1  0  0  0  0  0  0  0  0  0
   32.2380   27.0210   21.3780 O   0  0  0  0  0  0  0  0  0  0  0  0
   32.5010   26.9360   20.4270 H   0  0  0  0  0  0  0  0  0  0  0  0
   32.5500   29.3220   21.5300 C   0  0  0  0  0  0  0  0  0  0  0  0
   32.1700   30.4430   21.1110 O   0  0  0  0  0  0  0  0  0  0  0  0
   33.8910   29.1980   21.8730 O   0  0  0  0  0  0  0  0  0  0  0  0
   34.1460   29.3370   22.8460 H   0  0  0  0  0  0  0  0  0  0  0  0
   29.8430   26.1970   22.2420 O   0  0  0  0  0  0  0  0  0  0  0  0
   29.2310   26.2620   21.4460 H   0  0  0  0  0  0  0  0  0  0  0  0
   28.4090   29.3340   23.2810 N   0  0  0  0  0  0  0  0  0  0  0  0
   27.0620   29.7730   23.3850 C   0  0  0  0  0  0  0  0  0  0  0  0
   29.0950   29.7670   23.9470 H   0  0  0  0  0  0  0  0  0  0  0  0
   26.6310   30.7930   24.3800 C   0  0  0  0  0  0  0  0  0  0  0  0
   26.1750   29.3050   22.6250 O   0  0  0  0  0  0  0  0  0  0  0  0
   27.6570   30.2490   20.0700 O   0  0  0  0  0  0  0  0  0  0  0  0
   27.7110   30.7620   19.2140 H   0  0  0  0  0  0  0  0  0  0  0  0
   28.5940   26.8180   19.5980 O   0  0  0  0  0  0  0  0  0  0  0  0
   29.4800   27.0800   19.2310 H   0  0  0  0  0  0  0  0  0  0  0  0
   27.5850   30.5820   15.5830 O   0  0  0  0  0  0  0  0  0  0  0  0
   27.7990   31.9550   15.8380 C   0  0  0  0  0  0  0  0  0  0  0  0
   29.1920   32.3770   15.5750 C   0  0  0  0  0  0  0  0  0  0  0  0
   29.6960   33.5520   15.0570 C   0  0  0  0  0  0  0  0  0  0  0  0
   30.2730   31.6150   15.8200 N   0  0  0  0  0  0  0  0  0  0  0  0
   31.0480   33.4740   15.0010 N   0  0  0  0  0  0  0  0  0  0  0  0
   31.3530   32.2810   15.4750 N   0  0  0  0  0  0  0  0  0  0  0  0
   31.9830   34.5010   14.5150 C   0  0  0  0  0  0  0  0  0  0  0  0
   32.9170   34.7780   15.5090 O   0  0  0  0  0  0  0  0  0  0  0  0
   32.4500   35.6760   16.4400 C   0  0  0  0  0  0  0  0  0  0  0  0
   32.5930   35.2360   17.8420 C   0  0  0  0  0  0  0  0  0  0  0  0
   31.6880   34.3390   18.3740 C   0  0  0  0  0  0  0  0  0  0  0  0
   33.6150   35.6970   18.6320 C   0  0  0  0  0  0  0  0  0  0  0  0
   31.8080   33.9040   19.6970 C   0  0  0  0  0  0  0  0  0  0  0  0
   33.7290   35.2630   19.9430 C   0  0  0  0  0  0  0  0  0  0  0  0
   32.8430   34.3800   20.4770 C   0  0  0  0  0  0  0  0  0  0  0  0
   29.8670   25.5550   16.9770 C   0  0  0  0  0  0  0  0  0  0  0  0
   28.3450   25.7220   17.0260 C   0  0  0  0  0  0  0  0  0  0  0  0
   27.6020   24.4000   16.9160 C   0  0  0  0  0  0  0  0  0  0  0  0
   26.5310   24.2630   17.9620 C   0  0  0  0  0  0  0  0  0  0  0  0
   25.1590   24.3580   17.3020 C   0  0  0  0  0  0  0  0  0  0  0  0
   24.4420   25.5690   17.7680 N   0  0  0  0  0  0  0  0  0  0  0  0
  1  5  1  0  0  0  0
  2  1  1  0  0  0  0
  3  2  2  0  0  0  0
  4  1  1  0  0  0  0
  6  5  1  6  0  0  0
  6  7  1  0  0  0  0
  7 27  1  1  0  0  0
  8  7  1  6  0  0  0
  8 13  1  0  0  0  0
  9 14  1  6  0  0  0
  9 10  1  0  0  0  0
 11  8  1  0  0  0  0
 11  9  1  0  0  0  0
 12 20  1  6  0  0  0
 12 10  1  0  0  0  0
 13 12  1  0  0  0  0
 13 22  1  1  0  0  0
 15 14  1  0  0  0  0
 16  9  1  0  0  0  0
 16 18  1  0  0  0  0
 17 16  2  0  0  0  0
 18 19  1  0  0  0  0
 21 20  1  0  0  0  0
 22 23  1  0  0  0  0
 22 24  1  0  0  0  0
 23 25  1  0  0  0  0
 26 23  2  0  0  0  0
 28 27  1  0  0  0  0
 29  6  1  0  0  0  0
 30 29  1  0  0  0  0
 31 32  1  0  0  0  0
 31  2  1  0  0  0  0
 33 35  1  0  0  0  0
 33 32  1  0  0  0  0
 34 33  2  0  0  0  0
 36 34  1  0  0  0  0
 36 37  1  0  0  0  0
 37 35  2  0  0  0  0
 38 36  1  0  0  0  0
 38 39  1  0  0  0  0
 39 40  1  0  0  0  0
 40 41  1  0  0  0  0
 41 42  2  0  0  0  0
 41 43  1  0  0  0  0
 42 44  1  0  0  0  0
 43 45  2  0  0  0  0
 44 46  2  0  0  0  0
 45 46  1  0  0  0  0
 47 48  1  0  0  0  0
 49 48  1  0  0  0  0
 49 50  1  0  0  0  0
 51 52  1  0  0  0  0
 51 50  1  0  0  0  0
M  END
>  <REMARK>
 VINA RESULT:    -5.882      7.105     13.268
 INTER + INTRA:         -14.985
 INTER:                  -9.407
 INTRA:                  -5.578
 UNBOUND:                -3.774
 SMILES CC(=O)N[C@@H]1[C@@H](O)C[C@](O)(C(=O)O)O[C@H]1C(O)[C@H](O)CNC(=O)OCc1cn(COCc2ccccc2)nn1
 SMILES IDX 21 1 22 2 23 3 20 5 18 6 16 7 15 8 9 9 8 10 14 11 6 12 5 13
 SMILES IDX 10 14 11 16 12 17 13 18 7 20 4 22 2 23 1 25 3 26 17 27 19 29
 SMILES IDX 24 31 25 32 26 33 27 34 39 35 28 36 38 37 29 38 30 39 31 40
 SMILES IDX 32 41 33 42 37 43 34 44 36 45 35 46
 H PARENT 21 4 10 15 13 19 7 21 4 24 17 28 19 30
 Flexibility Score: inf
  4 active torsions:
  status: ('A' for Active; 'I' for Inactive)
    1  A    between atoms: CA   and  CB  
    2  A    between atoms: CB   and  CG  
    3  A    between atoms: CG   and  CD  
    4  A    between atoms: CD   and  CE  

>  <TORSDO>
F 18

>  <BEGIN_>
RES LYS A 131

$$$$
ligand_12_pose_15_2HRL.pdbqt
 OpenBabel07062320523D

  6  5  0  0  0  0  0  0  0  0999 V2000
   33.1930   34.6630    9.2900 C   0  0  0  0  0  0  0  0  0  0  0  0
   32.0600   35.3600   10.0340 C   0  0  0  0  0  0  0  0  0  0  0  0
   30.7120   34.7250    9.8100 C   0  0  0  0  0  0  0  0  0  0  0  0
   30.4850   34.4540    8.3310 C   0  0  0  0  0  0  0  0  0  0  0  0
   29.4060   35.3680    7.7820 C   0  0  0  0  0  0  0  0  0  0  0  0
   28.0530   34.7760    7.9730 N   0  0  0  0  0  0  0  0  0  0  0  0
  1  2  1  0  0  0  0
  3  2  1  0  0  0  0
  4  3  1  0  0  0  0
  5  6  1  0  0  0  0
  5  4  1  0  0  0  0
M  END
>  <EGIN_R>
ES LYS A 135

>  <REMARK>
  4 active torsions:
  status: ('A' for Active; 'I' for Inactive)
    5  A    between atoms: CA   and  CB  
    6  A    between atoms: CB   and  CG  
    7  A    between atoms: CG   and  CD  
    8  A    between atoms: CD   and  CE  

$$$$
