ligand_7_pose_12_2HRL.pdbqt
 OpenBabel07062320523D

 52 53  0  0  1  0  0  0  0  0999 V2000
   29.9620   31.1070   18.7280 C   0  0  0  0  0  0  0  0  0  0  0  0
   30.1160   31.9470   17.5120 C   0  0  2  0  0  0  0  0  0  0  0  0
   29.1970   33.1220   17.4180 C   0  0  1  0  0  0  0  0  0  0  0  0
   29.6790   34.2670   16.6100 C   0  0  2  0  0  0  0  0  0  0  0  0
   30.9330   34.5590   14.6570 C   0  0  2  0  0  0  0  0  0  0  0  0
   31.1330   36.0130   14.9770 C   0  0  0  0  0  0  0  0  0  0  0  0
   29.8850   33.9660   15.2960 O   0  0  0  0  0  0  0  0  0  0  0  0
   30.8710   36.3590   16.4030 C   0  0  1  0  0  0  0  0  0  0  0  0
   30.8050   35.0520   17.2130 C   0  0  1  0  0  0  0  0  0  0  0  0
   32.1230   33.8940   14.9380 O   0  0  0  0  0  0  0  0  0  0  0  0
   32.8120   34.2220   14.2910 H   0  0  0  0  0  0  0  0  0  0  0  0
   30.6820   34.4720   13.1940 C   0  0  0  0  0  0  0  0  0  0  0  0
   29.5180   34.3840   12.7540 O   0  0  0  0  0  0  0  0  0  0  0  0
   31.7460   34.4870   12.2820 O   0  0  0  0  0  0  0  0  0  0  0  0
   32.2980   35.3510   12.1900 H   0  0  0  0  0  0  0  0  0  0  0  0
   31.7650   37.2560   16.9500 O   0  0  0  0  0  0  0  0  0  0  0  0
   31.9270   36.9720   17.8990 H   0  0  0  0  0  0  0  0  0  0  0  0
   30.5180   35.4660   18.5620 N   0  0  0  0  0  0  0  0  0  0  0  0
   31.3210   34.9470   19.6120 C   0  0  0  0  0  0  0  0  0  0  0  0
   29.7430   36.1340   18.7960 H   0  0  0  0  0  0  0  0  0  0  0  0
   31.1060   35.3100   21.0380 C   0  0  0  0  0  0  0  0  0  0  0  0
   32.2580   34.1470   19.3620 O   0  0  0  0  0  0  0  0  0  0  0  0
   27.9800   32.6730   16.9110 O   0  0  0  0  0  0  0  0  0  0  0  0
   27.5060   33.4530   16.5300 H   0  0  0  0  0  0  0  0  0  0  0  0
   30.1130   31.1690   16.3520 O   0  0  0  0  0  0  0  0  0  0  0  0
   30.5240   31.6430   15.5870 H   0  0  0  0  0  0  0  0  0  0  0  0
   29.0310   30.0110   18.5470 N   0  0  0  0  0  0  0  0  0  0  0  0
   27.6750   30.0640   18.9760 C   0  0  0  0  0  0  0  0  0  0  0  0
   29.3120   29.0990   18.0790 H   0  0  0  0  0  0  0  0  0  0  0  0
   27.2340   31.0840   19.5370 O   0  0  0  0  0  0  0  0  0  0  0  0
   26.8130   28.9820   18.7790 O   0  0  0  0  0  0  0  0  0  0  0  0
   26.7420   28.3770   17.4780 C   0  0  0  0  0  0  0  0  0  0  0  0
   26.3860   29.4310   16.4950 C   0  0  0  0  0  0  0  0  0  0  0  0
   25.0980   29.7860   16.1280 C   0  0  0  0  0  0  0  0  0  0  0  0
   27.1910   30.2180   15.7960 N   0  0  0  0  0  0  0  0  0  0  0  0
   25.1500   30.7680   15.2250 N   0  0  0  0  0  0  0  0  0  0  0  0
   26.4620   31.0010   15.0520 N   0  0  0  0  0  0  0  0  0  0  0  0
   24.1010   31.4560   14.5590 C   0  0  0  0  0  0  0  0  0  0  0  0
   23.5150   30.9110   13.4380 C   0  0  0  0  0  0  0  0  0  0  0  0
   23.6340   32.6840   15.0010 C   0  0  0  0  0  0  0  0  0  0  0  0
   23.9940   29.6000   12.9450 C   0  0  0  0  0  0  0  0  0  0  0  0
   22.4810   31.5930   12.7830 C   0  0  0  0  0  0  0  0  0  0  0  0
   22.6140   33.3480   14.3480 C   0  0  0  0  0  0  0  0  0  0  0  0
   24.2870   33.2640   16.2280 C   0  0  0  0  0  0  0  0  0  0  0  0
   22.0180   32.8140   13.2260 C   0  0  0  0  0  0  0  0  0  0  0  0
   20.9140   33.5200   12.5100 C   0  0  0  0  0  0  0  0  0  0  0  0
   29.8670   25.5550   16.9770 C   0  0  0  0  0  0  0  0  0  0  0  0
   28.3450   25.7220   17.0260 C   0  0  0  0  0  0  0  0  0  0  0  0
   27.6010   24.4010   16.9030 C   0  0  0  0  0  0  0  0  0  0  0  0
   26.5610   24.2340   17.9760 C   0  0  0  0  0  0  0  0  0  0  0  0
   25.2180   23.9020   17.3350 C   0  0  0  0  0  0  0  0  0  0  0  0
   24.8570   22.4870   17.5900 N   0  0  0  0  0  0  0  0  0  0  0  0
  2  1  1  1  0  0  0
  3 23  1  6  0  0  0
  3  2  1  0  0  0  0
  4  9  1  0  0  0  0
  4  3  1  1  0  0  0
  5 12  1  6  0  0  0
  5 10  1  0  0  0  0
  5  6  1  0  0  0  0
  5  7  1  0  0  0  0
  6  8  1  0  0  0  0
  7  4  1  0  0  0  0
  8 16  1  1  0  0  0
  8  9  1  0  0  0  0
  9 18  1  1  0  0  0
 11 10  1  0  0  0  0
 13 12  2  0  0  0  0
 14 12  1  0  0  0  0
 15 14  1  0  0  0  0
 16 17  1  0  0  0  0
 18 20  1  0  0  0  0
 18 19  1  0  0  0  0
 19 21  1  0  0  0  0
 22 19  2  0  0  0  0
 24 23  1  0  0  0  0
 25  2  1  0  0  0  0
 26 25  1  0  0  0  0
 27  1  1  0  0  0  0
 27 28  1  0  0  0  0
 28 30  2  0  0  0  0
 29 27  1  0  0  0  0
 31 28  1  0  0  0  0
 32 31  1  0  0  0  0
 33 32  1  0  0  0  0
 34 33  2  0  0  0  0
 35 33  1  0  0  0  0
 36 34  1  0  0  0  0
 37 36  1  0  0  0  0
 37 35  2  0  0  0  0
 38 40  1  0  0  0  0
 38 36  1  0  0  0  0
 39 38  2  0  0  0  0
 40 44  1  0  0  0  0
 41 39  1  0  0  0  0
 42 45  2  0  0  0  0
 42 39  1  0  0  0  0
 43 40  2  0  0  0  0
 45 43  1  0  0  0  0
 46 45  1  0  0  0  0
 47 48  1  0  0  0  0
 49 48  1  0  0  0  0
 49 50  1  0  0  0  0
 51 52  1  0  0  0  0
 51 50  1  0  0  0  0
M  END
>  <REMARK>
 VINA RESULT:    -4.680      4.159      7.824
 INTER + INTRA:         -14.018
 INTER:                  -7.907
 INTRA:                  -6.111
 UNBOUND:                -5.917
 SMILES CC(=O)N[C@@H]1[C@@H](O)C[C@](O)(C(=O)O)O[C@H]1C(O)[C@H](O)CNC(=O)OCc1cn(-c2c(C)cc(C)cc2C)nn1
 SMILES IDX 20 1 18 2 16 3 15 4 9 5 8 6 14 7 6 8 5 9 10 10 11 12 12 13
 SMILES IDX 13 14 7 16 4 18 2 19 1 21 3 22 17 23 19 25 21 27 22 28 23 30
 SMILES IDX 24 31 25 32 26 33 27 34 39 35 28 36 38 37 29 38 30 39 36 40
 SMILES IDX 31 41 32 42 35 43 37 44 33 45 34 46
 H PARENT 10 11 13 15 7 17 4 20 17 24 19 26 21 29
 Flexibility Score: inf
  4 active torsions:
  status: ('A' for Active; 'I' for Inactive)
    1  A    between atoms: CA   and  CB  
    2  A    between atoms: CB   and  CG  
    3  A    between atoms: CG   and  CD  
    4  A    between atoms: CD   and  CE  

>  <TORSDO>
F 15

>  <BEGIN_>
RES LYS A 131

$$$$
ligand_7_pose_12_2HRL.pdbqt
 OpenBabel07062320523D

  6  5  0  0  0  0  0  0  0  0999 V2000
   33.1930   34.6630    9.2900 C   0  0  0  0  0  0  0  0  0  0  0  0
   32.0600   35.3600   10.0340 C   0  0  0  0  0  0  0  0  0  0  0  0
   30.8000   35.5000    9.2190 C   0  0  0  0  0  0  0  0  0  0  0  0
   29.9840   34.2170    9.2690 C   0  0  0  0  0  0  0  0  0  0  0  0
   28.6000   34.4440    8.6900 C   0  0  0  0  0  0  0  0  0  0  0  0
   27.5700   33.6790    9.4460 N   0  0  0  0  0  0  0  0  0  0  0  0
  1  2  1  0  0  0  0
  3  4  1  0  0  0  0
  3  2  1  0  0  0  0
  5  4  1  0  0  0  0
  5  6  1  0  0  0  0
M  END
>  <EGIN_R>
ES LYS A 135

>  <REMARK>
  4 active torsions:
  status: ('A' for Active; 'I' for Inactive)
    5  A    between atoms: CA   and  CB  
    6  A    between atoms: CB   and  CG  
    7  A    between atoms: CG   and  CD  
    8  A    between atoms: CD   and  CE  

$$$$
