ligand_28_pose_8_2HRL.pdbqt
 OpenBabel07062320523D

 53 55  0  0  1  0  0  0  0  0999 V2000
   31.2650   33.3980   18.2070 N   0  0  0  0  0  0  0  0  0  0  0  0
   31.1620   32.8230   19.5040 C   0  0  0  0  0  0  0  0  0  0  0  0
   30.6700   31.6550   19.6350 O   0  0  0  0  0  0  0  0  0  0  0  0
   31.6680   34.3440   18.1320 H   0  0  0  0  0  0  0  0  0  0  0  0
   30.8000   32.6110   17.0940 C   0  0  0  0  0  0  0  0  0  0  0  0
   31.4540   32.9640   15.7950 C   0  0  2  0  0  0  0  0  0  0  0  0
   30.7510   34.0910   15.0740 C   0  0  2  0  0  0  0  0  0  0  0  0
   31.6510   35.3210   14.9930 C   0  0  2  0  0  0  0  0  0  0  0  0
   32.2290   36.4860   16.9140 C   0  0  2  0  0  0  0  0  0  0  0  0
   32.1980   37.8330   16.2300 C   0  0  0  0  0  0  0  0  0  0  0  0
   32.4720   35.4370   16.0740 O   0  0  0  0  0  0  0  0  0  0  0  0
   31.8190   37.7200   14.7670 C   0  0  1  0  0  0  0  0  0  0  0  0
   30.8610   36.5570   14.6530 C   0  0  1  0  0  0  0  0  0  0  0  0
   31.0500   36.2820   17.6560 O   0  0  0  0  0  0  0  0  0  0  0  0
   30.5240   35.5320   17.3230 H   0  0  0  0  0  0  0  0  0  0  0  0
   33.3340   36.5390   17.9110 C   0  0  0  0  0  0  0  0  0  0  0  0
   33.9850   37.6130   18.0880 O   0  0  0  0  0  0  0  0  0  0  0  0
   33.7160   35.4580   18.6870 O   0  0  0  0  0  0  0  0  0  0  0  0
   33.8140   35.6080   19.6960 H   0  0  0  0  0  0  0  0  0  0  0  0
   31.2790   38.9080   14.2850 O   0  0  0  0  0  0  0  0  0  0  0  0
   31.8880   39.2470   13.5850 H   0  0  0  0  0  0  0  0  0  0  0  0
   30.2590   36.4290   13.3750 N   0  0  0  0  0  0  0  0  0  0  0  0
   28.8570   36.5250   13.1790 C   0  0  0  0  0  0  0  0  0  0  0  0
   30.9050   36.2540   12.5490 H   0  0  0  0  0  0  0  0  0  0  0  0
   28.2530   36.3860   11.8140 C   0  0  0  0  0  0  0  0  0  0  0  0
   28.1580   36.7330   14.2030 O   0  0  0  0  0  0  0  0  0  0  0  0
   29.6400   34.4510   15.8350 O   0  0  0  0  0  0  0  0  0  0  0  0
   28.9950   34.9460   15.2720 H   0  0  0  0  0  0  0  0  0  0  0  0
   31.4550   31.8200   14.9970 O   0  0  0  0  0  0  0  0  0  0  0  0
   30.7600   31.8530   14.2960 H   0  0  0  0  0  0  0  0  0  0  0  0
   31.5770   33.4830   20.6550 O   0  0  0  0  0  0  0  0  0  0  0  0
   32.5780   32.8740   21.4630 C   0  0  0  0  0  0  0  0  0  0  0  0
   33.8100   33.6950   21.4700 C   0  0  0  0  0  0  0  0  0  0  0  0
   35.0770   33.2020   21.3520 C   0  0  0  0  0  0  0  0  0  0  0  0
   33.9300   35.0170   21.5890 N   0  0  0  0  0  0  0  0  0  0  0  0
   35.9280   34.2360   21.4040 N   0  0  0  0  0  0  0  0  0  0  0  0
   35.2190   35.3310   21.5480 N   0  0  0  0  0  0  0  0  0  0  0  0
   37.3680   34.1380   21.3150 C   0  0  0  0  0  0  0  0  0  0  0  0
   37.7120   34.0680   19.8670 C   0  0  0  0  0  0  0  0  0  0  0  0
   38.3730   32.9570   19.3980 C   0  0  0  0  0  0  0  0  0  0  0  0
   37.3890   35.0740   18.9910 C   0  0  0  0  0  0  0  0  0  0  0  0
   38.7030   32.8700   18.0490 C   0  0  0  0  0  0  0  0  0  0  0  0
   37.7190   34.9850   17.6530 C   0  0  0  0  0  0  0  0  0  0  0  0
   38.3770   33.8850   17.1730 C   0  0  0  0  0  0  0  0  0  0  0  0
   37.4970   35.8630   16.6100 O   0  0  0  0  0  0  0  0  0  0  0  0
   38.5890   34.0360   15.8180 O   0  0  0  0  0  0  0  0  0  0  0  0
   37.8400   35.1780   15.4260 C   0  0  0  0  0  0  0  0  0  0  0  0
   29.8670   25.5550   16.9770 C   0  0  0  0  0  0  0  0  0  0  0  0
   28.3450   25.7220   17.0260 C   0  0  0  0  0  0  0  0  0  0  0  0
   27.6010   24.4020   16.8890 C   0  0  0  0  0  0  0  0  0  0  0  0
   26.5510   24.2310   17.9520 C   0  0  0  0  0  0  0  0  0  0  0  0
   25.2420   23.7890   17.3070 C   0  0  0  0  0  0  0  0  0  0  0  0
   24.3100   24.9350   17.1860 N   0  0  0  0  0  0  0  0  0  0  0  0
  1  2  1  0  0  0  0
  2  3  2  0  0  0  0
  2 31  1  0  0  0  0
  4  1  1  0  0  0  0
  5  1  1  0  0  0  0
  6  5  1  1  0  0  0
  7  6  1  0  0  0  0
  7 27  1  1  0  0  0
  8  7  1  1  0  0  0
  8 11  1  0  0  0  0
  9 14  1  1  0  0  0
  9 16  1  0  0  0  0
 10  9  1  0  0  0  0
 11  9  1  0  0  0  0
 12 20  1  1  0  0  0
 12 10  1  0  0  0  0
 13 22  1  6  0  0  0
 13 12  1  0  0  0  0
 13  8  1  0  0  0  0
 15 14  1  0  0  0  0
 16 17  2  0  0  0  0
 16 18  1  0  0  0  0
 18 19  1  0  0  0  0
 21 20  1  0  0  0  0
 23 22  1  0  0  0  0
 23 26  2  0  0  0  0
 24 22  1  0  0  0  0
 25 23  1  0  0  0  0
 28 27  1  0  0  0  0
 29  6  1  0  0  0  0
 30 29  1  0  0  0  0
 31 32  1  0  0  0  0
 32 33  1  0  0  0  0
 33 35  1  0  0  0  0
 34 36  1  0  0  0  0
 34 33  2  0  0  0  0
 36 37  1  0  0  0  0
 37 35  2  0  0  0  0
 38 36  1  0  0  0  0
 39 38  1  0  0  0  0
 40 39  1  0  0  0  0
 41 39  2  0  0  0  0
 42 40  2  0  0  0  0
 43 41  1  0  0  0  0
 44 43  2  0  0  0  0
 44 42  1  0  0  0  0
 45 43  1  0  0  0  0
 46 44  1  0  0  0  0
 47 46  1  0  0  0  0
 47 45  1  0  0  0  0
 48 49  1  0  0  0  0
 50 49  1  0  0  0  0
 50 51  1  0  0  0  0
 52 51  1  0  0  0  0
 53 52  1  0  0  0  0
M  END
>  <REMARK>
 VINA RESULT:    -5.081      5.412      8.741
 INTER + INTRA:         -15.094
 INTER:                  -7.861
 INTRA:                  -7.233
 UNBOUND:                -6.003
 SMILES CC(=O)N[C@@H]1[C@@H](O)C[C@](O)(C(=O)O)O[C@H]1C(O)[C@H](O)CNC(=O)OCc1cn(Cc2ccc3c(c2)OCO3)nn1
 SMILES IDX 21 1 22 2 23 3 20 5 18 6 16 7 15 8 9 9 8 10 14 11 6 12 5 13
 SMILES IDX 10 14 11 16 12 17 13 18 7 20 4 22 2 23 1 25 3 26 17 27 19 29
 SMILES IDX 24 31 25 32 26 33 27 34 40 35 28 36 39 37 29 38 30 39 31 40
 SMILES IDX 35 41 32 42 34 43 33 44 36 45 38 46 37 47
 H PARENT 21 4 10 15 13 19 7 21 4 24 17 28 19 30
 Flexibility Score: inf
  4 active torsions:
  status: ('A' for Active; 'I' for Inactive)
    1  A    between atoms: CA   and  CB  
    2  A    between atoms: CB   and  CG  
    3  A    between atoms: CG   and  CD  
    4  A    between atoms: CD   and  CE  

>  <TORSDO>
F 16

>  <BEGIN_>
RES LYS A 131

$$$$
ligand_28_pose_8_2HRL.pdbqt
 OpenBabel07062320523D

  6  5  0  0  0  0  0  0  0  0999 V2000
   33.1930   34.6630    9.2900 C   0  0  0  0  0  0  0  0  0  0  0  0
   32.0600   35.3600   10.0340 C   0  0  0  0  0  0  0  0  0  0  0  0
   30.8750   35.6840    9.1610 C   0  0  0  0  0  0  0  0  0  0  0  0
   30.3950   34.4420    8.4260 C   0  0  0  0  0  0  0  0  0  0  0  0
   28.8810   34.4280    8.3380 C   0  0  0  0  0  0  0  0  0  0  0  0
   28.2810   33.7410    9.5150 N   0  0  0  0  0  0  0  0  0  0  0  0
  1  2  1  0  0  0  0
  3  2  1  0  0  0  0
  4  3  1  0  0  0  0
  5  4  1  0  0  0  0
  5  6  1  0  0  0  0
M  END
>  <EGIN_R>
ES LYS A 135

>  <REMARK>
  4 active torsions:
  status: ('A' for Active; 'I' for Inactive)
    5  A    between atoms: CA   and  CB  
    6  A    between atoms: CB   and  CG  
    7  A    between atoms: CG   and  CD  
    8  A    between atoms: CD   and  CE  

$$$$
