ligand_33_pose_13_2HRL.pdbqt
 OpenBabel07062320523D

 52 52  0  0  1  0  0  0  0  0999 V2000
   30.5740   29.7440   20.4240 C   0  0  0  0  0  0  0  0  0  0  0  0
   29.5920   30.7570   20.2390 O   0  0  0  0  0  0  0  0  0  0  0  0
   29.2640   31.1090   18.9240 C   0  0  0  0  0  0  0  0  0  0  0  0
   30.2410   30.9020   17.9100 N   0  0  0  0  0  0  0  0  0  0  0  0
   31.1660   30.4880   18.1990 H   0  0  0  0  0  0  0  0  0  0  0  0
   28.1250   31.5910   18.7070 O   0  0  0  0  0  0  0  0  0  0  0  0
   29.9310   31.2590   16.5620 C   0  0  0  0  0  0  0  0  0  0  0  0
   30.8080   32.3400   15.9770 C   0  0  2  0  0  0  0  0  0  0  0  0
   29.9130   33.4590   15.4830 C   0  0  2  0  0  0  0  0  0  0  0  0
   30.3530   34.8290   15.8760 C   0  0  2  0  0  0  0  0  0  0  0  0
   31.5820   35.1530   13.9080 C   0  0  2  0  0  0  0  0  0  0  0  0
   32.8310   34.8020   14.7330 C   0  0  0  0  0  0  0  0  0  0  0  0
   30.5730   35.5660   14.7300 O   0  0  0  0  0  0  0  0  0  0  0  0
   32.6830   35.5770   16.0190 C   0  0  1  0  0  0  0  0  0  0  0  0
   31.5200   34.9280   16.7920 C   0  0  1  0  0  0  0  0  0  0  0  0
   31.2620   34.0980   13.0580 O   0  0  0  0  0  0  0  0  0  0  0  0
   31.1460   33.2360   13.5700 H   0  0  0  0  0  0  0  0  0  0  0  0
   31.9690   36.3100   13.0600 C   0  0  0  0  0  0  0  0  0  0  0  0
   31.3930   37.4290   13.2170 O   0  0  0  0  0  0  0  0  0  0  0  0
   32.9590   36.1400   12.1100 O   0  0  0  0  0  0  0  0  0  0  0  0
   33.1280   36.9450   11.4890 H   0  0  0  0  0  0  0  0  0  0  0  0
   33.8480   35.5470   16.7860 O   0  0  0  0  0  0  0  0  0  0  0  0
   33.5650   35.4000   17.7260 H   0  0  0  0  0  0  0  0  0  0  0  0
   31.2290   35.7290   17.9730 N   0  0  0  0  0  0  0  0  0  0  0  0
   31.7300   35.4200   19.2520 C   0  0  0  0  0  0  0  0  0  0  0  0
   30.6140   36.5840   17.8570 H   0  0  0  0  0  0  0  0  0  0  0  0
   31.4070   36.2690   20.4560 C   0  0  0  0  0  0  0  0  0  0  0  0
   32.4690   34.3970   19.3810 O   0  0  0  0  0  0  0  0  0  0  0  0
   28.6900   33.2450   16.1830 O   0  0  0  0  0  0  0  0  0  0  0  0
   28.8040   32.3860   16.6520 H   0  0  0  0  0  0  0  0  0  0  0  0
   31.5810   31.7770   14.9860 O   0  0  0  0  0  0  0  0  0  0  0  0
   31.3490   30.8270   14.8400 H   0  0  0  0  0  0  0  0  0  0  0  0
   31.7510   30.4150   21.0230 C   0  0  0  0  0  0  0  0  0  0  0  0
   32.8870   29.7480   21.4320 C   0  0  0  0  0  0  0  0  0  0  0  0
   31.9340   31.7120   21.2690 N   0  0  0  0  0  0  0  0  0  0  0  0
   33.7120   30.7020   21.9150 N   0  0  0  0  0  0  0  0  0  0  0  0
   33.1330   31.8780   21.8130 N   0  0  0  0  0  0  0  0  0  0  0  0
   35.0350   30.3750   22.4530 C   0  0  0  0  0  0  0  0  0  0  0  0
   35.8250   31.6540   22.5370 C   0  0  0  0  0  0  0  0  0  0  0  0
   37.1540   31.5740   21.8180 C   0  0  0  0  0  0  0  0  0  0  0  0
   37.3370   32.6660   20.8220 C   0  0  0  0  0  0  0  0  0  0  0  0
   38.5670   32.5160   19.9680 C   0  0  0  0  0  0  0  0  0  0  0  0
   38.4670   33.1760   18.6580 C   0  0  0  0  0  0  0  0  0  0  0  0
   37.8190   34.2250   18.5130 O   0  0  0  0  0  0  0  0  0  0  0  0
   39.1080   32.6330   17.5310 O   0  0  0  0  0  0  0  0  0  0  0  0
   39.6150   33.2440   16.8830 H   0  0  0  0  0  0  0  0  0  0  0  0
   29.8670   25.5550   16.9770 C   0  0  0  0  0  0  0  0  0  0  0  0
   28.3450   25.7220   17.0260 C   0  0  0  0  0  0  0  0  0  0  0  0
   27.6090   24.3970   17.1550 C   0  0  0  0  0  0  0  0  0  0  0  0
   26.1160   24.5760   17.1530 C   0  0  0  0  0  0  0  0  0  0  0  0
   25.4920   23.6540   18.1960 C   0  0  0  0  0  0  0  0  0  0  0  0
   24.6020   22.6630   17.5460 N   0  0  0  0  0  0  0  0  0  0  0  0
  1 33  1  0  0  0  0
  2  1  1  0  0  0  0
  3  2  1  0  0  0  0
  4  5  1  0  0  0  0
  4  3  1  0  0  0  0
  6  3  2  0  0  0  0
  7  4  1  0  0  0  0
  8  7  1  6  0  0  0
  9  8  1  0  0  0  0
  9 29  1  1  0  0  0
 10  9  1  6  0  0  0
 10 15  1  0  0  0  0
 11 16  1  6  0  0  0
 11 13  1  0  0  0  0
 11 12  1  0  0  0  0
 12 14  1  0  0  0  0
 13 10  1  0  0  0  0
 14 22  1  1  0  0  0
 14 15  1  0  0  0  0
 15 24  1  1  0  0  0
 16 17  1  0  0  0  0
 18 19  2  0  0  0  0
 18 11  1  0  0  0  0
 20 18  1  0  0  0  0
 21 20  1  0  0  0  0
 22 23  1  0  0  0  0
 24 25  1  0  0  0  0
 25 28  2  0  0  0  0
 25 27  1  0  0  0  0
 26 24  1  0  0  0  0
 29 30  1  0  0  0  0
 31  8  1  0  0  0  0
 32 31  1  0  0  0  0
 33 35  1  0  0  0  0
 33 34  2  0  0  0  0
 34 36  1  0  0  0  0
 35 37  2  0  0  0  0
 36 38  1  0  0  0  0
 37 36  1  0  0  0  0
 38 39  1  0  0  0  0
 40 39  1  0  0  0  0
 41 40  1  0  0  0  0
 42 41  1  0  0  0  0
 43 42  1  0  0  0  0
 44 43  2  0  0  0  0
 45 43  1  0  0  0  0
 46 45  1  0  0  0  0
 47 48  1  0  0  0  0
 48 49  1  0  0  0  0
 50 49  1  0  0  0  0
 50 51  1  0  0  0  0
 52 51  1  0  0  0  0
M  END
>  <REMARK>
 VINA RESULT:    -4.275      8.008     12.981
 INTER + INTRA:         -14.691
 INTER:                  -9.726
 INTRA:                  -4.966
 UNBOUND:                -5.918
 SMILES CC(=O)N[C@@H]1[C@@H](O)C[C@](O)(C(=O)O)O[C@H]1C(O)[C@H](O)CNC(=O)OCc1cn(CCCCCC(=O)O)nn1
 SMILES IDX 25 1 24 2 22 3 21 4 23 6 20 7 18 8 16 9 15 10 9 11 8 12
 SMILES IDX 14 13 6 14 5 15 10 16 11 18 12 19 13 20 7 22 4 24 2 25 1 27
 SMILES IDX 3 28 17 29 19 31 26 33 27 34 38 35 28 36 37 37 29 38 30 39
 SMILES IDX 31 40 32 41 33 42 34 43 35 44 36 45
 H PARENT 21 5 10 17 13 21 7 23 4 26 17 30 19 32 36 46
 Flexibility Score: inf
  4 active torsions:
  status: ('A' for Active; 'I' for Inactive)
    1  A    between atoms: CA   and  CB  
    2  A    between atoms: CB   and  CG  
    3  A    between atoms: CG   and  CD  
    4  A    between atoms: CD   and  CE  

>  <TORSDO>
F 21

>  <BEGIN_>
RES LYS A 131

$$$$
ligand_33_pose_13_2HRL.pdbqt
 OpenBabel07062320523D

  6  5  0  0  0  0  0  0  0  0999 V2000
   33.1930   34.6630    9.2900 C   0  0  0  0  0  0  0  0  0  0  0  0
   32.0600   35.3600   10.0340 C   0  0  0  0  0  0  0  0  0  0  0  0
   30.7020   34.7710    9.7520 C   0  0  0  0  0  0  0  0  0  0  0  0
   30.3300   34.9560    8.2890 C   0  0  0  0  0  0  0  0  0  0  0  0
   28.8770   34.5880    8.0580 C   0  0  0  0  0  0  0  0  0  0  0  0
   28.1280   34.5270    9.3440 N   0  0  0  0  0  0  0  0  0  0  0  0
  1  2  1  0  0  0  0
  3  2  1  0  0  0  0
  4  3  1  0  0  0  0
  5  4  1  0  0  0  0
  5  6  1  0  0  0  0
M  END
>  <EGIN_R>
ES LYS A 135

>  <REMARK>
  4 active torsions:
  status: ('A' for Active; 'I' for Inactive)
    5  A    between atoms: CA   and  CB  
    6  A    between atoms: CB   and  CG  
    7  A    between atoms: CG   and  CD  
    8  A    between atoms: CD   and  CE  

$$$$
