ligand_34_pose_4_2HRL.pdbqt
 OpenBabel07062320523D

 69 73  0  0  1  0  0  0  0  0999 V2000
   29.6070   30.7190   18.2390 N   0  0  0  0  0  0  0  0  0  0  0  0
   28.3280   30.7450   18.8960 C   0  0  0  0  0  0  0  0  0  0  0  0
   27.8780   31.8790   19.2160 O   0  0  0  0  0  0  0  0  0  0  0  0
   30.0250   29.8150   17.9540 H   0  0  0  0  0  0  0  0  0  0  0  0
   30.3310   31.9380   17.9670 C   0  0  0  0  0  0  0  0  0  0  0  0
   30.2720   32.2270   16.5030 C   0  0  2  0  0  0  0  0  0  0  0  0
   29.0140   33.0060   16.1240 C   0  0  2  0  0  0  0  0  0  0  0  0
   29.1110   33.5040   14.6910 C   0  0  2  0  0  0  0  0  0  0  0  0
   30.8070   35.0050   14.1460 C   0  0  2  0  0  0  0  0  0  0  0  0
   30.0350   35.5400   12.9600 C   0  0  0  0  0  0  0  0  0  0  0  0
   30.4310   33.7110   14.4080 O   0  0  0  0  0  0  0  0  0  0  0  0
   28.5710   35.4320   13.1860 C   0  0  1  0  0  0  0  0  0  0  0  0
   28.2030   34.6530   14.4250 C   0  0  1  0  0  0  0  0  0  0  0  0
   30.6250   35.8750   15.1900 O   0  0  0  0  0  0  0  0  0  0  0  0
   31.3190   35.8420   15.8730 H   0  0  0  0  0  0  0  0  0  0  0  0
   32.2370   34.9900   13.7550 C   0  0  0  0  0  0  0  0  0  0  0  0
   32.6540   35.7800   12.8720 O   0  0  0  0  0  0  0  0  0  0  0  0
   33.1660   34.1320   14.3210 O   0  0  0  0  0  0  0  0  0  0  0  0
   34.0470   33.8960   13.8390 H   0  0  0  0  0  0  0  0  0  0  0  0
   27.9610   36.6810   13.2680 O   0  0  0  0  0  0  0  0  0  0  0  0
   27.4430   36.9190   12.4680 H   0  0  0  0  0  0  0  0  0  0  0  0
   26.8310   34.1730   14.2030 N   0  0  0  0  0  0  0  0  0  0  0  0
   25.7770   34.3810   15.1110 C   0  0  0  0  0  0  0  0  0  0  0  0
   26.6530   33.6520   13.3140 H   0  0  0  0  0  0  0  0  0  0  0  0
   24.4220   33.8660   14.8150 C   0  0  0  0  0  0  0  0  0  0  0  0
   26.0570   35.0250   16.1750 O   0  0  0  0  0  0  0  0  0  0  0  0
   28.9450   34.0770   17.0220 O   0  0  0  0  0  0  0  0  0  0  0  0
   28.7640   33.6820   17.9170 H   0  0  0  0  0  0  0  0  0  0  0  0
   30.3850   31.0680   15.7390 O   0  0  0  0  0  0  0  0  0  0  0  0
   29.6730   30.4140   15.9370 H   0  0  0  0  0  0  0  0  0  0  0  0
   27.6070   29.6230   19.1730 O   0  0  0  0  0  0  0  0  0  0  0  0
   27.3380   28.6540   18.1870 C   0  0  0  0  0  0  0  0  0  0  0  0
   26.7540   29.3230   17.0080 C   0  0  0  0  0  0  0  0  0  0  0  0
   25.4080   29.3530   16.6380 C   0  0  0  0  0  0  0  0  0  0  0  0
   27.3960   30.0200   16.0590 N   0  0  0  0  0  0  0  0  0  0  0  0
   25.2880   30.0590   15.4980 N   0  0  0  0  0  0  0  0  0  0  0  0
   26.5030   30.4470   15.1750 N   0  0  0  0  0  0  0  0  0  0  0  0
   24.0520   30.2850   14.8390 C   0  0  0  0  0  0  0  0  0  0  0  0
   22.8500   30.4390   15.4610 C   0  0  0  0  0  0  0  0  0  0  0  0
   24.0640   30.3520   13.4430 C   0  0  0  0  0  0  0  0  0  0  0  0
   21.6610   30.6560   14.7710 C   0  0  0  0  0  0  0  0  0  0  0  0
   22.9080   30.5660   12.7420 C   0  0  0  0  0  0  0  0  0  0  0  0
   21.6960   30.7200   13.4130 C   0  0  0  0  0  0  0  0  0  0  0  0
   20.3900   30.8170   15.4740 C   0  0  0  0  0  0  0  0  0  0  0  0
   19.6610   29.8140   15.7550 O   0  0  0  0  0  0  0  0  0  0  0  0
   19.9580   32.0610   15.8490 O   0  0  0  0  0  0  0  0  0  0  0  0
   20.5250   30.9410   12.5790 C   0  0  0  0  0  0  0  0  0  0  0  0
   19.7200   29.9380   12.0840 C   0  0  0  0  0  0  0  0  0  0  0  0
   20.1870   32.2450   12.2550 C   0  0  0  0  0  0  0  0  0  0  0  0
   20.0260   28.6250   12.3840 C   0  0  0  0  0  0  0  0  0  0  0  0
   18.6120   30.2150   11.2930 C   0  0  0  0  0  0  0  0  0  0  0  0
   19.0160   32.4820   11.4240 C   0  0  0  0  0  0  0  0  0  0  0  0
   20.9240   33.3190   12.6980 C   0  0  0  0  0  0  0  0  0  0  0  0
   19.2450   27.5810   11.9100 C   0  0  0  0  0  0  0  0  0  0  0  0
   17.8180   29.2010   10.8070 C   0  0  0  0  0  0  0  0  0  0  0  0
   18.2960   31.4510   10.9900 O   0  0  0  0  0  0  0  0  0  0  0  0
   18.6740   33.7630   11.1010 C   0  0  0  0  0  0  0  0  0  0  0  0
   20.5410   34.5830   12.3470 C   0  0  0  0  0  0  0  0  0  0  0  0
   18.1510   27.8870   11.1270 C   0  0  0  0  0  0  0  0  0  0  0  0
   19.4280   34.8230   11.5560 C   0  0  0  0  0  0  0  0  0  0  0  0
   19.1160   36.0070   11.2600 O   0  0  0  0  0  0  0  0  0  0  0  0
   17.3670   26.8510   10.6480 O   0  0  0  0  0  0  0  0  0  0  0  0
   17.6900   26.1460   10.0120 H   0  0  0  0  0  0  0  0  0  0  0  0
   29.8670   25.5550   16.9770 C   0  0  0  0  0  0  0  0  0  0  0  0
   28.3450   25.7220   17.0260 C   0  0  0  0  0  0  0  0  0  0  0  0
   27.5990   24.4540   16.6400 C   0  0  0  0  0  0  0  0  0  0  0  0
   27.0320   23.7430   17.8370 C   0  0  0  0  0  0  0  0  0  0  0  0
   25.8820   24.5600   18.4180 C   0  0  0  0  0  0  0  0  0  0  0  0
   24.7960   24.7070   17.4210 N   0  0  0  0  0  0  0  0  0  0  0  0
  1  2  1  0  0  0  0
  2 31  1  0  0  0  0
  2  3  2  0  0  0  0
  4  1  1  0  0  0  0
  5  1  1  0  0  0  0
  6  5  1  1  0  0  0
  7  6  1  0  0  0  0
  7 27  1  1  0  0  0
  8  7  1  1  0  0  0
  9 16  1  6  0  0  0
  9 11  1  0  0  0  0
  9 14  1  0  0  0  0
 10 12  1  0  0  0  0
 10  9  1  0  0  0  0
 11  8  1  0  0  0  0
 12 20  1  1  0  0  0
 12 13  1  0  0  0  0
 13 22  1  6  0  0  0
 13  8  1  0  0  0  0
 14 15  1  0  0  0  0
 16 18  1  0  0  0  0
 17 16  2  0  0  0  0
 19 18  1  0  0  0  0
 21 20  1  0  0  0  0
 22 23  1  0  0  0  0
 23 26  2  0  0  0  0
 24 22  1  0  0  0  0
 25 23  1  0  0  0  0
 27 28  1  0  0  0  0
 29 30  1  0  0  0  0
 29  6  1  0  0  0  0
 32 31  1  0  0  0  0
 33 32  1  0  0  0  0
 34 33  2  0  0  0  0
 35 33  1  0  0  0  0
 36 34  1  0  0  0  0
 37 36  1  0  0  0  0
 37 35  2  0  0  0  0
 38 39  1  0  0  0  0
 38 36  1  0  0  0  0
 40 38  2  0  0  0  0
 41 39  2  0  0  0  0
 41 44  1  0  0  0  0
 42 43  2  0  0  0  0
 42 40  1  0  0  0  0
 43 41  1  0  0  0  0
 44 45  2  0  0  0  0
 44 46  1  0  0  0  0
 47 43  1  0  0  0  0
 48 50  2  0  0  0  0
 48 47  1  0  0  0  0
 49 47  2  0  0  0  0
 49 53  1  0  0  0  0
 51 48  1  0  0  0  0
 52 49  1  0  0  0  0
 54 50  1  0  0  0  0
 55 59  1  0  0  0  0
 55 51  2  0  0  0  0
 56 51  1  0  0  0  0
 56 52  1  0  0  0  0
 57 52  2  0  0  0  0
 57 60  1  0  0  0  0
 58 53  2  0  0  0  0
 59 54  2  0  0  0  0
 60 58  1  0  0  0  0
 61 60  2  0  0  0  0
 62 59  1  0  0  0  0
 63 62  1  0  0  0  0
 64 65  1  0  0  0  0
 66 65  1  0  0  0  0
 66 67  1  0  0  0  0
 67 68  1  0  0  0  0
 69 68  1  0  0  0  0
M  END
>  <REMARK>
 VINA RESULT:    -5.536      2.422      5.589
 INTER + INTRA:         -18.109
 INTER:                 -10.612
 INTRA:                  -7.497
 UNBOUND:                -7.717
 SMILES CC(=O)N[C@@H]1[C@@H](O)C[C@](O)(C(=O)O)O[C@H]1C(O)[C@H](O)CNC(=O)OCc1cn(-c2ccc(-c3c4ccc(=O)cc-4oc4cc(O)ccc34)c(C(=O)[O-])c2)nn1
 SMILES IDX 21 1 22 2 23 3 20 5 18 6 16 7 15 8 9 9 8 10 14 11 6 12 5 13
 SMILES IDX 10 14 11 16 12 17 13 18 7 20 4 22 2 23 1 25 3 26 17 27 19 29
 SMILES IDX 24 31 25 32 26 33 27 34 55 35 28 36 54 37 29 38 53 39 30 40
 SMILES IDX 49 41 31 42 32 43 50 44 51 45 52 46 33 47 48 48 34 49 47 50
 SMILES IDX 42 51 40 52 35 53 46 54 43 55 41 56 39 57 36 58 44 59 37 60
 SMILES IDX 38 61 45 62
 H PARENT 21 4 10 15 13 19 7 21 4 24 17 28 19 30 45 63
 Flexibility Score: inf
  4 active torsions:
  status: ('A' for Active; 'I' for Inactive)
    1  A    between atoms: CA   and  CB  
    2  A    between atoms: CB   and  CG  
    3  A    between atoms: CG   and  CD  
    4  A    between atoms: CD   and  CE  

>  <TORSDO>
F 18

>  <BEGIN_>
RES LYS A 131

$$$$
ligand_34_pose_4_2HRL.pdbqt
 OpenBabel07062320523D

  6  5  0  0  0  0  0  0  0  0999 V2000
   33.1930   34.6630    9.2900 C   0  0  0  0  0  0  0  0  0  0  0  0
   32.0600   35.3600   10.0340 C   0  0  0  0  0  0  0  0  0  0  0  0
   30.8030   35.5070    9.2160 C   0  0  0  0  0  0  0  0  0  0  0  0
   30.0960   34.1680    9.0730 C   0  0  0  0  0  0  0  0  0  0  0  0
   28.6320   34.3710    8.7360 C   0  0  0  0  0  0  0  0  0  0  0  0
   27.7550   33.6250    9.6800 N   0  0  0  0  0  0  0  0  0  0  0  0
  1  2  1  0  0  0  0
  3  2  1  0  0  0  0
  4  3  1  0  0  0  0
  5  4  1  0  0  0  0
  5  6  1  0  0  0  0
M  END
>  <EGIN_R>
ES LYS A 135

>  <REMARK>
  4 active torsions:
  status: ('A' for Active; 'I' for Inactive)
    5  A    between atoms: CA   and  CB  
    6  A    between atoms: CB   and  CG  
    7  A    between atoms: CG   and  CD  
    8  A    between atoms: CD   and  CE  

$$$$
