ligand_78_pose_17_2HRL.pdbqt
 OpenBabel07062320523D

 53 54  0  0  1  0  0  0  0  0999 V2000
   27.0550   29.3810   18.1650 N   0  0  0  0  0  0  0  0  0  0  0  0
   27.2350   30.0120   16.8810 C   0  0  0  0  0  0  0  0  0  0  0  0
   27.6610   29.3340   15.9350 O   0  0  0  0  0  0  0  0  0  0  0  0
   26.6900   30.0150   18.9010 H   0  0  0  0  0  0  0  0  0  0  0  0
   27.3690   27.9750   18.3450 C   0  0  0  0  0  0  0  0  0  0  0  0
   27.5720   27.6090   19.7760 C   0  0  2  0  0  0  0  0  0  0  0  0
   27.6910   28.7730   20.7000 C   0  0  2  0  0  0  0  0  0  0  0  0
   28.9770   28.9280   21.4290 C   0  0  2  0  0  0  0  0  0  0  0  0
   28.7660   31.2390   21.7220 C   0  0  2  0  0  0  0  0  0  0  0  0
   29.4240   31.4450   20.3980 C   0  0  0  0  0  0  0  0  0  0  0  0
   28.9180   30.0080   22.3080 O   0  0  0  0  0  0  0  0  0  0  0  0
   30.3440   30.3840   19.9340 C   0  0  1  0  0  0  0  0  0  0  0  0
   30.2350   29.0790   20.6710 C   0  0  1  0  0  0  0  0  0  0  0  0
   27.3930   31.4840   21.6520 O   0  0  0  0  0  0  0  0  0  0  0  0
   26.8490   30.6840   21.5750 H   0  0  0  0  0  0  0  0  0  0  0  0
   29.3220   32.2230   22.6880 C   0  0  0  0  0  0  0  0  0  0  0  0
   30.4980   32.0880   23.0880 O   0  0  0  0  0  0  0  0  0  0  0  0
   28.5950   33.3010   23.1760 O   0  0  0  0  0  0  0  0  0  0  0  0
   28.5750   33.5110   24.1840 H   0  0  0  0  0  0  0  0  0  0  0  0
   30.1800   30.2020   18.5630 O   0  0  0  0  0  0  0  0  0  0  0  0
   30.1290   29.2630   18.3060 H   0  0  0  0  0  0  0  0  0  0  0  0
   31.3530   28.8970   21.6030 N   0  0  0  0  0  0  0  0  0  0  0  0
   31.8720   27.6200   21.9050 C   0  0  0  0  0  0  0  0  0  0  0  0
   31.7840   29.7240   22.0600 H   0  0  0  0  0  0  0  0  0  0  0  0
   33.0100   27.4180   22.8510 C   0  0  0  0  0  0  0  0  0  0  0  0
   31.3360   26.6340   21.3420 O   0  0  0  0  0  0  0  0  0  0  0  0
   26.7770   28.4010   21.7820 O   0  0  0  0  0  0  0  0  0  0  0  0
   26.1940   27.7190   21.4060 H   0  0  0  0  0  0  0  0  0  0  0  0
   28.5020   26.6180   20.0180 O   0  0  0  0  0  0  0  0  0  0  0  0
   29.2670   26.9390   20.5550 H   0  0  0  0  0  0  0  0  0  0  0  0
   26.9430   31.3490   16.6920 O   0  0  0  0  0  0  0  0  0  0  0  0
   27.6560   32.1660   15.7820 C   0  0  0  0  0  0  0  0  0  0  0  0
   29.0010   32.4910   16.2770 C   0  0  0  0  0  0  0  0  0  0  0  0
   29.4130   33.4290   17.1810 C   0  0  0  0  0  0  0  0  0  0  0  0
   30.1260   31.8580   15.8810 N   0  0  0  0  0  0  0  0  0  0  0  0
   30.7620   33.3400   17.3050 N   0  0  0  0  0  0  0  0  0  0  0  0
   31.1670   32.3730   16.4990 N   0  0  0  0  0  0  0  0  0  0  0  0
   31.5610   34.1680   18.1680 C   0  0  0  0  0  0  0  0  0  0  0  0
   31.7410   35.8040   17.4720 S   0  0  0  0  0  0  0  0  0  0  0  0
   32.8970   36.4770   18.1670 O   0  0  0  0  0  0  0  0  0  0  0  0
   30.4870   36.5480   17.7360 O   0  0  0  0  0  0  0  0  0  0  0  0
   32.0590   35.6470   15.7530 C   0  0  0  0  0  0  0  0  0  0  0  0
   31.0620   36.0420   14.8680 C   0  0  0  0  0  0  0  0  0  0  0  0
   33.2600   35.1460   15.3120 C   0  0  0  0  0  0  0  0  0  0  0  0
   31.3130   35.9180   13.5230 C   0  0  0  0  0  0  0  0  0  0  0  0
   33.4610   35.0420   13.9530 C   0  0  0  0  0  0  0  0  0  0  0  0
   32.5140   35.4160   13.0310 C   0  0  0  0  0  0  0  0  0  0  0  0
   29.8670   25.5550   16.9770 C   0  0  0  0  0  0  0  0  0  0  0  0
   28.3450   25.7220   17.0260 C   0  0  0  0  0  0  0  0  0  0  0  0
   27.6000   24.4120   16.8200 C   0  0  0  0  0  0  0  0  0  0  0  0
   26.8610   23.9800   18.0560 C   0  0  0  0  0  0  0  0  0  0  0  0
   25.5170   24.6970   18.1230 C   0  0  0  0  0  0  0  0  0  0  0  0
   24.7070   24.3940   16.9190 N   0  0  0  0  0  0  0  0  0  0  0  0
  1  5  1  0  0  0  0
  1  4  1  0  0  0  0
  2  1  1  0  0  0  0
  3  2  2  0  0  0  0
  6  5  1  6  0  0  0
  6 29  1  0  0  0  0
  6  7  1  0  0  0  0
  7 27  1  1  0  0  0
  8  7  1  6  0  0  0
  8 11  1  0  0  0  0
  9 14  1  6  0  0  0
  9 11  1  0  0  0  0
  9 16  1  0  0  0  0
 10  9  1  0  0  0  0
 12 20  1  6  0  0  0
 12 10  1  0  0  0  0
 12 13  1  0  0  0  0
 13  8  1  0  0  0  0
 13 22  1  1  0  0  0
 15 14  1  0  0  0  0
 16 17  2  0  0  0  0
 16 18  1  0  0  0  0
 18 19  1  0  0  0  0
 21 20  1  0  0  0  0
 22 23  1  0  0  0  0
 22 24  1  0  0  0  0
 23 25  1  0  0  0  0
 26 23  2  0  0  0  0
 28 27  1  0  0  0  0
 29 30  1  0  0  0  0
 31  2  1  0  0  0  0
 32 33  1  0  0  0  0
 32 31  1  0  0  0  0
 33 34  2  0  0  0  0
 34 36  1  0  0  0  0
 35 33  1  0  0  0  0
 35 37  2  0  0  0  0
 36 38  1  0  0  0  0
 37 36  1  0  0  0  0
 39 41  2  0  0  0  0
 39 40  2  0  0  0  0
 39 38  1  0  0  0  0
 42 39  1  0  0  0  0
 43 42  2  0  0  0  0
 44 42  1  0  0  0  0
 45 43  1  0  0  0  0
 46 44  2  0  0  0  0
 47 45  2  0  0  0  0
 47 46  1  0  0  0  0
 48 49  1  0  0  0  0
 50 49  1  0  0  0  0
 50 51  1  0  0  0  0
 51 52  1  0  0  0  0
 53 52  1  0  0  0  0
M  END
>  <REMARK>
 VINA RESULT:    -5.141      2.335      4.831
 INTER + INTRA:         -14.510
 INTER:                  -8.053
 INTRA:                  -6.457
 UNBOUND:                -5.011
 SMILES CC(=O)N[C@@H]1[C@@H](O)C[C@](O)(C(=O)O)O[C@H]1C(O)[C@H](O)CNC(=O)OCc1cn(CS(=O)(=O)c2ccccc2)nn1
 SMILES IDX 21 1 22 2 23 3 20 5 18 6 16 7 15 8 9 9 8 10 14 11 6 12 5 13
 SMILES IDX 10 14 11 16 12 17 13 18 7 20 4 22 2 23 1 25 3 26 17 27 19 29
 SMILES IDX 24 31 25 32 26 33 27 34 40 35 28 36 39 37 29 38 30 39 31 40
 SMILES IDX 32 41 33 42 34 43 38 44 35 45 37 46 36 47
 H PARENT 21 4 10 15 13 19 7 21 4 24 17 28 19 30
 Flexibility Score: inf
  4 active torsions:
  status: ('A' for Active; 'I' for Inactive)
    1  A    between atoms: CA   and  CB  
    2  A    between atoms: CB   and  CG  
    3  A    between atoms: CG   and  CD  
    4  A    between atoms: CD   and  CE  

>  <TORSDO>
F 17

>  <BEGIN_>
RES LYS A 131

$$$$
ligand_78_pose_17_2HRL.pdbqt
 OpenBabel07062320523D

  6  5  0  0  0  0  0  0  0  0999 V2000
   33.1930   34.6630    9.2900 C   0  0  0  0  0  0  0  0  0  0  0  0
   32.0600   35.3600   10.0340 C   0  0  0  0  0  0  0  0  0  0  0  0
   30.7040   34.7600    9.7650 C   0  0  0  0  0  0  0  0  0  0  0  0
   30.5260   34.4810    8.2810 C   0  0  0  0  0  0  0  0  0  0  0  0
   29.2580   35.1350    7.7640 C   0  0  0  0  0  0  0  0  0  0  0  0
   28.0500   34.5380    8.3980 N   0  0  0  0  0  0  0  0  0  0  0  0
  1  2  1  0  0  0  0
  3  2  1  0  0  0  0
  4  3  1  0  0  0  0
  5  4  1  0  0  0  0
  5  6  1  0  0  0  0
M  END
>  <EGIN_R>
ES LYS A 135

>  <REMARK>
  4 active torsions:
  status: ('A' for Active; 'I' for Inactive)
    5  A    between atoms: CA   and  CB  
    6  A    between atoms: CB   and  CG  
    7  A    between atoms: CG   and  CD  
    8  A    between atoms: CD   and  CE  

$$$$
