ligand_52_pose_8_2HRL.pdbqt
 OpenBabel07062320523D

 49 50  0  0  1  0  0  0  0  0999 V2000
   26.8210   37.7500    8.7280 C   0  0  0  0  0  0  0  0  0  0  0  0
   27.2760   37.0610    7.4940 C   0  0  2  0  0  0  0  0  0  0  0  0
   28.4520   37.6930    6.8530 C   0  0  2  0  0  0  0  0  0  0  0  0
   28.3020   39.0630    6.2880 C   0  0  2  0  0  0  0  0  0  0  0  0
   27.2000   40.4330    4.8570 C   0  0  2  0  0  0  0  0  0  0  0  0
   28.2030   41.5080    5.0770 C   0  0  0  0  0  0  0  0  0  0  0  0
   27.6110   39.1400    5.1210 O   0  0  0  0  0  0  0  0  0  0  0  0
   29.1960   41.2940    6.1650 C   0  0  1  0  0  0  0  0  0  0  0  0
   29.6100   39.7940    6.1860 C   0  0  1  0  0  0  0  0  0  0  0  0
   26.9320   40.4540    3.4510 O   0  0  0  0  0  0  0  0  0  0  0  0
   27.7440   40.0720    3.0460 H   0  0  0  0  0  0  0  0  0  0  0  0
   25.9000   40.7090    5.5090 C   0  0  0  0  0  0  0  0  0  0  0  0
   25.4510   41.8820    5.5270 O   0  0  0  0  0  0  0  0  0  0  0  0
   25.1050   39.7520    6.1250 O   0  0  0  0  0  0  0  0  0  0  0  0
   24.4790   39.2260    5.5050 H   0  0  0  0  0  0  0  0  0  0  0  0
   30.3790   41.9880    5.9060 O   0  0  0  0  0  0  0  0  0  0  0  0
   30.4110   42.8040    6.4640 H   0  0  0  0  0  0  0  0  0  0  0  0
   30.3350   39.6240    7.4160 N   0  0  0  0  0  0  0  0  0  0  0  0
   31.7450   39.5960    7.5050 C   0  0  0  0  0  0  0  0  0  0  0  0
   29.7950   39.5150    8.3150 H   0  0  0  0  0  0  0  0  0  0  0  0
   32.3980   39.4150    8.8210 C   0  0  0  0  0  0  0  0  0  0  0  0
   32.4300   39.7240    6.4650 O   0  0  0  0  0  0  0  0  0  0  0  0
   29.2320   36.8330    6.1040 O   0  0  0  0  0  0  0  0  0  0  0  0
   30.1860   36.8460    6.2770 H   0  0  0  0  0  0  0  0  0  0  0  0
   26.2410   37.0840    6.5270 O   0  0  0  0  0  0  0  0  0  0  0  0
   25.9970   36.1540    6.3480 H   0  0  0  0  0  0  0  0  0  0  0  0
   27.4430   37.3550    9.9570 N   0  0  0  0  0  0  0  0  0  0  0  0
   28.4900   38.0060   10.5970 C   0  0  0  0  0  0  0  0  0  0  0  0
   27.0740   36.4770   10.4380 H   0  0  0  0  0  0  0  0  0  0  0  0
   29.0040   39.0300   10.1260 O   0  0  0  0  0  0  0  0  0  0  0  0
   29.0400   37.5590   11.8110 O   0  0  0  0  0  0  0  0  0  0  0  0
   30.4200   37.6920   12.0680 C   0  0  0  0  0  0  0  0  0  0  0  0
   30.9270   36.5960   12.9150 C   0  0  0  0  0  0  0  0  0  0  0  0
   30.1170   35.5910   13.4170 C   0  0  0  0  0  0  0  0  0  0  0  0
   32.1520   36.3240   13.3630 N   0  0  0  0  0  0  0  0  0  0  0  0
   30.8730   34.7510   14.1450 N   0  0  0  0  0  0  0  0  0  0  0  0
   32.0980   35.2060   14.1030 N   0  0  0  0  0  0  0  0  0  0  0  0
   30.4380   33.5780   14.8400 C   0  0  0  0  0  0  0  0  0  0  0  0
   31.3450   32.6840   15.3810 C   0  0  0  0  0  0  0  0  0  0  0  0
   29.0890   33.3210   14.9810 C   0  0  0  0  0  0  0  0  0  0  0  0
   30.8730   31.5530   16.0510 C   0  0  0  0  0  0  0  0  0  0  0  0
   28.6570   32.2100   15.6390 N   0  0  0  0  0  0  0  0  0  0  0  0
   29.5140   31.3240   16.1750 C   0  0  0  0  0  0  0  0  0  0  0  0
   29.8670   25.5550   16.9770 C   0  0  0  0  0  0  0  0  0  0  0  0
   28.3450   25.7220   17.0260 C   0  0  0  0  0  0  0  0  0  0  0  0
   27.6020   24.3990   16.9250 C   0  0  0  0  0  0  0  0  0  0  0  0
   26.1570   24.5290   17.3180 C   0  0  0  0  0  0  0  0  0  0  0  0
   26.0430   25.4210   18.5510 C   0  0  0  0  0  0  0  0  0  0  0  0
   25.5020   24.6530   19.6970 N   0  0  0  0  0  0  0  0  0  0  0  0
  1 27  1  0  0  0  0
  2  1  1  1  0  0  0
  3 23  1  6  0  0  0
  3  2  1  0  0  0  0
  4  3  1  6  0  0  0
  5 10  1  6  0  0  0
  5  6  1  0  0  0  0
  5  7  1  0  0  0  0
  5 12  1  0  0  0  0
  6  8  1  0  0  0  0
  7  4  1  0  0  0  0
  8 16  1  6  0  0  0
  8  9  1  0  0  0  0
  9  4  1  0  0  0  0
  9 18  1  1  0  0  0
 11 10  1  0  0  0  0
 12 13  2  0  0  0  0
 12 14  1  0  0  0  0
 15 14  1  0  0  0  0
 16 17  1  0  0  0  0
 18 19  1  0  0  0  0
 18 20  1  0  0  0  0
 19 21  1  0  0  0  0
 22 19  2  0  0  0  0
 23 24  1  0  0  0  0
 25  2  1  0  0  0  0
 26 25  1  0  0  0  0
 27 29  1  0  0  0  0
 27 28  1  0  0  0  0
 28 31  1  0  0  0  0
 30 28  2  0  0  0  0
 31 32  1  0  0  0  0
 32 33  1  0  0  0  0
 33 35  1  0  0  0  0
 33 34  2  0  0  0  0
 34 36  1  0  0  0  0
 35 37  2  0  0  0  0
 36 38  1  0  0  0  0
 37 36  1  0  0  0  0
 38 40  2  0  0  0  0
 38 39  1  0  0  0  0
 39 41  2  0  0  0  0
 40 42  1  0  0  0  0
 41 43  1  0  0  0  0
 42 43  2  0  0  0  0
 44 45  1  0  0  0  0
 46 45  1  0  0  0  0
 46 47  1  0  0  0  0
 47 48  1  0  0  0  0
 48 49  1  0  0  0  0
M  END
>  <REMARK>
 VINA RESULT:    -4.973      7.617     12.881
 INTER + INTRA:         -13.771
 INTER:                  -8.655
 INTRA:                  -5.116
 UNBOUND:                -5.164
 SMILES CC(=O)N[C@@H]1[C@@H](O)C[C@](O)(C(=O)O)O[C@H]1C(O)[C@H](O)CNC(=O)OCc1cn(-c2cccnc2)nn1
 SMILES IDX 20 1 18 2 16 3 15 4 9 5 8 6 14 7 6 8 5 9 10 10 11 12 12 13
 SMILES IDX 13 14 7 16 4 18 2 19 1 21 3 22 17 23 19 25 21 27 22 28 23 30
 SMILES IDX 24 31 25 32 26 33 27 34 36 35 28 36 35 37 29 38 30 39 34 40
 SMILES IDX 31 41 33 42 32 43
 H PARENT 10 11 13 15 7 17 4 20 17 24 19 26 21 29
 Flexibility Score: inf
  4 active torsions:
  status: ('A' for Active; 'I' for Inactive)
    1  A    between atoms: CA   and  CB  
    2  A    between atoms: CB   and  CG  
    3  A    between atoms: CG   and  CD  
    4  A    between atoms: CD   and  CE  

>  <TORSDO>
F 15

>  <BEGIN_>
RES LYS A 131

$$$$
ligand_52_pose_8_2HRL.pdbqt
 OpenBabel07062320523D

  6  5  0  0  0  0  0  0  0  0999 V2000
   33.1930   34.6630    9.2900 C   0  0  0  0  0  0  0  0  0  0  0  0
   32.0600   35.3600   10.0340 C   0  0  0  0  0  0  0  0  0  0  0  0
   30.8920   35.7200    9.1520 C   0  0  0  0  0  0  0  0  0  0  0  0
   30.3030   34.4760    8.5070 C   0  0  0  0  0  0  0  0  0  0  0  0
   29.3750   33.7640    9.4720 C   0  0  0  0  0  0  0  0  0  0  0  0
   27.9480   34.0240    9.1340 N   0  0  0  0  0  0  0  0  0  0  0  0
  1  2  1  0  0  0  0
  3  2  1  0  0  0  0
  4  3  1  0  0  0  0
  4  5  1  0  0  0  0
  6  5  1  0  0  0  0
M  END
>  <EGIN_R>
ES LYS A 135

>  <REMARK>
  4 active torsions:
  status: ('A' for Active; 'I' for Inactive)
    5  A    between atoms: CA   and  CB  
    6  A    between atoms: CB   and  CG  
    7  A    between atoms: CG   and  CD  
    8  A    between atoms: CD   and  CE  

$$$$
