ligand_39_pose_12_2HRL.pdbqt
 OpenBabel07062320523D

 51 52  0  0  1  0  0  0  0  0999 V2000
   28.6200   31.3850   16.7550 N   0  0  0  0  0  0  0  0  0  0  0  0
   27.7670   30.3660   17.1920 C   0  0  0  0  0  0  0  0  0  0  0  0
   27.7960   29.2470   16.6090 O   0  0  0  0  0  0  0  0  0  0  0  0
   28.5670   32.3080   17.2700 H   0  0  0  0  0  0  0  0  0  0  0  0
   29.5580   31.2690   15.6590 C   0  0  0  0  0  0  0  0  0  0  0  0
   30.2870   32.5830   15.4790 C   0  0  2  0  0  0  0  0  0  0  0  0
   29.4960   33.5370   14.6100 C   0  0  2  0  0  0  0  0  0  0  0  0
   30.0410   34.9500   14.6730 C   0  0  2  0  0  0  0  0  0  0  0  0
   31.5870   36.3110   13.5780 C   0  0  2  0  0  0  0  0  0  0  0  0
   32.2770   36.6540   14.8430 C   0  0  0  0  0  0  0  0  0  0  0  0
   30.9750   35.0720   13.6890 O   0  0  0  0  0  0  0  0  0  0  0  0
   31.9150   35.8850   16.0540 C   0  0  1  0  0  0  0  0  0  0  0  0
   30.5400   35.2820   16.0510 C   0  0  1  0  0  0  0  0  0  0  0  0
   32.5630   36.1440   12.5620 O   0  0  0  0  0  0  0  0  0  0  0  0
   33.4500   36.4790   12.8610 H   0  0  0  0  0  0  0  0  0  0  0  0
   30.6800   37.3750   13.1460 C   0  0  0  0  0  0  0  0  0  0  0  0
   30.4890   38.4330   13.8070 O   0  0  0  0  0  0  0  0  0  0  0  0
   29.9850   37.2330   11.9530 O   0  0  0  0  0  0  0  0  0  0  0  0
   28.9810   37.3460   11.8830 H   0  0  0  0  0  0  0  0  0  0  0  0
   32.8890   34.9040   16.3190 O   0  0  0  0  0  0  0  0  0  0  0  0
   32.3720   34.1470   16.7410 H   0  0  0  0  0  0  0  0  0  0  0  0
   29.6040   36.0940   16.7960 N   0  0  0  0  0  0  0  0  0  0  0  0
   28.6930   35.5470   17.7340 C   0  0  0  0  0  0  0  0  0  0  0  0
   29.5890   37.1230   16.6490 H   0  0  0  0  0  0  0  0  0  0  0  0
   27.7220   36.3700   18.5100 C   0  0  0  0  0  0  0  0  0  0  0  0
   28.7320   34.2810   17.8980 O   0  0  0  0  0  0  0  0  0  0  0  0
   28.1490   33.4790   14.9510 O   0  0  0  0  0  0  0  0  0  0  0  0
   27.7530   32.6480   14.5440 H   0  0  0  0  0  0  0  0  0  0  0  0
   31.5080   32.2460   14.8470 O   0  0  0  0  0  0  0  0  0  0  0  0
   31.5870   32.6460   13.9670 H   0  0  0  0  0  0  0  0  0  0  0  0
   26.8710   30.4890   18.2430 O   0  0  0  0  0  0  0  0  0  0  0  0
   25.4990   30.7360   17.9850 C   0  0  0  0  0  0  0  0  0  0  0  0
   25.3080   31.4510   16.7060 C   0  0  0  0  0  0  0  0  0  0  0  0
   24.8280   30.9100   15.5040 C   0  0  0  0  0  0  0  0  0  0  0  0
   25.5430   32.7330   16.4070 N   0  0  0  0  0  0  0  0  0  0  0  0
   24.7870   31.8300   14.5550 N   0  0  0  0  0  0  0  0  0  0  0  0
   25.2400   32.9610   15.1470 N   0  0  0  0  0  0  0  0  0  0  0  0
   24.4020   31.8310   13.1630 C   0  0  0  0  0  0  0  0  0  0  0  0
   22.9740   31.7130   12.9000 C   0  0  0  0  0  0  0  0  0  0  0  0
   22.1540   32.8430   12.8570 C   0  0  0  0  0  0  0  0  0  0  0  0
   22.3760   30.5110   12.6520 C   0  0  0  0  0  0  0  0  0  0  0  0
   20.8220   32.7170   12.5760 C   0  0  0  0  0  0  0  0  0  0  0  0
   21.0280   30.3870   12.3690 C   0  0  0  0  0  0  0  0  0  0  0  0
   23.3810   28.8650   12.7290 Br  0  0  0  0  0  0  0  0  0  0  0  0
   20.2310   31.5030   12.3270 C   0  0  0  0  0  0  0  0  0  0  0  0
   29.8670   25.5550   16.9770 C   0  0  0  0  0  0  0  0  0  0  0  0
   28.3450   25.7220   17.0260 C   0  0  0  0  0  0  0  0  0  0  0  0
   27.6010   24.4010   16.9050 C   0  0  0  0  0  0  0  0  0  0  0  0
   26.6430   24.1840   18.0430 C   0  0  0  0  0  0  0  0  0  0  0  0
   26.1750   25.5330   18.5780 C   0  0  0  0  0  0  0  0  0  0  0  0
   24.8380   25.8720   18.0340 N   0  0  0  0  0  0  0  0  0  0  0  0
  1  2  1  0  0  0  0
  1  4  1  0  0  0  0
  2 31  1  0  0  0  0
  3  2  2  0  0  0  0
  5  1  1  0  0  0  0
  6  5  1  6  0  0  0
  7 27  1  1  0  0  0
  7  6  1  0  0  0  0
  8  7  1  1  0  0  0
  8 13  1  0  0  0  0
  9 14  1  6  0  0  0
  9 11  1  0  0  0  0
  9 10  1  0  0  0  0
 10 12  1  0  0  0  0
 11  8  1  0  0  0  0
 12 20  1  6  0  0  0
 13 12  1  0  0  0  0
 13 22  1  6  0  0  0
 14 15  1  0  0  0  0
 16  9  1  0  0  0  0
 16 17  2  0  0  0  0
 18 16  1  0  0  0  0
 19 18  1  0  0  0  0
 20 21  1  0  0  0  0
 22 23  1  0  0  0  0
 23 26  2  0  0  0  0
 23 25  1  0  0  0  0
 24 22  1  0  0  0  0
 28 27  1  0  0  0  0
 29  6  1  0  0  0  0
 30 29  1  0  0  0  0
 32 31  1  0  0  0  0
 33 32  1  0  0  0  0
 34 33  2  0  0  0  0
 35 33  1  0  0  0  0
 36 37  1  0  0  0  0
 36 34  1  0  0  0  0
 37 35  2  0  0  0  0
 38 36  1  0  0  0  0
 39 38  1  0  0  0  0
 40 39  1  0  0  0  0
 41 44  1  0  0  0  0
 41 39  2  0  0  0  0
 42 40  2  0  0  0  0
 43 41  1  0  0  0  0
 45 43  2  0  0  0  0
 45 42  1  0  0  0  0
 46 47  1  0  0  0  0
 48 47  1  0  0  0  0
 48 49  1  0  0  0  0
 49 50  1  0  0  0  0
 51 50  1  0  0  0  0
M  END
>  <REMARK>
 VINA RESULT:    -3.947      4.219      7.066
 INTER + INTRA:         -14.489
 INTER:                  -8.325
 INTRA:                  -6.164
 UNBOUND:                -7.426
 SMILES CC(=O)N[C@@H]1[C@@H](O)C[C@](O)(C(=O)O)O[C@H]1C(O)[C@H](O)CNC(=O)OCc1cn(Cc2ccccc2Br)nn1
 SMILES IDX 21 1 22 2 23 3 20 5 18 6 16 7 15 8 9 9 8 10 14 11 6 12 5 13
 SMILES IDX 10 14 11 16 12 17 13 18 7 20 4 22 2 23 1 25 3 26 17 27 19 29
 SMILES IDX 24 31 25 32 26 33 27 34 38 35 28 36 37 37 29 38 30 39 31 40
 SMILES IDX 35 41 32 42 34 43 36 44 33 45
 H PARENT 21 4 10 15 13 19 7 21 4 24 17 28 19 30
 Flexibility Score: inf
  4 active torsions:
  status: ('A' for Active; 'I' for Inactive)
    1  A    between atoms: CA   and  CB  
    2  A    between atoms: CB   and  CG  
    3  A    between atoms: CG   and  CD  
    4  A    between atoms: CD   and  CE  

>  <TORSDO>
F 16

>  <BEGIN_>
RES LYS A 131

$$$$
ligand_39_pose_12_2HRL.pdbqt
 OpenBabel07062320523D

  6  5  0  0  0  0  0  0  0  0999 V2000
   33.1930   34.6630    9.2900 C   0  0  0  0  0  0  0  0  0  0  0  0
   32.0600   35.3600   10.0340 C   0  0  0  0  0  0  0  0  0  0  0  0
   30.7100   34.7320    9.8010 C   0  0  0  0  0  0  0  0  0  0  0  0
   30.4610   34.5330    8.3140 C   0  0  0  0  0  0  0  0  0  0  0  0
   29.0140   34.8310    7.9710 C   0  0  0  0  0  0  0  0  0  0  0  0
   28.9070   35.5470    6.6700 N   0  0  0  0  0  0  0  0  0  0  0  0
  1  2  1  0  0  0  0
  3  2  1  0  0  0  0
  4  3  1  0  0  0  0
  5  4  1  0  0  0  0
  6  5  1  0  0  0  0
M  END
>  <EGIN_R>
ES LYS A 135

>  <REMARK>
  4 active torsions:
  status: ('A' for Active; 'I' for Inactive)
    5  A    between atoms: CA   and  CB  
    6  A    between atoms: CB   and  CG  
    7  A    between atoms: CG   and  CD  
    8  A    between atoms: CD   and  CE  

$$$$
