ligand_15_pose_15_2HRL.pdbqt
 OpenBabel07062320523D

 50 51  0  0  1  0  0  0  0  0999 V2000
   30.9270   39.0600   13.0200 C   0  0  0  0  0  0  0  0  0  0  0  0
   31.1120   37.9290   13.9860 C   0  0  2  0  0  0  0  0  0  0  0  0
   29.8580   37.3420   14.5320 C   0  0  2  0  0  0  0  0  0  0  0  0
   29.9610   35.8730   14.8860 C   0  0  2  0  0  0  0  0  0  0  0  0
   31.7000   34.3360   15.2280 C   0  0  2  0  0  0  0  0  0  0  0  0
   30.7660   33.3190   14.6330 C   0  0  0  0  0  0  0  0  0  0  0  0
   31.3220   35.5970   14.9290 O   0  0  0  0  0  0  0  0  0  0  0  0
   30.1720   33.9130   13.3770 C   0  0  1  0  0  0  0  0  0  0  0  0
   29.2730   35.0790   13.8120 C   0  0  1  0  0  0  0  0  0  0  0  0
   32.9940   34.1510   14.6650 O   0  0  0  0  0  0  0  0  0  0  0  0
   33.5540   33.8320   15.4200 H   0  0  0  0  0  0  0  0  0  0  0  0
   31.8090   34.1810   16.7060 C   0  0  0  0  0  0  0  0  0  0  0  0
   32.4840   34.9370   17.4260 O   0  0  0  0  0  0  0  0  0  0  0  0
   31.1260   33.1440   17.3180 O   0  0  0  0  0  0  0  0  0  0  0  0
   30.1100   33.1290   17.4140 H   0  0  0  0  0  0  0  0  0  0  0  0
   31.2160   34.4800   12.6490 O   0  0  0  0  0  0  0  0  0  0  0  0
   30.9210   34.9460   11.8430 H   0  0  0  0  0  0  0  0  0  0  0  0
   28.0950   34.4630   14.3560 N   0  0  0  0  0  0  0  0  0  0  0  0
   26.7860   34.6690   13.8570 C   0  0  0  0  0  0  0  0  0  0  0  0
   28.1750   33.8120   15.1790 H   0  0  0  0  0  0  0  0  0  0  0  0
   25.5900   34.0090   14.4600 C   0  0  0  0  0  0  0  0  0  0  0  0
   26.6240   35.4270   12.8790 O   0  0  0  0  0  0  0  0  0  0  0  0
   28.8330   37.5320   13.5720 O   0  0  0  0  0  0  0  0  0  0  0  0
   28.1350   36.8710   13.7630 H   0  0  0  0  0  0  0  0  0  0  0  0
   31.8860   38.4170   15.0610 O   0  0  0  0  0  0  0  0  0  0  0  0
   32.3860   37.6830   15.4950 H   0  0  0  0  0  0  0  0  0  0  0  0
   31.0420   38.7190   11.6400 N   0  0  0  0  0  0  0  0  0  0  0  0
   29.9640   39.0210   10.7290 C   0  0  0  0  0  0  0  0  0  0  0  0
   31.8520   38.2480   11.1890 H   0  0  0  0  0  0  0  0  0  0  0  0
   28.9460   39.5830   11.1990 O   0  0  0  0  0  0  0  0  0  0  0  0
   30.0480   38.7020    9.3830 O   0  0  0  0  0  0  0  0  0  0  0  0
   29.1100   39.3420    8.5280 C   0  0  0  0  0  0  0  0  0  0  0  0
   28.0570   38.3350    8.2120 C   0  0  0  0  0  0  0  0  0  0  0  0
   26.7460   38.3490    8.6480 C   0  0  0  0  0  0  0  0  0  0  0  0
   28.1650   37.2290    7.4520 N   0  0  0  0  0  0  0  0  0  0  0  0
   26.1100   37.2750    8.1510 N   0  0  0  0  0  0  0  0  0  0  0  0
   27.0010   36.6280    7.4360 N   0  0  0  0  0  0  0  0  0  0  0  0
   24.7570   36.8600    8.3190 C   0  0  0  0  0  0  0  0  0  0  0  0
   23.7100   37.4670    7.6520 C   0  0  0  0  0  0  0  0  0  0  0  0
   24.4370   35.8200    9.1670 C   0  0  0  0  0  0  0  0  0  0  0  0
   22.4020   37.0520    7.8250 C   0  0  0  0  0  0  0  0  0  0  0  0
   23.1240   35.4000    9.3440 C   0  0  0  0  0  0  0  0  0  0  0  0
   22.0870   36.0080    8.6770 C   0  0  0  0  0  0  0  0  0  0  0  0
   20.2680   35.4780    8.8770 Br  0  0  0  0  0  0  0  0  0  0  0  0
   29.8670   25.5550   16.9770 C   0  0  0  0  0  0  0  0  0  0  0  0
   28.3450   25.7220   17.0260 C   0  0  0  0  0  0  0  0  0  0  0  0
   27.6020   24.3980   16.9370 C   0  0  0  0  0  0  0  0  0  0  0  0
   26.1380   24.5480   17.2440 C   0  0  0  0  0  0  0  0  0  0  0  0
   25.5810   23.2150   17.7330 C   0  0  0  0  0  0  0  0  0  0  0  0
   25.5490   23.1780   19.2140 N   0  0  0  0  0  0  0  0  0  0  0  0
  2  1  1  6  0  0  0
  2  3  1  0  0  0  0
  2 25  1  0  0  0  0
  3 23  1  6  0  0  0
  4  3  1  6  0  0  0
  4  7  1  0  0  0  0
  5 10  1  6  0  0  0
  5 12  1  0  0  0  0
  6  5  1  0  0  0  0
  7  5  1  0  0  0  0
  8 16  1  6  0  0  0
  8  9  1  0  0  0  0
  8  6  1  0  0  0  0
  9 18  1  1  0  0  0
  9  4  1  0  0  0  0
 10 11  1  0  0  0  0
 12 14  1  0  0  0  0
 12 13  2  0  0  0  0
 14 15  1  0  0  0  0
 17 16  1  0  0  0  0
 18 20  1  0  0  0  0
 19 18  1  0  0  0  0
 19 21  1  0  0  0  0
 22 19  2  0  0  0  0
 23 24  1  0  0  0  0
 25 26  1  0  0  0  0
 27  1  1  0  0  0  0
 28 30  2  0  0  0  0
 28 27  1  0  0  0  0
 29 27  1  0  0  0  0
 31 28  1  0  0  0  0
 32 31  1  0  0  0  0
 33 32  1  0  0  0  0
 33 34  2  0  0  0  0
 35 33  1  0  0  0  0
 36 38  1  0  0  0  0
 36 34  1  0  0  0  0
 37 35  2  0  0  0  0
 37 36  1  0  0  0  0
 38 40  2  0  0  0  0
 39 41  2  0  0  0  0
 39 38  1  0  0  0  0
 40 42  1  0  0  0  0
 41 43  1  0  0  0  0
 43 44  1  0  0  0  0
 43 42  2  0  0  0  0
 45 46  1  0  0  0  0
 47 46  1  0  0  0  0
 47 48  1  0  0  0  0
 48 49  1  0  0  0  0
 49 50  1  0  0  0  0
M  END
>  <REMARK>
 VINA RESULT:    -5.116      5.993     10.652
 INTER + INTRA:         -14.014
 INTER:                  -8.542
 INTRA:                  -5.473
 UNBOUND:                -5.161
 SMILES CC(=O)N[C@@H]1[C@@H](O)C[C@](O)(C(=O)O)O[C@H]1C(O)[C@H](O)CNC(=O)OCc1cn(-c2ccc(Br)cc2)nn1
 SMILES IDX 20 1 18 2 16 3 15 4 9 5 8 6 14 7 6 8 5 9 10 10 11 12 12 13
 SMILES IDX 13 14 7 16 4 18 2 19 1 21 3 22 17 23 19 25 21 27 22 28 23 30
 SMILES IDX 24 31 25 32 26 33 27 34 37 35 28 36 36 37 29 38 30 39 35 40
 SMILES IDX 31 41 34 42 32 43 33 44
 H PARENT 10 11 13 15 7 17 4 20 17 24 19 26 21 29
 Flexibility Score: inf
  4 active torsions:
  status: ('A' for Active; 'I' for Inactive)
    1  A    between atoms: CA   and  CB  
    2  A    between atoms: CB   and  CG  
    3  A    between atoms: CG   and  CD  
    4  A    between atoms: CD   and  CE  

>  <TORSDO>
F 15

>  <BEGIN_>
RES LYS A 131

$$$$
ligand_15_pose_15_2HRL.pdbqt
 OpenBabel07062320523D

  6  5  0  0  0  0  0  0  0  0999 V2000
   33.1930   34.6630    9.2900 C   0  0  0  0  0  0  0  0  0  0  0  0
   32.0600   35.3600   10.0340 C   0  0  0  0  0  0  0  0  0  0  0  0
   30.7950   35.4860    9.2250 C   0  0  0  0  0  0  0  0  0  0  0  0
   29.9470   34.2300    9.3550 C   0  0  0  0  0  0  0  0  0  0  0  0
   28.6400   34.5410   10.0580 C   0  0  0  0  0  0  0  0  0  0  0  0
   27.5080   33.7970    9.4380 N   0  0  0  0  0  0  0  0  0  0  0  0
  1  2  1  0  0  0  0
  3  4  1  0  0  0  0
  3  2  1  0  0  0  0
  4  5  1  0  0  0  0
  6  5  1  0  0  0  0
M  END
>  <EGIN_R>
ES LYS A 135

>  <REMARK>
  4 active torsions:
  status: ('A' for Active; 'I' for Inactive)
    5  A    between atoms: CA   and  CB  
    6  A    between atoms: CB   and  CG  
    7  A    between atoms: CG   and  CD  
    8  A    between atoms: CD   and  CE  

$$$$
