ligand_68_pose_1_2HRL.pdbqt
 OpenBabel07062320523D

 53 54  0  0  1  0  0  0  0  0999 V2000
   30.0280   35.1380   15.3870 N   0  0  0  0  0  0  0  0  0  0  0  0
   29.4010   36.0170   16.3060 C   0  0  0  0  0  0  0  0  0  0  0  0
   30.0520   36.4180   17.2970 O   0  0  0  0  0  0  0  0  0  0  0  0
   29.4060   34.8470   14.5700 H   0  0  0  0  0  0  0  0  0  0  0  0
   31.3840   34.6520   15.5010 C   0  0  0  0  0  0  0  0  0  0  0  0
   31.4710   33.3900   16.3330 C   0  0  2  0  0  0  0  0  0  0  0  0
   30.2650   32.4910   16.0560 C   0  0  2  0  0  0  0  0  0  0  0  0
   30.3050   31.1780   16.7910 C   0  0  2  0  0  0  0  0  0  0  0  0
   28.0280   30.7020   16.5270 C   0  0  2  0  0  0  0  0  0  0  0  0
   27.7450   31.6330   17.6360 C   0  0  0  0  0  0  0  0  0  0  0  0
   29.3090   30.3580   16.2560 O   0  0  0  0  0  0  0  0  0  0  0  0
   28.8110   31.8210   18.6690 C   0  0  1  0  0  0  0  0  0  0  0  0
   30.1760   31.3340   18.2460 C   0  0  1  0  0  0  0  0  0  0  0  0
   27.5420   31.3380   15.3450 O   0  0  0  0  0  0  0  0  0  0  0  0
   28.2380   31.1880   14.6680 H   0  0  0  0  0  0  0  0  0  0  0  0
   27.1350   29.4930   16.6780 C   0  0  0  0  0  0  0  0  0  0  0  0
   25.9610   29.4720   16.2400 O   0  0  0  0  0  0  0  0  0  0  0  0
   27.6160   28.3570   17.3220 O   0  0  0  0  0  0  0  0  0  0  0  0
   27.3990   27.4160   17.0300 H   0  0  0  0  0  0  0  0  0  0  0  0
   28.8740   33.1940   19.0400 O   0  0  0  0  0  0  0  0  0  0  0  0
   29.7130   33.3120   19.5250 H   0  0  0  0  0  0  0  0  0  0  0  0
   30.4110   30.1110   18.9970 N   0  0  0  0  0  0  0  0  0  0  0  0
   31.1160   30.0580   20.2230 C   0  0  0  0  0  0  0  0  0  0  0  0
   30.0180   29.2440   18.5700 H   0  0  0  0  0  0  0  0  0  0  0  0
   31.3380   28.7920   20.9650 C   0  0  0  0  0  0  0  0  0  0  0  0
   31.5510   31.1570   20.6550 O   0  0  0  0  0  0  0  0  0  0  0  0
   30.4640   32.1640   14.6600 O   0  0  0  0  0  0  0  0  0  0  0  0
   30.3120   32.9370   14.0950 H   0  0  0  0  0  0  0  0  0  0  0  0
   31.5990   33.7360   17.6580 O   0  0  0  0  0  0  0  0  0  0  0  0
   32.5560   33.8900   17.8380 H   0  0  0  0  0  0  0  0  0  0  0  0
   28.0940   36.4570   16.1590 O   0  0  0  0  0  0  0  0  0  0  0  0
   26.9920   35.7690   16.7180 C   0  0  0  0  0  0  0  0  0  0  0  0
   26.4370   34.8540   15.7000 C   0  0  0  0  0  0  0  0  0  0  0  0
   25.1540   34.3290   15.6780 C   0  0  0  0  0  0  0  0  0  0  0  0
   27.0290   34.3390   14.5970 N   0  0  0  0  0  0  0  0  0  0  0  0
   25.0110   33.5370   14.6000 N   0  0  0  0  0  0  0  0  0  0  0  0
   26.1590   33.5630   13.9680 N   0  0  0  0  0  0  0  0  0  0  0  0
   23.7890   32.8070   14.2390 C   0  0  0  0  0  0  0  0  0  0  0  0
   24.1500   31.6940   13.2860 C   0  0  1  0  0  0  0  0  0  0  0  0
   24.9630   30.7880   14.0040 O   0  0  0  0  0  0  0  0  0  0  0  0
   25.4370   30.1970   13.3570 H   0  0  0  0  0  0  0  0  0  0  0  0
   22.9290   30.9730   12.8730 C   0  0  0  0  0  0  0  0  0  0  0  0
   22.9200   29.6200   12.6010 C   0  0  0  0  0  0  0  0  0  0  0  0
   21.7300   31.6880   12.7520 C   0  0  0  0  0  0  0  0  0  0  0  0
   21.7730   28.9680   12.2190 C   0  0  0  0  0  0  0  0  0  0  0  0
   20.5890   31.0420   12.3730 C   0  0  0  0  0  0  0  0  0  0  0  0
   20.6100   29.6920   12.1080 C   0  0  0  0  0  0  0  0  0  0  0  0
   29.8670   25.5550   16.9770 C   0  0  0  0  0  0  0  0  0  0  0  0
   28.3450   25.7220   17.0260 C   0  0  0  0  0  0  0  0  0  0  0  0
   27.6020   24.3980   16.9320 C   0  0  0  0  0  0  0  0  0  0  0  0
   26.1250   24.5600   17.1610 C   0  0  0  0  0  0  0  0  0  0  0  0
   25.5500   23.2590   17.7120 C   0  0  0  0  0  0  0  0  0  0  0  0
   25.6280   23.2430   19.1920 N   0  0  0  0  0  0  0  0  0  0  0  0
  1  5  1  0  0  0  0
  1  2  1  0  0  0  0
  2  3  2  0  0  0  0
  4  1  1  0  0  0  0
  6  5  1  6  0  0  0
  6 29  1  0  0  0  0
  7 27  1  6  0  0  0
  7  6  1  0  0  0  0
  8  7  1  6  0  0  0
  8 13  1  0  0  0  0
  9 14  1  6  0  0  0
  9 16  1  0  0  0  0
  9 10  1  0  0  0  0
 10 12  1  0  0  0  0
 11  9  1  0  0  0  0
 11  8  1  0  0  0  0
 12 20  1  6  0  0  0
 13 12  1  0  0  0  0
 13 22  1  1  0  0  0
 15 14  1  0  0  0  0
 16 18  1  0  0  0  0
 17 16  2  0  0  0  0
 19 18  1  0  0  0  0
 20 21  1  0  0  0  0
 22 23  1  0  0  0  0
 23 26  2  0  0  0  0
 23 25  1  0  0  0  0
 24 22  1  0  0  0  0
 28 27  1  0  0  0  0
 29 30  1  0  0  0  0
 31  2  1  0  0  0  0
 31 32  1  0  0  0  0
 33 32  1  0  0  0  0
 34 33  2  0  0  0  0
 35 33  1  0  0  0  0
 36 34  1  0  0  0  0
 37 35  2  0  0  0  0
 37 36  1  0  0  0  0
 38 36  1  0  0  0  0
 39 40  1  0  0  0  0
 39 38  1  1  0  0  0
 41 40  1  0  0  0  0
 42 39  1  0  0  0  0
 43 42  2  0  0  0  0
 44 42  1  0  0  0  0
 45 43  1  0  0  0  0
 46 44  2  0  0  0  0
 47 45  2  0  0  0  0
 47 46  1  0  0  0  0
 48 49  1  0  0  0  0
 50 49  1  0  0  0  0
 50 51  1  0  0  0  0
 51 52  1  0  0  0  0
 52 53  1  0  0  0  0
M  END
>  <REMARK>
 VINA RESULT:    -5.925      3.795      7.081
 INTER + INTRA:         -16.133
 INTER:                  -9.178
 INTRA:                  -6.955
 UNBOUND:                -5.012
 SMILES CC(=O)N[C@@H]1[C@@H](O)C[C@](O)(C(=O)O)O[C@H]1C(O)[C@H](O)CNC(=O)OCc1cn(CC(O)c2ccccc2)nn1
 SMILES IDX 21 1 22 2 23 3 20 5 18 6 16 7 15 8 9 9 8 10 14 11 6 12 5 13
 SMILES IDX 10 14 11 16 12 17 13 18 7 20 4 22 2 23 1 25 3 26 17 27 19 29
 SMILES IDX 24 31 25 32 26 33 27 34 39 35 28 36 38 37 29 38 30 39 31 40
 SMILES IDX 32 42 33 43 37 44 34 45 36 46 35 47
 H PARENT 21 4 10 15 13 19 7 21 4 24 17 28 19 30 31 41
 Flexibility Score: inf
  4 active torsions:
  status: ('A' for Active; 'I' for Inactive)
    1  A    between atoms: CA   and  CB  
    2  A    between atoms: CB   and  CG  
    3  A    between atoms: CG   and  CD  
    4  A    between atoms: CD   and  CE  

>  <TORSDO>
F 18

>  <BEGIN_>
RES LYS A 131

$$$$
ligand_68_pose_1_2HRL.pdbqt
 OpenBabel07062320523D

  6  5  0  0  0  0  0  0  0  0999 V2000
   33.1930   34.6630    9.2900 C   0  0  0  0  0  0  0  0  0  0  0  0
   32.0600   35.3600   10.0340 C   0  0  0  0  0  0  0  0  0  0  0  0
   30.7210   34.6910    9.8570 C   0  0  0  0  0  0  0  0  0  0  0  0
   30.3850   34.5460    8.3800 C   0  0  0  0  0  0  0  0  0  0  0  0
   28.8840   34.5910    8.1690 C   0  0  0  0  0  0  0  0  0  0  0  0
   28.1650   33.9160    9.2850 N   0  0  0  0  0  0  0  0  0  0  0  0
  1  2  1  0  0  0  0
  3  2  1  0  0  0  0
  4  3  1  0  0  0  0
  5  4  1  0  0  0  0
  5  6  1  0  0  0  0
M  END
>  <EGIN_R>
ES LYS A 135

>  <REMARK>
  4 active torsions:
  status: ('A' for Active; 'I' for Inactive)
    5  A    between atoms: CA   and  CB  
    6  A    between atoms: CB   and  CG  
    7  A    between atoms: CG   and  CD  
    8  A    between atoms: CD   and  CE  

$$$$
