ligand_6_pose_7_2HRL.pdbqt
 OpenBabel07062320523D

 52 53  0  0  1  0  0  0  0  0999 V2000
   25.3420   29.7780   19.4450 N   0  0  0  0  0  0  0  0  0  0  0  0
   24.8060   29.4150   18.1960 C   0  0  0  0  0  0  0  0  0  0  0  0
   24.3720   28.2770   17.9440 O   0  0  0  0  0  0  0  0  0  0  0  0
   25.6580   30.8040   19.5440 H   0  0  0  0  0  0  0  0  0  0  0  0
   25.4920   28.9090   20.5450 C   0  0  0  0  0  0  0  0  0  0  0  0
   26.6020   27.9360   20.5860 C   0  0  2  0  0  0  0  0  0  0  0  0
   27.9280   28.2230   20.0520 C   0  0  2  0  0  0  0  0  0  0  0  0
   28.4180   29.6270   20.4200 C   0  0  2  0  0  0  0  0  0  0  0  0
   28.8820   31.6430   19.3550 C   0  0  2  0  0  0  0  0  0  0  0  0
   29.2690   32.0600   20.7550 C   0  0  0  0  0  0  0  0  0  0  0  0
   28.1870   30.4560   19.3020 O   0  0  0  0  0  0  0  0  0  0  0  0
   30.0940   31.0310   21.4610 C   0  0  1  0  0  0  0  0  0  0  0  0
   29.8710   29.6990   20.7210 C   0  0  1  0  0  0  0  0  0  0  0  0
   30.0370   31.6330   18.5920 O   0  0  0  0  0  0  0  0  0  0  0  0
   30.4710   32.5070   18.6570 H   0  0  0  0  0  0  0  0  0  0  0  0
   27.9830   32.7040   18.8300 C   0  0  0  0  0  0  0  0  0  0  0  0
   26.7340   32.5580   18.8500 O   0  0  0  0  0  0  0  0  0  0  0  0
   28.4950   33.8790   18.3060 O   0  0  0  0  0  0  0  0  0  0  0  0
   28.6760   34.7010   18.8870 H   0  0  0  0  0  0  0  0  0  0  0  0
   31.4340   31.3340   21.5500 O   0  0  0  0  0  0  0  0  0  0  0  0
   31.9220   30.7680   20.9010 H   0  0  0  0  0  0  0  0  0  0  0  0
   30.3650   28.6790   21.6210 N   0  0  0  0  0  0  0  0  0  0  0  0
   31.6510   28.0790   21.4070 C   0  0  0  0  0  0  0  0  0  0  0  0
   29.8290   28.3410   22.4430 H   0  0  0  0  0  0  0  0  0  0  0  0
   32.2190   27.0330   22.2850 C   0  0  0  0  0  0  0  0  0  0  0  0
   32.3110   28.4740   20.4230 O   0  0  0  0  0  0  0  0  0  0  0  0
   27.9950   28.0120   18.6990 O   0  0  0  0  0  0  0  0  0  0  0  0
   28.3770   28.7400   18.1610 H   0  0  0  0  0  0  0  0  0  0  0  0
   26.0510   26.7230   20.0800 O   0  0  0  0  0  0  0  0  0  0  0  0
   25.4020   26.9260   19.3580 H   0  0  0  0  0  0  0  0  0  0  0  0
   24.7690   30.4100   17.1940 O   0  0  0  0  0  0  0  0  0  0  0  0
   25.2850   30.0420   15.9310 C   0  0  0  0  0  0  0  0  0  0  0  0
   26.7560   30.3430   15.8690 C   0  0  0  0  0  0  0  0  0  0  0  0
   27.3550   31.5240   15.4920 C   0  0  0  0  0  0  0  0  0  0  0  0
   27.7880   29.5160   16.1700 N   0  0  0  0  0  0  0  0  0  0  0  0
   28.7030   31.4030   15.5660 N   0  0  0  0  0  0  0  0  0  0  0  0
   28.9080   30.1710   15.9810 N   0  0  0  0  0  0  0  0  0  0  0  0
   29.6710   32.4020   15.2570 C   0  0  0  0  0  0  0  0  0  0  0  0
   31.0110   32.2370   15.5380 C   0  0  0  0  0  0  0  0  0  0  0  0
   29.3030   33.5910   14.6550 C   0  0  0  0  0  0  0  0  0  0  0  0
   31.9320   33.2180   15.2290 C   0  0  0  0  0  0  0  0  0  0  0  0
   30.2240   34.5730   14.3460 C   0  0  0  0  0  0  0  0  0  0  0  0
   31.5640   34.4110   14.6250 C   0  0  0  0  0  0  0  0  0  0  0  0
   32.5010   35.4200   14.3050 N   0  0  0  0  0  0  0  0  0  0  0  0
   33.3940   35.1630   13.4800 O   0  0  0  0  0  0  0  0  0  0  0  0
   32.4840   36.6730   14.8490 O   0  0  0  0  0  0  0  0  0  0  0  0
   29.8670   25.5550   16.9770 C   0  0  0  0  0  0  0  0  0  0  0  0
   28.3450   25.7220   17.0260 C   0  0  0  0  0  0  0  0  0  0  0  0
   27.6010   24.4020   16.8930 C   0  0  0  0  0  0  0  0  0  0  0  0
   26.1450   24.5350   17.2410 C   0  0  0  0  0  0  0  0  0  0  0  0
   25.5740   23.1610   17.5750 C   0  0  0  0  0  0  0  0  0  0  0  0
   24.1680   23.0570   17.1160 N   0  0  0  0  0  0  0  0  0  0  0  0
  1  4  1  0  0  0  0
  1  5  1  0  0  0  0
  2  1  1  0  0  0  0
  3  2  2  0  0  0  0
  6  5  1  6  0  0  0
  7 27  1  6  0  0  0
  7  6  1  0  0  0  0
  8  7  1  6  0  0  0
  8 13  1  0  0  0  0
  9 14  1  6  0  0  0
  9 10  1  0  0  0  0
 10 12  1  0  0  0  0
 11  9  1  0  0  0  0
 11  8  1  0  0  0  0
 12 20  1  6  0  0  0
 13 12  1  0  0  0  0
 13 22  1  1  0  0  0
 14 15  1  0  0  0  0
 16 17  2  0  0  0  0
 16  9  1  0  0  0  0
 18 16  1  0  0  0  0
 18 19  1  0  0  0  0
 21 20  1  0  0  0  0
 22 24  1  0  0  0  0
 23 22  1  0  0  0  0
 23 25  1  0  0  0  0
 26 23  2  0  0  0  0
 28 27  1  0  0  0  0
 29  6  1  0  0  0  0
 30 29  1  0  0  0  0
 31  2  1  0  0  0  0
 32 31  1  0  0  0  0
 33 32  1  0  0  0  0
 33 35  1  0  0  0  0
 34 36  1  0  0  0  0
 34 33  2  0  0  0  0
 36 37  1  0  0  0  0
 37 35  2  0  0  0  0
 38 39  1  0  0  0  0
 38 36  1  0  0  0  0
 40 38  2  0  0  0  0
 41 39  2  0  0  0  0
 42 43  2  0  0  0  0
 42 40  1  0  0  0  0
 43 41  1  0  0  0  0
 44 43  1  0  0  0  0
 44 46  2  0  0  0  0
 45 44  2  0  0  0  0
 47 48  1  0  0  0  0
 49 48  1  0  0  0  0
 49 50  1  0  0  0  0
 50 51  1  0  0  0  0
 52 51  1  0  0  0  0
M  END
>  <REMARK>
 VINA RESULT:    -5.529      2.475      4.770
 INTER + INTRA:         -14.642
 INTER:                  -7.843
 INTRA:                  -6.799
 UNBOUND:                -4.749
 SMILES CC(=O)N[C@@H]1[C@@H](O)C[C@](O)(C(=O)O)O[C@H]1C(O)[C@H](O)CNC(=O)OCc1cn(-c2ccc([N+](=O)[O-])cc2)nn1
 SMILES IDX 21 1 22 2 23 3 20 5 18 6 16 7 15 8 9 9 8 10 14 11 6 12 5 13
 SMILES IDX 10 14 11 16 12 17 13 18 7 20 4 22 2 23 1 25 3 26 17 27 19 29
 SMILES IDX 24 31 25 32 26 33 27 34 39 35 28 36 38 37 29 38 30 39 37 40
 SMILES IDX 31 41 36 42 32 43 33 44 34 45 35 46
 H PARENT 21 4 10 15 13 19 7 21 4 24 17 28 19 30
 Flexibility Score: inf
  4 active torsions:
  status: ('A' for Active; 'I' for Inactive)
    1  A    between atoms: CA   and  CB  
    2  A    between atoms: CB   and  CG  
    3  A    between atoms: CG   and  CD  
    4  A    between atoms: CD   and  CE  

>  <TORSDO>
F 16

>  <BEGIN_>
RES LYS A 131

$$$$
ligand_6_pose_7_2HRL.pdbqt
 OpenBabel07062320523D

  6  5  0  0  0  0  0  0  0  0999 V2000
   33.1930   34.6630    9.2900 C   0  0  0  0  0  0  0  0  0  0  0  0
   32.0600   35.3600   10.0340 C   0  0  0  0  0  0  0  0  0  0  0  0
   30.7080   34.7410    9.7890 C   0  0  0  0  0  0  0  0  0  0  0  0
   30.4810   34.5190    8.3020 C   0  0  0  0  0  0  0  0  0  0  0  0
   29.0660   34.9020    7.9150 C   0  0  0  0  0  0  0  0  0  0  0  0
   28.5800   36.0500    8.7290 N   0  0  0  0  0  0  0  0  0  0  0  0
  1  2  1  0  0  0  0
  3  2  1  0  0  0  0
  4  3  1  0  0  0  0
  5  4  1  0  0  0  0
  5  6  1  0  0  0  0
M  END
>  <EGIN_R>
ES LYS A 135

>  <REMARK>
  4 active torsions:
  status: ('A' for Active; 'I' for Inactive)
    5  A    between atoms: CA   and  CB  
    6  A    between atoms: CB   and  CG  
    7  A    between atoms: CG   and  CD  
    8  A    between atoms: CD   and  CE  

$$$$
