ligand_88_pose_13_2HRL.pdbqt
 OpenBabel07062320523D

 54 55  0  0  1  0  0  0  0  0999 V2000
   25.0100   27.9960   20.4250 N   0  0  0  0  0  0  0  0  0  0  0  0
   25.7430   26.8840   20.9280 C   0  0  0  0  0  0  0  0  0  0  0  0
   26.1740   26.0280   20.1220 O   0  0  0  0  0  0  0  0  0  0  0  0
   24.6640   28.6900   21.1110 H   0  0  0  0  0  0  0  0  0  0  0  0
   24.7460   28.1670   19.0220 C   0  0  0  0  0  0  0  0  0  0  0  0
   25.6700   29.1840   18.4170 C   0  0  2  0  0  0  0  0  0  0  0  0
   26.6610   28.5590   17.4600 C   0  0  1  0  0  0  0  0  0  0  0  0
   27.1380   29.6220   16.4530 C   0  0  2  0  0  0  0  0  0  0  0  0
   28.6150   31.3830   16.9570 C   0  0  2  0  0  0  0  0  0  0  0  0
   27.8460   32.1780   15.8900 C   0  0  0  0  0  0  0  0  0  0  0  0
   28.3280   30.0620   16.8750 O   0  0  0  0  0  0  0  0  0  0  0  0
   26.3940   32.0290   16.3190 C   0  0  1  0  0  0  0  0  0  0  0  0
   26.0550   30.5740   16.1700 C   0  0  1  0  0  0  0  0  0  0  0  0
   28.2990   31.9780   18.1620 O   0  0  0  0  0  0  0  0  0  0  0  0
   28.5440   31.4360   18.9510 H   0  0  0  0  0  0  0  0  0  0  0  0
   30.0710   31.5490   16.7210 C   0  0  0  0  0  0  0  0  0  0  0  0
   30.8030   31.8910   17.6820 O   0  0  0  0  0  0  0  0  0  0  0  0
   30.6520   31.3370   15.4740 O   0  0  0  0  0  0  0  0  0  0  0  0
   30.4640   32.0670   14.7720 H   0  0  0  0  0  0  0  0  0  0  0  0
   26.2140   32.4840   17.6230 O   0  0  0  0  0  0  0  0  0  0  0  0
   27.0510   32.9090   17.9060 H   0  0  0  0  0  0  0  0  0  0  0  0
   25.4780   30.4100   14.8360 N   0  0  0  0  0  0  0  0  0  0  0  0
   24.2310   29.7810   14.6010 C   0  0  0  0  0  0  0  0  0  0  0  0
   25.9850   30.7650   13.9780 H   0  0  0  0  0  0  0  0  0  0  0  0
   23.6800   29.6340   13.2190 C   0  0  0  0  0  0  0  0  0  0  0  0
   23.5690   29.3330   15.5720 O   0  0  0  0  0  0  0  0  0  0  0  0
   27.7070   27.9160   18.0760 O   0  0  0  0  0  0  0  0  0  0  0  0
   28.1310   28.4610   18.7700 H   0  0  0  0  0  0  0  0  0  0  0  0
   26.2480   29.9520   19.4040 O   0  0  0  0  0  0  0  0  0  0  0  0
   25.9670   30.8860   19.4070 H   0  0  0  0  0  0  0  0  0  0  0  0
   25.9780   26.7480   22.2730 O   0  0  0  0  0  0  0  0  0  0  0  0
   27.2740   26.8880   22.8270 C   0  0  0  0  0  0  0  0  0  0  0  0
   27.9880   27.9720   22.1010 C   0  0  0  0  0  0  0  0  0  0  0  0
   29.1910   27.8640   21.4150 C   0  0  0  0  0  0  0  0  0  0  0  0
   27.6410   29.2630   21.9470 N   0  0  0  0  0  0  0  0  0  0  0  0
   29.5120   29.0560   20.8910 N   0  0  0  0  0  0  0  0  0  0  0  0
   28.5350   29.9120   21.2340 N   0  0  0  0  0  0  0  0  0  0  0  0
   30.6670   29.3950   20.1080 C   0  0  0  0  0  0  0  0  0  0  0  0
   31.6610   30.2060   20.8560 C   0  0  0  0  0  0  0  0  0  0  0  0
   32.7190   29.5520   21.4540 C   0  0  0  0  0  0  0  0  0  0  0  0
   31.5770   31.5730   20.9830 C   0  0  0  0  0  0  0  0  0  0  0  0
   33.6960   30.2050   22.1730 C   0  0  0  0  0  0  0  0  0  0  0  0
   32.5560   32.2600   21.7080 C   0  0  0  0  0  0  0  0  0  0  0  0
   35.1430   29.2780   22.9850 Br  0  0  0  0  0  0  0  0  0  0  0  0
   33.5990   31.5840   22.2940 C   0  0  0  0  0  0  0  0  0  0  0  0
   32.3620   34.1660   21.8360 Br  0  0  0  0  0  0  0  0  0  0  0  0
   30.5300   32.2580   20.3960 O   0  0  0  0  0  0  0  0  0  0  0  0
   29.9250   32.8250   20.9750 H   0  0  0  0  0  0  0  0  0  0  0  0
   29.8670   25.5550   16.9770 C   0  0  0  0  0  0  0  0  0  0  0  0
   28.3450   25.7220   17.0260 C   0  0  0  0  0  0  0  0  0  0  0  0
   27.6010   24.4050   16.8690 C   0  0  0  0  0  0  0  0  0  0  0  0
   26.1310   24.5470   17.1530 C   0  0  0  0  0  0  0  0  0  0  0  0
   25.5720   23.2090   17.6250 C   0  0  0  0  0  0  0  0  0  0  0  0
   24.2200   22.9840   17.0620 N   0  0  0  0  0  0  0  0  0  0  0  0
  1  2  1  0  0  0  0
  1  4  1  0  0  0  0
  2 31  1  0  0  0  0
  3  2  2  0  0  0  0
  5  1  1  0  0  0  0
  6  5  1  1  0  0  0
  6 29  1  0  0  0  0
  7 27  1  1  0  0  0
  7  6  1  0  0  0  0
  8 11  1  0  0  0  0
  8  7  1  1  0  0  0
  9 16  1  6  0  0  0
  9 14  1  0  0  0  0
 10 12  1  0  0  0  0
 10  9  1  0  0  0  0
 11  9  1  0  0  0  0
 12 20  1  1  0  0  0
 13 22  1  6  0  0  0
 13 12  1  0  0  0  0
 13  8  1  0  0  0  0
 14 15  1  0  0  0  0
 16 17  2  0  0  0  0
 18 16  1  0  0  0  0
 19 18  1  0  0  0  0
 20 21  1  0  0  0  0
 23 22  1  0  0  0  0
 23 26  2  0  0  0  0
 24 22  1  0  0  0  0
 25 23  1  0  0  0  0
 27 28  1  0  0  0  0
 29 30  1  0  0  0  0
 31 32  1  0  0  0  0
 33 32  1  0  0  0  0
 34 33  2  0  0  0  0
 35 33  1  0  0  0  0
 36 37  1  0  0  0  0
 36 34  1  0  0  0  0
 37 35  2  0  0  0  0
 38 39  1  0  0  0  0
 38 36  1  0  0  0  0
 39 41  2  0  0  0  0
 39 40  1  0  0  0  0
 40 42  2  0  0  0  0
 41 43  1  0  0  0  0
 42 45  1  0  0  0  0
 42 44  1  0  0  0  0
 43 46  1  0  0  0  0
 43 45  2  0  0  0  0
 47 48  1  0  0  0  0
 47 41  1  0  0  0  0
 49 50  1  0  0  0  0
 51 50  1  0  0  0  0
 51 52  1  0  0  0  0
 52 53  1  0  0  0  0
 54 53  1  0  0  0  0
M  END
>  <REMARK>
 VINA RESULT:    -5.053      3.171      6.085
 INTER + INTRA:         -14.983
 INTER:                  -7.635
 INTRA:                  -7.348
 UNBOUND:                -5.794
 SMILES CC(=O)N[C@@H]1[C@@H](O)C[C@](O)(C(=O)O)O[C@H]1C(O)[C@H](O)CNC(=O)OCc1cn(Cc2cc(Br)cc(Br)c2O)nn1
 SMILES IDX 21 1 22 2 23 3 20 5 18 6 16 7 15 8 9 9 8 10 14 11 6 12 5 13
 SMILES IDX 10 14 11 16 12 17 13 18 7 20 4 22 2 23 1 25 3 26 17 27 19 29
 SMILES IDX 24 31 25 32 26 33 27 34 40 35 28 36 39 37 29 38 30 39 31 40
 SMILES IDX 37 41 32 42 35 43 33 44 34 45 36 46 38 47
 H PARENT 21 4 10 15 13 19 7 21 4 24 17 28 19 30 38 48
 Flexibility Score: inf
  4 active torsions:
  status: ('A' for Active; 'I' for Inactive)
    1  A    between atoms: CA   and  CB  
    2  A    between atoms: CB   and  CG  
    3  A    between atoms: CG   and  CD  
    4  A    between atoms: CD   and  CE  

>  <TORSDO>
F 17

>  <BEGIN_>
RES LYS A 131

$$$$
ligand_88_pose_13_2HRL.pdbqt
 OpenBabel07062320523D

  6  5  0  0  0  0  0  0  0  0999 V2000
   33.1930   34.6630    9.2900 C   0  0  0  0  0  0  0  0  0  0  0  0
   32.0600   35.3600   10.0340 C   0  0  0  0  0  0  0  0  0  0  0  0
   30.7620   34.5950   10.0090 C   0  0  0  0  0  0  0  0  0  0  0  0
   30.4060   34.1890    8.5870 C   0  0  0  0  0  0  0  0  0  0  0  0
   28.9640   34.5450    8.2770 C   0  0  0  0  0  0  0  0  0  0  0  0
   28.8770   35.4420    7.0910 N   0  0  0  0  0  0  0  0  0  0  0  0
  1  2  1  0  0  0  0
  3  2  1  0  0  0  0
  4  3  1  0  0  0  0
  5  4  1  0  0  0  0
  6  5  1  0  0  0  0
M  END
>  <EGIN_R>
ES LYS A 135

>  <REMARK>
  4 active torsions:
  status: ('A' for Active; 'I' for Inactive)
    5  A    between atoms: CA   and  CB  
    6  A    between atoms: CB   and  CG  
    7  A    between atoms: CG   and  CD  
    8  A    between atoms: CD   and  CE  

$$$$
