ligand_24_pose_2_2HRL.pdbqt
 OpenBabel07062320523D

 52 53  0  0  1  0  0  0  0  0999 V2000
   25.9500   37.4840   12.9470 N   0  0  0  0  0  0  0  0  0  0  0  0
   26.0920   37.5810   11.5460 C   0  0  0  0  0  0  0  0  0  0  0  0
   27.2050   37.6670   10.9730 O   0  0  0  0  0  0  0  0  0  0  0  0
   24.9730   37.4230   13.3190 H   0  0  0  0  0  0  0  0  0  0  0  0
   27.0400   37.4640   13.8700 C   0  0  0  0  0  0  0  0  0  0  0  0
   27.3100   36.1390   14.4960 C   0  0  2  0  0  0  0  0  0  0  0  0
   28.4500   35.3990   13.8320 C   0  0  1  0  0  0  0  0  0  0  0  0
   28.7230   34.0530   14.4020 C   0  0  2  0  0  0  0  0  0  0  0  0
   28.4040   32.6960   16.2490 C   0  0  2  0  0  0  0  0  0  0  0  0
   29.8140   32.1800   16.1920 C   0  0  0  0  0  0  0  0  0  0  0  0
   28.1960   33.9140   15.6830 O   0  0  0  0  0  0  0  0  0  0  0  0
   30.5000   32.4950   14.8790 C   0  0  1  0  0  0  0  0  0  0  0  0
   30.2400   33.9330   14.5840 C   0  0  1  0  0  0  0  0  0  0  0  0
   28.1290   32.8520   17.6330 O   0  0  0  0  0  0  0  0  0  0  0  0
   29.0050   33.0250   18.0540 H   0  0  0  0  0  0  0  0  0  0  0  0
   27.5080   31.6160   15.7710 C   0  0  0  0  0  0  0  0  0  0  0  0
   26.2850   31.8150   15.5110 O   0  0  0  0  0  0  0  0  0  0  0  0
   27.9650   30.3130   15.5800 O   0  0  0  0  0  0  0  0  0  0  0  0
   27.8130   29.8370   14.7120 H   0  0  0  0  0  0  0  0  0  0  0  0
   31.8420   32.1800   14.9650 O   0  0  0  0  0  0  0  0  0  0  0  0
   31.9440   31.2330   15.1480 H   0  0  0  0  0  0  0  0  0  0  0  0
   30.9910   34.4670   13.4940 N   0  0  0  0  0  0  0  0  0  0  0  0
   32.0100   35.4240   13.6010 C   0  0  0  0  0  0  0  0  0  0  0  0
   30.7660   34.1110   12.5250 H   0  0  0  0  0  0  0  0  0  0  0  0
   32.7170   35.8970   12.3880 C   0  0  0  0  0  0  0  0  0  0  0  0
   32.3240   35.8760   14.7070 O   0  0  0  0  0  0  0  0  0  0  0  0
   28.2170   35.3260   12.4760 O   0  0  0  0  0  0  0  0  0  0  0  0
   27.2740   35.2500   12.2110 H   0  0  0  0  0  0  0  0  0  0  0  0
   26.2000   35.3590   14.6330 O   0  0  0  0  0  0  0  0  0  0  0  0
   25.5820   35.8140   15.2820 H   0  0  0  0  0  0  0  0  0  0  0  0
   24.9440   37.5830   10.7320 O   0  0  0  0  0  0  0  0  0  0  0  0
   24.4730   36.3500   10.2390 C   0  0  0  0  0  0  0  0  0  0  0  0
   24.5770   35.2690   11.2360 C   0  0  0  0  0  0  0  0  0  0  0  0
   23.5700   34.8090   12.0900 C   0  0  0  0  0  0  0  0  0  0  0  0
   25.6500   34.5150   11.5290 N   0  0  0  0  0  0  0  0  0  0  0  0
   24.0650   33.8170   12.8450 N   0  0  0  0  0  0  0  0  0  0  0  0
   25.3240   33.6600   12.4860 N   0  0  0  0  0  0  0  0  0  0  0  0
   23.3830   33.0550   13.8570 C   0  0  0  0  0  0  0  0  0  0  0  0
   22.7360   31.8530   13.2880 C   0  0  0  0  0  0  0  0  0  0  0  0
   21.4140   31.8870   12.9080 C   0  0  0  0  0  0  0  0  0  0  0  0
   23.4580   30.6980   13.1390 C   0  0  0  0  0  0  0  0  0  0  0  0
   20.8120   30.7500   12.3720 C   0  0  0  0  0  0  0  0  0  0  0  0
   22.8690   29.5540   12.6040 C   0  0  0  0  0  0  0  0  0  0  0  0
   21.5520   29.5880   12.2240 C   0  0  0  0  0  0  0  0  0  0  0  0
   20.9310   28.4590   11.6860 O   0  0  0  0  0  0  0  0  0  0  0  0
   19.5640   28.2120   11.9690 C   0  0  0  0  0  0  0  0  0  0  0  0
   29.8670   25.5550   16.9770 C   0  0  0  0  0  0  0  0  0  0  0  0
   28.3450   25.7220   17.0260 C   0  0  0  0  0  0  0  0  0  0  0  0
   27.6010   24.4010   16.9000 C   0  0  0  0  0  0  0  0  0  0  0  0
   26.4890   24.2800   17.9050 C   0  0  0  0  0  0  0  0  0  0  0  0
   25.1620   24.6300   17.2390 C   0  0  0  0  0  0  0  0  0  0  0  0
   24.3190   23.4190   17.0940 N   0  0  0  0  0  0  0  0  0  0  0  0
  1  4  1  0  0  0  0
  1  5  1  0  0  0  0
  2  1  1  0  0  0  0
  3  2  2  0  0  0  0
  6  5  1  6  0  0  0
  6 29  1  0  0  0  0
  7 27  1  6  0  0  0
  7  6  1  0  0  0  0
  8  7  1  1  0  0  0
  8 13  1  0  0  0  0
  8 11  1  0  0  0  0
  9 16  1  6  0  0  0
  9 14  1  0  0  0  0
 10  9  1  0  0  0  0
 11  9  1  0  0  0  0
 12 20  1  1  0  0  0
 12 10  1  0  0  0  0
 13 22  1  6  0  0  0
 13 12  1  0  0  0  0
 14 15  1  0  0  0  0
 17 16  2  0  0  0  0
 18 16  1  0  0  0  0
 19 18  1  0  0  0  0
 20 21  1  0  0  0  0
 22 23  1  0  0  0  0
 23 26  2  0  0  0  0
 24 22  1  0  0  0  0
 25 23  1  0  0  0  0
 28 27  1  0  0  0  0
 29 30  1  0  0  0  0
 31  2  1  0  0  0  0
 32 31  1  0  0  0  0
 32 33  1  0  0  0  0
 33 35  1  0  0  0  0
 33 34  2  0  0  0  0
 34 36  1  0  0  0  0
 35 37  2  0  0  0  0
 36 38  1  0  0  0  0
 37 36  1  0  0  0  0
 39 38  1  0  0  0  0
 40 39  2  0  0  0  0
 41 39  1  0  0  0  0
 42 40  1  0  0  0  0
 43 41  2  0  0  0  0
 44 42  2  0  0  0  0
 44 43  1  0  0  0  0
 45 46  1  0  0  0  0
 45 44  1  0  0  0  0
 47 48  1  0  0  0  0
 49 48  1  0  0  0  0
 49 50  1  0  0  0  0
 51 50  1  0  0  0  0
 52 51  1  0  0  0  0
M  END
>  <REMARK>
 VINA RESULT:    -5.401      4.579      8.794
 INTER + INTRA:         -15.256
 INTER:                  -8.820
 INTRA:                  -6.436
 UNBOUND:                -5.276
 SMILES COc1ccc(Cn2cc(COC(=O)NC[C@@H](O)C(O)[C@@H]3O[C@@](O)(C(=O)O)C[C@H](O)[C@H]3NC(C)=O)nn2)cc1
 SMILES IDX 15 1 13 2 14 3 16 5 17 6 19 7 21 8 23 9 28 10 22 11 29 12
 SMILES IDX 31 13 24 14 25 16 26 17 27 18 30 20 32 22 33 23 34 25 35 26
 SMILES IDX 20 27 18 29 12 31 11 32 10 33 9 34 36 35 8 36 37 37 7 38
 SMILES IDX 6 39 5 40 38 41 4 42 39 43 3 44 2 45 1 46
 H PARENT 15 4 24 15 27 19 30 21 32 24 20 28 18 30
 Flexibility Score: inf
  4 active torsions:
  status: ('A' for Active; 'I' for Inactive)
    1  A    between atoms: CA   and  CB  
    2  A    between atoms: CB   and  CG  
    3  A    between atoms: CG   and  CD  
    4  A    between atoms: CD   and  CE  

>  <TORSDO>
F 17

>  <BEGIN_>
RES LYS A 131

$$$$
ligand_24_pose_2_2HRL.pdbqt
 OpenBabel07062320523D

  6  5  0  0  0  0  0  0  0  0999 V2000
   33.1930   34.6630    9.2900 C   0  0  0  0  0  0  0  0  0  0  0  0
   32.0600   35.3600   10.0340 C   0  0  0  0  0  0  0  0  0  0  0  0
   30.7080   34.7430    9.7870 C   0  0  0  0  0  0  0  0  0  0  0  0
   30.4920   34.5020    8.3010 C   0  0  0  0  0  0  0  0  0  0  0  0
   29.1600   35.0750    7.8560 C   0  0  0  0  0  0  0  0  0  0  0  0
   28.1120   34.8670    8.8940 N   0  0  0  0  0  0  0  0  0  0  0  0
  1  2  1  0  0  0  0
  3  2  1  0  0  0  0
  4  3  1  0  0  0  0
  5  4  1  0  0  0  0
  5  6  1  0  0  0  0
M  END
>  <EGIN_R>
ES LYS A 135

>  <REMARK>
  4 active torsions:
  status: ('A' for Active; 'I' for Inactive)
    5  A    between atoms: CA   and  CB  
    6  A    between atoms: CB   and  CG  
    7  A    between atoms: CG   and  CD  
    8  A    between atoms: CD   and  CE  

$$$$
