ligand_56_pose_12_2HRL.pdbqt
 OpenBabel07062320523D

 49 50  0  0  1  0  0  0  0  0999 V2000
   30.3050   33.2510   18.4000 C   0  0  0  0  0  0  0  0  0  0  0  0
   30.7610   32.0430   19.1400 C   0  0  2  0  0  0  0  0  0  0  0  0
   29.7650   30.8980   19.0610 C   0  0  2  0  0  0  0  0  0  0  0  0
   29.8890   29.9230   20.1760 C   0  0  2  0  0  0  0  0  0  0  0  0
   31.1800   28.2300   21.0650 C   0  0  2  0  0  0  0  0  0  0  0  0
   30.0610   28.1220   22.0700 C   0  0  0  0  0  0  0  0  0  0  0  0
   31.1310   29.3680   20.3060 O   0  0  0  0  0  0  0  0  0  0  0  0
   28.7000   28.2190   21.4370 C   0  0  1  0  0  0  0  0  0  0  0  0
   28.8850   28.7900   20.0440 C   0  0  1  0  0  0  0  0  0  0  0  0
   31.2770   27.0870   20.2700 O   0  0  0  0  0  0  0  0  0  0  0  0
   31.4790   27.3120   19.3220 H   0  0  0  0  0  0  0  0  0  0  0  0
   32.4560   28.2880   21.8620 C   0  0  0  0  0  0  0  0  0  0  0  0
   32.6800   27.5660   22.8440 O   0  0  0  0  0  0  0  0  0  0  0  0
   33.3960   29.2200   21.4290 O   0  0  0  0  0  0  0  0  0  0  0  0
   34.3350   29.2210   21.8190 H   0  0  0  0  0  0  0  0  0  0  0  0
   28.0640   26.9800   21.3720 O   0  0  0  0  0  0  0  0  0  0  0  0
   28.5800   26.3170   21.8910 H   0  0  0  0  0  0  0  0  0  0  0  0
   27.6340   29.2350   19.4770 N   0  0  0  0  0  0  0  0  0  0  0  0
   26.8900   28.3960   18.6030 C   0  0  0  0  0  0  0  0  0  0  0  0
   27.2430   30.1720   19.6880 H   0  0  0  0  0  0  0  0  0  0  0  0
   25.5900   28.8260   17.9980 C   0  0  0  0  0  0  0  0  0  0  0  0
   27.3400   27.2540   18.3310 O   0  0  0  0  0  0  0  0  0  0  0  0
   29.7130   30.3710   17.7970 O   0  0  0  0  0  0  0  0  0  0  0  0
   30.2480   29.5320   17.7710 H   0  0  0  0  0  0  0  0  0  0  0  0
   30.9620   32.2750   20.4890 O   0  0  0  0  0  0  0  0  0  0  0  0
   31.6170   31.6690   20.9040 H   0  0  0  0  0  0  0  0  0  0  0  0
   31.2240   33.6000   17.3550 N   0  0  0  0  0  0  0  0  0  0  0  0
   31.3710   33.0020   16.0980 C   0  0  0  0  0  0  0  0  0  0  0  0
   31.8930   34.4250   17.5410 H   0  0  0  0  0  0  0  0  0  0  0  0
   30.6710   32.0430   15.7670 O   0  0  0  0  0  0  0  0  0  0  0  0
   32.3110   33.4490   15.1500 O   0  0  0  0  0  0  0  0  0  0  0  0
   32.5760   34.8520   15.0370 C   0  0  0  0  0  0  0  0  0  0  0  0
   31.6720   35.4850   14.0720 C   0  0  0  0  0  0  0  0  0  0  0  0
   30.4360   35.0730   13.6280 C   0  0  0  0  0  0  0  0  0  0  0  0
   31.9260   36.6420   13.4260 N   0  0  0  0  0  0  0  0  0  0  0  0
   30.0040   35.9970   12.7400 N   0  0  0  0  0  0  0  0  0  0  0  0
   30.9080   36.9370   12.6250 N   0  0  0  0  0  0  0  0  0  0  0  0
   28.7670   35.9810   12.0260 C   0  0  0  0  0  0  0  0  0  0  0  0
   28.3860   37.1080   11.3380 C   0  0  0  0  0  0  0  0  0  0  0  0
   27.9670   34.8440   12.0320 C   0  0  0  0  0  0  0  0  0  0  0  0
   27.1900   37.0750   10.6550 C   0  0  0  0  0  0  0  0  0  0  0  0
   26.7910   34.8610   11.3390 C   0  0  0  0  0  0  0  0  0  0  0  0
   26.4280   35.9730   10.6670 N   0  0  0  0  0  0  0  0  0  0  0  0
   29.8670   25.5550   16.9770 C   0  0  0  0  0  0  0  0  0  0  0  0
   28.3450   25.7220   17.0260 C   0  0  0  0  0  0  0  0  0  0  0  0
   27.5990   24.4760   16.5750 C   0  0  0  0  0  0  0  0  0  0  0  0
   27.0570   23.6880   17.7360 C   0  0  0  0  0  0  0  0  0  0  0  0
   25.5900   23.3550   17.4850 C   0  0  0  0  0  0  0  0  0  0  0  0
   24.8830   24.5250   16.9140 N   0  0  0  0  0  0  0  0  0  0  0  0
  2  1  1  6  0  0  0
  2 25  1  0  0  0  0
  3 23  1  6  0  0  0
  3  2  1  0  0  0  0
  4  3  1  6  0  0  0
  4  7  1  0  0  0  0
  5 10  1  6  0  0  0
  5 12  1  0  0  0  0
  5  6  1  0  0  0  0
  7  5  1  0  0  0  0
  8 16  1  6  0  0  0
  8  6  1  0  0  0  0
  9 18  1  1  0  0  0
  9  4  1  0  0  0  0
  9  8  1  0  0  0  0
 11 10  1  0  0  0  0
 12 13  2  0  0  0  0
 14 15  1  0  0  0  0
 14 12  1  0  0  0  0
 16 17  1  0  0  0  0
 18 20  1  0  0  0  0
 19 18  1  0  0  0  0
 21 19  1  0  0  0  0
 22 19  2  0  0  0  0
 24 23  1  0  0  0  0
 25 26  1  0  0  0  0
 27 29  1  0  0  0  0
 27  1  1  0  0  0  0
 28 27  1  0  0  0  0
 30 28  2  0  0  0  0
 31 28  1  0  0  0  0
 32 31  1  0  0  0  0
 33 32  1  0  0  0  0
 34 33  2  0  0  0  0
 35 33  1  0  0  0  0
 36 34  1  0  0  0  0
 37 36  1  0  0  0  0
 37 35  2  0  0  0  0
 38 40  1  0  0  0  0
 38 36  1  0  0  0  0
 39 38  2  0  0  0  0
 41 43  2  0  0  0  0
 41 39  1  0  0  0  0
 42 40  2  0  0  0  0
 43 42  1  0  0  0  0
 44 45  1  0  0  0  0
 46 45  1  0  0  0  0
 46 47  1  0  0  0  0
 48 47  1  0  0  0  0
 49 48  1  0  0  0  0
M  END
>  <REMARK>
 VINA RESULT:    -4.836      2.706      5.946
 INTER + INTRA:         -13.642
 INTER:                  -8.628
 INTRA:                  -5.015
 UNBOUND:                -5.272
 SMILES CC(=O)N[C@@H]1[C@@H](O)C[C@](O)(C(=O)O)O[C@H]1C(O)[C@H](O)CNC(=O)OCc1cn(-c2ccncc2)nn1
 SMILES IDX 20 1 18 2 16 3 15 4 9 5 8 6 14 7 6 8 5 9 10 10 11 12 12 13
 SMILES IDX 13 14 7 16 4 18 2 19 1 21 3 22 17 23 19 25 21 27 22 28 23 30
 SMILES IDX 24 31 25 32 26 33 27 34 36 35 28 36 35 37 29 38 30 39 34 40
 SMILES IDX 31 41 33 42 32 43
 H PARENT 10 11 13 15 7 17 4 20 17 24 19 26 21 29
 Flexibility Score: inf
  4 active torsions:
  status: ('A' for Active; 'I' for Inactive)
    1  A    between atoms: CA   and  CB  
    2  A    between atoms: CB   and  CG  
    3  A    between atoms: CG   and  CD  
    4  A    between atoms: CD   and  CE  

>  <TORSDO>
F 15

>  <BEGIN_>
RES LYS A 131

$$$$
ligand_56_pose_12_2HRL.pdbqt
 OpenBabel07062320523D

  6  5  0  0  0  0  0  0  0  0999 V2000
   33.1930   34.6630    9.2900 C   0  0  0  0  0  0  0  0  0  0  0  0
   32.0600   35.3600   10.0340 C   0  0  0  0  0  0  0  0  0  0  0  0
   30.8920   35.7200    9.1520 C   0  0  0  0  0  0  0  0  0  0  0  0
   30.3900   34.4970    8.4010 C   0  0  0  0  0  0  0  0  0  0  0  0
   28.8740   34.4810    8.3620 C   0  0  0  0  0  0  0  0  0  0  0  0
   28.3570   35.2990    7.2290 N   0  0  0  0  0  0  0  0  0  0  0  0
  1  2  1  0  0  0  0
  3  2  1  0  0  0  0
  4  3  1  0  0  0  0
  5  4  1  0  0  0  0
  6  5  1  0  0  0  0
M  END
>  <EGIN_R>
ES LYS A 135

>  <REMARK>
  4 active torsions:
  status: ('A' for Active; 'I' for Inactive)
    5  A    between atoms: CA   and  CB  
    6  A    between atoms: CB   and  CG  
    7  A    between atoms: CG   and  CD  
    8  A    between atoms: CD   and  CE  

$$$$
