ligand_38_pose_3_2HRL.pdbqt
 OpenBabel07062320523D

 51 52  0  0  1  0  0  0  0  0999 V2000
   23.7790   37.8020    8.9860 N   0  0  0  0  0  0  0  0  0  0  0  0
   25.0890   37.2940    8.8170 C   0  0  0  0  0  0  0  0  0  0  0  0
   25.5700   37.1120    7.6520 O   0  0  0  0  0  0  0  0  0  0  0  0
   23.4260   37.9360    9.9570 H   0  0  0  0  0  0  0  0  0  0  0  0
   23.0290   38.0980    7.7960 C   0  0  0  0  0  0  0  0  0  0  0  0
   21.8090   37.1740    7.6630 C   0  0  2  0  0  0  0  0  0  0  0  0
   20.7990   37.7010    8.6210 C   0  0  2  0  0  0  0  0  0  0  0  0
   19.6520   36.7900    8.9450 C   0  0  2  0  0  0  0  0  0  0  0  0
   19.3100   34.9390   10.3290 C   0  0  2  0  0  0  0  0  0  0  0  0
   18.2850   34.4590    9.3190 C   0  0  0  0  0  0  0  0  0  0  0  0
   20.2180   35.7640    9.7110 O   0  0  0  0  0  0  0  0  0  0  0  0
   18.7280   34.7830    7.9010 C   0  0  1  0  0  0  0  0  0  0  0  0
   18.8420   36.3150    7.8010 C   0  0  1  0  0  0  0  0  0  0  0  0
   20.0400   33.7860   10.6930 O   0  0  0  0  0  0  0  0  0  0  0  0
   20.7770   33.9950   11.2980 H   0  0  0  0  0  0  0  0  0  0  0  0
   18.6970   35.4750   11.5450 C   0  0  0  0  0  0  0  0  0  0  0  0
   19.3400   35.4960   12.6210 O   0  0  0  0  0  0  0  0  0  0  0  0
   17.4040   35.9760   11.5810 O   0  0  0  0  0  0  0  0  0  0  0  0
   16.6300   35.3410   11.5770 H   0  0  0  0  0  0  0  0  0  0  0  0
   19.9020   34.1530    7.5810 O   0  0  0  0  0  0  0  0  0  0  0  0
   20.5980   34.3970    8.2700 H   0  0  0  0  0  0  0  0  0  0  0  0
   17.4510   36.7770    7.8940 N   0  0  0  0  0  0  0  0  0  0  0  0
   16.9940   37.9080    7.1660 C   0  0  0  0  0  0  0  0  0  0  0  0
   16.7420   36.3020    8.4940 H   0  0  0  0  0  0  0  0  0  0  0  0
   15.5630   38.3650    7.2790 C   0  0  0  0  0  0  0  0  0  0  0  0
   17.7470   38.5540    6.4190 O   0  0  0  0  0  0  0  0  0  0  0  0
   20.2030   38.8170    7.9760 O   0  0  0  0  0  0  0  0  0  0  0  0
   19.7800   39.3370    8.7180 H   0  0  0  0  0  0  0  0  0  0  0  0
   22.2720   35.8950    7.9600 O   0  0  0  0  0  0  0  0  0  0  0  0
   22.9340   35.9650    8.6810 H   0  0  0  0  0  0  0  0  0  0  0  0
   25.9190   36.9680    9.8790 O   0  0  0  0  0  0  0  0  0  0  0  0
   26.1340   35.6420   10.3280 C   0  0  0  0  0  0  0  0  0  0  0  0
   24.9270   35.0950   11.0010 C   0  0  0  0  0  0  0  0  0  0  0  0
   24.9090   34.3380   12.1780 C   0  0  0  0  0  0  0  0  0  0  0  0
   23.6350   35.2040   10.6430 N   0  0  0  0  0  0  0  0  0  0  0  0
   23.6390   34.0330   12.4670 N   0  0  0  0  0  0  0  0  0  0  0  0
   22.8870   34.5690   11.5230 N   0  0  0  0  0  0  0  0  0  0  0  0
   23.1250   33.2680   13.5810 C   0  0  0  0  0  0  0  0  0  0  0  0
   22.9200   31.8530   13.1790 C   0  0  0  0  0  0  0  0  0  0  0  0
   23.9730   30.9650   13.1320 C   0  0  0  0  0  0  0  0  0  0  0  0
   21.6700   31.4080   12.8470 C   0  0  0  0  0  0  0  0  0  0  0  0
   23.7830   29.6340   12.7540 C   0  0  0  0  0  0  0  0  0  0  0  0
   21.4680   30.0820   12.4680 C   0  0  0  0  0  0  0  0  0  0  0  0
   22.5300   29.1940   12.4230 C   0  0  0  0  0  0  0  0  0  0  0  0
   19.7180   29.5010   12.0150 Br  0  0  0  0  0  0  0  0  0  0  0  0
   29.8670   25.5550   16.9770 C   0  0  0  0  0  0  0  0  0  0  0  0
   28.3450   25.7220   17.0260 C   0  0  0  0  0  0  0  0  0  0  0  0
   27.6020   24.3990   16.9220 C   0  0  0  0  0  0  0  0  0  0  0  0
   26.5220   24.2730   17.9600 C   0  0  0  0  0  0  0  0  0  0  0  0
   26.2880   25.6280   18.6190 C   0  0  0  0  0  0  0  0  0  0  0  0
   24.9400   26.1430   18.2820 N   0  0  0  0  0  0  0  0  0  0  0  0
  1  4  1  0  0  0  0
  2  1  1  0  0  0  0
  2 31  1  0  0  0  0
  3  2  2  0  0  0  0
  5  1  1  0  0  0  0
  6  5  1  1  0  0  0
  6 29  1  0  0  0  0
  6  7  1  0  0  0  0
  7 27  1  6  0  0  0
  8  7  1  6  0  0  0
  8 11  1  0  0  0  0
  9 14  1  1  0  0  0
  9 16  1  0  0  0  0
 10  9  1  0  0  0  0
 11  9  1  0  0  0  0
 12 20  1  1  0  0  0
 12 10  1  0  0  0  0
 13 22  1  1  0  0  0
 13 12  1  0  0  0  0
 13  8  1  0  0  0  0
 14 15  1  0  0  0  0
 16 18  1  0  0  0  0
 16 17  2  0  0  0  0
 19 18  1  0  0  0  0
 20 21  1  0  0  0  0
 22 24  1  0  0  0  0
 23 25  1  0  0  0  0
 23 22  1  0  0  0  0
 26 23  2  0  0  0  0
 27 28  1  0  0  0  0
 29 30  1  0  0  0  0
 31 32  1  0  0  0  0
 32 33  1  0  0  0  0
 33 34  2  0  0  0  0
 34 36  1  0  0  0  0
 35 33  1  0  0  0  0
 35 37  2  0  0  0  0
 36 38  1  0  0  0  0
 37 36  1  0  0  0  0
 39 38  1  0  0  0  0
 40 39  1  0  0  0  0
 41 39  2  0  0  0  0
 42 40  2  0  0  0  0
 43 41  1  0  0  0  0
 44 43  2  0  0  0  0
 44 42  1  0  0  0  0
 45 43  1  0  0  0  0
 46 47  1  0  0  0  0
 48 47  1  0  0  0  0
 48 49  1  0  0  0  0
 49 50  1  0  0  0  0
 51 50  1  0  0  0  0
M  END
>  <REMARK>
 VINA RESULT:    -4.919      6.277     10.425
 INTER + INTRA:         -15.096
 INTER:                  -8.873
 INTRA:                  -6.223
 UNBOUND:                -6.295
 SMILES CC(=O)N[C@@H]1[C@@H](O)C[C@](O)(C(=O)O)O[C@H]1C(O)[C@H](O)CNC(=O)OCc1cn(Cc2cccc(Br)c2)nn1
 SMILES IDX 21 1 22 2 23 3 20 5 18 6 16 7 15 8 9 9 8 10 14 11 6 12 5 13
 SMILES IDX 10 14 11 16 12 17 13 18 7 20 4 22 2 23 1 25 3 26 17 27 19 29
 SMILES IDX 24 31 25 32 26 33 27 34 38 35 28 36 37 37 29 38 30 39 31 40
 SMILES IDX 36 41 32 42 34 43 33 44 35 45
 H PARENT 21 4 10 15 13 19 7 21 4 24 17 28 19 30
 Flexibility Score: inf
  4 active torsions:
  status: ('A' for Active; 'I' for Inactive)
    1  A    between atoms: CA   and  CB  
    2  A    between atoms: CB   and  CG  
    3  A    between atoms: CG   and  CD  
    4  A    between atoms: CD   and  CE  

>  <TORSDO>
F 16

>  <BEGIN_>
RES LYS A 131

$$$$
ligand_38_pose_3_2HRL.pdbqt
 OpenBabel07062320523D

  6  5  0  0  0  0  0  0  0  0999 V2000
   33.1930   34.6630    9.2900 C   0  0  0  0  0  0  0  0  0  0  0  0
   32.0600   35.3600   10.0340 C   0  0  0  0  0  0  0  0  0  0  0  0
   30.6970   34.8010    9.7160 C   0  0  0  0  0  0  0  0  0  0  0  0
   30.5790   34.4850    8.2330 C   0  0  0  0  0  0  0  0  0  0  0  0
   29.2860   35.0440    7.6710 C   0  0  0  0  0  0  0  0  0  0  0  0
   29.0250   36.4160    8.1890 N   0  0  0  0  0  0  0  0  0  0  0  0
  1  2  1  0  0  0  0
  3  2  1  0  0  0  0
  4  3  1  0  0  0  0
  5  6  1  0  0  0  0
  5  4  1  0  0  0  0
M  END
>  <EGIN_R>
ES LYS A 135

>  <REMARK>
  4 active torsions:
  status: ('A' for Active; 'I' for Inactive)
    5  A    between atoms: CA   and  CB  
    6  A    between atoms: CB   and  CG  
    7  A    between atoms: CG   and  CD  
    8  A    between atoms: CD   and  CE  

$$$$
