ligand_53_pose_11_2HRL.pdbqt
 OpenBabel07062320523D

 48 48  0  0  1  0  0  0  0  0999 V2000
   28.7010   30.6610   15.7430 N   0  0  0  0  0  0  0  0  0  0  0  0
   27.4360   30.9970   16.2620 C   0  0  0  0  0  0  0  0  0  0  0  0
   27.2960   31.4960   17.3780 O   0  0  0  0  0  0  0  0  0  0  0  0
   28.6860   30.2440   14.7620 H   0  0  0  0  0  0  0  0  0  0  0  0
   29.9720   30.8220   16.3980 C   0  0  0  0  0  0  0  0  0  0  0  0
   30.8650   31.8820   15.8350 C   0  0  2  0  0  0  0  0  0  0  0  0
   30.9650   33.0970   16.6790 C   0  0  1  0  0  0  0  0  0  0  0  0
   31.6430   34.2760   16.0350 C   0  0  2  0  0  0  0  0  0  0  0  0
   33.2260   34.7730   14.3670 C   0  0  2  0  0  0  0  0  0  0  0  0
   33.7530   35.9410   15.1340 C   0  0  0  0  0  0  0  0  0  0  0  0
   32.5270   33.8330   15.0410 O   0  0  0  0  0  0  0  0  0  0  0  0
   32.7640   36.3990   16.1590 C   0  0  1  0  0  0  0  0  0  0  0  0
   32.4250   35.1440   16.9850 C   0  0  1  0  0  0  0  0  0  0  0  0
   34.3520   34.1880   13.7150 O   0  0  0  0  0  0  0  0  0  0  0  0
   34.6900   33.5010   14.3520 H   0  0  0  0  0  0  0  0  0  0  0  0
   32.3950   35.2960   13.2410 C   0  0  0  0  0  0  0  0  0  0  0  0
   32.3690   36.4890   12.8750 O   0  0  0  0  0  0  0  0  0  0  0  0
   31.5970   34.4100   12.5490 O   0  0  0  0  0  0  0  0  0  0  0  0
   30.6410   34.1950   12.8240 H   0  0  0  0  0  0  0  0  0  0  0  0
   33.2720   37.3970   16.9860 O   0  0  0  0  0  0  0  0  0  0  0  0
   33.0970   38.2630   16.5340 H   0  0  0  0  0  0  0  0  0  0  0  0
   31.7680   35.5480   18.1850 N   0  0  0  0  0  0  0  0  0  0  0  0
   32.4450   35.6310   19.4390 C   0  0  0  0  0  0  0  0  0  0  0  0
   30.7640   35.8060   18.1660 H   0  0  0  0  0  0  0  0  0  0  0  0
   31.7980   36.0450   20.7040 C   0  0  0  0  0  0  0  0  0  0  0  0
   33.6630   35.3370   19.4650 O   0  0  0  0  0  0  0  0  0  0  0  0
   29.7540   33.4110   17.2730 O   0  0  0  0  0  0  0  0  0  0  0  0
   29.8730   33.8920   18.1320 H   0  0  0  0  0  0  0  0  0  0  0  0
   30.4200   32.1900   14.5390 O   0  0  0  0  0  0  0  0  0  0  0  0
   29.5900   32.7170   14.5520 H   0  0  0  0  0  0  0  0  0  0  0  0
   26.2780   30.7780   15.5200 O   0  0  0  0  0  0  0  0  0  0  0  0
   25.2250   31.6800   15.3920 C   0  0  0  0  0  0  0  0  0  0  0  0
   25.4500   32.7540   14.3940 C   0  0  0  0  0  0  0  0  0  0  0  0
   26.2850   33.8260   14.4370 C   0  0  0  0  0  0  0  0  0  0  0  0
   24.8140   32.8470   13.1890 N   0  0  0  0  0  0  0  0  0  0  0  0
   26.1460   34.5270   13.2980 N   0  0  0  0  0  0  0  0  0  0  0  0
   25.2570   33.9250   12.5540 N   0  0  0  0  0  0  0  0  0  0  0  0
   26.8670   35.7390   12.9670 C   0  0  0  0  0  0  0  0  0  0  0  0
   28.3170   35.4620   12.9260 C   0  0  0  0  0  0  0  0  0  0  0  0
   29.0820   36.0620   13.7320 O   0  0  0  0  0  0  0  0  0  0  0  0
   28.8340   34.5580   12.0220 O   0  0  0  0  0  0  0  0  0  0  0  0
   28.1730   34.1400   11.3600 H   0  0  0  0  0  0  0  0  0  0  0  0
   29.8670   25.5550   16.9770 C   0  0  0  0  0  0  0  0  0  0  0  0
   28.3450   25.7220   17.0260 C   0  0  0  0  0  0  0  0  0  0  0  0
   27.6010   24.4020   16.8940 C   0  0  0  0  0  0  0  0  0  0  0  0
   26.1810   24.5010   17.3780 C   0  0  0  0  0  0  0  0  0  0  0  0
   26.0340   25.7250   18.2760 C   0  0  0  0  0  0  0  0  0  0  0  0
   25.5680   25.3260   19.6250 N   0  0  0  0  0  0  0  0  0  0  0  0
  1  2  1  0  0  0  0
  1  5  1  0  0  0  0
  2  3  2  0  0  0  0
  4  1  1  0  0  0  0
  6  5  1  1  0  0  0
  6  7  1  0  0  0  0
  7 27  1  6  0  0  0
  8  7  1  1  0  0  0
  8 13  1  0  0  0  0
  9 16  1  6  0  0  0
  9 11  1  0  0  0  0
  9 10  1  0  0  0  0
 10 12  1  0  0  0  0
 11  8  1  0  0  0  0
 12 13  1  0  0  0  0
 12 20  1  1  0  0  0
 13 22  1  1  0  0  0
 14 15  1  0  0  0  0
 14  9  1  0  0  0  0
 17 16  2  0  0  0  0
 18 19  1  0  0  0  0
 18 16  1  0  0  0  0
 21 20  1  0  0  0  0
 22 23  1  0  0  0  0
 23 26  2  0  0  0  0
 23 25  1  0  0  0  0
 24 22  1  0  0  0  0
 27 28  1  0  0  0  0
 29 30  1  0  0  0  0
 29  6  1  0  0  0  0
 31  2  1  0  0  0  0
 32 31  1  0  0  0  0
 33 34  2  0  0  0  0
 33 32  1  0  0  0  0
 35 33  1  0  0  0  0
 36 34  1  0  0  0  0
 37 35  2  0  0  0  0
 37 36  1  0  0  0  0
 38 36  1  0  0  0  0
 39 38  1  0  0  0  0
 39 40  2  0  0  0  0
 41 39  1  0  0  0  0
 42 41  1  0  0  0  0
 43 44  1  0  0  0  0
 45 44  1  0  0  0  0
 45 46  1  0  0  0  0
 46 47  1  0  0  0  0
 47 48  1  0  0  0  0
M  END
>  <REMARK>
 VINA RESULT:    -4.015      2.119      5.268
 INTER + INTRA:         -13.663
 INTER:                  -7.682
 INTRA:                  -5.981
 UNBOUND:                -6.362
 SMILES CC(=O)N[C@@H]1[C@@H](O)C[C@](O)(C(=O)O)O[C@H]1C(O)[C@H](O)CNC(=O)OCc1cn(CC(=O)O)nn1
 SMILES IDX 21 1 22 2 23 3 20 5 18 6 16 7 15 8 9 9 8 10 14 11 6 12 5 13
 SMILES IDX 10 14 11 16 12 17 13 18 7 20 4 22 2 23 1 25 3 26 17 27 19 29
 SMILES IDX 24 31 25 32 26 33 27 34 34 35 28 36 33 37 29 38 30 39 31 40
 SMILES IDX 32 41
 H PARENT 21 4 10 15 13 19 7 21 4 24 17 28 19 30 32 42
 Flexibility Score: inf
  4 active torsions:
  status: ('A' for Active; 'I' for Inactive)
    1  A    between atoms: CA   and  CB  
    2  A    between atoms: CB   and  CG  
    3  A    between atoms: CG   and  CD  
    4  A    between atoms: CD   and  CE  

>  <TORSDO>
F 17

>  <BEGIN_>
RES LYS A 131

$$$$
ligand_53_pose_11_2HRL.pdbqt
 OpenBabel07062320523D

  6  5  0  0  0  0  0  0  0  0999 V2000
   33.1930   34.6630    9.2900 C   0  0  0  0  0  0  0  0  0  0  0  0
   32.0600   35.3600   10.0340 C   0  0  0  0  0  0  0  0  0  0  0  0
   30.8270   35.5710    9.1930 C   0  0  0  0  0  0  0  0  0  0  0  0
   30.1300   34.2470    8.9220 C   0  0  0  0  0  0  0  0  0  0  0  0
   28.7720   34.4810    8.2870 C   0  0  0  0  0  0  0  0  0  0  0  0
   28.8730   35.4190    7.1350 N   0  0  0  0  0  0  0  0  0  0  0  0
  1  2  1  0  0  0  0
  3  2  1  0  0  0  0
  4  3  1  0  0  0  0
  5  4  1  0  0  0  0
  6  5  1  0  0  0  0
M  END
>  <EGIN_R>
ES LYS A 135

>  <REMARK>
  4 active torsions:
  status: ('A' for Active; 'I' for Inactive)
    5  A    between atoms: CA   and  CB  
    6  A    between atoms: CB   and  CG  
    7  A    between atoms: CG   and  CD  
    8  A    between atoms: CD   and  CE  

$$$$
