ligand_4_pose_16_2HRL.pdbqt
 OpenBabel07062320523D

 52 53  0  0  1  0  0  0  0  0999 V2000
   27.3670   41.4720    6.0660 N   0  0  0  0  0  0  0  0  0  0  0  0
   27.7790   40.5720    5.0640 C   0  0  0  0  0  0  0  0  0  0  0  0
   26.9510   39.8890    4.4270 O   0  0  0  0  0  0  0  0  0  0  0  0
   28.1120   42.0320    6.5620 H   0  0  0  0  0  0  0  0  0  0  0  0
   26.0020   41.6480    6.4190 C   0  0  0  0  0  0  0  0  0  0  0  0
   25.6700   41.2830    7.8650 C   0  0  2  0  0  0  0  0  0  0  0  0
   24.9920   39.9160    7.7330 C   0  0  2  0  0  0  0  0  0  0  0  0
   25.8370   38.7920    8.2410 C   0  0  2  0  0  0  0  0  0  0  0  0
   27.2350   37.3540    7.0780 C   0  0  2  0  0  0  0  0  0  0  0  0
   26.9260   36.2300    8.0020 C   0  0  0  0  0  0  0  0  0  0  0  0
   26.9430   38.6230    7.4790 O   0  0  0  0  0  0  0  0  0  0  0  0
   25.6570   36.3800    8.8130 C   0  0  1  0  0  0  0  0  0  0  0  0
   24.9340   37.5680    8.2520 C   0  0  1  0  0  0  0  0  0  0  0  0
   26.6950   37.0760    5.7950 O   0  0  0  0  0  0  0  0  0  0  0  0
   26.5700   37.8710    5.2460 H   0  0  0  0  0  0  0  0  0  0  0  0
   28.7310   37.3360    6.8830 C   0  0  0  0  0  0  0  0  0  0  0  0
   29.4550   37.1500    7.8840 O   0  0  0  0  0  0  0  0  0  0  0  0
   29.3340   37.5100    5.6440 O   0  0  0  0  0  0  0  0  0  0  0  0
   29.9400   36.8250    5.1990 H   0  0  0  0  0  0  0  0  0  0  0  0
   24.8610   35.2120    8.6030 O   0  0  0  0  0  0  0  0  0  0  0  0
   24.5230   35.1800    7.6770 H   0  0  0  0  0  0  0  0  0  0  0  0
   23.6600   37.8910    8.7630 N   0  0  0  0  0  0  0  0  0  0  0  0
   22.4250   37.5260    8.1730 C   0  0  0  0  0  0  0  0  0  0  0  0
   23.5930   38.4610    9.6740 H   0  0  0  0  0  0  0  0  0  0  0  0
   21.1090   37.8730    8.7230 C   0  0  0  0  0  0  0  0  0  0  0  0
   22.5190   36.8440    7.0650 O   0  0  0  0  0  0  0  0  0  0  0  0
   24.6790   39.8040    6.3750 O   0  0  0  0  0  0  0  0  0  0  0  0
   25.0550   40.6040    5.9220 H   0  0  0  0  0  0  0  0  0  0  0  0
   24.8380   42.1570    8.4850 O   0  0  0  0  0  0  0  0  0  0  0  0
   24.2590   42.6340    7.8940 H   0  0  0  0  0  0  0  0  0  0  0  0
   29.1310   40.4180    4.7520 O   0  0  0  0  0  0  0  0  0  0  0  0
   30.0160   41.4600    5.1370 C   0  0  0  0  0  0  0  0  0  0  0  0
   31.1100   40.7930    5.8870 C   0  0  0  0  0  0  0  0  0  0  0  0
   32.4590   41.1570    5.7820 C   0  0  0  0  0  0  0  0  0  0  0  0
   31.0310   39.8510    6.8390 N   0  0  0  0  0  0  0  0  0  0  0  0
   33.1030   40.4060    6.6950 N   0  0  0  0  0  0  0  0  0  0  0  0
   32.2480   39.6720    7.2820 N   0  0  0  0  0  0  0  0  0  0  0  0
   34.4740   40.5590    7.0090 C   0  0  0  0  0  0  0  0  0  0  0  0
   35.3890   39.7240    6.4930 C   0  0  0  0  0  0  0  0  0  0  0  0
   34.8390   41.4830    7.9990 C   0  0  0  0  0  0  0  0  0  0  0  0
   36.7040   39.7870    6.9550 C   0  0  0  0  0  0  0  0  0  0  0  0
   36.1020   41.5590    8.4560 C   0  0  0  0  0  0  0  0  0  0  0  0
   37.0720   40.7080    7.9440 C   0  0  0  0  0  0  0  0  0  0  0  0
   35.0730   38.8550    5.3770 C   0  0  0  0  0  0  0  0  0  0  0  0
   36.0510   37.7000    5.2360 C   0  0  0  0  0  0  0  0  0  0  0  0
   35.4760   39.6910    4.0820 C   0  0  0  0  0  0  0  0  0  0  0  0
   29.8670   25.5550   16.9770 C   0  0  0  0  0  0  0  0  0  0  0  0
   28.3450   25.7220   17.0260 C   0  0  0  0  0  0  0  0  0  0  0  0
   27.6010   24.4060   16.8570 C   0  0  0  0  0  0  0  0  0  0  0  0
   26.1560   24.5170   17.2610 C   0  0  0  0  0  0  0  0  0  0  0  0
   25.6780   23.1770   17.8100 C   0  0  0  0  0  0  0  0  0  0  0  0
   25.5560   23.2350   19.2860 N   0  0  0  0  0  0  0  0  0  0  0  0
  1  5  1  0  0  0  0
  1  4  1  0  0  0  0
  2  1  1  0  0  0  0
  3  2  2  0  0  0  0
  6  5  1  6  0  0  0
  6 29  1  0  0  0  0
  7 27  1  6  0  0  0
  7  6  1  0  0  0  0
  8  7  1  6  0  0  0
  8 13  1  0  0  0  0
  9 14  1  6  0  0  0
  9 11  1  0  0  0  0
  9 10  1  0  0  0  0
 10 12  1  0  0  0  0
 11  8  1  0  0  0  0
 12 20  1  6  0  0  0
 13 22  1  1  0  0  0
 13 12  1  0  0  0  0
 15 14  1  0  0  0  0
 16  9  1  0  0  0  0
 16 17  2  0  0  0  0
 18 16  1  0  0  0  0
 19 18  1  0  0  0  0
 21 20  1  0  0  0  0
 22 24  1  0  0  0  0
 23 25  1  0  0  0  0
 23 22  1  0  0  0  0
 26 23  2  0  0  0  0
 28 27  1  0  0  0  0
 30 29  1  0  0  0  0
 31  2  1  0  0  0  0
 31 32  1  0  0  0  0
 32 33  1  0  0  0  0
 33 35  1  0  0  0  0
 34 33  2  0  0  0  0
 34 36  1  0  0  0  0
 35 37  2  0  0  0  0
 36 38  1  0  0  0  0
 36 37  1  0  0  0  0
 38 40  2  0  0  0  0
 39 41  2  0  0  0  0
 39 38  1  0  0  0  0
 40 42  1  0  0  0  0
 41 43  1  0  0  0  0
 43 42  2  0  0  0  0
 44 39  1  0  0  0  0
 45 44  1  0  0  0  0
 46 44  1  0  0  0  0
 47 48  1  0  0  0  0
 49 48  1  0  0  0  0
 49 50  1  0  0  0  0
 50 51  1  0  0  0  0
 51 52  1  0  0  0  0
M  END
>  <REMARK>
 VINA RESULT:    -4.019      4.304      9.880
 INTER + INTRA:         -14.427
 INTER:                  -8.718
 INTRA:                  -5.709
 UNBOUND:                -7.237
 SMILES CC(=O)N[C@@H]1[C@@H](O)C[C@](O)(C(=O)O)O[C@H]1C(O)[C@H](O)CNC(=O)OCc1cn(-c2ccccc2C(C)C)nn1
 SMILES IDX 21 1 22 2 23 3 20 5 18 6 16 7 15 8 9 9 8 10 14 11 6 12 5 13
 SMILES IDX 10 14 11 16 12 17 13 18 7 20 4 22 2 23 1 25 3 26 17 27 19 29
 SMILES IDX 24 31 25 32 26 33 27 34 39 35 28 36 38 37 29 38 34 39 30 40
 SMILES IDX 33 41 31 42 32 43 35 44 36 45 37 46
 H PARENT 21 4 10 15 13 19 7 21 4 24 17 28 19 30
 Flexibility Score: inf
  4 active torsions:
  status: ('A' for Active; 'I' for Inactive)
    1  A    between atoms: CA   and  CB  
    2  A    between atoms: CB   and  CG  
    3  A    between atoms: CG   and  CD  
    4  A    between atoms: CD   and  CE  

>  <TORSDO>
F 16

>  <BEGIN_>
RES LYS A 131

$$$$
ligand_4_pose_16_2HRL.pdbqt
 OpenBabel07062320523D

  6  5  0  0  0  0  0  0  0  0999 V2000
   33.1930   34.6630    9.2900 C   0  0  0  0  0  0  0  0  0  0  0  0
   32.0600   35.3600   10.0340 C   0  0  0  0  0  0  0  0  0  0  0  0
   30.7090   34.7360    9.7950 C   0  0  0  0  0  0  0  0  0  0  0  0
   29.7860   34.9880   10.9770 C   0  0  0  0  0  0  0  0  0  0  0  0
   29.7920   36.4570   11.3550 C   0  0  0  0  0  0  0  0  0  0  0  0
   28.4340   37.0530   11.2140 N   0  0  0  0  0  0  0  0  0  0  0  0
  1  2  1  0  0  0  0
  3  2  1  0  0  0  0
  3  4  1  0  0  0  0
  4  5  1  0  0  0  0
  6  5  1  0  0  0  0
M  END
>  <EGIN_R>
ES LYS A 135

>  <REMARK>
  4 active torsions:
  status: ('A' for Active; 'I' for Inactive)
    5  A    between atoms: CA   and  CB  
    6  A    between atoms: CB   and  CG  
    7  A    between atoms: CG   and  CD  
    8  A    between atoms: CD   and  CE  

$$$$
