ligand_61_pose_9_2HRL.pdbqt
 OpenBabel07062320523D

 49 50  0  0  1  0  0  0  0  0999 V2000
   27.0210   36.9650   13.2970 N   0  0  0  0  0  0  0  0  0  0  0  0
   26.8990   37.1660   14.6910 C   0  0  0  0  0  0  0  0  0  0  0  0
   25.7740   37.0470   15.2280 O   0  0  0  0  0  0  0  0  0  0  0  0
   28.0040   37.0770   12.8950 H   0  0  0  0  0  0  0  0  0  0  0  0
   25.9240   36.6290   12.4150 C   0  0  0  0  0  0  0  0  0  0  0  0
   26.4750   36.0520   11.1520 C   0  0  2  0  0  0  0  0  0  0  0  0
   26.2400   36.9100    9.9270 C   0  0  2  0  0  0  0  0  0  0  0  0
   27.0110   36.3460    8.7820 C   0  0  2  0  0  0  0  0  0  0  0  0
   29.1350   35.8730    8.0000 C   0  0  2  0  0  0  0  0  0  0  0  0
   28.3810   35.4820    6.7520 C   0  0  0  0  0  0  0  0  0  0  0  0
   28.3120   36.0100    9.1010 O   0  0  0  0  0  0  0  0  0  0  0  0
   27.3150   36.4580    6.3770 C   0  0  1  0  0  0  0  0  0  0  0  0
   26.9940   37.3100    7.5870 C   0  0  1  0  0  0  0  0  0  0  0  0
   29.9540   36.9830    7.7890 O   0  0  0  0  0  0  0  0  0  0  0  0
   29.4280   37.8090    7.8900 H   0  0  0  0  0  0  0  0  0  0  0  0
   30.0600   34.7220    8.3030 C   0  0  0  0  0  0  0  0  0  0  0  0
   29.7180   33.7370    8.9690 O   0  0  0  0  0  0  0  0  0  0  0  0
   31.3650   34.7630    7.8140 O   0  0  0  0  0  0  0  0  0  0  0  0
   32.1600   35.0280    8.3820 H   0  0  0  0  0  0  0  0  0  0  0  0
   27.6070   37.2090    5.2600 O   0  0  0  0  0  0  0  0  0  0  0  0
   27.1940   38.1270    5.3090 H   0  0  0  0  0  0  0  0  0  0  0  0
   25.7090   37.9520    7.4910 N   0  0  0  0  0  0  0  0  0  0  0  0
   25.5990   39.3110    7.0540 C   0  0  0  0  0  0  0  0  0  0  0  0
   24.8210   37.4610    7.7340 H   0  0  0  0  0  0  0  0  0  0  0  0
   24.3300   40.0330    6.9310 C   0  0  0  0  0  0  0  0  0  0  0  0
   26.6710   39.9320    6.7510 O   0  0  0  0  0  0  0  0  0  0  0  0
   26.7160   38.1840   10.2440 O   0  0  0  0  0  0  0  0  0  0  0  0
   26.5530   38.7950    9.4840 H   0  0  0  0  0  0  0  0  0  0  0  0
   25.8040   34.8400   10.9170 O   0  0  0  0  0  0  0  0  0  0  0  0
   26.4170   34.0970   10.7290 H   0  0  0  0  0  0  0  0  0  0  0  0
   28.0410   37.4930   15.4490 O   0  0  0  0  0  0  0  0  0  0  0  0
   29.1040   38.0830   14.7140 C   0  0  0  0  0  0  0  0  0  0  0  0
   30.3190   37.2930   14.9560 C   0  0  0  0  0  0  0  0  0  0  0  0
   30.4960   35.9290   14.7840 C   0  0  0  0  0  0  0  0  0  0  0  0
   31.5010   37.7740   15.3970 N   0  0  0  0  0  0  0  0  0  0  0  0
   31.7640   35.6650   15.1290 N   0  0  0  0  0  0  0  0  0  0  0  0
   32.3760   36.7740   15.5000 N   0  0  0  0  0  0  0  0  0  0  0  0
   32.3730   34.3640   15.1010 C   0  0  0  0  0  0  0  0  0  0  0  0
   31.5960   33.3900   15.9860 C   0  0  0  0  0  0  0  0  0  0  0  0
   31.0980   32.2540   15.5100 C   0  0  0  0  0  0  0  0  0  0  0  0
   31.4220   33.7220   17.3100 C   0  0  0  0  0  0  0  0  0  0  0  0
   30.4100   31.4110   16.3400 C   0  0  0  0  0  0  0  0  0  0  0  0
   30.4670   32.2850   17.9180 S   0  0  0  0  0  0  0  0  0  0  0  0
   29.8670   25.5550   16.9770 C   0  0  0  0  0  0  0  0  0  0  0  0
   28.3450   25.7220   17.0260 C   0  0  0  0  0  0  0  0  0  0  0  0
   27.6000   24.4170   16.7940 C   0  0  0  0  0  0  0  0  0  0  0  0
   26.9240   23.9210   18.0420 C   0  0  0  0  0  0  0  0  0  0  0  0
   25.4190   24.1440   17.9290 C   0  0  0  0  0  0  0  0  0  0  0  0
   24.7690   22.9810   17.2810 N   0  0  0  0  0  0  0  0  0  0  0  0
  1  2  1  0  0  0  0
  2  3  2  0  0  0  0
  2 31  1  0  0  0  0
  4  1  1  0  0  0  0
  5  1  1  0  0  0  0
  6  5  1  1  0  0  0
  7 27  1  1  0  0  0
  7  6  1  0  0  0  0
  8 11  1  0  0  0  0
  8  7  1  1  0  0  0
  9 14  1  6  0  0  0
  9 16  1  0  0  0  0
  9 11  1  0  0  0  0
 10  9  1  0  0  0  0
 12 20  1  6  0  0  0
 12 10  1  0  0  0  0
 12 13  1  0  0  0  0
 13 22  1  6  0  0  0
 13  8  1  0  0  0  0
 14 15  1  0  0  0  0
 16 17  2  0  0  0  0
 18 16  1  0  0  0  0
 18 19  1  0  0  0  0
 20 21  1  0  0  0  0
 22 24  1  0  0  0  0
 23 22  1  0  0  0  0
 25 23  1  0  0  0  0
 26 23  2  0  0  0  0
 28 27  1  0  0  0  0
 29  6  1  0  0  0  0
 30 29  1  0  0  0  0
 32 33  1  0  0  0  0
 32 31  1  0  0  0  0
 33 35  1  0  0  0  0
 34 33  2  0  0  0  0
 34 36  1  0  0  0  0
 35 37  2  0  0  0  0
 36 37  1  0  0  0  0
 38 36  1  0  0  0  0
 38 39  1  0  0  0  0
 39 41  2  0  0  0  0
 40 39  1  0  0  0  0
 40 42  2  0  0  0  0
 41 43  1  0  0  0  0
 42 43  1  0  0  0  0
 44 45  1  0  0  0  0
 46 45  1  0  0  0  0
 46 47  1  0  0  0  0
 48 47  1  0  0  0  0
 49 48  1  0  0  0  0
M  END
>  <REMARK>
 VINA RESULT:    -4.213      1.739      1.989
 INTER + INTRA:         -13.674
 INTER:                  -9.964
 INTRA:                  -3.710
 UNBOUND:                -6.136
 SMILES CC(=O)N[C@@H]1[C@@H](O)C[C@](O)(C(=O)O)O[C@H]1C(O)[C@H](O)CNC(=O)OCc1cn(Cc2ccsc2)nn1
 SMILES IDX 21 1 22 2 23 3 20 5 18 6 16 7 15 8 9 9 8 10 14 11 6 12 5 13
 SMILES IDX 10 14 11 16 12 17 13 18 7 20 4 22 2 23 1 25 3 26 17 27 19 29
 SMILES IDX 24 31 25 32 26 33 27 34 36 35 28 36 35 37 29 38 30 39 31 40
 SMILES IDX 34 41 32 42 33 43
 H PARENT 21 4 10 15 13 19 7 21 4 24 17 28 19 30
 Flexibility Score: inf
  4 active torsions:
  status: ('A' for Active; 'I' for Inactive)
    1  A    between atoms: CA   and  CB  
    2  A    between atoms: CB   and  CG  
    3  A    between atoms: CG   and  CD  
    4  A    between atoms: CD   and  CE  

>  <TORSDO>
F 16

>  <BEGIN_>
RES LYS A 131

$$$$
ligand_61_pose_9_2HRL.pdbqt
 OpenBabel07062320523D

  6  5  0  0  0  0  0  0  0  0999 V2000
   33.1930   34.6630    9.2900 C   0  0  0  0  0  0  0  0  0  0  0  0
   32.0600   35.3600   10.0340 C   0  0  0  0  0  0  0  0  0  0  0  0
   32.3650   35.6240   11.4860 C   0  0  0  0  0  0  0  0  0  0  0  0
   32.2510   37.1080   11.7970 C   0  0  0  0  0  0  0  0  0  0  0  0
   31.8650   37.8850   10.5530 C   0  0  0  0  0  0  0  0  0  0  0  0
   31.4880   39.2860   10.8910 N   0  0  0  0  0  0  0  0  0  0  0  0
  1  2  1  0  0  0  0
  2  3  1  0  0  0  0
  3  4  1  0  0  0  0
  5  6  1  0  0  0  0
  5  4  1  0  0  0  0
M  END
>  <EGIN_R>
ES LYS A 135

>  <REMARK>
  4 active torsions:
  status: ('A' for Active; 'I' for Inactive)
    5  A    between atoms: CA   and  CB  
    6  A    between atoms: CB   and  CG  
    7  A    between atoms: CG   and  CD  
    8  A    between atoms: CD   and  CE  

$$$$
