ligand_41_pose_12_2HRL.pdbqt
 OpenBabel07062320523D

 52 53  0  0  1  0  0  0  0  0999 V2000
   21.3020   40.2880   11.5740 N   0  0  0  0  0  0  0  0  0  0  0  0
   22.7100   40.5650   11.6620 C   0  0  0  0  0  0  0  0  0  0  0  0
   23.3600   40.0960   12.6270 O   0  0  0  0  0  0  0  0  0  0  0  0
   20.8010   40.6870   10.7560 H   0  0  0  0  0  0  0  0  0  0  0  0
   20.6640   39.5000   12.5880 C   0  0  0  0  0  0  0  0  0  0  0  0
   20.1380   38.1690   12.1650 C   0  0  2  0  0  0  0  0  0  0  0  0
   19.0590   38.2310   11.1250 C   0  0  2  0  0  0  0  0  0  0  0  0
   19.3750   37.4940    9.8500 C   0  0  2  0  0  0  0  0  0  0  0  0
   20.6240   35.7720    8.9540 C   0  0  2  0  0  0  0  0  0  0  0  0
   21.2620   36.6490    7.8930 C   0  0  0  0  0  0  0  0  0  0  0  0
   20.2840   36.5100   10.0280 O   0  0  0  0  0  0  0  0  0  0  0  0
   21.1360   38.1000    8.2140 C   0  0  1  0  0  0  0  0  0  0  0  0
   19.8190   38.4740    8.7860 C   0  0  1  0  0  0  0  0  0  0  0  0
   21.6780   34.8650    9.3170 O   0  0  0  0  0  0  0  0  0  0  0  0
   21.5050   34.5430   10.2550 H   0  0  0  0  0  0  0  0  0  0  0  0
   19.5960   34.9280    8.3360 C   0  0  0  0  0  0  0  0  0  0  0  0
   18.7720   34.2500    8.9910 O   0  0  0  0  0  0  0  0  0  0  0  0
   19.4760   34.8370    6.9470 O   0  0  0  0  0  0  0  0  0  0  0  0
   19.6880   33.9690    6.4690 H   0  0  0  0  0  0  0  0  0  0  0  0
   22.1370   38.4300    9.1430 O   0  0  0  0  0  0  0  0  0  0  0  0
   22.4800   39.3480    9.0210 H   0  0  0  0  0  0  0  0  0  0  0  0
   18.8450   38.7150    7.7690 N   0  0  0  0  0  0  0  0  0  0  0  0
   18.1960   39.9690    7.5990 C   0  0  0  0  0  0  0  0  0  0  0  0
   18.5920   37.9510    7.1150 H   0  0  0  0  0  0  0  0  0  0  0  0
   17.1900   40.1670    6.5240 C   0  0  0  0  0  0  0  0  0  0  0  0
   18.4530   40.9460    8.3480 O   0  0  0  0  0  0  0  0  0  0  0  0
   18.4950   39.4710   10.9650 O   0  0  0  0  0  0  0  0  0  0  0  0
   17.6380   39.4730   11.4870 H   0  0  0  0  0  0  0  0  0  0  0  0
   19.4850   37.6280   13.3480 O   0  0  0  0  0  0  0  0  0  0  0  0
   18.6010   37.3360   12.9990 H   0  0  0  0  0  0  0  0  0  0  0  0
   23.3820   41.3260   10.7350 O   0  0  0  0  0  0  0  0  0  0  0  0
   24.7720   41.1430   10.4790 C   0  0  0  0  0  0  0  0  0  0  0  0
   25.0020   40.0980    9.4500 C   0  0  0  0  0  0  0  0  0  0  0  0
   25.9180   39.0800    9.4640 C   0  0  0  0  0  0  0  0  0  0  0  0
   24.3240   39.9600    8.2770 N   0  0  0  0  0  0  0  0  0  0  0  0
   25.7700   38.3600    8.3030 N   0  0  0  0  0  0  0  0  0  0  0  0
   24.7960   38.9310    7.6220 N   0  0  0  0  0  0  0  0  0  0  0  0
   26.5260   37.2480    7.8580 C   0  0  0  0  0  0  0  0  0  0  0  0
   26.4510   36.0000    8.3730 C   0  0  0  0  0  0  0  0  0  0  0  0
   27.3970   37.5350    6.7830 C   0  0  0  0  0  0  0  0  0  0  0  0
   27.2500   34.9930    7.8230 C   0  0  0  0  0  0  0  0  0  0  0  0
   28.1760   36.5370    6.2520 C   0  0  0  0  0  0  0  0  0  0  0  0
   28.0870   35.2780    6.7860 C   0  0  0  0  0  0  0  0  0  0  0  0
   25.5940   35.6260    9.4760 C   0  0  2  0  0  0  0  0  0  0  0  0
   24.3350   35.4740    9.2010 O   0  0  0  0  0  0  0  0  0  0  0  0
   25.9700   35.3980   10.8710 C   0  0  0  0  0  0  0  0  0  0  0  0
   29.8670   25.5550   16.9770 C   0  0  0  0  0  0  0  0  0  0  0  0
   28.3450   25.7220   17.0260 C   0  0  0  0  0  0  0  0  0  0  0  0
   27.6010   24.4030   16.8850 C   0  0  0  0  0  0  0  0  0  0  0  0
   26.1890   24.4920   17.3940 C   0  0  0  0  0  0  0  0  0  0  0  0
   25.6280   23.0870   17.5870 C   0  0  0  0  0  0  0  0  0  0  0  0
   24.2210   23.0220   17.1250 N   0  0  0  0  0  0  0  0  0  0  0  0
  1  2  1  0  0  0  0
  1  5  1  0  0  0  0
  2  3  2  0  0  0  0
  4  1  1  0  0  0  0
  6  5  1  1  0  0  0
  6 29  1  0  0  0  0
  7 27  1  6  0  0  0
  7  6  1  0  0  0  0
  8 11  1  0  0  0  0
  8  7  1  1  0  0  0
  9 16  1  6  0  0  0
  9 14  1  0  0  0  0
  9 11  1  0  0  0  0
 10 12  1  0  0  0  0
 10  9  1  0  0  0  0
 12 13  1  0  0  0  0
 12 20  1  1  0  0  0
 13 22  1  6  0  0  0
 13  8  1  0  0  0  0
 14 15  1  0  0  0  0
 16 17  2  0  0  0  0
 18 16  1  0  0  0  0
 19 18  1  0  0  0  0
 21 20  1  0  0  0  0
 23 22  1  0  0  0  0
 23 26  2  0  0  0  0
 24 22  1  0  0  0  0
 25 23  1  0  0  0  0
 27 28  1  0  0  0  0
 30 29  1  0  0  0  0
 31  2  1  0  0  0  0
 32 31  1  0  0  0  0
 33 34  2  0  0  0  0
 33 32  1  0  0  0  0
 35 33  1  0  0  0  0
 36 34  1  0  0  0  0
 37 35  2  0  0  0  0
 37 36  1  0  0  0  0
 38 36  1  0  0  0  0
 38 39  2  0  0  0  0
 39 44  1  0  0  0  0
 40 38  1  0  0  0  0
 41 39  1  0  0  0  0
 42 40  2  0  0  0  0
 42 43  1  0  0  0  0
 43 41  2  0  0  0  0
 44 46  1  1  0  0  0
 45 44  1  0  0  0  0
 47 48  1  0  0  0  0
 49 48  1  0  0  0  0
 49 50  1  0  0  0  0
 50 51  1  0  0  0  0
 52 51  1  0  0  0  0
M  END
>  <REMARK>
 VINA RESULT:    -4.332      6.437     10.825
 INTER + INTRA:         -14.555
 INTER:                  -8.344
 INTRA:                  -6.211
 UNBOUND:                -6.804
 SMILES CC(=O)N[C@@H]1[C@@H](O)C[C@](O)(C(=O)O)O[C@H]1C(O)[C@H](O)CNC(=O)OCc1cn(-c2ccccc2C(C)=O)nn1
 SMILES IDX 21 1 22 2 23 3 20 5 18 6 16 7 15 8 9 9 8 10 14 11 6 12 5 13
 SMILES IDX 10 14 11 16 12 17 13 18 7 20 4 22 2 23 1 25 3 26 17 27 19 29
 SMILES IDX 24 31 25 32 26 33 27 34 39 35 28 36 38 37 29 38 34 39 30 40
 SMILES IDX 33 41 31 42 32 43 35 44 37 45 36 46
 H PARENT 21 4 10 15 13 19 7 21 4 24 17 28 19 30
 Flexibility Score: inf
  4 active torsions:
  status: ('A' for Active; 'I' for Inactive)
    1  A    between atoms: CA   and  CB  
    2  A    between atoms: CB   and  CG  
    3  A    between atoms: CG   and  CD  
    4  A    between atoms: CD   and  CE  

>  <TORSDO>
F 16

>  <BEGIN_>
RES LYS A 131

$$$$
ligand_41_pose_12_2HRL.pdbqt
 OpenBabel07062320523D

  6  5  0  0  0  0  0  0  0  0999 V2000
   33.1930   34.6630    9.2900 C   0  0  0  0  0  0  0  0  0  0  0  0
   32.0600   35.3600   10.0340 C   0  0  0  0  0  0  0  0  0  0  0  0
   30.6910   35.0190    9.5040 C   0  0  0  0  0  0  0  0  0  0  0  0
   29.6720   34.9860   10.6320 C   0  0  0  0  0  0  0  0  0  0  0  0
   29.6450   36.3130   11.3650 C   0  0  0  0  0  0  0  0  0  0  0  0
   29.0210   37.3750   10.5290 N   0  0  0  0  0  0  0  0  0  0  0  0
  1  2  1  0  0  0  0
  3  2  1  0  0  0  0
  3  4  1  0  0  0  0
  4  5  1  0  0  0  0
  6  5  1  0  0  0  0
M  END
>  <EGIN_R>
ES LYS A 135

>  <REMARK>
  4 active torsions:
  status: ('A' for Active; 'I' for Inactive)
    5  A    between atoms: CA   and  CB  
    6  A    between atoms: CB   and  CG  
    7  A    between atoms: CG   and  CD  
    8  A    between atoms: CD   and  CE  

$$$$
