ligand_27_pose_10_2HRL.pdbqt
 OpenBabel07062320523D

 50 51  0  0  1  0  0  0  0  0999 V2000
   30.1490   31.2860   19.1350 C   0  0  0  0  0  0  0  0  0  0  0  0
   30.2710   32.5140   18.2800 C   0  0  2  0  0  0  0  0  0  0  0  0
   30.4520   32.2030   16.8230 C   0  0  2  0  0  0  0  0  0  0  0  0
   29.2550   32.7010   16.0080 C   0  0  2  0  0  0  0  0  0  0  0  0
   29.8200   34.4820   14.5800 C   0  0  2  0  0  0  0  0  0  0  0  0
   28.5830   35.2260   15.0650 C   0  0  0  0  0  0  0  0  0  0  0  0
   29.7040   33.1590   14.8340 O   0  0  0  0  0  0  0  0  0  0  0  0
   28.6400   35.0760   16.5850 C   0  0  1  0  0  0  0  0  0  0  0  0
   28.4580   33.6110   16.8730 C   0  0  1  0  0  0  0  0  0  0  0  0
   30.9010   35.0960   15.1990 O   0  0  0  0  0  0  0  0  0  0  0  0
   31.0790   35.9540   14.7410 H   0  0  0  0  0  0  0  0  0  0  0  0
   29.9560   34.6640   13.1160 C   0  0  0  0  0  0  0  0  0  0  0  0
   31.0910   34.5730   12.5950 O   0  0  0  0  0  0  0  0  0  0  0  0
   28.8750   34.9330   12.2890 O   0  0  0  0  0  0  0  0  0  0  0  0
   28.9400   35.7350   11.6530 H   0  0  0  0  0  0  0  0  0  0  0  0
   29.8760   35.4630   17.0900 O   0  0  0  0  0  0  0  0  0  0  0  0
   29.7930   35.9630   17.9510 H   0  0  0  0  0  0  0  0  0  0  0  0
   27.0420   33.3320   16.7530 N   0  0  0  0  0  0  0  0  0  0  0  0
   26.2900   33.0070   17.9110 C   0  0  0  0  0  0  0  0  0  0  0  0
   26.5510   33.3630   15.8130 H   0  0  0  0  0  0  0  0  0  0  0  0
   24.8380   32.7210   17.7800 C   0  0  0  0  0  0  0  0  0  0  0  0
   26.8550   32.9640   19.0340 O   0  0  0  0  0  0  0  0  0  0  0  0
   30.5320   30.7970   16.7260 O   0  0  0  0  0  0  0  0  0  0  0  0
   29.7300   30.4280   16.3310 H   0  0  0  0  0  0  0  0  0  0  0  0
   31.3770   33.2630   18.7220 O   0  0  0  0  0  0  0  0  0  0  0  0
   31.0550   34.0970   19.1080 H   0  0  0  0  0  0  0  0  0  0  0  0
   28.8010   30.7390   19.0260 N   0  0  0  0  0  0  0  0  0  0  0  0
   28.4730   29.4960   19.6220 C   0  0  0  0  0  0  0  0  0  0  0  0
   28.0930   31.2890   18.4990 H   0  0  0  0  0  0  0  0  0  0  0  0
   29.3610   28.8660   20.2500 O   0  0  0  0  0  0  0  0  0  0  0  0
   27.2060   28.9410   19.5420 O   0  0  0  0  0  0  0  0  0  0  0  0
   26.9080   28.1120   18.4400 C   0  0  0  0  0  0  0  0  0  0  0  0
   26.7070   28.9560   17.2330 C   0  0  0  0  0  0  0  0  0  0  0  0
   25.5110   29.1950   16.5810 C   0  0  0  0  0  0  0  0  0  0  0  0
   27.6260   29.6490   16.5350 N   0  0  0  0  0  0  0  0  0  0  0  0
   25.7290   30.0120   15.5240 N   0  0  0  0  0  0  0  0  0  0  0  0
   27.0270   30.2660   15.5270 N   0  0  0  0  0  0  0  0  0  0  0  0
   24.7580   30.4920   14.6020 C   0  0  0  0  0  0  0  0  0  0  0  0
   24.6890   31.8450   14.3430 C   0  0  0  0  0  0  0  0  0  0  0  0
   23.8680   29.6710   13.9420 C   0  0  0  0  0  0  0  0  0  0  0  0
   23.7600   32.3600   13.4540 C   0  0  0  0  0  0  0  0  0  0  0  0
   22.9320   30.1500   13.0510 C   0  0  0  0  0  0  0  0  0  0  0  0
   22.8880   31.5090   12.8140 C   0  0  0  0  0  0  0  0  0  0  0  0
   21.8070   29.0600   12.2260 Cl  0  0  0  0  0  0  0  0  0  0  0  0
   29.8670   25.5550   16.9770 C   0  0  0  0  0  0  0  0  0  0  0  0
   28.3450   25.7220   17.0260 C   0  0  0  0  0  0  0  0  0  0  0  0
   27.6030   24.3970   16.9530 C   0  0  0  0  0  0  0  0  0  0  0  0
   26.4750   24.3240   17.9450 C   0  0  0  0  0  0  0  0  0  0  0  0
   25.4120   23.3550   17.4370 C   0  0  0  0  0  0  0  0  0  0  0  0
   24.1440   23.5390   18.1820 N   0  0  0  0  0  0  0  0  0  0  0  0
  2 25  1  0  0  0  0
  2  1  1  1  0  0  0
  3 23  1  1  0  0  0
  3  2  1  0  0  0  0
  4  3  1  1  0  0  0
  4  9  1  0  0  0  0
  5 12  1  6  0  0  0
  5  7  1  0  0  0  0
  5  6  1  0  0  0  0
  5 10  1  0  0  0  0
  6  8  1  0  0  0  0
  7  4  1  0  0  0  0
  8  9  1  0  0  0  0
  8 16  1  6  0  0  0
  9 18  1  6  0  0  0
 11 10  1  0  0  0  0
 13 12  2  0  0  0  0
 14 12  1  0  0  0  0
 15 14  1  0  0  0  0
 16 17  1  0  0  0  0
 18 19  1  0  0  0  0
 19 22  2  0  0  0  0
 20 18  1  0  0  0  0
 21 19  1  0  0  0  0
 24 23  1  0  0  0  0
 25 26  1  0  0  0  0
 27  1  1  0  0  0  0
 27 28  1  0  0  0  0
 28 30  2  0  0  0  0
 29 27  1  0  0  0  0
 31 28  1  0  0  0  0
 32 31  1  0  0  0  0
 33 32  1  0  0  0  0
 34 33  2  0  0  0  0
 35 33  1  0  0  0  0
 36 37  1  0  0  0  0
 36 34  1  0  0  0  0
 37 35  2  0  0  0  0
 38 36  1  0  0  0  0
 39 38  1  0  0  0  0
 40 38  2  0  0  0  0
 41 39  2  0  0  0  0
 42 40  1  0  0  0  0
 43 42  2  0  0  0  0
 43 41  1  0  0  0  0
 44 42  1  0  0  0  0
 45 46  1  0  0  0  0
 47 46  1  0  0  0  0
 47 48  1  0  0  0  0
 49 48  1  0  0  0  0
 49 50  1  0  0  0  0
M  END
>  <REMARK>
 VINA RESULT:    -5.545      3.668      6.988
 INTER + INTRA:         -14.094
 INTER:                  -7.887
 INTRA:                  -6.207
 UNBOUND:                -4.497
 SMILES CC(=O)N[C@@H]1[C@@H](O)C[C@](O)(C(=O)O)O[C@H]1C(O)[C@H](O)CNC(=O)OCc1cn(-c2cccc(Cl)c2)nn1
 SMILES IDX 20 1 18 2 16 3 15 4 9 5 8 6 14 7 6 8 5 9 10 10 11 12 12 13
 SMILES IDX 13 14 7 16 4 18 2 19 1 21 3 22 17 23 19 25 21 27 22 28 23 30
 SMILES IDX 24 31 25 32 26 33 27 34 37 35 28 36 36 37 29 38 30 39 35 40
 SMILES IDX 31 41 33 42 32 43 34 44
 H PARENT 10 11 13 15 7 17 4 20 17 24 19 26 21 29
 Flexibility Score: inf
  4 active torsions:
  status: ('A' for Active; 'I' for Inactive)
    1  A    between atoms: CA   and  CB  
    2  A    between atoms: CB   and  CG  
    3  A    between atoms: CG   and  CD  
    4  A    between atoms: CD   and  CE  

>  <TORSDO>
F 15

>  <BEGIN_>
RES LYS A 131

$$$$
ligand_27_pose_10_2HRL.pdbqt
 OpenBabel07062320523D

  6  5  0  0  0  0  0  0  0  0999 V2000
   33.1930   34.6630    9.2900 C   0  0  0  0  0  0  0  0  0  0  0  0
   32.0600   35.3600   10.0340 C   0  0  0  0  0  0  0  0  0  0  0  0
   30.8100   35.5260    9.2090 C   0  0  0  0  0  0  0  0  0  0  0  0
   30.1080   34.1890    9.0240 C   0  0  0  0  0  0  0  0  0  0  0  0
   28.6660   34.3990    8.6020 C   0  0  0  0  0  0  0  0  0  0  0  0
   27.7330   33.6640    9.5000 N   0  0  0  0  0  0  0  0  0  0  0  0
  1  2  1  0  0  0  0
  3  2  1  0  0  0  0
  4  3  1  0  0  0  0
  5  4  1  0  0  0  0
  5  6  1  0  0  0  0
M  END
>  <EGIN_R>
ES LYS A 135

>  <REMARK>
  4 active torsions:
  status: ('A' for Active; 'I' for Inactive)
    5  A    between atoms: CA   and  CB  
    6  A    between atoms: CB   and  CG  
    7  A    between atoms: CG   and  CD  
    8  A    between atoms: CD   and  CE  

$$$$
