ligand_1_pose_2_2HRL.pdbqt
 OpenBabel07062320523D

 47 47  0  0  1  0  0  0  0  0999 V2000
   29.2810   38.2970   14.2330 N   0  0  0  0  0  0  0  0  0  0  0  0
   28.7000   38.9980   13.1700 C   0  0  0  0  0  0  0  0  0  0  0  0
   27.6590   39.6260   13.3410 O   0  0  0  0  0  0  0  0  0  0  0  0
   30.1880   37.7790   13.9820 H   0  0  0  0  0  0  0  0  0  0  0  0
   28.8550   38.1710   15.5730 C   0  0  0  0  0  0  0  0  0  0  0  0
   28.5010   36.8030   16.0660 C   0  0  2  0  0  0  0  0  0  0  0  0
   29.6530   36.1230   16.7410 C   0  0  1  0  0  0  0  0  0  0  0  0
   30.5250   35.2430   15.9520 C   0  0  2  0  0  0  0  0  0  0  0  0
   31.5300   34.8560   13.9140 C   0  0  2  0  0  0  0  0  0  0  0  0
   32.4500   34.0090   14.7680 C   0  0  0  0  0  0  0  0  0  0  0  0
   30.6800   35.6730   14.6580 O   0  0  0  0  0  0  0  0  0  0  0  0
   31.6360   33.1020   15.6810 C   0  0  1  0  0  0  0  0  0  0  0  0
   30.2800   33.7730   15.9760 C   0  0  1  0  0  0  0  0  0  0  0  0
   30.7150   34.0500   13.1250 O   0  0  0  0  0  0  0  0  0  0  0  0
   30.0160   33.5910   13.6430 H   0  0  0  0  0  0  0  0  0  0  0  0
   32.3030   35.7600   13.0320 C   0  0  0  0  0  0  0  0  0  0  0  0
   32.0400   36.9840   12.9090 O   0  0  0  0  0  0  0  0  0  0  0  0
   33.3630   35.2480   12.3060 O   0  0  0  0  0  0  0  0  0  0  0  0
   34.0860   35.8860   11.9410 H   0  0  0  0  0  0  0  0  0  0  0  0
   31.4490   31.8770   15.0540 O   0  0  0  0  0  0  0  0  0  0  0  0
   30.4690   31.7480   14.9610 H   0  0  0  0  0  0  0  0  0  0  0  0
   29.7860   33.2680   17.2410 N   0  0  0  0  0  0  0  0  0  0  0  0
   28.8610   32.1930   17.2290 C   0  0  0  0  0  0  0  0  0  0  0  0
   30.0920   33.6740   18.1590 H   0  0  0  0  0  0  0  0  0  0  0  0
   28.2970   31.6110   18.4770 C   0  0  0  0  0  0  0  0  0  0  0  0
   28.4950   31.7070   16.1340 O   0  0  0  0  0  0  0  0  0  0  0  0
   30.4220   37.2250   17.2700 O   0  0  0  0  0  0  0  0  0  0  0  0
   31.2730   36.8780   17.5860 H   0  0  0  0  0  0  0  0  0  0  0  0
   27.9100   36.0540   15.1040 O   0  0  0  0  0  0  0  0  0  0  0  0
   28.4030   35.9560   14.2670 H   0  0  0  0  0  0  0  0  0  0  0  0
   29.2760   39.0080   11.9020 O   0  0  0  0  0  0  0  0  0  0  0  0
   28.6770   38.3480   10.8070 C   0  0  0  0  0  0  0  0  0  0  0  0
   28.1320   37.0440   11.2540 C   0  0  0  0  0  0  0  0  0  0  0  0
   26.8740   36.5430   11.0270 C   0  0  0  0  0  0  0  0  0  0  0  0
   28.7830   36.1290   11.9580 N   0  0  0  0  0  0  0  0  0  0  0  0
   26.8430   35.3360   11.6190 N   0  0  0  0  0  0  0  0  0  0  0  0
   28.0060   35.0750   12.1910 N   0  0  0  0  0  0  0  0  0  0  0  0
   25.6880   34.4600   11.6210 C   0  0  0  0  0  0  0  0  0  0  0  0
   24.7820   34.8500   12.7860 C   0  0  0  0  0  0  0  0  0  0  0  0
   25.5760   34.9920   13.9420 O   0  0  0  0  0  0  0  0  0  0  0  0
   26.5410   34.8240   13.7130 H   0  0  0  0  0  0  0  0  0  0  0  0
   29.8670   25.5550   16.9770 C   0  0  0  0  0  0  0  0  0  0  0  0
   28.3450   25.7220   17.0260 C   0  0  0  0  0  0  0  0  0  0  0  0
   27.6010   24.4020   16.8900 C   0  0  0  0  0  0  0  0  0  0  0  0
   26.4900   24.2720   17.8940 C   0  0  0  0  0  0  0  0  0  0  0  0
   25.1500   24.5090   17.2050 C   0  0  0  0  0  0  0  0  0  0  0  0
   24.4070   25.6010   17.8770 N   0  0  0  0  0  0  0  0  0  0  0  0
  1  5  1  0  0  0  0
  2  3  2  0  0  0  0
  2  1  1  0  0  0  0
  4  1  1  0  0  0  0
  6  5  1  6  0  0  0
  6  7  1  0  0  0  0
  7 27  1  6  0  0  0
  8 13  1  0  0  0  0
  8  7  1  6  0  0  0
  9 16  1  6  0  0  0
  9 11  1  0  0  0  0
  9 10  1  0  0  0  0
 10 12  1  0  0  0  0
 11  8  1  0  0  0  0
 12 20  1  6  0  0  0
 12 13  1  0  0  0  0
 13 22  1  1  0  0  0
 14 15  1  0  0  0  0
 14  9  1  0  0  0  0
 17 16  2  0  0  0  0
 18 16  1  0  0  0  0
 19 18  1  0  0  0  0
 21 20  1  0  0  0  0
 22 24  1  0  0  0  0
 23 22  1  0  0  0  0
 23 25  1  0  0  0  0
 26 23  2  0  0  0  0
 27 28  1  0  0  0  0
 29  6  1  0  0  0  0
 30 29  1  0  0  0  0
 31  2  1  0  0  0  0
 32 33  1  0  0  0  0
 32 31  1  0  0  0  0
 33 35  1  0  0  0  0
 34 33  2  0  0  0  0
 34 36  1  0  0  0  0
 35 37  2  0  0  0  0
 36 38  1  0  0  0  0
 36 37  1  0  0  0  0
 38 39  1  0  0  0  0
 39 40  1  0  0  0  0
 41 40  1  0  0  0  0
 42 43  1  0  0  0  0
 44 43  1  0  0  0  0
 44 45  1  0  0  0  0
 46 47  1  0  0  0  0
 46 45  1  0  0  0  0
M  END
>  <REMARK>
 VINA RESULT:    -3.383      4.695      8.381
 INTER + INTRA:         -13.723
 INTER:                  -6.840
 INTRA:                  -6.883
 UNBOUND:                -7.572
 SMILES CC(=O)N[C@@H]1[C@@H](O)C[C@](O)(C(=O)O)O[C@H]1C(O)[C@H](O)CNC(=O)OCc1cn(CCO)nn1
 SMILES IDX 21 1 22 2 23 3 20 5 18 6 16 7 15 8 9 9 8 10 14 11 6 12 5 13
 SMILES IDX 10 14 11 16 12 17 13 18 7 20 4 22 2 23 1 25 3 26 17 27 19 29
 SMILES IDX 24 31 25 32 26 33 27 34 33 35 28 36 32 37 29 38 30 39 31 40
 H PARENT 21 4 10 15 13 19 7 21 4 24 17 28 19 30 31 41
 Flexibility Score: inf
  4 active torsions:
  status: ('A' for Active; 'I' for Inactive)
    1  A    between atoms: CA   and  CB  
    2  A    between atoms: CB   and  CG  
    3  A    between atoms: CG   and  CD  
    4  A    between atoms: CD   and  CE  

>  <TORSDO>
F 17

>  <BEGIN_>
RES LYS A 131

$$$$
ligand_1_pose_2_2HRL.pdbqt
 OpenBabel07062320523D

  6  5  0  0  0  0  0  0  0  0999 V2000
   33.1930   34.6630    9.2900 C   0  0  0  0  0  0  0  0  0  0  0  0
   32.0600   35.3600   10.0340 C   0  0  0  0  0  0  0  0  0  0  0  0
   30.8140   35.5370    9.2050 C   0  0  0  0  0  0  0  0  0  0  0  0
   30.0730   34.2170    9.0610 C   0  0  0  0  0  0  0  0  0  0  0  0
   28.6770   34.4460    8.5140 C   0  0  0  0  0  0  0  0  0  0  0  0
   28.7160   35.2630    7.2690 N   0  0  0  0  0  0  0  0  0  0  0  0
  1  2  1  0  0  0  0
  3  2  1  0  0  0  0
  4  3  1  0  0  0  0
  5  4  1  0  0  0  0
  6  5  1  0  0  0  0
M  END
>  <EGIN_R>
ES LYS A 135

>  <REMARK>
  4 active torsions:
  status: ('A' for Active; 'I' for Inactive)
    5  A    between atoms: CA   and  CB  
    6  A    between atoms: CB   and  CG  
    7  A    between atoms: CG   and  CD  
    8  A    between atoms: CD   and  CE  

$$$$
