ligand_42_pose_3_2HRL.pdbqt
 OpenBabel07062320523D

 52 54  0  0  1  0  0  0  0  0999 V2000
   26.4480   39.9230    7.1040 C   0  0  0  0  0  0  0  0  0  0  0  0
   25.1810   39.3020    7.5870 C   0  0  2  0  0  0  0  0  0  0  0  0
   25.3910   37.8170    7.9290 C   0  0  1  0  0  0  0  0  0  0  0  0
   24.0700   37.2630    8.3230 C   0  0  2  0  0  0  0  0  0  0  0  0
   22.0640   37.6960    9.3170 C   0  0  2  0  0  0  0  0  0  0  0  0
   21.8250   36.2860    8.8210 C   0  0  0  0  0  0  0  0  0  0  0  0
   23.2590   38.2320    8.9040 O   0  0  0  0  0  0  0  0  0  0  0  0
   22.9330   35.3370    9.2340 C   0  0  1  0  0  0  0  0  0  0  0  0
   24.1870   36.1370    9.3500 C   0  0  1  0  0  0  0  0  0  0  0  0
   21.9430   37.6460   10.7070 O   0  0  0  0  0  0  0  0  0  0  0  0
   21.4540   36.8030   10.9060 H   0  0  0  0  0  0  0  0  0  0  0  0
   20.9810   38.5340    8.7540 C   0  0  0  0  0  0  0  0  0  0  0  0
   19.7860   38.2220    8.9710 O   0  0  0  0  0  0  0  0  0  0  0  0
   21.2270   39.6620    7.9890 O   0  0  0  0  0  0  0  0  0  0  0  0
   20.6160   39.9780    7.2430 H   0  0  0  0  0  0  0  0  0  0  0  0
   22.5350   34.8040   10.4790 O   0  0  0  0  0  0  0  0  0  0  0  0
   21.6860   35.1860   10.7670 H   0  0  0  0  0  0  0  0  0  0  0  0
   25.3980   35.4080    9.2530 N   0  0  0  0  0  0  0  0  0  0  0  0
   26.0850   34.7550   10.3120 C   0  0  0  0  0  0  0  0  0  0  0  0
   25.8420   35.3320    8.3120 H   0  0  0  0  0  0  0  0  0  0  0  0
   27.3610   34.0100   10.1010 C   0  0  0  0  0  0  0  0  0  0  0  0
   25.5760   34.8270   11.4530 O   0  0  0  0  0  0  0  0  0  0  0  0
   25.9120   37.2070    6.8210 O   0  0  0  0  0  0  0  0  0  0  0  0
   26.6870   37.5940    6.4010 H   0  0  0  0  0  0  0  0  0  0  0  0
   24.1820   39.3810    6.6540 O   0  0  0  0  0  0  0  0  0  0  0  0
   24.2220   40.1360    6.0280 H   0  0  0  0  0  0  0  0  0  0  0  0
   27.5790   39.4860    7.8450 N   0  0  0  0  0  0  0  0  0  0  0  0
   28.8610   40.0440    7.7090 C   0  0  0  0  0  0  0  0  0  0  0  0
   27.4870   38.6930    8.5510 H   0  0  0  0  0  0  0  0  0  0  0  0
   29.1640   40.9630    6.9310 O   0  0  0  0  0  0  0  0  0  0  0  0
   29.9040   39.5410    8.5060 O   0  0  0  0  0  0  0  0  0  0  0  0
   29.9930   39.9310    9.8430 C   0  0  0  0  0  0  0  0  0  0  0  0
   29.6750   38.7680   10.7120 C   0  0  0  0  0  0  0  0  0  0  0  0
   30.5610   38.0940   11.5450 C   0  0  0  0  0  0  0  0  0  0  0  0
   28.4980   38.1390   10.8740 N   0  0  0  0  0  0  0  0  0  0  0  0
   29.9160   37.0970   12.1750 N   0  0  0  0  0  0  0  0  0  0  0  0
   28.6700   37.1600   11.7410 N   0  0  0  0  0  0  0  0  0  0  0  0
   30.4880   36.1880   13.1080 C   0  0  0  0  0  0  0  0  0  0  0  0
   31.6590   36.5040   13.7670 C   0  0  0  0  0  0  0  0  0  0  0  0
   29.9190   34.9660   13.4000 C   0  0  0  0  0  0  0  0  0  0  0  0
   32.2370   35.6270   14.6850 C   0  0  0  0  0  0  0  0  0  0  0  0
   30.4780   34.0730   14.3140 C   0  0  0  0  0  0  0  0  0  0  0  0
   31.6470   34.4120   14.9590 C   0  0  0  0  0  0  0  0  0  0  0  0
   30.1060   32.8120   14.7710 O   0  0  0  0  0  0  0  0  0  0  0  0
   31.9640   33.3350   15.8050 O   0  0  0  0  0  0  0  0  0  0  0  0
   31.2310   32.1870   15.3630 C   0  0  0  0  0  0  0  0  0  0  0  0
   29.8670   25.5550   16.9770 C   0  0  0  0  0  0  0  0  0  0  0  0
   28.3450   25.7220   17.0260 C   0  0  0  0  0  0  0  0  0  0  0  0
   27.6020   24.4000   16.9140 C   0  0  0  0  0  0  0  0  0  0  0  0
   26.1530   24.5300   17.2970 C   0  0  0  0  0  0  0  0  0  0  0  0
   25.9620   25.7810   18.1480 C   0  0  0  0  0  0  0  0  0  0  0  0
   25.7380   25.4150   19.5660 N   0  0  0  0  0  0  0  0  0  0  0  0
  1 27  1  0  0  0  0
  2  1  1  6  0  0  0
  2  3  1  0  0  0  0
  3 23  1  6  0  0  0
  4  3  1  1  0  0  0
  4  7  1  0  0  0  0
  4  9  1  0  0  0  0
  5 12  1  6  0  0  0
  5 10  1  0  0  0  0
  6  8  1  0  0  0  0
  6  5  1  0  0  0  0
  7  5  1  0  0  0  0
  8  9  1  0  0  0  0
  8 16  1  1  0  0  0
  9 18  1  6  0  0  0
 10 11  1  0  0  0  0
 12 13  2  0  0  0  0
 14 12  1  0  0  0  0
 15 14  1  0  0  0  0
 16 17  1  0  0  0  0
 18 19  1  0  0  0  0
 19 22  2  0  0  0  0
 20 18  1  0  0  0  0
 21 19  1  0  0  0  0
 24 23  1  0  0  0  0
 25  2  1  0  0  0  0
 26 25  1  0  0  0  0
 27 29  1  0  0  0  0
 28 27  1  0  0  0  0
 28 31  1  0  0  0  0
 30 28  2  0  0  0  0
 31 32  1  0  0  0  0
 32 33  1  0  0  0  0
 33 35  1  0  0  0  0
 33 34  2  0  0  0  0
 34 36  1  0  0  0  0
 35 37  2  0  0  0  0
 36 38  1  0  0  0  0
 37 36  1  0  0  0  0
 38 40  2  0  0  0  0
 38 39  1  0  0  0  0
 39 41  2  0  0  0  0
 40 42  1  0  0  0  0
 41 43  1  0  0  0  0
 42 44  1  0  0  0  0
 42 43  2  0  0  0  0
 43 45  1  0  0  0  0
 44 46  1  0  0  0  0
 46 45  1  0  0  0  0
 47 48  1  0  0  0  0
 49 48  1  0  0  0  0
 49 50  1  0  0  0  0
 50 51  1  0  0  0  0
 51 52  1  0  0  0  0
M  END
>  <REMARK>
 VINA RESULT:    -5.841      6.882     13.598
 INTER + INTRA:         -14.656
 INTER:                  -9.148
 INTRA:                  -5.509
 UNBOUND:                -4.548
 SMILES CC(=O)N[C@@H]1[C@@H](O)C[C@](O)(C(=O)O)O[C@H]1C(O)[C@H](O)CNC(=O)OCc1cn(-c2ccc3c(c2)OCO3)nn1
 SMILES IDX 20 1 18 2 16 3 15 4 9 5 8 6 14 7 6 8 5 9 10 10 11 12 12 13
 SMILES IDX 13 14 7 16 4 18 2 19 1 21 3 22 17 23 19 25 21 27 22 28 23 30
 SMILES IDX 24 31 25 32 26 33 27 34 39 35 28 36 38 37 29 38 30 39 34 40
 SMILES IDX 31 41 33 42 32 43 35 44 37 45 36 46
 H PARENT 10 11 13 15 7 17 4 20 17 24 19 26 21 29
 Flexibility Score: inf
  4 active torsions:
  status: ('A' for Active; 'I' for Inactive)
    1  A    between atoms: CA   and  CB  
    2  A    between atoms: CB   and  CG  
    3  A    between atoms: CG   and  CD  
    4  A    between atoms: CD   and  CE  

>  <TORSDO>
F 15

>  <BEGIN_>
RES LYS A 131

$$$$
ligand_42_pose_3_2HRL.pdbqt
 OpenBabel07062320523D

  6  5  0  0  0  0  0  0  0  0999 V2000
   33.1930   34.6630    9.2900 C   0  0  0  0  0  0  0  0  0  0  0  0
   32.0600   35.3600   10.0340 C   0  0  0  0  0  0  0  0  0  0  0  0
   30.6880   34.9350    9.5780 C   0  0  0  0  0  0  0  0  0  0  0  0
   30.7300   34.4400    8.1400 C   0  0  0  0  0  0  0  0  0  0  0  0
   29.6940   35.1610    7.2990 C   0  0  0  0  0  0  0  0  0  0  0  0
   29.0380   36.2510    8.0730 N   0  0  0  0  0  0  0  0  0  0  0  0
  1  2  1  0  0  0  0
  3  2  1  0  0  0  0
  4  3  1  0  0  0  0
  5  6  1  0  0  0  0
  5  4  1  0  0  0  0
M  END
>  <EGIN_R>
ES LYS A 135

>  <REMARK>
  4 active torsions:
  status: ('A' for Active; 'I' for Inactive)
    5  A    between atoms: CA   and  CB  
    6  A    between atoms: CB   and  CG  
    7  A    between atoms: CG   and  CD  
    8  A    between atoms: CD   and  CE  

$$$$
