ligand_52_pose_5_2HRL.pdbqt
 OpenBabel07062320523D

 49 50  0  0  1  0  0  0  0  0999 V2000
   27.1330   31.0050   19.0630 C   0  0  0  0  0  0  0  0  0  0  0  0
   28.2650   30.0690   18.8530 C   0  0  2  0  0  0  0  0  0  0  0  0
   29.5960   30.6750   19.0900 C   0  0  2  0  0  0  0  0  0  0  0  0
   30.0740   31.7270   18.1520 C   0  0  2  0  0  0  0  0  0  0  0  0
   30.5690   32.3060   16.0170 C   0  0  2  0  0  0  0  0  0  0  0  0
   31.1900   33.5750   16.4800 C   0  0  0  0  0  0  0  0  0  0  0  0
   30.4940   31.2810   16.9400 O   0  0  0  0  0  0  0  0  0  0  0  0
   31.0130   33.9310   17.9150 C   0  0  1  0  0  0  0  0  0  0  0  0
   31.0980   32.6350   18.7730 C   0  0  1  0  0  0  0  0  0  0  0  0
   31.4380   31.8170   14.9900 O   0  0  0  0  0  0  0  0  0  0  0  0
   31.2350   30.8540   14.9430 H   0  0  0  0  0  0  0  0  0  0  0  0
   29.2590   32.5090   15.3580 C   0  0  0  0  0  0  0  0  0  0  0  0
   28.4200   31.5750   15.3400 O   0  0  0  0  0  0  0  0  0  0  0  0
   28.8610   33.6850   14.7350 O   0  0  0  0  0  0  0  0  0  0  0  0
   29.6180   34.2930   14.4040 H   0  0  0  0  0  0  0  0  0  0  0  0
   32.0660   34.7280   18.3650 O   0  0  0  0  0  0  0  0  0  0  0  0
   32.1760   34.6080   19.3410 H   0  0  0  0  0  0  0  0  0  0  0  0
   30.6420   33.0230   20.0800 N   0  0  0  0  0  0  0  0  0  0  0  0
   31.2660   32.6250   21.2840 C   0  0  0  0  0  0  0  0  0  0  0  0
   29.7940   33.6440   20.1610 H   0  0  0  0  0  0  0  0  0  0  0  0
   30.7200   33.0780   22.5830 C   0  0  0  0  0  0  0  0  0  0  0  0
   32.2790   31.8900   21.2390 O   0  0  0  0  0  0  0  0  0  0  0  0
   30.5650   29.7870   19.5190 O   0  0  0  0  0  0  0  0  0  0  0  0
   31.1160   29.3790   18.8330 H   0  0  0  0  0  0  0  0  0  0  0  0
   28.2700   29.6220   17.5090 O   0  0  0  0  0  0  0  0  0  0  0  0
   27.3380   29.5970   17.2130 H   0  0  0  0  0  0  0  0  0  0  0  0
   26.9060   31.9870   18.0440 N   0  0  0  0  0  0  0  0  0  0  0  0
   27.1410   33.3520   18.1490 C   0  0  0  0  0  0  0  0  0  0  0  0
   26.5200   31.6480   17.1090 H   0  0  0  0  0  0  0  0  0  0  0  0
   27.5800   33.8580   19.1900 O   0  0  0  0  0  0  0  0  0  0  0  0
   26.9020   34.2520   17.0950 O   0  0  0  0  0  0  0  0  0  0  0  0
   25.5890   34.5040   16.6490 C   0  0  0  0  0  0  0  0  0  0  0  0
   25.3120   33.8430   15.3600 C   0  0  0  0  0  0  0  0  0  0  0  0
   24.4270   32.7850   15.2280 C   0  0  0  0  0  0  0  0  0  0  0  0
   25.7860   34.0670   14.1350 N   0  0  0  0  0  0  0  0  0  0  0  0
   24.3970   32.4080   13.9380 N   0  0  0  0  0  0  0  0  0  0  0  0
   25.2210   33.1910   13.2910 N   0  0  0  0  0  0  0  0  0  0  0  0
   23.6170   31.3540   13.3630 C   0  0  0  0  0  0  0  0  0  0  0  0
   24.1310   30.0790   13.2090 C   0  0  0  0  0  0  0  0  0  0  0  0
   22.3240   31.6020   12.9480 C   0  0  0  0  0  0  0  0  0  0  0  0
   23.3320   29.0830   12.6420 C   0  0  0  0  0  0  0  0  0  0  0  0
   21.5670   30.6130   12.3980 N   0  0  0  0  0  0  0  0  0  0  0  0
   22.0400   29.3640   12.2370 C   0  0  0  0  0  0  0  0  0  0  0  0
   29.8670   25.5550   16.9770 C   0  0  0  0  0  0  0  0  0  0  0  0
   28.3450   25.7220   17.0260 C   0  0  0  0  0  0  0  0  0  0  0  0
   27.5990   24.4470   16.6630 C   0  0  0  0  0  0  0  0  0  0  0  0
   27.0120   23.7710   17.8720 C   0  0  0  0  0  0  0  0  0  0  0  0
   25.5830   23.3340   17.5670 C   0  0  0  0  0  0  0  0  0  0  0  0
   24.7630   24.4950   17.1490 N   0  0  0  0  0  0  0  0  0  0  0  0
  2  1  1  6  0  0  0
  2  3  1  0  0  0  0
  3 23  1  6  0  0  0
  4  9  1  0  0  0  0
  4  3  1  1  0  0  0
  5 10  1  6  0  0  0
  5  6  1  0  0  0  0
  5  7  1  0  0  0  0
  6  8  1  0  0  0  0
  7  4  1  0  0  0  0
  8 16  1  1  0  0  0
  8  9  1  0  0  0  0
  9 18  1  1  0  0  0
 11 10  1  0  0  0  0
 12  5  1  0  0  0  0
 13 12  2  0  0  0  0
 14 12  1  0  0  0  0
 15 14  1  0  0  0  0
 16 17  1  0  0  0  0
 18 20  1  0  0  0  0
 18 19  1  0  0  0  0
 19 21  1  0  0  0  0
 22 19  2  0  0  0  0
 24 23  1  0  0  0  0
 25  2  1  0  0  0  0
 26 25  1  0  0  0  0
 27 28  1  0  0  0  0
 27  1  1  0  0  0  0
 28 30  2  0  0  0  0
 29 27  1  0  0  0  0
 31 28  1  0  0  0  0
 32 31  1  0  0  0  0
 33 32  1  0  0  0  0
 34 33  2  0  0  0  0
 35 33  1  0  0  0  0
 36 34  1  0  0  0  0
 37 36  1  0  0  0  0
 37 35  2  0  0  0  0
 38 36  1  0  0  0  0
 39 38  1  0  0  0  0
 40 38  2  0  0  0  0
 41 39  2  0  0  0  0
 42 40  1  0  0  0  0
 43 42  2  0  0  0  0
 43 41  1  0  0  0  0
 44 45  1  0  0  0  0
 46 45  1  0  0  0  0
 46 47  1  0  0  0  0
 48 47  1  0  0  0  0
 49 48  1  0  0  0  0
M  END
>  <REMARK>
 VINA RESULT:    -5.128      3.406      5.331
 INTER + INTRA:         -14.039
 INTER:                  -7.712
 INTRA:                  -6.327
 UNBOUND:                -5.164
 SMILES CC(=O)N[C@@H]1[C@@H](O)C[C@](O)(C(=O)O)O[C@H]1C(O)[C@H](O)CNC(=O)OCc1cn(-c2cccnc2)nn1
 SMILES IDX 20 1 18 2 16 3 15 4 9 5 8 6 14 7 6 8 5 9 10 10 11 12 12 13
 SMILES IDX 13 14 7 16 4 18 2 19 1 21 3 22 17 23 19 25 21 27 22 28 23 30
 SMILES IDX 24 31 25 32 26 33 27 34 36 35 28 36 35 37 29 38 30 39 34 40
 SMILES IDX 31 41 33 42 32 43
 H PARENT 10 11 13 15 7 17 4 20 17 24 19 26 21 29
 Flexibility Score: inf
  4 active torsions:
  status: ('A' for Active; 'I' for Inactive)
    1  A    between atoms: CA   and  CB  
    2  A    between atoms: CB   and  CG  
    3  A    between atoms: CG   and  CD  
    4  A    between atoms: CD   and  CE  

>  <TORSDO>
F 15

>  <BEGIN_>
RES LYS A 131

$$$$
ligand_52_pose_5_2HRL.pdbqt
 OpenBabel07062320523D

  6  5  0  0  0  0  0  0  0  0999 V2000
   33.1930   34.6630    9.2900 C   0  0  0  0  0  0  0  0  0  0  0  0
   32.0600   35.3600   10.0340 C   0  0  0  0  0  0  0  0  0  0  0  0
   30.7180   34.7040    9.8390 C   0  0  0  0  0  0  0  0  0  0  0  0
   30.2710   34.8150    8.3890 C   0  0  0  0  0  0  0  0  0  0  0  0
   28.7830   34.5480    8.2680 C   0  0  0  0  0  0  0  0  0  0  0  0
   28.1890   35.3210    7.1430 N   0  0  0  0  0  0  0  0  0  0  0  0
  1  2  1  0  0  0  0
  3  2  1  0  0  0  0
  4  3  1  0  0  0  0
  5  4  1  0  0  0  0
  6  5  1  0  0  0  0
M  END
>  <EGIN_R>
ES LYS A 135

>  <REMARK>
  4 active torsions:
  status: ('A' for Active; 'I' for Inactive)
    5  A    between atoms: CA   and  CB  
    6  A    between atoms: CB   and  CG  
    7  A    between atoms: CG   and  CD  
    8  A    between atoms: CD   and  CE  

$$$$
