ligand_62_pose_16_2HRL.pdbqt
 OpenBabel07062320523D

 52 52  0  0  1  0  0  0  0  0999 V2000
   30.8550   33.0560   17.9760 N   0  0  0  0  0  0  0  0  0  0  0  0
   30.0330   33.9720   17.2900 C   0  0  0  0  0  0  0  0  0  0  0  0
   29.2690   34.7610   17.8900 O   0  0  0  0  0  0  0  0  0  0  0  0
   31.4660   32.4390   17.3840 H   0  0  0  0  0  0  0  0  0  0  0  0
   30.9330   32.8910   19.3870 C   0  0  0  0  0  0  0  0  0  0  0  0
   30.8200   31.5140   19.9270 C   0  0  2  0  0  0  0  0  0  0  0  0
   29.4550   31.2110   20.5040 C   0  0  2  0  0  0  0  0  0  0  0  0
   29.3460   29.8970   21.2100 C   0  0  2  0  0  0  0  0  0  0  0  0
   29.9540   27.6840   20.9210 C   0  0  2  0  0  0  0  0  0  0  0  0
   29.4820   27.6850   22.3510 C   0  0  0  0  0  0  0  0  0  0  0  0
   29.9230   28.9420   20.3460 O   0  0  0  0  0  0  0  0  0  0  0  0
   28.1320   28.2790   22.5380 C   0  0  1  0  0  0  0  0  0  0  0  0
   27.9690   29.4250   21.5260 C   0  0  1  0  0  0  0  0  0  0  0  0
   29.2280   26.7450   20.2110 O   0  0  0  0  0  0  0  0  0  0  0  0
   28.3280   26.5770   20.5850 H   0  0  0  0  0  0  0  0  0  0  0  0
   31.3740   27.2380   20.9280 C   0  0  0  0  0  0  0  0  0  0  0  0
   31.9560   26.8840   21.9910 O   0  0  0  0  0  0  0  0  0  0  0  0
   32.1410   27.1870   19.7590 O   0  0  0  0  0  0  0  0  0  0  0  0
   32.6190   26.3430   19.4730 H   0  0  0  0  0  0  0  0  0  0  0  0
   27.0980   27.3550   22.3960 O   0  0  0  0  0  0  0  0  0  0  0  0
   26.3640   27.8240   21.9130 H   0  0  0  0  0  0  0  0  0  0  0  0
   27.0780   30.3540   22.1300 N   0  0  0  0  0  0  0  0  0  0  0  0
   25.6430   30.2880   21.9560 C   0  0  0  0  0  0  0  0  0  0  0  0
   27.3980   31.1340   22.7430 H   0  0  0  0  0  0  0  0  0  0  0  0
   24.7540   31.2780   22.6050 C   0  0  0  0  0  0  0  0  0  0  0  0
   25.1520   29.3930   21.2580 O   0  0  0  0  0  0  0  0  0  0  0  0
   28.6250   31.0720   19.3480 O   0  0  0  0  0  0  0  0  0  0  0  0
   28.1840   31.9100   19.1320 H   0  0  0  0  0  0  0  0  0  0  0  0
   31.7260   31.3310   20.9690 O   0  0  0  0  0  0  0  0  0  0  0  0
   32.3780   32.0700   20.9820 H   0  0  0  0  0  0  0  0  0  0  0  0
   30.0370   34.0370   15.8990 O   0  0  0  0  0  0  0  0  0  0  0  0
   29.9450   32.8820   15.1060 C   0  0  0  0  0  0  0  0  0  0  0  0
   28.9130   31.9670   15.6250 C   0  0  0  0  0  0  0  0  0  0  0  0
   27.5510   32.1860   15.6980 C   0  0  0  0  0  0  0  0  0  0  0  0
   29.1530   30.7370   16.1260 N   0  0  0  0  0  0  0  0  0  0  0  0
   27.0180   31.0940   16.2330 N   0  0  0  0  0  0  0  0  0  0  0  0
   27.9670   30.2390   16.4860 N   0  0  0  0  0  0  0  0  0  0  0  0
   25.6000   30.8720   16.5020 C   0  0  1  0  0  0  0  0  0  0  0  0
   25.1660   29.6270   15.7820 C   0  0  0  0  0  0  0  0  0  0  0  0
   24.3950   29.9360   14.6850 O   0  0  0  0  0  0  0  0  0  0  0  0
   23.8330   31.1940   14.7120 C   0  0  0  0  0  0  0  0  0  0  0  0
   25.4170   30.6570   17.9750 C   0  0  0  0  0  0  0  0  0  0  0  0
   24.7850   31.4740   18.6610 O   0  0  0  0  0  0  0  0  0  0  0  0
   25.9930   29.4930   18.5470 N   0  0  0  0  0  0  0  0  0  0  0  0
   25.5830   29.1160   19.4330 H   0  0  0  0  0  0  0  0  0  0  0  0
   26.7940   29.0260   18.1050 H   0  0  0  0  0  0  0  0  0  0  0  0
   29.8670   25.5550   16.9770 C   0  0  0  0  0  0  0  0  0  0  0  0
   28.3450   25.7220   17.0260 C   0  0  0  0  0  0  0  0  0  0  0  0
   27.6010   24.4040   16.8740 C   0  0  0  0  0  0  0  0  0  0  0  0
   26.6360   24.1650   18.0020 C   0  0  0  0  0  0  0  0  0  0  0  0
   25.6080   23.1200   17.5790 C   0  0  0  0  0  0  0  0  0  0  0  0
   24.4000   23.7750   17.0260 N   0  0  0  0  0  0  0  0  0  0  0  0
  1  5  1  0  0  0  0
  2  3  2  0  0  0  0
  2  1  1  0  0  0  0
  4  1  1  0  0  0  0
  6  5  1  1  0  0  0
  6  7  1  0  0  0  0
  6 29  1  0  0  0  0
  7 27  1  6  0  0  0
  8  7  1  6  0  0  0
  8 13  1  0  0  0  0
  9 14  1  6  0  0  0
  9 16  1  0  0  0  0
  9 10  1  0  0  0  0
 10 12  1  0  0  0  0
 11  9  1  0  0  0  0
 11  8  1  0  0  0  0
 12 20  1  6  0  0  0
 13 22  1  1  0  0  0
 13 12  1  0  0  0  0
 14 15  1  0  0  0  0
 16 17  2  0  0  0  0
 18 16  1  0  0  0  0
 19 18  1  0  0  0  0
 21 20  1  0  0  0  0
 22 24  1  0  0  0  0
 23 22  1  0  0  0  0
 23 25  1  0  0  0  0
 26 23  2  0  0  0  0
 28 27  1  0  0  0  0
 29 30  1  0  0  0  0
 31  2  1  0  0  0  0
 32 33  1  0  0  0  0
 32 31  1  0  0  0  0
 33 34  2  0  0  0  0
 33 35  1  0  0  0  0
 34 36  1  0  0  0  0
 35 37  2  0  0  0  0
 36 37  1  0  0  0  0
 36 38  1  0  0  0  0
 38 39  1  6  0  0  0
 38 42  1  0  0  0  0
 40 41  1  0  0  0  0
 40 39  1  0  0  0  0
 42 44  1  0  0  0  0
 42 43  2  0  0  0  0
 44 45  1  0  0  0  0
 46 44  1  0  0  0  0
 47 48  1  0  0  0  0
 49 48  1  0  0  0  0
 49 50  1  0  0  0  0
 51 50  1  0  0  0  0
 52 51  1  0  0  0  0
M  END
>  <REMARK>
 VINA RESULT:    -3.889      2.452      4.690
 INTER + INTRA:         -14.166
 INTER:                  -7.044
 INTRA:                  -7.122
 UNBOUND:                -6.753
 SMILES COCC(C(N)=O)n1cc(COC(=O)NC[C@@H](O)C(O)[C@@H]2O[C@@](O)(C(=O)O)C[C@H](O)[C@H]2NC(C)=O)nn1
 SMILES IDX 15 1 13 2 14 3 16 5 17 6 19 7 21 8 23 9 28 10 22 11 29 12
 SMILES IDX 31 13 24 14 25 16 26 17 27 18 30 20 32 22 33 23 34 25 35 26
 SMILES IDX 20 27 18 29 12 31 11 32 10 33 9 34 36 35 8 36 37 37 4 38
 SMILES IDX 3 39 2 40 1 41 5 42 7 43 6 44
 H PARENT 15 4 24 15 27 19 30 21 32 24 20 28 18 30 6 45 6 46
 Flexibility Score: inf
  4 active torsions:
  status: ('A' for Active; 'I' for Inactive)
    1  A    between atoms: CA   and  CB  
    2  A    between atoms: CB   and  CG  
    3  A    between atoms: CG   and  CD  
    4  A    between atoms: CD   and  CE  

>  <TORSDO>
F 18

>  <BEGIN_>
RES LYS A 131

$$$$
ligand_62_pose_16_2HRL.pdbqt
 OpenBabel07062320523D

  6  5  0  0  0  0  0  0  0  0999 V2000
   33.1930   34.6630    9.2900 C   0  0  0  0  0  0  0  0  0  0  0  0
   32.0600   35.3600   10.0340 C   0  0  0  0  0  0  0  0  0  0  0  0
   30.8070   35.5180    9.2120 C   0  0  0  0  0  0  0  0  0  0  0  0
   30.0420   34.2060    9.1410 C   0  0  0  0  0  0  0  0  0  0  0  0
   28.6440   34.4330    8.5990 C   0  0  0  0  0  0  0  0  0  0  0  0
   27.6280   33.7130    9.4160 N   0  0  0  0  0  0  0  0  0  0  0  0
  1  2  1  0  0  0  0
  3  2  1  0  0  0  0
  4  3  1  0  0  0  0
  5  4  1  0  0  0  0
  5  6  1  0  0  0  0
M  END
>  <EGIN_R>
ES LYS A 135

>  <REMARK>
  4 active torsions:
  status: ('A' for Active; 'I' for Inactive)
    5  A    between atoms: CA   and  CB  
    6  A    between atoms: CB   and  CG  
    7  A    between atoms: CG   and  CD  
    8  A    between atoms: CD   and  CE  

$$$$
