ligand_84_pose_13_2HRL.pdbqt
 OpenBabel07062320523D

 60 62  0  0  1  0  0  0  0  0999 V2000
   26.7320   34.4940   10.9560 O   0  0  0  0  0  0  0  0  0  0  0  0
   27.2230   34.5030    9.6590 C   0  0  0  0  0  0  0  0  0  0  0  0
   26.7280   35.3440    8.6240 N   0  0  0  0  0  0  0  0  0  0  0  0
   25.9440   35.9760    8.8760 H   0  0  0  0  0  0  0  0  0  0  0  0
   28.1700   33.7050    9.4220 O   0  0  0  0  0  0  0  0  0  0  0  0
   27.3550   35.2390    7.3470 C   0  0  0  0  0  0  0  0  0  0  0  0
   28.3090   36.3060    6.9860 C   0  0  2  0  0  0  0  0  0  0  0  0
   27.7180   37.4940    6.2490 C   0  0  1  0  0  0  0  0  0  0  0  0
   28.4950   38.6940    6.7920 C   0  0  2  0  0  0  0  0  0  0  0  0
   30.6340   39.1570    7.6030 C   0  0  2  0  0  0  0  0  0  0  0  0
   30.0400   40.0490    8.6560 C   0  0  0  0  0  0  0  0  0  0  0  0
   29.7550   38.2480    7.0780 O   0  0  0  0  0  0  0  0  0  0  0  0
   28.6440   40.4840    8.3920 C   0  0  1  0  0  0  0  0  0  0  0  0
   27.8340   39.2230    8.0220 C   0  0  1  0  0  0  0  0  0  0  0  0
   31.6250   38.4050    8.2850 O   0  0  0  0  0  0  0  0  0  0  0  0
   31.2230   37.7220    8.8530 H   0  0  0  0  0  0  0  0  0  0  0  0
   31.3580   39.9150    6.5410 C   0  0  0  0  0  0  0  0  0  0  0  0
   31.0340   41.1000    6.2760 O   0  0  0  0  0  0  0  0  0  0  0  0
   32.4020   39.3720    5.8060 O   0  0  0  0  0  0  0  0  0  0  0  0
   33.3380   39.7580    5.7670 H   0  0  0  0  0  0  0  0  0  0  0  0
   28.1080   41.0120    9.5670 O   0  0  0  0  0  0  0  0  0  0  0  0
   27.6870   40.2980   10.1140 H   0  0  0  0  0  0  0  0  0  0  0  0
   26.4510   39.5670    7.8210 N   0  0  0  0  0  0  0  0  0  0  0  0
   25.4190   38.8930    8.5100 C   0  0  0  0  0  0  0  0  0  0  0  0
   26.2130   40.3240    7.1590 H   0  0  0  0  0  0  0  0  0  0  0  0
   24.0200   39.3300    8.2260 C   0  0  0  0  0  0  0  0  0  0  0  0
   25.6260   37.9720    9.3270 O   0  0  0  0  0  0  0  0  0  0  0  0
   27.9520   37.3300    4.8740 O   0  0  0  0  0  0  0  0  0  0  0  0
   27.0750   37.1020    4.4730 H   0  0  0  0  0  0  0  0  0  0  0  0
   29.2080   35.7410    6.0390 O   0  0  0  0  0  0  0  0  0  0  0  0
   28.8750   36.0810    5.1600 H   0  0  0  0  0  0  0  0  0  0  0  0
   26.6120   35.6980   11.6960 C   0  0  0  0  0  0  0  0  0  0  0  0
   27.5560   35.6990   12.8370 C   0  0  0  0  0  0  0  0  0  0  0  0
   28.6350   34.8200   12.9560 C   0  0  0  0  0  0  0  0  0  0  0  0
   27.6340   36.4640   13.9340 N   0  0  0  0  0  0  0  0  0  0  0  0
   29.3160   35.0680   14.0840 N   0  0  0  0  0  0  0  0  0  0  0  0
   28.6660   36.0970   14.6720 N   0  0  0  0  0  0  0  0  0  0  0  0
   30.5090   34.4280   14.6070 C   0  0  0  0  0  0  0  0  0  0  0  0
   30.1520   33.0210   15.1020 C   0  0  1  0  0  0  0  0  0  0  0  0
   31.3580   32.2250   15.4320 C   0  0  0  0  0  0  0  0  0  0  0  0
   29.0180   33.0410   16.0390 C   0  0  0  0  0  0  0  0  0  0  0  0
   27.8230   32.4580   15.5120 N   0  0  0  0  0  0  0  0  0  0  0  0
   27.5870   31.1340   16.1500 C   0  0  0  0  0  0  0  0  0  0  0  0
   26.6660   33.2430   15.9290 C   0  0  0  0  0  0  0  0  0  0  0  0
   26.2710   30.5640   15.7530 C   0  0  0  0  0  0  0  0  0  0  0  0
   25.5630   32.8440   14.9370 C   0  0  0  0  0  0  0  0  0  0  0  0
   25.4110   31.4190   14.9950 N   0  0  0  0  0  0  0  0  0  0  0  0
   24.3390   30.8410   14.2600 C   0  0  0  0  0  0  0  0  0  0  0  0
   24.0520   29.5040   14.4190 C   0  0  0  0  0  0  0  0  0  0  0  0
   23.5850   31.6040   13.3780 C   0  0  0  0  0  0  0  0  0  0  0  0
   23.0200   28.9490   13.6990 C   0  0  0  0  0  0  0  0  0  0  0  0
   22.5600   31.0400   12.6650 C   0  0  0  0  0  0  0  0  0  0  0  0
   22.2770   29.6940   12.8330 C   0  0  0  0  0  0  0  0  0  0  0  0
   20.9740   28.9910   11.9120 Cl  0  0  0  0  0  0  0  0  0  0  0  0
   29.8670   25.5550   16.9770 C   0  0  0  0  0  0  0  0  0  0  0  0
   28.3450   25.7220   17.0260 C   0  0  0  0  0  0  0  0  0  0  0  0
   27.6020   24.3980   16.9300 C   0  0  0  0  0  0  0  0  0  0  0  0
   26.4990   24.2930   17.9460 C   0  0  0  0  0  0  0  0  0  0  0  0
   26.0670   25.6910   18.3750 C   0  0  0  0  0  0  0  0  0  0  0  0
   25.8680   25.7450   19.8430 N   0  0  0  0  0  0  0  0  0  0  0  0
  1 32  1  0  0  0  0
  2  1  1  0  0  0  0
  3  4  1  0  0  0  0
  3  2  1  0  0  0  0
  5  2  2  0  0  0  0
  6  3  1  0  0  0  0
  7  6  1  6  0  0  0
  8 28  1  6  0  0  0
  8  7  1  0  0  0  0
  9  8  1  1  0  0  0
  9 12  1  0  0  0  0
  9 14  1  0  0  0  0
 10 17  1  6  0  0  0
 10 15  1  0  0  0  0
 10 11  1  0  0  0  0
 12 10  1  0  0  0  0
 13 11  1  0  0  0  0
 13 21  1  1  0  0  0
 14 23  1  6  0  0  0
 14 13  1  0  0  0  0
 15 16  1  0  0  0  0
 18 17  2  0  0  0  0
 19 17  1  0  0  0  0
 20 19  1  0  0  0  0
 21 22  1  0  0  0  0
 23 24  1  0  0  0  0
 24 27  2  0  0  0  0
 25 23  1  0  0  0  0
 26 24  1  0  0  0  0
 29 28  1  0  0  0  0
 30  7  1  0  0  0  0
 31 30  1  0  0  0  0
 32 33  1  0  0  0  0
 33 34  2  0  0  0  0
 33 35  1  0  0  0  0
 34 36  1  0  0  0  0
 35 37  2  0  0  0  0
 36 38  1  0  0  0  0
 36 37  1  0  0  0  0
 38 39  1  0  0  0  0
 39 40  1  1  0  0  0
 39 41  1  0  0  0  0
 42 44  1  0  0  0  0
 42 41  1  0  0  0  0
 42 43  1  0  0  0  0
 45 43  1  0  0  0  0
 46 47  1  0  0  0  0
 46 44  1  0  0  0  0
 47 45  1  0  0  0  0
 48 49  1  0  0  0  0
 48 47  1  0  0  0  0
 50 48  2  0  0  0  0
 51 49  2  0  0  0  0
 52 53  2  0  0  0  0
 52 50  1  0  0  0  0
 53 51  1  0  0  0  0
 54 53  1  0  0  0  0
 55 56  1  0  0  0  0
 57 56  1  0  0  0  0
 57 58  1  0  0  0  0
 58 59  1  0  0  0  0
 59 60  1  0  0  0  0
M  END
>  <REMARK>
 VINA RESULT:    -5.025      2.991      5.305
 INTER + INTRA:         -15.994
 INTER:                 -11.706
 INTRA:                  -4.288
 UNBOUND:                -6.121
 SMILES CC(=O)N[C@@H]1[C@@H](O)C[C@](O)(C(=O)O)O[C@H]1C(O)[C@H](O)CNC(=O)OCc1cn(C[C@@H](C)CN2CCN(c3ccc(Cl)cc3)CC2)nn1
 SMILES IDX 24 1 22 2 21 3 23 5 20 6 18 7 16 8 15 9 9 10 8 11 14 12 6 13
 SMILES IDX 5 14 10 15 11 17 12 18 13 19 7 21 4 23 2 24 1 26 3 27 17 28
 SMILES IDX 19 30 25 32 26 33 27 34 47 35 28 36 46 37 29 38 30 39 31 40
 SMILES IDX 32 41 33 42 34 43 45 44 35 45 44 46 36 47 37 48 38 49 43 50
 SMILES IDX 39 51 42 52 40 53 41 54
 H PARENT 21 4 10 16 13 20 7 22 4 25 17 29 19 31
 Flexibility Score: inf
  4 active torsions:
  status: ('A' for Active; 'I' for Inactive)
    1  A    between atoms: CA   and  CB  
    2  A    between atoms: CB   and  CG  
    3  A    between atoms: CG   and  CD  
    4  A    between atoms: CD   and  CE  

>  <TORSDO>
F 19

>  <BEGIN_>
RES LYS A 131

$$$$
ligand_84_pose_13_2HRL.pdbqt
 OpenBabel07062320523D

  6  5  0  0  0  0  0  0  0  0999 V2000
   33.1930   34.6630    9.2900 C   0  0  0  0  0  0  0  0  0  0  0  0
   32.0600   35.3600   10.0340 C   0  0  0  0  0  0  0  0  0  0  0  0
   32.4370   35.8080   11.4230 C   0  0  0  0  0  0  0  0  0  0  0  0
   32.2210   37.3050   11.5810 C   0  0  0  0  0  0  0  0  0  0  0  0
   31.4690   37.6010   12.8650 C   0  0  0  0  0  0  0  0  0  0  0  0
   30.7710   38.9140   12.7860 N   0  0  0  0  0  0  0  0  0  0  0  0
  1  2  1  0  0  0  0
  2  3  1  0  0  0  0
  3  4  1  0  0  0  0
  4  5  1  0  0  0  0
  6  5  1  0  0  0  0
M  END
>  <EGIN_R>
ES LYS A 135

>  <REMARK>
  4 active torsions:
  status: ('A' for Active; 'I' for Inactive)
    5  A    between atoms: CA   and  CB  
    6  A    between atoms: CB   and  CG  
    7  A    between atoms: CG   and  CD  
    8  A    between atoms: CD   and  CE  

$$$$
