ligand_73_pose_10_2HRL.pdbqt
 OpenBabel07062320523D

 54 55  0  0  1  0  0  0  0  0999 V2000
   29.0330   37.2820   15.8700 N   0  0  0  0  0  0  0  0  0  0  0  0
   30.3860   37.6210   15.5970 C   0  0  0  0  0  0  0  0  0  0  0  0
   31.3140   37.4170   16.4480 O   0  0  0  0  0  0  0  0  0  0  0  0
   28.3130   37.4570   15.1520 H   0  0  0  0  0  0  0  0  0  0  0  0
   28.7010   36.6950   17.1350 C   0  0  0  0  0  0  0  0  0  0  0  0
   28.3090   35.2610   17.1220 C   0  0  2  0  0  0  0  0  0  0  0  0
   28.4820   34.5530   15.8030 C   0  0  1  0  0  0  0  0  0  0  0  0
   28.6580   33.0700   15.9120 C   0  0  2  0  0  0  0  0  0  0  0  0
   27.6620   31.0910   16.5170 C   0  0  2  0  0  0  0  0  0  0  0  0
   28.8270   30.5740   15.7050 C   0  0  0  0  0  0  0  0  0  0  0  0
   27.5980   32.4720   16.5730 O   0  0  0  0  0  0  0  0  0  0  0  0
   30.1000   31.1160   16.2640 C   0  0  1  0  0  0  0  0  0  0  0  0
   30.0120   32.6440   16.3460 C   0  0  1  0  0  0  0  0  0  0  0  0
   27.8120   30.5920   17.8030 O   0  0  0  0  0  0  0  0  0  0  0  0
   28.2560   29.7050   17.7190 H   0  0  0  0  0  0  0  0  0  0  0  0
   26.4260   30.5150   15.9320 C   0  0  0  0  0  0  0  0  0  0  0  0
   25.9750   29.4050   16.3190 O   0  0  0  0  0  0  0  0  0  0  0  0
   25.7380   31.1930   14.9430 O   0  0  0  0  0  0  0  0  0  0  0  0
   24.8360   30.9190   14.6040 H   0  0  0  0  0  0  0  0  0  0  0  0
   30.2640   30.5480   17.5410 O   0  0  0  0  0  0  0  0  0  0  0  0
   31.1080   30.0040   17.4910 H   0  0  0  0  0  0  0  0  0  0  0  0
   30.9630   33.1790   15.3580 N   0  0  0  0  0  0  0  0  0  0  0  0
   32.0430   34.0130   15.7120 C   0  0  0  0  0  0  0  0  0  0  0  0
   30.8260   32.9270   14.3510 H   0  0  0  0  0  0  0  0  0  0  0  0
   32.9780   34.5330   14.6840 C   0  0  0  0  0  0  0  0  0  0  0  0
   32.2170   34.3200   16.8980 O   0  0  0  0  0  0  0  0  0  0  0  0
   27.4040   34.7970   14.9530 O   0  0  0  0  0  0  0  0  0  0  0  0
   27.1630   34.0370   14.3980 H   0  0  0  0  0  0  0  0  0  0  0  0
   26.9630   35.2100   17.5140 O   0  0  0  0  0  0  0  0  0  0  0  0
   26.8880   35.7150   18.3740 H   0  0  0  0  0  0  0  0  0  0  0  0
   30.6800   38.1820   14.3770 O   0  0  0  0  0  0  0  0  0  0  0  0
   31.0830   37.3700   13.3180 C   0  0  0  0  0  0  0  0  0  0  0  0
   29.9910   36.5180   12.7750 C   0  0  0  0  0  0  0  0  0  0  0  0
   28.8310   36.9200   12.1280 C   0  0  0  0  0  0  0  0  0  0  0  0
   29.9110   35.1750   12.8050 N   0  0  0  0  0  0  0  0  0  0  0  0
   28.0980   35.8480   11.7910 N   0  0  0  0  0  0  0  0  0  0  0  0
   28.7770   34.7950   12.2140 N   0  0  0  0  0  0  0  0  0  0  0  0
   26.8460   35.7960   11.1190 C   0  0  0  0  0  0  0  0  0  0  0  0
   25.8150   35.0370   11.6330 C   0  0  0  0  0  0  0  0  0  0  0  0
   26.5970   36.4810    9.9480 C   0  0  0  0  0  0  0  0  0  0  0  0
   24.5870   34.9720   10.9950 C   0  0  0  0  0  0  0  0  0  0  0  0
   25.3870   36.4460    9.2740 C   0  0  0  0  0  0  0  0  0  0  0  0
   24.3750   35.6690    9.8290 C   0  0  0  0  0  0  0  0  0  0  0  0
   25.1500   37.1530    8.0770 N   0  0  0  0  0  0  0  0  0  0  0  0
   25.9150   37.0050    7.1230 O   0  0  0  0  0  0  0  0  0  0  0  0
   24.0840   37.9900    7.9820 O   0  0  0  0  0  0  0  0  0  0  0  0
   23.1590   35.6350    9.1490 O   0  0  0  0  0  0  0  0  0  0  0  0
   22.3870   36.2120    9.5130 H   0  0  0  0  0  0  0  0  0  0  0  0
   29.8670   25.5550   16.9770 C   0  0  0  0  0  0  0  0  0  0  0  0
   28.3450   25.7220   17.0260 C   0  0  0  0  0  0  0  0  0  0  0  0
   27.6000   24.4070   16.8510 C   0  0  0  0  0  0  0  0  0  0  0  0
   26.7340   24.0850   18.0370 C   0  0  0  0  0  0  0  0  0  0  0  0
   26.2380   25.3790   18.6720 C   0  0  0  0  0  0  0  0  0  0  0  0
   25.5180   25.0950   19.9360 N   0  0  0  0  0  0  0  0  0  0  0  0
  1  5  1  0  0  0  0
  2  1  1  0  0  0  0
  2  3  2  0  0  0  0
  4  1  1  0  0  0  0
  6  5  1  6  0  0  0
  6 29  1  0  0  0  0
  7 27  1  6  0  0  0
  7  6  1  0  0  0  0
  8  7  1  1  0  0  0
  8 13  1  0  0  0  0
  8 11  1  0  0  0  0
  9 16  1  6  0  0  0
  9 11  1  0  0  0  0
  9 14  1  0  0  0  0
 10 12  1  0  0  0  0
 10  9  1  0  0  0  0
 12 13  1  0  0  0  0
 12 20  1  1  0  0  0
 13 22  1  6  0  0  0
 15 14  1  0  0  0  0
 16 17  2  0  0  0  0
 18 16  1  0  0  0  0
 19 18  1  0  0  0  0
 21 20  1  0  0  0  0
 22 23  1  0  0  0  0
 23 26  2  0  0  0  0
 24 22  1  0  0  0  0
 25 23  1  0  0  0  0
 28 27  1  0  0  0  0
 29 30  1  0  0  0  0
 31  2  1  0  0  0  0
 32 31  1  0  0  0  0
 33 35  1  0  0  0  0
 33 32  1  0  0  0  0
 34 33  2  0  0  0  0
 36 34  1  0  0  0  0
 36 37  1  0  0  0  0
 37 35  2  0  0  0  0
 38 39  1  0  0  0  0
 38 36  1  0  0  0  0
 40 38  2  0  0  0  0
 41 39  2  0  0  0  0
 42 43  2  0  0  0  0
 42 40  1  0  0  0  0
 43 41  1  0  0  0  0
 44 42  1  0  0  0  0
 45 44  2  0  0  0  0
 46 44  2  0  0  0  0
 47 48  1  0  0  0  0
 47 43  1  0  0  0  0
 49 50  1  0  0  0  0
 51 50  1  0  0  0  0
 51 52  1  0  0  0  0
 52 53  1  0  0  0  0
 53 54  1  0  0  0  0
M  END
>  <REMARK>
 VINA RESULT:    -4.067      3.296      7.739
 INTER + INTRA:         -14.706
 INTER:                  -8.256
 INTRA:                  -6.450
 UNBOUND:                -7.311
 SMILES CC(=O)N[C@@H]1[C@@H](O)C[C@](O)(C(=O)O)O[C@H]1C(O)[C@H](O)CNC(=O)OCc1cn(-c2ccc(O)c([N+](=O)[O-])c2)nn1
 SMILES IDX 21 1 22 2 23 3 20 5 18 6 16 7 15 8 9 9 8 10 14 11 6 12 5 13
 SMILES IDX 10 14 11 16 12 17 13 18 7 20 4 22 2 23 1 25 3 26 17 27 19 29
 SMILES IDX 24 31 25 32 26 33 27 34 40 35 28 36 39 37 29 38 30 39 38 40
 SMILES IDX 31 41 34 42 32 43 35 44 36 45 37 46 33 47
 H PARENT 21 4 10 15 13 19 7 21 4 24 17 28 19 30 33 48
 Flexibility Score: inf
  4 active torsions:
  status: ('A' for Active; 'I' for Inactive)
    1  A    between atoms: CA   and  CB  
    2  A    between atoms: CB   and  CG  
    3  A    between atoms: CG   and  CD  
    4  A    between atoms: CD   and  CE  

>  <TORSDO>
F 17

>  <BEGIN_>
RES LYS A 131

$$$$
ligand_73_pose_10_2HRL.pdbqt
 OpenBabel07062320523D

  6  5  0  0  0  0  0  0  0  0999 V2000
   33.1930   34.6630    9.2900 C   0  0  0  0  0  0  0  0  0  0  0  0
   32.0600   35.3600   10.0340 C   0  0  0  0  0  0  0  0  0  0  0  0
   30.8230   35.5600    9.1970 C   0  0  0  0  0  0  0  0  0  0  0  0
   30.1020   34.2390    8.9790 C   0  0  0  0  0  0  0  0  0  0  0  0
   28.8250   34.4530    8.1890 C   0  0  0  0  0  0  0  0  0  0  0  0
   29.0270   35.4510    7.1030 N   0  0  0  0  0  0  0  0  0  0  0  0
  1  2  1  0  0  0  0
  3  2  1  0  0  0  0
  4  3  1  0  0  0  0
  5  4  1  0  0  0  0
  6  5  1  0  0  0  0
M  END
>  <EGIN_R>
ES LYS A 135

>  <REMARK>
  4 active torsions:
  status: ('A' for Active; 'I' for Inactive)
    5  A    between atoms: CA   and  CB  
    6  A    between atoms: CB   and  CG  
    7  A    between atoms: CG   and  CD  
    8  A    between atoms: CD   and  CE  

$$$$
