ligand_77_pose_11_2HRL.pdbqt
 OpenBabel07062320523D

 61 63  0  0  1  0  0  0  0  0999 V2000
   26.1950   36.8520   10.9790 N   0  0  0  0  0  0  0  0  0  0  0  0
   26.7970   35.8090   11.7210 C   0  0  0  0  0  0  0  0  0  0  0  0
   26.1190   34.8450   12.0960 O   0  0  0  0  0  0  0  0  0  0  0  0
   26.8570   37.6410   10.6960 H   0  0  0  0  0  0  0  0  0  0  0  0
   24.8030   36.9110   10.5980 C   0  0  0  0  0  0  0  0  0  0  0  0
   24.6300   36.2790    9.2600 C   0  0  2  0  0  0  0  0  0  0  0  0
   25.2910   37.0630    8.1460 C   0  0  1  0  0  0  0  0  0  0  0  0
   26.5100   36.4230    7.5740 C   0  0  2  0  0  0  0  0  0  0  0  0
   28.4790   35.4720    8.3370 C   0  0  2  0  0  0  0  0  0  0  0  0
   29.0130   35.5060    6.9390 C   0  0  0  0  0  0  0  0  0  0  0  0
   27.0970   35.4940    8.4000 O   0  0  0  0  0  0  0  0  0  0  0  0
   28.3920   36.5330    6.0610 C   0  0  1  0  0  0  0  0  0  0  0  0
   27.4690   37.3970    6.9370 C   0  0  1  0  0  0  0  0  0  0  0  0
   29.0510   36.4910    9.1320 O   0  0  0  0  0  0  0  0  0  0  0  0
   28.3540   37.1280    9.3640 H   0  0  0  0  0  0  0  0  0  0  0  0
   28.9230   34.1880    8.9550 C   0  0  0  0  0  0  0  0  0  0  0  0
   28.0440   33.4200    9.4550 O   0  0  0  0  0  0  0  0  0  0  0  0
   30.2300   33.7780    9.0200 O   0  0  0  0  0  0  0  0  0  0  0  0
   30.9620   34.4260    9.3050 H   0  0  0  0  0  0  0  0  0  0  0  0
   29.3100   37.3230    5.3880 O   0  0  0  0  0  0  0  0  0  0  0  0
   28.9930   37.4640    4.4400 H   0  0  0  0  0  0  0  0  0  0  0  0
   26.6970   38.2690    6.0600 N   0  0  0  0  0  0  0  0  0  0  0  0
   26.8700   39.6740    6.1230 C   0  0  0  0  0  0  0  0  0  0  0  0
   26.0060   37.8980    5.3740 H   0  0  0  0  0  0  0  0  0  0  0  0
   26.0850   40.6020    5.2340 C   0  0  0  0  0  0  0  0  0  0  0  0
   27.6720   40.2210    6.9100 O   0  0  0  0  0  0  0  0  0  0  0  0
   24.2950   37.2600    7.1820 O   0  0  0  0  0  0  0  0  0  0  0  0
   23.4540   37.4430    7.6520 H   0  0  0  0  0  0  0  0  0  0  0  0
   23.2960   35.9940    9.0090 O   0  0  0  0  0  0  0  0  0  0  0  0
   22.7670   36.2280    9.8130 H   0  0  0  0  0  0  0  0  0  0  0  0
   28.1450   35.8070   12.0630 O   0  0  0  0  0  0  0  0  0  0  0  0
   28.7890   34.6520   12.5800 C   0  0  0  0  0  0  0  0  0  0  0  0
   29.2430   34.8530   13.9850 C   0  0  0  0  0  0  0  0  0  0  0  0
   30.5190   35.1990   14.3380 C   0  0  0  0  0  0  0  0  0  0  0  0
   28.5350   34.7420   15.1170 N   0  0  0  0  0  0  0  0  0  0  0  0
   30.5620   35.2930   15.6870 N   0  0  0  0  0  0  0  0  0  0  0  0
   29.3600   35.0130   16.1080 N   0  0  0  0  0  0  0  0  0  0  0  0
   31.7350   35.6350   16.4070 C   0  0  0  0  0  0  0  0  0  0  0  0
   32.6100   36.5720   15.9030 C   0  0  0  0  0  0  0  0  0  0  0  0
   32.0500   35.0620   17.6200 C   0  0  0  0  0  0  0  0  0  0  0  0
   33.7660   36.9360   16.5730 C   0  0  0  0  0  0  0  0  0  0  0  0
   33.2150   35.4220   18.3050 C   0  0  0  0  0  0  0  0  0  0  0  0
   34.0720   36.3590   17.7810 C   0  0  0  0  0  0  0  0  0  0  0  0
   35.5150   36.8140   18.6170 S   0  0  0  0  0  0  0  0  0  0  0  0
   35.2730   36.8090   20.0880 O   0  0  0  0  0  0  0  0  0  0  0  0
   35.9970   38.1830   18.2340 O   0  0  0  0  0  0  0  0  0  0  0  0
   36.7750   35.6690   18.1710 C   0  0  0  0  0  0  0  0  0  0  0  0
   37.2820   34.8370   19.1340 C   0  0  0  0  0  0  0  0  0  0  0  0
   37.2600   35.5920   16.8690 C   0  0  0  0  0  0  0  0  0  0  0  0
   38.2770   33.9180   18.8260 C   0  0  0  0  0  0  0  0  0  0  0  0
   38.2520   34.6860   16.5280 C   0  0  0  0  0  0  0  0  0  0  0  0
   38.7350   33.8700   17.5230 C   0  0  0  0  0  0  0  0  0  0  0  0
   39.7470   32.9390   17.1970 N   0  0  0  0  0  0  0  0  0  0  0  0
   40.7150   33.2570   17.0250 H   0  0  0  0  0  0  0  0  0  0  0  0
   39.5110   31.9340   17.1310 H   0  0  0  0  0  0  0  0  0  0  0  0
   29.8670   25.5550   16.9770 C   0  0  0  0  0  0  0  0  0  0  0  0
   28.3450   25.7220   17.0260 C   0  0  0  0  0  0  0  0  0  0  0  0
   27.6010   24.4010   16.9020 C   0  0  0  0  0  0  0  0  0  0  0  0
   26.1800   24.5040   17.3800 C   0  0  0  0  0  0  0  0  0  0  0  0
   25.9930   25.8120   18.1430 C   0  0  0  0  0  0  0  0  0  0  0  0
   25.7930   25.5460   19.5870 N   0  0  0  0  0  0  0  0  0  0  0  0
  1  2  1  0  0  0  0
  2 31  1  0  0  0  0
  2  3  2  0  0  0  0
  4  1  1  0  0  0  0
  5  1  1  0  0  0  0
  6  5  1  1  0  0  0
  7 27  1  6  0  0  0
  7  6  1  0  0  0  0
  8  7  1  1  0  0  0
  8 11  1  0  0  0  0
  9 11  1  0  0  0  0
  9 16  1  1  0  0  0
  9 14  1  0  0  0  0
 10  9  1  0  0  0  0
 12 20  1  1  0  0  0
 12 13  1  0  0  0  0
 12 10  1  0  0  0  0
 13 22  1  6  0  0  0
 13  8  1  0  0  0  0
 14 15  1  0  0  0  0
 16 18  1  0  0  0  0
 16 17  2  0  0  0  0
 18 19  1  0  0  0  0
 21 20  1  0  0  0  0
 22 23  1  0  0  0  0
 23 26  2  0  0  0  0
 24 22  1  0  0  0  0
 25 23  1  0  0  0  0
 27 28  1  0  0  0  0
 29  6  1  0  0  0  0
 29 30  1  0  0  0  0
 31 32  1  0  0  0  0
 32 33  1  0  0  0  0
 33 34  2  0  0  0  0
 33 35  1  0  0  0  0
 34 36  1  0  0  0  0
 35 37  2  0  0  0  0
 36 37  1  0  0  0  0
 36 38  1  0  0  0  0
 38 40  1  0  0  0  0
 39 38  2  0  0  0  0
 39 41  1  0  0  0  0
 40 42  2  0  0  0  0
 41 43  2  0  0  0  0
 43 42  1  0  0  0  0
 43 44  1  0  0  0  0
 44 45  2  0  0  0  0
 46 44  2  0  0  0  0
 47 44  1  0  0  0  0
 47 48  2  0  0  0  0
 49 47  1  0  0  0  0
 50 48  1  0  0  0  0
 51 49  2  0  0  0  0
 51 52  1  0  0  0  0
 52 50  2  0  0  0  0
 53 52  1  0  0  0  0
 54 53  1  0  0  0  0
 55 53  1  0  0  0  0
 56 57  1  0  0  0  0
 58 57  1  0  0  0  0
 58 59  1  0  0  0  0
 59 60  1  0  0  0  0
 60 61  1  0  0  0  0
M  END
>  <REMARK>
 VINA RESULT:    -5.179      5.306     11.340
 INTER + INTRA:         -16.248
 INTER:                 -11.952
 INTRA:                  -4.296
 UNBOUND:                -6.527
 SMILES CC(=O)N[C@@H]1[C@@H](O)C[C@](O)(C(=O)O)O[C@H]1C(O)[C@H](O)CNC(=O)OCc1cn(-c2ccc(S(=O)(=O)c3ccc(N)cc3)cc2)nn1
 SMILES IDX 21 1 22 2 23 3 20 5 18 6 16 7 15 8 9 9 8 10 14 11 6 12 5 13
 SMILES IDX 10 14 11 16 12 17 13 18 7 20 4 22 2 23 1 25 3 26 17 27 19 29
 SMILES IDX 24 31 25 32 26 33 27 34 46 35 28 36 45 37 29 38 30 39 44 40
 SMILES IDX 31 41 43 42 32 43 33 44 34 45 35 46 36 47 37 48 42 49 38 50
 SMILES IDX 41 51 39 52 40 53
 H PARENT 21 4 10 15 13 19 7 21 4 24 17 28 19 30 40 54 40 55
 Flexibility Score: inf
  4 active torsions:
  status: ('A' for Active; 'I' for Inactive)
    1  A    between atoms: CA   and  CB  
    2  A    between atoms: CB   and  CG  
    3  A    between atoms: CG   and  CD  
    4  A    between atoms: CD   and  CE  

>  <TORSDO>
F 18

>  <BEGIN_>
RES LYS A 131

$$$$
ligand_77_pose_11_2HRL.pdbqt
 OpenBabel07062320523D

  6  5  0  0  0  0  0  0  0  0999 V2000
   33.1930   34.6630    9.2900 C   0  0  0  0  0  0  0  0  0  0  0  0
   32.0600   35.3600   10.0340 C   0  0  0  0  0  0  0  0  0  0  0  0
   32.5130   36.0970   11.2680 C   0  0  0  0  0  0  0  0  0  0  0  0
   32.1670   37.5750   11.1670 C   0  0  0  0  0  0  0  0  0  0  0  0
   31.3950   38.0260   12.3930 C   0  0  0  0  0  0  0  0  0  0  0  0
   30.7270   39.3350   12.1540 N   0  0  0  0  0  0  0  0  0  0  0  0
  1  2  1  0  0  0  0
  2  3  1  0  0  0  0
  4  3  1  0  0  0  0
  4  5  1  0  0  0  0
  6  5  1  0  0  0  0
M  END
>  <EGIN_R>
ES LYS A 135

>  <REMARK>
  4 active torsions:
  status: ('A' for Active; 'I' for Inactive)
    5  A    between atoms: CA   and  CB  
    6  A    between atoms: CB   and  CG  
    7  A    between atoms: CG   and  CD  
    8  A    between atoms: CD   and  CE  

$$$$
