ligand_15_pose_1_2HRL.pdbqt
 OpenBabel07062320523D

 50 51  0  0  1  0  0  0  0  0999 V2000
   30.3540   31.1310   16.9640 C   0  0  0  0  0  0  0  0  0  0  0  0
   30.8520   32.3140   16.1890 C   0  0  2  0  0  0  0  0  0  0  0  0
   29.8240   33.3350   15.8500 C   0  0  2  0  0  0  0  0  0  0  0  0
   30.3860   34.6160   15.2680 C   0  0  2  0  0  0  0  0  0  0  0  0
   31.1740   35.3150   13.1710 C   0  0  2  0  0  0  0  0  0  0  0  0
   32.1380   36.1710   13.9450 C   0  0  0  0  0  0  0  0  0  0  0  0
   30.6560   34.3290   13.9350 O   0  0  0  0  0  0  0  0  0  0  0  0
   32.7560   35.3140   15.0260 C   0  0  1  0  0  0  0  0  0  0  0  0
   31.6390   34.9670   16.0200 C   0  0  1  0  0  0  0  0  0  0  0  0
   31.8780   34.6830   12.1090 O   0  0  0  0  0  0  0  0  0  0  0  0
   32.7600   35.1380   12.0860 H   0  0  0  0  0  0  0  0  0  0  0  0
   30.0720   36.1260   12.5830 C   0  0  0  0  0  0  0  0  0  0  0  0
   29.0130   35.6350   12.1560 O   0  0  0  0  0  0  0  0  0  0  0  0
   30.2260   37.4990   12.5020 O   0  0  0  0  0  0  0  0  0  0  0  0
   30.9270   37.9450   11.9090 H   0  0  0  0  0  0  0  0  0  0  0  0
   33.1380   34.1100   14.4360 O   0  0  0  0  0  0  0  0  0  0  0  0
   34.0320   34.1350   14.0430 H   0  0  0  0  0  0  0  0  0  0  0  0
   31.4200   36.1680   16.7750 N   0  0  0  0  0  0  0  0  0  0  0  0
   31.1070   36.1940   18.1560 C   0  0  0  0  0  0  0  0  0  0  0  0
   31.4890   37.1060   16.3020 H   0  0  0  0  0  0  0  0  0  0  0  0
   30.8840   37.4710   18.8980 C   0  0  0  0  0  0  0  0  0  0  0  0
   31.0150   35.1160   18.7750 O   0  0  0  0  0  0  0  0  0  0  0  0
   29.0930   33.6270   17.0280 O   0  0  0  0  0  0  0  0  0  0  0  0
   29.7440   33.8980   17.7110 H   0  0  0  0  0  0  0  0  0  0  0  0
   31.4130   31.8250   14.9900 O   0  0  0  0  0  0  0  0  0  0  0  0
   31.5820   32.5640   14.3540 H   0  0  0  0  0  0  0  0  0  0  0  0
   29.3510   30.3480   16.3210 N   0  0  0  0  0  0  0  0  0  0  0  0
   27.9970   30.3620   16.8170 C   0  0  0  0  0  0  0  0  0  0  0  0
   29.4890   29.7310   15.4950 H   0  0  0  0  0  0  0  0  0  0  0  0
   27.7510   31.0770   17.8170 O   0  0  0  0  0  0  0  0  0  0  0  0
   27.0000   29.6120   16.2120 O   0  0  0  0  0  0  0  0  0  0  0  0
   25.6630   29.9970   16.5020 C   0  0  0  0  0  0  0  0  0  0  0  0
   25.1060   30.5960   15.2540 C   0  0  0  0  0  0  0  0  0  0  0  0
   25.2180   31.9130   14.8520 C   0  0  0  0  0  0  0  0  0  0  0  0
   24.3980   29.9870   14.2840 N   0  0  0  0  0  0  0  0  0  0  0  0
   24.5870   32.0630   13.6750 N   0  0  0  0  0  0  0  0  0  0  0  0
   24.1080   30.8800   13.3690 N   0  0  0  0  0  0  0  0  0  0  0  0
   24.4300   33.2280   12.8700 C   0  0  0  0  0  0  0  0  0  0  0  0
   25.5020   34.0130   12.4880 C   0  0  0  0  0  0  0  0  0  0  0  0
   23.1820   33.6220   12.4320 C   0  0  0  0  0  0  0  0  0  0  0  0
   25.3340   35.1400   11.7050 C   0  0  0  0  0  0  0  0  0  0  0  0
   23.0080   34.7540   11.6450 C   0  0  0  0  0  0  0  0  0  0  0  0
   24.0800   35.5300   11.2700 C   0  0  0  0  0  0  0  0  0  0  0  0
   23.9050   37.0920   10.1930 Br  0  0  0  0  0  0  0  0  0  0  0  0
   29.8670   25.5550   16.9770 C   0  0  0  0  0  0  0  0  0  0  0  0
   28.3450   25.7220   17.0260 C   0  0  0  0  0  0  0  0  0  0  0  0
   27.6010   24.4050   16.8650 C   0  0  0  0  0  0  0  0  0  0  0  0
   26.5610   24.2080   17.9320 C   0  0  0  0  0  0  0  0  0  0  0  0
   25.2180   23.8890   17.2830 C   0  0  0  0  0  0  0  0  0  0  0  0
   24.8670   22.4640   17.4900 N   0  0  0  0  0  0  0  0  0  0  0  0
  2  1  1  6  0  0  0
  3  2  1  0  0  0  0
  3 23  1  1  0  0  0
  4  3  1  1  0  0  0
  4  9  1  0  0  0  0
  5 10  1  6  0  0  0
  5  7  1  0  0  0  0
  5  6  1  0  0  0  0
  6  8  1  0  0  0  0
  7  4  1  0  0  0  0
  8 16  1  6  0  0  0
  8  9  1  0  0  0  0
  9 18  1  1  0  0  0
 11 10  1  0  0  0  0
 12  5  1  0  0  0  0
 13 12  2  0  0  0  0
 14 12  1  0  0  0  0
 15 14  1  0  0  0  0
 17 16  1  0  0  0  0
 18 19  1  0  0  0  0
 19 22  2  0  0  0  0
 19 21  1  0  0  0  0
 20 18  1  0  0  0  0
 23 24  1  0  0  0  0
 25  2  1  0  0  0  0
 26 25  1  0  0  0  0
 27 28  1  0  0  0  0
 27  1  1  0  0  0  0
 28 30  2  0  0  0  0
 29 27  1  0  0  0  0
 31 32  1  0  0  0  0
 31 28  1  0  0  0  0
 33 32  1  0  0  0  0
 34 33  2  0  0  0  0
 35 33  1  0  0  0  0
 36 34  1  0  0  0  0
 37 36  1  0  0  0  0
 37 35  2  0  0  0  0
 38 36  1  0  0  0  0
 39 38  1  0  0  0  0
 40 38  2  0  0  0  0
 41 39  2  0  0  0  0
 42 40  1  0  0  0  0
 43 42  2  0  0  0  0
 43 41  1  0  0  0  0
 44 43  1  0  0  0  0
 45 46  1  0  0  0  0
 47 46  1  0  0  0  0
 47 48  1  0  0  0  0
 49 50  1  0  0  0  0
 49 48  1  0  0  0  0
M  END
>  <REMARK>
 VINA RESULT:    -5.714      5.087      7.684
 INTER + INTRA:         -15.051
 INTER:                  -9.031
 INTRA:                  -6.020
 UNBOUND:                -5.161
 SMILES CC(=O)N[C@@H]1[C@@H](O)C[C@](O)(C(=O)O)O[C@H]1C(O)[C@H](O)CNC(=O)OCc1cn(-c2ccc(Br)cc2)nn1
 SMILES IDX 20 1 18 2 16 3 15 4 9 5 8 6 14 7 6 8 5 9 10 10 11 12 12 13
 SMILES IDX 13 14 7 16 4 18 2 19 1 21 3 22 17 23 19 25 21 27 22 28 23 30
 SMILES IDX 24 31 25 32 26 33 27 34 37 35 28 36 36 37 29 38 30 39 35 40
 SMILES IDX 31 41 34 42 32 43 33 44
 H PARENT 10 11 13 15 7 17 4 20 17 24 19 26 21 29
 Flexibility Score: inf
  4 active torsions:
  status: ('A' for Active; 'I' for Inactive)
    1  A    between atoms: CA   and  CB  
    2  A    between atoms: CB   and  CG  
    3  A    between atoms: CG   and  CD  
    4  A    between atoms: CD   and  CE  

>  <TORSDO>
F 15

>  <BEGIN_>
RES LYS A 131

$$$$
ligand_15_pose_1_2HRL.pdbqt
 OpenBabel07062320523D

  6  5  0  0  0  0  0  0  0  0999 V2000
   33.1930   34.6630    9.2900 C   0  0  0  0  0  0  0  0  0  0  0  0
   32.0600   35.3600   10.0340 C   0  0  0  0  0  0  0  0  0  0  0  0
   30.8310   35.5800    9.1910 C   0  0  0  0  0  0  0  0  0  0  0  0
   30.1430   34.2570    8.8900 C   0  0  0  0  0  0  0  0  0  0  0  0
   28.6920   34.4850    8.5110 C   0  0  0  0  0  0  0  0  0  0  0  0
   27.7780   33.7230    9.4060 N   0  0  0  0  0  0  0  0  0  0  0  0
  1  2  1  0  0  0  0
  3  2  1  0  0  0  0
  4  3  1  0  0  0  0
  5  4  1  0  0  0  0
  5  6  1  0  0  0  0
M  END
>  <EGIN_R>
ES LYS A 135

>  <REMARK>
  4 active torsions:
  status: ('A' for Active; 'I' for Inactive)
    5  A    between atoms: CA   and  CB  
    6  A    between atoms: CB   and  CG  
    7  A    between atoms: CG   and  CD  
    8  A    between atoms: CD   and  CE  

$$$$
