ligand_30_pose_17_2HRL.pdbqt
 OpenBabel07062320523D

 57 57  0  0  1  0  0  0  0  0999 V2000
   29.8650   32.8430   15.0000 C   0  0  0  0  0  0  0  0  0  0  0  0
   28.8030   32.1590   15.6850 N   0  0  0  0  0  0  0  0  0  0  0  0
   27.3840   30.6840   16.4750 C   0  0  0  0  0  0  0  0  0  0  0  0
   28.4680   30.8370   15.6540 C   0  0  0  0  0  0  0  0  0  0  0  0
   27.0850   31.8990   16.9820 N   0  0  0  0  0  0  0  0  0  0  0  0
   27.9470   32.7500   16.4940 N   0  0  0  0  0  0  0  0  0  0  0  0
   26.6890   29.4050   16.7360 C   0  0  0  0  0  0  0  0  0  0  0  0
   27.5290   28.5160   17.4400 O   0  0  0  0  0  0  0  0  0  0  0  0
   27.2580   28.1780   18.7590 C   0  0  0  0  0  0  0  0  0  0  0  0
   26.4160   28.9790   19.5760 N   0  0  0  0  0  0  0  0  0  0  0  0
   25.9830   29.8470   19.1950 H   0  0  0  0  0  0  0  0  0  0  0  0
   27.7880   27.1130   19.2290 O   0  0  0  0  0  0  0  0  0  0  0  0
   26.1620   28.5930   20.9280 C   0  0  0  0  0  0  0  0  0  0  0  0
   26.7190   29.5800   21.9310 C   0  0  2  0  0  0  0  0  0  0  0  0
   28.0700   29.1300   22.3990 C   0  0  2  0  0  0  0  0  0  0  0  0
   29.1360   30.0730   21.8830 C   0  0  2  0  0  0  0  0  0  0  0  0
   29.3770   32.0020   20.6220 C   0  0  2  0  0  0  0  0  0  0  0  0
   30.7810   31.4780   20.4190 C   0  0  0  0  0  0  0  0  0  0  0  0
   28.5220   31.0380   21.1320 O   0  0  0  0  0  0  0  0  0  0  0  0
   30.6880   30.0540   19.9450 C   0  0  1  0  0  0  0  0  0  0  0  0
   30.1460   29.2440   21.1310 C   0  0  1  0  0  0  0  0  0  0  0  0
   28.8950   32.3500   19.3640 O   0  0  0  0  0  0  0  0  0  0  0  0
   28.0260   31.9260   19.1830 H   0  0  0  0  0  0  0  0  0  0  0  0
   29.4630   33.2040   21.4520 C   0  0  0  0  0  0  0  0  0  0  0  0
   30.5850   33.7200   21.6740 O   0  0  0  0  0  0  0  0  0  0  0  0
   28.3660   33.8330   22.0270 O   0  0  0  0  0  0  0  0  0  0  0  0
   27.4900   33.8860   21.4820 H   0  0  0  0  0  0  0  0  0  0  0  0
   29.8770   29.9490   18.8350 O   0  0  0  0  0  0  0  0  0  0  0  0
   30.0080   30.7600   18.2820 H   0  0  0  0  0  0  0  0  0  0  0  0
   31.2970   28.9450   21.9560 N   0  0  0  0  0  0  0  0  0  0  0  0
   31.6830   27.5920   22.1100 C   0  0  0  0  0  0  0  0  0  0  0  0
   31.8500   29.6970   22.4370 H   0  0  0  0  0  0  0  0  0  0  0  0
   32.8670   27.2410   22.9540 C   0  0  0  0  0  0  0  0  0  0  0  0
   31.0380   26.6880   21.5450 O   0  0  0  0  0  0  0  0  0  0  0  0
   28.2660   27.8200   21.9520 O   0  0  0  0  0  0  0  0  0  0  0  0
   28.4320   27.1860   22.6710 H   0  0  0  0  0  0  0  0  0  0  0  0
   25.8900   29.6960   23.0470 O   0  0  0  0  0  0  0  0  0  0  0  0
   26.4080   29.7720   23.8700 H   0  0  0  0  0  0  0  0  0  0  0  0
   31.1750   32.4990   15.6570 C   0  0  0  0  0  0  0  0  0  0  0  0
   31.8670   33.6970   16.2430 C   0  0  0  0  0  0  0  0  0  0  0  0
   31.5150   33.9160   17.6930 C   0  0  0  0  0  0  0  0  0  0  0  0
   32.2130   35.1730   18.2040 C   0  0  0  0  0  0  0  0  0  0  0  0
   33.2320   35.6110   17.1850 C   0  0  0  0  0  0  0  0  0  0  0  0
   33.6860   37.0210   17.4270 C   0  0  0  0  0  0  0  0  0  0  0  0
   35.0650   37.2290   16.8940 C   0  0  0  0  0  0  0  0  0  0  0  0
   35.8180   35.9060   16.7900 C   0  0  0  0  0  0  0  0  0  0  0  0
   37.2960   36.1090   16.5920 C   0  0  0  0  0  0  0  0  0  0  0  0
   37.6950   35.2350   15.4460 C   0  0  0  0  0  0  0  0  0  0  0  0
   38.8830   34.9980   15.1430 O   0  0  0  0  0  0  0  0  0  0  0  0
   36.7000   34.6440   14.6660 O   0  0  0  0  0  0  0  0  0  0  0  0
   35.8620   34.3130   15.1130 H   0  0  0  0  0  0  0  0  0  0  0  0
   29.8670   25.5550   16.9770 C   0  0  0  0  0  0  0  0  0  0  0  0
   28.3450   25.7220   17.0260 C   0  0  0  0  0  0  0  0  0  0  0  0
   27.6000   24.4130   16.8160 C   0  0  0  0  0  0  0  0  0  0  0  0
   26.6170   24.1370   17.9200 C   0  0  0  0  0  0  0  0  0  0  0  0
   25.3100   24.8670   17.6330 C   0  0  0  0  0  0  0  0  0  0  0  0
   24.7470   25.4350   18.8810 N   0  0  0  0  0  0  0  0  0  0  0  0
  1 39  1  0  0  0  0
  1  2  1  0  0  0  0
  2  6  1  0  0  0  0
  3  7  1  0  0  0  0
  3  5  1  0  0  0  0
  4  2  1  0  0  0  0
  4  3  2  0  0  0  0
  6  5  2  0  0  0  0
  7  8  1  0  0  0  0
  8  9  1  0  0  0  0
  9 12  2  0  0  0  0
  9 10  1  0  0  0  0
 10 13  1  0  0  0  0
 11 10  1  0  0  0  0
 14 13  1  6  0  0  0
 14 15  1  0  0  0  0
 14 37  1  0  0  0  0
 15 35  1  6  0  0  0
 16 15  1  6  0  0  0
 17 22  1  6  0  0  0
 17 19  1  0  0  0  0
 17 24  1  0  0  0  0
 18 17  1  0  0  0  0
 19 16  1  0  0  0  0
 20 28  1  6  0  0  0
 20 18  1  0  0  0  0
 20 21  1  0  0  0  0
 21 16  1  0  0  0  0
 21 30  1  1  0  0  0
 23 22  1  0  0  0  0
 24 25  2  0  0  0  0
 24 26  1  0  0  0  0
 27 26  1  0  0  0  0
 29 28  1  0  0  0  0
 30 31  1  0  0  0  0
 30 32  1  0  0  0  0
 31 33  1  0  0  0  0
 34 31  2  0  0  0  0
 35 36  1  0  0  0  0
 37 38  1  0  0  0  0
 39 40  1  0  0  0  0
 40 41  1  0  0  0  0
 41 42  1  0  0  0  0
 43 44  1  0  0  0  0
 43 42  1  0  0  0  0
 45 44  1  0  0  0  0
 46 45  1  0  0  0  0
 47 46  1  0  0  0  0
 48 47  1  0  0  0  0
 49 48  2  0  0  0  0
 50 51  1  0  0  0  0
 50 48  1  0  0  0  0
 52 53  1  0  0  0  0
 54 53  1  0  0  0  0
 54 55  1  0  0  0  0
 56 55  1  0  0  0  0
 56 57  1  0  0  0  0
M  END
>  <REMARK>
 VINA RESULT:    -3.600      2.921      4.743
 INTER + INTRA:         -16.738
 INTER:                  -9.131
 INTRA:                  -7.606
 UNBOUND:                -8.298
 SMILES CC(=O)N[C@@H]1[C@@H](O)C[C@](O)(C(=O)O)O[C@H]1C(O)[C@H](O)CNC(=O)OCc1cn(CCCCCCCCCCC(=O)O)nn1
 SMILES IDX 29 1 28 2 26 3 27 4 43 5 42 6 25 7 24 8 22 9 21 10 23 12
 SMILES IDX 20 13 18 14 16 15 15 16 9 17 8 18 14 19 6 20 5 21 10 22
 SMILES IDX 11 24 12 25 13 26 7 28 4 30 2 31 1 33 3 34 17 35 19 37 30 39
 SMILES IDX 31 40 32 41 33 42 34 43 35 44 36 45 37 46 38 47 39 48 40 49
 SMILES IDX 41 50
 H PARENT 21 11 10 23 13 27 7 29 4 32 17 36 19 38 41 51
 Flexibility Score: inf
  4 active torsions:
  status: ('A' for Active; 'I' for Inactive)
    1  A    between atoms: CA   and  CB  
    2  A    between atoms: CB   and  CG  
    3  A    between atoms: CG   and  CD  
    4  A    between atoms: CD   and  CE  

>  <TORSDO>
F 26

>  <BEGIN_>
RES LYS A 131

$$$$
ligand_30_pose_17_2HRL.pdbqt
 OpenBabel07062320523D

  6  5  0  0  0  0  0  0  0  0999 V2000
   33.1930   34.6630    9.2900 C   0  0  0  0  0  0  0  0  0  0  0  0
   32.0600   35.3600   10.0340 C   0  0  0  0  0  0  0  0  0  0  0  0
   30.7370   34.6470    9.9210 C   0  0  0  0  0  0  0  0  0  0  0  0
   30.3260   34.5060    8.4640 C   0  0  0  0  0  0  0  0  0  0  0  0
   28.8160   34.5400    8.3310 C   0  0  0  0  0  0  0  0  0  0  0  0
   28.1610   33.8280    9.4640 N   0  0  0  0  0  0  0  0  0  0  0  0
  1  2  1  0  0  0  0
  3  2  1  0  0  0  0
  4  3  1  0  0  0  0
  5  4  1  0  0  0  0
  5  6  1  0  0  0  0
M  END
>  <EGIN_R>
ES LYS A 135

>  <REMARK>
  4 active torsions:
  status: ('A' for Active; 'I' for Inactive)
    5  A    between atoms: CA   and  CB  
    6  A    between atoms: CB   and  CG  
    7  A    between atoms: CG   and  CD  
    8  A    between atoms: CD   and  CE  

$$$$
