ligand_49_pose_4_2HRL.pdbqt
 OpenBabel07062320523D

 48 49  0  0  1  0  0  0  0  0999 V2000
   20.1500   41.0740    9.0640 C   0  0  0  0  0  0  0  0  0  0  0  0
   19.5160   39.7180    8.9210 C   0  0  2  0  0  0  0  0  0  0  0  0
   19.7770   38.9840   10.2210 C   0  0  1  0  0  0  0  0  0  0  0  0
   20.6090   37.7560   10.0310 C   0  0  2  0  0  0  0  0  0  0  0  0
   20.4250   35.5450    9.3620 C   0  0  2  0  0  0  0  0  0  0  0  0
   21.9090   35.5930    9.6920 C   0  0  0  0  0  0  0  0  0  0  0  0
   19.8080   36.6410    9.9690 O   0  0  0  0  0  0  0  0  0  0  0  0
   22.0280   36.1050   11.1120 C   0  0  1  0  0  0  0  0  0  0  0  0
   21.6870   37.5890   11.0650 C   0  0  1  0  0  0  0  0  0  0  0  0
   19.9410   34.3510    9.8850 O   0  0  0  0  0  0  0  0  0  0  0  0
   20.5910   33.6310    9.6160 H   0  0  0  0  0  0  0  0  0  0  0  0
   20.1790   35.5650    7.9150 C   0  0  0  0  0  0  0  0  0  0  0  0
   19.2540   34.8930    7.3960 O   0  0  0  0  0  0  0  0  0  0  0  0
   20.9680   36.3320    7.0740 O   0  0  0  0  0  0  0  0  0  0  0  0
   21.4690   35.9290    6.2710 H   0  0  0  0  0  0  0  0  0  0  0  0
   21.0600   35.4260   11.8710 O   0  0  0  0  0  0  0  0  0  0  0  0
   21.4280   35.3300   12.7890 H   0  0  0  0  0  0  0  0  0  0  0  0
   22.8860   38.3310   10.7320 N   0  0  0  0  0  0  0  0  0  0  0  0
   23.7970   38.7270   11.7360 C   0  0  0  0  0  0  0  0  0  0  0  0
   23.0870   38.5770    9.7460 H   0  0  0  0  0  0  0  0  0  0  0  0
   25.0430   39.4860   11.4660 C   0  0  0  0  0  0  0  0  0  0  0  0
   23.5400   38.4200   12.9220 O   0  0  0  0  0  0  0  0  0  0  0  0
   20.4930   39.8650   11.0350 O   0  0  0  0  0  0  0  0  0  0  0  0
   19.9380   40.5500   11.4570 H   0  0  0  0  0  0  0  0  0  0  0  0
   20.0470   39.0070    7.8690 O   0  0  0  0  0  0  0  0  0  0  0  0
   19.3130   38.7290    7.2570 H   0  0  0  0  0  0  0  0  0  0  0  0
   21.3980   41.2540    8.3930 N   0  0  0  0  0  0  0  0  0  0  0  0
   22.6300   41.5230    8.9980 C   0  0  0  0  0  0  0  0  0  0  0  0
   21.3750   41.1720    7.3270 H   0  0  0  0  0  0  0  0  0  0  0  0
   22.7100   41.6370   10.2430 O   0  0  0  0  0  0  0  0  0  0  0  0
   23.7910   41.6690    8.2150 O   0  0  0  0  0  0  0  0  0  0  0  0
   23.8610   40.9210    7.0160 C   0  0  0  0  0  0  0  0  0  0  0  0
   24.0270   39.4940    7.3680 C   0  0  0  0  0  0  0  0  0  0  0  0
   25.2540   38.9090    7.6540 C   0  0  0  0  0  0  0  0  0  0  0  0
   23.1270   38.5250    7.4820 N   0  0  0  0  0  0  0  0  0  0  0  0
   25.0360   37.6230    7.9260 N   0  0  0  0  0  0  0  0  0  0  0  0
   23.7410   37.4020    7.8180 N   0  0  0  0  0  0  0  0  0  0  0  0
   26.0930   36.6790    8.2750 C   0  0  0  0  0  0  0  0  0  0  0  0
   26.9750   37.3410    9.2950 C   0  0  0  0  0  0  0  0  0  0  0  0
   25.4700   35.4730    8.9410 C   0  0  0  0  0  0  0  0  0  0  0  0
   26.9990   36.4440   10.4900 C   0  0  0  0  0  0  0  0  0  0  0  0
   25.6860   35.7130   10.4240 C   0  0  0  0  0  0  0  0  0  0  0  0
   29.8670   25.5550   16.9770 C   0  0  0  0  0  0  0  0  0  0  0  0
   28.3450   25.7220   17.0260 C   0  0  0  0  0  0  0  0  0  0  0  0
   27.6010   24.4030   16.8880 C   0  0  0  0  0  0  0  0  0  0  0  0
   26.1700   24.5100   17.3360 C   0  0  0  0  0  0  0  0  0  0  0  0
   25.9850   23.7380   18.6380 C   0  0  0  0  0  0  0  0  0  0  0  0
   24.6800   23.0350   18.6440 N   0  0  0  0  0  0  0  0  0  0  0  0
  2  1  1  1  0  0  0
  2  3  1  0  0  0  0
  3 23  1  1  0  0  0
  4  3  1  1  0  0  0
  4  9  1  0  0  0  0
  5 12  1  6  0  0  0
  5  6  1  0  0  0  0
  5 10  1  0  0  0  0
  5  7  1  0  0  0  0
  6  8  1  0  0  0  0
  7  4  1  0  0  0  0
  8 16  1  1  0  0  0
  9 18  1  6  0  0  0
  9  8  1  0  0  0  0
 11 10  1  0  0  0  0
 13 12  2  0  0  0  0
 14 12  1  0  0  0  0
 15 14  1  0  0  0  0
 16 17  1  0  0  0  0
 18 19  1  0  0  0  0
 19 22  2  0  0  0  0
 20 18  1  0  0  0  0
 21 19  1  0  0  0  0
 23 24  1  0  0  0  0
 25  2  1  0  0  0  0
 26 25  1  0  0  0  0
 27 28  1  0  0  0  0
 27  1  1  0  0  0  0
 28 30  2  0  0  0  0
 29 27  1  0  0  0  0
 31 28  1  0  0  0  0
 32 33  1  0  0  0  0
 32 31  1  0  0  0  0
 33 35  1  0  0  0  0
 33 34  2  0  0  0  0
 34 36  1  0  0  0  0
 35 37  2  0  0  0  0
 36 38  1  0  0  0  0
 37 36  1  0  0  0  0
 38 40  1  0  0  0  0
 38 39  1  0  0  0  0
 39 41  1  0  0  0  0
 40 42  1  0  0  0  0
 42 41  1  0  0  0  0
 43 44  1  0  0  0  0
 45 44  1  0  0  0  0
 45 46  1  0  0  0  0
 46 47  1  0  0  0  0
 47 48  1  0  0  0  0
M  END
>  <REMARK>
 VINA RESULT:    -5.269      6.989     11.112
 INTER + INTRA:         -14.145
 INTER:                  -6.252
 INTRA:                  -7.893
 UNBOUND:                -5.026
 SMILES CC(=O)N[C@@H]1[C@@H](O)C[C@](O)(C(=O)O)O[C@H]1C(O)[C@H](O)CNC(=O)OCc1cn(C2CCCC2)nn1
 SMILES IDX 20 1 18 2 16 3 15 4 9 5 8 6 14 7 6 8 5 9 10 10 11 12 12 13
 SMILES IDX 13 14 7 16 4 18 2 19 1 21 3 22 17 23 19 25 21 27 22 28 23 30
 SMILES IDX 24 31 25 32 26 33 27 34 35 35 28 36 34 37 29 38 30 39 33 40
 SMILES IDX 31 41 32 42
 H PARENT 10 11 13 15 7 17 4 20 17 24 19 26 21 29
 Flexibility Score: inf
  4 active torsions:
  status: ('A' for Active; 'I' for Inactive)
    1  A    between atoms: CA   and  CB  
    2  A    between atoms: CB   and  CG  
    3  A    between atoms: CG   and  CD  
    4  A    between atoms: CD   and  CE  

>  <TORSDO>
F 15

>  <BEGIN_>
RES LYS A 131

$$$$
ligand_49_pose_4_2HRL.pdbqt
 OpenBabel07062320523D

  6  5  0  0  0  0  0  0  0  0999 V2000
   33.1930   34.6630    9.2900 C   0  0  0  0  0  0  0  0  0  0  0  0
   32.0600   35.3600   10.0340 C   0  0  0  0  0  0  0  0  0  0  0  0
   30.7090   34.7360    9.7950 C   0  0  0  0  0  0  0  0  0  0  0  0
   30.4470   34.5780    8.3060 C   0  0  0  0  0  0  0  0  0  0  0  0
   29.7020   35.7840    7.7650 C   0  0  0  0  0  0  0  0  0  0  0  0
   28.9410   35.4360    6.5330 N   0  0  0  0  0  0  0  0  0  0  0  0
  1  2  1  0  0  0  0
  3  2  1  0  0  0  0
  4  3  1  0  0  0  0
  5  4  1  0  0  0  0
  6  5  1  0  0  0  0
M  END
>  <EGIN_R>
ES LYS A 135

>  <REMARK>
  4 active torsions:
  status: ('A' for Active; 'I' for Inactive)
    5  A    between atoms: CA   and  CB  
    6  A    between atoms: CB   and  CG  
    7  A    between atoms: CG   and  CD  
    8  A    between atoms: CD   and  CE  

$$$$
