ligand_65_pose_10_2HRL.pdbqt
 OpenBabel07062320523D

 53 54  0  0  1  0  0  0  0  0999 V2000
   33.1510   35.3640   19.5190 N   0  0  0  0  0  0  0  0  0  0  0  0
   34.2450   35.6680   20.3520 C   0  0  0  0  0  0  0  0  0  0  0  0
   34.3200   36.6940   21.0650 O   0  0  0  0  0  0  0  0  0  0  0  0
   33.1190   34.4790   18.9300 H   0  0  0  0  0  0  0  0  0  0  0  0
   32.0280   36.2740   19.4480 C   0  0  0  0  0  0  0  0  0  0  0  0
   30.7650   35.4780   19.3540 C   0  0  2  0  0  0  0  0  0  0  0  0
   31.0780   34.0400   18.9930 C   0  0  2  0  0  0  0  0  0  0  0  0
   30.1370   33.6250   17.8730 C   0  0  2  0  0  0  0  0  0  0  0  0
   29.7110   31.3090   17.8050 C   0  0  2  0  0  0  0  0  0  0  0  0
   30.6610   31.1280   16.6630 C   0  0  0  0  0  0  0  0  0  0  0  0
   29.4690   32.5370   18.2520 O   0  0  0  0  0  0  0  0  0  0  0  0
   30.5220   32.3440   15.7570 C   0  0  1  0  0  0  0  0  0  0  0  0
   30.9860   33.5050   16.6360 C   0  0  1  0  0  0  0  0  0  0  0  0
   30.2360   30.5440   18.8740 O   0  0  0  0  0  0  0  0  0  0  0  0
   29.6170   29.8250   19.1390 H   0  0  0  0  0  0  0  0  0  0  0  0
   28.4330   30.6590   17.4200 C   0  0  0  0  0  0  0  0  0  0  0  0
   27.3430   31.0410   17.9160 O   0  0  0  0  0  0  0  0  0  0  0  0
   28.3810   29.6160   16.5100 O   0  0  0  0  0  0  0  0  0  0  0  0
   27.5420   29.3950   15.9700 H   0  0  0  0  0  0  0  0  0  0  0  0
   31.3630   32.2680   14.6640 O   0  0  0  0  0  0  0  0  0  0  0  0
   31.2990   31.3370   14.3060 H   0  0  0  0  0  0  0  0  0  0  0  0
   31.0030   34.7440   15.8900 N   0  0  0  0  0  0  0  0  0  0  0  0
   32.1790   35.5320   15.8040 C   0  0  0  0  0  0  0  0  0  0  0  0
   30.1040   35.0130   15.4270 H   0  0  0  0  0  0  0  0  0  0  0  0
   32.1290   36.7890   15.0250 C   0  0  0  0  0  0  0  0  0  0  0  0
   33.2470   35.1990   16.3610 O   0  0  0  0  0  0  0  0  0  0  0  0
   30.8190   33.2300   20.1310 O   0  0  0  0  0  0  0  0  0  0  0  0
   31.7250   32.9180   20.4140 H   0  0  0  0  0  0  0  0  0  0  0  0
   29.9240   36.0660   18.3990 O   0  0  0  0  0  0  0  0  0  0  0  0
   29.4400   36.8230   18.7730 H   0  0  0  0  0  0  0  0  0  0  0  0
   35.3250   34.7700   20.3940 O   0  0  0  0  0  0  0  0  0  0  0  0
   35.5340   34.0580   21.5940 C   0  0  0  0  0  0  0  0  0  0  0  0
   34.3220   33.2200   21.8710 C   0  0  0  0  0  0  0  0  0  0  0  0
   34.2050   31.8480   21.7530 C   0  0  0  0  0  0  0  0  0  0  0  0
   33.1020   33.6290   22.2890 N   0  0  0  0  0  0  0  0  0  0  0  0
   32.9570   31.4640   22.0910 N   0  0  0  0  0  0  0  0  0  0  0  0
   32.3140   32.5650   22.4110 N   0  0  0  0  0  0  0  0  0  0  0  0
   32.4490   30.1250   22.0980 C   0  0  0  0  0  0  0  0  0  0  0  0
   32.4570   29.3590   20.9920 N   0  0  0  0  0  0  0  0  0  0  0  0
   31.9410   29.5850   23.2220 N   0  0  0  0  0  0  0  0  0  0  0  0
   31.9900   28.1000   20.9560 C   0  0  0  0  0  0  0  0  0  0  0  0
   31.4540   28.3180   23.2500 C   0  0  0  0  0  0  0  0  0  0  0  0
   31.4890   27.6050   22.1200 N   0  0  0  0  0  0  0  0  0  0  0  0
   30.8910   27.7100   24.4850 C   0  0  0  0  0  0  0  0  0  0  0  0
   31.9970   27.2940   19.7990 N   0  0  0  0  0  0  0  0  0  0  0  0
   31.6200   27.6590   18.9140 H   0  0  0  0  0  0  0  0  0  0  0  0
   32.3790   26.3390   19.8430 H   0  0  0  0  0  0  0  0  0  0  0  0
   29.8670   25.5550   16.9770 C   0  0  0  0  0  0  0  0  0  0  0  0
   28.3450   25.7220   17.0260 C   0  0  0  0  0  0  0  0  0  0  0  0
   27.5990   24.4370   16.7010 C   0  0  0  0  0  0  0  0  0  0  0  0
   26.9650   23.8260   17.9200 C   0  0  0  0  0  0  0  0  0  0  0  0
   25.6100   23.2350   17.5470 C   0  0  0  0  0  0  0  0  0  0  0  0
   24.7410   24.2720   16.9410 N   0  0  0  0  0  0  0  0  0  0  0  0
  1  2  1  0  0  0  0
  2 31  1  0  0  0  0
  2  3  2  0  0  0  0
  4  1  1  0  0  0  0
  5  1  1  0  0  0  0
  6  5  1  6  0  0  0
  7  6  1  0  0  0  0
  7 27  1  1  0  0  0
  8 11  1  0  0  0  0
  8  7  1  1  0  0  0
  9 16  1  6  0  0  0
  9 11  1  0  0  0  0
  9 14  1  0  0  0  0
 10  9  1  0  0  0  0
 12 20  1  6  0  0  0
 12 13  1  0  0  0  0
 12 10  1  0  0  0  0
 13 22  1  6  0  0  0
 13  8  1  0  0  0  0
 14 15  1  0  0  0  0
 16 17  2  0  0  0  0
 18 16  1  0  0  0  0
 19 18  1  0  0  0  0
 21 20  1  0  0  0  0
 23 22  1  0  0  0  0
 23 26  2  0  0  0  0
 24 22  1  0  0  0  0
 25 23  1  0  0  0  0
 27 28  1  0  0  0  0
 29 30  1  0  0  0  0
 29  6  1  0  0  0  0
 31 32  1  0  0  0  0
 32 33  1  0  0  0  0
 33 35  1  0  0  0  0
 34 33  2  0  0  0  0
 34 36  1  0  0  0  0
 35 37  2  0  0  0  0
 36 38  1  0  0  0  0
 36 37  1  0  0  0  0
 38 40  1  0  0  0  0
 39 38  2  0  0  0  0
 40 42  2  0  0  0  0
 41 39  2  0  0  0  0
 41 43  1  0  0  0  0
 42 44  1  0  0  0  0
 43 42  1  0  0  0  0
 45 47  1  0  0  0  0
 45 41  1  0  0  0  0
 46 45  1  0  0  0  0
 48 49  1  0  0  0  0
 50 49  1  0  0  0  0
 50 51  1  0  0  0  0
 52 51  1  0  0  0  0
 53 52  1  0  0  0  0
M  END
>  <REMARK>
 VINA RESULT:    -5.132      2.767      7.739
 INTER + INTRA:         -14.167
 INTER:                  -7.389
 INTRA:                  -6.778
 UNBOUND:                -5.134
 SMILES CC(=O)N[C@@H]1[C@@H](O)C[C@](O)(C(=O)O)O[C@H]1C(O)[C@H](O)CNC(=O)OCc1cn(-c2nc(C)nc(N)n2)nn1
 SMILES IDX 21 1 22 2 23 3 20 5 18 6 16 7 15 8 9 9 8 10 14 11 6 12 5 13
 SMILES IDX 10 14 11 16 12 17 13 18 7 20 4 22 2 23 1 25 3 26 17 27 19 29
 SMILES IDX 24 31 25 32 26 33 27 34 38 35 28 36 37 37 29 38 36 39 30 40
 SMILES IDX 34 41 31 42 33 43 32 44 35 45
 H PARENT 21 4 10 15 13 19 7 21 4 24 17 28 19 30 35 46 35 47
 Flexibility Score: inf
  4 active torsions:
  status: ('A' for Active; 'I' for Inactive)
    1  A    between atoms: CA   and  CB  
    2  A    between atoms: CB   and  CG  
    3  A    between atoms: CG   and  CD  
    4  A    between atoms: CD   and  CE  

>  <TORSDO>
F 16

>  <BEGIN_>
RES LYS A 131

$$$$
ligand_65_pose_10_2HRL.pdbqt
 OpenBabel07062320523D

  6  5  0  0  0  0  0  0  0  0999 V2000
   33.1930   34.6630    9.2900 C   0  0  0  0  0  0  0  0  0  0  0  0
   32.0600   35.3600   10.0340 C   0  0  0  0  0  0  0  0  0  0  0  0
   30.7960   35.4880    9.2240 C   0  0  0  0  0  0  0  0  0  0  0  0
   30.2100   34.1170    8.9220 C   0  0  0  0  0  0  0  0  0  0  0  0
   28.7600   34.0490    9.3620 C   0  0  0  0  0  0  0  0  0  0  0  0
   27.8560   34.5960    8.3120 N   0  0  0  0  0  0  0  0  0  0  0  0
  1  2  1  0  0  0  0
  3  2  1  0  0  0  0
  4  3  1  0  0  0  0
  4  5  1  0  0  0  0
  6  5  1  0  0  0  0
M  END
>  <EGIN_R>
ES LYS A 135

>  <REMARK>
  4 active torsions:
  status: ('A' for Active; 'I' for Inactive)
    5  A    between atoms: CA   and  CB  
    6  A    between atoms: CB   and  CG  
    7  A    between atoms: CG   and  CD  
    8  A    between atoms: CD   and  CE  

$$$$
