ligand_13_pose_18_2HRL.pdbqt
 OpenBabel07062320523D

 49 49  0  0  1  0  0  0  0  0999 V2000
   28.4220   39.9760    5.4350 N   0  0  0  0  0  0  0  0  0  0  0  0
   29.7230   40.4040    5.7810 C   0  0  0  0  0  0  0  0  0  0  0  0
   30.7370   39.7670    5.4760 O   0  0  0  0  0  0  0  0  0  0  0  0
   27.6490   40.6430    5.7670 H   0  0  0  0  0  0  0  0  0  0  0  0
   28.0810   38.7900    4.7190 C   0  0  0  0  0  0  0  0  0  0  0  0
   27.9670   37.5290    5.5050 C   0  0  2  0  0  0  0  0  0  0  0  0
   27.2420   37.6710    6.7950 C   0  0  1  0  0  0  0  0  0  0  0  0
   26.5620   36.4330    7.3120 C   0  0  2  0  0  0  0  0  0  0  0  0
   24.8000   36.9680    8.7530 C   0  0  2  0  0  0  0  0  0  0  0  0
   24.8210   35.6460    9.4900 C   0  0  0  0  0  0  0  0  0  0  0  0
   25.2200   36.7710    7.4750 O   0  0  0  0  0  0  0  0  0  0  0  0
   26.1350   34.9860    9.2860 C   0  0  1  0  0  0  0  0  0  0  0  0
   27.1610   35.8840    8.5760 C   0  0  1  0  0  0  0  0  0  0  0  0
   25.5320   37.8620    9.5120 O   0  0  0  0  0  0  0  0  0  0  0  0
   24.9230   38.5800    9.8020 H   0  0  0  0  0  0  0  0  0  0  0  0
   23.3850   37.4040    8.7170 C   0  0  0  0  0  0  0  0  0  0  0  0
   22.8110   37.4830    7.6110 O   0  0  0  0  0  0  0  0  0  0  0  0
   22.6980   37.7210    9.8610 O   0  0  0  0  0  0  0  0  0  0  0  0
   21.6800   37.6880    9.9110 H   0  0  0  0  0  0  0  0  0  0  0  0
   26.7080   34.5050   10.4600 O   0  0  0  0  0  0  0  0  0  0  0  0
   27.1620   33.6450   10.3560 H   0  0  0  0  0  0  0  0  0  0  0  0
   28.2690   34.9930    8.3000 N   0  0  0  0  0  0  0  0  0  0  0  0
   29.6290   35.3080    8.4700 C   0  0  0  0  0  0  0  0  0  0  0  0
   28.0330   34.0400    7.9470 H   0  0  0  0  0  0  0  0  0  0  0  0
   30.7480   34.3790    8.1810 C   0  0  0  0  0  0  0  0  0  0  0  0
   29.9010   36.4710    8.9010 O   0  0  0  0  0  0  0  0  0  0  0  0
   28.0180   38.2900    7.7450 O   0  0  0  0  0  0  0  0  0  0  0  0
   28.1610   39.2580    7.5920 H   0  0  0  0  0  0  0  0  0  0  0  0
   29.2720   37.1070    5.8360 O   0  0  0  0  0  0  0  0  0  0  0  0
   29.9290   37.8430    5.6570 H   0  0  0  0  0  0  0  0  0  0  0  0
   29.9180   41.6030    6.5050 O   0  0  0  0  0  0  0  0  0  0  0  0
   30.2780   41.5770    7.8730 C   0  0  0  0  0  0  0  0  0  0  0  0
   29.0250   41.3550    8.6420 C   0  0  0  0  0  0  0  0  0  0  0  0
   27.8800   42.1170    8.6370 C   0  0  0  0  0  0  0  0  0  0  0  0
   28.7610   40.3420    9.5120 N   0  0  0  0  0  0  0  0  0  0  0  0
   26.9950   41.5340    9.4930 N   0  0  0  0  0  0  0  0  0  0  0  0
   27.5630   40.4570   10.0070 N   0  0  0  0  0  0  0  0  0  0  0  0
   25.6580   41.9750    9.8150 C   0  0  0  0  0  0  0  0  0  0  0  0
   24.6690   40.9290    9.5130 C   0  0  0  0  0  0  0  0  0  0  0  0
   23.9970   40.4360   10.4450 O   0  0  0  0  0  0  0  0  0  0  0  0
   24.5170   40.5220    8.1870 O   0  0  0  0  0  0  0  0  0  0  0  0
   24.0740   41.5330    7.2760 C   0  0  0  0  0  0  0  0  0  0  0  0
   22.6020   41.3200    7.0330 C   0  0  0  0  0  0  0  0  0  0  0  0
   29.8670   25.5550   16.9770 C   0  0  0  0  0  0  0  0  0  0  0  0
   28.3450   25.7220   17.0260 C   0  0  0  0  0  0  0  0  0  0  0  0
   27.6060   24.3940   17.0810 C   0  0  0  0  0  0  0  0  0  0  0  0
   26.4510   24.4270   18.0430 C   0  0  0  0  0  0  0  0  0  0  0  0
   25.2250   23.8010   17.3870 C   0  0  0  0  0  0  0  0  0  0  0  0
   25.2900   22.3230   17.4710 N   0  0  0  0  0  0  0  0  0  0  0  0
  1  4  1  0  0  0  0
  1  2  1  0  0  0  0
  2 31  1  0  0  0  0
  3  2  2  0  0  0  0
  5  1  1  0  0  0  0
  6  5  1  1  0  0  0
  6 29  1  0  0  0  0
  6  7  1  0  0  0  0
  7 27  1  1  0  0  0
  8  7  1  1  0  0  0
  8 11  1  0  0  0  0
  8 13  1  0  0  0  0
  9 16  1  6  0  0  0
  9 10  1  0  0  0  0
  9 14  1  0  0  0  0
 11  9  1  0  0  0  0
 12 10  1  0  0  0  0
 12 20  1  1  0  0  0
 13 22  1  6  0  0  0
 13 12  1  0  0  0  0
 14 15  1  0  0  0  0
 16 18  1  0  0  0  0
 17 16  2  0  0  0  0
 18 19  1  0  0  0  0
 21 20  1  0  0  0  0
 22 23  1  0  0  0  0
 23 26  2  0  0  0  0
 24 22  1  0  0  0  0
 25 23  1  0  0  0  0
 28 27  1  0  0  0  0
 30 29  1  0  0  0  0
 31 32  1  0  0  0  0
 32 33  1  0  0  0  0
 33 35  1  0  0  0  0
 34 33  2  0  0  0  0
 34 36  1  0  0  0  0
 35 37  2  0  0  0  0
 36 38  1  0  0  0  0
 36 37  1  0  0  0  0
 39 38  1  0  0  0  0
 39 40  2  0  0  0  0
 41 39  1  0  0  0  0
 42 41  1  0  0  0  0
 43 42  1  0  0  0  0
 44 45  1  0  0  0  0
 45 46  1  0  0  0  0
 46 47  1  0  0  0  0
 48 49  1  0  0  0  0
 48 47  1  0  0  0  0
M  END
>  <REMARK>
 VINA RESULT:    -4.031      7.472     13.999
 INTER + INTRA:         -13.633
 INTER:                  -7.353
 INTRA:                  -6.279
 UNBOUND:                -5.949
 SMILES CCOC(=O)Cn1cc(COC(=O)NC[C@@H](O)C(O)[C@@H]2O[C@@](O)(C(=O)O)C[C@H](O)[C@H]2NC(C)=O)nn1
 SMILES IDX 14 1 12 2 13 3 15 5 16 6 18 7 20 8 22 9 27 10 21 11 28 12
 SMILES IDX 30 13 23 14 24 16 25 17 26 18 29 20 31 22 32 23 33 25 34 26
 SMILES IDX 19 27 17 29 11 31 10 32 9 33 8 34 35 35 7 36 36 37 6 38 4 39
 SMILES IDX 5 40 3 41 2 42 1 43
 H PARENT 14 4 23 15 26 19 29 21 31 24 19 28 17 30
 Flexibility Score: inf
  4 active torsions:
  status: ('A' for Active; 'I' for Inactive)
    1  A    between atoms: CA   and  CB  
    2  A    between atoms: CB   and  CG  
    3  A    between atoms: CG   and  CD  
    4  A    between atoms: CD   and  CE  

>  <TORSDO>
F 18

>  <BEGIN_>
RES LYS A 131

$$$$
ligand_13_pose_18_2HRL.pdbqt
 OpenBabel07062320523D

  6  5  0  0  0  0  0  0  0  0999 V2000
   33.1930   34.6630    9.2900 C   0  0  0  0  0  0  0  0  0  0  0  0
   32.0600   35.3600   10.0340 C   0  0  0  0  0  0  0  0  0  0  0  0
   32.4960   36.0140   11.3200 C   0  0  0  0  0  0  0  0  0  0  0  0
   32.1220   37.4880   11.3260 C   0  0  0  0  0  0  0  0  0  0  0  0
   31.2390   37.8090   12.5160 C   0  0  0  0  0  0  0  0  0  0  0  0
   29.8480   37.3220   12.3000 N   0  0  0  0  0  0  0  0  0  0  0  0
  1  2  1  0  0  0  0
  2  3  1  0  0  0  0
  3  4  1  0  0  0  0
  4  5  1  0  0  0  0
  6  5  1  0  0  0  0
M  END
>  <EGIN_R>
ES LYS A 135

>  <REMARK>
  4 active torsions:
  status: ('A' for Active; 'I' for Inactive)
    5  A    between atoms: CA   and  CB  
    6  A    between atoms: CB   and  CG  
    7  A    between atoms: CG   and  CD  
    8  A    between atoms: CD   and  CE  

$$$$
