ligand_83_pose_15_2HRL.pdbqt
 OpenBabel07062320523D

 56 57  0  0  1  0  0  0  0  0999 V2000
   27.6380   35.1490   12.3610 O   0  0  0  0  0  0  0  0  0  0  0  0
   27.8200   34.5970   11.0820 C   0  0  0  0  0  0  0  0  0  0  0  0
   29.0600   34.5660   10.4360 N   0  0  0  0  0  0  0  0  0  0  0  0
   29.8900   34.9870   10.9530 H   0  0  0  0  0  0  0  0  0  0  0  0
   26.8090   34.1280   10.5410 O   0  0  0  0  0  0  0  0  0  0  0  0
   29.2900   34.0060    9.1250 C   0  0  0  0  0  0  0  0  0  0  0  0
   29.8170   35.0970    8.2320 C   0  0  2  0  0  0  0  0  0  0  0  0
   28.7160   35.4940    7.2770 C   0  0  2  0  0  0  0  0  0  0  0  0
   28.4600   36.9950    7.3320 C   0  0  2  0  0  0  0  0  0  0  0  0
   29.6530   38.9580    7.7160 C   0  0  2  0  0  0  0  0  0  0  0  0
   28.3820   39.4410    8.3890 C   0  0  0  0  0  0  0  0  0  0  0  0
   29.6510   37.5860    7.6540 O   0  0  0  0  0  0  0  0  0  0  0  0
   27.8380   38.3450    9.2790 C   0  0  1  0  0  0  0  0  0  0  0  0
   27.3580   37.2380    8.3480 C   0  0  1  0  0  0  0  0  0  0  0  0
   30.7790   39.3290    8.4770 O   0  0  0  0  0  0  0  0  0  0  0  0
   31.5420   38.8190    8.1200 H   0  0  0  0  0  0  0  0  0  0  0  0
   29.8110   39.5060    6.3630 C   0  0  0  0  0  0  0  0  0  0  0  0
   28.8740   40.1040    5.8090 O   0  0  0  0  0  0  0  0  0  0  0  0
   31.0090   39.3610    5.6880 O   0  0  0  0  0  0  0  0  0  0  0  0
   31.1160   39.7030    4.7500 H   0  0  0  0  0  0  0  0  0  0  0  0
   28.8000   37.7780   10.0990 O   0  0  0  0  0  0  0  0  0  0  0  0
   28.4290   37.5910   10.9840 H   0  0  0  0  0  0  0  0  0  0  0  0
   26.1330   37.6520    7.7260 N   0  0  0  0  0  0  0  0  0  0  0  0
   24.8890   37.2020    8.2120 C   0  0  0  0  0  0  0  0  0  0  0  0
   26.0960   38.2970    6.8920 H   0  0  0  0  0  0  0  0  0  0  0  0
   23.6160   37.6360    7.5600 C   0  0  0  0  0  0  0  0  0  0  0  0
   24.8240   36.4280    9.2030 O   0  0  0  0  0  0  0  0  0  0  0  0
   27.5480   34.8780    7.6790 O   0  0  0  0  0  0  0  0  0  0  0  0
   26.7420   35.2780    7.2760 H   0  0  0  0  0  0  0  0  0  0  0  0
   30.9760   34.7170    7.5620 O   0  0  0  0  0  0  0  0  0  0  0  0
   31.1500   33.7740    7.8100 H   0  0  0  0  0  0  0  0  0  0  0  0
   28.7220   35.8550   12.9850 C   0  0  0  0  0  0  0  0  0  0  0  0
   29.2650   35.1130   14.1190 C   0  0  0  0  0  0  0  0  0  0  0  0
   29.6900   33.8080   14.1010 C   0  0  0  0  0  0  0  0  0  0  0  0
   29.4330   35.5910   15.3610 N   0  0  0  0  0  0  0  0  0  0  0  0
   30.1070   33.5300   15.3440 N   0  0  0  0  0  0  0  0  0  0  0  0
   29.9460   34.6050   16.0780 N   0  0  0  0  0  0  0  0  0  0  0  0
   30.6470   32.2240   15.7610 C   0  0  0  0  0  0  0  0  0  0  0  0
   29.6390   31.5040   16.6290 C   0  0  2  0  0  0  0  0  0  0  0  0
   30.4070   30.7500   17.5440 O   0  0  0  0  0  0  0  0  0  0  0  0
   30.0140   30.7340   18.4360 H   0  0  0  0  0  0  0  0  0  0  0  0
   28.7940   30.6160   15.7730 C   0  0  0  0  0  0  0  0  0  0  0  0
   27.3890   30.8590   16.1120 N   0  0  0  0  0  0  0  0  0  0  0  0
   26.5990   31.8320   15.6020 C   0  0  0  0  0  0  0  0  0  0  0  0
   26.6930   30.1340   16.9710 C   0  0  0  0  0  0  0  0  0  0  0  0
   25.3730   31.7000   16.1690 C   0  0  0  0  0  0  0  0  0  0  0  0
   25.4380   30.6620   17.0020 N   0  0  0  0  0  0  0  0  0  0  0  0
   27.1290   29.0040   17.7450 N   0  0  0  0  0  0  0  0  0  0  0  0
   26.9940   27.8290   17.3670 O   0  0  0  0  0  0  0  0  0  0  0  0
   27.7290   29.2250   18.9680 O   0  0  0  0  0  0  0  0  0  0  0  0
   29.8670   25.5550   16.9770 C   0  0  0  0  0  0  0  0  0  0  0  0
   28.3450   25.7220   17.0260 C   0  0  0  0  0  0  0  0  0  0  0  0
   27.6020   24.3980   16.9390 C   0  0  0  0  0  0  0  0  0  0  0  0
   26.1530   24.5350   17.3160 C   0  0  0  0  0  0  0  0  0  0  0  0
   25.9820   24.2270   18.8000 C   0  0  0  0  0  0  0  0  0  0  0  0
   25.7560   25.4750   19.5660 N   0  0  0  0  0  0  0  0  0  0  0  0
  1 32  1  0  0  0  0
  2  1  1  0  0  0  0
  3  4  1  0  0  0  0
  3  2  1  0  0  0  0
  5  2  2  0  0  0  0
  6  3  1  0  0  0  0
  7  6  1  6  0  0  0
  8 28  1  1  0  0  0
  8  7  1  0  0  0  0
  9  8  1  1  0  0  0
  9 12  1  0  0  0  0
  9 14  1  0  0  0  0
 10 17  1  6  0  0  0
 10 11  1  0  0  0  0
 10 15  1  0  0  0  0
 11 13  1  0  0  0  0
 12 10  1  0  0  0  0
 13 21  1  1  0  0  0
 14 23  1  6  0  0  0
 14 13  1  0  0  0  0
 16 15  1  0  0  0  0
 18 17  2  0  0  0  0
 19 17  1  0  0  0  0
 20 19  1  0  0  0  0
 21 22  1  0  0  0  0
 23 24  1  0  0  0  0
 24 27  2  0  0  0  0
 25 23  1  0  0  0  0
 26 24  1  0  0  0  0
 29 28  1  0  0  0  0
 30 31  1  0  0  0  0
 30  7  1  0  0  0  0
 32 33  1  0  0  0  0
 33 35  1  0  0  0  0
 34 33  2  0  0  0  0
 34 36  1  0  0  0  0
 35 37  2  0  0  0  0
 36 38  1  0  0  0  0
 36 37  1  0  0  0  0
 39 38  1  6  0  0  0
 39 40  1  0  0  0  0
 40 41  1  0  0  0  0
 42 43  1  0  0  0  0
 42 39  1  0  0  0  0
 43 45  1  0  0  0  0
 44 43  1  0  0  0  0
 44 46  2  0  0  0  0
 45 47  2  0  0  0  0
 45 48  1  0  0  0  0
 46 47  1  0  0  0  0
 48 50  2  0  0  0  0
 49 48  2  0  0  0  0
 51 52  1  0  0  0  0
 53 52  1  0  0  0  0
 53 54  1  0  0  0  0
 54 55  1  0  0  0  0
 55 56  1  0  0  0  0
M  END
>  <REMARK>
 VINA RESULT:    -3.591      4.760     11.772
 INTER + INTRA:         -15.606
 INTER:                 -10.641
 INTRA:                  -4.965
 UNBOUND:                -8.446
 SMILES CC(=O)N[C@@H]1[C@@H](O)C[C@](O)(C(=O)O)O[C@H]1C(O)[C@H](O)CNC(=O)OCc1cn(CC(O)Cn2ccnc2[N+](=O)[O-])nn1
 SMILES IDX 24 1 22 2 21 3 23 5 20 6 18 7 16 8 15 9 9 10 8 11 14 12 6 13
 SMILES IDX 5 14 10 15 11 17 12 18 13 19 7 21 4 23 2 24 1 26 3 27 17 28
 SMILES IDX 19 30 25 32 26 33 27 34 42 35 28 36 41 37 29 38 30 39 31 40
 SMILES IDX 32 42 33 43 34 44 37 45 35 46 36 47 38 48 39 49 40 50
 H PARENT 21 4 10 16 13 20 7 22 4 25 17 29 19 31 31 41
 Flexibility Score: inf
  4 active torsions:
  status: ('A' for Active; 'I' for Inactive)
    1  A    between atoms: CA   and  CB  
    2  A    between atoms: CB   and  CG  
    3  A    between atoms: CG   and  CD  
    4  A    between atoms: CD   and  CE  

>  <TORSDO>
F 20

>  <BEGIN_>
RES LYS A 131

$$$$
ligand_83_pose_15_2HRL.pdbqt
 OpenBabel07062320523D

  6  5  0  0  0  0  0  0  0  0999 V2000
   33.1930   34.6630    9.2900 C   0  0  0  0  0  0  0  0  0  0  0  0
   32.0600   35.3600   10.0340 C   0  0  0  0  0  0  0  0  0  0  0  0
   32.4970   36.0200   11.3160 C   0  0  0  0  0  0  0  0  0  0  0  0
   32.2450   37.5190   11.2610 C   0  0  0  0  0  0  0  0  0  0  0  0
   31.5020   37.9800   12.5000 C   0  0  0  0  0  0  0  0  0  0  0  0
   31.0750   39.4010   12.3720 N   0  0  0  0  0  0  0  0  0  0  0  0
  1  2  1  0  0  0  0
  2  3  1  0  0  0  0
  4  3  1  0  0  0  0
  4  5  1  0  0  0  0
  6  5  1  0  0  0  0
M  END
>  <EGIN_R>
ES LYS A 135

>  <REMARK>
  4 active torsions:
  status: ('A' for Active; 'I' for Inactive)
    5  A    between atoms: CA   and  CB  
    6  A    between atoms: CB   and  CG  
    7  A    between atoms: CG   and  CD  
    8  A    between atoms: CD   and  CE  

$$$$
