ligand_1_pose_8_2HRL.pdbqt
 OpenBabel07062320523D

 47 47  0  0  1  0  0  0  0  0999 V2000
   33.0040   28.6470   22.2420 N   0  0  0  0  0  0  0  0  0  0  0  0
   32.8390   28.8990   23.6090 C   0  0  0  0  0  0  0  0  0  0  0  0
   32.3940   29.9790   23.9870 O   0  0  0  0  0  0  0  0  0  0  0  0
   33.4030   27.6750   22.0140 H   0  0  0  0  0  0  0  0  0  0  0  0
   32.7280   29.4720   21.1300 C   0  0  0  0  0  0  0  0  0  0  0  0
   31.5120   29.1600   20.3160 C   0  0  2  0  0  0  0  0  0  0  0  0
   30.3360   30.0090   20.6950 C   0  0  1  0  0  0  0  0  0  0  0  0
   29.0920   29.8930   19.9230 C   0  0  2  0  0  0  0  0  0  0  0  0
   27.4070   28.5030   19.1870 C   0  0  2  0  0  0  0  0  0  0  0  0
   26.6760   29.8200   19.0370 C   0  0  0  0  0  0  0  0  0  0  0  0
   28.6030   28.6110   19.8960 O   0  0  0  0  0  0  0  0  0  0  0  0
   27.5480   30.8270   18.2990 C   0  0  1  0  0  0  0  0  0  0  0  0
   29.0300   30.4930   18.5610 C   0  0  1  0  0  0  0  0  0  0  0  0
   27.7320   27.9790   17.9390 O   0  0  0  0  0  0  0  0  0  0  0  0
   28.0180   27.0380   17.9830 H   0  0  0  0  0  0  0  0  0  0  0  0
   26.5820   27.5150   19.9200 C   0  0  0  0  0  0  0  0  0  0  0  0
   25.3500   27.3690   19.7160 O   0  0  0  0  0  0  0  0  0  0  0  0
   27.1820   26.7120   20.8720 O   0  0  0  0  0  0  0  0  0  0  0  0
   27.4670   25.7530   20.6240 H   0  0  0  0  0  0  0  0  0  0  0  0
   27.2650   30.7660   16.9420 O   0  0  0  0  0  0  0  0  0  0  0  0
   27.7190   31.5400   16.5170 H   0  0  0  0  0  0  0  0  0  0  0  0
   29.8070   31.7060   18.4030 N   0  0  0  0  0  0  0  0  0  0  0  0
   30.4670   31.9360   17.1680 C   0  0  0  0  0  0  0  0  0  0  0  0
   29.8950   32.4140   19.1730 H   0  0  0  0  0  0  0  0  0  0  0  0
   31.2880   33.1510   16.9160 C   0  0  0  0  0  0  0  0  0  0  0  0
   30.3630   31.0920   16.2490 O   0  0  0  0  0  0  0  0  0  0  0  0
   30.0930   29.6380   22.0700 O   0  0  0  0  0  0  0  0  0  0  0  0
   30.4440   28.7420   22.2090 H   0  0  0  0  0  0  0  0  0  0  0  0
   31.2430   27.8320   20.2920 O   0  0  0  0  0  0  0  0  0  0  0  0
   32.0050   27.2330   20.4140 H   0  0  0  0  0  0  0  0  0  0  0  0
   33.1700   27.9480   24.5710 O   0  0  0  0  0  0  0  0  0  0  0  0
   32.5480   26.6820   24.6110 C   0  0  0  0  0  0  0  0  0  0  0  0
   31.1460   26.8050   24.1470 C   0  0  0  0  0  0  0  0  0  0  0  0
   30.0350   27.0730   24.9080 C   0  0  0  0  0  0  0  0  0  0  0  0
   30.7260   26.6730   22.8960 N   0  0  0  0  0  0  0  0  0  0  0  0
   28.9950   27.0880   24.0540 N   0  0  0  0  0  0  0  0  0  0  0  0
   29.4100   26.8430   22.8220 N   0  0  0  0  0  0  0  0  0  0  0  0
   27.6230   27.3360   24.4470 C   0  0  0  0  0  0  0  0  0  0  0  0
   27.2970   28.8020   24.1750 C   0  0  0  0  0  0  0  0  0  0  0  0
   27.3930   29.0320   22.7880 O   0  0  0  0  0  0  0  0  0  0  0  0
   28.3610   29.0940   22.5210 H   0  0  0  0  0  0  0  0  0  0  0  0
   29.8670   25.5550   16.9770 C   0  0  0  0  0  0  0  0  0  0  0  0
   28.3450   25.7220   17.0260 C   0  0  0  0  0  0  0  0  0  0  0  0
   27.6030   24.3950   16.9720 C   0  0  0  0  0  0  0  0  0  0  0  0
   26.2180   24.4970   17.5470 C   0  0  0  0  0  0  0  0  0  0  0  0
   26.0100   23.3880   18.5740 C   0  0  0  0  0  0  0  0  0  0  0  0
   25.3670   23.9250   19.7960 N   0  0  0  0  0  0  0  0  0  0  0  0
  1  2  1  0  0  0  0
  2  3  2  0  0  0  0
  2 31  1  0  0  0  0
  4  1  1  0  0  0  0
  5  1  1  0  0  0  0
  6  7  1  0  0  0  0
  6  5  1  1  0  0  0
  7 27  1  1  0  0  0
  8  7  1  6  0  0  0
  9 14  1  6  0  0  0
  9 11  1  0  0  0  0
  9 16  1  0  0  0  0
 10  9  1  0  0  0  0
 11  8  1  0  0  0  0
 12 20  1  6  0  0  0
 12 13  1  0  0  0  0
 12 10  1  0  0  0  0
 13 22  1  1  0  0  0
 13  8  1  0  0  0  0
 14 15  1  0  0  0  0
 16 18  1  0  0  0  0
 17 16  2  0  0  0  0
 19 18  1  0  0  0  0
 21 20  1  0  0  0  0
 22 24  1  0  0  0  0
 23 22  1  0  0  0  0
 25 23  1  0  0  0  0
 26 23  2  0  0  0  0
 27 28  1  0  0  0  0
 29  6  1  0  0  0  0
 29 30  1  0  0  0  0
 31 32  1  0  0  0  0
 33 32  1  0  0  0  0
 33 34  2  0  0  0  0
 35 33  1  0  0  0  0
 36 38  1  0  0  0  0
 36 34  1  0  0  0  0
 37 35  2  0  0  0  0
 37 36  1  0  0  0  0
 39 38  1  0  0  0  0
 40 39  1  0  0  0  0
 41 40  1  0  0  0  0
 42 43  1  0  0  0  0
 44 43  1  0  0  0  0
 44 45  1  0  0  0  0
 45 46  1  0  0  0  0
 46 47  1  0  0  0  0
M  END
>  <REMARK>
 VINA RESULT:    -3.210      8.978     16.254
 INTER + INTRA:         -13.409
 INTER:                  -6.524
 INTRA:                  -6.885
 UNBOUND:                -7.572
 SMILES CC(=O)N[C@@H]1[C@@H](O)C[C@](O)(C(=O)O)O[C@H]1C(O)[C@H](O)CNC(=O)OCc1cn(CCO)nn1
 SMILES IDX 21 1 22 2 23 3 20 5 18 6 16 7 15 8 9 9 8 10 14 11 6 12 5 13
 SMILES IDX 10 14 11 16 12 17 13 18 7 20 4 22 2 23 1 25 3 26 17 27 19 29
 SMILES IDX 24 31 25 32 26 33 27 34 33 35 28 36 32 37 29 38 30 39 31 40
 H PARENT 21 4 10 15 13 19 7 21 4 24 17 28 19 30 31 41
 Flexibility Score: inf
  4 active torsions:
  status: ('A' for Active; 'I' for Inactive)
    1  A    between atoms: CA   and  CB  
    2  A    between atoms: CB   and  CG  
    3  A    between atoms: CG   and  CD  
    4  A    between atoms: CD   and  CE  

>  <TORSDO>
F 17

>  <BEGIN_>
RES LYS A 131

$$$$
ligand_1_pose_8_2HRL.pdbqt
 OpenBabel07062320523D

  6  5  0  0  0  0  0  0  0  0999 V2000
   33.1930   34.6630    9.2900 C   0  0  0  0  0  0  0  0  0  0  0  0
   32.0600   35.3600   10.0340 C   0  0  0  0  0  0  0  0  0  0  0  0
   30.7700   34.5800   10.0350 C   0  0  0  0  0  0  0  0  0  0  0  0
   29.6930   35.3250    9.2620 C   0  0  0  0  0  0  0  0  0  0  0  0
   29.6860   34.8940    7.8080 C   0  0  0  0  0  0  0  0  0  0  0  0
   28.4330   35.3210    7.1270 N   0  0  0  0  0  0  0  0  0  0  0  0
  1  2  1  0  0  0  0
  2  3  1  0  0  0  0
  4  3  1  0  0  0  0
  5  4  1  0  0  0  0
  6  5  1  0  0  0  0
M  END
>  <EGIN_R>
ES LYS A 135

>  <REMARK>
  4 active torsions:
  status: ('A' for Active; 'I' for Inactive)
    5  A    between atoms: CA   and  CB  
    6  A    between atoms: CB   and  CG  
    7  A    between atoms: CG   and  CD  
    8  A    between atoms: CD   and  CE  

$$$$
