ligand_4_pose_3_2HRL.pdbqt
 OpenBabel07062320523D

 52 53  0  0  1  0  0  0  0  0999 V2000
   23.6340   34.9730   12.1260 N   0  0  0  0  0  0  0  0  0  0  0  0
   24.9020   34.4110   12.3700 C   0  0  0  0  0  0  0  0  0  0  0  0
   25.0330   33.3810   13.0630 O   0  0  0  0  0  0  0  0  0  0  0  0
   23.5840   35.8370   11.5220 H   0  0  0  0  0  0  0  0  0  0  0  0
   22.4380   34.4160   12.6560 C   0  0  0  0  0  0  0  0  0  0  0  0
   21.3740   34.0880   11.6110 C   0  0  2  0  0  0  0  0  0  0  0  0
   21.4660   35.2670   10.6380 C   0  0  2  0  0  0  0  0  0  0  0  0
   20.1370   35.6770   10.0900 C   0  0  2  0  0  0  0  0  0  0  0  0
   19.0510   34.9710    8.1670 C   0  0  2  0  0  0  0  0  0  0  0  0
   18.4440   36.3140    7.9590 C   0  0  0  0  0  0  0  0  0  0  0  0
   19.5570   34.6700    9.3960 O   0  0  0  0  0  0  0  0  0  0  0  0
   19.1240   37.4570    8.6810 C   0  0  1  0  0  0  0  0  0  0  0  0
   20.4040   36.9070    9.2350 C   0  0  1  0  0  0  0  0  0  0  0  0
   19.9940   34.7120    7.1380 O   0  0  0  0  0  0  0  0  0  0  0  0
   20.0810   35.4430    6.5000 H   0  0  0  0  0  0  0  0  0  0  0  0
   17.9440   33.9710    7.9410 C   0  0  0  0  0  0  0  0  0  0  0  0
   17.3200   33.5450    8.9360 O   0  0  0  0  0  0  0  0  0  0  0  0
   17.5840   33.5140    6.6800 O   0  0  0  0  0  0  0  0  0  0  0  0
   18.2330   33.3910    5.9060 H   0  0  0  0  0  0  0  0  0  0  0  0
   19.4320   38.4640    7.7150 O   0  0  0  0  0  0  0  0  0  0  0  0
   18.6150   38.7750    7.2590 H   0  0  0  0  0  0  0  0  0  0  0  0
   21.2950   37.7860    9.8860 N   0  0  0  0  0  0  0  0  0  0  0  0
   22.3540   38.4880    9.2620 C   0  0  0  0  0  0  0  0  0  0  0  0
   21.1820   37.9520   10.9440 H   0  0  0  0  0  0  0  0  0  0  0  0
   23.2700   39.3980    9.9590 C   0  0  0  0  0  0  0  0  0  0  0  0
   22.4870   38.2700    7.9830 O   0  0  0  0  0  0  0  0  0  0  0  0
   22.3650   34.8470    9.6530 O   0  0  0  0  0  0  0  0  0  0  0  0
   21.8460   34.3210    8.9900 H   0  0  0  0  0  0  0  0  0  0  0  0
   20.1150   33.9910   12.1070 O   0  0  0  0  0  0  0  0  0  0  0  0
   19.8660   33.1100   12.3760 H   0  0  0  0  0  0  0  0  0  0  0  0
   26.0550   34.9930   11.8410 O   0  0  0  0  0  0  0  0  0  0  0  0
   26.0640   36.4040   11.6780 C   0  0  0  0  0  0  0  0  0  0  0  0
   25.8840   36.6360   10.2230 C   0  0  0  0  0  0  0  0  0  0  0  0
   26.6980   37.4880    9.4660 C   0  0  0  0  0  0  0  0  0  0  0  0
   25.0430   36.0360    9.3680 N   0  0  0  0  0  0  0  0  0  0  0  0
   26.2900   37.3330    8.1920 N   0  0  0  0  0  0  0  0  0  0  0  0
   25.3400   36.4890    8.1790 N   0  0  0  0  0  0  0  0  0  0  0  0
   26.9430   37.9190    7.0820 C   0  0  0  0  0  0  0  0  0  0  0  0
   26.5540   39.1150    6.6150 C   0  0  0  0  0  0  0  0  0  0  0  0
   27.8830   37.1560    6.3740 C   0  0  0  0  0  0  0  0  0  0  0  0
   27.0950   39.5870    5.4200 C   0  0  0  0  0  0  0  0  0  0  0  0
   28.4170   37.5950    5.2200 C   0  0  0  0  0  0  0  0  0  0  0  0
   28.0340   38.8280    4.7090 C   0  0  0  0  0  0  0  0  0  0  0  0
   25.6900   39.9830    7.3920 C   0  0  0  0  0  0  0  0  0  0  0  0
   24.7290   40.7820    6.5250 C   0  0  0  0  0  0  0  0  0  0  0  0
   26.6360   41.1670    7.8840 C   0  0  0  0  0  0  0  0  0  0  0  0
   29.8670   25.5550   16.9770 C   0  0  0  0  0  0  0  0  0  0  0  0
   28.3450   25.7220   17.0260 C   0  0  0  0  0  0  0  0  0  0  0  0
   27.5990   24.4190   16.7790 C   0  0  0  0  0  0  0  0  0  0  0  0
   26.7600   24.0150   17.9590 C   0  0  0  0  0  0  0  0  0  0  0  0
   25.3200   23.7910   17.5070 C   0  0  0  0  0  0  0  0  0  0  0  0
   24.6470   25.0870   17.2580 N   0  0  0  0  0  0  0  0  0  0  0  0
  1  2  1  0  0  0  0
  1  5  1  0  0  0  0
  2  3  2  0  0  0  0
  4  1  1  0  0  0  0
  6 29  1  0  0  0  0
  6  5  1  1  0  0  0
  7 27  1  6  0  0  0
  7  6  1  0  0  0  0
  8  7  1  6  0  0  0
  9 14  1  6  0  0  0
  9 11  1  0  0  0  0
 10  9  1  0  0  0  0
 10 12  1  0  0  0  0
 11  8  1  0  0  0  0
 12 20  1  6  0  0  0
 12 13  1  0  0  0  0
 13 22  1  1  0  0  0
 13  8  1  0  0  0  0
 15 14  1  0  0  0  0
 16  9  1  0  0  0  0
 16 17  2  0  0  0  0
 18 16  1  0  0  0  0
 19 18  1  0  0  0  0
 21 20  1  0  0  0  0
 22 24  1  0  0  0  0
 23 22  1  0  0  0  0
 23 25  1  0  0  0  0
 26 23  2  0  0  0  0
 28 27  1  0  0  0  0
 29 30  1  0  0  0  0
 31  2  1  0  0  0  0
 32 31  1  0  0  0  0
 33 32  1  0  0  0  0
 34 33  2  0  0  0  0
 35 33  1  0  0  0  0
 36 34  1  0  0  0  0
 37 36  1  0  0  0  0
 37 35  2  0  0  0  0
 38 36  1  0  0  0  0
 39 38  1  0  0  0  0
 39 44  1  0  0  0  0
 40 38  2  0  0  0  0
 41 39  2  0  0  0  0
 42 40  1  0  0  0  0
 43 42  2  0  0  0  0
 43 41  1  0  0  0  0
 44 46  1  0  0  0  0
 45 44  1  0  0  0  0
 47 48  1  0  0  0  0
 49 48  1  0  0  0  0
 49 50  1  0  0  0  0
 51 50  1  0  0  0  0
 52 51  1  0  0  0  0
M  END
>  <REMARK>
 VINA RESULT:    -4.474      3.158      7.805
 INTER + INTRA:         -15.242
 INTER:                  -8.564
 INTRA:                  -6.678
 UNBOUND:                -7.237
 SMILES CC(=O)N[C@@H]1[C@@H](O)C[C@](O)(C(=O)O)O[C@H]1C(O)[C@H](O)CNC(=O)OCc1cn(-c2ccccc2C(C)C)nn1
 SMILES IDX 21 1 22 2 23 3 20 5 18 6 16 7 15 8 9 9 8 10 14 11 6 12 5 13
 SMILES IDX 10 14 11 16 12 17 13 18 7 20 4 22 2 23 1 25 3 26 17 27 19 29
 SMILES IDX 24 31 25 32 26 33 27 34 39 35 28 36 38 37 29 38 34 39 30 40
 SMILES IDX 33 41 31 42 32 43 35 44 36 45 37 46
 H PARENT 21 4 10 15 13 19 7 21 4 24 17 28 19 30
 Flexibility Score: inf
  4 active torsions:
  status: ('A' for Active; 'I' for Inactive)
    1  A    between atoms: CA   and  CB  
    2  A    between atoms: CB   and  CG  
    3  A    between atoms: CG   and  CD  
    4  A    between atoms: CD   and  CE  

>  <TORSDO>
F 16

>  <BEGIN_>
RES LYS A 131

$$$$
ligand_4_pose_3_2HRL.pdbqt
 OpenBabel07062320523D

  6  5  0  0  0  0  0  0  0  0999 V2000
   33.1930   34.6630    9.2900 C   0  0  0  0  0  0  0  0  0  0  0  0
   32.0600   35.3600   10.0340 C   0  0  0  0  0  0  0  0  0  0  0  0
   30.7900   34.5510   10.0920 C   0  0  0  0  0  0  0  0  0  0  0  0
   30.3100   34.2040    8.6910 C   0  0  0  0  0  0  0  0  0  0  0  0
   28.8300   34.5020    8.5460 C   0  0  0  0  0  0  0  0  0  0  0  0
   28.0240   33.6930    9.5020 N   0  0  0  0  0  0  0  0  0  0  0  0
  1  2  1  0  0  0  0
  2  3  1  0  0  0  0
  4  3  1  0  0  0  0
  5  4  1  0  0  0  0
  5  6  1  0  0  0  0
M  END
>  <EGIN_R>
ES LYS A 135

>  <REMARK>
  4 active torsions:
  status: ('A' for Active; 'I' for Inactive)
    5  A    between atoms: CA   and  CB  
    6  A    between atoms: CB   and  CG  
    7  A    between atoms: CG   and  CD  
    8  A    between atoms: CD   and  CE  

$$$$
