ligand_74_pose_6_2HRL.pdbqt
 OpenBabel07062320523D

 54 54  0  0  1  0  0  0  0  0999 V2000
   25.9860   34.8480   14.9520 O   0  0  0  0  0  0  0  0  0  0  0  0
   27.3920   34.8800   14.9650 C   0  0  0  0  0  0  0  0  0  0  0  0
   28.1560   33.7120   14.7290 N   0  0  0  0  0  0  0  0  0  0  0  0
   27.6000   32.8200   14.5390 H   0  0  0  0  0  0  0  0  0  0  0  0
   27.9500   35.9800   15.1950 O   0  0  0  0  0  0  0  0  0  0  0  0
   29.6010   33.6860   14.7340 C   0  0  0  0  0  0  0  0  0  0  0  0
   30.0740   32.3110   15.0550 C   0  0  2  0  0  0  0  0  0  0  0  0
   29.8450   31.9080   16.5030 C   0  0  2  0  0  0  0  0  0  0  0  0
   28.8670   30.7810   16.6140 C   0  0  2  0  0  0  0  0  0  0  0  0
   26.5800   31.1060   16.3670 C   0  0  2  0  0  0  0  0  0  0  0  0
   26.2100   30.0850   17.4150 C   0  0  0  0  0  0  0  0  0  0  0  0
   27.8000   30.8360   15.7660 O   0  0  0  0  0  0  0  0  0  0  0  0
   27.4320   29.4110   18.0010 C   0  0  1  0  0  0  0  0  0  0  0  0
   28.4990   30.5120   18.0710 C   0  0  1  0  0  0  0  0  0  0  0  0
   26.5310   32.4010   16.8910 O   0  0  0  0  0  0  0  0  0  0  0  0
   25.6280   32.6950   17.1140 H   0  0  0  0  0  0  0  0  0  0  0  0
   25.5480   31.0340   15.2990 C   0  0  0  0  0  0  0  0  0  0  0  0
   24.8540   29.9780   15.1900 O   0  0  0  0  0  0  0  0  0  0  0  0
   25.2950   32.0590   14.4110 O   0  0  0  0  0  0  0  0  0  0  0  0
   26.0310   32.7590   14.2320 H   0  0  0  0  0  0  0  0  0  0  0  0
   27.2010   28.8310   19.2230 O   0  0  0  0  0  0  0  0  0  0  0  0
   28.0770   28.8430   19.7190 H   0  0  0  0  0  0  0  0  0  0  0  0
   29.6720   30.0460   18.7690 N   0  0  0  0  0  0  0  0  0  0  0  0
   30.2030   30.7810   19.8740 C   0  0  0  0  0  0  0  0  0  0  0  0
   30.1860   29.1680   18.5120 H   0  0  0  0  0  0  0  0  0  0  0  0
   31.4000   30.3330   20.6090 C   0  0  0  0  0  0  0  0  0  0  0  0
   29.6380   31.8430   20.2350 O   0  0  0  0  0  0  0  0  0  0  0  0
   29.5410   33.0060   17.2740 O   0  0  0  0  0  0  0  0  0  0  0  0
   29.6610   33.8170   16.7370 H   0  0  0  0  0  0  0  0  0  0  0  0
   31.4710   32.2610   14.8340 O   0  0  0  0  0  0  0  0  0  0  0  0
   31.6940   31.6220   14.1210 H   0  0  0  0  0  0  0  0  0  0  0  0
   25.3190   35.9280   14.3490 C   0  0  0  0  0  0  0  0  0  0  0  0
   24.6710   35.5500   13.0800 C   0  0  0  0  0  0  0  0  0  0  0  0
   25.0290   35.8430   11.7730 C   0  0  0  0  0  0  0  0  0  0  0  0
   23.5570   34.8150   12.9750 N   0  0  0  0  0  0  0  0  0  0  0  0
   24.1370   35.2820   10.9380 N   0  0  0  0  0  0  0  0  0  0  0  0
   23.2580   34.6680   11.6890 N   0  0  0  0  0  0  0  0  0  0  0  0
   24.1860   35.3750    9.4530 C   0  0  0  0  0  0  0  0  0  0  0  0
   24.9560   36.5840    9.0520 C   0  0  2  0  0  0  0  0  0  0  0  0
   24.1960   37.2660    7.9270 C   0  0  0  0  0  0  0  0  0  0  0  0
   23.7310   38.5990    8.3890 C   0  0  0  0  0  0  0  0  0  0  0  0
   23.2880   39.4380    7.5850 O   0  0  0  0  0  0  0  0  0  0  0  0
   23.8110   38.8680    9.7590 O   0  0  0  0  0  0  0  0  0  0  0  0
   23.2080   39.5580   10.1620 H   0  0  0  0  0  0  0  0  0  0  0  0
   26.3730   36.3110    8.7600 C   0  0  0  0  0  0  0  0  0  0  0  0
   26.7400   34.9710    8.2470 C   0  0  0  0  0  0  0  0  0  0  0  0
   27.7410   35.2320    7.0850 C   0  0  0  0  0  0  0  0  0  0  0  0
   27.4120   34.0360    9.1930 C   0  0  0  0  0  0  0  0  0  0  0  0
   29.8670   25.5550   16.9770 C   0  0  0  0  0  0  0  0  0  0  0  0
   28.3450   25.7220   17.0260 C   0  0  0  0  0  0  0  0  0  0  0  0
   27.6010   24.4020   16.8900 C   0  0  0  0  0  0  0  0  0  0  0  0
   26.1610   24.5190   17.3050 C   0  0  0  0  0  0  0  0  0  0  0  0
   25.9830   25.7500   18.1880 C   0  0  0  0  0  0  0  0  0  0  0  0
   24.8240   26.5520   17.7320 N   0  0  0  0  0  0  0  0  0  0  0  0
  1  2  1  0  0  0  0
  2  5  2  0  0  0  0
  3  6  1  0  0  0  0
  3  2  1  0  0  0  0
  4  3  1  0  0  0  0
  7  6  1  1  0  0  0
  7  8  1  0  0  0  0
  8 28  1  1  0  0  0
  9  8  1  1  0  0  0
  9 14  1  0  0  0  0
 10 17  1  6  0  0  0
 10 15  1  0  0  0  0
 10 11  1  0  0  0  0
 11 13  1  0  0  0  0
 12 10  1  0  0  0  0
 12  9  1  0  0  0  0
 13 14  1  0  0  0  0
 13 21  1  1  0  0  0
 14 23  1  1  0  0  0
 15 16  1  0  0  0  0
 18 17  2  0  0  0  0
 19 17  1  0  0  0  0
 20 19  1  0  0  0  0
 21 22  1  0  0  0  0
 23 24  1  0  0  0  0
 24 27  2  0  0  0  0
 24 26  1  0  0  0  0
 25 23  1  0  0  0  0
 29 28  1  0  0  0  0
 30  7  1  0  0  0  0
 31 30  1  0  0  0  0
 32  1  1  0  0  0  0
 33 32  1  0  0  0  0
 34 33  2  0  0  0  0
 35 33  1  0  0  0  0
 36 37  1  0  0  0  0
 36 34  1  0  0  0  0
 37 35  2  0  0  0  0
 38 36  1  0  0  0  0
 39 40  1  6  0  0  0
 39 38  1  0  0  0  0
 40 41  1  0  0  0  0
 41 43  1  0  0  0  0
 42 41  2  0  0  0  0
 43 44  1  0  0  0  0
 45 39  1  0  0  0  0
 46 45  1  0  0  0  0
 46 48  1  0  0  0  0
 47 46  1  0  0  0  0
 49 50  1  0  0  0  0
 51 50  1  0  0  0  0
 51 52  1  0  0  0  0
 52 53  1  0  0  0  0
 54 53  1  0  0  0  0
M  END
>  <REMARK>
 VINA RESULT:    -4.293      4.211      7.001
 INTER + INTRA:         -15.928
 INTER:                 -10.256
 INTRA:                  -5.672
 UNBOUND:                -7.118
 SMILES CC(=O)N[C@@H]1[C@@H](O)C[C@](O)(C(=O)O)O[C@H]1C(O)[C@H](O)CNC(=O)OCc1cn(C[C@H](CC(=O)O)CC(C)C)nn1
 SMILES IDX 24 1 22 2 21 3 23 5 20 6 18 7 16 8 15 9 9 10 8 11 14 12 6 13
 SMILES IDX 5 14 10 15 11 17 12 18 13 19 7 21 4 23 2 24 1 26 3 27 17 28
 SMILES IDX 19 30 25 32 26 33 27 34 40 35 28 36 39 37 29 38 30 39 31 40
 SMILES IDX 32 41 33 42 34 43 35 45 36 46 37 47 38 48
 H PARENT 21 4 10 16 13 20 7 22 4 25 17 29 19 31 34 44
 Flexibility Score: inf
  4 active torsions:
  status: ('A' for Active; 'I' for Inactive)
    1  A    between atoms: CA   and  CB  
    2  A    between atoms: CB   and  CG  
    3  A    between atoms: CG   and  CD  
    4  A    between atoms: CD   and  CE  

>  <TORSDO>
F 21

>  <BEGIN_>
RES LYS A 131

$$$$
ligand_74_pose_6_2HRL.pdbqt
 OpenBabel07062320523D

  6  5  0  0  0  0  0  0  0  0999 V2000
   33.1930   34.6630    9.2900 C   0  0  0  0  0  0  0  0  0  0  0  0
   32.0600   35.3600   10.0340 C   0  0  0  0  0  0  0  0  0  0  0  0
   30.7820   35.4470    9.2400 C   0  0  0  0  0  0  0  0  0  0  0  0
   30.0290   36.7260    9.5740 C   0  0  0  0  0  0  0  0  0  0  0  0
   29.9850   36.9420   11.0750 C   0  0  0  0  0  0  0  0  0  0  0  0
   28.8710   36.1720   11.6940 N   0  0  0  0  0  0  0  0  0  0  0  0
  1  2  1  0  0  0  0
  3  4  1  0  0  0  0
  3  2  1  0  0  0  0
  4  5  1  0  0  0  0
  5  6  1  0  0  0  0
M  END
>  <EGIN_R>
ES LYS A 135

>  <REMARK>
  4 active torsions:
  status: ('A' for Active; 'I' for Inactive)
    5  A    between atoms: CA   and  CB  
    6  A    between atoms: CB   and  CG  
    7  A    between atoms: CG   and  CD  
    8  A    between atoms: CD   and  CE  

$$$$
