ligand_34_pose_1_2HRL.pdbqt
 OpenBabel07062320523D

 69 73  0  0  1  0  0  0  0  0999 V2000
   29.2290   31.8150   18.2830 N   0  0  0  0  0  0  0  0  0  0  0  0
   29.3120   30.6570   19.1310 C   0  0  0  0  0  0  0  0  0  0  0  0
   30.4610   30.3360   19.5410 O   0  0  0  0  0  0  0  0  0  0  0  0
   28.3100   32.1240   17.9170 H   0  0  0  0  0  0  0  0  0  0  0  0
   30.4080   32.5650   17.9260 C   0  0  0  0  0  0  0  0  0  0  0  0
   30.6200   32.4740   16.4510 C   0  0  2  0  0  0  0  0  0  0  0  0
   29.4990   33.1590   15.6690 C   0  0  2  0  0  0  0  0  0  0  0  0
   30.0040   33.6150   14.3100 C   0  0  2  0  0  0  0  0  0  0  0  0
   31.8750   35.0000   14.2240 C   0  0  2  0  0  0  0  0  0  0  0  0
   31.4800   35.5510   12.8710 C   0  0  0  0  0  0  0  0  0  0  0  0
   31.3620   33.7380   14.3860 O   0  0  0  0  0  0  0  0  0  0  0  0
   30.0050   35.5350   12.7010 C   0  0  1  0  0  0  0  0  0  0  0  0
   29.2730   34.8090   13.8020 C   0  0  1  0  0  0  0  0  0  0  0  0
   31.4780   35.9050   15.1750 O   0  0  0  0  0  0  0  0  0  0  0  0
   30.5220   36.0890   15.1890 H   0  0  0  0  0  0  0  0  0  0  0  0
   33.3540   34.8930   14.2280 C   0  0  0  0  0  0  0  0  0  0  0  0
   34.0120   35.3270   15.2060 O   0  0  0  0  0  0  0  0  0  0  0  0
   34.0730   34.3260   13.1880 O   0  0  0  0  0  0  0  0  0  0  0  0
   34.8270   34.8410   12.7100 H   0  0  0  0  0  0  0  0  0  0  0  0
   29.4750   36.8190   12.6070 O   0  0  0  0  0  0  0  0  0  0  0  0
   29.9360   37.4780   13.1720 H   0  0  0  0  0  0  0  0  0  0  0  0
   27.9820   34.4050   13.2270 N   0  0  0  0  0  0  0  0  0  0  0  0
   26.7400   34.6990   13.8190 C   0  0  0  0  0  0  0  0  0  0  0  0
   28.0140   33.8720   12.3280 H   0  0  0  0  0  0  0  0  0  0  0  0
   25.4820   34.2570   13.1770 C   0  0  0  0  0  0  0  0  0  0  0  0
   26.7680   35.3540   14.9130 O   0  0  0  0  0  0  0  0  0  0  0  0
   29.1040   34.2520   16.4490 O   0  0  0  0  0  0  0  0  0  0  0  0
   29.5310   34.1310   17.3390 H   0  0  0  0  0  0  0  0  0  0  0  0
   30.7830   31.1570   16.0280 O   0  0  0  0  0  0  0  0  0  0  0  0
   29.9940   30.8150   15.5460 H   0  0  0  0  0  0  0  0  0  0  0  0
   28.2280   29.9180   19.4960 O   0  0  0  0  0  0  0  0  0  0  0  0
   27.7430   28.8680   18.6930 C   0  0  0  0  0  0  0  0  0  0  0  0
   27.2320   29.4310   17.4280 C   0  0  0  0  0  0  0  0  0  0  0  0
   25.8980   29.6760   17.0940 C   0  0  0  0  0  0  0  0  0  0  0  0
   27.9380   29.8080   16.3530 N   0  0  0  0  0  0  0  0  0  0  0  0
   25.8490   30.1860   15.8500 N   0  0  0  0  0  0  0  0  0  0  0  0
   27.0950   30.2530   15.4310 N   0  0  0  0  0  0  0  0  0  0  0  0
   24.6450   30.5470   15.1930 C   0  0  0  0  0  0  0  0  0  0  0  0
   23.4720   30.8460   15.8190 C   0  0  0  0  0  0  0  0  0  0  0  0
   24.6560   30.5980   13.7970 C   0  0  0  0  0  0  0  0  0  0  0  0
   22.3130   31.1930   15.1320 C   0  0  0  0  0  0  0  0  0  0  0  0
   23.5300   30.9370   13.0990 C   0  0  0  0  0  0  0  0  0  0  0  0
   22.3470   31.2380   13.7730 C   0  0  0  0  0  0  0  0  0  0  0  0
   21.0730   31.5080   15.8390 C   0  0  0  0  0  0  0  0  0  0  0  0
   20.2320   30.6000   16.1280 O   0  0  0  0  0  0  0  0  0  0  0  0
   20.7930   32.7960   16.2060 O   0  0  0  0  0  0  0  0  0  0  0  0
   21.2050   31.5850   12.9420 C   0  0  0  0  0  0  0  0  0  0  0  0
   20.8790   32.8690   12.5650 C   0  0  0  0  0  0  0  0  0  0  0  0
   20.3860   30.5630   12.4910 C   0  0  0  0  0  0  0  0  0  0  0  0
   21.6720   33.9150   12.9940 C   0  0  0  0  0  0  0  0  0  0  0  0
   19.7740   33.1370   11.7650 C   0  0  0  0  0  0  0  0  0  0  0  0
   19.2420   30.8950   11.6560 C   0  0  0  0  0  0  0  0  0  0  0  0
   20.6230   29.2460   12.8110 C   0  0  0  0  0  0  0  0  0  0  0  0
   21.3840   35.2260   12.6400 C   0  0  0  0  0  0  0  0  0  0  0  0
   19.4630   34.4260   11.3970 C   0  0  0  0  0  0  0  0  0  0  0  0
   19.0020   32.1660   11.3410 O   0  0  0  0  0  0  0  0  0  0  0  0
   18.4290   29.8960   11.2070 C   0  0  0  0  0  0  0  0  0  0  0  0
   19.7800   28.2810   12.3370 C   0  0  0  0  0  0  0  0  0  0  0  0
   20.2810   35.4600   11.8450 C   0  0  0  0  0  0  0  0  0  0  0  0
   18.6870   28.5840   11.5400 C   0  0  0  0  0  0  0  0  0  0  0  0
   17.9390   27.6570   11.1270 O   0  0  0  0  0  0  0  0  0  0  0  0
   19.9850   36.7650   11.4880 O   0  0  0  0  0  0  0  0  0  0  0  0
   20.5940   37.3550   10.9530 H   0  0  0  0  0  0  0  0  0  0  0  0
   29.8670   25.5550   16.9770 C   0  0  0  0  0  0  0  0  0  0  0  0
   28.3450   25.7220   17.0260 C   0  0  0  0  0  0  0  0  0  0  0  0
   27.6010   24.4010   16.8990 C   0  0  0  0  0  0  0  0  0  0  0  0
   26.6250   24.1910   18.0220 C   0  0  0  0  0  0  0  0  0  0  0  0
   25.2640   23.8100   17.4490 C   0  0  0  0  0  0  0  0  0  0  0  0
   24.4990   25.0240   17.0770 N   0  0  0  0  0  0  0  0  0  0  0  0
  1  2  1  0  0  0  0
  2 31  1  0  0  0  0
  2  3  2  0  0  0  0
  4  1  1  0  0  0  0
  5  1  1  0  0  0  0
  6  5  1  1  0  0  0
  7 27  1  1  0  0  0
  7  6  1  0  0  0  0
  8 11  1  0  0  0  0
  8  7  1  1  0  0  0
  9 16  1  1  0  0  0
  9 11  1  0  0  0  0
  9 14  1  0  0  0  0
 10  9  1  0  0  0  0
 12 20  1  1  0  0  0
 12 10  1  0  0  0  0
 12 13  1  0  0  0  0
 13 22  1  6  0  0  0
 13  8  1  0  0  0  0
 14 15  1  0  0  0  0
 16 17  2  0  0  0  0
 18 16  1  0  0  0  0
 19 18  1  0  0  0  0
 20 21  1  0  0  0  0
 22 23  1  0  0  0  0
 23 26  2  0  0  0  0
 24 22  1  0  0  0  0
 25 23  1  0  0  0  0
 27 28  1  0  0  0  0
 29  6  1  0  0  0  0
 30 29  1  0  0  0  0
 32 31  1  0  0  0  0
 33 32  1  0  0  0  0
 34 33  2  0  0  0  0
 35 33  1  0  0  0  0
 36 34  1  0  0  0  0
 37 36  1  0  0  0  0
 37 35  2  0  0  0  0
 38 39  1  0  0  0  0
 38 36  1  0  0  0  0
 40 38  2  0  0  0  0
 41 39  2  0  0  0  0
 41 44  1  0  0  0  0
 42 43  2  0  0  0  0
 42 40  1  0  0  0  0
 43 41  1  0  0  0  0
 44 45  2  0  0  0  0
 44 46  1  0  0  0  0
 47 43  1  0  0  0  0
 48 47  1  0  0  0  0
 48 50  2  0  0  0  0
 49 53  1  0  0  0  0
 49 47  2  0  0  0  0
 51 48  1  0  0  0  0
 52 49  1  0  0  0  0
 54 50  1  0  0  0  0
 55 51  2  0  0  0  0
 55 59  1  0  0  0  0
 56 52  1  0  0  0  0
 56 51  1  0  0  0  0
 57 60  1  0  0  0  0
 57 52  2  0  0  0  0
 58 53  2  0  0  0  0
 59 54  2  0  0  0  0
 60 58  1  0  0  0  0
 61 60  2  0  0  0  0
 62 59  1  0  0  0  0
 63 62  1  0  0  0  0
 64 65  1  0  0  0  0
 66 65  1  0  0  0  0
 66 67  1  0  0  0  0
 68 67  1  0  0  0  0
 69 68  1  0  0  0  0
M  END
>  <REMARK>
 VINA RESULT:    -5.647      2.248      4.822
 INTER + INTRA:         -18.316
 INTER:                 -10.872
 INTRA:                  -7.444
 UNBOUND:                -7.717
 SMILES CC(=O)N[C@@H]1[C@@H](O)C[C@](O)(C(=O)O)O[C@H]1C(O)[C@H](O)CNC(=O)OCc1cn(-c2ccc(-c3c4ccc(=O)cc-4oc4cc(O)ccc34)c(C(=O)[O-])c2)nn1
 SMILES IDX 21 1 22 2 23 3 20 5 18 6 16 7 15 8 9 9 8 10 14 11 6 12 5 13
 SMILES IDX 10 14 11 16 12 17 13 18 7 20 4 22 2 23 1 25 3 26 17 27 19 29
 SMILES IDX 24 31 25 32 26 33 27 34 55 35 28 36 54 37 29 38 53 39 30 40
 SMILES IDX 49 41 31 42 32 43 50 44 51 45 52 46 33 47 48 48 34 49 47 50
 SMILES IDX 42 51 40 52 35 53 46 54 43 55 41 56 39 57 36 58 44 59 37 60
 SMILES IDX 38 61 45 62
 H PARENT 21 4 10 15 13 19 7 21 4 24 17 28 19 30 45 63
 Flexibility Score: inf
  4 active torsions:
  status: ('A' for Active; 'I' for Inactive)
    1  A    between atoms: CA   and  CB  
    2  A    between atoms: CB   and  CG  
    3  A    between atoms: CG   and  CD  
    4  A    between atoms: CD   and  CE  

>  <TORSDO>
F 18

>  <BEGIN_>
RES LYS A 131

$$$$
ligand_34_pose_1_2HRL.pdbqt
 OpenBabel07062320523D

  6  5  0  0  0  0  0  0  0  0999 V2000
   33.1930   34.6630    9.2900 C   0  0  0  0  0  0  0  0  0  0  0  0
   32.0600   35.3600   10.0340 C   0  0  0  0  0  0  0  0  0  0  0  0
   30.7980   35.4930    9.2220 C   0  0  0  0  0  0  0  0  0  0  0  0
   30.0800   34.1560    9.1220 C   0  0  0  0  0  0  0  0  0  0  0  0
   28.6180   34.3610    8.7770 C   0  0  0  0  0  0  0  0  0  0  0  0
   27.7350   33.6120    9.7130 N   0  0  0  0  0  0  0  0  0  0  0  0
  1  2  1  0  0  0  0
  3  2  1  0  0  0  0
  4  3  1  0  0  0  0
  5  4  1  0  0  0  0
  5  6  1  0  0  0  0
M  END
>  <EGIN_R>
ES LYS A 135

>  <REMARK>
  4 active torsions:
  status: ('A' for Active; 'I' for Inactive)
    5  A    between atoms: CA   and  CB  
    6  A    between atoms: CB   and  CG  
    7  A    between atoms: CG   and  CD  
    8  A    between atoms: CD   and  CE  

$$$$
