ligand_9_pose_17_2HRL.pdbqt
 OpenBabel07062320523D

 54 55  0  0  1  0  0  0  0  0999 V2000
   21.5130   36.9270    9.0300 N   0  0  0  0  0  0  0  0  0  0  0  0
   20.2770   37.1870    9.6810 C   0  0  0  0  0  0  0  0  0  0  0  0
   19.5650   38.1310    9.2580 O   0  0  0  0  0  0  0  0  0  0  0  0
   22.0860   36.1410    9.3960 H   0  0  0  0  0  0  0  0  0  0  0  0
   21.9570   37.7230    7.9040 C   0  0  0  0  0  0  0  0  0  0  0  0
   23.4230   37.6050    7.6500 C   0  0  2  0  0  0  0  0  0  0  0  0
   24.1900   37.0450    8.8040 C   0  0  1  0  0  0  0  0  0  0  0  0
   25.7000   36.9600    8.4590 C   0  0  2  0  0  0  0  0  0  0  0  0
   27.1260   36.7630    6.7130 C   0  0  2  0  0  0  0  0  0  0  0  0
   27.6600   35.4230    7.1650 C   0  0  0  0  0  0  0  0  0  0  0  0
   25.8270   36.8800    7.0970 O   0  0  0  0  0  0  0  0  0  0  0  0
   27.5390   35.2230    8.6450 C   0  0  1  0  0  0  0  0  0  0  0  0
   26.3230   35.8670    9.2460 C   0  0  1  0  0  0  0  0  0  0  0  0
   27.1210   36.6910    5.2910 O   0  0  0  0  0  0  0  0  0  0  0  0
   27.9980   36.8830    4.9120 H   0  0  0  0  0  0  0  0  0  0  0  0
   28.0330   37.8510    7.1020 C   0  0  0  0  0  0  0  0  0  0  0  0
   27.6350   39.0370    7.3570 O   0  0  0  0  0  0  0  0  0  0  0  0
   29.4090   37.5670    7.1980 O   0  0  0  0  0  0  0  0  0  0  0  0
   29.6760   36.7070    7.6940 H   0  0  0  0  0  0  0  0  0  0  0  0
   27.5820   33.8560    8.9160 O   0  0  0  0  0  0  0  0  0  0  0  0
   27.2360   33.6350    9.8170 H   0  0  0  0  0  0  0  0  0  0  0  0
   26.5770   36.3280   10.6000 N   0  0  0  0  0  0  0  0  0  0  0  0
   26.6300   35.4320   11.7010 C   0  0  0  0  0  0  0  0  0  0  0  0
   26.7250   37.3700   10.7510 H   0  0  0  0  0  0  0  0  0  0  0  0
   26.8920   35.9790   13.0570 C   0  0  0  0  0  0  0  0  0  0  0  0
   26.4570   34.1760   11.5390 O   0  0  0  0  0  0  0  0  0  0  0  0
   24.0710   37.7430    9.9800 O   0  0  0  0  0  0  0  0  0  0  0  0
   24.8740   37.7840   10.5280 H   0  0  0  0  0  0  0  0  0  0  0  0
   23.9440   38.8030    7.1700 O   0  0  0  0  0  0  0  0  0  0  0  0
   24.4230   39.2380    7.9270 H   0  0  0  0  0  0  0  0  0  0  0  0
   19.8080   36.4580   10.7600 O   0  0  0  0  0  0  0  0  0  0  0  0
   20.4530   36.4830   12.0190 C   0  0  0  0  0  0  0  0  0  0  0  0
   21.4580   35.4060   12.1090 C   0  0  0  0  0  0  0  0  0  0  0  0
   21.2820   34.0850   12.4800 C   0  0  0  0  0  0  0  0  0  0  0  0
   22.7780   35.5080   11.8380 N   0  0  0  0  0  0  0  0  0  0  0  0
   22.4680   33.4440   12.4250 N   0  0  0  0  0  0  0  0  0  0  0  0
   23.3600   34.3560   12.0260 N   0  0  0  0  0  0  0  0  0  0  0  0
   22.7660   32.0950   12.7170 C   0  0  0  0  0  0  0  0  0  0  0  0
   21.8030   31.1070   12.6270 C   0  0  0  0  0  0  0  0  0  0  0  0
   24.0310   31.7110   13.1020 C   0  0  0  0  0  0  0  0  0  0  0  0
   22.0530   29.7770   12.9030 C   0  0  0  0  0  0  0  0  0  0  0  0
   24.3140   30.3780   13.3860 C   0  0  0  0  0  0  0  0  0  0  0  0
   23.3280   29.4290   13.2850 C   0  0  0  0  0  0  0  0  0  0  0  0
   21.0170   28.7560   12.7990 C   0  0  0  0  0  0  0  0  0  0  0  0
   20.7430   28.0540   13.8030 O   0  0  0  0  0  0  0  0  0  0  0  0
   20.3140   28.5230   11.6290 O   0  0  0  0  0  0  0  0  0  0  0  0
   18.9010   28.5490   11.5700 C   0  0  0  0  0  0  0  0  0  0  0  0
   18.4140   27.2000   11.1310 C   0  0  0  0  0  0  0  0  0  0  0  0
   29.8670   25.5550   16.9770 C   0  0  0  0  0  0  0  0  0  0  0  0
   28.3450   25.7220   17.0260 C   0  0  0  0  0  0  0  0  0  0  0  0
   27.6010   24.4020   16.8920 C   0  0  0  0  0  0  0  0  0  0  0  0
   26.5240   24.2510   17.9300 C   0  0  0  0  0  0  0  0  0  0  0  0
   25.1950   23.9490   17.2450 C   0  0  0  0  0  0  0  0  0  0  0  0
   24.2120   25.0220   17.5260 N   0  0  0  0  0  0  0  0  0  0  0  0
  1  4  1  0  0  0  0
  1  2  1  0  0  0  0
  2 31  1  0  0  0  0
  3  2  2  0  0  0  0
  5  1  1  0  0  0  0
  6  5  1  1  0  0  0
  6  7  1  0  0  0  0
  7 27  1  1  0  0  0
  8  7  1  6  0  0  0
  8 13  1  0  0  0  0
  9 14  1  6  0  0  0
  9 11  1  0  0  0  0
  9 16  1  0  0  0  0
  9 10  1  0  0  0  0
 10 12  1  0  0  0  0
 11  8  1  0  0  0  0
 12 20  1  6  0  0  0
 12 13  1  0  0  0  0
 13 22  1  1  0  0  0
 15 14  1  0  0  0  0
 16 18  1  0  0  0  0
 16 17  2  0  0  0  0
 18 19  1  0  0  0  0
 20 21  1  0  0  0  0
 22 24  1  0  0  0  0
 22 23  1  0  0  0  0
 23 25  1  0  0  0  0
 26 23  2  0  0  0  0
 27 28  1  0  0  0  0
 29  6  1  0  0  0  0
 29 30  1  0  0  0  0
 31 32  1  0  0  0  0
 32 33  1  0  0  0  0
 33 34  2  0  0  0  0
 35 37  2  0  0  0  0
 35 33  1  0  0  0  0
 36 34  1  0  0  0  0
 36 38  1  0  0  0  0
 37 36  1  0  0  0  0
 38 40  1  0  0  0  0
 39 38  2  0  0  0  0
 39 41  1  0  0  0  0
 40 42  2  0  0  0  0
 41 43  2  0  0  0  0
 43 42  1  0  0  0  0
 44 41  1  0  0  0  0
 44 45  2  0  0  0  0
 46 44  1  0  0  0  0
 47 46  1  0  0  0  0
 48 47  1  0  0  0  0
 49 50  1  0  0  0  0
 51 50  1  0  0  0  0
 51 52  1  0  0  0  0
 53 54  1  0  0  0  0
 53 52  1  0  0  0  0
M  END
>  <REMARK>
 VINA RESULT:    -4.790      6.360     11.852
 INTER + INTRA:         -14.802
 INTER:                 -10.098
 INTRA:                  -4.703
 UNBOUND:                -5.671
 SMILES CCOC(=O)c1cccc(-n2cc(COC(=O)NC[C@@H](O)C(O)[C@@H]3O[C@@](O)(C(=O)O)C[C@H](O)[C@H]3NC(C)=O)nn2)c1
 SMILES IDX 18 1 16 2 17 3 19 5 20 6 22 7 24 8 26 9 31 10 25 11 32 12
 SMILES IDX 34 13 27 14 28 16 29 17 30 18 33 20 35 22 36 23 37 25 38 26
 SMILES IDX 23 27 21 29 15 31 14 32 13 33 12 34 39 35 11 36 40 37 10 38
 SMILES IDX 41 39 9 40 6 41 8 42 7 43 4 44 5 45 3 46 2 47 1 48
 H PARENT 18 4 27 15 30 19 33 21 35 24 23 28 21 30
 Flexibility Score: inf
  4 active torsions:
  status: ('A' for Active; 'I' for Inactive)
    1  A    between atoms: CA   and  CB  
    2  A    between atoms: CB   and  CG  
    3  A    between atoms: CG   and  CD  
    4  A    between atoms: CD   and  CE  

>  <TORSDO>
F 18

>  <BEGIN_>
RES LYS A 131

$$$$
ligand_9_pose_17_2HRL.pdbqt
 OpenBabel07062320523D

  6  5  0  0  0  0  0  0  0  0999 V2000
   33.1930   34.6630    9.2900 C   0  0  0  0  0  0  0  0  0  0  0  0
   32.0600   35.3600   10.0340 C   0  0  0  0  0  0  0  0  0  0  0  0
   30.7440   34.6310    9.9470 C   0  0  0  0  0  0  0  0  0  0  0  0
   30.0860   34.5470   11.3160 C   0  0  0  0  0  0  0  0  0  0  0  0
   30.9650   35.1930   12.3700 C   0  0  0  0  0  0  0  0  0  0  0  0
   30.6990   34.6160   13.7170 N   0  0  0  0  0  0  0  0  0  0  0  0
  1  2  1  0  0  0  0
  3  2  1  0  0  0  0
  3  4  1  0  0  0  0
  4  5  1  0  0  0  0
  5  6  1  0  0  0  0
M  END
>  <EGIN_R>
ES LYS A 135

>  <REMARK>
  4 active torsions:
  status: ('A' for Active; 'I' for Inactive)
    5  A    between atoms: CA   and  CB  
    6  A    between atoms: CB   and  CG  
    7  A    between atoms: CG   and  CD  
    8  A    between atoms: CD   and  CE  

$$$$
