ligand_90_pose_18_2HRL.pdbqt
 OpenBabel07062320523D

 61 62  0  0  1  0  0  0  0  0999 V2000
   28.0610   39.4730   14.0480 C   0  0  0  0  0  0  0  0  0  0  0  0
   26.7170   39.1210   14.3070 O   0  0  0  0  0  0  0  0  0  0  0  0
   26.3860   38.1340   15.2180 C   0  0  0  0  0  0  0  0  0  0  0  0
   26.0370   36.8080   14.7870 N   0  0  0  0  0  0  0  0  0  0  0  0
   26.0410   36.6450   13.7600 H   0  0  0  0  0  0  0  0  0  0  0  0
   26.3950   38.4170   16.4290 O   0  0  0  0  0  0  0  0  0  0  0  0
   25.6990   35.7570   15.6830 C   0  0  0  0  0  0  0  0  0  0  0  0
   26.6420   34.6060   15.6750 C   0  0  2  0  0  0  0  0  0  0  0  0
   27.8890   34.9950   14.8970 C   0  0  1  0  0  0  0  0  0  0  0  0
   29.1500   34.5340   15.5540 C   0  0  2  0  0  0  0  0  0  0  0  0
   30.9890   35.6030   14.6020 C   0  0  2  0  0  0  0  0  0  0  0  0
   31.8880   34.3760   14.5900 C   0  0  0  0  0  0  0  0  0  0  0  0
   30.0670   35.5520   15.6110 O   0  0  0  0  0  0  0  0  0  0  0  0
   31.2060   33.2350   15.3320 C   0  0  1  0  0  0  0  0  0  0  0  0
   29.7260   33.3040   14.9330 C   0  0  1  0  0  0  0  0  0  0  0  0
   30.3420   35.6160   13.3800 O   0  0  0  0  0  0  0  0  0  0  0  0
   29.5990   36.2710   13.3810 H   0  0  0  0  0  0  0  0  0  0  0  0
   31.7810   36.8540   14.7150 C   0  0  0  0  0  0  0  0  0  0  0  0
   32.4720   37.1150   15.7410 O   0  0  0  0  0  0  0  0  0  0  0  0
   31.7950   37.7870   13.6920 O   0  0  0  0  0  0  0  0  0  0  0  0
   32.4650   37.8270   12.9460 H   0  0  0  0  0  0  0  0  0  0  0  0
   31.7840   32.0530   14.9070 O   0  0  0  0  0  0  0  0  0  0  0  0
   32.1580   32.1060   14.0000 H   0  0  0  0  0  0  0  0  0  0  0  0
   29.0450   32.1000   15.3900 N   0  0  0  0  0  0  0  0  0  0  0  0
   28.8810   31.8790   16.7720 C   0  0  0  0  0  0  0  0  0  0  0  0
   28.6980   31.4250   14.7060 H   0  0  0  0  0  0  0  0  0  0  0  0
   28.1810   30.6460   17.2890 C   0  0  0  0  0  0  0  0  0  0  0  0
   29.2940   32.6700   17.6530 O   0  0  0  0  0  0  0  0  0  0  0  0
   27.8410   34.5120   13.5990 O   0  0  0  0  0  0  0  0  0  0  0  0
   28.3720   33.7070   13.4630 H   0  0  0  0  0  0  0  0  0  0  0  0
   26.1250   33.4350   15.1450 O   0  0  0  0  0  0  0  0  0  0  0  0
   26.2020   32.6650   15.7700 H   0  0  0  0  0  0  0  0  0  0  0  0
   28.4640   38.6750   12.8650 C   0  0  0  0  0  0  0  0  0  0  0  0
   29.2530   39.1530   11.8420 C   0  0  0  0  0  0  0  0  0  0  0  0
   28.1890   37.4100   12.5140 N   0  0  0  0  0  0  0  0  0  0  0  0
   29.4390   38.1780   10.9000 N   0  0  0  0  0  0  0  0  0  0  0  0
   28.7810   37.1320   11.3370 N   0  0  0  0  0  0  0  0  0  0  0  0
   30.2240   38.4050    9.7060 C   0  0  0  0  0  0  0  0  0  0  0  0
   29.2800   38.2030    8.5360 C   0  0  0  0  0  0  0  0  0  0  0  0
   29.7210   38.2230    7.3670 O   0  0  0  0  0  0  0  0  0  0  0  0
   27.9110   37.9910    8.7120 N   0  0  0  0  0  0  0  0  0  0  0  0
   27.6200   37.9680    9.7630 H   0  0  0  0  0  0  0  0  0  0  0  0
   26.8800   37.8130    7.7560 C   0  0  0  0  0  0  0  0  0  0  0  0
   25.5240   37.4760    8.1790 C   0  0  1  0  0  0  0  0  0  0  0  0
   24.6180   37.3500    7.0910 O   0  0  0  0  0  0  0  0  0  0  0  0
   23.8690   36.7650    7.3590 H   0  0  0  0  0  0  0  0  0  0  0  0
   25.2610   36.5500    9.2930 C   0  0  0  0  0  0  0  0  0  0  0  0
   24.7870   37.2060   10.4960 N   0  0  0  0  0  0  0  0  0  0  0  0
   24.7080   38.5480   10.6860 C   0  0  0  0  0  0  0  0  0  0  0  0
   24.3680   36.5930   11.6180 C   0  0  0  0  0  0  0  0  0  0  0  0
   24.2270   38.7370   11.9680 C   0  0  0  0  0  0  0  0  0  0  0  0
   24.0210   37.5470   12.5340 N   0  0  0  0  0  0  0  0  0  0  0  0
   24.2680   35.2080   11.8950 N   0  0  0  0  0  0  0  0  0  0  0  0
   25.2760   34.6370   12.4080 O   0  0  0  0  0  0  0  0  0  0  0  0
   23.1920   34.4190   11.6640 O   0  0  0  0  0  0  0  0  0  0  0  0
   29.8670   25.5550   16.9770 C   0  0  0  0  0  0  0  0  0  0  0  0
   28.3450   25.7220   17.0260 C   0  0  0  0  0  0  0  0  0  0  0  0
   27.6010   24.4030   16.8810 C   0  0  0  0  0  0  0  0  0  0  0  0
   26.1730   24.5050   17.3400 C   0  0  0  0  0  0  0  0  0  0  0  0
   25.6440   23.1140   17.6700 C   0  0  0  0  0  0  0  0  0  0  0  0
   24.2770   22.9350   17.1260 N   0  0  0  0  0  0  0  0  0  0  0  0
  1  2  1  0  0  0  0
  2  3  1  0  0  0  0
  3  6  2  0  0  0  0
  4  3  1  0  0  0  0
  4  7  1  0  0  0  0
  5  4  1  0  0  0  0
  8  7  1  6  0  0  0
  9 29  1  6  0  0  0
  9  8  1  0  0  0  0
 10  9  1  6  0  0  0
 10 13  1  0  0  0  0
 11 16  1  6  0  0  0
 11 18  1  0  0  0  0
 11 13  1  0  0  0  0
 12 11  1  0  0  0  0
 12 14  1  0  0  0  0
 14 22  1  6  0  0  0
 15 14  1  0  0  0  0
 15 24  1  1  0  0  0
 15 10  1  0  0  0  0
 16 17  1  0  0  0  0
 18 19  2  0  0  0  0
 20 18  1  0  0  0  0
 21 20  1  0  0  0  0
 23 22  1  0  0  0  0
 24 25  1  0  0  0  0
 25 27  1  0  0  0  0
 25 28  2  0  0  0  0
 26 24  1  0  0  0  0
 30 29  1  0  0  0  0
 31  8  1  0  0  0  0
 31 32  1  0  0  0  0
 33  1  1  0  0  0  0
 34 33  2  0  0  0  0
 35 33  1  0  0  0  0
 36 37  1  0  0  0  0
 36 34  1  0  0  0  0
 37 35  2  0  0  0  0
 38 36  1  0  0  0  0
 39 41  1  0  0  0  0
 39 38  1  0  0  0  0
 40 39  2  0  0  0  0
 41 42  1  0  0  0  0
 43 41  1  0  0  0  0
 44 43  1  6  0  0  0
 44 47  1  0  0  0  0
 45 46  1  0  0  0  0
 45 44  1  0  0  0  0
 47 48  1  0  0  0  0
 48 49  1  0  0  0  0
 48 50  1  0  0  0  0
 49 51  2  0  0  0  0
 50 53  1  0  0  0  0
 50 52  2  0  0  0  0
 51 52  1  0  0  0  0
 53 54  2  0  0  0  0
 55 53  2  0  0  0  0
 56 57  1  0  0  0  0
 58 57  1  0  0  0  0
 58 59  1  0  0  0  0
 59 60  1  0  0  0  0
 61 60  1  0  0  0  0
M  END
>  <REMARK>
 VINA RESULT:    -5.114      3.106      8.536
 INTER + INTRA:         -16.553
 INTER:                  -7.859
 INTRA:                  -8.694
 UNBOUND:                -5.759
 SMILES CC(=O)N[C@@H]1[C@@H](O)C[C@](O)(C(=O)O)O[C@H]1C(O)[C@H](O)CNC(=O)OCc1cn(CC(=O)NCC(O)Cn2ccnc2[N+](=O)[O-])nn1
 SMILES IDX 25 1 24 2 22 3 21 4 23 6 20 7 18 8 16 9 15 10 9 11 8 12
 SMILES IDX 14 13 6 14 5 15 10 16 11 18 12 19 13 20 7 22 4 24 2 25 1 27
 SMILES IDX 3 28 17 29 19 31 26 33 27 34 46 35 28 36 45 37 29 38 30 39
 SMILES IDX 31 40 32 41 33 43 34 44 35 45 36 47 37 48 38 49 41 50 39 51
 SMILES IDX 40 52 42 53 43 54 44 55
 H PARENT 21 5 10 17 13 21 7 23 4 26 17 30 19 32 32 42 35 46
 Flexibility Score: inf
  4 active torsions:
  status: ('A' for Active; 'I' for Inactive)
    1  A    between atoms: CA   and  CB  
    2  A    between atoms: CB   and  CG  
    3  A    between atoms: CG   and  CD  
    4  A    between atoms: CD   and  CE  

>  <TORSDO>
F 22

>  <BEGIN_>
RES LYS A 131

$$$$
ligand_90_pose_18_2HRL.pdbqt
 OpenBabel07062320523D

  6  5  0  0  0  0  0  0  0  0999 V2000
   33.1930   34.6630    9.2900 C   0  0  0  0  0  0  0  0  0  0  0  0
   32.0600   35.3600   10.0340 C   0  0  0  0  0  0  0  0  0  0  0  0
   30.7310   34.6620    9.8990 C   0  0  0  0  0  0  0  0  0  0  0  0
   30.3270   34.5570    8.4360 C   0  0  0  0  0  0  0  0  0  0  0  0
   28.8160   34.5630    8.3000 C   0  0  0  0  0  0  0  0  0  0  0  0
   28.1720   33.8500    9.4380 N   0  0  0  0  0  0  0  0  0  0  0  0
  1  2  1  0  0  0  0
  3  2  1  0  0  0  0
  4  3  1  0  0  0  0
  5  4  1  0  0  0  0
  5  6  1  0  0  0  0
M  END
>  <EGIN_R>
ES LYS A 135

>  <REMARK>
  4 active torsions:
  status: ('A' for Active; 'I' for Inactive)
    5  A    between atoms: CA   and  CB  
    6  A    between atoms: CB   and  CG  
    7  A    between atoms: CG   and  CD  
    8  A    between atoms: CD   and  CE  

$$$$
