ligand_68_pose_4_2HRL.pdbqt
 OpenBabel07062320523D

 53 54  0  0  1  0  0  0  0  0999 V2000
   28.6910   31.0260   17.5240 N   0  0  0  0  0  0  0  0  0  0  0  0
   27.9260   30.4360   16.4870 C   0  0  0  0  0  0  0  0  0  0  0  0
   28.5080   30.0740   15.4400 O   0  0  0  0  0  0  0  0  0  0  0  0
   28.1200   31.3030   18.3820 H   0  0  0  0  0  0  0  0  0  0  0  0
   30.1170   31.2540   17.4730 C   0  0  0  0  0  0  0  0  0  0  0  0
   30.4590   32.7280   17.4140 C   0  0  2  0  0  0  0  0  0  0  0  0
   31.0920   33.0690   16.0640 C   0  0  2  0  0  0  0  0  0  0  0  0
   30.2620   34.0000   15.2210 C   0  0  2  0  0  0  0  0  0  0  0  0
   32.0740   34.9610   14.0940 C   0  0  2  0  0  0  0  0  0  0  0  0
   32.3170   35.8020   15.2820 C   0  0  0  0  0  0  0  0  0  0  0  0
   30.9460   34.2170   14.0230 O   0  0  0  0  0  0  0  0  0  0  0  0
   31.1410   36.1310   16.1470 C   0  0  1  0  0  0  0  0  0  0  0  0
   29.9350   35.2540   15.9110 C   0  0  1  0  0  0  0  0  0  0  0  0
   33.1540   34.0280   14.0450 O   0  0  0  0  0  0  0  0  0  0  0  0
   32.7620   33.1680   14.3100 H   0  0  0  0  0  0  0  0  0  0  0  0
   32.2740   35.8080   12.8600 C   0  0  0  0  0  0  0  0  0  0  0  0
   31.4750   36.7180   12.5380 O   0  0  0  0  0  0  0  0  0  0  0  0
   33.3770   35.5850   12.0410 O   0  0  0  0  0  0  0  0  0  0  0  0
   34.0090   34.8080   12.1560 H   0  0  0  0  0  0  0  0  0  0  0  0
   31.5280   36.0740   17.5150 O   0  0  0  0  0  0  0  0  0  0  0  0
   31.7370   36.9900   17.7830 H   0  0  0  0  0  0  0  0  0  0  0  0
   28.9720   36.0860   15.2060 N   0  0  0  0  0  0  0  0  0  0  0  0
   27.9160   36.7850   15.8380 C   0  0  0  0  0  0  0  0  0  0  0  0
   29.1050   36.1430   14.1730 H   0  0  0  0  0  0  0  0  0  0  0  0
   26.9500   37.6260   15.0890 C   0  0  0  0  0  0  0  0  0  0  0  0
   27.8400   36.6530   17.0880 O   0  0  0  0  0  0  0  0  0  0  0  0
   31.0450   31.7880   15.3920 O   0  0  0  0  0  0  0  0  0  0  0  0
   31.9130   31.3560   15.4020 H   0  0  0  0  0  0  0  0  0  0  0  0
   31.2600   33.0440   18.4860 O   0  0  0  0  0  0  0  0  0  0  0  0
   30.6890   33.0780   19.2890 H   0  0  0  0  0  0  0  0  0  0  0  0
   26.5560   30.2390   16.5770 O   0  0  0  0  0  0  0  0  0  0  0  0
   25.6930   30.3690   15.4640 C   0  0  0  0  0  0  0  0  0  0  0  0
   25.5580   31.8030   15.1340 C   0  0  0  0  0  0  0  0  0  0  0  0
   25.2240   32.3340   13.8980 C   0  0  0  0  0  0  0  0  0  0  0  0
   25.7220   32.8850   15.9300 N   0  0  0  0  0  0  0  0  0  0  0  0
   25.1970   33.6760   13.9780 N   0  0  0  0  0  0  0  0  0  0  0  0
   25.5020   33.9780   15.2170 N   0  0  0  0  0  0  0  0  0  0  0  0
   24.8810   34.5870   12.8700 C   0  0  0  0  0  0  0  0  0  0  0  0
   26.1500   35.2710   12.4240 C   0  0  1  0  0  0  0  0  0  0  0  0
   27.2160   34.6420   13.1060 O   0  0  0  0  0  0  0  0  0  0  0  0
   26.9170   33.7420   13.4130 H   0  0  0  0  0  0  0  0  0  0  0  0
   26.3530   35.0550   10.9770 C   0  0  0  0  0  0  0  0  0  0  0  0
   25.6440   35.7450   10.0150 C   0  0  0  0  0  0  0  0  0  0  0  0
   27.3030   34.1120   10.5610 C   0  0  0  0  0  0  0  0  0  0  0  0
   25.8490   35.5300    8.6740 C   0  0  0  0  0  0  0  0  0  0  0  0
   27.5080   33.8970    9.2290 C   0  0  0  0  0  0  0  0  0  0  0  0
   26.7870   34.6000    8.2920 C   0  0  0  0  0  0  0  0  0  0  0  0
   29.8670   25.5550   16.9770 C   0  0  0  0  0  0  0  0  0  0  0  0
   28.3450   25.7220   17.0260 C   0  0  0  0  0  0  0  0  0  0  0  0
   27.6010   24.4010   16.9050 C   0  0  0  0  0  0  0  0  0  0  0  0
   26.5200   24.2620   17.9410 C   0  0  0  0  0  0  0  0  0  0  0  0
   25.1760   24.0610   17.2490 C   0  0  0  0  0  0  0  0  0  0  0  0
   24.2780   25.2100   17.5150 N   0  0  0  0  0  0  0  0  0  0  0  0
  1  4  1  0  0  0  0
  2 31  1  0  0  0  0
  2  1  1  0  0  0  0
  3  2  2  0  0  0  0
  5  1  1  0  0  0  0
  6  5  1  6  0  0  0
  6 29  1  0  0  0  0
  7 27  1  6  0  0  0
  7  6  1  0  0  0  0
  8 13  1  0  0  0  0
  8  7  1  1  0  0  0
  9 16  1  6  0  0  0
  9 10  1  0  0  0  0
 10 12  1  0  0  0  0
 11  9  1  0  0  0  0
 11  8  1  0  0  0  0
 12 20  1  1  0  0  0
 13 22  1  6  0  0  0
 13 12  1  0  0  0  0
 14  9  1  0  0  0  0
 14 15  1  0  0  0  0
 17 16  2  0  0  0  0
 18 19  1  0  0  0  0
 18 16  1  0  0  0  0
 20 21  1  0  0  0  0
 22 23  1  0  0  0  0
 23 26  2  0  0  0  0
 24 22  1  0  0  0  0
 25 23  1  0  0  0  0
 27 28  1  0  0  0  0
 29 30  1  0  0  0  0
 32 31  1  0  0  0  0
 33 32  1  0  0  0  0
 33 35  1  0  0  0  0
 34 36  1  0  0  0  0
 34 33  2  0  0  0  0
 36 37  1  0  0  0  0
 37 35  2  0  0  0  0
 38 36  1  0  0  0  0
 39 38  1  1  0  0  0
 39 40  1  0  0  0  0
 40 41  1  0  0  0  0
 42 39  1  0  0  0  0
 43 42  2  0  0  0  0
 44 42  1  0  0  0  0
 45 43  1  0  0  0  0
 46 44  2  0  0  0  0
 47 45  2  0  0  0  0
 47 46  1  0  0  0  0
 48 49  1  0  0  0  0
 50 49  1  0  0  0  0
 50 51  1  0  0  0  0
 52 53  1  0  0  0  0
 52 51  1  0  0  0  0
M  END
>  <REMARK>
 VINA RESULT:    -5.754      4.244      7.817
 INTER + INTRA:         -15.812
 INTER:                 -10.162
 INTRA:                  -5.650
 UNBOUND:                -5.012
 SMILES CC(=O)N[C@@H]1[C@@H](O)C[C@](O)(C(=O)O)O[C@H]1C(O)[C@H](O)CNC(=O)OCc1cn(CC(O)c2ccccc2)nn1
 SMILES IDX 21 1 22 2 23 3 20 5 18 6 16 7 15 8 9 9 8 10 14 11 6 12 5 13
 SMILES IDX 10 14 11 16 12 17 13 18 7 20 4 22 2 23 1 25 3 26 17 27 19 29
 SMILES IDX 24 31 25 32 26 33 27 34 39 35 28 36 38 37 29 38 30 39 31 40
 SMILES IDX 32 42 33 43 37 44 34 45 36 46 35 47
 H PARENT 21 4 10 15 13 19 7 21 4 24 17 28 19 30 31 41
 Flexibility Score: inf
  4 active torsions:
  status: ('A' for Active; 'I' for Inactive)
    1  A    between atoms: CA   and  CB  
    2  A    between atoms: CB   and  CG  
    3  A    between atoms: CG   and  CD  
    4  A    between atoms: CD   and  CE  

>  <TORSDO>
F 18

>  <BEGIN_>
RES LYS A 131

$$$$
ligand_68_pose_4_2HRL.pdbqt
 OpenBabel07062320523D

  6  5  0  0  0  0  0  0  0  0999 V2000
   33.1930   34.6630    9.2900 C   0  0  0  0  0  0  0  0  0  0  0  0
   32.0600   35.3600   10.0340 C   0  0  0  0  0  0  0  0  0  0  0  0
   30.7150   35.1970    9.3730 C   0  0  0  0  0  0  0  0  0  0  0  0
   30.2420   36.5180    8.7870 C   0  0  0  0  0  0  0  0  0  0  0  0
   29.2660   37.1990    9.7270 C   0  0  0  0  0  0  0  0  0  0  0  0
   28.3290   38.0830    8.9790 N   0  0  0  0  0  0  0  0  0  0  0  0
  1  2  1  0  0  0  0
  3  2  1  0  0  0  0
  4  3  1  0  0  0  0
  4  5  1  0  0  0  0
  6  5  1  0  0  0  0
M  END
>  <EGIN_R>
ES LYS A 135

>  <REMARK>
  4 active torsions:
  status: ('A' for Active; 'I' for Inactive)
    5  A    between atoms: CA   and  CB  
    6  A    between atoms: CB   and  CG  
    7  A    between atoms: CG   and  CD  
    8  A    between atoms: CD   and  CE  

$$$$
