ligand_14_pose_6_2HRL.pdbqt
 OpenBabel07062320523D

 50 51  0  0  1  0  0  0  0  0999 V2000
   31.4390   32.5500   15.1020 N   0  0  0  0  0  0  0  0  0  0  0  0
   31.9550   33.7600   15.6000 C   0  0  0  0  0  0  0  0  0  0  0  0
   31.9510   33.9940   16.8150 O   0  0  0  0  0  0  0  0  0  0  0  0
   31.4840   32.4600   14.0300 H   0  0  0  0  0  0  0  0  0  0  0  0
   30.8830   31.4760   15.8620 C   0  0  0  0  0  0  0  0  0  0  0  0
   29.3840   31.4770   15.7790 C   0  0  2  0  0  0  0  0  0  0  0  0
   28.7510   31.6850   17.1510 C   0  0  1  0  0  0  0  0  0  0  0  0
   28.9260   30.3610   17.9140 C   0  0  2  0  0  0  0  0  0  0  0  0
   26.9160   29.2920   18.4800 C   0  0  2  0  0  0  0  0  0  0  0  0
   26.8280   30.3060   19.6040 C   0  0  0  0  0  0  0  0  0  0  0  0
   27.9350   29.4970   17.6030 O   0  0  0  0  0  0  0  0  0  0  0  0
   28.1330   30.4110   20.3140 C   0  0  1  0  0  0  0  0  0  0  0  0
   29.2580   30.5800   19.3450 C   0  0  1  0  0  0  0  0  0  0  0  0
   25.7220   29.4780   17.7420 O   0  0  0  0  0  0  0  0  0  0  0  0
   25.4470   30.4400   17.8360 H   0  0  0  0  0  0  0  0  0  0  0  0
   26.8790   27.9060   19.0010 C   0  0  0  0  0  0  0  0  0  0  0  0
   25.7910   27.4130   19.3690 O   0  0  0  0  0  0  0  0  0  0  0  0
   28.0310   27.1460   19.0870 O   0  0  0  0  0  0  0  0  0  0  0  0
   28.0800   26.2770   18.5740 H   0  0  0  0  0  0  0  0  0  0  0  0
   28.0600   31.4860   21.1930 O   0  0  0  0  0  0  0  0  0  0  0  0
   27.1580   31.9040   21.1510 H   0  0  0  0  0  0  0  0  0  0  0  0
   30.4370   29.8130   19.7430 N   0  0  0  0  0  0  0  0  0  0  0  0
   31.3560   30.2760   20.6930 C   0  0  0  0  0  0  0  0  0  0  0  0
   30.5690   28.8930   19.2830 H   0  0  0  0  0  0  0  0  0  0  0  0
   32.5270   29.4290   21.0370 C   0  0  0  0  0  0  0  0  0  0  0  0
   31.1900   31.4070   21.2540 O   0  0  0  0  0  0  0  0  0  0  0  0
   29.4560   32.7010   17.7880 O   0  0  0  0  0  0  0  0  0  0  0  0
   29.1710   33.5990   17.5500 H   0  0  0  0  0  0  0  0  0  0  0  0
   28.8400   30.3890   15.1340 O   0  0  0  0  0  0  0  0  0  0  0  0
   28.1570   29.8980   15.6470 H   0  0  0  0  0  0  0  0  0  0  0  0
   32.4890   34.7470   14.7660 O   0  0  0  0  0  0  0  0  0  0  0  0
   31.7330   35.8930   14.4320 C   0  0  0  0  0  0  0  0  0  0  0  0
   30.5100   35.5590   13.6600 C   0  0  0  0  0  0  0  0  0  0  0  0
   29.2460   36.1350   13.7930 C   0  0  0  0  0  0  0  0  0  0  0  0
   30.3550   34.6460   12.6850 N   0  0  0  0  0  0  0  0  0  0  0  0
   28.3860   35.5750   12.9240 N   0  0  0  0  0  0  0  0  0  0  0  0
   29.1140   34.6620   12.2620 N   0  0  0  0  0  0  0  0  0  0  0  0
   26.9810   35.8570   12.7160 C   0  0  0  0  0  0  0  0  0  0  0  0
   26.1240   35.4200   13.8560 C   0  0  0  0  0  0  0  0  0  0  0  0
   26.3140   34.0490   14.2580 N   0  0  0  0  0  0  0  0  0  0  0  0
   26.3280   34.0050   15.7110 C   0  0  0  0  0  0  0  0  0  0  0  0
   25.2110   33.2010   13.8490 C   0  0  0  0  0  0  0  0  0  0  0  0
   25.5050   32.8350   16.1420 C   0  0  0  0  0  0  0  0  0  0  0  0
   25.3110   32.0680   14.8510 C   0  0  0  0  0  0  0  0  0  0  0  0
   29.8670   25.5550   16.9770 C   0  0  0  0  0  0  0  0  0  0  0  0
   28.3450   25.7220   17.0260 C   0  0  0  0  0  0  0  0  0  0  0  0
   27.6010   24.4010   16.9070 C   0  0  0  0  0  0  0  0  0  0  0  0
   26.1410   24.5410   17.2350 C   0  0  0  0  0  0  0  0  0  0  0  0
   25.7470   23.4860   18.2640 C   0  0  0  0  0  0  0  0  0  0  0  0
   24.9900   22.3880   17.6180 N   0  0  0  0  0  0  0  0  0  0  0  0
  1  2  1  0  0  0  0
  1  5  1  0  0  0  0
  2  3  2  0  0  0  0
  4  1  1  0  0  0  0
  6  5  1  1  0  0  0
  6  7  1  0  0  0  0
  7 27  1  1  0  0  0
  8  7  1  1  0  0  0
  8 13  1  0  0  0  0
  9 14  1  6  0  0  0
  9 16  1  0  0  0  0
  9 10  1  0  0  0  0
 10 12  1  0  0  0  0
 11  8  1  0  0  0  0
 11  9  1  0  0  0  0
 12 20  1  1  0  0  0
 13 22  1  1  0  0  0
 13 12  1  0  0  0  0
 14 15  1  0  0  0  0
 16 18  1  0  0  0  0
 16 17  2  0  0  0  0
 19 18  1  0  0  0  0
 21 20  1  0  0  0  0
 22 23  1  0  0  0  0
 23 25  1  0  0  0  0
 23 26  2  0  0  0  0
 24 22  1  0  0  0  0
 28 27  1  0  0  0  0
 29 30  1  0  0  0  0
 29  6  1  0  0  0  0
 31  2  1  0  0  0  0
 32 31  1  0  0  0  0
 33 34  2  0  0  0  0
 33 32  1  0  0  0  0
 35 33  1  0  0  0  0
 36 34  1  0  0  0  0
 37 35  2  0  0  0  0
 37 36  1  0  0  0  0
 38 36  1  0  0  0  0
 38 39  1  0  0  0  0
 39 40  1  0  0  0  0
 40 41  1  0  0  0  0
 41 43  1  0  0  0  0
 42 40  1  0  0  0  0
 42 44  1  0  0  0  0
 44 43  1  0  0  0  0
 45 46  1  0  0  0  0
 47 46  1  0  0  0  0
 47 48  1  0  0  0  0
 48 49  1  0  0  0  0
 50 49  1  0  0  0  0
M  END
>  <REMARK>
 VINA RESULT:    -4.489      5.616     10.569
 INTER + INTRA:         -14.289
 INTER:                  -8.148
 INTRA:                  -6.141
 UNBOUND:                -5.994
 SMILES CC(=O)N[C@@H]1[C@@H](O)C[C@](O)(C(=O)O)O[C@H]1C(O)[C@H](O)CNC(=O)OCc1cn(CCN2CCCC2)nn1
 SMILES IDX 21 1 22 2 23 3 20 5 18 6 16 7 15 8 9 9 8 10 14 11 6 12 5 13
 SMILES IDX 10 14 11 16 12 17 13 18 7 20 4 22 2 23 1 25 3 26 17 27 19 29
 SMILES IDX 24 31 25 32 26 33 27 34 37 35 28 36 36 37 29 38 30 39 31 40
 SMILES IDX 32 41 35 42 33 43 34 44
 H PARENT 21 4 10 15 13 19 7 21 4 24 17 28 19 30
 Flexibility Score: inf
  4 active torsions:
  status: ('A' for Active; 'I' for Inactive)
    1  A    between atoms: CA   and  CB  
    2  A    between atoms: CB   and  CG  
    3  A    between atoms: CG   and  CD  
    4  A    between atoms: CD   and  CE  

>  <TORSDO>
F 17

>  <BEGIN_>
RES LYS A 131

$$$$
ligand_14_pose_6_2HRL.pdbqt
 OpenBabel07062320523D

  6  5  0  0  0  0  0  0  0  0999 V2000
   33.1930   34.6630    9.2900 C   0  0  0  0  0  0  0  0  0  0  0  0
   32.0600   35.3600   10.0340 C   0  0  0  0  0  0  0  0  0  0  0  0
   30.8340   35.5870    9.1880 C   0  0  0  0  0  0  0  0  0  0  0  0
   30.1850   34.2620    8.8180 C   0  0  0  0  0  0  0  0  0  0  0  0
   28.7520   34.4780    8.3700 C   0  0  0  0  0  0  0  0  0  0  0  0
   27.7920   33.8740    9.3350 N   0  0  0  0  0  0  0  0  0  0  0  0
  1  2  1  0  0  0  0
  3  2  1  0  0  0  0
  4  3  1  0  0  0  0
  5  4  1  0  0  0  0
  5  6  1  0  0  0  0
M  END
>  <EGIN_R>
ES LYS A 135

>  <REMARK>
  4 active torsions:
  status: ('A' for Active; 'I' for Inactive)
    5  A    between atoms: CA   and  CB  
    6  A    between atoms: CB   and  CG  
    7  A    between atoms: CG   and  CD  
    8  A    between atoms: CD   and  CE  

$$$$
