ligand_87_pose_12_2HRL.pdbqt
 OpenBabel07062320523D

 52 54  0  0  1  0  0  0  0  0999 V2000
   25.2230   29.1790   17.8620 C   0  0  0  0  0  0  0  0  0  0  0  0
   26.1800   28.9490   18.9950 C   0  0  2  0  0  0  0  0  0  0  0  0
   27.5100   28.4150   18.4780 C   0  0  2  0  0  0  0  0  0  0  0  0
   28.5900   28.8080   19.4850 C   0  0  2  0  0  0  0  0  0  0  0  0
   29.6780   27.7800   21.2830 C   0  0  2  0  0  0  0  0  0  0  0  0
   29.2270   28.8000   22.2810 C   0  0  0  0  0  0  0  0  0  0  0  0
   28.9490   27.7000   20.1430 O   0  0  0  0  0  0  0  0  0  0  0  0
   28.2070   29.7640   21.7790 C   0  0  1  0  0  0  0  0  0  0  0  0
   28.2010   30.0050   20.3070 C   0  0  1  0  0  0  0  0  0  0  0  0
   29.6000   26.5230   21.8890 O   0  0  0  0  0  0  0  0  0  0  0  0
   28.8260   26.4430   22.4990 H   0  0  0  0  0  0  0  0  0  0  0  0
   31.0950   27.9580   20.9010 C   0  0  0  0  0  0  0  0  0  0  0  0
   31.7180   28.9710   21.2820 O   0  0  0  0  0  0  0  0  0  0  0  0
   31.8090   27.0520   20.1220 O   0  0  0  0  0  0  0  0  0  0  0  0
   32.7890   27.2480   19.8670 H   0  0  0  0  0  0  0  0  0  0  0  0
   26.9550   29.3080   22.2170 O   0  0  0  0  0  0  0  0  0  0  0  0
   26.6890   28.5070   21.7060 H   0  0  0  0  0  0  0  0  0  0  0  0
   28.8950   31.1900   19.8840 N   0  0  0  0  0  0  0  0  0  0  0  0
   28.2630   32.3160   19.3060 C   0  0  0  0  0  0  0  0  0  0  0  0
   29.9420   31.2520   20.0010 H   0  0  0  0  0  0  0  0  0  0  0  0
   28.9570   33.5430   18.8630 C   0  0  0  0  0  0  0  0  0  0  0  0
   27.0190   32.2240   19.1770 O   0  0  0  0  0  0  0  0  0  0  0  0
   27.8120   28.8950   17.2150 O   0  0  0  0  0  0  0  0  0  0  0  0
   27.2490   28.4060   16.5610 H   0  0  0  0  0  0  0  0  0  0  0  0
   25.7080   28.0720   19.9290 O   0  0  0  0  0  0  0  0  0  0  0  0
   26.1500   27.1790   19.8200 H   0  0  0  0  0  0  0  0  0  0  0  0
   25.5590   30.3120   17.0710 N   0  0  0  0  0  0  0  0  0  0  0  0
   25.1790   30.5110   15.7330 C   0  0  0  0  0  0  0  0  0  0  0  0
   26.1500   31.0870   17.5120 H   0  0  0  0  0  0  0  0  0  0  0  0
   24.5000   29.6850   15.0960 O   0  0  0  0  0  0  0  0  0  0  0  0
   25.5780   31.6900   15.0740 O   0  0  0  0  0  0  0  0  0  0  0  0
   26.2490   32.6840   15.8200 C   0  0  0  0  0  0  0  0  0  0  0  0
   27.6910   32.6270   15.5790 C   0  0  0  0  0  0  0  0  0  0  0  0
   28.4730   33.6760   15.1110 C   0  0  0  0  0  0  0  0  0  0  0  0
   28.5040   31.5870   15.7560 N   0  0  0  0  0  0  0  0  0  0  0  0
   29.7330   33.2310   15.0220 N   0  0  0  0  0  0  0  0  0  0  0  0
   29.7190   31.9750   15.4150 N   0  0  0  0  0  0  0  0  0  0  0  0
   30.9000   33.9560   14.5870 C   0  0  1  0  0  0  0  0  0  0  0  0
   30.4810   35.3750   14.2040 C   0  0  0  0  0  0  0  0  0  0  0  0
   31.8280   34.0550   15.7780 C   0  0  0  0  0  0  0  0  0  0  0  0
   31.7210   36.1990   13.9930 C   0  0  1  0  0  0  0  0  0  0  0  0
   32.9020   35.0630   15.5300 C   0  0  2  0  0  0  0  0  0  0  0  0
   32.4160   36.3780   15.2540 N   0  0  0  0  0  0  0  0  0  0  0  0
   32.7400   35.4130   13.1890 C   0  0  0  0  0  0  0  0  0  0  0  0
   33.5700   34.6850   14.2010 C   0  0  0  0  0  0  0  0  0  0  0  0
   31.5790   36.9210   16.2840 C   0  0  0  0  0  0  0  0  0  0  0  0
   29.8670   25.5550   16.9770 C   0  0  0  0  0  0  0  0  0  0  0  0
   28.3450   25.7220   17.0260 C   0  0  0  0  0  0  0  0  0  0  0  0
   27.6010   24.4010   16.8990 C   0  0  0  0  0  0  0  0  0  0  0  0
   26.1280   24.5530   17.1600 C   0  0  0  0  0  0  0  0  0  0  0  0
   25.6040   23.3050   17.8630 C   0  0  0  0  0  0  0  0  0  0  0  0
   25.6960   23.4600   19.3340 N   0  0  0  0  0  0  0  0  0  0  0  0
  2  1  1  6  0  0  0
  2 25  1  0  0  0  0
  3 23  1  6  0  0  0
  3  2  1  0  0  0  0
  4  3  1  6  0  0  0
  4  7  1  0  0  0  0
  4  9  1  0  0  0  0
  5 12  1  6  0  0  0
  5 10  1  0  0  0  0
  5  6  1  0  0  0  0
  7  5  1  0  0  0  0
  8 16  1  6  0  0  0
  8  6  1  0  0  0  0
  9 18  1  1  0  0  0
  9  8  1  0  0  0  0
 10 11  1  0  0  0  0
 12 13  2  0  0  0  0
 14 12  1  0  0  0  0
 15 14  1  0  0  0  0
 17 16  1  0  0  0  0
 18 20  1  0  0  0  0
 19 18  1  0  0  0  0
 21 19  1  0  0  0  0
 22 19  2  0  0  0  0
 24 23  1  0  0  0  0
 26 25  1  0  0  0  0
 27 29  1  0  0  0  0
 27  1  1  0  0  0  0
 28 27  1  0  0  0  0
 30 28  2  0  0  0  0
 31 28  1  0  0  0  0
 31 32  1  0  0  0  0
 33 35  1  0  0  0  0
 33 32  1  0  0  0  0
 34 33  2  0  0  0  0
 36 34  1  0  0  0  0
 36 37  1  0  0  0  0
 37 35  2  0  0  0  0
 38 39  1  1  0  0  0
 38 36  1  0  0  0  0
 38 40  1  0  0  0  0
 41 44  1  6  0  0  0
 41 39  1  0  0  0  0
 41 43  1  0  0  0  0
 42 45  1  6  0  0  0
 42 40  1  0  0  0  0
 43 42  1  0  0  0  0
 43 46  1  0  0  0  0
 44 45  1  0  0  0  0
 47 48  1  0  0  0  0
 49 48  1  0  0  0  0
 49 50  1  0  0  0  0
 50 51  1  0  0  0  0
 51 52  1  0  0  0  0
M  END
>  <REMARK>
 VINA RESULT:    -5.212      1.882      3.396
 INTER + INTRA:         -14.522
 INTER:                  -8.434
 INTRA:                  -6.088
 UNBOUND:                -5.502
 SMILES CC(=O)N[C@@H]1[C@@H](O)C[C@](O)(C(=O)O)O[C@H]1C(O)[C@H](O)CNC(=O)OCc1cn([C@@H]2C[C@H]3CC[C@@H](C2)N3C)nn1
 SMILES IDX 20 1 18 2 16 3 15 4 9 5 8 6 14 7 6 8 5 9 10 10 11 12 12 13
 SMILES IDX 13 14 7 16 4 18 2 19 1 21 3 22 17 23 19 25 21 27 22 28 23 30
 SMILES IDX 24 31 25 32 26 33 27 34 39 35 28 36 38 37 29 38 35 39 30 40
 SMILES IDX 34 41 31 42 36 43 33 44 32 45 37 46
 H PARENT 10 11 13 15 7 17 4 20 17 24 19 26 21 29
 Flexibility Score: inf
  4 active torsions:
  status: ('A' for Active; 'I' for Inactive)
    1  A    between atoms: CA   and  CB  
    2  A    between atoms: CB   and  CG  
    3  A    between atoms: CG   and  CD  
    4  A    between atoms: CD   and  CE  

>  <TORSDO>
F 15

>  <BEGIN_>
RES LYS A 131

$$$$
ligand_87_pose_12_2HRL.pdbqt
 OpenBabel07062320523D

  6  5  0  0  0  0  0  0  0  0999 V2000
   33.1930   34.6630    9.2900 C   0  0  0  0  0  0  0  0  0  0  0  0
   32.0600   35.3600   10.0340 C   0  0  0  0  0  0  0  0  0  0  0  0
   30.8020   35.5040    9.2170 C   0  0  0  0  0  0  0  0  0  0  0  0
   30.1460   34.1500    8.9980 C   0  0  0  0  0  0  0  0  0  0  0  0
   28.6880   34.3200    8.6170 C   0  0  0  0  0  0  0  0  0  0  0  0
   27.7930   33.6700    9.6150 N   0  0  0  0  0  0  0  0  0  0  0  0
  1  2  1  0  0  0  0
  3  2  1  0  0  0  0
  4  3  1  0  0  0  0
  5  4  1  0  0  0  0
  5  6  1  0  0  0  0
M  END
>  <EGIN_R>
ES LYS A 135

>  <REMARK>
  4 active torsions:
  status: ('A' for Active; 'I' for Inactive)
    5  A    between atoms: CA   and  CB  
    6  A    between atoms: CB   and  CG  
    7  A    between atoms: CG   and  CD  
    8  A    between atoms: CD   and  CE  

$$$$
