ligand_74_pose_7_2HRL.pdbqt
 OpenBabel07062320523D

 54 54  0  0  1  0  0  0  0  0999 V2000
   28.5190   30.8590   19.3700 O   0  0  0  0  0  0  0  0  0  0  0  0
   29.7210   31.3840   18.8640 C   0  0  0  0  0  0  0  0  0  0  0  0
   29.7250   32.3270   17.8080 N   0  0  0  0  0  0  0  0  0  0  0  0
   28.7670   32.6100   17.4300 H   0  0  0  0  0  0  0  0  0  0  0  0
   30.7940   30.9890   19.3790 O   0  0  0  0  0  0  0  0  0  0  0  0
   30.9290   32.8950   17.2470 C   0  0  0  0  0  0  0  0  0  0  0  0
   31.0780   32.4520   15.8330 C   0  0  2  0  0  0  0  0  0  0  0  0
   30.1310   33.1520   14.8710 C   0  0  2  0  0  0  0  0  0  0  0  0
   30.3140   34.6370   14.8980 C   0  0  2  0  0  0  0  0  0  0  0  0
   28.5340   36.1020   14.6210 C   0  0  2  0  0  0  0  0  0  0  0  0
   29.3430   37.1140   13.8460 C   0  0  0  0  0  0  0  0  0  0  0  0
   29.3100   35.3470   15.4860 O   0  0  0  0  0  0  0  0  0  0  0  0
   30.7890   36.6880   13.7060 C   0  0  1  0  0  0  0  0  0  0  0  0
   30.7410   35.1640   13.5310 C   0  0  1  0  0  0  0  0  0  0  0  0
   27.7810   35.2990   13.7590 O   0  0  0  0  0  0  0  0  0  0  0  0
   27.7900   35.6080   12.8340 H   0  0  0  0  0  0  0  0  0  0  0  0
   27.5660   36.8600   15.4580 C   0  0  0  0  0  0  0  0  0  0  0  0
   28.0000   37.7940   16.1990 O   0  0  0  0  0  0  0  0  0  0  0  0
   26.2110   36.6080   15.4760 O   0  0  0  0  0  0  0  0  0  0  0  0
   25.5550   37.3760   15.2670 H   0  0  0  0  0  0  0  0  0  0  0  0
   31.4410   37.3110   12.6710 O   0  0  0  0  0  0  0  0  0  0  0  0
   32.3520   37.5670   13.0160 H   0  0  0  0  0  0  0  0  0  0  0  0
   32.0480   34.6430   13.2180 N   0  0  0  0  0  0  0  0  0  0  0  0
   33.1830   34.9900   14.0150 C   0  0  0  0  0  0  0  0  0  0  0  0
   32.2340   33.9980   12.4110 H   0  0  0  0  0  0  0  0  0  0  0  0
   34.5330   34.4740   13.7210 C   0  0  0  0  0  0  0  0  0  0  0  0
   33.0330   35.7590   14.9970 O   0  0  0  0  0  0  0  0  0  0  0  0
   28.8360   32.7320   15.0670 O   0  0  0  0  0  0  0  0  0  0  0  0
   28.6430   32.7290   16.0270 H   0  0  0  0  0  0  0  0  0  0  0  0
   30.7770   31.0710   15.7690 O   0  0  0  0  0  0  0  0  0  0  0  0
   30.5850   30.7920   14.8460 H   0  0  0  0  0  0  0  0  0  0  0  0
   28.0420   29.6650   18.8020 C   0  0  0  0  0  0  0  0  0  0  0  0
   27.3520   29.8890   17.5190 C   0  0  0  0  0  0  0  0  0  0  0  0
   26.0090   29.7640   17.1940 C   0  0  0  0  0  0  0  0  0  0  0  0
   27.9460   30.2770   16.3840 N   0  0  0  0  0  0  0  0  0  0  0  0
   25.8420   30.0760   15.8980 N   0  0  0  0  0  0  0  0  0  0  0  0
   27.0260   30.3810   15.4310 N   0  0  0  0  0  0  0  0  0  0  0  0
   24.5380   30.0590   15.1800 C   0  0  0  0  0  0  0  0  0  0  0  0
   24.5100   31.1480   14.1650 C   0  0  2  0  0  0  0  0  0  0  0  0
   24.0460   32.4170   14.8590 C   0  0  0  0  0  0  0  0  0  0  0  0
   25.0770   33.4720   14.6870 C   0  0  0  0  0  0  0  0  0  0  0  0
   24.9730   34.3300   13.7920 O   0  0  0  0  0  0  0  0  0  0  0  0
   26.1620   33.4610   15.5680 O   0  0  0  0  0  0  0  0  0  0  0  0
   26.6540   32.6050   15.7330 H   0  0  0  0  0  0  0  0  0  0  0  0
   23.7560   30.8010   12.9490 C   0  0  0  0  0  0  0  0  0  0  0  0
   22.3860   30.2600   13.1010 C   0  0  0  0  0  0  0  0  0  0  0  0
   21.4380   31.3800   12.5840 C   0  0  0  0  0  0  0  0  0  0  0  0
   22.0500   29.0250   12.3370 C   0  0  0  0  0  0  0  0  0  0  0  0
   29.8670   25.5550   16.9770 C   0  0  0  0  0  0  0  0  0  0  0  0
   28.3450   25.7220   17.0260 C   0  0  0  0  0  0  0  0  0  0  0  0
   27.5990   24.4230   16.7610 C   0  0  0  0  0  0  0  0  0  0  0  0
   26.9010   23.9100   17.9890 C   0  0  0  0  0  0  0  0  0  0  0  0
   25.6680   23.1120   17.5780 C   0  0  0  0  0  0  0  0  0  0  0  0
   24.6500   24.0040   16.9740 N   0  0  0  0  0  0  0  0  0  0  0  0
  2  1  1  0  0  0  0
  2  5  2  0  0  0  0
  3  2  1  0  0  0  0
  4  3  1  0  0  0  0
  6  3  1  0  0  0  0
  7  6  1  1  0  0  0
  8 28  1  1  0  0  0
  8  7  1  0  0  0  0
  9  8  1  6  0  0  0
  9 12  1  0  0  0  0
 10 15  1  6  0  0  0
 10 17  1  0  0  0  0
 10 12  1  0  0  0  0
 11 10  1  0  0  0  0
 13 21  1  6  0  0  0
 13 11  1  0  0  0  0
 14 23  1  1  0  0  0
 14 13  1  0  0  0  0
 14  9  1  0  0  0  0
 16 15  1  0  0  0  0
 17 19  1  0  0  0  0
 17 18  2  0  0  0  0
 20 19  1  0  0  0  0
 21 22  1  0  0  0  0
 23 24  1  0  0  0  0
 24 27  2  0  0  0  0
 25 23  1  0  0  0  0
 26 24  1  0  0  0  0
 28 29  1  0  0  0  0
 30  7  1  0  0  0  0
 31 30  1  0  0  0  0
 32  1  1  0  0  0  0
 33 32  1  0  0  0  0
 34 33  2  0  0  0  0
 35 33  1  0  0  0  0
 36 34  1  0  0  0  0
 37 36  1  0  0  0  0
 37 35  2  0  0  0  0
 38 36  1  0  0  0  0
 39 45  1  6  0  0  0
 39 40  1  0  0  0  0
 39 38  1  0  0  0  0
 41 40  1  0  0  0  0
 41 43  1  0  0  0  0
 42 41  2  0  0  0  0
 43 44  1  0  0  0  0
 45 46  1  0  0  0  0
 47 46  1  0  0  0  0
 48 46  1  0  0  0  0
 49 50  1  0  0  0  0
 51 50  1  0  0  0  0
 51 52  1  0  0  0  0
 53 52  1  0  0  0  0
 54 53  1  0  0  0  0
M  END
>  <REMARK>
 VINA RESULT:    -4.291      3.511      7.803
 INTER + INTRA:         -15.925
 INTER:                  -8.658
 INTRA:                  -7.267
 UNBOUND:                -7.118
 SMILES CC(=O)N[C@@H]1[C@@H](O)C[C@](O)(C(=O)O)O[C@H]1C(O)[C@H](O)CNC(=O)OCc1cn(C[C@H](CC(=O)O)CC(C)C)nn1
 SMILES IDX 24 1 22 2 21 3 23 5 20 6 18 7 16 8 15 9 9 10 8 11 14 12 6 13
 SMILES IDX 5 14 10 15 11 17 12 18 13 19 7 21 4 23 2 24 1 26 3 27 17 28
 SMILES IDX 19 30 25 32 26 33 27 34 40 35 28 36 39 37 29 38 30 39 31 40
 SMILES IDX 32 41 33 42 34 43 35 45 36 46 37 47 38 48
 H PARENT 21 4 10 16 13 20 7 22 4 25 17 29 19 31 34 44
 Flexibility Score: inf
  4 active torsions:
  status: ('A' for Active; 'I' for Inactive)
    1  A    between atoms: CA   and  CB  
    2  A    between atoms: CB   and  CG  
    3  A    between atoms: CG   and  CD  
    4  A    between atoms: CD   and  CE  

>  <TORSDO>
F 21

>  <BEGIN_>
RES LYS A 131

$$$$
ligand_74_pose_7_2HRL.pdbqt
 OpenBabel07062320523D

  6  5  0  0  0  0  0  0  0  0999 V2000
   33.1930   34.6630    9.2900 C   0  0  0  0  0  0  0  0  0  0  0  0
   32.0600   35.3600   10.0340 C   0  0  0  0  0  0  0  0  0  0  0  0
   30.7090   34.7370    9.7940 C   0  0  0  0  0  0  0  0  0  0  0  0
   30.4800   34.5080    8.3080 C   0  0  0  0  0  0  0  0  0  0  0  0
   29.0380   34.8020    7.9410 C   0  0  0  0  0  0  0  0  0  0  0  0
   28.1030   34.2800    8.9760 N   0  0  0  0  0  0  0  0  0  0  0  0
  1  2  1  0  0  0  0
  3  2  1  0  0  0  0
  4  3  1  0  0  0  0
  5  4  1  0  0  0  0
  5  6  1  0  0  0  0
M  END
>  <EGIN_R>
ES LYS A 135

>  <REMARK>
  4 active torsions:
  status: ('A' for Active; 'I' for Inactive)
    5  A    between atoms: CA   and  CB  
    6  A    between atoms: CB   and  CG  
    7  A    between atoms: CG   and  CD  
    8  A    between atoms: CD   and  CE  

$$$$
