ligand_12_pose_16_2HRL.pdbqt
 OpenBabel07062320523D

 52 53  0  0  1  0  0  0  0  0999 V2000
   22.7840   40.1900   10.8570 N   0  0  0  0  0  0  0  0  0  0  0  0
   24.0860   40.1490   11.4380 C   0  0  0  0  0  0  0  0  0  0  0  0
   25.0240   40.8810   10.9980 O   0  0  0  0  0  0  0  0  0  0  0  0
   22.0440   39.5800   11.2410 H   0  0  0  0  0  0  0  0  0  0  0  0
   22.5830   41.1000    9.7480 C   0  0  0  0  0  0  0  0  0  0  0  0
   22.0060   40.4080    8.5420 C   0  0  2  0  0  0  0  0  0  0  0  0
   23.1040   39.7040    7.7750 C   0  0  2  0  0  0  0  0  0  0  0  0
   23.0720   38.2220    7.9470 C   0  0  2  0  0  0  0  0  0  0  0  0
   21.8000   36.5510    8.9560 C   0  0  2  0  0  0  0  0  0  0  0  0
   23.0700   35.7160    8.8760 C   0  0  0  0  0  0  0  0  0  0  0  0
   22.0390   37.9140    8.8270 O   0  0  0  0  0  0  0  0  0  0  0  0
   24.1870   36.5680    9.4390 C   0  0  1  0  0  0  0  0  0  0  0  0
   24.4020   37.6850    8.4310 C   0  0  1  0  0  0  0  0  0  0  0  0
   21.3140   36.3670   10.2490 O   0  0  0  0  0  0  0  0  0  0  0  0
   20.8600   37.1750   10.5960 H   0  0  0  0  0  0  0  0  0  0  0  0
   20.7980   36.0610    8.0010 C   0  0  0  0  0  0  0  0  0  0  0  0
   20.6470   34.8240    7.8440 O   0  0  0  0  0  0  0  0  0  0  0  0
   19.9880   36.8970    7.2430 O   0  0  0  0  0  0  0  0  0  0  0  0
   19.7660   36.6080    6.2950 H   0  0  0  0  0  0  0  0  0  0  0  0
   23.8540   37.0920   10.6840 O   0  0  0  0  0  0  0  0  0  0  0  0
   22.9060   37.4270   10.6430 H   0  0  0  0  0  0  0  0  0  0  0  0
   25.1150   37.1100    7.3110 N   0  0  0  0  0  0  0  0  0  0  0  0
   26.5140   37.3140    7.1760 C   0  0  0  0  0  0  0  0  0  0  0  0
   24.6530   36.5310    6.5670 H   0  0  0  0  0  0  0  0  0  0  0  0
   27.2970   36.7450    6.0450 C   0  0  0  0  0  0  0  0  0  0  0  0
   27.1470   37.9950    8.0230 O   0  0  0  0  0  0  0  0  0  0  0  0
   24.3130   40.2950    8.0490 O   0  0  0  0  0  0  0  0  0  0  0  0
   24.3350   41.1710    7.5690 H   0  0  0  0  0  0  0  0  0  0  0  0
   21.3510   41.3460    7.7540 O   0  0  0  0  0  0  0  0  0  0  0  0
   20.8580   41.9870    8.3310 H   0  0  0  0  0  0  0  0  0  0  0  0
   24.3940   39.3160   12.5040 O   0  0  0  0  0  0  0  0  0  0  0  0
   23.5940   39.1890   13.6620 C   0  0  0  0  0  0  0  0  0  0  0  0
   22.7240   37.9930   13.6290 C   0  0  0  0  0  0  0  0  0  0  0  0
   22.8000   36.8040   14.3240 C   0  0  0  0  0  0  0  0  0  0  0  0
   21.6340   37.8710   12.8510 N   0  0  0  0  0  0  0  0  0  0  0  0
   21.7710   36.0020   13.9540 N   0  0  0  0  0  0  0  0  0  0  0  0
   21.0890   36.6920   13.0590 N   0  0  0  0  0  0  0  0  0  0  0  0
   21.4720   34.6490   14.4460 C   0  0  0  0  0  0  0  0  0  0  0  0
   22.4380   33.7650   13.9740 O   0  0  0  0  0  0  0  0  0  0  0  0
   22.0460   33.1160   12.8270 C   0  0  0  0  0  0  0  0  0  0  0  0
   22.4100   31.6860   12.7770 C   0  0  0  0  0  0  0  0  0  0  0  0
   23.7110   31.3000   13.0270 C   0  0  0  0  0  0  0  0  0  0  0  0
   21.4750   30.7240   12.4900 C   0  0  0  0  0  0  0  0  0  0  0  0
   24.0760   29.9520   12.9910 C   0  0  0  0  0  0  0  0  0  0  0  0
   21.8420   29.3880   12.4560 C   0  0  0  0  0  0  0  0  0  0  0  0
   23.1210   28.9980   12.7010 C   0  0  0  0  0  0  0  0  0  0  0  0
   29.8670   25.5550   16.9770 C   0  0  0  0  0  0  0  0  0  0  0  0
   28.3450   25.7220   17.0260 C   0  0  0  0  0  0  0  0  0  0  0  0
   27.6020   24.4000   16.9090 C   0  0  0  0  0  0  0  0  0  0  0  0
   26.3930   24.3490   17.8020 C   0  0  0  0  0  0  0  0  0  0  0  0
   26.4180   25.5350   18.7610 C   0  0  0  0  0  0  0  0  0  0  0  0
   25.0810   25.7420   19.3670 N   0  0  0  0  0  0  0  0  0  0  0  0
  1  4  1  0  0  0  0
  1  2  1  0  0  0  0
  2 31  1  0  0  0  0
  3  2  2  0  0  0  0
  5  1  1  0  0  0  0
  6  5  1  1  0  0  0
  7 27  1  1  0  0  0
  7  6  1  0  0  0  0
  8  7  1  1  0  0  0
  8 13  1  0  0  0  0
  8 11  1  0  0  0  0
  9 16  1  6  0  0  0
  9 14  1  0  0  0  0
 10  9  1  0  0  0  0
 10 12  1  0  0  0  0
 11  9  1  0  0  0  0
 12 20  1  1  0  0  0
 13 22  1  6  0  0  0
 13 12  1  0  0  0  0
 14 15  1  0  0  0  0
 17 16  2  0  0  0  0
 18 16  1  0  0  0  0
 19 18  1  0  0  0  0
 21 20  1  0  0  0  0
 23 22  1  0  0  0  0
 23 26  2  0  0  0  0
 24 22  1  0  0  0  0
 25 23  1  0  0  0  0
 28 27  1  0  0  0  0
 29 30  1  0  0  0  0
 29  6  1  0  0  0  0
 31 32  1  0  0  0  0
 33 32  1  0  0  0  0
 33 34  2  0  0  0  0
 35 37  2  0  0  0  0
 35 33  1  0  0  0  0
 36 34  1  0  0  0  0
 36 38  1  0  0  0  0
 37 36  1  0  0  0  0
 39 38  1  0  0  0  0
 40 39  1  0  0  0  0
 41 40  1  0  0  0  0
 41 42  2  0  0  0  0
 43 41  1  0  0  0  0
 44 42  1  0  0  0  0
 45 43  2  0  0  0  0
 45 46  1  0  0  0  0
 46 44  2  0  0  0  0
 47 48  1  0  0  0  0
 49 48  1  0  0  0  0
 49 50  1  0  0  0  0
 50 51  1  0  0  0  0
 51 52  1  0  0  0  0
M  END
>  <REMARK>
 VINA RESULT:    -5.857      2.353      4.374
 INTER + INTRA:         -14.938
 INTER:                  -7.962
 INTRA:                  -6.976
 UNBOUND:                -3.774
 SMILES CC(=O)N[C@@H]1[C@@H](O)C[C@](O)(C(=O)O)O[C@H]1C(O)[C@H](O)CNC(=O)OCc1cn(COCc2ccccc2)nn1
 SMILES IDX 21 1 22 2 23 3 20 5 18 6 16 7 15 8 9 9 8 10 14 11 6 12 5 13
 SMILES IDX 10 14 11 16 12 17 13 18 7 20 4 22 2 23 1 25 3 26 17 27 19 29
 SMILES IDX 24 31 25 32 26 33 27 34 39 35 28 36 38 37 29 38 30 39 31 40
 SMILES IDX 32 41 33 42 37 43 34 44 36 45 35 46
 H PARENT 21 4 10 15 13 19 7 21 4 24 17 28 19 30
 Flexibility Score: inf
  4 active torsions:
  status: ('A' for Active; 'I' for Inactive)
    1  A    between atoms: CA   and  CB  
    2  A    between atoms: CB   and  CG  
    3  A    between atoms: CG   and  CD  
    4  A    between atoms: CD   and  CE  

>  <TORSDO>
F 18

>  <BEGIN_>
RES LYS A 131

$$$$
ligand_12_pose_16_2HRL.pdbqt
 OpenBabel07062320523D

  6  5  0  0  0  0  0  0  0  0999 V2000
   33.1930   34.6630    9.2900 C   0  0  0  0  0  0  0  0  0  0  0  0
   32.0600   35.3600   10.0340 C   0  0  0  0  0  0  0  0  0  0  0  0
   30.7510   34.6160    9.9720 C   0  0  0  0  0  0  0  0  0  0  0  0
   30.3190   34.4090    8.5280 C   0  0  0  0  0  0  0  0  0  0  0  0
   28.8080   34.4570    8.4120 C   0  0  0  0  0  0  0  0  0  0  0  0
   28.1590   33.7500    9.5510 N   0  0  0  0  0  0  0  0  0  0  0  0
  1  2  1  0  0  0  0
  3  2  1  0  0  0  0
  4  3  1  0  0  0  0
  5  4  1  0  0  0  0
  5  6  1  0  0  0  0
M  END
>  <EGIN_R>
ES LYS A 135

>  <REMARK>
  4 active torsions:
  status: ('A' for Active; 'I' for Inactive)
    5  A    between atoms: CA   and  CB  
    6  A    between atoms: CB   and  CG  
    7  A    between atoms: CG   and  CD  
    8  A    between atoms: CD   and  CE  

$$$$
