ligand_0_pose_19_2HRL.pdbqt
 OpenBabel07062320523D

 54 55  0  0  1  0  0  0  0  0999 V2000
   32.1410   33.9810   19.7540 N   0  0  0  0  0  0  0  0  0  0  0  0
   31.9690   35.3620   20.0340 C   0  0  0  0  0  0  0  0  0  0  0  0
   30.9380   35.7360   20.6210 O   0  0  0  0  0  0  0  0  0  0  0  0
   33.0410   33.7310   19.2520 H   0  0  0  0  0  0  0  0  0  0  0  0
   31.1990   32.9470   20.1010 C   0  0  0  0  0  0  0  0  0  0  0  0
   30.3070   32.5580   18.9340 C   0  0  2  0  0  0  0  0  0  0  0  0
   30.3500   31.0840   18.6630 C   0  0  1  0  0  0  0  0  0  0  0  0
   29.5010   30.2620   19.5560 C   0  0  2  0  0  0  0  0  0  0  0  0
   29.7050   28.3340   20.8650 C   0  0  2  0  0  0  0  0  0  0  0  0
   28.3450   28.7680   21.3260 C   0  0  0  0  0  0  0  0  0  0  0  0
   30.3250   29.2070   20.0300 O   0  0  0  0  0  0  0  0  0  0  0  0
   27.4380   29.2110   20.2290 C   0  0  1  0  0  0  0  0  0  0  0  0
   28.2790   29.6290   19.0270 C   0  0  1  0  0  0  0  0  0  0  0  0
   29.6120   27.0320   20.3180 O   0  0  0  0  0  0  0  0  0  0  0  0
   29.9580   27.0770   19.3800 H   0  0  0  0  0  0  0  0  0  0  0  0
   30.5470   28.1920   22.0880 C   0  0  0  0  0  0  0  0  0  0  0  0
   31.2010   27.1140   22.2400 O   0  0  0  0  0  0  0  0  0  0  0  0
   30.6570   29.1620   23.0600 O   0  0  0  0  0  0  0  0  0  0  0  0
   30.0340   29.9550   23.0800 H   0  0  0  0  0  0  0  0  0  0  0  0
   26.5770   28.1740   19.9080 O   0  0  0  0  0  0  0  0  0  0  0  0
   25.9650   27.9240   20.6440 H   0  0  0  0  0  0  0  0  0  0  0  0
   27.5270   30.2950   18.0350 N   0  0  0  0  0  0  0  0  0  0  0  0
   27.0470   29.6340   16.8850 C   0  0  0  0  0  0  0  0  0  0  0  0
   27.2840   31.3010   18.1330 H   0  0  0  0  0  0  0  0  0  0  0  0
   26.2570   30.2800   15.8160 C   0  0  0  0  0  0  0  0  0  0  0  0
   27.3070   28.4170   16.7610 O   0  0  0  0  0  0  0  0  0  0  0  0
   30.4030   30.7260   17.3360 O   0  0  0  0  0  0  0  0  0  0  0  0
   31.3040   30.9560   16.9560 H   0  0  0  0  0  0  0  0  0  0  0  0
   30.4760   33.3720   17.8500 O   0  0  0  0  0  0  0  0  0  0  0  0
   31.2760   33.9560   17.9570 H   0  0  0  0  0  0  0  0  0  0  0  0
   32.9140   36.3160   19.6770 O   0  0  0  0  0  0  0  0  0  0  0  0
   32.7370   37.1750   18.5640 C   0  0  0  0  0  0  0  0  0  0  0  0
   32.3350   36.3860   17.3600 C   0  0  0  0  0  0  0  0  0  0  0  0
   31.2710   36.6790   16.5280 C   0  0  0  0  0  0  0  0  0  0  0  0
   32.9070   35.2780   16.8660 N   0  0  0  0  0  0  0  0  0  0  0  0
   31.2410   35.7230   15.5520 N   0  0  0  0  0  0  0  0  0  0  0  0
   32.2270   34.9060   15.7810 N   0  0  0  0  0  0  0  0  0  0  0  0
   30.2780   35.6640   14.4930 C   0  0  0  0  0  0  0  0  0  0  0  0
   29.6040   34.5060   14.1840 C   0  0  0  0  0  0  0  0  0  0  0  0
   30.0330   36.8260   13.7700 C   0  0  0  0  0  0  0  0  0  0  0  0
   28.6780   34.5290   13.1360 C   0  0  0  0  0  0  0  0  0  0  0  0
   29.1190   36.8280   12.7440 C   0  0  0  0  0  0  0  0  0  0  0  0
   28.4490   35.6740   12.4350 C   0  0  0  0  0  0  0  0  0  0  0  0
   29.8120   33.2580   14.9010 C   0  0  0  0  0  0  0  0  0  0  0  0
   28.8820   32.8680   15.6800 O   0  0  0  0  0  0  0  0  0  0  0  0
   30.9900   32.4760   14.7650 N   0  0  0  0  0  0  0  0  0  0  0  0
   31.2040   31.9350   13.9120 H   0  0  0  0  0  0  0  0  0  0  0  0
   31.6490   32.4670   15.6020 H   0  0  0  0  0  0  0  0  0  0  0  0
   29.8670   25.5550   16.9770 C   0  0  0  0  0  0  0  0  0  0  0  0
   28.3450   25.7220   17.0260 C   0  0  0  0  0  0  0  0  0  0  0  0
   27.6010   24.4030   16.8850 C   0  0  0  0  0  0  0  0  0  0  0  0
   26.1530   24.5250   17.2710 C   0  0  0  0  0  0  0  0  0  0  0  0
   26.0440   24.7290   18.7790 C   0  0  0  0  0  0  0  0  0  0  0  0
   25.5280   23.5030   19.4320 N   0  0  0  0  0  0  0  0  0  0  0  0
  1  2  1  0  0  0  0
  1  5  1  0  0  0  0
  2  3  2  0  0  0  0
  4  1  1  0  0  0  0
  6  5  1  1  0  0  0
  7 27  1  6  0  0  0
  7  6  1  0  0  0  0
  8  7  1  6  0  0  0
  8 11  1  0  0  0  0
  9 14  1  6  0  0  0
  9 10  1  0  0  0  0
  9 16  1  0  0  0  0
 11  9  1  0  0  0  0
 12 20  1  6  0  0  0
 12 10  1  0  0  0  0
 13 22  1  6  0  0  0
 13  8  1  0  0  0  0
 13 12  1  0  0  0  0
 15 14  1  0  0  0  0
 16 17  2  0  0  0  0
 16 18  1  0  0  0  0
 18 19  1  0  0  0  0
 20 21  1  0  0  0  0
 22 24  1  0  0  0  0
 23 22  1  0  0  0  0
 25 23  1  0  0  0  0
 26 23  2  0  0  0  0
 28 27  1  0  0  0  0
 29 30  1  0  0  0  0
 29  6  1  0  0  0  0
 31  2  1  0  0  0  0
 32 31  1  0  0  0  0
 33 32  1  0  0  0  0
 34 33  2  0  0  0  0
 35 33  1  0  0  0  0
 36 37  1  0  0  0  0
 36 34  1  0  0  0  0
 37 35  2  0  0  0  0
 38 36  1  0  0  0  0
 39 38  1  0  0  0  0
 39 44  1  0  0  0  0
 40 38  2  0  0  0  0
 41 39  2  0  0  0  0
 42 40  1  0  0  0  0
 43 42  2  0  0  0  0
 43 41  1  0  0  0  0
 44 45  2  0  0  0  0
 46 44  1  0  0  0  0
 46 48  1  0  0  0  0
 47 46  1  0  0  0  0
 49 50  1  0  0  0  0
 51 50  1  0  0  0  0
 51 52  1  0  0  0  0
 52 53  1  0  0  0  0
 53 54  1  0  0  0  0
M  END
>  <REMARK>
 VINA RESULT:    -5.075      2.744      5.475
 INTER + INTRA:         -14.494
 INTER:                  -8.115
 INTRA:                  -6.379
 UNBOUND:                -5.414
 SMILES CC(=O)N[C@@H]1[C@@H](O)C[C@](O)(C(=O)O)O[C@H]1C(O)[C@H](O)CNC(=O)OCc1cn(-c2ccccc2C(N)=O)nn1
 SMILES IDX 21 1 22 2 23 3 20 5 18 6 16 7 15 8 9 9 8 10 14 11 6 12 5 13
 SMILES IDX 10 14 11 16 12 17 13 18 7 20 4 22 2 23 1 25 3 26 17 27 19 29
 SMILES IDX 24 31 25 32 26 33 27 34 39 35 28 36 38 37 29 38 34 39 30 40
 SMILES IDX 33 41 31 42 32 43 35 44 37 45 36 46
 H PARENT 21 4 10 15 13 19 7 21 4 24 17 28 19 30 36 47 36 48
 Flexibility Score: inf
  4 active torsions:
  status: ('A' for Active; 'I' for Inactive)
    1  A    between atoms: CA   and  CB  
    2  A    between atoms: CB   and  CG  
    3  A    between atoms: CG   and  CD  
    4  A    between atoms: CD   and  CE  

>  <TORSDO>
F 16

>  <BEGIN_>
RES LYS A 131

$$$$
ligand_0_pose_19_2HRL.pdbqt
 OpenBabel07062320523D

  6  5  0  0  0  0  0  0  0  0999 V2000
   33.1930   34.6630    9.2900 C   0  0  0  0  0  0  0  0  0  0  0  0
   32.0600   35.3600   10.0340 C   0  0  0  0  0  0  0  0  0  0  0  0
   30.7280   34.6700    9.8870 C   0  0  0  0  0  0  0  0  0  0  0  0
   30.3540   34.5340    8.4190 C   0  0  0  0  0  0  0  0  0  0  0  0
   28.8470   34.5680    8.2480 C   0  0  0  0  0  0  0  0  0  0  0  0
   28.1650   33.8450    9.3570 N   0  0  0  0  0  0  0  0  0  0  0  0
  1  2  1  0  0  0  0
  3  2  1  0  0  0  0
  4  3  1  0  0  0  0
  5  4  1  0  0  0  0
  5  6  1  0  0  0  0
M  END
>  <EGIN_R>
ES LYS A 135

>  <REMARK>
  4 active torsions:
  status: ('A' for Active; 'I' for Inactive)
    5  A    between atoms: CA   and  CB  
    6  A    between atoms: CB   and  CG  
    7  A    between atoms: CG   and  CD  
    8  A    between atoms: CD   and  CE  

$$$$
