ligand_19_pose_19_2HRL.pdbqt
 OpenBabel07062320523D

 49 49  0  0  1  0  0  0  0  0999 V2000
   29.4720   34.6710   13.4420 N   0  0  0  0  0  0  0  0  0  0  0  0
   29.9220   35.8350   12.7800 C   0  0  0  0  0  0  0  0  0  0  0  0
   29.1240   36.5620   12.1710 O   0  0  0  0  0  0  0  0  0  0  0  0
   30.2190   34.1060   13.9330 H   0  0  0  0  0  0  0  0  0  0  0  0
   28.0970   34.2230   13.4880 C   0  0  0  0  0  0  0  0  0  0  0  0
   27.6140   34.0540   14.8780 C   0  0  2  0  0  0  0  0  0  0  0  0
   28.6420   34.2490   15.9710 C   0  0  2  0  0  0  0  0  0  0  0  0
   28.7640   33.1100   16.9380 C   0  0  2  0  0  0  0  0  0  0  0  0
   30.8010   33.8900   17.7470 C   0  0  2  0  0  0  0  0  0  0  0  0
   31.5000   33.1880   16.6480 C   0  0  0  0  0  0  0  0  0  0  0  0
   29.5370   33.4530   18.0460 O   0  0  0  0  0  0  0  0  0  0  0  0
   30.7860   32.0470   16.0180 C   0  0  1  0  0  0  0  0  0  0  0  0
   29.3650   31.8460   16.4140 C   0  0  1  0  0  0  0  0  0  0  0  0
   30.6880   35.2800   17.4950 O   0  0  0  0  0  0  0  0  0  0  0  0
   31.4850   35.7680   17.8080 H   0  0  0  0  0  0  0  0  0  0  0  0
   31.5900   33.8040   19.0080 C   0  0  0  0  0  0  0  0  0  0  0  0
   32.5160   34.6460   19.2650 O   0  0  0  0  0  0  0  0  0  0  0  0
   31.3890   32.8330   19.9770 O   0  0  0  0  0  0  0  0  0  0  0  0
   30.6070   32.9730   20.6260 H   0  0  0  0  0  0  0  0  0  0  0  0
   30.8280   32.2220   14.6320 O   0  0  0  0  0  0  0  0  0  0  0  0
   29.9560   32.5930   14.2930 H   0  0  0  0  0  0  0  0  0  0  0  0
   29.1700   30.8380   17.4300 N   0  0  0  0  0  0  0  0  0  0  0  0
   27.9940   30.0910   17.5540 C   0  0  0  0  0  0  0  0  0  0  0  0
   29.9540   30.6800   18.0900 H   0  0  0  0  0  0  0  0  0  0  0  0
   27.7680   29.0480   18.5870 C   0  0  0  0  0  0  0  0  0  0  0  0
   27.0830   30.3250   16.7370 O   0  0  0  0  0  0  0  0  0  0  0  0
   28.0380   35.2900   16.7760 O   0  0  0  0  0  0  0  0  0  0  0  0
   27.0630   35.1900   16.5500 H   0  0  0  0  0  0  0  0  0  0  0  0
   26.7250   33.0550   15.1370 O   0  0  0  0  0  0  0  0  0  0  0  0
   27.1310   32.1760   15.1930 H   0  0  0  0  0  0  0  0  0  0  0  0
   31.2910   36.1860   12.8080 O   0  0  0  0  0  0  0  0  0  0  0  0
   32.2480   35.2690   13.3380 C   0  0  0  0  0  0  0  0  0  0  0  0
   32.7530   35.8270   14.6080 C   0  0  0  0  0  0  0  0  0  0  0  0
   33.9470   35.4890   15.2250 C   0  0  0  0  0  0  0  0  0  0  0  0
   32.1710   36.7390   15.3970 N   0  0  0  0  0  0  0  0  0  0  0  0
   34.0370   36.2070   16.3550 N   0  0  0  0  0  0  0  0  0  0  0  0
   32.9570   36.9490   16.4350 N   0  0  0  0  0  0  0  0  0  0  0  0
   35.1410   36.1430   17.2860 C   0  0  0  0  0  0  0  0  0  0  0  0
   36.4170   35.9540   16.5000 C   0  0  0  0  0  0  0  0  0  0  0  0
   37.3030   35.1510   17.2240 O   0  0  0  0  0  0  0  0  0  0  0  0
   38.2660   34.4080   16.6060 C   0  0  0  0  0  0  0  0  0  0  0  0
   38.6470   33.3200   17.0760 O   0  0  0  0  0  0  0  0  0  0  0  0
   38.8960   34.8900   15.3280 C   0  0  0  0  0  0  0  0  0  0  0  0
   29.8670   25.5550   16.9770 C   0  0  0  0  0  0  0  0  0  0  0  0
   28.3450   25.7220   17.0260 C   0  0  0  0  0  0  0  0  0  0  0  0
   27.6010   24.4030   16.8860 C   0  0  0  0  0  0  0  0  0  0  0  0
   26.2910   24.4100   17.6250 C   0  0  0  0  0  0  0  0  0  0  0  0
   26.1950   25.6710   18.4780 C   0  0  0  0  0  0  0  0  0  0  0  0
   25.0900   25.5500   19.4580 N   0  0  0  0  0  0  0  0  0  0  0  0
  1  5  1  0  0  0  0
  1  4  1  0  0  0  0
  2 31  1  0  0  0  0
  2  1  1  0  0  0  0
  3  2  2  0  0  0  0
  6  5  1  6  0  0  0
  6 29  1  0  0  0  0
  6  7  1  0  0  0  0
  7 27  1  1  0  0  0
  8  7  1  6  0  0  0
  8 11  1  0  0  0  0
  9 14  1  6  0  0  0
  9 11  1  0  0  0  0
  9 16  1  0  0  0  0
 10  9  1  0  0  0  0
 12 20  1  6  0  0  0
 12 13  1  0  0  0  0
 12 10  1  0  0  0  0
 13  8  1  0  0  0  0
 13 22  1  1  0  0  0
 14 15  1  0  0  0  0
 16 17  2  0  0  0  0
 16 18  1  0  0  0  0
 18 19  1  0  0  0  0
 21 20  1  0  0  0  0
 22 23  1  0  0  0  0
 22 24  1  0  0  0  0
 23 25  1  0  0  0  0
 26 23  2  0  0  0  0
 28 27  1  0  0  0  0
 29 30  1  0  0  0  0
 31 32  1  0  0  0  0
 32 33  1  0  0  0  0
 33 34  2  0  0  0  0
 33 35  1  0  0  0  0
 34 36  1  0  0  0  0
 35 37  2  0  0  0  0
 36 37  1  0  0  0  0
 36 38  1  0  0  0  0
 39 40  1  0  0  0  0
 39 38  1  0  0  0  0
 41 42  2  0  0  0  0
 41 40  1  0  0  0  0
 43 41  1  0  0  0  0
 44 45  1  0  0  0  0
 46 45  1  0  0  0  0
 46 47  1  0  0  0  0
 47 48  1  0  0  0  0
 48 49  1  0  0  0  0
M  END
>  <REMARK>
 VINA RESULT:    -3.909      2.597      5.881
 INTER + INTRA:         -13.510
 INTER:                  -7.558
 INTRA:                  -5.952
 UNBOUND:                -6.059
 SMILES CC(=O)N[C@@H]1[C@@H](O)C[C@](O)(C(=O)O)O[C@H]1C(O)[C@H](O)CNC(=O)OCc1cn(CCOC(C)=O)nn1
 SMILES IDX 21 1 22 2 23 3 20 5 18 6 16 7 15 8 9 9 8 10 14 11 6 12 5 13
 SMILES IDX 10 14 11 16 12 17 13 18 7 20 4 22 2 23 1 25 3 26 17 27 19 29
 SMILES IDX 24 31 25 32 26 33 27 34 36 35 28 36 35 37 29 38 30 39 31 40
 SMILES IDX 32 41 34 42 33 43
 H PARENT 21 4 10 15 13 19 7 21 4 24 17 28 19 30
 Flexibility Score: inf
  4 active torsions:
  status: ('A' for Active; 'I' for Inactive)
    1  A    between atoms: CA   and  CB  
    2  A    between atoms: CB   and  CG  
    3  A    between atoms: CG   and  CD  
    4  A    between atoms: CD   and  CE  

>  <TORSDO>
F 18

>  <BEGIN_>
RES LYS A 131

$$$$
ligand_19_pose_19_2HRL.pdbqt
 OpenBabel07062320523D

  6  5  0  0  0  0  0  0  0  0999 V2000
   33.1930   34.6630    9.2900 C   0  0  0  0  0  0  0  0  0  0  0  0
   32.0600   35.3600   10.0340 C   0  0  0  0  0  0  0  0  0  0  0  0
   30.8020   35.5040    9.2170 C   0  0  0  0  0  0  0  0  0  0  0  0
   30.1520   34.1470    8.9890 C   0  0  0  0  0  0  0  0  0  0  0  0
   28.6740   34.3080    8.6920 C   0  0  0  0  0  0  0  0  0  0  0  0
   27.8420   33.8230    9.8280 N   0  0  0  0  0  0  0  0  0  0  0  0
  1  2  1  0  0  0  0
  3  2  1  0  0  0  0
  4  3  1  0  0  0  0
  5  4  1  0  0  0  0
  5  6  1  0  0  0  0
M  END
>  <EGIN_R>
ES LYS A 135

>  <REMARK>
  4 active torsions:
  status: ('A' for Active; 'I' for Inactive)
    5  A    between atoms: CA   and  CB  
    6  A    between atoms: CB   and  CG  
    7  A    between atoms: CG   and  CD  
    8  A    between atoms: CD   and  CE  

$$$$
