ligand_63_pose_17_2HRL.pdbqt
 OpenBabel07062320523D

 51 52  0  0  1  0  0  0  0  0999 V2000
   21.9540   37.4360   14.2420 N   0  0  0  0  0  0  0  0  0  0  0  0
   20.6950   37.2890   14.9170 C   0  0  0  0  0  0  0  0  0  0  0  0
   19.9420   38.2510   15.0990 O   0  0  0  0  0  0  0  0  0  0  0  0
   22.4820   36.5060   14.1420 H   0  0  0  0  0  0  0  0  0  0  0  0
   22.4460   38.6190   13.7190 C   0  0  0  0  0  0  0  0  0  0  0  0
   23.3270   38.5430   12.4470 C   0  0  2  0  0  0  0  0  0  0  0  0
   22.7460   37.4210   11.6760 C   0  0  1  0  0  0  0  0  0  0  0  0
   22.3040   37.6380   10.2730 C   0  0  2  0  0  0  0  0  0  0  0  0
   21.0860   35.9360    9.1990 C   0  0  2  0  0  0  0  0  0  0  0  0
   21.4170   36.4200    7.8090 C   0  0  0  0  0  0  0  0  0  0  0  0
   21.0510   36.9820   10.1240 O   0  0  0  0  0  0  0  0  0  0  0  0
   22.4090   37.5980    7.8780 C   0  0  1  0  0  0  0  0  0  0  0  0
   23.2070   37.3100    9.1730 C   0  0  1  0  0  0  0  0  0  0  0  0
   21.9210   34.8900    9.5610 O   0  0  0  0  0  0  0  0  0  0  0  0
   22.4610   35.0520   10.3490 H   0  0  0  0  0  0  0  0  0  0  0  0
   19.6880   35.4650    9.1400 C   0  0  0  0  0  0  0  0  0  0  0  0
   18.7370   35.8910    8.6060 O   0  0  0  0  0  0  0  0  0  0  0  0
   19.4960   34.2160    9.9080 O   0  0  0  0  0  0  0  0  0  0  0  0
   18.5610   34.0830   10.3000 H   0  0  0  0  0  0  0  0  0  0  0  0
   23.2250   37.6260    6.7770 O   0  0  0  0  0  0  0  0  0  0  0  0
   22.7220   37.7720    5.9560 H   0  0  0  0  0  0  0  0  0  0  0  0
   24.4130   38.1490    9.1180 N   0  0  0  0  0  0  0  0  0  0  0  0
   25.6530   37.5590    9.4070 C   0  0  0  0  0  0  0  0  0  0  0  0
   24.3360   39.1140    8.8600 H   0  0  0  0  0  0  0  0  0  0  0  0
   27.0000   37.9930    9.4310 C   0  0  0  0  0  0  0  0  0  0  0  0
   25.4500   36.2460    9.7170 O   0  0  0  0  0  0  0  0  0  0  0  0
   23.3610   36.2370   11.9650 O   0  0  0  0  0  0  0  0  0  0  0  0
   22.7790   35.6160   12.4780 H   0  0  0  0  0  0  0  0  0  0  0  0
   24.6090   38.4280   12.9040 O   0  0  0  0  0  0  0  0  0  0  0  0
   25.2360   38.7900   12.2300 H   0  0  0  0  0  0  0  0  0  0  0  0
   20.3230   36.0210   15.3700 O   0  0  0  0  0  0  0  0  0  0  0  0
   19.4120   35.1990   14.6090 C   0  0  0  0  0  0  0  0  0  0  0  0
   20.3450   34.3540   13.7770 C   0  0  0  0  0  0  0  0  0  0  0  0
   20.7750   33.0930   14.0660 C   0  0  0  0  0  0  0  0  0  0  0  0
   20.8170   34.6980   12.5790 N   0  0  0  0  0  0  0  0  0  0  0  0
   21.5160   32.7000   12.9850 N   0  0  0  0  0  0  0  0  0  0  0  0
   21.5160   33.7090   12.1010 N   0  0  0  0  0  0  0  0  0  0  0  0
   22.1450   31.4740   12.7970 C   0  0  0  0  0  0  0  0  0  0  0  0
   21.4010   30.3440   12.4460 N   0  0  0  0  0  0  0  0  0  0  0  0
   23.4800   31.2090   13.0200 C   0  0  0  0  0  0  0  0  0  0  0  0
   21.9610   29.2110   12.3630 C   0  0  0  0  0  0  0  0  0  0  0  0
   24.0500   30.0190   12.9320 C   0  0  0  0  0  0  0  0  0  0  0  0
   23.3150   28.8500   12.5780 C   0  0  0  0  0  0  0  0  0  0  0  0
   24.3540   32.3580   13.4760 C   0  0  0  0  0  0  0  0  0  0  0  0
   24.9310   33.1230   13.7970 N   0  0  0  0  0  0  0  0  0  0  0  0
   29.8670   25.5550   16.9770 C   0  0  0  0  0  0  0  0  0  0  0  0
   28.3450   25.7220   17.0260 C   0  0  0  0  0  0  0  0  0  0  0  0
   27.6010   24.4050   16.8700 C   0  0  0  0  0  0  0  0  0  0  0  0
   26.3170   24.3830   17.6530 C   0  0  0  0  0  0  0  0  0  0  0  0
   25.6530   23.0190   17.5030 C   0  0  0  0  0  0  0  0  0  0  0  0
   24.2320   23.1740   17.1120 N   0  0  0  0  0  0  0  0  0  0  0  0
  1  2  1  0  0  0  0
  2  3  2  0  0  0  0
  2 31  1  0  0  0  0
  4  1  1  0  0  0  0
  5  1  1  0  0  0  0
  6 29  1  0  0  0  0
  6  5  1  1  0  0  0
  7 27  1  6  0  0  0
  7  6  1  0  0  0  0
  8  7  1  1  0  0  0
  9 16  1  6  0  0  0
  9 14  1  0  0  0  0
  9 11  1  0  0  0  0
 10 12  1  0  0  0  0
 10  9  1  0  0  0  0
 11  8  1  0  0  0  0
 12 20  1  6  0  0  0
 12 13  1  0  0  0  0
 13 22  1  6  0  0  0
 13  8  1  0  0  0  0
 14 15  1  0  0  0  0
 16 18  1  0  0  0  0
 17 16  2  0  0  0  0
 18 19  1  0  0  0  0
 21 20  1  0  0  0  0
 22 23  1  0  0  0  0
 23 25  1  0  0  0  0
 23 26  2  0  0  0  0
 24 22  1  0  0  0  0
 27 28  1  0  0  0  0
 30 29  1  0  0  0  0
 32 31  1  0  0  0  0
 33 34  2  0  0  0  0
 33 32  1  0  0  0  0
 35 33  1  0  0  0  0
 36 34  1  0  0  0  0
 37 35  2  0  0  0  0
 37 36  1  0  0  0  0
 38 36  1  0  0  0  0
 38 40  2  0  0  0  0
 39 38  1  0  0  0  0
 40 44  1  0  0  0  0
 41 39  2  0  0  0  0
 41 43  1  0  0  0  0
 42 40  1  0  0  0  0
 43 42  2  0  0  0  0
 44 45  3  0  0  0  0
 46 47  1  0  0  0  0
 48 47  1  0  0  0  0
 48 49  1  0  0  0  0
 50 49  1  0  0  0  0
 51 50  1  0  0  0  0
M  END
>  <REMARK>
 VINA RESULT:    -4.033      3.616      6.362
 INTER + INTRA:         -14.258
 INTER:                  -7.216
 INTRA:                  -7.042
 UNBOUND:                -7.042
 SMILES CC(=O)N[C@@H]1[C@@H](O)C[C@](O)(C(=O)O)O[C@H]1C(O)[C@H](O)CNC(=O)OCc1cn(-c2ncccc2C#N)nn1
 SMILES IDX 21 1 22 2 23 3 20 5 18 6 16 7 15 8 9 9 8 10 14 11 6 12 5 13
 SMILES IDX 10 14 11 16 12 17 13 18 7 20 4 22 2 23 1 25 3 26 17 27 19 29
 SMILES IDX 24 31 25 32 26 33 27 34 38 35 28 36 37 37 29 38 30 39 34 40
 SMILES IDX 31 41 33 42 32 43 35 44 36 45
 H PARENT 21 4 10 15 13 19 7 21 4 24 17 28 19 30
 Flexibility Score: inf
  4 active torsions:
  status: ('A' for Active; 'I' for Inactive)
    1  A    between atoms: CA   and  CB  
    2  A    between atoms: CB   and  CG  
    3  A    between atoms: CG   and  CD  
    4  A    between atoms: CD   and  CE  

>  <TORSDO>
F 16

>  <BEGIN_>
RES LYS A 131

$$$$
ligand_63_pose_17_2HRL.pdbqt
 OpenBabel07062320523D

  6  5  0  0  0  0  0  0  0  0999 V2000
   33.1930   34.6630    9.2900 C   0  0  0  0  0  0  0  0  0  0  0  0
   32.0600   35.3600   10.0340 C   0  0  0  0  0  0  0  0  0  0  0  0
   30.8820   35.6980    9.1580 C   0  0  0  0  0  0  0  0  0  0  0  0
   29.5830   35.2460    9.8070 C   0  0  0  0  0  0  0  0  0  0  0  0
   28.9970   34.0620    9.0620 C   0  0  0  0  0  0  0  0  0  0  0  0
   27.6820   33.6640    9.6360 N   0  0  0  0  0  0  0  0  0  0  0  0
  1  2  1  0  0  0  0
  3  4  1  0  0  0  0
  3  2  1  0  0  0  0
  5  6  1  0  0  0  0
  5  4  1  0  0  0  0
M  END
>  <EGIN_R>
ES LYS A 135

>  <REMARK>
  4 active torsions:
  status: ('A' for Active; 'I' for Inactive)
    5  A    between atoms: CA   and  CB  
    6  A    between atoms: CB   and  CG  
    7  A    between atoms: CG   and  CD  
    8  A    between atoms: CD   and  CE  

$$$$
