ligand_53_pose_17_2HRL.pdbqt
 OpenBabel07062320523D

 48 48  0  0  1  0  0  0  0  0999 V2000
   32.3020   34.7290   16.5720 N   0  0  0  0  0  0  0  0  0  0  0  0
   32.0890   36.0300   16.0790 C   0  0  0  0  0  0  0  0  0  0  0  0
   31.4230   36.8640   16.6930 O   0  0  0  0  0  0  0  0  0  0  0  0
   32.9020   34.1070   15.9490 H   0  0  0  0  0  0  0  0  0  0  0  0
   31.7960   34.1790   17.8020 C   0  0  0  0  0  0  0  0  0  0  0  0
   30.4810   33.4720   17.7070 C   0  0  2  0  0  0  0  0  0  0  0  0
   30.5830   32.0700   17.2370 C   0  0  1  0  0  0  0  0  0  0  0  0
   29.4220   31.1820   17.5980 C   0  0  2  0  0  0  0  0  0  0  0  0
   27.0750   31.2350   17.7520 C   0  0  2  0  0  0  0  0  0  0  0  0
   27.0740   30.3150   18.9280 C   0  0  0  0  0  0  0  0  0  0  0  0
   28.2190   31.8900   17.4580 O   0  0  0  0  0  0  0  0  0  0  0  0
   28.3610   29.5580   19.0180 C   0  0  1  0  0  0  0  0  0  0  0  0
   29.4660   30.6310   18.9980 C   0  0  1  0  0  0  0  0  0  0  0  0
   26.0110   32.1600   17.9740 O   0  0  0  0  0  0  0  0  0  0  0  0
   26.3240   32.7370   18.7220 H   0  0  0  0  0  0  0  0  0  0  0  0
   26.6280   30.4580   16.5580 C   0  0  0  0  0  0  0  0  0  0  0  0
   26.0730   29.3410   16.6060 O   0  0  0  0  0  0  0  0  0  0  0  0
   26.8370   31.0010   15.3070 O   0  0  0  0  0  0  0  0  0  0  0  0
   27.0940   31.9750   15.1620 H   0  0  0  0  0  0  0  0  0  0  0  0
   28.4550   28.7920   20.1760 O   0  0  0  0  0  0  0  0  0  0  0  0
   27.8020   28.0510   20.0860 H   0  0  0  0  0  0  0  0  0  0  0  0
   30.6910   30.0380   19.4230 N   0  0  0  0  0  0  0  0  0  0  0  0
   31.1940   30.1850   20.7510 C   0  0  0  0  0  0  0  0  0  0  0  0
   31.2470   29.4640   18.7630 H   0  0  0  0  0  0  0  0  0  0  0  0
   32.4610   29.5860   21.2280 C   0  0  0  0  0  0  0  0  0  0  0  0
   30.5180   30.8640   21.5590 O   0  0  0  0  0  0  0  0  0  0  0  0
   30.9380   32.0010   15.9010 O   0  0  0  0  0  0  0  0  0  0  0  0
   31.7250   32.5670   15.6930 H   0  0  0  0  0  0  0  0  0  0  0  0
   29.6320   34.2310   16.8870 O   0  0  0  0  0  0  0  0  0  0  0  0
   29.9550   34.2690   15.9590 H   0  0  0  0  0  0  0  0  0  0  0  0
   32.6320   36.4310   14.8610 O   0  0  0  0  0  0  0  0  0  0  0  0
   32.0050   36.3060   13.6240 C   0  0  0  0  0  0  0  0  0  0  0  0
   30.7580   35.5040   13.6420 C   0  0  0  0  0  0  0  0  0  0  0  0
   29.4770   35.8730   13.3710 C   0  0  0  0  0  0  0  0  0  0  0  0
   30.6860   34.1760   13.9540 N   0  0  0  0  0  0  0  0  0  0  0  0
   28.6790   34.8010   13.5180 N   0  0  0  0  0  0  0  0  0  0  0  0
   29.4210   33.7850   13.8690 N   0  0  0  0  0  0  0  0  0  0  0  0
   27.2440   34.7920   13.3160 C   0  0  0  0  0  0  0  0  0  0  0  0
   26.5630   34.5000   14.5930 C   0  0  0  0  0  0  0  0  0  0  0  0
   25.3380   34.7800   14.7160 O   0  0  0  0  0  0  0  0  0  0  0  0
   27.2520   33.9270   15.6410 O   0  0  0  0  0  0  0  0  0  0  0  0
   28.1330   34.3740   15.9120 H   0  0  0  0  0  0  0  0  0  0  0  0
   29.8670   25.5550   16.9770 C   0  0  0  0  0  0  0  0  0  0  0  0
   28.3450   25.7220   17.0260 C   0  0  0  0  0  0  0  0  0  0  0  0
   27.6010   24.4020   16.8890 C   0  0  0  0  0  0  0  0  0  0  0  0
   26.5050   24.2620   17.9090 C   0  0  0  0  0  0  0  0  0  0  0  0
   25.1550   24.5090   17.2420 C   0  0  0  0  0  0  0  0  0  0  0  0
   24.1300   24.8520   18.2560 N   0  0  0  0  0  0  0  0  0  0  0  0
  1  5  1  0  0  0  0
  2  1  1  0  0  0  0
  2  3  2  0  0  0  0
  4  1  1  0  0  0  0
  6  5  1  6  0  0  0
  7 27  1  6  0  0  0
  7  6  1  0  0  0  0
  8  7  1  1  0  0  0
  8 13  1  0  0  0  0
  9 16  1  6  0  0  0
  9 14  1  0  0  0  0
  9 10  1  0  0  0  0
 10 12  1  0  0  0  0
 11  8  1  0  0  0  0
 11  9  1  0  0  0  0
 12 20  1  1  0  0  0
 13 12  1  0  0  0  0
 13 22  1  6  0  0  0
 14 15  1  0  0  0  0
 16 17  2  0  0  0  0
 18 16  1  0  0  0  0
 19 18  1  0  0  0  0
 21 20  1  0  0  0  0
 22 23  1  0  0  0  0
 23 25  1  0  0  0  0
 23 26  2  0  0  0  0
 24 22  1  0  0  0  0
 28 27  1  0  0  0  0
 29  6  1  0  0  0  0
 30 29  1  0  0  0  0
 31  2  1  0  0  0  0
 32 33  1  0  0  0  0
 32 31  1  0  0  0  0
 33 35  1  0  0  0  0
 34 36  1  0  0  0  0
 34 33  2  0  0  0  0
 36 37  1  0  0  0  0
 37 35  2  0  0  0  0
 38 36  1  0  0  0  0
 38 39  1  0  0  0  0
 39 40  2  0  0  0  0
 39 41  1  0  0  0  0
 41 42  1  0  0  0  0
 43 44  1  0  0  0  0
 45 44  1  0  0  0  0
 45 46  1  0  0  0  0
 47 46  1  0  0  0  0
 47 48  1  0  0  0  0
M  END
>  <REMARK>
 VINA RESULT:    -3.806      1.918      4.681
 INTER + INTRA:         -13.282
 INTER:                  -6.399
 INTRA:                  -6.883
 UNBOUND:                -6.362
 SMILES CC(=O)N[C@@H]1[C@@H](O)C[C@](O)(C(=O)O)O[C@H]1C(O)[C@H](O)CNC(=O)OCc1cn(CC(=O)O)nn1
 SMILES IDX 21 1 22 2 23 3 20 5 18 6 16 7 15 8 9 9 8 10 14 11 6 12 5 13
 SMILES IDX 10 14 11 16 12 17 13 18 7 20 4 22 2 23 1 25 3 26 17 27 19 29
 SMILES IDX 24 31 25 32 26 33 27 34 34 35 28 36 33 37 29 38 30 39 31 40
 SMILES IDX 32 41
 H PARENT 21 4 10 15 13 19 7 21 4 24 17 28 19 30 32 42
 Flexibility Score: inf
  4 active torsions:
  status: ('A' for Active; 'I' for Inactive)
    1  A    between atoms: CA   and  CB  
    2  A    between atoms: CB   and  CG  
    3  A    between atoms: CG   and  CD  
    4  A    between atoms: CD   and  CE  

>  <TORSDO>
F 17

>  <BEGIN_>
RES LYS A 131

$$$$
ligand_53_pose_17_2HRL.pdbqt
 OpenBabel07062320523D

  6  5  0  0  0  0  0  0  0  0999 V2000
   33.1930   34.6630    9.2900 C   0  0  0  0  0  0  0  0  0  0  0  0
   32.0600   35.3600   10.0340 C   0  0  0  0  0  0  0  0  0  0  0  0
   30.7960   35.4880    9.2240 C   0  0  0  0  0  0  0  0  0  0  0  0
   30.1090   34.1380    9.0860 C   0  0  0  0  0  0  0  0  0  0  0  0
   28.7790   34.1400    9.8160 C   0  0  0  0  0  0  0  0  0  0  0  0
   27.6400   34.1610    8.8570 N   0  0  0  0  0  0  0  0  0  0  0  0
  1  2  1  0  0  0  0
  3  2  1  0  0  0  0
  4  3  1  0  0  0  0
  4  5  1  0  0  0  0
  6  5  1  0  0  0  0
M  END
>  <EGIN_R>
ES LYS A 135

>  <REMARK>
  4 active torsions:
  status: ('A' for Active; 'I' for Inactive)
    5  A    between atoms: CA   and  CB  
    6  A    between atoms: CB   and  CG  
    7  A    between atoms: CG   and  CD  
    8  A    between atoms: CD   and  CE  

$$$$
