ligand_25_pose_2_2HRL.pdbqt
 OpenBabel07062320523D

 56 59  0  0  1  0  0  0  0  0999 V2000
   27.3950   41.4550   11.2140 C   0  0  0  0  0  0  0  0  0  0  0  0
   26.7000   40.9050   10.0240 C   0  0  2  0  0  0  0  0  0  0  0  0
   27.4960   41.0110    8.7630 C   0  0  1  0  0  0  0  0  0  0  0  0
   27.8680   39.7100    8.1070 C   0  0  2  0  0  0  0  0  0  0  0  0
   29.6700   39.9750    6.6350 C   0  0  2  0  0  0  0  0  0  0  0  0
   29.3450   38.7550    5.8000 C   0  0  0  0  0  0  0  0  0  0  0  0
   29.2490   39.7670    7.9100 O   0  0  0  0  0  0  0  0  0  0  0  0
   27.9180   38.3950    5.9980 C   0  0  1  0  0  0  0  0  0  0  0  0
   27.1360   39.4300    6.8230 C   0  0  1  0  0  0  0  0  0  0  0  0
   29.1680   41.0650    5.9750 O   0  0  0  0  0  0  0  0  0  0  0  0
   29.4050   41.0660    5.0210 H   0  0  0  0  0  0  0  0  0  0  0  0
   31.1620   40.0670    6.6660 C   0  0  0  0  0  0  0  0  0  0  0  0
   31.7140   40.7990    7.5190 O   0  0  0  0  0  0  0  0  0  0  0  0
   31.9720   39.3700    5.7820 O   0  0  0  0  0  0  0  0  0  0  0  0
   32.9910   39.3380    5.9230 H   0  0  0  0  0  0  0  0  0  0  0  0
   27.2160   38.2020    4.8190 O   0  0  0  0  0  0  0  0  0  0  0  0
   26.7340   37.3450    4.7840 H   0  0  0  0  0  0  0  0  0  0  0  0
   25.8820   38.7710    7.1080 N   0  0  0  0  0  0  0  0  0  0  0  0
   24.6200   39.4190    7.1660 C   0  0  0  0  0  0  0  0  0  0  0  0
   25.9030   37.7450    7.2800 H   0  0  0  0  0  0  0  0  0  0  0  0
   23.3610   38.6650    7.4690 C   0  0  0  0  0  0  0  0  0  0  0  0
   24.5930   40.6580    6.9540 O   0  0  0  0  0  0  0  0  0  0  0  0
   26.9860   41.9040    7.8280 O   0  0  0  0  0  0  0  0  0  0  0  0
   26.5060   41.4980    7.0890 H   0  0  0  0  0  0  0  0  0  0  0  0
   25.5140   41.6050    9.8120 O   0  0  0  0  0  0  0  0  0  0  0  0
   25.5880   42.5580   10.0140 H   0  0  0  0  0  0  0  0  0  0  0  0
   28.4230   40.6520   11.7620 N   0  0  0  0  0  0  0  0  0  0  0  0
   28.2440   39.7650   12.8390 C   0  0  0  0  0  0  0  0  0  0  0  0
   29.4090   40.7060   11.3450 H   0  0  0  0  0  0  0  0  0  0  0  0
   27.1590   39.6090   13.3900 O   0  0  0  0  0  0  0  0  0  0  0  0
   29.3160   39.0050   13.3410 O   0  0  0  0  0  0  0  0  0  0  0  0
   29.1480   37.8900   14.1620 C   0  0  0  0  0  0  0  0  0  0  0  0
   28.9880   36.6170   13.4170 C   0  0  0  0  0  0  0  0  0  0  0  0
   28.2400   36.3500   12.2970 C   0  0  0  0  0  0  0  0  0  0  0  0
   29.5970   35.4820   13.7650 N   0  0  0  0  0  0  0  0  0  0  0  0
   28.4200   35.0670   12.0070 N   0  0  0  0  0  0  0  0  0  0  0  0
   29.2410   34.5580   12.9020 N   0  0  0  0  0  0  0  0  0  0  0  0
   27.8330   34.3200   10.9040 C   0  0  0  0  0  0  0  0  0  0  0  0
   28.5800   34.5200    9.6500 C   0  0  0  0  0  0  0  0  0  0  0  0
   26.4620   34.7160   10.6220 C   0  0  0  0  0  0  0  0  0  0  0  0
   29.9370   34.2960    9.3570 C   0  0  0  0  0  0  0  0  0  0  0  0
   27.7050   34.9950    8.7150 C   0  0  0  0  0  0  0  0  0  0  0  0
   26.3780   35.1210    9.3160 C   0  0  0  0  0  0  0  0  0  0  0  0
   25.2900   34.7510   11.4050 C   0  0  0  0  0  0  0  0  0  0  0  0
   30.3800   34.5700    8.0880 C   0  0  0  0  0  0  0  0  0  0  0  0
   28.1930   35.2620    7.4370 C   0  0  0  0  0  0  0  0  0  0  0  0
   25.1900   35.5650    8.7270 C   0  0  0  0  0  0  0  0  0  0  0  0
   24.1150   35.1830   10.8490 C   0  0  0  0  0  0  0  0  0  0  0  0
   29.5180   35.0520    7.1230 C   0  0  0  0  0  0  0  0  0  0  0  0
   24.0680   35.5850    9.5240 C   0  0  0  0  0  0  0  0  0  0  0  0
   29.8670   25.5550   16.9770 C   0  0  0  0  0  0  0  0  0  0  0  0
   28.3450   25.7220   17.0260 C   0  0  0  0  0  0  0  0  0  0  0  0
   27.6010   24.4020   16.8920 C   0  0  0  0  0  0  0  0  0  0  0  0
   26.1560   24.5240   17.2870 C   0  0  0  0  0  0  0  0  0  0  0  0
   25.7970   23.4040   18.2590 C   0  0  0  0  0  0  0  0  0  0  0  0
   24.9920   22.3630   17.5770 N   0  0  0  0  0  0  0  0  0  0  0  0
  1 27  1  0  0  0  0
  2  1  1  1  0  0  0
  3 23  1  6  0  0  0
  3  2  1  0  0  0  0
  4  3  1  6  0  0  0
  5 10  1  6  0  0  0
  5 12  1  0  0  0  0
  5  7  1  0  0  0  0
  6  8  1  0  0  0  0
  6  5  1  0  0  0  0
  7  4  1  0  0  0  0
  8 16  1  6  0  0  0
  8  9  1  0  0  0  0
  9 18  1  1  0  0  0
  9  4  1  0  0  0  0
 11 10  1  0  0  0  0
 12 13  2  0  0  0  0
 14 15  1  0  0  0  0
 14 12  1  0  0  0  0
 17 16  1  0  0  0  0
 18 19  1  0  0  0  0
 18 20  1  0  0  0  0
 19 21  1  0  0  0  0
 22 19  2  0  0  0  0
 24 23  1  0  0  0  0
 25 26  1  0  0  0  0
 25  2  1  0  0  0  0
 27 28  1  0  0  0  0
 28 31  1  0  0  0  0
 28 30  2  0  0  0  0
 29 27  1  0  0  0  0
 31 32  1  0  0  0  0
 33 35  1  0  0  0  0
 33 32  1  0  0  0  0
 34 33  2  0  0  0  0
 36 34  1  0  0  0  0
 36 37  1  0  0  0  0
 37 35  2  0  0  0  0
 38 36  1  0  0  0  0
 39 38  1  0  0  0  0
 40 38  1  0  0  0  0
 40 44  2  0  0  0  0
 41 39  1  0  0  0  0
 42 43  1  0  0  0  0
 42 39  2  0  0  0  0
 43 40  1  0  0  0  0
 45 41  2  0  0  0  0
 46 42  1  0  0  0  0
 47 43  2  0  0  0  0
 47 50  1  0  0  0  0
 48 44  1  0  0  0  0
 49 46  2  0  0  0  0
 49 45  1  0  0  0  0
 50 48  2  0  0  0  0
 51 52  1  0  0  0  0
 53 52  1  0  0  0  0
 53 54  1  0  0  0  0
 54 55  1  0  0  0  0
 56 55  1  0  0  0  0
M  END
>  <REMARK>
 VINA RESULT:    -6.878      4.038      7.246
 INTER + INTRA:         -16.482
 INTER:                 -10.938
 INTRA:                  -5.543
 UNBOUND:                -4.578
 SMILES CC(=O)N[C@@H]1[C@@H](O)C[C@](O)(C(=O)O)O[C@H]1C(O)[C@H](O)CNC(=O)OCc1cn(C2c3ccccc3-c3ccccc32)nn1
 SMILES IDX 20 1 18 2 16 3 15 4 9 5 8 6 14 7 6 8 5 9 10 10 11 12 12 13
 SMILES IDX 13 14 7 16 4 18 2 19 1 21 3 22 17 23 19 25 21 27 22 28 23 30
 SMILES IDX 24 31 25 32 26 33 27 34 43 35 28 36 42 37 29 38 30 39 41 40
 SMILES IDX 31 41 35 42 36 43 40 44 32 45 34 46 37 47 39 48 33 49 38 50
 H PARENT 10 11 13 15 7 17 4 20 17 24 19 26 21 29
 Flexibility Score: inf
  4 active torsions:
  status: ('A' for Active; 'I' for Inactive)
    1  A    between atoms: CA   and  CB  
    2  A    between atoms: CB   and  CG  
    3  A    between atoms: CG   and  CD  
    4  A    between atoms: CD   and  CE  

>  <TORSDO>
F 15

>  <BEGIN_>
RES LYS A 131

$$$$
ligand_25_pose_2_2HRL.pdbqt
 OpenBabel07062320523D

  6  5  0  0  0  0  0  0  0  0999 V2000
   33.1930   34.6630    9.2900 C   0  0  0  0  0  0  0  0  0  0  0  0
   32.0600   35.3600   10.0340 C   0  0  0  0  0  0  0  0  0  0  0  0
   32.4400   35.8160   11.4190 C   0  0  0  0  0  0  0  0  0  0  0  0
   31.9470   37.2330   11.6720 C   0  0  0  0  0  0  0  0  0  0  0  0
   31.5980   37.9160   10.3640 C   0  0  0  0  0  0  0  0  0  0  0  0
   31.5740   39.3970   10.5220 N   0  0  0  0  0  0  0  0  0  0  0  0
  1  2  1  0  0  0  0
  2  3  1  0  0  0  0
  3  4  1  0  0  0  0
  5  6  1  0  0  0  0
  5  4  1  0  0  0  0
M  END
>  <EGIN_R>
ES LYS A 135

>  <REMARK>
  4 active torsions:
  status: ('A' for Active; 'I' for Inactive)
    5  A    between atoms: CA   and  CB  
    6  A    between atoms: CB   and  CG  
    7  A    between atoms: CG   and  CD  
    8  A    between atoms: CD   and  CE  

$$$$
