ligand_19_pose_9_2HRL.pdbqt
 OpenBabel07062320523D

 49 49  0  0  1  0  0  0  0  0999 V2000
   30.0320   31.3440   17.3170 N   0  0  0  0  0  0  0  0  0  0  0  0
   28.7130   31.2770   17.8200 C   0  0  0  0  0  0  0  0  0  0  0  0
   28.1710   32.2820   18.3020 O   0  0  0  0  0  0  0  0  0  0  0  0
   30.4190   30.4400   16.9280 H   0  0  0  0  0  0  0  0  0  0  0  0
   30.8530   32.5360   17.3000 C   0  0  0  0  0  0  0  0  0  0  0  0
   31.2940   32.8870   15.9300 C   0  0  2  0  0  0  0  0  0  0  0  0
   30.6270   34.0890   15.3000 C   0  0  2  0  0  0  0  0  0  0  0  0
   31.2550   35.4090   15.6310 C   0  0  2  0  0  0  0  0  0  0  0  0
   30.8850   36.2310   13.4860 C   0  0  2  0  0  0  0  0  0  0  0  0
   32.1500   35.6080   13.0360 C   0  0  0  0  0  0  0  0  0  0  0  0
   30.7510   36.4360   14.8340 O   0  0  0  0  0  0  0  0  0  0  0  0
   33.1660   35.3200   14.0800 C   0  0  1  0  0  0  0  0  0  0  0  0
   32.7410   35.4990   15.4960 C   0  0  1  0  0  0  0  0  0  0  0  0
   29.7560   35.4740   13.0880 O   0  0  0  0  0  0  0  0  0  0  0  0
   29.8240   34.5390   13.3930 H   0  0  0  0  0  0  0  0  0  0  0  0
   30.6940   37.5570   12.8340 C   0  0  0  0  0  0  0  0  0  0  0  0
   29.7840   37.7340   11.9540 O   0  0  0  0  0  0  0  0  0  0  0  0
   31.4630   38.6750   13.1200 O   0  0  0  0  0  0  0  0  0  0  0  0
   32.4810   38.5740   13.0440 H   0  0  0  0  0  0  0  0  0  0  0  0
   33.5880   33.9960   13.9200 O   0  0  0  0  0  0  0  0  0  0  0  0
   32.8900   33.4560   13.4360 H   0  0  0  0  0  0  0  0  0  0  0  0
   33.1380   36.7590   16.0790 N   0  0  0  0  0  0  0  0  0  0  0  0
   34.3530   36.9470   16.7450 C   0  0  0  0  0  0  0  0  0  0  0  0
   32.4720   37.5490   15.9890 H   0  0  0  0  0  0  0  0  0  0  0  0
   34.7870   38.2310   17.3530 C   0  0  0  0  0  0  0  0  0  0  0  0
   35.1140   35.9640   16.8290 O   0  0  0  0  0  0  0  0  0  0  0  0
   29.3670   34.1460   16.0090 O   0  0  0  0  0  0  0  0  0  0  0  0
   29.4720   33.4060   16.6830 H   0  0  0  0  0  0  0  0  0  0  0  0
   31.5390   31.8750   15.0510 O   0  0  0  0  0  0  0  0  0  0  0  0
   30.7390   31.5080   14.6460 H   0  0  0  0  0  0  0  0  0  0  0  0
   27.9950   30.0610   17.7770 O   0  0  0  0  0  0  0  0  0  0  0  0
   27.6560   29.4810   16.5170 C   0  0  0  0  0  0  0  0  0  0  0  0
   26.3810   30.0790   16.0730 C   0  0  0  0  0  0  0  0  0  0  0  0
   26.2360   31.0460   15.0920 C   0  0  0  0  0  0  0  0  0  0  0  0
   25.1470   29.8180   16.5240 N   0  0  0  0  0  0  0  0  0  0  0  0
   24.9290   31.3280   14.9900 N   0  0  0  0  0  0  0  0  0  0  0  0
   24.2960   30.5760   15.8610 N   0  0  0  0  0  0  0  0  0  0  0  0
   24.3630   32.2900   14.0720 C   0  0  0  0  0  0  0  0  0  0  0  0
   24.5470   33.6710   14.6550 C   0  0  0  0  0  0  0  0  0  0  0  0
   24.9840   34.5510   13.6600 O   0  0  0  0  0  0  0  0  0  0  0  0
   26.2550   34.5030   13.1670 C   0  0  0  0  0  0  0  0  0  0  0  0
   27.2360   34.3480   13.9170 O   0  0  0  0  0  0  0  0  0  0  0  0
   26.5040   34.6360   11.6900 C   0  0  0  0  0  0  0  0  0  0  0  0
   29.8670   25.5550   16.9770 C   0  0  0  0  0  0  0  0  0  0  0  0
   28.3450   25.7220   17.0260 C   0  0  0  0  0  0  0  0  0  0  0  0
   27.5990   24.4330   16.7160 C   0  0  0  0  0  0  0  0  0  0  0  0
   27.0230   23.8010   17.9530 C   0  0  0  0  0  0  0  0  0  0  0  0
   25.6520   24.4040   18.2420 C   0  0  0  0  0  0  0  0  0  0  0  0
   24.7620   24.2540   17.0670 N   0  0  0  0  0  0  0  0  0  0  0  0
  1  2  1  0  0  0  0
  2  3  2  0  0  0  0
  4  1  1  0  0  0  0
  5  1  1  0  0  0  0
  6  5  1  1  0  0  0
  7  6  1  0  0  0  0
  7 27  1  1  0  0  0
  8  7  1  6  0  0  0
  9 16  1  6  0  0  0
  9 11  1  0  0  0  0
 10  9  1  0  0  0  0
 10 12  1  0  0  0  0
 11  8  1  0  0  0  0
 12 20  1  1  0  0  0
 12 13  1  0  0  0  0
 13  8  1  0  0  0  0
 13 22  1  6  0  0  0
 14 15  1  0  0  0  0
 14  9  1  0  0  0  0
 16 18  1  0  0  0  0
 17 16  2  0  0  0  0
 19 18  1  0  0  0  0
 21 20  1  0  0  0  0
 22 23  1  0  0  0  0
 23 26  2  0  0  0  0
 23 25  1  0  0  0  0
 24 22  1  0  0  0  0
 27 28  1  0  0  0  0
 29  6  1  0  0  0  0
 30 29  1  0  0  0  0
 31  2  1  0  0  0  0
 32 31  1  0  0  0  0
 33 32  1  0  0  0  0
 33 35  1  0  0  0  0
 34 33  2  0  0  0  0
 36 34  1  0  0  0  0
 36 37  1  0  0  0  0
 37 35  2  0  0  0  0
 38 39  1  0  0  0  0
 38 36  1  0  0  0  0
 40 39  1  0  0  0  0
 41 40  1  0  0  0  0
 41 42  2  0  0  0  0
 43 41  1  0  0  0  0
 44 45  1  0  0  0  0
 46 45  1  0  0  0  0
 46 47  1  0  0  0  0
 47 48  1  0  0  0  0
 49 48  1  0  0  0  0
M  END
>  <REMARK>
 VINA RESULT:    -4.174      2.354      6.154
 INTER + INTRA:         -14.016
 INTER:                  -8.019
 INTRA:                  -5.997
 UNBOUND:                -6.059
 SMILES CC(=O)N[C@@H]1[C@@H](O)C[C@](O)(C(=O)O)O[C@H]1C(O)[C@H](O)CNC(=O)OCc1cn(CCOC(C)=O)nn1
 SMILES IDX 21 1 22 2 23 3 20 5 18 6 16 7 15 8 9 9 8 10 14 11 6 12 5 13
 SMILES IDX 10 14 11 16 12 17 13 18 7 20 4 22 2 23 1 25 3 26 17 27 19 29
 SMILES IDX 24 31 25 32 26 33 27 34 36 35 28 36 35 37 29 38 30 39 31 40
 SMILES IDX 32 41 34 42 33 43
 H PARENT 21 4 10 15 13 19 7 21 4 24 17 28 19 30
 Flexibility Score: inf
  4 active torsions:
  status: ('A' for Active; 'I' for Inactive)
    1  A    between atoms: CA   and  CB  
    2  A    between atoms: CB   and  CG  
    3  A    between atoms: CG   and  CD  
    4  A    between atoms: CD   and  CE  

>  <TORSDO>
F 18

>  <BEGIN_>
RES LYS A 131

$$$$
ligand_19_pose_9_2HRL.pdbqt
 OpenBabel07062320523D

  6  5  0  0  0  0  0  0  0  0999 V2000
   33.1930   34.6630    9.2900 C   0  0  0  0  0  0  0  0  0  0  0  0
   32.0600   35.3600   10.0340 C   0  0  0  0  0  0  0  0  0  0  0  0
   30.7150   34.7140    9.8250 C   0  0  0  0  0  0  0  0  0  0  0  0
   30.3900   34.6190    8.3420 C   0  0  0  0  0  0  0  0  0  0  0  0
   28.8940   34.7280    8.1170 C   0  0  0  0  0  0  0  0  0  0  0  0
   28.4040   36.1010    8.4210 N   0  0  0  0  0  0  0  0  0  0  0  0
  1  2  1  0  0  0  0
  3  2  1  0  0  0  0
  4  3  1  0  0  0  0
  5  4  1  0  0  0  0
  5  6  1  0  0  0  0
M  END
>  <EGIN_R>
ES LYS A 135

>  <REMARK>
  4 active torsions:
  status: ('A' for Active; 'I' for Inactive)
    5  A    between atoms: CA   and  CB  
    6  A    between atoms: CB   and  CG  
    7  A    between atoms: CG   and  CD  
    8  A    between atoms: CD   and  CE  

$$$$
