ligand_64_pose_16_2HRL.pdbqt
 OpenBabel07062320523D

 59 61  0  0  1  0  0  0  0  0999 V2000
   26.6180   38.6160    6.1820 N   0  0  0  0  0  0  0  0  0  0  0  0
   25.9180   38.6150    7.4300 C   0  0  0  0  0  0  0  0  0  0  0  0
   25.7190   39.7180    8.0010 O   0  0  0  0  0  0  0  0  0  0  0  0
   26.7530   37.6540    5.7540 H   0  0  0  0  0  0  0  0  0  0  0  0
   27.1050   39.8090    5.5460 C   0  0  0  0  0  0  0  0  0  0  0  0
   28.5660   39.6950    5.2280 C   0  0  2  0  0  0  0  0  0  0  0  0
   29.2610   39.0560    6.4230 C   0  0  2  0  0  0  0  0  0  0  0  0
   30.3860   39.9180    6.8810 C   0  0  2  0  0  0  0  0  0  0  0  0
   32.6990   39.8790    7.1210 C   0  0  2  0  0  0  0  0  0  0  0  0
   32.4500   41.3610    7.3720 C   0  0  0  0  0  0  0  0  0  0  0  0
   31.5910   39.2170    6.6580 O   0  0  0  0  0  0  0  0  0  0  0  0
   31.4090   41.4720    8.4300 C   0  0  1  0  0  0  0  0  0  0  0  0
   30.4020   40.3050    8.3190 C   0  0  1  0  0  0  0  0  0  0  0  0
   33.1230   39.3740    8.3740 O   0  0  0  0  0  0  0  0  0  0  0  0
   34.0570   39.0730    8.2270 H   0  0  0  0  0  0  0  0  0  0  0  0
   33.7910   39.6770    6.1510 C   0  0  0  0  0  0  0  0  0  0  0  0
   34.0350   40.5450    5.2940 O   0  0  0  0  0  0  0  0  0  0  0  0
   34.5530   38.5280    6.1840 O   0  0  0  0  0  0  0  0  0  0  0  0
   35.3000   38.3800    6.8570 H   0  0  0  0  0  0  0  0  0  0  0  0
   31.9120   41.5670    9.7090 O   0  0  0  0  0  0  0  0  0  0  0  0
   32.5500   40.8420    9.8890 H   0  0  0  0  0  0  0  0  0  0  0  0
   29.1490   40.7380    8.8740 N   0  0  0  0  0  0  0  0  0  0  0  0
   28.8010   40.4610   10.2470 C   0  0  0  0  0  0  0  0  0  0  0  0
   28.4850   41.2600    8.2980 H   0  0  0  0  0  0  0  0  0  0  0  0
   27.5300   40.8850   10.8540 C   0  0  0  0  0  0  0  0  0  0  0  0
   29.6720   39.8190   10.9070 O   0  0  0  0  0  0  0  0  0  0  0  0
   29.6040   37.7460    6.2280 O   0  0  0  0  0  0  0  0  0  0  0  0
   30.5480   37.5300    6.3300 H   0  0  0  0  0  0  0  0  0  0  0  0
   29.0260   41.0200    5.0860 O   0  0  0  0  0  0  0  0  0  0  0  0
   28.4690   41.4170    4.3850 H   0  0  0  0  0  0  0  0  0  0  0  0
   25.4740   37.4260    7.9890 O   0  0  0  0  0  0  0  0  0  0  0  0
   24.6780   37.5000    9.1540 C   0  0  0  0  0  0  0  0  0  0  0  0
   25.3370   36.6590   10.1870 C   0  0  0  0  0  0  0  0  0  0  0  0
   26.6450   36.7890   10.6700 C   0  0  0  0  0  0  0  0  0  0  0  0
   24.8490   35.6050   10.8830 N   0  0  0  0  0  0  0  0  0  0  0  0
   26.8830   35.8480   11.6000 N   0  0  0  0  0  0  0  0  0  0  0  0
   25.7800   35.1450   11.7080 N   0  0  0  0  0  0  0  0  0  0  0  0
   28.1390   35.7080   12.2960 C   0  0  0  0  0  0  0  0  0  0  0  0
   29.1600   36.6060   12.1270 C   0  0  0  0  0  0  0  0  0  0  0  0
   28.3450   34.6420   13.1640 C   0  0  0  0  0  0  0  0  0  0  0  0
   30.3730   36.5020   12.7760 C   0  0  0  0  0  0  0  0  0  0  0  0
   29.5450   34.5260   13.8160 C   0  0  0  0  0  0  0  0  0  0  0  0
   30.5080   35.4510   13.6000 N   0  0  0  0  0  0  0  0  0  0  0  0
   31.4420   37.4670   12.5820 C   0  0  0  0  0  0  0  0  0  0  0  0
   32.3650   37.1960   11.7890 O   0  0  0  0  0  0  0  0  0  0  0  0
   31.4570   38.6720   13.2520 O   0  0  0  0  0  0  0  0  0  0  0  0
   30.6850   39.3450   13.2030 H   0  0  0  0  0  0  0  0  0  0  0  0
   29.7920   33.4060   14.7430 C   0  0  0  0  0  0  0  0  0  0  0  0
   28.7050   32.8080   15.3420 C   0  0  0  0  0  0  0  0  0  0  0  0
   31.0660   32.9810   14.9920 C   0  0  0  0  0  0  0  0  0  0  0  0
   28.9310   31.7630   16.2070 C   0  0  0  0  0  0  0  0  0  0  0  0
   31.2490   31.9280   15.8670 C   0  0  0  0  0  0  0  0  0  0  0  0
   30.1970   31.2960   16.4910 C   0  0  0  0  0  0  0  0  0  0  0  0
   29.8670   25.5550   16.9770 C   0  0  0  0  0  0  0  0  0  0  0  0
   28.3450   25.7220   17.0260 C   0  0  0  0  0  0  0  0  0  0  0  0
   27.6010   24.4040   16.8790 C   0  0  0  0  0  0  0  0  0  0  0  0
   26.6010   24.1920   17.9820 C   0  0  0  0  0  0  0  0  0  0  0  0
   25.1910   24.3790   17.4340 C   0  0  0  0  0  0  0  0  0  0  0  0
   24.7470   25.7820   17.6110 N   0  0  0  0  0  0  0  0  0  0  0  0
  1  2  1  0  0  0  0
  2 31  1  0  0  0  0
  2  3  2  0  0  0  0
  4  1  1  0  0  0  0
  5  1  1  0  0  0  0
  6  5  1  1  0  0  0
  6  7  1  0  0  0  0
  7 27  1  6  0  0  0
  8  7  1  1  0  0  0
  8 13  1  0  0  0  0
  9 16  1  6  0  0  0
  9 10  1  0  0  0  0
  9 14  1  0  0  0  0
 10 12  1  0  0  0  0
 11  8  1  0  0  0  0
 11  9  1  0  0  0  0
 12 20  1  1  0  0  0
 13 12  1  0  0  0  0
 13 22  1  6  0  0  0
 15 14  1  0  0  0  0
 16 18  1  0  0  0  0
 17 16  2  0  0  0  0
 18 19  1  0  0  0  0
 20 21  1  0  0  0  0
 22 23  1  0  0  0  0
 23 25  1  0  0  0  0
 23 26  2  0  0  0  0
 24 22  1  0  0  0  0
 27 28  1  0  0  0  0
 29  6  1  0  0  0  0
 30 29  1  0  0  0  0
 31 32  1  0  0  0  0
 32 33  1  0  0  0  0
 33 34  2  0  0  0  0
 33 35  1  0  0  0  0
 34 36  1  0  0  0  0
 35 37  2  0  0  0  0
 36 37  1  0  0  0  0
 36 38  1  0  0  0  0
 38 40  1  0  0  0  0
 39 38  2  0  0  0  0
 39 41  1  0  0  0  0
 40 42  2  0  0  0  0
 41 43  2  0  0  0  0
 42 48  1  0  0  0  0
 43 42  1  0  0  0  0
 44 41  1  0  0  0  0
 44 46  1  0  0  0  0
 45 44  2  0  0  0  0
 47 46  1  0  0  0  0
 48 50  2  0  0  0  0
 48 49  1  0  0  0  0
 49 51  2  0  0  0  0
 50 52  1  0  0  0  0
 51 53  1  0  0  0  0
 52 53  2  0  0  0  0
 54 55  1  0  0  0  0
 56 55  1  0  0  0  0
 56 57  1  0  0  0  0
 58 59  1  0  0  0  0
 58 57  1  0  0  0  0
M  END
>  <REMARK>
 VINA RESULT:    -5.900      4.027      8.331
 INTER + INTRA:         -16.290
 INTER:                 -10.236
 INTRA:                  -6.054
 UNBOUND:                -5.216
 SMILES CC(=O)N[C@@H]1[C@@H](O)C[C@](O)(C(=O)O)O[C@H]1C(O)[C@H](O)CNC(=O)OCc1cn(-c2cc(C(=O)O)nc(-c3ccccc3)c2)nn1
 SMILES IDX 21 1 22 2 23 3 20 5 18 6 16 7 15 8 9 9 8 10 14 11 6 12 5 13
 SMILES IDX 10 14 11 16 12 17 13 18 7 20 4 22 2 23 1 25 3 26 17 27 19 29
 SMILES IDX 24 31 25 32 26 33 27 34 45 35 28 36 44 37 29 38 30 39 43 40
 SMILES IDX 31 41 36 42 35 43 32 44 33 45 34 46 37 48 38 49 42 50 39 51
 SMILES IDX 41 52 40 53
 H PARENT 21 4 10 15 13 19 7 21 4 24 17 28 19 30 34 47
 Flexibility Score: inf
  4 active torsions:
  status: ('A' for Active; 'I' for Inactive)
    1  A    between atoms: CA   and  CB  
    2  A    between atoms: CB   and  CG  
    3  A    between atoms: CG   and  CD  
    4  A    between atoms: CD   and  CE  

>  <TORSDO>
F 18

>  <BEGIN_>
RES LYS A 131

$$$$
ligand_64_pose_16_2HRL.pdbqt
 OpenBabel07062320523D

  6  5  0  0  0  0  0  0  0  0999 V2000
   33.1930   34.6630    9.2900 C   0  0  0  0  0  0  0  0  0  0  0  0
   32.0600   35.3600   10.0340 C   0  0  0  0  0  0  0  0  0  0  0  0
   30.7680   35.4050    9.2590 C   0  0  0  0  0  0  0  0  0  0  0  0
   30.1510   34.0180    9.1640 C   0  0  0  0  0  0  0  0  0  0  0  0
   28.6500   34.1150    8.9680 C   0  0  0  0  0  0  0  0  0  0  0  0
   28.3130   35.0660    7.8720 N   0  0  0  0  0  0  0  0  0  0  0  0
  1  2  1  0  0  0  0
  3  2  1  0  0  0  0
  4  3  1  0  0  0  0
  5  4  1  0  0  0  0
  6  5  1  0  0  0  0
M  END
>  <EGIN_R>
ES LYS A 135

>  <REMARK>
  4 active torsions:
  status: ('A' for Active; 'I' for Inactive)
    5  A    between atoms: CA   and  CB  
    6  A    between atoms: CB   and  CG  
    7  A    between atoms: CG   and  CD  
    8  A    between atoms: CD   and  CE  

$$$$
