ligand_4_pose_17_2HRL.pdbqt
 OpenBabel07062320523D

 52 53  0  0  1  0  0  0  0  0999 V2000
   27.8800   38.3070   15.5800 N   0  0  0  0  0  0  0  0  0  0  0  0
   27.5330   39.6610   15.4160 C   0  0  0  0  0  0  0  0  0  0  0  0
   27.6250   40.4730   16.3590 O   0  0  0  0  0  0  0  0  0  0  0  0
   27.7930   37.6690   14.7430 H   0  0  0  0  0  0  0  0  0  0  0  0
   28.3410   37.7820   16.8180 C   0  0  0  0  0  0  0  0  0  0  0  0
   29.8510   37.8810   17.0260 C   0  0  2  0  0  0  0  0  0  0  0  0
   30.3870   36.6620   16.2700 C   0  0  2  0  0  0  0  0  0  0  0  0
   31.1860   37.0290   15.0600 C   0  0  2  0  0  0  0  0  0  0  0  0
   30.4730   37.8740   13.0210 C   0  0  2  0  0  0  0  0  0  0  0  0
   31.5450   37.1440   12.2910 C   0  0  0  0  0  0  0  0  0  0  0  0
   30.6000   38.0350   14.3680 O   0  0  0  0  0  0  0  0  0  0  0  0
   32.1640   35.9780   13.0310 C   0  0  1  0  0  0  0  0  0  0  0  0
   31.3150   35.7500   14.2470 C   0  0  1  0  0  0  0  0  0  0  0  0
   29.2090   37.3270   12.6790 O   0  0  0  0  0  0  0  0  0  0  0  0
   29.2010   36.8830   11.8120 H   0  0  0  0  0  0  0  0  0  0  0  0
   30.4580   39.2730   12.4560 C   0  0  0  0  0  0  0  0  0  0  0  0
   31.5350   39.7550   12.0450 O   0  0  0  0  0  0  0  0  0  0  0  0
   29.3050   40.0400   12.3670 O   0  0  0  0  0  0  0  0  0  0  0  0
   29.2940   41.0530   12.2700 H   0  0  0  0  0  0  0  0  0  0  0  0
   32.0790   34.8280   12.1860 O   0  0  0  0  0  0  0  0  0  0  0  0
   31.3890   34.9530   11.4930 H   0  0  0  0  0  0  0  0  0  0  0  0
   31.6090   34.6530   15.0830 N   0  0  0  0  0  0  0  0  0  0  0  0
   30.9580   33.3960   15.0420 C   0  0  0  0  0  0  0  0  0  0  0  0
   32.3860   34.7540   15.8210 H   0  0  0  0  0  0  0  0  0  0  0  0
   31.2800   32.2670   15.9230 C   0  0  0  0  0  0  0  0  0  0  0  0
   30.0120   33.2890   14.1510 O   0  0  0  0  0  0  0  0  0  0  0  0
   29.2540   35.8990   15.9740 O   0  0  0  0  0  0  0  0  0  0  0  0
   28.5380   36.1860   16.6010 H   0  0  0  0  0  0  0  0  0  0  0  0
   30.2410   37.8320   18.3240 O   0  0  0  0  0  0  0  0  0  0  0  0
   29.5690   37.5150   18.9240 H   0  0  0  0  0  0  0  0  0  0  0  0
   27.0730   40.1370   14.1860 O   0  0  0  0  0  0  0  0  0  0  0  0
   25.7650   39.7610   13.7840 C   0  0  0  0  0  0  0  0  0  0  0  0
   25.9550   38.7330   12.7290 C   0  0  0  0  0  0  0  0  0  0  0  0
   26.0070   39.0250   11.3600 C   0  0  0  0  0  0  0  0  0  0  0  0
   26.2140   37.4240   12.8600 N   0  0  0  0  0  0  0  0  0  0  0  0
   26.3060   37.8590   10.7570 N   0  0  0  0  0  0  0  0  0  0  0  0
   26.4180   36.9660   11.6540 N   0  0  0  0  0  0  0  0  0  0  0  0
   26.5830   37.7390    9.3750 C   0  0  0  0  0  0  0  0  0  0  0  0
   25.6540   37.2650    8.5310 C   0  0  0  0  0  0  0  0  0  0  0  0
   27.8960   37.9580    8.9310 C   0  0  0  0  0  0  0  0  0  0  0  0
   26.0110   36.9930    7.2110 C   0  0  0  0  0  0  0  0  0  0  0  0
   28.2580   37.7020    7.6600 C   0  0  0  0  0  0  0  0  0  0  0  0
   27.3200   37.2100    6.7630 C   0  0  0  0  0  0  0  0  0  0  0  0
   24.2630   37.1580    8.9250 C   0  0  0  0  0  0  0  0  0  0  0  0
   23.8230   35.7180    9.1390 C   0  0  0  0  0  0  0  0  0  0  0  0
   23.4370   37.4840    7.6010 C   0  0  0  0  0  0  0  0  0  0  0  0
   29.8670   25.5550   16.9770 C   0  0  0  0  0  0  0  0  0  0  0  0
   28.3450   25.7220   17.0260 C   0  0  0  0  0  0  0  0  0  0  0  0
   27.5990   24.4210   16.7710 C   0  0  0  0  0  0  0  0  0  0  0  0
   26.8830   23.9290   17.9970 C   0  0  0  0  0  0  0  0  0  0  0  0
   25.5910   23.2300   17.5860 C   0  0  0  0  0  0  0  0  0  0  0  0
   24.6860   24.1770   16.8940 N   0  0  0  0  0  0  0  0  0  0  0  0
  1  5  1  0  0  0  0
  2  1  1  0  0  0  0
  2  3  2  0  0  0  0
  4  1  1  0  0  0  0
  6  5  1  1  0  0  0
  6 29  1  0  0  0  0
  7 27  1  6  0  0  0
  7  6  1  0  0  0  0
  8  7  1  1  0  0  0
  9 16  1  6  0  0  0
  9 11  1  0  0  0  0
 10  9  1  0  0  0  0
 10 12  1  0  0  0  0
 11  8  1  0  0  0  0
 12 20  1  6  0  0  0
 12 13  1  0  0  0  0
 13  8  1  0  0  0  0
 13 22  1  1  0  0  0
 14  9  1  0  0  0  0
 15 14  1  0  0  0  0
 17 16  2  0  0  0  0
 18 16  1  0  0  0  0
 19 18  1  0  0  0  0
 21 20  1  0  0  0  0
 22 24  1  0  0  0  0
 23 22  1  0  0  0  0
 23 25  1  0  0  0  0
 26 23  2  0  0  0  0
 27 28  1  0  0  0  0
 29 30  1  0  0  0  0
 31  2  1  0  0  0  0
 32 31  1  0  0  0  0
 33 35  1  0  0  0  0
 33 32  1  0  0  0  0
 34 33  2  0  0  0  0
 36 34  1  0  0  0  0
 36 37  1  0  0  0  0
 37 35  2  0  0  0  0
 38 36  1  0  0  0  0
 39 44  1  0  0  0  0
 39 38  2  0  0  0  0
 40 38  1  0  0  0  0
 41 39  1  0  0  0  0
 42 40  2  0  0  0  0
 43 41  2  0  0  0  0
 43 42  1  0  0  0  0
 44 45  1  0  0  0  0
 46 44  1  0  0  0  0
 47 48  1  0  0  0  0
 49 48  1  0  0  0  0
 49 50  1  0  0  0  0
 51 50  1  0  0  0  0
 52 51  1  0  0  0  0
M  END
>  <REMARK>
 VINA RESULT:    -4.004      4.401      7.614
 INTER + INTRA:         -14.401
 INTER:                  -7.164
 INTRA:                  -7.237
 UNBOUND:                -7.237
 SMILES CC(=O)N[C@@H]1[C@@H](O)C[C@](O)(C(=O)O)O[C@H]1C(O)[C@H](O)CNC(=O)OCc1cn(-c2ccccc2C(C)C)nn1
 SMILES IDX 21 1 22 2 23 3 20 5 18 6 16 7 15 8 9 9 8 10 14 11 6 12 5 13
 SMILES IDX 10 14 11 16 12 17 13 18 7 20 4 22 2 23 1 25 3 26 17 27 19 29
 SMILES IDX 24 31 25 32 26 33 27 34 39 35 28 36 38 37 29 38 34 39 30 40
 SMILES IDX 33 41 31 42 32 43 35 44 36 45 37 46
 H PARENT 21 4 10 15 13 19 7 21 4 24 17 28 19 30
 Flexibility Score: inf
  4 active torsions:
  status: ('A' for Active; 'I' for Inactive)
    1  A    between atoms: CA   and  CB  
    2  A    between atoms: CB   and  CG  
    3  A    between atoms: CG   and  CD  
    4  A    between atoms: CD   and  CE  

>  <TORSDO>
F 16

>  <BEGIN_>
RES LYS A 131

$$$$
ligand_4_pose_17_2HRL.pdbqt
 OpenBabel07062320523D

  6  5  0  0  0  0  0  0  0  0999 V2000
   33.1930   34.6630    9.2900 C   0  0  0  0  0  0  0  0  0  0  0  0
   32.0600   35.3600   10.0340 C   0  0  0  0  0  0  0  0  0  0  0  0
   30.7900   35.4700    9.2310 C   0  0  0  0  0  0  0  0  0  0  0  0
   30.1270   34.1090    9.0850 C   0  0  0  0  0  0  0  0  0  0  0  0
   28.7800   34.0950    9.7820 C   0  0  0  0  0  0  0  0  0  0  0  0
   27.6680   34.2530    8.8040 N   0  0  0  0  0  0  0  0  0  0  0  0
  1  2  1  0  0  0  0
  3  2  1  0  0  0  0
  4  3  1  0  0  0  0
  4  5  1  0  0  0  0
  6  5  1  0  0  0  0
M  END
>  <EGIN_R>
ES LYS A 135

>  <REMARK>
  4 active torsions:
  status: ('A' for Active; 'I' for Inactive)
    5  A    between atoms: CA   and  CB  
    6  A    between atoms: CB   and  CG  
    7  A    between atoms: CG   and  CD  
    8  A    between atoms: CD   and  CE  

$$$$
