ligand_39_pose_13_2HRL.pdbqt
 OpenBabel07062320523D

 51 52  0  0  1  0  0  0  0  0999 V2000
   27.7740   28.2120   18.4200 N   0  0  0  0  0  0  0  0  0  0  0  0
   26.8170   28.4570   17.4290 C   0  0  0  0  0  0  0  0  0  0  0  0
   25.7430   27.7930   17.4330 O   0  0  0  0  0  0  0  0  0  0  0  0
   28.6590   28.7890   18.3830 H   0  0  0  0  0  0  0  0  0  0  0  0
   27.6400   27.2340   19.4780 C   0  0  0  0  0  0  0  0  0  0  0  0
   28.5750   27.5900   20.6130 C   0  0  2  0  0  0  0  0  0  0  0  0
   28.7870   29.0860   20.7040 C   0  0  2  0  0  0  0  0  0  0  0  0
   29.8250   29.4520   21.7460 C   0  0  2  0  0  0  0  0  0  0  0  0
   32.1420   29.5560   21.9890 C   0  0  2  0  0  0  0  0  0  0  0  0
   32.1160   28.7210   23.2120 C   0  0  0  0  0  0  0  0  0  0  0  0
   31.0510   29.2620   21.1860 O   0  0  0  0  0  0  0  0  0  0  0  0
   30.8450   28.0460   23.5560 C   0  0  1  0  0  0  0  0  0  0  0  0
   29.6010   28.7010   23.0280 C   0  0  1  0  0  0  0  0  0  0  0  0
   33.2730   29.1870   21.2150 O   0  0  0  0  0  0  0  0  0  0  0  0
   33.4820   29.8820   20.5360 H   0  0  0  0  0  0  0  0  0  0  0  0
   32.2700   30.9800   22.3030 C   0  0  0  0  0  0  0  0  0  0  0  0
   32.4780   31.8660   21.4290 O   0  0  0  0  0  0  0  0  0  0  0  0
   32.1630   31.3970   23.6220 O   0  0  0  0  0  0  0  0  0  0  0  0
   31.5780   32.1730   23.9100 H   0  0  0  0  0  0  0  0  0  0  0  0
   30.8930   26.6910   23.1800 O   0  0  0  0  0  0  0  0  0  0  0  0
   31.5660   26.6650   22.4280 H   0  0  0  0  0  0  0  0  0  0  0  0
   28.9600   29.5120   24.0390 N   0  0  0  0  0  0  0  0  0  0  0  0
   27.5790   29.4080   24.3430 C   0  0  0  0  0  0  0  0  0  0  0  0
   29.5220   30.2040   24.5720 H   0  0  0  0  0  0  0  0  0  0  0  0
   26.9020   30.2360   25.3810 C   0  0  0  0  0  0  0  0  0  0  0  0
   26.9100   28.5490   23.6740 O   0  0  0  0  0  0  0  0  0  0  0  0
   27.5700   29.7220   20.9300 O   0  0  0  0  0  0  0  0  0  0  0  0
   26.8290   29.0700   20.7320 H   0  0  0  0  0  0  0  0  0  0  0  0
   29.7950   26.9420   20.3060 O   0  0  0  0  0  0  0  0  0  0  0  0
   30.4950   27.1610   20.9420 H   0  0  0  0  0  0  0  0  0  0  0  0
   26.9560   29.3960   16.4170 O   0  0  0  0  0  0  0  0  0  0  0  0
   28.2240   29.6220   15.8250 C   0  0  0  0  0  0  0  0  0  0  0  0
   28.8640   30.8410   16.3610 C   0  0  0  0  0  0  0  0  0  0  0  0
   28.9120   32.1040   15.7540 C   0  0  0  0  0  0  0  0  0  0  0  0
   29.5270   31.0150   17.5110 N   0  0  0  0  0  0  0  0  0  0  0  0
   29.5680   32.9680   16.5090 N   0  0  0  0  0  0  0  0  0  0  0  0
   29.9420   32.2600   17.6020 N   0  0  0  0  0  0  0  0  0  0  0  0
   29.9220   34.3610   16.3780 C   0  0  0  0  0  0  0  0  0  0  0  0
   31.0000   34.6580   15.4440 C   0  0  0  0  0  0  0  0  0  0  0  0
   32.3370   34.5870   15.8430 C   0  0  0  0  0  0  0  0  0  0  0  0
   30.7640   34.9850   14.1400 C   0  0  0  0  0  0  0  0  0  0  0  0
   33.3370   34.8370   14.9440 C   0  0  0  0  0  0  0  0  0  0  0  0
   31.7780   35.2380   13.2350 C   0  0  0  0  0  0  0  0  0  0  0  0
   28.9640   35.1680   13.4700 Br  0  0  0  0  0  0  0  0  0  0  0  0
   33.0890   35.1640   13.6340 C   0  0  0  0  0  0  0  0  0  0  0  0
   29.8670   25.5550   16.9770 C   0  0  0  0  0  0  0  0  0  0  0  0
   28.3450   25.7220   17.0260 C   0  0  0  0  0  0  0  0  0  0  0  0
   27.5990   24.4330   16.7160 C   0  0  0  0  0  0  0  0  0  0  0  0
   27.0020   23.8130   17.9490 C   0  0  0  0  0  0  0  0  0  0  0  0
   25.5730   23.3690   17.6550 C   0  0  0  0  0  0  0  0  0  0  0  0
   24.8380   24.4320   16.9290 N   0  0  0  0  0  0  0  0  0  0  0  0
  1  5  1  0  0  0  0
  2  3  2  0  0  0  0
  2  1  1  0  0  0  0
  4  1  1  0  0  0  0
  6  5  1  6  0  0  0
  6  7  1  0  0  0  0
  7 27  1  1  0  0  0
  8  7  1  6  0  0  0
  8 13  1  0  0  0  0
  9 14  1  6  0  0  0
  9 16  1  0  0  0  0
  9 10  1  0  0  0  0
 10 12  1  0  0  0  0
 11  8  1  0  0  0  0
 11  9  1  0  0  0  0
 12 20  1  6  0  0  0
 13 12  1  0  0  0  0
 13 22  1  1  0  0  0
 15 14  1  0  0  0  0
 16 18  1  0  0  0  0
 17 16  2  0  0  0  0
 18 19  1  0  0  0  0
 21 20  1  0  0  0  0
 22 23  1  0  0  0  0
 22 24  1  0  0  0  0
 23 25  1  0  0  0  0
 26 23  2  0  0  0  0
 28 27  1  0  0  0  0
 29  6  1  0  0  0  0
 29 30  1  0  0  0  0
 31  2  1  0  0  0  0
 32 33  1  0  0  0  0
 32 31  1  0  0  0  0
 33 35  1  0  0  0  0
 34 33  2  0  0  0  0
 34 36  1  0  0  0  0
 35 37  2  0  0  0  0
 36 37  1  0  0  0  0
 38 36  1  0  0  0  0
 39 40  1  0  0  0  0
 39 38  1  0  0  0  0
 41 39  2  0  0  0  0
 42 40  2  0  0  0  0
 43 45  2  0  0  0  0
 43 41  1  0  0  0  0
 44 41  1  0  0  0  0
 45 42  1  0  0  0  0
 46 47  1  0  0  0  0
 48 47  1  0  0  0  0
 48 49  1  0  0  0  0
 50 49  1  0  0  0  0
 51 50  1  0  0  0  0
M  END
>  <REMARK>
 VINA RESULT:    -3.924      2.492      3.857
 INTER + INTRA:         -14.447
 INTER:                  -8.365
 INTRA:                  -6.083
 UNBOUND:                -7.426
 SMILES CC(=O)N[C@@H]1[C@@H](O)C[C@](O)(C(=O)O)O[C@H]1C(O)[C@H](O)CNC(=O)OCc1cn(Cc2ccccc2Br)nn1
 SMILES IDX 21 1 22 2 23 3 20 5 18 6 16 7 15 8 9 9 8 10 14 11 6 12 5 13
 SMILES IDX 10 14 11 16 12 17 13 18 7 20 4 22 2 23 1 25 3 26 17 27 19 29
 SMILES IDX 24 31 25 32 26 33 27 34 38 35 28 36 37 37 29 38 30 39 31 40
 SMILES IDX 35 41 32 42 34 43 36 44 33 45
 H PARENT 21 4 10 15 13 19 7 21 4 24 17 28 19 30
 Flexibility Score: inf
  4 active torsions:
  status: ('A' for Active; 'I' for Inactive)
    1  A    between atoms: CA   and  CB  
    2  A    between atoms: CB   and  CG  
    3  A    between atoms: CG   and  CD  
    4  A    between atoms: CD   and  CE  

>  <TORSDO>
F 16

>  <BEGIN_>
RES LYS A 131

$$$$
ligand_39_pose_13_2HRL.pdbqt
 OpenBabel07062320523D

  6  5  0  0  0  0  0  0  0  0999 V2000
   33.1930   34.6630    9.2900 C   0  0  0  0  0  0  0  0  0  0  0  0
   32.0600   35.3600   10.0340 C   0  0  0  0  0  0  0  0  0  0  0  0
   30.7040   34.7620    9.7630 C   0  0  0  0  0  0  0  0  0  0  0  0
   30.5270   34.4840    8.2780 C   0  0  0  0  0  0  0  0  0  0  0  0
   29.1340   34.8760    7.8250 C   0  0  0  0  0  0  0  0  0  0  0  0
   28.9820   36.3570    7.7760 N   0  0  0  0  0  0  0  0  0  0  0  0
  1  2  1  0  0  0  0
  3  2  1  0  0  0  0
  4  3  1  0  0  0  0
  5  4  1  0  0  0  0
  6  5  1  0  0  0  0
M  END
>  <EGIN_R>
ES LYS A 135

>  <REMARK>
  4 active torsions:
  status: ('A' for Active; 'I' for Inactive)
    5  A    between atoms: CA   and  CB  
    6  A    between atoms: CB   and  CG  
    7  A    between atoms: CG   and  CD  
    8  A    between atoms: CD   and  CE  

$$$$
