ligand_67_pose_16_2HRL.pdbqt
 OpenBabel07062320523D

 50 51  0  0  1  0  0  0  0  0999 V2000
   31.9060   37.6470   18.4180 N   0  0  0  0  0  0  0  0  0  0  0  0
   31.9600   36.2400   18.5660 C   0  0  0  0  0  0  0  0  0  0  0  0
   31.1240   35.5150   17.9270 O   0  0  0  0  0  0  0  0  0  0  0  0
   32.5780   38.2420   18.9300 H   0  0  0  0  0  0  0  0  0  0  0  0
   30.9260   38.2300   17.5640 C   0  0  0  0  0  0  0  0  0  0  0  0
   31.5020   38.8870   16.3400 C   0  0  2  0  0  0  0  0  0  0  0  0
   30.8390   38.4480   15.0690 C   0  0  1  0  0  0  0  0  0  0  0  0
   31.0700   36.9720   14.8330 C   0  0  2  0  0  0  0  0  0  0  0  0
   32.2850   35.5580   13.4420 C   0  0  2  0  0  0  0  0  0  0  0  0
   31.0820   34.6650   13.3620 C   0  0  0  0  0  0  0  0  0  0  0  0
   32.0250   36.8370   13.8600 O   0  0  0  0  0  0  0  0  0  0  0  0
   29.8670   35.5500   13.1810 C   0  0  1  0  0  0  0  0  0  0  0  0
   29.7250   36.3670   14.4580 C   0  0  1  0  0  0  0  0  0  0  0  0
   32.8110   35.6600   12.1330 O   0  0  0  0  0  0  0  0  0  0  0  0
   33.7290   35.3300   12.0830 H   0  0  0  0  0  0  0  0  0  0  0  0
   33.3640   34.8970   14.2430 C   0  0  0  0  0  0  0  0  0  0  0  0
   34.4530   34.5100   13.7630 O   0  0  0  0  0  0  0  0  0  0  0  0
   33.1220   34.7110   15.5960 O   0  0  0  0  0  0  0  0  0  0  0  0
   32.2080   34.5040   15.9860 H   0  0  0  0  0  0  0  0  0  0  0  0
   30.1200   36.4310   12.1190 O   0  0  0  0  0  0  0  0  0  0  0  0
   30.7940   37.1120   12.3530 H   0  0  0  0  0  0  0  0  0  0  0  0
   29.2270   35.4880   15.5040 N   0  0  0  0  0  0  0  0  0  0  0  0
   28.0200   35.8210   16.1700 C   0  0  0  0  0  0  0  0  0  0  0  0
   29.7530   34.6070   15.7710 H   0  0  0  0  0  0  0  0  0  0  0  0
   27.4310   34.9900   17.2500 C   0  0  0  0  0  0  0  0  0  0  0  0
   27.4250   36.8800   15.8180 O   0  0  0  0  0  0  0  0  0  0  0  0
   29.4850   38.7850   15.0630 O   0  0  0  0  0  0  0  0  0  0  0  0
   29.0040   38.4760   14.2660 H   0  0  0  0  0  0  0  0  0  0  0  0
   32.8600   38.6100   16.2760 O   0  0  0  0  0  0  0  0  0  0  0  0
   33.2350   38.6740   15.3790 H   0  0  0  0  0  0  0  0  0  0  0  0
   32.8550   35.5780   19.3570 O   0  0  0  0  0  0  0  0  0  0  0  0
   34.1520   36.0250   19.7040 C   0  0  0  0  0  0  0  0  0  0  0  0
   35.0870   35.9930   18.5550 C   0  0  0  0  0  0  0  0  0  0  0  0
   36.4140   35.6310   18.5870 C   0  0  0  0  0  0  0  0  0  0  0  0
   34.8210   36.3120   17.2790 N   0  0  0  0  0  0  0  0  0  0  0  0
   36.9120   35.7390   17.3370 N   0  0  0  0  0  0  0  0  0  0  0  0
   35.9250   36.1540   16.5640 N   0  0  0  0  0  0  0  0  0  0  0  0
   38.2640   35.4610   16.8690 C   0  0  0  0  0  0  0  0  0  0  0  0
   38.3100   34.1400   16.1320 C   0  0  0  0  0  0  0  0  0  0  0  0
   38.2770   34.3420   14.6550 C   0  0  0  0  0  0  0  0  0  0  0  0
   37.6610   33.3140   13.9530 O   0  0  0  0  0  0  0  0  0  0  0  0
   39.5240   34.5270   14.0770 O   0  0  0  0  0  0  0  0  0  0  0  0
   38.1500   33.3800   12.6510 C   0  0  0  0  0  0  0  0  0  0  0  0
   39.4470   34.1260   12.7640 C   0  0  0  0  0  0  0  0  0  0  0  0
   29.8670   25.5550   16.9770 C   0  0  0  0  0  0  0  0  0  0  0  0
   28.3450   25.7220   17.0260 C   0  0  0  0  0  0  0  0  0  0  0  0
   27.6010   24.4030   16.8880 C   0  0  0  0  0  0  0  0  0  0  0  0
   26.6120   24.1910   18.0010 C   0  0  0  0  0  0  0  0  0  0  0  0
   25.3280   24.9540   17.6920 C   0  0  0  0  0  0  0  0  0  0  0  0
   24.4390   24.1450   16.8250 N   0  0  0  0  0  0  0  0  0  0  0  0
  1  2  1  0  0  0  0
  1  4  1  0  0  0  0
  2 31  1  0  0  0  0
  3  2  2  0  0  0  0
  5  1  1  0  0  0  0
  6  5  1  1  0  0  0
  7 27  1  1  0  0  0
  7  6  1  0  0  0  0
  8  7  1  6  0  0  0
  9 14  1  6  0  0  0
  9 11  1  0  0  0  0
  9 16  1  0  0  0  0
 10  9  1  0  0  0  0
 11  8  1  0  0  0  0
 12 20  1  6  0  0  0
 12 10  1  0  0  0  0
 12 13  1  0  0  0  0
 13  8  1  0  0  0  0
 13 22  1  1  0  0  0
 15 14  1  0  0  0  0
 16 18  1  0  0  0  0
 17 16  2  0  0  0  0
 18 19  1  0  0  0  0
 20 21  1  0  0  0  0
 22 24  1  0  0  0  0
 22 23  1  0  0  0  0
 23 25  1  0  0  0  0
 26 23  2  0  0  0  0
 28 27  1  0  0  0  0
 29  6  1  0  0  0  0
 30 29  1  0  0  0  0
 31 32  1  0  0  0  0
 33 34  2  0  0  0  0
 33 32  1  0  0  0  0
 35 33  1  0  0  0  0
 36 34  1  0  0  0  0
 37 35  2  0  0  0  0
 37 36  1  0  0  0  0
 38 36  1  0  0  0  0
 39 38  1  0  0  0  0
 40 39  1  0  0  0  0
 41 40  1  0  0  0  0
 42 40  1  0  0  0  0
 43 44  1  0  0  0  0
 43 41  1  0  0  0  0
 44 42  1  0  0  0  0
 45 46  1  0  0  0  0
 47 46  1  0  0  0  0
 47 48  1  0  0  0  0
 49 48  1  0  0  0  0
 50 49  1  0  0  0  0
M  END
>  <REMARK>
 VINA RESULT:    -4.199      4.191      8.166
 INTER + INTRA:         -14.050
 INTER:                  -7.288
 INTRA:                  -6.762
 UNBOUND:                -6.292
 SMILES CC(=O)N[C@@H]1[C@@H](O)C[C@](O)(C(=O)O)O[C@H]1C(O)[C@H](O)CNC(=O)OCc1cn(CCC2OCCO2)nn1
 SMILES IDX 21 1 22 2 23 3 20 5 18 6 16 7 15 8 9 9 8 10 14 11 6 12 5 13
 SMILES IDX 10 14 11 16 12 17 13 18 7 20 4 22 2 23 1 25 3 26 17 27 19 29
 SMILES IDX 24 31 25 32 26 33 27 34 37 35 28 36 36 37 29 38 30 39 31 40
 SMILES IDX 32 41 35 42 33 43 34 44
 H PARENT 21 4 10 15 13 19 7 21 4 24 17 28 19 30
 Flexibility Score: inf
  4 active torsions:
  status: ('A' for Active; 'I' for Inactive)
    1  A    between atoms: CA   and  CB  
    2  A    between atoms: CB   and  CG  
    3  A    between atoms: CG   and  CD  
    4  A    between atoms: CD   and  CE  

>  <TORSDO>
F 17

>  <BEGIN_>
RES LYS A 131

$$$$
ligand_67_pose_16_2HRL.pdbqt
 OpenBabel07062320523D

  6  5  0  0  0  0  0  0  0  0999 V2000
   33.1930   34.6630    9.2900 C   0  0  0  0  0  0  0  0  0  0  0  0
   32.0600   35.3600   10.0340 C   0  0  0  0  0  0  0  0  0  0  0  0
   30.8550   35.6380    9.1730 C   0  0  0  0  0  0  0  0  0  0  0  0
   30.2830   34.3440    8.6160 C   0  0  0  0  0  0  0  0  0  0  0  0
   28.7710   34.4260    8.5230 C   0  0  0  0  0  0  0  0  0  0  0  0
   28.1230   33.7050    9.6530 N   0  0  0  0  0  0  0  0  0  0  0  0
  1  2  1  0  0  0  0
  3  2  1  0  0  0  0
  4  3  1  0  0  0  0
  5  4  1  0  0  0  0
  5  6  1  0  0  0  0
M  END
>  <EGIN_R>
ES LYS A 135

>  <REMARK>
  4 active torsions:
  status: ('A' for Active; 'I' for Inactive)
    5  A    between atoms: CA   and  CB  
    6  A    between atoms: CB   and  CG  
    7  A    between atoms: CG   and  CD  
    8  A    between atoms: CD   and  CE  

$$$$
