ligand_81_pose_1_2HRL.pdbqt
 OpenBabel07062320523D

 63 65  0  0  1  0  0  0  0  0999 V2000
   32.3550   41.6340   11.0800 O   0  0  0  0  0  0  0  0  0  0  0  0
   31.3520   41.0650   11.8330 C   0  0  0  0  0  0  0  0  0  0  0  0
   31.5060   39.7650   12.4430 N   0  0  0  0  0  0  0  0  0  0  0  0
   32.4220   39.3100   12.2590 H   0  0  0  0  0  0  0  0  0  0  0  0
   30.2840   41.7100   11.9820 O   0  0  0  0  0  0  0  0  0  0  0  0
   30.4210   39.2170   13.2230 C   0  0  0  0  0  0  0  0  0  0  0  0
   30.4130   37.7090   13.0070 C   0  0  2  0  0  0  0  0  0  0  0  0
   31.1930   37.1080   14.1520 C   0  0  2  0  0  0  0  0  0  0  0  0
   30.3610   36.4390   15.2020 C   0  0  2  0  0  0  0  0  0  0  0  0
   31.1340   34.2730   14.7590 C   0  0  2  0  0  0  0  0  0  0  0  0
   29.8770   34.0800   13.9270 C   0  0  0  0  0  0  0  0  0  0  0  0
   31.0380   35.3210   15.6280 O   0  0  0  0  0  0  0  0  0  0  0  0
   28.7120   34.6820   14.6860 C   0  0  1  0  0  0  0  0  0  0  0  0
   28.9360   36.1960   14.8650 C   0  0  1  0  0  0  0  0  0  0  0  0
   32.1780   34.4180   13.8370 O   0  0  0  0  0  0  0  0  0  0  0  0
   32.4530   35.3560   13.7320 H   0  0  0  0  0  0  0  0  0  0  0  0
   31.4190   33.0610   15.5540 C   0  0  0  0  0  0  0  0  0  0  0  0
   31.6900   33.1720   16.7650 O   0  0  0  0  0  0  0  0  0  0  0  0
   31.3860   31.8230   14.9680 O   0  0  0  0  0  0  0  0  0  0  0  0
   31.7830   30.9820   15.3680 H   0  0  0  0  0  0  0  0  0  0  0  0
   27.5190   34.4240   14.0510 O   0  0  0  0  0  0  0  0  0  0  0  0
   27.6600   34.0440   13.1580 H   0  0  0  0  0  0  0  0  0  0  0  0
   28.0280   36.5710   15.9580 N   0  0  0  0  0  0  0  0  0  0  0  0
   27.1640   37.6800   15.7990 C   0  0  0  0  0  0  0  0  0  0  0  0
   28.0070   36.0340   16.8510 H   0  0  0  0  0  0  0  0  0  0  0  0
   26.2150   38.1180   16.8680 C   0  0  0  0  0  0  0  0  0  0  0  0
   27.2160   38.3060   14.7030 O   0  0  0  0  0  0  0  0  0  0  0  0
   31.7290   38.2640   14.8100 O   0  0  0  0  0  0  0  0  0  0  0  0
   31.2270   38.4400   15.6300 H   0  0  0  0  0  0  0  0  0  0  0  0
   30.9760   37.4930   11.7600 O   0  0  0  0  0  0  0  0  0  0  0  0
   31.5030   36.6670   11.7310 H   0  0  0  0  0  0  0  0  0  0  0  0
   32.5430   41.4550    9.6940 C   0  0  0  0  0  0  0  0  0  0  0  0
   31.7910   40.2430    9.2360 C   0  0  0  0  0  0  0  0  0  0  0  0
   30.5760   40.1910    8.6010 C   0  0  0  0  0  0  0  0  0  0  0  0
   32.1780   38.9560    9.3730 N   0  0  0  0  0  0  0  0  0  0  0  0
   30.2370   38.8880    8.3590 N   0  0  0  0  0  0  0  0  0  0  0  0
   31.2470   38.1820    8.8480 N   0  0  0  0  0  0  0  0  0  0  0  0
   29.0510   38.4230    7.7380 C   0  0  0  0  0  0  0  0  0  0  0  0
   28.9250   38.4020    6.4040 N   0  0  0  0  0  0  0  0  0  0  0  0
   27.9620   37.9970    8.5080 C   0  0  0  0  0  0  0  0  0  0  0  0
   27.7820   37.9820    5.8070 C   0  0  0  0  0  0  0  0  0  0  0  0
   26.8090   37.5760    7.9090 C   0  0  0  0  0  0  0  0  0  0  0  0
   26.7330   37.5740    6.5290 N   0  0  0  0  0  0  0  0  0  0  0  0
   28.0810   38.0480    9.9800 C   0  0  0  0  0  0  0  0  0  0  0  0
   27.7350   39.3720   10.6000 C   0  0  0  0  0  0  0  0  0  0  0  0
   26.7740   39.2700   11.5670 O   0  0  0  0  0  0  0  0  0  0  0  0
   25.9750   40.3820   11.6900 C   0  0  0  0  0  0  0  0  0  0  0  0
   26.0030   41.2370   10.4400 C   0  0  0  0  0  0  0  0  0  0  0  0
   27.6940   37.9750    4.3950 N   0  0  0  0  0  0  0  0  0  0  0  0
   26.7680   37.9630    3.9310 H   0  0  0  0  0  0  0  0  0  0  0  0
   28.5380   37.9820    3.7930 H   0  0  0  0  0  0  0  0  0  0  0  0
   25.6110   37.2330    8.6500 C   0  0  0  0  0  0  0  0  0  0  0  0
   24.6310   38.0450    9.0890 C   0  0  0  0  0  0  0  0  0  0  0  0
   25.4510   35.8560    8.9230 C   0  0  0  0  0  0  0  0  0  0  0  0
   23.5160   37.5320    9.7790 C   0  0  0  0  0  0  0  0  0  0  0  0
   24.3740   35.3450    9.5920 C   0  0  0  0  0  0  0  0  0  0  0  0
   23.3730   36.1910   10.0380 C   0  0  0  0  0  0  0  0  0  0  0  0
   29.8670   25.5550   16.9770 C   0  0  0  0  0  0  0  0  0  0  0  0
   28.3450   25.7220   17.0260 C   0  0  0  0  0  0  0  0  0  0  0  0
   27.5990   24.4350   16.7080 C   0  0  0  0  0  0  0  0  0  0  0  0
   26.9300   23.8540   17.9230 C   0  0  0  0  0  0  0  0  0  0  0  0
   25.4930   23.4750   17.5800 C   0  0  0  0  0  0  0  0  0  0  0  0
   24.6420   24.6860   17.4970 N   0  0  0  0  0  0  0  0  0  0  0  0
  1  2  1  0  0  0  0
  2  5  2  0  0  0  0
  2  3  1  0  0  0  0
  3  6  1  0  0  0  0
  4  3  1  0  0  0  0
  7  6  1  1  0  0  0
  7  8  1  0  0  0  0
  8 28  1  1  0  0  0
  9  8  1  6  0  0  0
  9 12  1  0  0  0  0
 10 15  1  6  0  0  0
 10 17  1  0  0  0  0
 10 12  1  0  0  0  0
 11 13  1  0  0  0  0
 11 10  1  0  0  0  0
 13 21  1  6  0  0  0
 13 14  1  0  0  0  0
 14  9  1  0  0  0  0
 14 23  1  1  0  0  0
 16 15  1  0  0  0  0
 17 18  2  0  0  0  0
 19 20  1  0  0  0  0
 19 17  1  0  0  0  0
 22 21  1  0  0  0  0
 23 25  1  0  0  0  0
 24 23  1  0  0  0  0
 24 26  1  0  0  0  0
 27 24  2  0  0  0  0
 28 29  1  0  0  0  0
 30  7  1  0  0  0  0
 31 30  1  0  0  0  0
 32  1  1  0  0  0  0
 33 35  1  0  0  0  0
 33 32  1  0  0  0  0
 34 33  2  0  0  0  0
 36 34  1  0  0  0  0
 36 37  1  0  0  0  0
 37 35  2  0  0  0  0
 38 36  1  0  0  0  0
 38 40  2  0  0  0  0
 39 38  1  0  0  0  0
 40 44  1  0  0  0  0
 41 39  2  0  0  0  0
 41 43  1  0  0  0  0
 42 40  1  0  0  0  0
 42 52  1  0  0  0  0
 43 42  2  0  0  0  0
 44 45  1  0  0  0  0
 45 46  1  0  0  0  0
 46 47  1  0  0  0  0
 48 47  1  0  0  0  0
 49 41  1  0  0  0  0
 50 49  1  0  0  0  0
 51 49  1  0  0  0  0
 52 54  2  0  0  0  0
 52 53  1  0  0  0  0
 53 55  2  0  0  0  0
 54 56  1  0  0  0  0
 55 57  1  0  0  0  0
 56 57  2  0  0  0  0
 58 59  1  0  0  0  0
 60 59  1  0  0  0  0
 60 61  1  0  0  0  0
 62 61  1  0  0  0  0
 63 62  1  0  0  0  0
M  END
>  <REMARK>
 VINA RESULT:    -5.023      4.127      9.026
 INTER + INTRA:         -17.481
 INTER:                 -10.019
 INTRA:                  -7.462
 UNBOUND:                -7.171
 SMILES CCOCCc1c(-c2ccccc2)nc(N)nc1-n1cc(COC(=O)NC[C@@H](O)C(O)[C@@H]2O[C@@](O)(C(=O)O)C[C@H](O)[C@H]2NC(C)=O)nn1
 SMILES IDX 23 1 24 2 26 3 25 5 27 6 28 7 30 8 32 9 34 10 39 11 33 12
 SMILES IDX 40 13 42 14 35 15 36 17 37 18 38 19 41 21 43 23 44 24 45 26
 SMILES IDX 46 27 31 28 29 30 22 32 21 33 20 34 47 35 19 36 48 37 18 38
 SMILES IDX 17 39 6 40 15 41 7 42 14 43 5 44 4 45 3 46 2 47 1 48 16 49
 SMILES IDX 8 52 9 53 13 54 10 55 12 56 11 57
 H PARENT 26 4 35 16 38 20 41 22 43 25 31 29 29 31 16 50 16 51
 Flexibility Score: inf
  4 active torsions:
  status: ('A' for Active; 'I' for Inactive)
    1  A    between atoms: CA   and  CB  
    2  A    between atoms: CB   and  CG  
    3  A    between atoms: CG   and  CD  
    4  A    between atoms: CD   and  CE  

>  <TORSDO>
F 21

>  <BEGIN_>
RES LYS A 131

$$$$
ligand_81_pose_1_2HRL.pdbqt
 OpenBabel07062320523D

  6  5  0  0  0  0  0  0  0  0999 V2000
   33.1930   34.6630    9.2900 C   0  0  0  0  0  0  0  0  0  0  0  0
   32.0600   35.3600   10.0340 C   0  0  0  0  0  0  0  0  0  0  0  0
   30.7340   34.6550    9.9100 C   0  0  0  0  0  0  0  0  0  0  0  0
   30.3150   34.5540    8.4510 C   0  0  0  0  0  0  0  0  0  0  0  0
   28.8070   34.4400    8.3370 C   0  0  0  0  0  0  0  0  0  0  0  0
   28.2290   33.7490    9.5230 N   0  0  0  0  0  0  0  0  0  0  0  0
  1  2  1  0  0  0  0
  3  2  1  0  0  0  0
  4  3  1  0  0  0  0
  5  4  1  0  0  0  0
  5  6  1  0  0  0  0
M  END
>  <EGIN_R>
ES LYS A 135

>  <REMARK>
  4 active torsions:
  status: ('A' for Active; 'I' for Inactive)
    5  A    between atoms: CA   and  CB  
    6  A    between atoms: CB   and  CG  
    7  A    between atoms: CG   and  CD  
    8  A    between atoms: CD   and  CE  

$$$$
