ligand_65_pose_5_2HRL.pdbqt
 OpenBabel07062320523D

 53 54  0  0  1  0  0  0  0  0999 V2000
   28.5100   34.7730   17.6890 N   0  0  0  0  0  0  0  0  0  0  0  0
   27.6520   35.8080   17.2700 C   0  0  0  0  0  0  0  0  0  0  0  0
   27.9620   37.0200   17.2700 O   0  0  0  0  0  0  0  0  0  0  0  0
   28.2140   33.7510   17.6690 H   0  0  0  0  0  0  0  0  0  0  0  0
   29.8390   35.0910   18.1650 C   0  0  0  0  0  0  0  0  0  0  0  0
   30.7030   35.4370   16.9930 C   0  0  2  0  0  0  0  0  0  0  0  0
   31.8290   34.4320   16.8570 C   0  0  2  0  0  0  0  0  0  0  0  0
   31.9340   34.0450   15.3900 C   0  0  2  0  0  0  0  0  0  0  0  0
   31.9850   35.8910   13.9270 C   0  0  2  0  0  0  0  0  0  0  0  0
   30.5470   35.6930   13.5630 C   0  0  0  0  0  0  0  0  0  0  0  0
   32.5720   35.0120   14.7340 O   0  0  0  0  0  0  0  0  0  0  0  0
   30.2950   34.1910   13.5040 C   0  0  1  0  0  0  0  0  0  0  0  0
   30.5330   33.7270   14.9400 C   0  0  1  0  0  0  0  0  0  0  0  0
   32.0610   37.1680   14.5330 O   0  0  0  0  0  0  0  0  0  0  0  0
   32.5660   37.1360   15.3780 H   0  0  0  0  0  0  0  0  0  0  0  0
   32.7500   35.9890   12.6580 C   0  0  0  0  0  0  0  0  0  0  0  0
   32.5160   36.9100   11.8360 O   0  0  0  0  0  0  0  0  0  0  0  0
   33.7430   35.0820   12.3250 O   0  0  0  0  0  0  0  0  0  0  0  0
   34.1280   34.4140   12.9950 H   0  0  0  0  0  0  0  0  0  0  0  0
   28.9860   33.9040   13.1690 O   0  0  0  0  0  0  0  0  0  0  0  0
   28.4020   34.3880   13.8200 H   0  0  0  0  0  0  0  0  0  0  0  0
   30.2450   32.3170   15.0820 N   0  0  0  0  0  0  0  0  0  0  0  0
   28.9850   31.8710   15.5560 C   0  0  0  0  0  0  0  0  0  0  0  0
   31.0150   31.6620   14.8170 H   0  0  0  0  0  0  0  0  0  0  0  0
   28.7540   30.4150   15.6790 C   0  0  0  0  0  0  0  0  0  0  0  0
   28.0710   32.6650   15.8700 O   0  0  0  0  0  0  0  0  0  0  0  0
   31.4850   33.2770   17.6110 O   0  0  0  0  0  0  0  0  0  0  0  0
   32.2850   32.6840   17.5170 H   0  0  0  0  0  0  0  0  0  0  0  0
   31.2040   36.7360   17.1630 O   0  0  0  0  0  0  0  0  0  0  0  0
   32.0240   36.7310   17.6870 H   0  0  0  0  0  0  0  0  0  0  0  0
   26.3640   35.4700   16.8200 O   0  0  0  0  0  0  0  0  0  0  0  0
   25.7090   36.3850   15.9680 C   0  0  0  0  0  0  0  0  0  0  0  0
   26.1030   36.0860   14.5520 C   0  0  0  0  0  0  0  0  0  0  0  0
   26.5980   36.9710   13.6130 C   0  0  0  0  0  0  0  0  0  0  0  0
   26.0550   34.8990   13.9040 N   0  0  0  0  0  0  0  0  0  0  0  0
   26.8340   36.3250   12.4540 N   0  0  0  0  0  0  0  0  0  0  0  0
   26.4950   35.0730   12.6620 N   0  0  0  0  0  0  0  0  0  0  0  0
   27.3500   36.8990   11.2480 C   0  0  0  0  0  0  0  0  0  0  0  0
   28.6080   37.3690   11.1670 N   0  0  0  0  0  0  0  0  0  0  0  0
   26.5840   36.9880   10.1420 N   0  0  0  0  0  0  0  0  0  0  0  0
   29.1290   37.9130   10.0560 C   0  0  0  0  0  0  0  0  0  0  0  0
   27.0530   37.5280    8.9890 C   0  0  0  0  0  0  0  0  0  0  0  0
   28.3110   37.9780    8.9700 N   0  0  0  0  0  0  0  0  0  0  0  0
   26.2170   37.6320    7.7630 C   0  0  0  0  0  0  0  0  0  0  0  0
   30.4470   38.4070    9.9690 N   0  0  0  0  0  0  0  0  0  0  0  0
   31.2070   37.7920    9.6490 H   0  0  0  0  0  0  0  0  0  0  0  0
   30.6460   39.3840   10.2260 H   0  0  0  0  0  0  0  0  0  0  0  0
   29.8670   25.5550   16.9770 C   0  0  0  0  0  0  0  0  0  0  0  0
   28.3450   25.7220   17.0260 C   0  0  0  0  0  0  0  0  0  0  0  0
   27.6010   24.4020   16.8940 C   0  0  0  0  0  0  0  0  0  0  0  0
   26.1330   24.5480   17.1830 C   0  0  0  0  0  0  0  0  0  0  0  0
   25.5560   23.1950   17.5870 C   0  0  0  0  0  0  0  0  0  0  0  0
   24.1030   23.1440   17.3030 N   0  0  0  0  0  0  0  0  0  0  0  0
  1  5  1  0  0  0  0
  2  1  1  0  0  0  0
  3  2  2  0  0  0  0
  4  1  1  0  0  0  0
  6 29  1  0  0  0  0
  6  5  1  1  0  0  0
  7  6  1  0  0  0  0
  7 27  1  1  0  0  0
  8  7  1  1  0  0  0
  9 16  1  6  0  0  0
  9 14  1  0  0  0  0
  9 11  1  0  0  0  0
 10  9  1  0  0  0  0
 11  8  1  0  0  0  0
 12 20  1  1  0  0  0
 12 10  1  0  0  0  0
 12 13  1  0  0  0  0
 13 22  1  6  0  0  0
 13  8  1  0  0  0  0
 14 15  1  0  0  0  0
 17 16  2  0  0  0  0
 18 16  1  0  0  0  0
 18 19  1  0  0  0  0
 20 21  1  0  0  0  0
 22 23  1  0  0  0  0
 23 25  1  0  0  0  0
 23 26  2  0  0  0  0
 24 22  1  0  0  0  0
 28 27  1  0  0  0  0
 29 30  1  0  0  0  0
 31  2  1  0  0  0  0
 32 31  1  0  0  0  0
 33 32  1  0  0  0  0
 34 33  2  0  0  0  0
 35 33  1  0  0  0  0
 36 37  1  0  0  0  0
 36 34  1  0  0  0  0
 37 35  2  0  0  0  0
 38 36  1  0  0  0  0
 39 38  2  0  0  0  0
 40 38  1  0  0  0  0
 41 39  2  0  0  0  0
 42 40  2  0  0  0  0
 43 42  1  0  0  0  0
 43 41  1  0  0  0  0
 44 42  1  0  0  0  0
 45 41  1  0  0  0  0
 45 47  1  0  0  0  0
 46 45  1  0  0  0  0
 48 49  1  0  0  0  0
 50 49  1  0  0  0  0
 50 51  1  0  0  0  0
 51 52  1  0  0  0  0
 53 52  1  0  0  0  0
M  END
>  <REMARK>
 VINA RESULT:    -5.223      4.663      7.712
 INTER + INTRA:         -14.326
 INTER:                  -7.532
 INTRA:                  -6.795
 UNBOUND:                -5.134
 SMILES CC(=O)N[C@@H]1[C@@H](O)C[C@](O)(C(=O)O)O[C@H]1C(O)[C@H](O)CNC(=O)OCc1cn(-c2nc(C)nc(N)n2)nn1
 SMILES IDX 21 1 22 2 23 3 20 5 18 6 16 7 15 8 9 9 8 10 14 11 6 12 5 13
 SMILES IDX 10 14 11 16 12 17 13 18 7 20 4 22 2 23 1 25 3 26 17 27 19 29
 SMILES IDX 24 31 25 32 26 33 27 34 38 35 28 36 37 37 29 38 36 39 30 40
 SMILES IDX 34 41 31 42 33 43 32 44 35 45
 H PARENT 21 4 10 15 13 19 7 21 4 24 17 28 19 30 35 46 35 47
 Flexibility Score: inf
  4 active torsions:
  status: ('A' for Active; 'I' for Inactive)
    1  A    between atoms: CA   and  CB  
    2  A    between atoms: CB   and  CG  
    3  A    between atoms: CG   and  CD  
    4  A    between atoms: CD   and  CE  

>  <TORSDO>
F 16

>  <BEGIN_>
RES LYS A 131

$$$$
ligand_65_pose_5_2HRL.pdbqt
 OpenBabel07062320523D

  6  5  0  0  0  0  0  0  0  0999 V2000
   33.1930   34.6630    9.2900 C   0  0  0  0  0  0  0  0  0  0  0  0
   32.0600   35.3600   10.0340 C   0  0  0  0  0  0  0  0  0  0  0  0
   30.7240   34.6830    9.8680 C   0  0  0  0  0  0  0  0  0  0  0  0
   30.2730   34.7340    8.4170 C   0  0  0  0  0  0  0  0  0  0  0  0
   28.7880   34.4440    8.3100 C   0  0  0  0  0  0  0  0  0  0  0  0
   28.2660   33.8470    9.5700 N   0  0  0  0  0  0  0  0  0  0  0  0
  1  2  1  0  0  0  0
  3  2  1  0  0  0  0
  4  3  1  0  0  0  0
  5  4  1  0  0  0  0
  5  6  1  0  0  0  0
M  END
>  <EGIN_R>
ES LYS A 135

>  <REMARK>
  4 active torsions:
  status: ('A' for Active; 'I' for Inactive)
    5  A    between atoms: CA   and  CB  
    6  A    between atoms: CB   and  CG  
    7  A    between atoms: CG   and  CD  
    8  A    between atoms: CD   and  CE  

$$$$
