ligand_35_pose_9_2HRL.pdbqt
 OpenBabel07062320523D

 49 49  0  0  1  0  0  0  0  0999 V2000
   29.7170   31.0840   16.2190 N   0  0  0  0  0  0  0  0  0  0  0  0
   28.3430   31.0120   16.5420 C   0  0  0  0  0  0  0  0  0  0  0  0
   27.8450   31.6970   17.4710 O   0  0  0  0  0  0  0  0  0  0  0  0
   30.0780   30.4970   15.4430 H   0  0  0  0  0  0  0  0  0  0  0  0
   30.6210   31.9410   16.9280 C   0  0  0  0  0  0  0  0  0  0  0  0
   31.4280   32.8550   16.0000 C   0  0  2  0  0  0  0  0  0  0  0  0
   30.5950   34.0600   15.7320 C   0  0  2  0  0  0  0  0  0  0  0  0
   31.2880   35.3790   15.7960 C   0  0  2  0  0  0  0  0  0  0  0  0
   30.7900   36.1500   13.6490 C   0  0  2  0  0  0  0  0  0  0  0  0
   31.9460   35.3550   13.1880 C   0  0  0  0  0  0  0  0  0  0  0  0
   30.5750   36.2610   14.9970 O   0  0  0  0  0  0  0  0  0  0  0  0
   33.1200   35.2620   14.0970 C   0  0  1  0  0  0  0  0  0  0  0  0
   32.7470   35.4010   15.5450 C   0  0  1  0  0  0  0  0  0  0  0  0
   29.6350   35.4980   13.1410 O   0  0  0  0  0  0  0  0  0  0  0  0
   29.2560   34.9730   13.8780 H   0  0  0  0  0  0  0  0  0  0  0  0
   30.8220   37.4890   13.0000 C   0  0  0  0  0  0  0  0  0  0  0  0
   30.4130   37.6700   11.8200 O   0  0  0  0  0  0  0  0  0  0  0  0
   31.3060   38.5950   13.6770 O   0  0  0  0  0  0  0  0  0  0  0  0
   31.1760   39.5490   13.3570 H   0  0  0  0  0  0  0  0  0  0  0  0
   33.7500   34.0300   13.8420 O   0  0  0  0  0  0  0  0  0  0  0  0
   34.0410   34.0630   12.8980 H   0  0  0  0  0  0  0  0  0  0  0  0
   33.2280   36.7130   16.0230 N   0  0  0  0  0  0  0  0  0  0  0  0
   34.4670   36.8390   16.6910 C   0  0  0  0  0  0  0  0  0  0  0  0
   32.6800   37.5830   15.8900 H   0  0  0  0  0  0  0  0  0  0  0  0
   34.9880   38.1260   17.1860 C   0  0  0  0  0  0  0  0  0  0  0  0
   35.1880   35.8050   16.8860 O   0  0  0  0  0  0  0  0  0  0  0  0
   29.6490   34.0990   16.8080 O   0  0  0  0  0  0  0  0  0  0  0  0
   28.9510   34.7270   16.4940 H   0  0  0  0  0  0  0  0  0  0  0  0
   31.6400   32.1060   14.8490 O   0  0  0  0  0  0  0  0  0  0  0  0
   32.2130   31.3380   15.1020 H   0  0  0  0  0  0  0  0  0  0  0  0
   27.4750   30.1630   15.8290 O   0  0  0  0  0  0  0  0  0  0  0  0
   26.0730   30.2540   15.9990 C   0  0  0  0  0  0  0  0  0  0  0  0
   25.4470   31.0280   14.8980 C   0  0  0  0  0  0  0  0  0  0  0  0
   25.5520   32.4060   14.6940 C   0  0  0  0  0  0  0  0  0  0  0  0
   24.6650   30.5940   13.8850 N   0  0  0  0  0  0  0  0  0  0  0  0
   24.8550   32.7370   13.6040 N   0  0  0  0  0  0  0  0  0  0  0  0
   24.3240   31.6420   13.1210 N   0  0  0  0  0  0  0  0  0  0  0  0
   24.6990   34.0790   13.0320 C   0  0  1  0  0  0  0  0  0  0  0  0
   24.2020   35.0380   14.1010 C   0  0  0  0  0  0  0  0  0  0  0  0
   25.9420   34.5700   12.4410 C   0  0  0  0  0  0  0  0  0  0  0  0
   26.6700   35.3610   13.0830 O   0  0  0  0  0  0  0  0  0  0  0  0
   26.3910   34.2120   11.1710 O   0  0  0  0  0  0  0  0  0  0  0  0
   26.1720   34.7780   10.3600 H   0  0  0  0  0  0  0  0  0  0  0  0
   29.8670   25.5550   16.9770 C   0  0  0  0  0  0  0  0  0  0  0  0
   28.3450   25.7220   17.0260 C   0  0  0  0  0  0  0  0  0  0  0  0
   27.6010   24.4040   16.8790 C   0  0  0  0  0  0  0  0  0  0  0  0
   26.1580   24.5190   17.2850 C   0  0  0  0  0  0  0  0  0  0  0  0
   25.6530   23.1620   17.7640 C   0  0  0  0  0  0  0  0  0  0  0  0
   25.4990   23.1570   19.2380 N   0  0  0  0  0  0  0  0  0  0  0  0
  1  2  1  0  0  0  0
  1  5  1  0  0  0  0
  2  3  2  0  0  0  0
  4  1  1  0  0  0  0
  6  5  1  1  0  0  0
  7  6  1  0  0  0  0
  7 27  1  1  0  0  0
  8  7  1  6  0  0  0
  9 16  1  6  0  0  0
  9 11  1  0  0  0  0
 10  9  1  0  0  0  0
 10 12  1  0  0  0  0
 11  8  1  0  0  0  0
 12 20  1  1  0  0  0
 12 13  1  0  0  0  0
 13  8  1  0  0  0  0
 13 22  1  6  0  0  0
 14  9  1  0  0  0  0
 14 15  1  0  0  0  0
 16 18  1  0  0  0  0
 17 16  2  0  0  0  0
 19 18  1  0  0  0  0
 21 20  1  0  0  0  0
 22 23  1  0  0  0  0
 23 26  2  0  0  0  0
 23 25  1  0  0  0  0
 24 22  1  0  0  0  0
 28 27  1  0  0  0  0
 29 30  1  0  0  0  0
 29  6  1  0  0  0  0
 31 32  1  0  0  0  0
 31  2  1  0  0  0  0
 33 32  1  0  0  0  0
 34 33  2  0  0  0  0
 35 33  1  0  0  0  0
 36 34  1  0  0  0  0
 37 36  1  0  0  0  0
 37 35  2  0  0  0  0
 38 36  1  0  0  0  0
 38 39  1  1  0  0  0
 40 38  1  0  0  0  0
 40 41  2  0  0  0  0
 42 40  1  0  0  0  0
 43 42  1  0  0  0  0
 44 45  1  0  0  0  0
 46 45  1  0  0  0  0
 46 47  1  0  0  0  0
 47 48  1  0  0  0  0
 48 49  1  0  0  0  0
M  END
>  <REMARK>
 VINA RESULT:    -4.998      2.283      3.297
 INTER + INTRA:         -13.812
 INTER:                  -8.140
 INTRA:                  -5.672
 UNBOUND:                -4.724
 SMILES CC(=O)N[C@@H]1[C@@H](O)C[C@](O)(C(=O)O)O[C@H]1C(O)[C@H](O)CNC(=O)OCc1cn([C@@H](C)C(=O)O)nn1
 SMILES IDX 21 1 22 2 23 3 20 5 18 6 16 7 15 8 9 9 8 10 14 11 6 12 5 13
 SMILES IDX 10 14 11 16 12 17 13 18 7 20 4 22 2 23 1 25 3 26 17 27 19 29
 SMILES IDX 24 31 25 32 26 33 27 34 35 35 28 36 34 37 29 38 30 39 31 40
 SMILES IDX 32 41 33 42
 H PARENT 21 4 10 15 13 19 7 21 4 24 17 28 19 30 33 43
 Flexibility Score: inf
  4 active torsions:
  status: ('A' for Active; 'I' for Inactive)
    1  A    between atoms: CA   and  CB  
    2  A    between atoms: CB   and  CG  
    3  A    between atoms: CG   and  CD  
    4  A    between atoms: CD   and  CE  

>  <TORSDO>
F 17

>  <BEGIN_>
RES LYS A 131

$$$$
ligand_35_pose_9_2HRL.pdbqt
 OpenBabel07062320523D

  6  5  0  0  0  0  0  0  0  0999 V2000
   33.1930   34.6630    9.2900 C   0  0  0  0  0  0  0  0  0  0  0  0
   32.0600   35.3600   10.0340 C   0  0  0  0  0  0  0  0  0  0  0  0
   30.7100   34.7320    9.8010 C   0  0  0  0  0  0  0  0  0  0  0  0
   30.4770   34.4960    8.3160 C   0  0  0  0  0  0  0  0  0  0  0  0
   29.0530   34.8530    7.9370 C   0  0  0  0  0  0  0  0  0  0  0  0
   28.9830   36.2120    7.3330 N   0  0  0  0  0  0  0  0  0  0  0  0
  1  2  1  0  0  0  0
  3  2  1  0  0  0  0
  4  3  1  0  0  0  0
  5  4  1  0  0  0  0
  6  5  1  0  0  0  0
M  END
>  <EGIN_R>
ES LYS A 135

>  <REMARK>
  4 active torsions:
  status: ('A' for Active; 'I' for Inactive)
    5  A    between atoms: CA   and  CB  
    6  A    between atoms: CB   and  CG  
    7  A    between atoms: CG   and  CD  
    8  A    between atoms: CD   and  CE  

$$$$
