ligand_93_pose_8_2HRL.pdbqt
 OpenBabel07062320523D

 50 51  0  0  1  0  0  0  0  0999 V2000
   28.4420   31.4090   20.6850 C   0  0  0  0  0  0  0  0  0  0  0  0
   29.9370   31.6200   20.7400 C   0  0  2  0  0  0  0  0  0  0  0  0
   30.6600   30.3380   20.5210 C   0  0  1  0  0  0  0  0  0  0  0  0
   30.3640   29.2380   21.5070 C   0  0  2  0  0  0  0  0  0  0  0  0
   32.3310   28.4280   22.5220 C   0  0  2  0  0  0  0  0  0  0  0  0
   31.9870   27.0090   22.1190 C   0  0  0  0  0  0  0  0  0  0  0  0
   31.3040   29.3010   22.4800 O   0  0  0  0  0  0  0  0  0  0  0  0
   31.3010   27.0860   20.7800 C   0  0  1  0  0  0  0  0  0  0  0  0
   30.0480   27.9090   20.9450 C   0  0  1  0  0  0  0  0  0  0  0  0
   33.3100   28.8490   21.6220 O   0  0  0  0  0  0  0  0  0  0  0  0
   33.4120   29.8390   21.7550 H   0  0  0  0  0  0  0  0  0  0  0  0
   32.9760   28.3490   23.8700 C   0  0  0  0  0  0  0  0  0  0  0  0
   32.3670   28.5920   24.9350 O   0  0  0  0  0  0  0  0  0  0  0  0
   34.3060   27.9930   23.9370 O   0  0  0  0  0  0  0  0  0  0  0  0
   34.6180   27.0420   24.1430 H   0  0  0  0  0  0  0  0  0  0  0  0
   32.2140   27.6620   19.8940 O   0  0  0  0  0  0  0  0  0  0  0  0
   32.9370   28.1450   20.3640 H   0  0  0  0  0  0  0  0  0  0  0  0
   29.1800   27.1630   21.8750 N   0  0  0  0  0  0  0  0  0  0  0  0
   27.7790   27.3620   21.9130 C   0  0  0  0  0  0  0  0  0  0  0  0
   29.5950   26.4690   22.5270 H   0  0  0  0  0  0  0  0  0  0  0  0
   26.9760   26.5720   22.8740 C   0  0  0  0  0  0  0  0  0  0  0  0
   27.2130   28.1960   21.1440 O   0  0  0  0  0  0  0  0  0  0  0  0
   30.6430   29.9280   19.1940 O   0  0  0  0  0  0  0  0  0  0  0  0
   29.8550   30.2960   18.7060 H   0  0  0  0  0  0  0  0  0  0  0  0
   30.1940   32.1420   22.0350 O   0  0  0  0  0  0  0  0  0  0  0  0
   30.9680   32.7670   21.9840 H   0  0  0  0  0  0  0  0  0  0  0  0
   27.9760   30.8580   19.4330 N   0  0  0  0  0  0  0  0  0  0  0  0
   27.1700   31.6740   18.5770 C   0  0  0  0  0  0  0  0  0  0  0  0
   28.2420   29.8900   19.1860 H   0  0  0  0  0  0  0  0  0  0  0  0
   26.9010   32.8300   18.9450 O   0  0  0  0  0  0  0  0  0  0  0  0
   26.7370   31.1220   17.3830 O   0  0  0  0  0  0  0  0  0  0  0  0
   27.1660   31.6960   16.1760 C   0  0  0  0  0  0  0  0  0  0  0  0
   28.6360   31.8800   16.2500 C   0  0  0  0  0  0  0  0  0  0  0  0
   29.2910   33.0850   15.9690 C   0  0  0  0  0  0  0  0  0  0  0  0
   29.5980   31.0090   16.5740 N   0  0  0  0  0  0  0  0  0  0  0  0
   30.5920   32.8330   16.1500 N   0  0  0  0  0  0  0  0  0  0  0  0
   30.7890   31.5810   16.5140 N   0  0  0  0  0  0  0  0  0  0  0  0
   31.6300   33.7800   15.9740 C   0  0  0  0  0  0  0  0  0  0  0  0
   32.2870   33.8400   14.7460 C   0  0  0  0  0  0  0  0  0  0  0  0
   31.9640   34.6110   17.0080 C   0  0  0  0  0  0  0  0  0  0  0  0
   33.2990   34.7590   14.5660 C   0  0  0  0  0  0  0  0  0  0  0  0
   32.9820   35.5250   16.8080 C   0  0  0  0  0  0  0  0  0  0  0  0
   31.0020   34.5570   18.8810 I   0  0  0  0  0  0  0  0  0  0  0  0
   33.6480   35.6030   15.5980 C   0  0  0  0  0  0  0  0  0  0  0  0
   29.8670   25.5550   16.9770 C   0  0  0  0  0  0  0  0  0  0  0  0
   28.3450   25.7220   17.0260 C   0  0  0  0  0  0  0  0  0  0  0  0
   27.6010   24.4050   16.8670 C   0  0  0  0  0  0  0  0  0  0  0  0
   26.4890   24.2580   17.8680 C   0  0  0  0  0  0  0  0  0  0  0  0
   25.1520   24.5350   17.1890 C   0  0  0  0  0  0  0  0  0  0  0  0
   24.3070   23.3170   17.1910 N   0  0  0  0  0  0  0  0  0  0  0  0
  2  1  1  1  0  0  0
  2 25  1  0  0  0  0
  3 23  1  6  0  0  0
  3  2  1  0  0  0  0
  4  3  1  6  0  0  0
  4  7  1  0  0  0  0
  5 10  1  6  0  0  0
  5 12  1  0  0  0  0
  6  5  1  0  0  0  0
  7  5  1  0  0  0  0
  8 16  1  6  0  0  0
  8  9  1  0  0  0  0
  8  6  1  0  0  0  0
  9  4  1  0  0  0  0
  9 18  1  1  0  0  0
 10 11  1  0  0  0  0
 12 14  1  0  0  0  0
 12 13  2  0  0  0  0
 14 15  1  0  0  0  0
 16 17  1  0  0  0  0
 18 19  1  0  0  0  0
 18 20  1  0  0  0  0
 19 21  1  0  0  0  0
 22 19  2  0  0  0  0
 24 23  1  0  0  0  0
 26 25  1  0  0  0  0
 27  1  1  0  0  0  0
 28 30  2  0  0  0  0
 28 27  1  0  0  0  0
 29 27  1  0  0  0  0
 31 28  1  0  0  0  0
 32 33  1  0  0  0  0
 32 31  1  0  0  0  0
 33 35  1  0  0  0  0
 34 36  1  0  0  0  0
 34 33  2  0  0  0  0
 36 37  1  0  0  0  0
 37 35  2  0  0  0  0
 38 36  1  0  0  0  0
 38 40  2  0  0  0  0
 39 38  1  0  0  0  0
 40 43  1  0  0  0  0
 41 39  2  0  0  0  0
 41 44  1  0  0  0  0
 42 40  1  0  0  0  0
 44 42  2  0  0  0  0
 45 46  1  0  0  0  0
 47 46  1  0  0  0  0
 47 48  1  0  0  0  0
 49 50  1  0  0  0  0
 49 48  1  0  0  0  0
M  END
>  <REMARK>
 VINA RESULT:    -4.380      3.833      6.821
 INTER + INTRA:         -13.865
 INTER:                  -8.293
 INTRA:                  -5.572
 UNBOUND:                -6.285
 SMILES CC(=O)N[C@@H]1[C@@H](O)C[C@](O)(C(=O)O)O[C@H]1C(O)[C@H](O)CNC(=O)OCc1cn(-c2ccccc2I)nn1
 SMILES IDX 20 1 18 2 16 3 15 4 9 5 8 6 14 7 6 8 5 9 10 10 11 12 12 13
 SMILES IDX 13 14 7 16 4 18 2 19 1 21 3 22 17 23 19 25 21 27 22 28 23 30
 SMILES IDX 24 31 25 32 26 33 27 34 37 35 28 36 36 37 29 38 30 39 34 40
 SMILES IDX 31 41 33 42 35 43 32 44
 H PARENT 10 11 13 15 7 17 4 20 17 24 19 26 21 29
 Flexibility Score: inf
  4 active torsions:
  status: ('A' for Active; 'I' for Inactive)
    1  A    between atoms: CA   and  CB  
    2  A    between atoms: CB   and  CG  
    3  A    between atoms: CG   and  CD  
    4  A    between atoms: CD   and  CE  

>  <TORSDO>
F 15

>  <BEGIN_>
RES LYS A 131

$$$$
ligand_93_pose_8_2HRL.pdbqt
 OpenBabel07062320523D

  6  5  0  0  0  0  0  0  0  0999 V2000
   33.1930   34.6630    9.2900 C   0  0  0  0  0  0  0  0  0  0  0  0
   32.0600   35.3600   10.0340 C   0  0  0  0  0  0  0  0  0  0  0  0
   30.7920   35.4770    9.2280 C   0  0  0  0  0  0  0  0  0  0  0  0
   30.1700   34.1070    9.0050 C   0  0  0  0  0  0  0  0  0  0  0  0
   28.6580   34.2110    8.9490 C   0  0  0  0  0  0  0  0  0  0  0  0
   28.0710   34.2400   10.3180 N   0  0  0  0  0  0  0  0  0  0  0  0
  1  2  1  0  0  0  0
  3  2  1  0  0  0  0
  4  3  1  0  0  0  0
  5  4  1  0  0  0  0
  5  6  1  0  0  0  0
M  END
>  <EGIN_R>
ES LYS A 135

>  <REMARK>
  4 active torsions:
  status: ('A' for Active; 'I' for Inactive)
    5  A    between atoms: CA   and  CB  
    6  A    between atoms: CB   and  CG  
    7  A    between atoms: CG   and  CD  
    8  A    between atoms: CD   and  CE  

$$$$
