ligand_46_pose_15_2HRL.pdbqt
 OpenBabel07062320523D

 50 51  0  0  1  0  0  0  0  0999 V2000
   25.2680   40.9170    8.1470 N   0  0  0  0  0  0  0  0  0  0  0  0
   26.5040   40.8080    8.8150 C   0  0  0  0  0  0  0  0  0  0  0  0
   26.6520   40.1040    9.8270 O   0  0  0  0  0  0  0  0  0  0  0  0
   25.2660   41.5410    7.2980 H   0  0  0  0  0  0  0  0  0  0  0  0
   24.0830   40.2390    8.5740 C   0  0  0  0  0  0  0  0  0  0  0  0
   23.7570   39.1240    7.6070 C   0  0  2  0  0  0  0  0  0  0  0  0
   24.1570   37.7840    8.1560 C   0  0  2  0  0  0  0  0  0  0  0  0
   23.6490   37.5300    9.5560 C   0  0  2  0  0  0  0  0  0  0  0  0
   24.5500   36.4180   11.4030 C   0  0  2  0  0  0  0  0  0  0  0  0
   23.1280   36.4940   11.9810 C   0  0  0  0  0  0  0  0  0  0  0  0
   24.6440   37.4140   10.4780 O   0  0  0  0  0  0  0  0  0  0  0  0
   22.2620   35.8850   10.8800 C   0  0  1  0  0  0  0  0  0  0  0  0
   22.6080   36.4670    9.5290 C   0  0  1  0  0  0  0  0  0  0  0  0
   24.8170   35.1450   10.9440 O   0  0  0  0  0  0  0  0  0  0  0  0
   25.7530   35.1070   10.6540 H   0  0  0  0  0  0  0  0  0  0  0  0
   25.4790   36.7750   12.5340 C   0  0  0  0  0  0  0  0  0  0  0  0
   25.7480   35.9610   13.4420 O   0  0  0  0  0  0  0  0  0  0  0  0
   26.0560   38.0290   12.5870 O   0  0  0  0  0  0  0  0  0  0  0  0
   26.2670   38.4260   13.4880 H   0  0  0  0  0  0  0  0  0  0  0  0
   22.5040   34.5110   10.9270 O   0  0  0  0  0  0  0  0  0  0  0  0
   21.9110   34.1020   11.5940 H   0  0  0  0  0  0  0  0  0  0  0  0
   21.4010   37.0730    8.9360 N   0  0  0  0  0  0  0  0  0  0  0  0
   20.5010   36.3420    8.1230 C   0  0  0  0  0  0  0  0  0  0  0  0
   21.1940   38.0970    9.1210 H   0  0  0  0  0  0  0  0  0  0  0  0
   19.2760   36.9070    7.5060 C   0  0  0  0  0  0  0  0  0  0  0  0
   20.7520   35.1300    7.9090 O   0  0  0  0  0  0  0  0  0  0  0  0
   25.5270   37.6390    8.0510 O   0  0  0  0  0  0  0  0  0  0  0  0
   25.9140   37.6730    8.9580 H   0  0  0  0  0  0  0  0  0  0  0  0
   24.4320   39.4380    6.4270 O   0  0  0  0  0  0  0  0  0  0  0  0
   25.4080   39.3650    6.5120 H   0  0  0  0  0  0  0  0  0  0  0  0
   27.6220   41.4990    8.3510 O   0  0  0  0  0  0  0  0  0  0  0  0
   28.7600   40.7820    7.9380 C   0  0  0  0  0  0  0  0  0  0  0  0
   28.3950   39.5850    7.1430 C   0  0  0  0  0  0  0  0  0  0  0  0
   28.9990   38.3580    7.2070 C   0  0  0  0  0  0  0  0  0  0  0  0
   27.4210   39.5040    6.2320 N   0  0  0  0  0  0  0  0  0  0  0  0
   28.3720   37.5590    6.3280 N   0  0  0  0  0  0  0  0  0  0  0  0
   27.4120   38.2870    5.7460 N   0  0  0  0  0  0  0  0  0  0  0  0
   28.6310   36.1750    6.0200 C   0  0  0  0  0  0  0  0  0  0  0  0
   28.6340   35.3430    7.2520 C   0  0  0  0  0  0  0  0  0  0  0  0
   27.4470   34.9360    7.8510 C   0  0  0  0  0  0  0  0  0  0  0  0
   29.7990   34.9380    7.8540 C   0  0  0  0  0  0  0  0  0  0  0  0
   27.4560   34.1680    8.9890 C   0  0  0  0  0  0  0  0  0  0  0  0
   29.8190   34.1630    9.0010 C   0  0  0  0  0  0  0  0  0  0  0  0
   28.6350   33.7690    9.5810 C   0  0  0  0  0  0  0  0  0  0  0  0
   29.8670   25.5550   16.9770 C   0  0  0  0  0  0  0  0  0  0  0  0
   28.3450   25.7220   17.0260 C   0  0  0  0  0  0  0  0  0  0  0  0
   27.6010   24.4020   16.8890 C   0  0  0  0  0  0  0  0  0  0  0  0
   26.1450   24.5340   17.2390 C   0  0  0  0  0  0  0  0  0  0  0  0
   25.5730   23.1580   17.5660 C   0  0  0  0  0  0  0  0  0  0  0  0
   24.1580   23.0690   17.1370 N   0  0  0  0  0  0  0  0  0  0  0  0
  1  5  1  0  0  0  0
  1  2  1  0  0  0  0
  2  3  2  0  0  0  0
  4  1  1  0  0  0  0
  6  7  1  0  0  0  0
  6  5  1  1  0  0  0
  7 27  1  1  0  0  0
  8  7  1  6  0  0  0
  8 11  1  0  0  0  0
  9 14  1  6  0  0  0
  9 10  1  0  0  0  0
  9 16  1  0  0  0  0
 11  9  1  0  0  0  0
 12 20  1  6  0  0  0
 12 10  1  0  0  0  0
 13 22  1  1  0  0  0
 13  8  1  0  0  0  0
 13 12  1  0  0  0  0
 15 14  1  0  0  0  0
 16 18  1  0  0  0  0
 16 17  2  0  0  0  0
 18 19  1  0  0  0  0
 20 21  1  0  0  0  0
 22 24  1  0  0  0  0
 23 22  1  0  0  0  0
 25 23  1  0  0  0  0
 26 23  2  0  0  0  0
 27 28  1  0  0  0  0
 29 30  1  0  0  0  0
 29  6  1  0  0  0  0
 31  2  1  0  0  0  0
 32 31  1  0  0  0  0
 33 34  2  0  0  0  0
 33 32  1  0  0  0  0
 35 33  1  0  0  0  0
 36 34  1  0  0  0  0
 37 35  2  0  0  0  0
 37 36  1  0  0  0  0
 38 36  1  0  0  0  0
 38 39  1  0  0  0  0
 39 40  2  0  0  0  0
 39 41  1  0  0  0  0
 40 42  1  0  0  0  0
 41 43  2  0  0  0  0
 42 44  2  0  0  0  0
 43 44  1  0  0  0  0
 45 46  1  0  0  0  0
 47 46  1  0  0  0  0
 47 48  1  0  0  0  0
 48 49  1  0  0  0  0
 50 49  1  0  0  0  0
M  END
>  <REMARK>
 VINA RESULT:    -5.207      1.732      3.632
 INTER + INTRA:         -14.606
 INTER:                  -9.540
 INTRA:                  -5.066
 UNBOUND:                -5.290
 SMILES CC(=O)N[C@@H]1[C@@H](O)C[C@](O)(C(=O)O)O[C@H]1C(O)[C@H](O)CNC(=O)OCc1cn(Cc2ccccc2)nn1
 SMILES IDX 21 1 22 2 23 3 20 5 18 6 16 7 15 8 9 9 8 10 14 11 6 12 5 13
 SMILES IDX 10 14 11 16 12 17 13 18 7 20 4 22 2 23 1 25 3 26 17 27 19 29
 SMILES IDX 24 31 25 32 26 33 27 34 37 35 28 36 36 37 29 38 30 39 31 40
 SMILES IDX 35 41 32 42 34 43 33 44
 H PARENT 21 4 10 15 13 19 7 21 4 24 17 28 19 30
 Flexibility Score: inf
  4 active torsions:
  status: ('A' for Active; 'I' for Inactive)
    1  A    between atoms: CA   and  CB  
    2  A    between atoms: CB   and  CG  
    3  A    between atoms: CG   and  CD  
    4  A    between atoms: CD   and  CE  

>  <TORSDO>
F 16

>  <BEGIN_>
RES LYS A 131

$$$$
ligand_46_pose_15_2HRL.pdbqt
 OpenBabel07062320523D

  6  5  0  0  0  0  0  0  0  0999 V2000
   33.1930   34.6630    9.2900 C   0  0  0  0  0  0  0  0  0  0  0  0
   32.0600   35.3600   10.0340 C   0  0  0  0  0  0  0  0  0  0  0  0
   32.5010   36.0380   11.3060 C   0  0  0  0  0  0  0  0  0  0  0  0
   31.8920   37.4270   11.4120 C   0  0  0  0  0  0  0  0  0  0  0  0
   31.2320   37.8210   10.1050 C   0  0  0  0  0  0  0  0  0  0  0  0
   31.9280   38.9800    9.4800 N   0  0  0  0  0  0  0  0  0  0  0  0
  1  2  1  0  0  0  0
  2  3  1  0  0  0  0
  3  4  1  0  0  0  0
  5  4  1  0  0  0  0
  6  5  1  0  0  0  0
M  END
>  <EGIN_R>
ES LYS A 135

>  <REMARK>
  4 active torsions:
  status: ('A' for Active; 'I' for Inactive)
    5  A    between atoms: CA   and  CB  
    6  A    between atoms: CB   and  CG  
    7  A    between atoms: CG   and  CD  
    8  A    between atoms: CD   and  CE  

$$$$
