ligand_23_pose_16_2HRL.pdbqt
 OpenBabel07062320523D

 55 56  0  0  1  0  0  0  0  0999 V2000
   29.2350   31.2130   17.6840 N   0  0  0  0  0  0  0  0  0  0  0  0
   29.1020   30.4180   18.8510 C   0  0  0  0  0  0  0  0  0  0  0  0
   30.0770   30.3030   19.6130 O   0  0  0  0  0  0  0  0  0  0  0  0
   28.3670   31.2660   17.0840 H   0  0  0  0  0  0  0  0  0  0  0  0
   30.4540   31.8970   17.3380 C   0  0  0  0  0  0  0  0  0  0  0  0
   30.3710   32.4840   15.9450 C   0  0  2  0  0  0  0  0  0  0  0  0
   29.3600   33.6230   15.9430 C   0  0  1  0  0  0  0  0  0  0  0  0
   29.6870   34.5530   14.7770 C   0  0  2  0  0  0  0  0  0  0  0  0
   31.8390   35.3830   14.5450 C   0  0  2  0  0  0  0  0  0  0  0  0
   31.3640   36.6850   13.9440 C   0  0  0  0  0  0  0  0  0  0  0  0
   30.9560   34.3420   14.3360 O   0  0  0  0  0  0  0  0  0  0  0  0
   29.8910   36.8810   14.0620 C   0  0  1  0  0  0  0  0  0  0  0  0
   29.3700   35.9650   15.1690 C   0  0  1  0  0  0  0  0  0  0  0  0
   32.1090   35.5070   15.9050 O   0  0  0  0  0  0  0  0  0  0  0  0
   32.9930   35.9790   16.0140 H   0  0  0  0  0  0  0  0  0  0  0  0
   33.1120   35.0300   13.8630 C   0  0  0  0  0  0  0  0  0  0  0  0
   34.1660   34.7970   14.5110 O   0  0  0  0  0  0  0  0  0  0  0  0
   33.2020   34.9380   12.4730 O   0  0  0  0  0  0  0  0  0  0  0  0
   33.9380   35.4240   11.9740 H   0  0  0  0  0  0  0  0  0  0  0  0
   29.5110   38.1920   14.2940 O   0  0  0  0  0  0  0  0  0  0  0  0
   30.2810   38.7960   14.4910 H   0  0  0  0  0  0  0  0  0  0  0  0
   27.9240   36.0870   15.2400 N   0  0  0  0  0  0  0  0  0  0  0  0
   27.2540   36.5740   16.4010 C   0  0  0  0  0  0  0  0  0  0  0  0
   27.3480   35.8030   14.4000 H   0  0  0  0  0  0  0  0  0  0  0  0
   25.7710   36.6560   16.3610 C   0  0  0  0  0  0  0  0  0  0  0  0
   27.9450   36.9040   17.3800 O   0  0  0  0  0  0  0  0  0  0  0  0
   28.1090   33.0760   15.7220 O   0  0  0  0  0  0  0  0  0  0  0  0
   27.4060   33.5850   16.1910 H   0  0  0  0  0  0  0  0  0  0  0  0
   29.9450   31.4690   15.0700 O   0  0  0  0  0  0  0  0  0  0  0  0
   30.5220   31.4430   14.2440 H   0  0  0  0  0  0  0  0  0  0  0  0
   27.9040   29.7650   19.1570 O   0  0  0  0  0  0  0  0  0  0  0  0
   27.5520   28.5480   18.5330 C   0  0  0  0  0  0  0  0  0  0  0  0
   26.3610   28.7440   17.6690 C   0  0  0  0  0  0  0  0  0  0  0  0
   26.2890   29.6250   16.6070 C   0  0  0  0  0  0  0  0  0  0  0  0
   25.1690   28.1400   17.7360 N   0  0  0  0  0  0  0  0  0  0  0  0
   25.0510   29.4870   16.1060 N   0  0  0  0  0  0  0  0  0  0  0  0
   24.3600   28.5850   16.7860 N   0  0  0  0  0  0  0  0  0  0  0  0
   24.5290   30.2070   14.9910 C   0  0  0  0  0  0  0  0  0  0  0  0
   24.8230   31.5320   14.7550 C   0  0  0  0  0  0  0  0  0  0  0  0
   23.6870   29.5810   14.0870 C   0  0  0  0  0  0  0  0  0  0  0  0
   24.3080   32.2290   13.6630 C   0  0  0  0  0  0  0  0  0  0  0  0
   23.1690   30.2440   13.0070 C   0  0  0  0  0  0  0  0  0  0  0  0
   23.4810   31.5660   12.7980 C   0  0  0  0  0  0  0  0  0  0  0  0
   24.6810   33.8970   13.3720 S   0  0  0  0  0  0  0  0  0  0  0  0
   24.6980   34.1240   11.8820 O   0  0  0  0  0  0  0  0  0  0  0  0
   26.0800   34.1880   13.8630 O   0  0  0  0  0  0  0  0  0  0  0  0
   23.5260   34.9440   14.0890 N   0  0  0  0  0  0  0  0  0  0  0  0
   22.9520   34.4170   14.7710 H   0  0  0  0  0  0  0  0  0  0  0  0
   22.9320   35.4260   13.3830 H   0  0  0  0  0  0  0  0  0  0  0  0
   29.8670   25.5550   16.9770 C   0  0  0  0  0  0  0  0  0  0  0  0
   28.3450   25.7220   17.0260 C   0  0  0  0  0  0  0  0  0  0  0  0
   27.5990   24.4650   16.6070 C   0  0  0  0  0  0  0  0  0  0  0  0
   27.0230   23.7280   17.7850 C   0  0  0  0  0  0  0  0  0  0  0  0
   25.5670   23.3750   17.5020 C   0  0  0  0  0  0  0  0  0  0  0  0
   24.7640   24.6040   17.3010 N   0  0  0  0  0  0  0  0  0  0  0  0
  1  2  1  0  0  0  0
  2 31  1  0  0  0  0
  2  3  2  0  0  0  0
  4  1  1  0  0  0  0
  5  1  1  0  0  0  0
  6  5  1  1  0  0  0
  7 27  1  6  0  0  0
  7  6  1  0  0  0  0
  8 13  1  0  0  0  0
  8  7  1  1  0  0  0
  9 16  1  6  0  0  0
  9 14  1  0  0  0  0
 10 12  1  0  0  0  0
 10  9  1  0  0  0  0
 11  9  1  0  0  0  0
 11  8  1  0  0  0  0
 12 20  1  1  0  0  0
 12 13  1  0  0  0  0
 13 22  1  6  0  0  0
 14 15  1  0  0  0  0
 16 17  2  0  0  0  0
 18 16  1  0  0  0  0
 19 18  1  0  0  0  0
 20 21  1  0  0  0  0
 22 23  1  0  0  0  0
 23 26  2  0  0  0  0
 24 22  1  0  0  0  0
 25 23  1  0  0  0  0
 27 28  1  0  0  0  0
 29  6  1  0  0  0  0
 30 29  1  0  0  0  0
 32 31  1  0  0  0  0
 33 35  1  0  0  0  0
 33 32  1  0  0  0  0
 34 33  2  0  0  0  0
 36 34  1  0  0  0  0
 36 37  1  0  0  0  0
 37 35  2  0  0  0  0
 38 36  1  0  0  0  0
 39 38  1  0  0  0  0
 40 38  2  0  0  0  0
 41 39  2  0  0  0  0
 42 40  1  0  0  0  0
 43 42  2  0  0  0  0
 43 41  1  0  0  0  0
 44 41  1  0  0  0  0
 44 46  2  0  0  0  0
 44 47  1  0  0  0  0
 45 44  2  0  0  0  0
 47 48  1  0  0  0  0
 49 47  1  0  0  0  0
 50 51  1  0  0  0  0
 52 51  1  0  0  0  0
 52 53  1  0  0  0  0
 54 53  1  0  0  0  0
 55 54  1  0  0  0  0
M  END
>  <REMARK>
 VINA RESULT:    -4.185      3.862      8.277
 INTER + INTRA:         -14.234
 INTER:                  -8.014
 INTRA:                  -6.219
 UNBOUND:                -6.624
 SMILES CC(=O)N[C@@H]1[C@@H](O)C[C@](O)(C(=O)O)O[C@H]1C(O)[C@H](O)CNC(=O)OCc1cn(-c2cccc(S(N)(=O)=O)c2)nn1
 SMILES IDX 21 1 22 2 23 3 20 5 18 6 16 7 15 8 9 9 8 10 14 11 6 12 5 13
 SMILES IDX 10 14 11 16 12 17 13 18 7 20 4 22 2 23 1 25 3 26 17 27 19 29
 SMILES IDX 24 31 25 32 26 33 27 34 40 35 28 36 39 37 29 38 38 39 30 40
 SMILES IDX 33 41 31 42 32 43 34 44 36 45 37 46 35 47
 H PARENT 21 4 10 15 13 19 7 21 4 24 17 28 19 30 35 48 35 49
 Flexibility Score: inf
  4 active torsions:
  status: ('A' for Active; 'I' for Inactive)
    1  A    between atoms: CA   and  CB  
    2  A    between atoms: CB   and  CG  
    3  A    between atoms: CG   and  CD  
    4  A    between atoms: CD   and  CE  

>  <TORSDO>
F 17

>  <BEGIN_>
RES LYS A 131

$$$$
ligand_23_pose_16_2HRL.pdbqt
 OpenBabel07062320523D

  6  5  0  0  0  0  0  0  0  0999 V2000
   33.1930   34.6630    9.2900 C   0  0  0  0  0  0  0  0  0  0  0  0
   32.0600   35.3600   10.0340 C   0  0  0  0  0  0  0  0  0  0  0  0
   30.7080   34.7410    9.7890 C   0  0  0  0  0  0  0  0  0  0  0  0
   30.4860   34.5080    8.3030 C   0  0  0  0  0  0  0  0  0  0  0  0
   29.0680   34.8790    7.9120 C   0  0  0  0  0  0  0  0  0  0  0  0
   29.0030   36.2690    7.3830 N   0  0  0  0  0  0  0  0  0  0  0  0
  1  2  1  0  0  0  0
  3  2  1  0  0  0  0
  4  3  1  0  0  0  0
  5  4  1  0  0  0  0
  6  5  1  0  0  0  0
M  END
>  <EGIN_R>
ES LYS A 135

>  <REMARK>
  4 active torsions:
  status: ('A' for Active; 'I' for Inactive)
    5  A    between atoms: CA   and  CB  
    6  A    between atoms: CB   and  CG  
    7  A    between atoms: CG   and  CD  
    8  A    between atoms: CD   and  CE  

$$$$
