ligand_29_pose_13_2HRL.pdbqt
 OpenBabel07062320523D

 54 55  0  0  1  0  0  0  0  0999 V2000
   27.7560   29.8590   18.4550 N   0  0  0  0  0  0  0  0  0  0  0  0
   27.7500   28.6540   19.1700 C   0  0  0  0  0  0  0  0  0  0  0  0
   27.4950   27.5660   18.6100 O   0  0  0  0  0  0  0  0  0  0  0  0
   27.9730   30.7430   19.0090 H   0  0  0  0  0  0  0  0  0  0  0  0
   27.4970   30.0100   17.0340 C   0  0  0  0  0  0  0  0  0  0  0  0
   28.6160   30.7210   16.3630 C   0  0  2  0  0  0  0  0  0  0  0  0
   28.2810   32.1180   15.9010 C   0  0  2  0  0  0  0  0  0  0  0  0
   29.0740   33.1990   16.5530 C   0  0  2  0  0  0  0  0  0  0  0  0
   30.7990   33.7160   15.0710 C   0  0  2  0  0  0  0  0  0  0  0  0
   31.7940   34.1210   16.1490 C   0  0  0  0  0  0  0  0  0  0  0  0
   29.5530   34.0450   15.5320 O   0  0  0  0  0  0  0  0  0  0  0  0
   31.1190   34.0580   17.4890 C   0  0  1  0  0  0  0  0  0  0  0  0
   30.1070   32.8540   17.5360 C   0  0  1  0  0  0  0  0  0  0  0  0
   30.9630   32.3840   14.7090 O   0  0  0  0  0  0  0  0  0  0  0  0
   31.4100   32.2800   13.8290 H   0  0  0  0  0  0  0  0  0  0  0  0
   31.0600   34.5240   13.8440 C   0  0  0  0  0  0  0  0  0  0  0  0
   32.1070   35.2100   13.7830 O   0  0  0  0  0  0  0  0  0  0  0  0
   30.1890   34.5480   12.7650 O   0  0  0  0  0  0  0  0  0  0  0  0
   30.4320   35.0030   11.8760 H   0  0  0  0  0  0  0  0  0  0  0  0
   32.0260   33.9050   18.5320 O   0  0  0  0  0  0  0  0  0  0  0  0
   32.8860   33.5570   18.2130 H   0  0  0  0  0  0  0  0  0  0  0  0
   29.6010   32.9350   18.9140 N   0  0  0  0  0  0  0  0  0  0  0  0
   29.8240   31.9430   19.8990 C   0  0  0  0  0  0  0  0  0  0  0  0
   29.0300   33.7750   19.2240 H   0  0  0  0  0  0  0  0  0  0  0  0
   29.2960   32.0500   21.2820 C   0  0  0  0  0  0  0  0  0  0  0  0
   30.4950   30.9220   19.6070 O   0  0  0  0  0  0  0  0  0  0  0  0
   26.9100   32.3700   16.3150 O   0  0  0  0  0  0  0  0  0  0  0  0
   26.9570   32.9270   17.1280 H   0  0  0  0  0  0  0  0  0  0  0  0
   29.3620   29.9840   15.4800 O   0  0  0  0  0  0  0  0  0  0  0  0
   29.7790   29.1920   15.8680 H   0  0  0  0  0  0  0  0  0  0  0  0
   28.0320   28.6300   20.5530 O   0  0  0  0  0  0  0  0  0  0  0  0
   28.6420   27.4450   21.0870 C   0  0  0  0  0  0  0  0  0  0  0  0
   29.9980   27.7090   21.5630 C   0  0  0  0  0  0  0  0  0  0  0  0
   30.3480   28.4290   22.6770 C   0  0  0  0  0  0  0  0  0  0  0  0
   31.1310   27.2790   20.9870 N   0  0  0  0  0  0  0  0  0  0  0  0
   31.6750   28.4250   22.7570 N   0  0  0  0  0  0  0  0  0  0  0  0
   32.1290   27.7300   21.7360 N   0  0  0  0  0  0  0  0  0  0  0  0
   32.5000   29.0690   23.7730 C   0  0  0  0  0  0  0  0  0  0  0  0
   33.3510   30.0990   23.1000 C   0  0  0  0  0  0  0  0  0  0  0  0
   32.7400   31.1830   22.4720 C   0  0  0  0  0  0  0  0  0  0  0  0
   34.7280   30.0280   23.0790 C   0  0  0  0  0  0  0  0  0  0  0  0
   33.4850   32.1550   21.8490 C   0  0  0  0  0  0  0  0  0  0  0  0
   35.5040   30.9890   22.4620 C   0  0  0  0  0  0  0  0  0  0  0  0
   34.8630   32.0430   21.8540 C   0  0  0  0  0  0  0  0  0  0  0  0
   32.8890   33.2430   21.2170 O   0  0  0  0  0  0  0  0  0  0  0  0
   32.2420   34.2150   22.0200 C   0  0  0  0  0  0  0  0  0  0  0  0
   35.6060   33.0280   21.2230 O   0  0  0  0  0  0  0  0  0  0  0  0
   36.9440   32.8130   20.8140 C   0  0  0  0  0  0  0  0  0  0  0  0
   29.8670   25.5550   16.9770 C   0  0  0  0  0  0  0  0  0  0  0  0
   28.3450   25.7220   17.0260 C   0  0  0  0  0  0  0  0  0  0  0  0
   27.6010   24.4010   16.9050 C   0  0  0  0  0  0  0  0  0  0  0  0
   26.1410   24.5410   17.2320 C   0  0  0  0  0  0  0  0  0  0  0  0
   25.8480   23.8530   18.5610 C   0  0  0  0  0  0  0  0  0  0  0  0
   25.6340   24.8570   19.6290 N   0  0  0  0  0  0  0  0  0  0  0  0
  1  4  1  0  0  0  0
  1  2  1  0  0  0  0
  2 31  1  0  0  0  0
  3  2  2  0  0  0  0
  5  1  1  0  0  0  0
  6  5  1  6  0  0  0
  7 27  1  1  0  0  0
  7  6  1  0  0  0  0
  8  7  1  6  0  0  0
  8 13  1  0  0  0  0
  9 16  1  6  0  0  0
  9 11  1  0  0  0  0
  9 10  1  0  0  0  0
 10 12  1  0  0  0  0
 11  8  1  0  0  0  0
 12 13  1  0  0  0  0
 12 20  1  1  0  0  0
 13 22  1  1  0  0  0
 14  9  1  0  0  0  0
 15 14  1  0  0  0  0
 17 16  2  0  0  0  0
 18 16  1  0  0  0  0
 19 18  1  0  0  0  0
 21 20  1  0  0  0  0
 22 24  1  0  0  0  0
 22 23  1  0  0  0  0
 23 25  1  0  0  0  0
 26 23  2  0  0  0  0
 27 28  1  0  0  0  0
 29 30  1  0  0  0  0
 29  6  1  0  0  0  0
 31 32  1  0  0  0  0
 32 33  1  0  0  0  0
 33 34  2  0  0  0  0
 34 36  1  0  0  0  0
 35 33  1  0  0  0  0
 35 37  2  0  0  0  0
 36 38  1  0  0  0  0
 37 36  1  0  0  0  0
 39 38  1  0  0  0  0
 40 39  2  0  0  0  0
 41 39  1  0  0  0  0
 42 44  2  0  0  0  0
 42 40  1  0  0  0  0
 43 41  2  0  0  0  0
 44 43  1  0  0  0  0
 45 42  1  0  0  0  0
 45 46  1  0  0  0  0
 47 44  1  0  0  0  0
 48 47  1  0  0  0  0
 49 50  1  0  0  0  0
 51 50  1  0  0  0  0
 51 52  1  0  0  0  0
 52 53  1  0  0  0  0
 53 54  1  0  0  0  0
M  END
>  <REMARK>
 VINA RESULT:    -4.960      4.261      9.320
 INTER + INTRA:         -14.572
 INTER:                  -8.276
 INTRA:                  -6.296
 UNBOUND:                -5.118
 SMILES COc1ccc(Cn2cc(COC(=O)NC[C@@H](O)C(O)[C@@H]3O[C@@](O)(C(=O)O)C[C@H](O)[C@H]3NC(C)=O)nn2)cc1OC
 SMILES IDX 15 1 13 2 14 3 16 5 17 6 19 7 21 8 23 9 28 10 22 11 29 12
 SMILES IDX 31 13 24 14 25 16 26 17 27 18 30 20 32 22 33 23 34 25 35 26
 SMILES IDX 20 27 18 29 12 31 11 32 10 33 9 34 36 35 8 36 37 37 7 38
 SMILES IDX 6 39 38 40 5 41 39 42 4 43 3 44 40 45 41 46 2 47 1 48
 H PARENT 15 4 24 15 27 19 30 21 32 24 20 28 18 30
 Flexibility Score: inf
  4 active torsions:
  status: ('A' for Active; 'I' for Inactive)
    1  A    between atoms: CA   and  CB  
    2  A    between atoms: CB   and  CG  
    3  A    between atoms: CG   and  CD  
    4  A    between atoms: CD   and  CE  

>  <TORSDO>
F 18

>  <BEGIN_>
RES LYS A 131

$$$$
ligand_29_pose_13_2HRL.pdbqt
 OpenBabel07062320523D

  6  5  0  0  0  0  0  0  0  0999 V2000
   33.1930   34.6630    9.2900 C   0  0  0  0  0  0  0  0  0  0  0  0
   32.0600   35.3600   10.0340 C   0  0  0  0  0  0  0  0  0  0  0  0
   30.8670   35.6650    9.1650 C   0  0  0  0  0  0  0  0  0  0  0  0
   30.2230   34.3810    8.6670 C   0  0  0  0  0  0  0  0  0  0  0  0
   28.8670   34.6690    8.0520 C   0  0  0  0  0  0  0  0  0  0  0  0
   28.6510   36.1330    7.8910 N   0  0  0  0  0  0  0  0  0  0  0  0
  1  2  1  0  0  0  0
  3  2  1  0  0  0  0
  4  3  1  0  0  0  0
  5  4  1  0  0  0  0
  6  5  1  0  0  0  0
M  END
>  <EGIN_R>
ES LYS A 135

>  <REMARK>
  4 active torsions:
  status: ('A' for Active; 'I' for Inactive)
    5  A    between atoms: CA   and  CB  
    6  A    between atoms: CB   and  CG  
    7  A    between atoms: CG   and  CD  
    8  A    between atoms: CD   and  CE  

$$$$
