ligand_21_pose_17_2HRL.pdbqt
 OpenBabel07062320523D

 54 55  0  0  1  0  0  0  0  0999 V2000
   26.0370   31.1810   15.7170 N   0  0  0  0  0  0  0  0  0  0  0  0
   25.1360   31.5120   14.6610 C   0  0  0  0  0  0  0  0  0  0  0  0
   24.4680   30.5910   14.1450 O   0  0  0  0  0  0  0  0  0  0  0  0
   26.5880   31.9550   16.1380 H   0  0  0  0  0  0  0  0  0  0  0  0
   26.1760   29.8240   16.1740 C   0  0  0  0  0  0  0  0  0  0  0  0
   27.5400   29.6890   16.8590 C   0  0  2  0  0  0  0  0  0  0  0  0
   27.6110   30.6630   18.0020 C   0  0  2  0  0  0  0  0  0  0  0  0
   28.8540   30.3910   18.8050 C   0  0  2  0  0  0  0  0  0  0  0  0
   29.5350   29.7560   20.9360 C   0  0  2  0  0  0  0  0  0  0  0  0
   30.1050   31.1270   21.2190 C   0  0  0  0  0  0  0  0  0  0  0  0
   28.4980   29.9390   20.0360 O   0  0  0  0  0  0  0  0  0  0  0  0
   30.6830   31.6680   19.9570 C   0  0  1  0  0  0  0  0  0  0  0  0
   29.7570   31.5720   18.7760 C   0  0  1  0  0  0  0  0  0  0  0  0
   28.9340   29.3430   22.1440 O   0  0  0  0  0  0  0  0  0  0  0  0
   29.3500   28.5230   22.4940 H   0  0  0  0  0  0  0  0  0  0  0  0
   30.5450   28.7710   20.5030 C   0  0  0  0  0  0  0  0  0  0  0  0
   31.7640   29.0320   20.3550 O   0  0  0  0  0  0  0  0  0  0  0  0
   30.1490   27.4740   20.2380 O   0  0  0  0  0  0  0  0  0  0  0  0
   30.2360   26.7050   20.9080 H   0  0  0  0  0  0  0  0  0  0  0  0
   31.0210   33.0170   20.2030 O   0  0  0  0  0  0  0  0  0  0  0  0
   30.4830   33.3350   20.9870 H   0  0  0  0  0  0  0  0  0  0  0  0
   30.5660   31.5070   17.5740 N   0  0  0  0  0  0  0  0  0  0  0  0
   30.6540   32.6000   16.6580 C   0  0  0  0  0  0  0  0  0  0  0  0
   31.1120   30.6490   17.3470 H   0  0  0  0  0  0  0  0  0  0  0  0
   31.4960   32.4790   15.4470 C   0  0  0  0  0  0  0  0  0  0  0  0
   30.0180   33.6510   16.8880 O   0  0  0  0  0  0  0  0  0  0  0  0
   26.4790   30.5830   18.8230 O   0  0  0  0  0  0  0  0  0  0  0  0
   25.8760   31.3290   18.5990 H   0  0  0  0  0  0  0  0  0  0  0  0
   28.5020   29.8830   15.8930 O   0  0  0  0  0  0  0  0  0  0  0  0
   29.1710   29.1680   15.8450 H   0  0  0  0  0  0  0  0  0  0  0  0
   25.0190   32.8250   14.2370 O   0  0  0  0  0  0  0  0  0  0  0  0
   26.0780   33.7460   14.3610 C   0  0  0  0  0  0  0  0  0  0  0  0
   26.2190   34.4820   13.0960 C   0  0  0  0  0  0  0  0  0  0  0  0
   25.9270   34.0010   11.8170 C   0  0  0  0  0  0  0  0  0  0  0  0
   26.6540   35.7520   12.8970 N   0  0  0  0  0  0  0  0  0  0  0  0
   26.1930   34.9730   10.9530 N   0  0  0  0  0  0  0  0  0  0  0  0
   26.6330   36.0330   11.6090 N   0  0  0  0  0  0  0  0  0  0  0  0
   26.0270   34.9020    9.5160 C   0  0  0  0  0  0  0  0  0  0  0  0
   27.4120   34.8410    8.9390 C   0  0  0  0  0  0  0  0  0  0  0  0
   27.6940   35.6040    7.8360 C   0  0  0  0  0  0  0  0  0  0  0  0
   28.3560   34.0330    9.5190 C   0  0  0  0  0  0  0  0  0  0  0  0
   28.9440   35.5820    7.2720 C   0  0  0  0  0  0  0  0  0  0  0  0
   29.6360   34.0000    8.9540 C   0  0  0  0  0  0  0  0  0  0  0  0
   29.8950   34.7700    7.8530 C   0  0  0  0  0  0  0  0  0  0  0  0
   26.7120   36.4090    7.2790 O   0  0  0  0  0  0  0  0  0  0  0  0
   26.9250   37.7870    7.2920 C   0  0  0  0  0  0  0  0  0  0  0  0
   27.0780   38.3980    6.2090 O   0  0  0  0  0  0  0  0  0  0  0  0
   26.9730   38.5360    8.5710 C   0  0  0  0  0  0  0  0  0  0  0  0
   29.8670   25.5550   16.9770 C   0  0  0  0  0  0  0  0  0  0  0  0
   28.3450   25.7220   17.0260 C   0  0  0  0  0  0  0  0  0  0  0  0
   27.6010   24.4010   16.9030 C   0  0  0  0  0  0  0  0  0  0  0  0
   26.1530   24.5280   17.2860 C   0  0  0  0  0  0  0  0  0  0  0  0
   25.6370   23.1810   17.7810 C   0  0  0  0  0  0  0  0  0  0  0  0
   25.5140   23.1840   19.2580 N   0  0  0  0  0  0  0  0  0  0  0  0
  1  4  1  0  0  0  0
  1  5  1  0  0  0  0
  2  1  1  0  0  0  0
  3  2  2  0  0  0  0
  6  5  1  6  0  0  0
  6  7  1  0  0  0  0
  7 27  1  1  0  0  0
  8  7  1  6  0  0  0
  8 11  1  0  0  0  0
  9 16  1  6  0  0  0
  9 10  1  0  0  0  0
  9 14  1  0  0  0  0
 11  9  1  0  0  0  0
 12 20  1  1  0  0  0
 12 10  1  0  0  0  0
 13 22  1  6  0  0  0
 13  8  1  0  0  0  0
 13 12  1  0  0  0  0
 14 15  1  0  0  0  0
 17 16  2  0  0  0  0
 18 16  1  0  0  0  0
 18 19  1  0  0  0  0
 20 21  1  0  0  0  0
 23 26  2  0  0  0  0
 23 22  1  0  0  0  0
 24 22  1  0  0  0  0
 25 23  1  0  0  0  0
 28 27  1  0  0  0  0
 29  6  1  0  0  0  0
 30 29  1  0  0  0  0
 31 32  1  0  0  0  0
 31  2  1  0  0  0  0
 33 32  1  0  0  0  0
 34 33  2  0  0  0  0
 35 33  1  0  0  0  0
 36 37  1  0  0  0  0
 36 34  1  0  0  0  0
 37 35  2  0  0  0  0
 38 36  1  0  0  0  0
 39 38  1  0  0  0  0
 39 41  2  0  0  0  0
 40 39  1  0  0  0  0
 42 40  2  0  0  0  0
 42 44  1  0  0  0  0
 43 41  1  0  0  0  0
 44 43  2  0  0  0  0
 45 46  1  0  0  0  0
 45 40  1  0  0  0  0
 46 48  1  0  0  0  0
 47 46  2  0  0  0  0
 49 50  1  0  0  0  0
 51 50  1  0  0  0  0
 51 52  1  0  0  0  0
 52 53  1  0  0  0  0
 53 54  1  0  0  0  0
M  END
>  <REMARK>
 VINA RESULT:    -4.483      6.200     10.593
 INTER + INTRA:         -14.820
 INTER:                 -11.257
 INTRA:                  -3.563
 UNBOUND:                -6.275
 SMILES CC(=O)N[C@@H]1[C@@H](O)C[C@](O)(C(=O)O)O[C@H]1C(O)[C@H](O)CNC(=O)OCc1cn(Cc2ccccc2OC(C)=O)nn1
 SMILES IDX 21 1 22 2 23 3 20 5 18 6 16 7 15 8 9 9 8 10 14 11 6 12 5 13
 SMILES IDX 10 14 11 16 12 17 13 18 7 20 4 22 2 23 1 25 3 26 17 27 19 29
 SMILES IDX 24 31 25 32 26 33 27 34 41 35 28 36 40 37 29 38 30 39 35 40
 SMILES IDX 31 41 34 42 32 43 33 44 36 45 37 46 39 47 38 48
 H PARENT 21 4 10 15 13 19 7 21 4 24 17 28 19 30
 Flexibility Score: inf
  4 active torsions:
  status: ('A' for Active; 'I' for Inactive)
    1  A    between atoms: CA   and  CB  
    2  A    between atoms: CB   and  CG  
    3  A    between atoms: CG   and  CD  
    4  A    between atoms: CD   and  CE  

>  <TORSDO>
F 18

>  <BEGIN_>
RES LYS A 131

$$$$
ligand_21_pose_17_2HRL.pdbqt
 OpenBabel07062320523D

  6  5  0  0  0  0  0  0  0  0999 V2000
   33.1930   34.6630    9.2900 C   0  0  0  0  0  0  0  0  0  0  0  0
   32.0600   35.3600   10.0340 C   0  0  0  0  0  0  0  0  0  0  0  0
   32.5320   36.2420   11.1610 C   0  0  0  0  0  0  0  0  0  0  0  0
   31.9170   35.8010   12.4810 C   0  0  0  0  0  0  0  0  0  0  0  0
   30.7420   34.8730   12.2370 C   0  0  0  0  0  0  0  0  0  0  0  0
   29.8730   34.7810   13.4430 N   0  0  0  0  0  0  0  0  0  0  0  0
  1  2  1  0  0  0  0
  2  3  1  0  0  0  0
  3  4  1  0  0  0  0
  5  4  1  0  0  0  0
  5  6  1  0  0  0  0
M  END
>  <EGIN_R>
ES LYS A 135

>  <REMARK>
  4 active torsions:
  status: ('A' for Active; 'I' for Inactive)
    5  A    between atoms: CA   and  CB  
    6  A    between atoms: CB   and  CG  
    7  A    between atoms: CG   and  CD  
    8  A    between atoms: CD   and  CE  

$$$$
