ligand_15_pose_4_2HRL.pdbqt
 OpenBabel07062320523D

 50 51  0  0  1  0  0  0  0  0999 V2000
   26.5680   27.9780   21.7710 C   0  0  0  0  0  0  0  0  0  0  0  0
   27.6190   28.7900   22.4670 C   0  0  2  0  0  0  0  0  0  0  0  0
   28.7220   28.0090   23.0910 C   0  0  2  0  0  0  0  0  0  0  0  0
   30.1100   28.4520   22.6770 C   0  0  2  0  0  0  0  0  0  0  0  0
   31.0380   29.6360   20.8770 C   0  0  2  0  0  0  0  0  0  0  0  0
   32.2310   28.7370   21.0480 C   0  0  0  0  0  0  0  0  0  0  0  0
   29.9390   29.1280   21.4740 O   0  0  0  0  0  0  0  0  0  0  0  0
   31.7290   27.3180   21.1750 C   0  0  1  0  0  0  0  0  0  0  0  0
   30.9640   27.2280   22.5030 C   0  0  1  0  0  0  0  0  0  0  0  0
   30.7390   29.7380   19.4890 O   0  0  0  0  0  0  0  0  0  0  0  0
   30.0310   30.4310   19.4350 H   0  0  0  0  0  0  0  0  0  0  0  0
   31.3050   31.0060   21.3970 C   0  0  0  0  0  0  0  0  0  0  0  0
   30.4110   31.8410   21.6180 O   0  0  0  0  0  0  0  0  0  0  0  0
   32.6130   31.3780   21.6510 O   0  0  0  0  0  0  0  0  0  0  0  0
   33.3650   31.2670   20.9690 H   0  0  0  0  0  0  0  0  0  0  0  0
   30.7850   27.1170   20.1700 O   0  0  0  0  0  0  0  0  0  0  0  0
   31.0320   27.5210   19.3160 H   0  0  0  0  0  0  0  0  0  0  0  0
   31.9770   27.2070   23.5210 N   0  0  0  0  0  0  0  0  0  0  0  0
   31.8610   26.5060   24.7450 C   0  0  0  0  0  0  0  0  0  0  0  0
   32.8770   27.7360   23.3780 H   0  0  0  0  0  0  0  0  0  0  0  0
   32.9420   26.5170   25.7760 C   0  0  0  0  0  0  0  0  0  0  0  0
   30.8210   25.8560   24.9730 O   0  0  0  0  0  0  0  0  0  0  0  0
   28.5350   26.6450   22.7550 O   0  0  0  0  0  0  0  0  0  0  0  0
   28.4030   26.1570   23.5950 H   0  0  0  0  0  0  0  0  0  0  0  0
   26.9730   29.5400   23.4730 O   0  0  0  0  0  0  0  0  0  0  0  0
   27.2520   29.2350   24.3720 H   0  0  0  0  0  0  0  0  0  0  0  0
   26.3570   28.2890   20.3950 N   0  0  0  0  0  0  0  0  0  0  0  0
   27.1940   27.6910   19.3840 C   0  0  0  0  0  0  0  0  0  0  0  0
   25.6360   28.9350   20.0150 H   0  0  0  0  0  0  0  0  0  0  0  0
   28.0940   26.9050   19.7640 O   0  0  0  0  0  0  0  0  0  0  0  0
   27.0120   27.9740   18.0390 O   0  0  0  0  0  0  0  0  0  0  0  0
   26.5760   29.2910   17.7290 C   0  0  0  0  0  0  0  0  0  0  0  0
   27.6890   29.9510   16.9880 C   0  0  0  0  0  0  0  0  0  0  0  0
   28.4250   31.0430   17.4060 C   0  0  0  0  0  0  0  0  0  0  0  0
   28.1960   29.6220   15.7840 N   0  0  0  0  0  0  0  0  0  0  0  0
   29.3370   31.3400   16.4650 N   0  0  0  0  0  0  0  0  0  0  0  0
   29.1650   30.4600   15.5060 N   0  0  0  0  0  0  0  0  0  0  0  0
   30.3160   32.3750   16.4420 C   0  0  0  0  0  0  0  0  0  0  0  0
   31.0540   32.6680   15.3120 C   0  0  0  0  0  0  0  0  0  0  0  0
   30.5670   33.1360   17.5650 C   0  0  0  0  0  0  0  0  0  0  0  0
   32.0000   33.6760   15.3040 C   0  0  0  0  0  0  0  0  0  0  0  0
   31.5170   34.1500   17.5630 C   0  0  0  0  0  0  0  0  0  0  0  0
   32.2480   34.4360   16.4340 C   0  0  0  0  0  0  0  0  0  0  0  0
   33.5630   35.8130   16.3680 Br  0  0  0  0  0  0  0  0  0  0  0  0
   29.8670   25.5550   16.9770 C   0  0  0  0  0  0  0  0  0  0  0  0
   28.3450   25.7220   17.0260 C   0  0  0  0  0  0  0  0  0  0  0  0
   27.6010   24.4030   16.8870 C   0  0  0  0  0  0  0  0  0  0  0  0
   26.6210   24.1850   18.0070 C   0  0  0  0  0  0  0  0  0  0  0  0
   25.2000   24.2350   17.4560 C   0  0  0  0  0  0  0  0  0  0  0  0
   24.6410   25.6020   17.5850 N   0  0  0  0  0  0  0  0  0  0  0  0
  2  1  1  1  0  0  0
  2  3  1  0  0  0  0
  2 25  1  0  0  0  0
  3 23  1  6  0  0  0
  4  3  1  6  0  0  0
  5 10  1  6  0  0  0
  5  6  1  0  0  0  0
  5 12  1  0  0  0  0
  5  7  1  0  0  0  0
  6  8  1  0  0  0  0
  7  4  1  0  0  0  0
  8 16  1  6  0  0  0
  8  9  1  0  0  0  0
  9  4  1  0  0  0  0
  9 18  1  1  0  0  0
 11 10  1  0  0  0  0
 12 13  2  0  0  0  0
 12 14  1  0  0  0  0
 15 14  1  0  0  0  0
 17 16  1  0  0  0  0
 18 19  1  0  0  0  0
 19 22  2  0  0  0  0
 19 21  1  0  0  0  0
 20 18  1  0  0  0  0
 23 24  1  0  0  0  0
 25 26  1  0  0  0  0
 27  1  1  0  0  0  0
 28 30  2  0  0  0  0
 28 27  1  0  0  0  0
 29 27  1  0  0  0  0
 31 28  1  0  0  0  0
 32 31  1  0  0  0  0
 33 34  2  0  0  0  0
 33 32  1  0  0  0  0
 35 33  1  0  0  0  0
 36 34  1  0  0  0  0
 37 35  2  0  0  0  0
 37 36  1  0  0  0  0
 38 36  1  0  0  0  0
 38 40  2  0  0  0  0
 39 38  1  0  0  0  0
 41 39  2  0  0  0  0
 41 43  1  0  0  0  0
 42 40  1  0  0  0  0
 43 42  2  0  0  0  0
 44 43  1  0  0  0  0
 45 46  1  0  0  0  0
 47 46  1  0  0  0  0
 47 48  1  0  0  0  0
 49 50  1  0  0  0  0
 49 48  1  0  0  0  0
M  END
>  <REMARK>
 VINA RESULT:    -5.416      2.177      3.791
 INTER + INTRA:         -14.535
 INTER:                  -8.933
 INTRA:                  -5.602
 UNBOUND:                -5.161
 SMILES CC(=O)N[C@@H]1[C@@H](O)C[C@](O)(C(=O)O)O[C@H]1C(O)[C@H](O)CNC(=O)OCc1cn(-c2ccc(Br)cc2)nn1
 SMILES IDX 20 1 18 2 16 3 15 4 9 5 8 6 14 7 6 8 5 9 10 10 11 12 12 13
 SMILES IDX 13 14 7 16 4 18 2 19 1 21 3 22 17 23 19 25 21 27 22 28 23 30
 SMILES IDX 24 31 25 32 26 33 27 34 37 35 28 36 36 37 29 38 30 39 35 40
 SMILES IDX 31 41 34 42 32 43 33 44
 H PARENT 10 11 13 15 7 17 4 20 17 24 19 26 21 29
 Flexibility Score: inf
  4 active torsions:
  status: ('A' for Active; 'I' for Inactive)
    1  A    between atoms: CA   and  CB  
    2  A    between atoms: CB   and  CG  
    3  A    between atoms: CG   and  CD  
    4  A    between atoms: CD   and  CE  

>  <TORSDO>
F 15

>  <BEGIN_>
RES LYS A 131

$$$$
ligand_15_pose_4_2HRL.pdbqt
 OpenBabel07062320523D

  6  5  0  0  0  0  0  0  0  0999 V2000
   33.1930   34.6630    9.2900 C   0  0  0  0  0  0  0  0  0  0  0  0
   32.0600   35.3600   10.0340 C   0  0  0  0  0  0  0  0  0  0  0  0
   30.9050   35.7470    9.1470 C   0  0  0  0  0  0  0  0  0  0  0  0
   30.4130   34.5460    8.3530 C   0  0  0  0  0  0  0  0  0  0  0  0
   29.1820   34.9110    7.5450 C   0  0  0  0  0  0  0  0  0  0  0  0
   27.9400   34.7310    8.3470 N   0  0  0  0  0  0  0  0  0  0  0  0
  1  2  1  0  0  0  0
  3  2  1  0  0  0  0
  4  3  1  0  0  0  0
  5  6  1  0  0  0  0
  5  4  1  0  0  0  0
M  END
>  <EGIN_R>
ES LYS A 135

>  <REMARK>
  4 active torsions:
  status: ('A' for Active; 'I' for Inactive)
    5  A    between atoms: CA   and  CB  
    6  A    between atoms: CB   and  CG  
    7  A    between atoms: CG   and  CD  
    8  A    between atoms: CD   and  CE  

$$$$
