ligand_37_pose_12_2HRL.pdbqt
 OpenBabel07062320523D

 55 56  0  0  1  0  0  0  0  0999 V2000
   22.5420   40.0470    8.6470 O   0  0  0  0  0  0  0  0  0  0  0  0
   21.1410   40.1500    8.8150 C   0  0  0  0  0  0  0  0  0  0  0  0
   20.3000   39.0640    8.4900 N   0  0  0  0  0  0  0  0  0  0  0  0
   20.7980   38.1990    8.1080 H   0  0  0  0  0  0  0  0  0  0  0  0
   20.7310   41.2400    9.2560 O   0  0  0  0  0  0  0  0  0  0  0  0
   18.8810   39.0900    8.6490 C   0  0  0  0  0  0  0  0  0  0  0  0
   18.3380   37.7750    9.0960 C   0  0  2  0  0  0  0  0  0  0  0  0
   18.1130   36.8650    7.8910 C   0  0  2  0  0  0  0  0  0  0  0  0
   18.7830   35.5320    8.0160 C   0  0  2  0  0  0  0  0  0  0  0  0
   16.9620   34.3120    8.8430 C   0  0  2  0  0  0  0  0  0  0  0  0
   17.5580   34.4010   10.2110 C   0  0  0  0  0  0  0  0  0  0  0  0
   17.8630   34.4870    7.8220 O   0  0  0  0  0  0  0  0  0  0  0  0
   19.0550   34.1890   10.1100 C   0  0  1  0  0  0  0  0  0  0  0  0
   19.5950   35.3220    9.2520 C   0  0  1  0  0  0  0  0  0  0  0  0
   15.8960   35.1740    8.7280 O   0  0  0  0  0  0  0  0  0  0  0  0
   15.9950   35.8170    7.9720 H   0  0  0  0  0  0  0  0  0  0  0  0
   16.4190   32.9160    8.6650 C   0  0  0  0  0  0  0  0  0  0  0  0
   15.1800   32.7130    8.6040 O   0  0  0  0  0  0  0  0  0  0  0  0
   17.2520   31.8110    8.5620 O   0  0  0  0  0  0  0  0  0  0  0  0
   17.3800   31.1530    9.3460 H   0  0  0  0  0  0  0  0  0  0  0  0
   19.6340   34.1690   11.3630 O   0  0  0  0  0  0  0  0  0  0  0  0
   19.4640   34.9930   11.8840 H   0  0  0  0  0  0  0  0  0  0  0  0
   21.0110   35.0730    8.9670 N   0  0  0  0  0  0  0  0  0  0  0  0
   22.0530   35.9190    9.4490 C   0  0  0  0  0  0  0  0  0  0  0  0
   21.3080   34.2460    8.3850 H   0  0  0  0  0  0  0  0  0  0  0  0
   23.4800   35.6130    9.1240 C   0  0  0  0  0  0  0  0  0  0  0  0
   21.7640   36.9190   10.1460 O   0  0  0  0  0  0  0  0  0  0  0  0
   18.6130   37.5030    6.7490 O   0  0  0  0  0  0  0  0  0  0  0  0
   19.4940   37.1030    6.5150 H   0  0  0  0  0  0  0  0  0  0  0  0
   17.1300   37.9670    9.7650 O   0  0  0  0  0  0  0  0  0  0  0  0
   16.4150   37.3430    9.4450 H   0  0  0  0  0  0  0  0  0  0  0  0
   23.0430   39.1480    7.6800 C   0  0  0  0  0  0  0  0  0  0  0  0
   24.3890   39.5280    7.2130 C   0  0  0  0  0  0  0  0  0  0  0  0
   25.5940   38.9090    7.4520 C   0  0  0  0  0  0  0  0  0  0  0  0
   24.6760   40.5890    6.4400 N   0  0  0  0  0  0  0  0  0  0  0  0
   26.5760   39.6000    6.8260 N   0  0  0  0  0  0  0  0  0  0  0  0
   25.9960   40.6040    6.2270 N   0  0  0  0  0  0  0  0  0  0  0  0
   27.9760   39.2690    6.8380 C   0  0  1  0  0  0  0  0  0  0  0  0
   28.3850   38.7840    8.2120 C   0  0  0  0  0  0  0  0  0  0  0  0
   28.2550   38.2880    5.7810 C   0  0  0  0  0  0  0  0  0  0  0  0
   27.9950   38.5780    4.5760 O   0  0  0  0  0  0  0  0  0  0  0  0
   28.7940   37.0460    6.0410 O   0  0  0  0  0  0  0  0  0  0  0  0
   28.1300   35.8220    5.9900 C   0  0  0  0  0  0  0  0  0  0  0  0
   28.2550   35.1430    7.3100 C   0  0  0  0  0  0  0  0  0  0  0  0
   29.4980   34.8610    7.8330 C   0  0  0  0  0  0  0  0  0  0  0  0
   27.1320   34.8000    8.0120 C   0  0  0  0  0  0  0  0  0  0  0  0
   29.6170   34.2390    9.0520 C   0  0  0  0  0  0  0  0  0  0  0  0
   27.2210   34.1800    9.2270 C   0  0  0  0  0  0  0  0  0  0  0  0
   28.4630   33.9000    9.7440 C   0  0  0  0  0  0  0  0  0  0  0  0
   29.8670   25.5550   16.9770 C   0  0  0  0  0  0  0  0  0  0  0  0
   28.3450   25.7220   17.0260 C   0  0  0  0  0  0  0  0  0  0  0  0
   27.6050   24.3930   17.0270 C   0  0  0  0  0  0  0  0  0  0  0  0
   26.1210   24.5720   17.1930 C   0  0  0  0  0  0  0  0  0  0  0  0
   25.6990   24.0690   18.5700 C   0  0  0  0  0  0  0  0  0  0  0  0
   25.7740   25.1620   19.5680 N   0  0  0  0  0  0  0  0  0  0  0  0
  1  2  1  0  0  0  0
  2  5  2  0  0  0  0
  3  6  1  0  0  0  0
  3  2  1  0  0  0  0
  4  3  1  0  0  0  0
  7  6  1  6  0  0  0
  7 30  1  0  0  0  0
  8 28  1  6  0  0  0
  8  7  1  0  0  0  0
  9  8  1  1  0  0  0
  9 14  1  0  0  0  0
 10 17  1  6  0  0  0
 10 11  1  0  0  0  0
 12  9  1  0  0  0  0
 12 10  1  0  0  0  0
 13 11  1  0  0  0  0
 13 21  1  1  0  0  0
 14 23  1  6  0  0  0
 14 13  1  0  0  0  0
 15 10  1  0  0  0  0
 16 15  1  0  0  0  0
 18 17  2  0  0  0  0
 19 17  1  0  0  0  0
 19 20  1  0  0  0  0
 21 22  1  0  0  0  0
 23 24  1  0  0  0  0
 24 27  2  0  0  0  0
 25 23  1  0  0  0  0
 26 24  1  0  0  0  0
 29 28  1  0  0  0  0
 31 30  1  0  0  0  0
 32  1  1  0  0  0  0
 33 34  2  0  0  0  0
 33 32  1  0  0  0  0
 35 33  1  0  0  0  0
 36 38  1  0  0  0  0
 36 34  1  0  0  0  0
 37 35  2  0  0  0  0
 37 36  1  0  0  0  0
 38 39  1  1  0  0  0
 40 42  1  0  0  0  0
 40 38  1  0  0  0  0
 41 40  2  0  0  0  0
 43 42  1  0  0  0  0
 43 44  1  0  0  0  0
 44 45  2  0  0  0  0
 44 46  1  0  0  0  0
 45 47  1  0  0  0  0
 46 48  2  0  0  0  0
 47 49  2  0  0  0  0
 48 49  1  0  0  0  0
 50 51  1  0  0  0  0
 51 52  1  0  0  0  0
 52 53  1  0  0  0  0
 53 54  1  0  0  0  0
 54 55  1  0  0  0  0
M  END
>  <REMARK>
 VINA RESULT:    -5.518      2.122      3.498
 INTER + INTRA:         -15.951
 INTER:                 -11.240
 INTRA:                  -4.711
 UNBOUND:                -5.110
 SMILES CC(=O)N[C@@H]1[C@@H](O)C[C@](O)(C(=O)O)O[C@H]1C(O)[C@H](O)CNC(=O)OCc1cn([C@@H](C)C(=O)OCc2ccccc2)nn1
 SMILES IDX 24 1 22 2 21 3 23 5 20 6 18 7 16 8 15 9 9 10 8 11 14 12 6 13
 SMILES IDX 5 14 10 15 11 17 12 18 13 19 7 21 4 23 2 24 1 26 3 27 17 28
 SMILES IDX 19 30 25 32 26 33 27 34 42 35 28 36 41 37 29 38 30 39 31 40
 SMILES IDX 32 41 33 42 34 43 35 44 36 45 40 46 37 47 39 48 38 49
 H PARENT 21 4 10 16 13 20 7 22 4 25 17 29 19 31
 Flexibility Score: inf
  4 active torsions:
  status: ('A' for Active; 'I' for Inactive)
    1  A    between atoms: CA   and  CB  
    2  A    between atoms: CB   and  CG  
    3  A    between atoms: CG   and  CD  
    4  A    between atoms: CD   and  CE  

>  <TORSDO>
F 19

>  <BEGIN_>
RES LYS A 131

$$$$
ligand_37_pose_12_2HRL.pdbqt
 OpenBabel07062320523D

  6  5  0  0  0  0  0  0  0  0999 V2000
   33.1930   34.6630    9.2900 C   0  0  0  0  0  0  0  0  0  0  0  0
   32.0600   35.3600   10.0340 C   0  0  0  0  0  0  0  0  0  0  0  0
   32.4660   35.9000   11.3810 C   0  0  0  0  0  0  0  0  0  0  0  0
   31.2480   36.0960   12.2700 C   0  0  0  0  0  0  0  0  0  0  0  0
   31.0180   34.8720   13.1350 C   0  0  0  0  0  0  0  0  0  0  0  0
   29.5790   34.4890   13.1520 N   0  0  0  0  0  0  0  0  0  0  0  0
  1  2  1  0  0  0  0
  2  3  1  0  0  0  0
  3  4  1  0  0  0  0
  4  5  1  0  0  0  0
  5  6  1  0  0  0  0
M  END
>  <EGIN_R>
ES LYS A 135

>  <REMARK>
  4 active torsions:
  status: ('A' for Active; 'I' for Inactive)
    5  A    between atoms: CA   and  CB  
    6  A    between atoms: CB   and  CG  
    7  A    between atoms: CG   and  CD  
    8  A    between atoms: CD   and  CE  

$$$$
