ligand_68_pose_16_2HRL.pdbqt
 OpenBabel07062320523D

 53 54  0  0  1  0  0  0  0  0999 V2000
   24.7320   29.2010   18.5200 N   0  0  0  0  0  0  0  0  0  0  0  0
   24.3300   30.4310   19.0990 C   0  0  0  0  0  0  0  0  0  0  0  0
   24.4620   30.5860   20.3340 O   0  0  0  0  0  0  0  0  0  0  0  0
   24.5900   29.1520   17.4630 H   0  0  0  0  0  0  0  0  0  0  0  0
   25.2900   28.0860   19.2490 C   0  0  0  0  0  0  0  0  0  0  0  0
   26.6690   27.7090   18.7500 C   0  0  2  0  0  0  0  0  0  0  0  0
   27.6540   27.6420   19.9180 C   0  0  2  0  0  0  0  0  0  0  0  0
   28.5900   28.8190   19.9900 C   0  0  2  0  0  0  0  0  0  0  0  0
   29.6960   28.1080   21.9270 C   0  0  2  0  0  0  0  0  0  0  0  0
   28.5550   28.6100   22.7160 C   0  0  0  0  0  0  0  0  0  0  0  0
   29.7690   28.3910   20.6060 O   0  0  0  0  0  0  0  0  0  0  0  0
   27.7650   29.7460   22.1430 C   0  0  1  0  0  0  0  0  0  0  0  0
   27.9960   29.9790   20.6690 C   0  0  1  0  0  0  0  0  0  0  0  0
   29.6380   26.6850   22.0140 O   0  0  0  0  0  0  0  0  0  0  0  0
   28.8760   26.4940   22.6030 H   0  0  0  0  0  0  0  0  0  0  0  0
   30.9720   28.4620   22.6540 C   0  0  0  0  0  0  0  0  0  0  0  0
   30.9940   29.2770   23.6060 O   0  0  0  0  0  0  0  0  0  0  0  0
   32.1720   27.8710   22.2680 O   0  0  0  0  0  0  0  0  0  0  0  0
   32.5220   27.0110   22.6610 H   0  0  0  0  0  0  0  0  0  0  0  0
   26.3800   29.5330   22.3940 O   0  0  0  0  0  0  0  0  0  0  0  0
   26.2820   28.5910   22.6300 H   0  0  0  0  0  0  0  0  0  0  0  0
   28.7950   31.1910   20.5810 N   0  0  0  0  0  0  0  0  0  0  0  0
   28.2500   32.4960   20.5220 C   0  0  0  0  0  0  0  0  0  0  0  0
   29.8280   31.0440   20.5620 H   0  0  0  0  0  0  0  0  0  0  0  0
   29.0930   33.7130   20.4320 C   0  0  0  0  0  0  0  0  0  0  0  0
   26.9930   32.5680   20.5500 O   0  0  0  0  0  0  0  0  0  0  0  0
   28.4760   26.5130   19.5370 O   0  0  0  0  0  0  0  0  0  0  0  0
   28.8070   26.0430   20.3180 H   0  0  0  0  0  0  0  0  0  0  0  0
   27.0470   28.5960   17.7690 O   0  0  0  0  0  0  0  0  0  0  0  0
   27.2290   28.0790   16.9490 H   0  0  0  0  0  0  0  0  0  0  0  0
   23.7960   31.4760   18.3610 O   0  0  0  0  0  0  0  0  0  0  0  0
   24.5980   32.4840   17.7780 C   0  0  0  0  0  0  0  0  0  0  0  0
   25.6470   31.8430   16.9600 C   0  0  0  0  0  0  0  0  0  0  0  0
   27.0100   32.0820   17.0370 C   0  0  0  0  0  0  0  0  0  0  0  0
   25.5250   30.9100   15.9870 N   0  0  0  0  0  0  0  0  0  0  0  0
   27.6520   31.3140   16.1390 N   0  0  0  0  0  0  0  0  0  0  0  0
   26.7290   30.6190   15.5200 N   0  0  0  0  0  0  0  0  0  0  0  0
   29.1060   31.2910   15.9270 C   0  0  0  0  0  0  0  0  0  0  0  0
   29.7860   31.8450   17.1540 C   0  0  1  0  0  0  0  0  0  0  0  0
   30.4830   30.7730   17.7560 O   0  0  0  0  0  0  0  0  0  0  0  0
   29.8240   30.0920   18.0650 H   0  0  0  0  0  0  0  0  0  0  0  0
   30.7810   32.8620   16.7590 C   0  0  0  0  0  0  0  0  0  0  0  0
   31.2300   33.8400   17.6230 C   0  0  0  0  0  0  0  0  0  0  0  0
   31.2920   32.8360   15.4540 C   0  0  0  0  0  0  0  0  0  0  0  0
   32.1570   34.7760   17.2360 C   0  0  0  0  0  0  0  0  0  0  0  0
   32.2140   33.7660   15.0670 C   0  0  0  0  0  0  0  0  0  0  0  0
   32.6440   34.7290   15.9510 C   0  0  0  0  0  0  0  0  0  0  0  0
   29.8670   25.5550   16.9770 C   0  0  0  0  0  0  0  0  0  0  0  0
   28.3450   25.7220   17.0260 C   0  0  0  0  0  0  0  0  0  0  0  0
   27.6010   24.4020   16.8930 C   0  0  0  0  0  0  0  0  0  0  0  0
   26.1650   24.5160   17.3220 C   0  0  0  0  0  0  0  0  0  0  0  0
   25.9140   23.5940   18.5110 C   0  0  0  0  0  0  0  0  0  0  0  0
   25.4880   24.3770   19.6950 N   0  0  0  0  0  0  0  0  0  0  0  0
  1  2  1  0  0  0  0
  1  5  1  0  0  0  0
  2  3  2  0  0  0  0
  4  1  1  0  0  0  0
  6  5  1  1  0  0  0
  6  7  1  0  0  0  0
  7 27  1  6  0  0  0
  8  7  1  1  0  0  0
  8 11  1  0  0  0  0
  8 13  1  0  0  0  0
  9 14  1  1  0  0  0
  9 16  1  0  0  0  0
  9 10  1  0  0  0  0
 11  9  1  0  0  0  0
 12 20  1  6  0  0  0
 12 10  1  0  0  0  0
 13 22  1  1  0  0  0
 13 12  1  0  0  0  0
 14 15  1  0  0  0  0
 16 17  2  0  0  0  0
 18 16  1  0  0  0  0
 18 19  1  0  0  0  0
 20 21  1  0  0  0  0
 23 26  2  0  0  0  0
 23 22  1  0  0  0  0
 24 22  1  0  0  0  0
 25 23  1  0  0  0  0
 27 28  1  0  0  0  0
 29  6  1  0  0  0  0
 30 29  1  0  0  0  0
 31  2  1  0  0  0  0
 32 31  1  0  0  0  0
 33 34  2  0  0  0  0
 33 32  1  0  0  0  0
 35 33  1  0  0  0  0
 36 34  1  0  0  0  0
 37 35  2  0  0  0  0
 37 36  1  0  0  0  0
 38 36  1  0  0  0  0
 39 38  1  6  0  0  0
 39 40  1  0  0  0  0
 40 41  1  0  0  0  0
 42 39  1  0  0  0  0
 42 43  2  0  0  0  0
 44 42  1  0  0  0  0
 45 43  1  0  0  0  0
 46 44  2  0  0  0  0
 46 47  1  0  0  0  0
 47 45  2  0  0  0  0
 48 49  1  0  0  0  0
 50 49  1  0  0  0  0
 50 51  1  0  0  0  0
 51 52  1  0  0  0  0
 52 53  1  0  0  0  0
M  END
>  <REMARK>
 VINA RESULT:    -5.119      1.959      3.406
 INTER + INTRA:         -14.621
 INTER:                  -7.946
 INTRA:                  -6.674
 UNBOUND:                -5.012
 SMILES CC(=O)N[C@@H]1[C@@H](O)C[C@](O)(C(=O)O)O[C@H]1C(O)[C@H](O)CNC(=O)OCc1cn(CC(O)c2ccccc2)nn1
 SMILES IDX 21 1 22 2 23 3 20 5 18 6 16 7 15 8 9 9 8 10 14 11 6 12 5 13
 SMILES IDX 10 14 11 16 12 17 13 18 7 20 4 22 2 23 1 25 3 26 17 27 19 29
 SMILES IDX 24 31 25 32 26 33 27 34 39 35 28 36 38 37 29 38 30 39 31 40
 SMILES IDX 32 42 33 43 37 44 34 45 36 46 35 47
 H PARENT 21 4 10 15 13 19 7 21 4 24 17 28 19 30 31 41
 Flexibility Score: inf
  4 active torsions:
  status: ('A' for Active; 'I' for Inactive)
    1  A    between atoms: CA   and  CB  
    2  A    between atoms: CB   and  CG  
    3  A    between atoms: CG   and  CD  
    4  A    between atoms: CD   and  CE  

>  <TORSDO>
F 18

>  <BEGIN_>
RES LYS A 131

$$$$
ligand_68_pose_16_2HRL.pdbqt
 OpenBabel07062320523D

  6  5  0  0  0  0  0  0  0  0999 V2000
   33.1930   34.6630    9.2900 C   0  0  0  0  0  0  0  0  0  0  0  0
   32.0600   35.3600   10.0340 C   0  0  0  0  0  0  0  0  0  0  0  0
   30.7320   34.6610    9.9010 C   0  0  0  0  0  0  0  0  0  0  0  0
   30.3360   34.5350    8.4380 C   0  0  0  0  0  0  0  0  0  0  0  0
   28.8270   34.5510    8.2910 C   0  0  0  0  0  0  0  0  0  0  0  0
   28.1700   33.8310    9.4170 N   0  0  0  0  0  0  0  0  0  0  0  0
  1  2  1  0  0  0  0
  3  2  1  0  0  0  0
  4  3  1  0  0  0  0
  5  4  1  0  0  0  0
  5  6  1  0  0  0  0
M  END
>  <EGIN_R>
ES LYS A 135

>  <REMARK>
  4 active torsions:
  status: ('A' for Active; 'I' for Inactive)
    5  A    between atoms: CA   and  CB  
    6  A    between atoms: CB   and  CG  
    7  A    between atoms: CG   and  CD  
    8  A    between atoms: CD   and  CE  

$$$$
