ligand_65_pose_8_2HRL.pdbqt
 OpenBabel07062320523D

 53 54  0  0  1  0  0  0  0  0999 V2000
   26.3440   38.5200    8.6830 N   0  0  0  0  0  0  0  0  0  0  0  0
   27.7530   38.5330    8.6620 C   0  0  0  0  0  0  0  0  0  0  0  0
   28.4360   38.9040    7.6820 O   0  0  0  0  0  0  0  0  0  0  0  0
   25.7950   38.2030    9.5380 H   0  0  0  0  0  0  0  0  0  0  0  0
   25.6050   38.9460    7.5140 C   0  0  0  0  0  0  0  0  0  0  0  0
   24.2580   39.4350    7.9450 C   0  0  2  0  0  0  0  0  0  0  0  0
   23.2230   38.3420    7.7680 C   0  0  2  0  0  0  0  0  0  0  0  0
   22.7000   37.9680    9.1460 C   0  0  2  0  0  0  0  0  0  0  0  0
   24.0120   36.3500   10.2470 C   0  0  2  0  0  0  0  0  0  0  0  0
   23.0300   35.2710    9.9150 C   0  0  0  0  0  0  0  0  0  0  0  0
   23.7270   37.6040    9.9120 O   0  0  0  0  0  0  0  0  0  0  0  0
   21.6360   35.8760   10.0160 C   0  0  1  0  0  0  0  0  0  0  0  0
   21.6230   36.9410    8.9200 C   0  0  1  0  0  0  0  0  0  0  0  0
   25.2220   35.9850    9.6100 O   0  0  0  0  0  0  0  0  0  0  0  0
   25.1150   35.1630    9.0780 H   0  0  0  0  0  0  0  0  0  0  0  0
   24.2730   36.2720   11.7070 C   0  0  0  0  0  0  0  0  0  0  0  0
   24.1340   37.2850   12.4390 O   0  0  0  0  0  0  0  0  0  0  0  0
   24.6780   35.0980   12.3210 O   0  0  0  0  0  0  0  0  0  0  0  0
   24.3020   34.7870   13.2190 H   0  0  0  0  0  0  0  0  0  0  0  0
   20.6530   34.9500    9.7280 O   0  0  0  0  0  0  0  0  0  0  0  0
   20.6120   34.8610    8.7330 H   0  0  0  0  0  0  0  0  0  0  0  0
   20.3210   37.5620    8.8170 N   0  0  0  0  0  0  0  0  0  0  0  0
   19.3470   37.0760    7.9080 C   0  0  0  0  0  0  0  0  0  0  0  0
   20.1510   38.3780    9.4470 H   0  0  0  0  0  0  0  0  0  0  0  0
   18.0350   37.7560    7.8510 C   0  0  0  0  0  0  0  0  0  0  0  0
   19.5630   36.0970    7.1590 O   0  0  0  0  0  0  0  0  0  0  0  0
   23.8660   37.2100    7.2000 O   0  0  0  0  0  0  0  0  0  0  0  0
   24.3780   36.8180    7.9640 H   0  0  0  0  0  0  0  0  0  0  0  0
   23.9250   40.5720    7.1950 O   0  0  0  0  0  0  0  0  0  0  0  0
   24.5100   41.3200    7.4100 H   0  0  0  0  0  0  0  0  0  0  0  0
   28.4440   38.1070    9.8090 O   0  0  0  0  0  0  0  0  0  0  0  0
   27.7030   37.9640   11.0020 C   0  0  0  0  0  0  0  0  0  0  0  0
   28.1120   36.6850   11.6690 C   0  0  0  0  0  0  0  0  0  0  0  0
   29.1730   36.4910   12.5330 C   0  0  0  0  0  0  0  0  0  0  0  0
   27.5330   35.4670   11.5650 N   0  0  0  0  0  0  0  0  0  0  0  0
   29.2150   35.2010   12.9230 N   0  0  0  0  0  0  0  0  0  0  0  0
   28.2090   34.6070   12.3210 N   0  0  0  0  0  0  0  0  0  0  0  0
   30.1670   34.6110   13.8150 C   0  0  0  0  0  0  0  0  0  0  0  0
   29.9950   33.3750   14.3210 N   0  0  0  0  0  0  0  0  0  0  0  0
   31.2770   35.2800   14.1820 N   0  0  0  0  0  0  0  0  0  0  0  0
   30.8620   32.7870   15.1590 C   0  0  0  0  0  0  0  0  0  0  0  0
   32.1920   34.7390   15.0270 C   0  0  0  0  0  0  0  0  0  0  0  0
   31.9660   33.5080   15.4960 N   0  0  0  0  0  0  0  0  0  0  0  0
   33.4210   35.4680   15.4390 C   0  0  0  0  0  0  0  0  0  0  0  0
   30.6850   31.4930   15.6900 N   0  0  0  0  0  0  0  0  0  0  0  0
   31.3110   31.1490   16.4300 H   0  0  0  0  0  0  0  0  0  0  0  0
   29.9270   30.8930   15.3340 H   0  0  0  0  0  0  0  0  0  0  0  0
   29.8670   25.5550   16.9770 C   0  0  0  0  0  0  0  0  0  0  0  0
   28.3450   25.7220   17.0260 C   0  0  0  0  0  0  0  0  0  0  0  0
   27.6000   24.4140   16.8060 C   0  0  0  0  0  0  0  0  0  0  0  0
   26.6350   24.1180   17.9210 C   0  0  0  0  0  0  0  0  0  0  0  0
   25.2330   23.9390   17.3470 C   0  0  0  0  0  0  0  0  0  0  0  0
   24.4380   23.0230   18.1970 N   0  0  0  0  0  0  0  0  0  0  0  0
  1  4  1  0  0  0  0
  2  1  1  0  0  0  0
  2 31  1  0  0  0  0
  3  2  2  0  0  0  0
  5  1  1  0  0  0  0
  6  5  1  6  0  0  0
  7 27  1  1  0  0  0
  7  6  1  0  0  0  0
  8  7  1  6  0  0  0
  8 11  1  0  0  0  0
  9 14  1  6  0  0  0
  9 16  1  0  0  0  0
 10 12  1  0  0  0  0
 10  9  1  0  0  0  0
 11  9  1  0  0  0  0
 12 20  1  6  0  0  0
 13 22  1  1  0  0  0
 13  8  1  0  0  0  0
 13 12  1  0  0  0  0
 15 14  1  0  0  0  0
 16 18  1  0  0  0  0
 16 17  2  0  0  0  0
 18 19  1  0  0  0  0
 21 20  1  0  0  0  0
 22 24  1  0  0  0  0
 23 22  1  0  0  0  0
 25 23  1  0  0  0  0
 26 23  2  0  0  0  0
 27 28  1  0  0  0  0
 29 30  1  0  0  0  0
 29  6  1  0  0  0  0
 31 32  1  0  0  0  0
 32 33  1  0  0  0  0
 33 34  2  0  0  0  0
 34 36  1  0  0  0  0
 35 33  1  0  0  0  0
 35 37  2  0  0  0  0
 36 38  1  0  0  0  0
 37 36  1  0  0  0  0
 38 40  1  0  0  0  0
 38 39  2  0  0  0  0
 39 41  2  0  0  0  0
 40 42  2  0  0  0  0
 41 43  1  0  0  0  0
 41 45  1  0  0  0  0
 42 44  1  0  0  0  0
 42 43  1  0  0  0  0
 45 46  1  0  0  0  0
 47 45  1  0  0  0  0
 48 49  1  0  0  0  0
 50 49  1  0  0  0  0
 50 51  1  0  0  0  0
 52 51  1  0  0  0  0
 52 53  1  0  0  0  0
M  END
>  <REMARK>
 VINA RESULT:    -5.168      6.871     12.328
 INTER + INTRA:         -14.229
 INTER:                  -8.259
 INTRA:                  -5.970
 UNBOUND:                -5.134
 SMILES CC(=O)N[C@@H]1[C@@H](O)C[C@](O)(C(=O)O)O[C@H]1C(O)[C@H](O)CNC(=O)OCc1cn(-c2nc(C)nc(N)n2)nn1
 SMILES IDX 21 1 22 2 23 3 20 5 18 6 16 7 15 8 9 9 8 10 14 11 6 12 5 13
 SMILES IDX 10 14 11 16 12 17 13 18 7 20 4 22 2 23 1 25 3 26 17 27 19 29
 SMILES IDX 24 31 25 32 26 33 27 34 38 35 28 36 37 37 29 38 36 39 30 40
 SMILES IDX 34 41 31 42 33 43 32 44 35 45
 H PARENT 21 4 10 15 13 19 7 21 4 24 17 28 19 30 35 46 35 47
 Flexibility Score: inf
  4 active torsions:
  status: ('A' for Active; 'I' for Inactive)
    1  A    between atoms: CA   and  CB  
    2  A    between atoms: CB   and  CG  
    3  A    between atoms: CG   and  CD  
    4  A    between atoms: CD   and  CE  

>  <TORSDO>
F 16

>  <BEGIN_>
RES LYS A 131

$$$$
ligand_65_pose_8_2HRL.pdbqt
 OpenBabel07062320523D

  6  5  0  0  0  0  0  0  0  0999 V2000
   33.1930   34.6630    9.2900 C   0  0  0  0  0  0  0  0  0  0  0  0
   32.0600   35.3600   10.0340 C   0  0  0  0  0  0  0  0  0  0  0  0
   30.7070   34.7450    9.7840 C   0  0  0  0  0  0  0  0  0  0  0  0
   30.4520   34.5960    8.2930 C   0  0  0  0  0  0  0  0  0  0  0  0
   29.0030   34.9040    7.9670 C   0  0  0  0  0  0  0  0  0  0  0  0
   28.8850   35.6100    6.6600 N   0  0  0  0  0  0  0  0  0  0  0  0
  1  2  1  0  0  0  0
  3  2  1  0  0  0  0
  4  3  1  0  0  0  0
  5  4  1  0  0  0  0
  6  5  1  0  0  0  0
M  END
>  <EGIN_R>
ES LYS A 135

>  <REMARK>
  4 active torsions:
  status: ('A' for Active; 'I' for Inactive)
    5  A    between atoms: CA   and  CB  
    6  A    between atoms: CB   and  CG  
    7  A    between atoms: CG   and  CD  
    8  A    between atoms: CD   and  CE  

$$$$
