ligand_40_pose_19_2HRL.pdbqt
 OpenBabel07062320523D

 50 51  0  0  1  0  0  0  0  0999 V2000
   29.8940   44.6340    7.4610 C   0  0  0  0  0  0  0  0  0  0  0  0
   30.7130   43.7010    8.2530 C   0  0  2  0  0  0  0  0  0  0  0  0
   31.6960   42.8130    7.5600 C   0  0  2  0  0  0  0  0  0  0  0  0
   31.5140   41.3390    7.7360 C   0  0  2  0  0  0  0  0  0  0  0  0
   33.0020   40.4880    6.1390 C   0  0  2  0  0  0  0  0  0  0  0  0
   31.9180   39.7150    5.4090 C   0  0  0  0  0  0  0  0  0  0  0  0
   32.7370   40.7110    7.4520 O   0  0  0  0  0  0  0  0  0  0  0  0
   30.5750   40.3760    5.6780 C   0  0  1  0  0  0  0  0  0  0  0  0
   30.3620   40.6480    7.1310 C   0  0  1  0  0  0  0  0  0  0  0  0
   33.2620   41.6110    5.3910 O   0  0  0  0  0  0  0  0  0  0  0  0
   34.1840   41.6630    5.0310 H   0  0  0  0  0  0  0  0  0  0  0  0
   34.2120   39.6070    6.0850 C   0  0  0  0  0  0  0  0  0  0  0  0
   34.6690   39.1630    4.9900 O   0  0  0  0  0  0  0  0  0  0  0  0
   34.8620   39.2550    7.2500 O   0  0  0  0  0  0  0  0  0  0  0  0
   35.0840   39.9810    7.9360 H   0  0  0  0  0  0  0  0  0  0  0  0
   30.6620   41.6060    5.0240 O   0  0  0  0  0  0  0  0  0  0  0  0
   29.8130   41.8390    4.5660 H   0  0  0  0  0  0  0  0  0  0  0  0
   30.1290   39.4540    7.9220 N   0  0  0  0  0  0  0  0  0  0  0  0
   29.2080   39.3920    8.9800 C   0  0  0  0  0  0  0  0  0  0  0  0
   30.6970   38.6240    7.6530 H   0  0  0  0  0  0  0  0  0  0  0  0
   28.9490   38.1940    9.8000 C   0  0  0  0  0  0  0  0  0  0  0  0
   28.5790   40.4410    9.2200 O   0  0  0  0  0  0  0  0  0  0  0  0
   32.9340   43.0080    8.3310 O   0  0  0  0  0  0  0  0  0  0  0  0
   32.8720   42.3970    9.1130 H   0  0  0  0  0  0  0  0  0  0  0  0
   29.9790   43.0630    9.2410 O   0  0  0  0  0  0  0  0  0  0  0  0
   30.3480   42.1490    9.4450 H   0  0  0  0  0  0  0  0  0  0  0  0
   29.3880   44.0920    6.1980 N   0  0  0  0  0  0  0  0  0  0  0  0
   28.1870   43.3490    6.1340 C   0  0  0  0  0  0  0  0  0  0  0  0
   29.8990   44.2230    5.2860 H   0  0  0  0  0  0  0  0  0  0  0  0
   27.5370   43.1420    7.1640 O   0  0  0  0  0  0  0  0  0  0  0  0
   27.6860   42.8230    4.9420 O   0  0  0  0  0  0  0  0  0  0  0  0
   26.5800   41.9510    4.9830 C   0  0  0  0  0  0  0  0  0  0  0  0
   26.9620   40.5360    5.0000 C   0  0  0  0  0  0  0  0  0  0  0  0
   26.7930   39.7100    6.0920 C   0  0  0  0  0  0  0  0  0  0  0  0
   27.5200   39.7510    4.0560 N   0  0  0  0  0  0  0  0  0  0  0  0
   27.2390   38.4700    5.8020 N   0  0  0  0  0  0  0  0  0  0  0  0
   27.6720   38.5320    4.5610 N   0  0  0  0  0  0  0  0  0  0  0  0
   27.2620   37.3050    6.6250 C   0  0  0  0  0  0  0  0  0  0  0  0
   26.2570   37.0610    7.5390 C   0  0  0  0  0  0  0  0  0  0  0  0
   28.2780   36.3750    6.5510 C   0  0  0  0  0  0  0  0  0  0  0  0
   26.2650   35.9370    8.3430 C   0  0  0  0  0  0  0  0  0  0  0  0
   28.2930   35.2520    7.3510 C   0  0  0  0  0  0  0  0  0  0  0  0
   27.2860   35.0130    8.2610 C   0  0  0  0  0  0  0  0  0  0  0  0
   27.3390   33.7900    9.1050 C   0  0  0  0  0  0  0  0  0  0  0  0
   29.8670   25.5550   16.9770 C   0  0  0  0  0  0  0  0  0  0  0  0
   28.3450   25.7220   17.0260 C   0  0  0  0  0  0  0  0  0  0  0  0
   27.6010   24.4010   16.9050 C   0  0  0  0  0  0  0  0  0  0  0  0
   26.1940   24.4930   17.4260 C   0  0  0  0  0  0  0  0  0  0  0  0
   26.0800   25.6800   18.3770 C   0  0  0  0  0  0  0  0  0  0  0  0
   24.9030   26.5110   18.0310 N   0  0  0  0  0  0  0  0  0  0  0  0
  2  1  1  6  0  0  0
  2 25  1  0  0  0  0
  3  2  1  0  0  0  0
  3 23  1  1  0  0  0
  4  3  1  6  0  0  0
  5 10  1  6  0  0  0
  5  7  1  0  0  0  0
  6  8  1  0  0  0  0
  6  5  1  0  0  0  0
  7  4  1  0  0  0  0
  8 16  1  6  0  0  0
  8  9  1  0  0  0  0
  9  4  1  0  0  0  0
  9 18  1  1  0  0  0
 11 10  1  0  0  0  0
 12  5  1  0  0  0  0
 12 14  1  0  0  0  0
 13 12  2  0  0  0  0
 14 15  1  0  0  0  0
 17 16  1  0  0  0  0
 18 19  1  0  0  0  0
 19 22  2  0  0  0  0
 19 21  1  0  0  0  0
 20 18  1  0  0  0  0
 23 24  1  0  0  0  0
 25 26  1  0  0  0  0
 27  1  1  0  0  0  0
 28 27  1  0  0  0  0
 28 30  2  0  0  0  0
 29 27  1  0  0  0  0
 31 32  1  0  0  0  0
 31 28  1  0  0  0  0
 32 33  1  0  0  0  0
 33 34  2  0  0  0  0
 35 37  2  0  0  0  0
 35 33  1  0  0  0  0
 36 34  1  0  0  0  0
 36 38  1  0  0  0  0
 37 36  1  0  0  0  0
 38 39  1  0  0  0  0
 39 41  2  0  0  0  0
 40 38  2  0  0  0  0
 40 42  1  0  0  0  0
 42 43  2  0  0  0  0
 43 41  1  0  0  0  0
 43 44  1  0  0  0  0
 45 46  1  0  0  0  0
 47 46  1  0  0  0  0
 47 48  1  0  0  0  0
 48 49  1  0  0  0  0
 50 49  1  0  0  0  0
M  END
>  <REMARK>
 VINA RESULT:    -4.970      7.449     11.926
 INTER + INTRA:         -13.615
 INTER:                  -7.932
 INTRA:                  -5.683
 UNBOUND:                -5.012
 SMILES CC(=O)N[C@@H]1[C@@H](O)C[C@](O)(C(=O)O)O[C@H]1C(O)[C@H](O)CNC(=O)OCc1cn(-c2ccc(C)cc2)nn1
 SMILES IDX 20 1 18 2 16 3 15 4 9 5 8 6 14 7 6 8 5 9 10 10 11 12 12 13
 SMILES IDX 13 14 7 16 4 18 2 19 1 21 3 22 17 23 19 25 21 27 22 28 23 30
 SMILES IDX 24 31 25 32 26 33 27 34 37 35 28 36 36 37 29 38 30 39 35 40
 SMILES IDX 31 41 34 42 32 43 33 44
 H PARENT 10 11 13 15 7 17 4 20 17 24 19 26 21 29
 Flexibility Score: inf
  4 active torsions:
  status: ('A' for Active; 'I' for Inactive)
    1  A    between atoms: CA   and  CB  
    2  A    between atoms: CB   and  CG  
    3  A    between atoms: CG   and  CD  
    4  A    between atoms: CD   and  CE  

>  <TORSDO>
F 15

>  <BEGIN_>
RES LYS A 131

$$$$
ligand_40_pose_19_2HRL.pdbqt
 OpenBabel07062320523D

  6  5  0  0  0  0  0  0  0  0999 V2000
   33.1930   34.6630    9.2900 C   0  0  0  0  0  0  0  0  0  0  0  0
   32.0600   35.3600   10.0340 C   0  0  0  0  0  0  0  0  0  0  0  0
   30.7550   34.6070    9.9870 C   0  0  0  0  0  0  0  0  0  0  0  0
   30.0090   34.7440   11.3050 C   0  0  0  0  0  0  0  0  0  0  0  0
   30.8840   35.4180   12.3450 C   0  0  0  0  0  0  0  0  0  0  0  0
   30.1930   36.5920   12.9470 N   0  0  0  0  0  0  0  0  0  0  0  0
  1  2  1  0  0  0  0
  3  2  1  0  0  0  0
  3  4  1  0  0  0  0
  4  5  1  0  0  0  0
  5  6  1  0  0  0  0
M  END
>  <EGIN_R>
ES LYS A 135

>  <REMARK>
  4 active torsions:
  status: ('A' for Active; 'I' for Inactive)
    5  A    between atoms: CA   and  CB  
    6  A    between atoms: CB   and  CG  
    7  A    between atoms: CG   and  CD  
    8  A    between atoms: CD   and  CE  

$$$$
