ligand_51_pose_9_2HRL.pdbqt
 OpenBabel07062320523D

 53 56  0  0  1  0  0  0  0  0999 V2000
   30.6400   39.8410   15.0760 C   0  0  0  0  0  0  0  0  0  0  0  0
   31.1460   38.4280   15.2070 C   0  0  2  0  0  0  0  0  0  0  0  0
   30.1450   37.4020   14.7180 C   0  0  1  0  0  0  0  0  0  0  0  0
   30.0890   36.2150   15.6870 C   0  0  2  0  0  0  0  0  0  0  0  0
   31.1700   34.3050   14.8600 C   0  0  2  0  0  0  0  0  0  0  0  0
   29.9400   34.0910   14.0150 C   0  0  0  0  0  0  0  0  0  0  0  0
   31.1890   35.4220   15.6220 O   0  0  0  0  0  0  0  0  0  0  0  0
   28.7210   34.2620   14.8520 C   0  0  1  0  0  0  0  0  0  0  0  0
   28.7770   35.5220   15.6730 C   0  0  1  0  0  0  0  0  0  0  0  0
   32.2320   34.4150   13.9330 O   0  0  0  0  0  0  0  0  0  0  0  0
   32.8660   33.6780   14.1390 H   0  0  0  0  0  0  0  0  0  0  0  0
   31.3970   33.0520   15.6230 C   0  0  0  0  0  0  0  0  0  0  0  0
   31.5050   33.0390   16.8790 O   0  0  0  0  0  0  0  0  0  0  0  0
   31.4950   31.8510   14.9550 O   0  0  0  0  0  0  0  0  0  0  0  0
   31.7150   30.9730   15.4270 H   0  0  0  0  0  0  0  0  0  0  0  0
   27.6050   34.2460   13.9850 O   0  0  0  0  0  0  0  0  0  0  0  0
   26.7780   34.1820   14.5070 H   0  0  0  0  0  0  0  0  0  0  0  0
   28.3950   35.2260   17.0480 N   0  0  0  0  0  0  0  0  0  0  0  0
   27.5440   36.0770   17.8010 C   0  0  0  0  0  0  0  0  0  0  0  0
   28.7600   34.3450   17.5130 H   0  0  0  0  0  0  0  0  0  0  0  0
   27.2100   35.7010   19.1820 C   0  0  0  0  0  0  0  0  0  0  0  0
   27.1070   37.1310   17.2460 O   0  0  0  0  0  0  0  0  0  0  0  0
   28.9150   37.9240   14.4560 O   0  0  0  0  0  0  0  0  0  0  0  0
   28.8700   38.6580   13.8260 H   0  0  0  0  0  0  0  0  0  0  0  0
   31.4900   38.2250   16.5410 O   0  0  0  0  0  0  0  0  0  0  0  0
   30.6620   37.9370   17.0410 H   0  0  0  0  0  0  0  0  0  0  0  0
   30.4890   40.1090   13.6560 N   0  0  0  0  0  0  0  0  0  0  0  0
   29.7540   41.2440   13.1710 C   0  0  0  0  0  0  0  0  0  0  0  0
   30.9020   39.5010   12.9110 H   0  0  0  0  0  0  0  0  0  0  0  0
   29.2400   42.0070   14.0260 O   0  0  0  0  0  0  0  0  0  0  0  0
   29.6030   41.5110   11.8320 O   0  0  0  0  0  0  0  0  0  0  0  0
   28.3520   41.2860   11.2220 C   0  0  0  0  0  0  0  0  0  0  0  0
   28.1080   39.8080   11.2410 C   0  0  0  0  0  0  0  0  0  0  0  0
   28.3520   38.9690   10.1710 C   0  0  0  0  0  0  0  0  0  0  0  0
   27.6370   39.0250   12.2070 N   0  0  0  0  0  0  0  0  0  0  0  0
   28.0220   37.7370   10.5310 N   0  0  0  0  0  0  0  0  0  0  0  0
   27.5890   37.7840   11.7730 N   0  0  0  0  0  0  0  0  0  0  0  0
   28.1380   36.5600    9.6660 C   0  0  2  0  0  0  0  0  0  0  0  0
   28.7520   35.4600   10.5220 C   0  0  0  0  0  0  0  0  0  0  0  0
   29.0100   36.8490    8.4840 C   0  0  0  0  0  0  0  0  0  0  0  0
   26.7670   36.1610    9.1810 C   0  0  0  0  0  0  0  0  0  0  0  0
   28.8770   34.1970    9.6930 C   0  0  1  0  0  0  0  0  0  0  0  0
   29.1760   35.5710    7.6940 C   0  0  1  0  0  0  0  0  0  0  0  0
   26.8890   34.8910    8.3660 C   0  0  2  0  0  0  0  0  0  0  0  0
   27.5070   33.8010    9.2240 C   0  0  0  0  0  0  0  0  0  0  0  0
   29.7980   34.4980    8.5370 C   0  0  0  0  0  0  0  0  0  0  0  0
   27.8060   35.1660    7.1990 C   0  0  0  0  0  0  0  0  0  0  0  0
   29.8670   25.5550   16.9770 C   0  0  0  0  0  0  0  0  0  0  0  0
   28.3450   25.7220   17.0260 C   0  0  0  0  0  0  0  0  0  0  0  0
   27.6010   24.4020   16.8940 C   0  0  0  0  0  0  0  0  0  0  0  0
   26.1510   24.5280   17.2720 C   0  0  0  0  0  0  0  0  0  0  0  0
   25.6320   23.1790   17.7570 C   0  0  0  0  0  0  0  0  0  0  0  0
   25.5240   23.1670   19.2350 N   0  0  0  0  0  0  0  0  0  0  0  0
  2  1  1  1  0  0  0
  2 25  1  0  0  0  0
  3 23  1  1  0  0  0
  3  2  1  0  0  0  0
  4  3  1  6  0  0  0
  5 10  1  6  0  0  0
  5  7  1  0  0  0  0
  5 12  1  0  0  0  0
  6  8  1  0  0  0  0
  6  5  1  0  0  0  0
  7  4  1  0  0  0  0
  8 16  1  6  0  0  0
  8  9  1  0  0  0  0
  9  4  1  0  0  0  0
  9 18  1  1  0  0  0
 10 11  1  0  0  0  0
 12 13  2  0  0  0  0
 14 15  1  0  0  0  0
 14 12  1  0  0  0  0
 16 17  1  0  0  0  0
 18 20  1  0  0  0  0
 18 19  1  0  0  0  0
 19 21  1  0  0  0  0
 22 19  2  0  0  0  0
 24 23  1  0  0  0  0
 25 26  1  0  0  0  0
 27  1  1  0  0  0  0
 28 27  1  0  0  0  0
 28 30  2  0  0  0  0
 29 27  1  0  0  0  0
 31 28  1  0  0  0  0
 32 33  1  0  0  0  0
 32 31  1  0  0  0  0
 33 35  1  0  0  0  0
 34 36  1  0  0  0  0
 34 33  2  0  0  0  0
 36 37  1  0  0  0  0
 37 35  2  0  0  0  0
 38 40  1  6  0  0  0
 38 39  1  0  0  0  0
 38 36  1  0  0  0  0
 41 38  1  0  0  0  0
 42 46  1  6  0  0  0
 42 39  1  0  0  0  0
 43 47  1  1  0  0  0
 43 40  1  0  0  0  0
 43 46  1  0  0  0  0
 44 47  1  6  0  0  0
 44 41  1  0  0  0  0
 44 45  1  0  0  0  0
 45 42  1  0  0  0  0
 48 49  1  0  0  0  0
 50 49  1  0  0  0  0
 50 51  1  0  0  0  0
 51 52  1  0  0  0  0
 52 53  1  0  0  0  0
M  END
>  <REMARK>
 VINA RESULT:    -4.787      5.347      8.977
 INTER + INTRA:         -14.839
 INTER:                  -9.894
 INTRA:                  -4.945
 UNBOUND:                -6.554
 SMILES CC(=O)N[C@@H]1[C@@H](O)C[C@](O)(C(=O)O)O[C@H]1C(O)[C@H](O)CNC(=O)OCc1cn(C23CC4CC(CC(C4)C2)C3)nn1
 SMILES IDX 20 1 18 2 16 3 15 4 9 5 8 6 14 7 6 8 5 9 10 10 11 12 12 13
 SMILES IDX 13 14 7 16 4 18 2 19 1 21 3 22 17 23 19 25 21 27 22 28 23 30
 SMILES IDX 24 31 25 32 26 33 27 34 40 35 28 36 39 37 29 38 38 39 37 40
 SMILES IDX 30 41 33 42 35 43 31 44 32 45 34 46 36 47
 H PARENT 10 11 13 15 7 17 4 20 17 24 19 26 21 29
 Flexibility Score: inf
  4 active torsions:
  status: ('A' for Active; 'I' for Inactive)
    1  A    between atoms: CA   and  CB  
    2  A    between atoms: CB   and  CG  
    3  A    between atoms: CG   and  CD  
    4  A    between atoms: CD   and  CE  

>  <TORSDO>
F 15

>  <BEGIN_>
RES LYS A 131

$$$$
ligand_51_pose_9_2HRL.pdbqt
 OpenBabel07062320523D

  6  5  0  0  0  0  0  0  0  0999 V2000
   33.1930   34.6630    9.2900 C   0  0  0  0  0  0  0  0  0  0  0  0
   32.0600   35.3600   10.0340 C   0  0  0  0  0  0  0  0  0  0  0  0
   32.5090   36.0760   11.2820 C   0  0  0  0  0  0  0  0  0  0  0  0
   31.8070   37.4190   11.4120 C   0  0  0  0  0  0  0  0  0  0  0  0
   31.9160   38.2050   10.1190 C   0  0  0  0  0  0  0  0  0  0  0  0
   31.8850   39.6710   10.3790 N   0  0  0  0  0  0  0  0  0  0  0  0
  1  2  1  0  0  0  0
  2  3  1  0  0  0  0
  3  4  1  0  0  0  0
  5  6  1  0  0  0  0
  5  4  1  0  0  0  0
M  END
>  <EGIN_R>
ES LYS A 135

>  <REMARK>
  4 active torsions:
  status: ('A' for Active; 'I' for Inactive)
    5  A    between atoms: CA   and  CB  
    6  A    between atoms: CB   and  CG  
    7  A    between atoms: CG   and  CD  
    8  A    between atoms: CD   and  CE  

$$$$
