ligand_21_pose_3_2HRL.pdbqt
 OpenBabel07062320523D

 54 55  0  0  1  0  0  0  0  0999 V2000
   29.0650   30.8830   15.7450 N   0  0  0  0  0  0  0  0  0  0  0  0
   27.9530   30.3060   16.4280 C   0  0  0  0  0  0  0  0  0  0  0  0
   28.0400   30.1410   17.6630 O   0  0  0  0  0  0  0  0  0  0  0  0
   28.9820   31.0140   14.7180 H   0  0  0  0  0  0  0  0  0  0  0  0
   30.2560   31.2610   16.4580 C   0  0  0  0  0  0  0  0  0  0  0  0
   30.9020   32.4360   15.7170 C   0  0  2  0  0  0  0  0  0  0  0  0
   29.8280   33.2170   15.0100 C   0  0  2  0  0  0  0  0  0  0  0  0
   30.4590   34.3740   14.2830 C   0  0  2  0  0  0  0  0  0  0  0  0
   32.2530   35.8470   14.4270 C   0  0  2  0  0  0  0  0  0  0  0  0
   31.3390   37.0150   14.7180 C   0  0  0  0  0  0  0  0  0  0  0  0
   31.6150   34.7170   14.9100 O   0  0  0  0  0  0  0  0  0  0  0  0
   30.0790   36.8320   13.9430 C   0  0  1  0  0  0  0  0  0  0  0  0
   29.4680   35.4660   14.0910 C   0  0  1  0  0  0  0  0  0  0  0  0
   33.3820   36.0400   15.2520 O   0  0  0  0  0  0  0  0  0  0  0  0
   33.9040   35.2120   15.3510 H   0  0  0  0  0  0  0  0  0  0  0  0
   32.6620   35.7520   13.0120 C   0  0  0  0  0  0  0  0  0  0  0  0
   32.3430   36.5850   12.1300 O   0  0  0  0  0  0  0  0  0  0  0  0
   33.4470   34.6880   12.6100 O   0  0  0  0  0  0  0  0  0  0  0  0
   34.3380   34.7920   12.1170 H   0  0  0  0  0  0  0  0  0  0  0  0
   29.1740   37.8210   14.3880 O   0  0  0  0  0  0  0  0  0  0  0  0
   28.9040   38.3760   13.5970 H   0  0  0  0  0  0  0  0  0  0  0  0
   28.6960   35.1870   12.8950 N   0  0  0  0  0  0  0  0  0  0  0  0
   27.2920   34.9320   12.9420 C   0  0  0  0  0  0  0  0  0  0  0  0
   29.1540   35.1660   11.9600 H   0  0  0  0  0  0  0  0  0  0  0  0
   26.5530   34.6520   11.6900 C   0  0  0  0  0  0  0  0  0  0  0  0
   26.6970   34.9470   14.0400 O   0  0  0  0  0  0  0  0  0  0  0  0
   28.8520   33.6810   15.9000 O   0  0  0  0  0  0  0  0  0  0  0  0
   28.8980   33.1430   16.7240 H   0  0  0  0  0  0  0  0  0  0  0  0
   31.8610   31.9120   14.8800 O   0  0  0  0  0  0  0  0  0  0  0  0
   31.5710   31.8150   13.9490 H   0  0  0  0  0  0  0  0  0  0  0  0
   26.8170   29.9480   15.7210 O   0  0  0  0  0  0  0  0  0  0  0  0
   25.7570   30.8510   15.5050 C   0  0  0  0  0  0  0  0  0  0  0  0
   24.6160   30.1170   14.9350 C   0  0  0  0  0  0  0  0  0  0  0  0
   24.2230   30.1020   13.5940 C   0  0  0  0  0  0  0  0  0  0  0  0
   23.7190   29.3190   15.5680 N   0  0  0  0  0  0  0  0  0  0  0  0
   23.1510   29.3240   13.5010 N   0  0  0  0  0  0  0  0  0  0  0  0
   22.8480   28.8510   14.6970 N   0  0  0  0  0  0  0  0  0  0  0  0
   22.4220   29.0270   12.2850 C   0  0  0  0  0  0  0  0  0  0  0  0
   21.2410   29.9540   12.2700 C   0  0  0  0  0  0  0  0  0  0  0  0
   20.0040   29.4320   11.9980 C   0  0  0  0  0  0  0  0  0  0  0  0
   21.4210   31.2900   12.5260 C   0  0  0  0  0  0  0  0  0  0  0  0
   18.8950   30.2390   11.9710 C   0  0  0  0  0  0  0  0  0  0  0  0
   20.2990   32.1250   12.5030 C   0  0  0  0  0  0  0  0  0  0  0  0
   19.0730   31.5820   12.2280 C   0  0  0  0  0  0  0  0  0  0  0  0
   19.8630   28.0760   11.7450 O   0  0  0  0  0  0  0  0  0  0  0  0
   19.1770   27.3130   12.6890 C   0  0  0  0  0  0  0  0  0  0  0  0
   19.6280   27.2240   13.8550 O   0  0  0  0  0  0  0  0  0  0  0  0
   17.9230   26.6090   12.3320 C   0  0  0  0  0  0  0  0  0  0  0  0
   29.8670   25.5550   16.9770 C   0  0  0  0  0  0  0  0  0  0  0  0
   28.3450   25.7220   17.0260 C   0  0  0  0  0  0  0  0  0  0  0  0
   27.6010   24.4030   16.8860 C   0  0  0  0  0  0  0  0  0  0  0  0
   26.6250   24.1810   18.0080 C   0  0  0  0  0  0  0  0  0  0  0  0
   25.2060   24.1440   17.4480 C   0  0  0  0  0  0  0  0  0  0  0  0
   24.6190   25.5040   17.4320 N   0  0  0  0  0  0  0  0  0  0  0  0
  1  2  1  0  0  0  0
  1  5  1  0  0  0  0
  2  3  2  0  0  0  0
  4  1  1  0  0  0  0
  6  5  1  6  0  0  0
  7  6  1  0  0  0  0
  7 27  1  1  0  0  0
  8 11  1  0  0  0  0
  8  7  1  1  0  0  0
  9 16  1  6  0  0  0
  9 10  1  0  0  0  0
  9 11  1  0  0  0  0
  9 14  1  0  0  0  0
 12 13  1  0  0  0  0
 12 20  1  1  0  0  0
 12 10  1  0  0  0  0
 13 22  1  6  0  0  0
 13  8  1  0  0  0  0
 14 15  1  0  0  0  0
 17 16  2  0  0  0  0
 18 16  1  0  0  0  0
 19 18  1  0  0  0  0
 21 20  1  0  0  0  0
 22 23  1  0  0  0  0
 23 26  2  0  0  0  0
 24 22  1  0  0  0  0
 25 23  1  0  0  0  0
 27 28  1  0  0  0  0
 29  6  1  0  0  0  0
 30 29  1  0  0  0  0
 31  2  1  0  0  0  0
 32 31  1  0  0  0  0
 33 32  1  0  0  0  0
 33 35  1  0  0  0  0
 34 33  2  0  0  0  0
 36 34  1  0  0  0  0
 36 37  1  0  0  0  0
 37 35  2  0  0  0  0
 38 36  1  0  0  0  0
 39 38  1  0  0  0  0
 39 41  2  0  0  0  0
 40 39  1  0  0  0  0
 42 40  2  0  0  0  0
 42 44  1  0  0  0  0
 43 41  1  0  0  0  0
 44 43  2  0  0  0  0
 45 40  1  0  0  0  0
 45 46  1  0  0  0  0
 46 47  2  0  0  0  0
 48 46  1  0  0  0  0
 49 50  1  0  0  0  0
 51 50  1  0  0  0  0
 51 52  1  0  0  0  0
 53 52  1  0  0  0  0
 54 53  1  0  0  0  0
M  END
>  <REMARK>
 VINA RESULT:    -4.794      5.771     10.891
 INTER + INTRA:         -15.414
 INTER:                 -10.367
 INTRA:                  -5.047
 UNBOUND:                -6.275
 SMILES CC(=O)N[C@@H]1[C@@H](O)C[C@](O)(C(=O)O)O[C@H]1C(O)[C@H](O)CNC(=O)OCc1cn(Cc2ccccc2OC(C)=O)nn1
 SMILES IDX 21 1 22 2 23 3 20 5 18 6 16 7 15 8 9 9 8 10 14 11 6 12 5 13
 SMILES IDX 10 14 11 16 12 17 13 18 7 20 4 22 2 23 1 25 3 26 17 27 19 29
 SMILES IDX 24 31 25 32 26 33 27 34 41 35 28 36 40 37 29 38 30 39 35 40
 SMILES IDX 31 41 34 42 32 43 33 44 36 45 37 46 39 47 38 48
 H PARENT 21 4 10 15 13 19 7 21 4 24 17 28 19 30
 Flexibility Score: inf
  4 active torsions:
  status: ('A' for Active; 'I' for Inactive)
    1  A    between atoms: CA   and  CB  
    2  A    between atoms: CB   and  CG  
    3  A    between atoms: CG   and  CD  
    4  A    between atoms: CD   and  CE  

>  <TORSDO>
F 18

>  <BEGIN_>
RES LYS A 131

$$$$
ligand_21_pose_3_2HRL.pdbqt
 OpenBabel07062320523D

  6  5  0  0  0  0  0  0  0  0999 V2000
   33.1930   34.6630    9.2900 C   0  0  0  0  0  0  0  0  0  0  0  0
   32.0600   35.3600   10.0340 C   0  0  0  0  0  0  0  0  0  0  0  0
   30.8610   35.6520    9.1690 C   0  0  0  0  0  0  0  0  0  0  0  0
   30.3560   34.3810    8.5040 C   0  0  0  0  0  0  0  0  0  0  0  0
   28.9520   34.0550    8.9760 C   0  0  0  0  0  0  0  0  0  0  0  0
   27.9320   34.7560    8.1480 N   0  0  0  0  0  0  0  0  0  0  0  0
  1  2  1  0  0  0  0
  3  2  1  0  0  0  0
  4  5  1  0  0  0  0
  4  3  1  0  0  0  0
  6  5  1  0  0  0  0
M  END
>  <EGIN_R>
ES LYS A 135

>  <REMARK>
  4 active torsions:
  status: ('A' for Active; 'I' for Inactive)
    5  A    between atoms: CA   and  CB  
    6  A    between atoms: CB   and  CG  
    7  A    between atoms: CG   and  CD  
    8  A    between atoms: CD   and  CE  

$$$$
