ligand_16_pose_17_2HRL.pdbqt
 OpenBabel07062320523D

 54 55  0  0  1  0  0  0  0  0999 V2000
   29.7690   34.7670   15.7720 N   0  0  0  0  0  0  0  0  0  0  0  0
   29.7780   35.0300   14.3920 C   0  0  0  0  0  0  0  0  0  0  0  0
   30.4270   34.3000   13.6260 O   0  0  0  0  0  0  0  0  0  0  0  0
   29.1910   35.4430   16.3600 H   0  0  0  0  0  0  0  0  0  0  0  0
   30.4750   33.6740   16.3870 C   0  0  0  0  0  0  0  0  0  0  0  0
   29.4900   32.7500   17.0530 C   0  0  2  0  0  0  0  0  0  0  0  0
   30.0590   31.4190   17.4270 C   0  0  1  0  0  0  0  0  0  0  0  0
   29.6180   31.0310   18.8510 C   0  0  2  0  0  0  0  0  0  0  0  0
   30.5580   30.2680   20.8200 C   0  0  2  0  0  0  0  0  0  0  0  0
   29.9490   28.8780   20.7030 C   0  0  0  0  0  0  0  0  0  0  0  0
   30.7700   30.7170   19.5390 O   0  0  0  0  0  0  0  0  0  0  0  0
   28.6830   28.9310   19.9110 C   0  0  1  0  0  0  0  0  0  0  0  0
   28.7520   29.8320   18.7090 C   0  0  1  0  0  0  0  0  0  0  0  0
   31.8390   30.0310   21.3960 O   0  0  0  0  0  0  0  0  0  0  0  0
   31.7450   30.1270   22.3950 H   0  0  0  0  0  0  0  0  0  0  0  0
   29.7730   31.1410   21.6970 C   0  0  0  0  0  0  0  0  0  0  0  0
   30.1500   32.3510   21.8600 O   0  0  0  0  0  0  0  0  0  0  0  0
   28.6320   30.7970   22.3940 O   0  0  0  0  0  0  0  0  0  0  0  0
   28.6660   29.9500   22.9440 H   0  0  0  0  0  0  0  0  0  0  0  0
   28.4530   27.6200   19.4270 O   0  0  0  0  0  0  0  0  0  0  0  0
   27.9610   27.1530   20.1450 H   0  0  0  0  0  0  0  0  0  0  0  0
   27.4080   30.1420   18.2660 N   0  0  0  0  0  0  0  0  0  0  0  0
   26.7860   29.4400   17.2030 C   0  0  0  0  0  0  0  0  0  0  0  0
   26.8540   30.8990   18.7210 H   0  0  0  0  0  0  0  0  0  0  0  0
   25.3870   29.7800   16.7580 C   0  0  0  0  0  0  0  0  0  0  0  0
   27.4190   28.5290   16.6370 O   0  0  0  0  0  0  0  0  0  0  0  0
   29.8130   30.4100   16.5290 O   0  0  0  0  0  0  0  0  0  0  0  0
   29.0700   30.6690   15.9240 H   0  0  0  0  0  0  0  0  0  0  0  0
   28.3290   32.5720   16.2890 O   0  0  0  0  0  0  0  0  0  0  0  0
   28.4800   32.9510   15.3770 H   0  0  0  0  0  0  0  0  0  0  0  0
   29.0860   36.0860   13.8120 O   0  0  0  0  0  0  0  0  0  0  0  0
   27.7700   36.4460   14.1550 C   0  0  0  0  0  0  0  0  0  0  0  0
   26.8090   35.6920   13.3230 C   0  0  0  0  0  0  0  0  0  0  0  0
   26.0980   36.2090   12.2400 C   0  0  0  0  0  0  0  0  0  0  0  0
   26.4080   34.4080   13.4070 N   0  0  0  0  0  0  0  0  0  0  0  0
   25.3220   35.2440   11.7320 N   0  0  0  0  0  0  0  0  0  0  0  0
   25.5260   34.1680   12.4530 N   0  0  0  0  0  0  0  0  0  0  0  0
   24.4050   35.3710   10.5890 C   0  0  0  0  0  0  0  0  0  0  0  0
   25.2830   35.6280    9.4030 C   0  0  0  0  0  0  0  0  0  0  0  0
   26.1900   34.6790    9.0220 C   0  0  0  0  0  0  0  0  0  0  0  0
   25.2050   36.7960    8.6870 C   0  0  0  0  0  0  0  0  0  0  0  0
   27.0280   34.8900    7.9220 C   0  0  0  0  0  0  0  0  0  0  0  0
   26.0370   37.0070    7.5930 C   0  0  0  0  0  0  0  0  0  0  0  0
   26.9580   36.0560    7.1990 C   0  0  0  0  0  0  0  0  0  0  0  0
   27.8230   36.2870    6.0500 C   0  0  0  0  0  0  0  0  0  0  0  0
   28.9400   35.7420    5.9180 O   0  0  0  0  0  0  0  0  0  0  0  0
   27.4010   37.1500    5.0450 O   0  0  0  0  0  0  0  0  0  0  0  0
   27.6840   38.1140    5.0290 H   0  0  0  0  0  0  0  0  0  0  0  0
   29.8670   25.5550   16.9770 C   0  0  0  0  0  0  0  0  0  0  0  0
   28.3450   25.7220   17.0260 C   0  0  0  0  0  0  0  0  0  0  0  0
   27.6000   24.4070   16.8550 C   0  0  0  0  0  0  0  0  0  0  0  0
   26.6940   24.1140   18.0180 C   0  0  0  0  0  0  0  0  0  0  0  0
   25.9310   25.3780   18.4000 C   0  0  0  0  0  0  0  0  0  0  0  0
   24.7380   25.5450   17.5360 N   0  0  0  0  0  0  0  0  0  0  0  0
  1  4  1  0  0  0  0
  1  5  1  0  0  0  0
  2  1  1  0  0  0  0
  3  2  2  0  0  0  0
  6  5  1  6  0  0  0
  6  7  1  0  0  0  0
  7 27  1  6  0  0  0
  8  7  1  6  0  0  0
  8 11  1  0  0  0  0
  9 14  1  1  0  0  0
  9 16  1  0  0  0  0
 10  9  1  0  0  0  0
 11  9  1  0  0  0  0
 12 20  1  6  0  0  0
 12 10  1  0  0  0  0
 13 22  1  1  0  0  0
 13  8  1  0  0  0  0
 13 12  1  0  0  0  0
 14 15  1  0  0  0  0
 16 17  2  0  0  0  0
 16 18  1  0  0  0  0
 18 19  1  0  0  0  0
 20 21  1  0  0  0  0
 22 24  1  0  0  0  0
 23 22  1  0  0  0  0
 25 23  1  0  0  0  0
 26 23  2  0  0  0  0
 28 27  1  0  0  0  0
 29  6  1  0  0  0  0
 30 29  1  0  0  0  0
 31 32  1  0  0  0  0
 31  2  1  0  0  0  0
 33 35  1  0  0  0  0
 33 32  1  0  0  0  0
 34 33  2  0  0  0  0
 36 34  1  0  0  0  0
 36 37  1  0  0  0  0
 37 35  2  0  0  0  0
 38 36  1  0  0  0  0
 39 38  1  0  0  0  0
 40 39  1  0  0  0  0
 41 39  2  0  0  0  0
 42 40  2  0  0  0  0
 43 41  1  0  0  0  0
 44 43  2  0  0  0  0
 44 42  1  0  0  0  0
 45 44  1  0  0  0  0
 46 45  2  0  0  0  0
 47 45  1  0  0  0  0
 48 47  1  0  0  0  0
 49 50  1  0  0  0  0
 51 50  1  0  0  0  0
 51 52  1  0  0  0  0
 52 53  1  0  0  0  0
 54 53  1  0  0  0  0
M  END
>  <REMARK>
 VINA RESULT:    -5.685      3.160      6.131
 INTER + INTRA:         -14.664
 INTER:                 -10.671
 INTRA:                  -3.993
 UNBOUND:                -3.993
 SMILES CC(=O)N[C@@H]1[C@@H](O)C[C@](O)(C(=O)O)O[C@H]1C(O)[C@H](O)CNC(=O)OCc1cn(Cc2ccc(C(=O)O)cc2)nn1
 SMILES IDX 21 1 22 2 23 3 20 5 18 6 16 7 15 8 9 9 8 10 14 11 6 12 5 13
 SMILES IDX 10 14 11 16 12 17 13 18 7 20 4 22 2 23 1 25 3 26 17 27 19 29
 SMILES IDX 24 31 25 32 26 33 27 34 40 35 28 36 39 37 29 38 30 39 31 40
 SMILES IDX 38 41 32 42 37 43 33 44 34 45 35 46 36 47
 H PARENT 21 4 10 15 13 19 7 21 4 24 17 28 19 30 36 48
 Flexibility Score: inf
  4 active torsions:
  status: ('A' for Active; 'I' for Inactive)
    1  A    between atoms: CA   and  CB  
    2  A    between atoms: CB   and  CG  
    3  A    between atoms: CG   and  CD  
    4  A    between atoms: CD   and  CE  

>  <TORSDO>
F 18

>  <BEGIN_>
RES LYS A 131

$$$$
ligand_16_pose_17_2HRL.pdbqt
 OpenBabel07062320523D

  6  5  0  0  0  0  0  0  0  0999 V2000
   33.1930   34.6630    9.2900 C   0  0  0  0  0  0  0  0  0  0  0  0
   32.0600   35.3600   10.0340 C   0  0  0  0  0  0  0  0  0  0  0  0
   30.7380   35.2960    9.3140 C   0  0  0  0  0  0  0  0  0  0  0  0
   30.2250   36.6950    9.0080 C   0  0  0  0  0  0  0  0  0  0  0  0
   29.1590   37.1020   10.0060 C   0  0  0  0  0  0  0  0  0  0  0  0
   29.7260   37.9740   11.0720 N   0  0  0  0  0  0  0  0  0  0  0  0
  1  2  1  0  0  0  0
  3  2  1  0  0  0  0
  4  3  1  0  0  0  0
  4  5  1  0  0  0  0
  5  6  1  0  0  0  0
M  END
>  <EGIN_R>
ES LYS A 135

>  <REMARK>
  4 active torsions:
  status: ('A' for Active; 'I' for Inactive)
    5  A    between atoms: CA   and  CB  
    6  A    between atoms: CB   and  CG  
    7  A    between atoms: CG   and  CD  
    8  A    between atoms: CD   and  CE  

$$$$
