ligand_87_pose_17_2HRL.pdbqt
 OpenBabel07062320523D

 52 54  0  0  1  0  0  0  0  0999 V2000
   26.1950   29.8540   21.5900 C   0  0  0  0  0  0  0  0  0  0  0  0
   27.6270   30.2330   21.8260 C   0  0  2  0  0  0  0  0  0  0  0  0
   28.2470   29.3540   22.9060 C   0  0  2  0  0  0  0  0  0  0  0  0
   29.7100   29.1240   22.5330 C   0  0  2  0  0  0  0  0  0  0  0  0
   31.0560   29.5030   20.6570 C   0  0  2  0  0  0  0  0  0  0  0  0
   31.4120   28.0590   20.4860 C   0  0  0  0  0  0  0  0  0  0  0  0
   29.9350   29.7570   21.3760 O   0  0  0  0  0  0  0  0  0  0  0  0
   30.6430   27.1140   21.3450 C   0  0  1  0  0  0  0  0  0  0  0  0
   30.1030   27.6760   22.6170 C   0  0  1  0  0  0  0  0  0  0  0  0
   30.8390   30.0440   19.3870 O   0  0  0  0  0  0  0  0  0  0  0  0
   30.0600   30.6520   19.3600 H   0  0  0  0  0  0  0  0  0  0  0  0
   32.1600   30.2870   21.2490 C   0  0  0  0  0  0  0  0  0  0  0  0
   33.2320   29.7200   21.5510 O   0  0  0  0  0  0  0  0  0  0  0  0
   32.0920   31.6530   21.5040 O   0  0  0  0  0  0  0  0  0  0  0  0
   31.8410   31.9920   22.4450 H   0  0  0  0  0  0  0  0  0  0  0  0
   29.6140   26.5820   20.5550 O   0  0  0  0  0  0  0  0  0  0  0  0
   28.7360   26.8620   20.9090 H   0  0  0  0  0  0  0  0  0  0  0  0
   30.8980   27.4050   23.7840 N   0  0  0  0  0  0  0  0  0  0  0  0
   30.3960   26.8100   24.9640 C   0  0  0  0  0  0  0  0  0  0  0  0
   31.9230   27.6570   23.7880 H   0  0  0  0  0  0  0  0  0  0  0  0
   31.1940   26.5250   26.1760 C   0  0  0  0  0  0  0  0  0  0  0  0
   29.1760   26.5170   24.9400 O   0  0  0  0  0  0  0  0  0  0  0  0
   27.5770   28.1510   23.0520 O   0  0  0  0  0  0  0  0  0  0  0  0
   27.7270   27.6180   22.2300 H   0  0  0  0  0  0  0  0  0  0  0  0
   27.7850   31.5370   22.2010 O   0  0  0  0  0  0  0  0  0  0  0  0
   27.2350   31.7310   23.0160 H   0  0  0  0  0  0  0  0  0  0  0  0
   25.9270   29.5020   20.2370 N   0  0  0  0  0  0  0  0  0  0  0  0
   26.3780   28.3350   19.5970 C   0  0  0  0  0  0  0  0  0  0  0  0
   25.3380   30.1670   19.6430 H   0  0  0  0  0  0  0  0  0  0  0  0
   27.0790   27.4810   20.1690 O   0  0  0  0  0  0  0  0  0  0  0  0
   26.0270   28.1120   18.2510 O   0  0  0  0  0  0  0  0  0  0  0  0
   27.0580   28.0550   17.2870 C   0  0  0  0  0  0  0  0  0  0  0  0
   27.2580   29.3650   16.6660 C   0  0  0  0  0  0  0  0  0  0  0  0
   28.4540   30.0730   16.6430 C   0  0  0  0  0  0  0  0  0  0  0  0
   26.3570   30.1070   16.0240 N   0  0  0  0  0  0  0  0  0  0  0  0
   28.2310   31.2190   15.9870 N   0  0  0  0  0  0  0  0  0  0  0  0
   26.9650   31.2100   15.6290 N   0  0  0  0  0  0  0  0  0  0  0  0
   29.1690   32.2770   15.7080 C   0  0  1  0  0  0  0  0  0  0  0  0
   28.8450   33.4690   16.6070 C   0  0  0  0  0  0  0  0  0  0  0  0
   30.5400   31.7660   16.0950 C   0  0  0  0  0  0  0  0  0  0  0  0
   29.9640   34.4680   16.4980 C   0  0  1  0  0  0  0  0  0  0  0  0
   31.5240   32.8880   16.1570 C   0  0  2  0  0  0  0  0  0  0  0  0
   31.1750   33.9210   17.0810 N   0  0  0  0  0  0  0  0  0  0  0  0
   30.3720   34.6380   15.0460 C   0  0  0  0  0  0  0  0  0  0  0  0
   31.4490   33.6230   14.8130 C   0  0  0  0  0  0  0  0  0  0  0  0
   30.9910   33.4640   18.4280 C   0  0  0  0  0  0  0  0  0  0  0  0
   29.8670   25.5550   16.9770 C   0  0  0  0  0  0  0  0  0  0  0  0
   28.3450   25.7220   17.0260 C   0  0  0  0  0  0  0  0  0  0  0  0
   27.6020   24.3990   16.9250 C   0  0  0  0  0  0  0  0  0  0  0  0
   26.1520   24.5330   17.3000 C   0  0  0  0  0  0  0  0  0  0  0  0
   25.9550   24.0810   18.7430 C   0  0  0  0  0  0  0  0  0  0  0  0
   24.9440   24.9270   19.4190 N   0  0  0  0  0  0  0  0  0  0  0  0
  2  1  1  1  0  0  0
  2 25  1  0  0  0  0
  2  3  1  0  0  0  0
  3 23  1  6  0  0  0
  4  9  1  0  0  0  0
  4  3  1  6  0  0  0
  5 10  1  6  0  0  0
  5 12  1  0  0  0  0
  5  7  1  0  0  0  0
  6  5  1  0  0  0  0
  6  8  1  0  0  0  0
  7  4  1  0  0  0  0
  8 16  1  6  0  0  0
  8  9  1  0  0  0  0
  9 18  1  1  0  0  0
 11 10  1  0  0  0  0
 12 14  1  0  0  0  0
 12 13  2  0  0  0  0
 14 15  1  0  0  0  0
 16 17  1  0  0  0  0
 18 20  1  0  0  0  0
 18 19  1  0  0  0  0
 19 21  1  0  0  0  0
 22 19  2  0  0  0  0
 24 23  1  0  0  0  0
 25 26  1  0  0  0  0
 27  1  1  0  0  0  0
 28 30  2  0  0  0  0
 28 27  1  0  0  0  0
 29 27  1  0  0  0  0
 31 28  1  0  0  0  0
 32 31  1  0  0  0  0
 33 32  1  0  0  0  0
 34 33  2  0  0  0  0
 35 33  1  0  0  0  0
 36 34  1  0  0  0  0
 37 36  1  0  0  0  0
 37 35  2  0  0  0  0
 38 36  1  1  0  0  0
 38 40  1  0  0  0  0
 38 39  1  0  0  0  0
 40 42  1  0  0  0  0
 41 44  1  6  0  0  0
 41 39  1  0  0  0  0
 41 43  1  0  0  0  0
 42 45  1  6  0  0  0
 42 43  1  0  0  0  0
 43 46  1  0  0  0  0
 45 44  1  0  0  0  0
 47 48  1  0  0  0  0
 49 48  1  0  0  0  0
 49 50  1  0  0  0  0
 50 51  1  0  0  0  0
 51 52  1  0  0  0  0
M  END
>  <REMARK>
 VINA RESULT:    -5.099      2.173      3.305
 INTER + INTRA:         -14.327
 INTER:                  -8.061
 INTRA:                  -6.267
 UNBOUND:                -5.502
 SMILES CC(=O)N[C@@H]1[C@@H](O)C[C@](O)(C(=O)O)O[C@H]1C(O)[C@H](O)CNC(=O)OCc1cn([C@@H]2C[C@H]3CC[C@@H](C2)N3C)nn1
 SMILES IDX 20 1 18 2 16 3 15 4 9 5 8 6 14 7 6 8 5 9 10 10 11 12 12 13
 SMILES IDX 13 14 7 16 4 18 2 19 1 21 3 22 17 23 19 25 21 27 22 28 23 30
 SMILES IDX 24 31 25 32 26 33 27 34 39 35 28 36 38 37 29 38 35 39 30 40
 SMILES IDX 34 41 31 42 36 43 33 44 32 45 37 46
 H PARENT 10 11 13 15 7 17 4 20 17 24 19 26 21 29
 Flexibility Score: inf
  4 active torsions:
  status: ('A' for Active; 'I' for Inactive)
    1  A    between atoms: CA   and  CB  
    2  A    between atoms: CB   and  CG  
    3  A    between atoms: CG   and  CD  
    4  A    between atoms: CD   and  CE  

>  <TORSDO>
F 15

>  <BEGIN_>
RES LYS A 131

$$$$
ligand_87_pose_17_2HRL.pdbqt
 OpenBabel07062320523D

  6  5  0  0  0  0  0  0  0  0999 V2000
   33.1930   34.6630    9.2900 C   0  0  0  0  0  0  0  0  0  0  0  0
   32.0600   35.3600   10.0340 C   0  0  0  0  0  0  0  0  0  0  0  0
   30.7810   35.4450    9.2410 C   0  0  0  0  0  0  0  0  0  0  0  0
   30.2240   34.0560    8.9710 C   0  0  0  0  0  0  0  0  0  0  0  0
   28.7090   34.0660    9.0460 C   0  0  0  0  0  0  0  0  0  0  0  0
   28.2420   34.2550   10.4470 N   0  0  0  0  0  0  0  0  0  0  0  0
  1  2  1  0  0  0  0
  3  2  1  0  0  0  0
  4  5  1  0  0  0  0
  4  3  1  0  0  0  0
  5  6  1  0  0  0  0
M  END
>  <EGIN_R>
ES LYS A 135

>  <REMARK>
  4 active torsions:
  status: ('A' for Active; 'I' for Inactive)
    5  A    between atoms: CA   and  CB  
    6  A    between atoms: CB   and  CG  
    7  A    between atoms: CG   and  CD  
    8  A    between atoms: CD   and  CE  

$$$$
