ligand_12_pose_18_2HRL.pdbqt
 OpenBabel07062320523D

 52 53  0  0  1  0  0  0  0  0999 V2000
   21.8220   35.0260   10.8000 N   0  0  0  0  0  0  0  0  0  0  0  0
   21.1210   34.1810   11.7100 C   0  0  0  0  0  0  0  0  0  0  0  0
   19.8700   33.9980   11.6070 O   0  0  0  0  0  0  0  0  0  0  0  0
   22.8400   35.1510   10.9150 H   0  0  0  0  0  0  0  0  0  0  0  0
   21.0440   35.6620    9.7560 C   0  0  0  0  0  0  0  0  0  0  0  0
   21.6740   35.4980    8.3990 C   0  0  2  0  0  0  0  0  0  0  0  0
   22.0890   36.8470    7.8540 C   0  0  2  0  0  0  0  0  0  0  0  0
   23.4610   37.2480    8.2840 C   0  0  2  0  0  0  0  0  0  0  0  0
   25.5030   36.3110    8.9010 C   0  0  2  0  0  0  0  0  0  0  0  0
   25.7610   37.6460    9.5840 C   0  0  0  0  0  0  0  0  0  0  0  0
   24.1570   36.0940    8.6280 O   0  0  0  0  0  0  0  0  0  0  0  0
   24.5360   37.9530   10.4170 C   0  0  1  0  0  0  0  0  0  0  0  0
   23.4240   38.2440    9.4230 C   0  0  1  0  0  0  0  0  0  0  0  0
   25.8690   35.3390    9.8310 O   0  0  0  0  0  0  0  0  0  0  0  0
   25.6030   34.4300    9.5430 H   0  0  0  0  0  0  0  0  0  0  0  0
   26.3500   36.1670    7.7100 C   0  0  0  0  0  0  0  0  0  0  0  0
   27.1320   35.1880    7.6230 O   0  0  0  0  0  0  0  0  0  0  0  0
   26.3430   37.0650    6.6500 O   0  0  0  0  0  0  0  0  0  0  0  0
   26.2360   38.0520    6.8660 H   0  0  0  0  0  0  0  0  0  0  0  0
   24.1910   36.8810   11.2350 O   0  0  0  0  0  0  0  0  0  0  0  0
   24.2030   36.0420   10.6790 H   0  0  0  0  0  0  0  0  0  0  0  0
   23.6640   39.5710    8.8990 N   0  0  0  0  0  0  0  0  0  0  0  0
   22.6760   40.5820    9.0380 C   0  0  0  0  0  0  0  0  0  0  0  0
   24.5500   39.8470    8.4070 H   0  0  0  0  0  0  0  0  0  0  0  0
   22.8720   41.9640    8.5190 C   0  0  0  0  0  0  0  0  0  0  0  0
   21.5860   40.3380    9.6150 O   0  0  0  0  0  0  0  0  0  0  0  0
   21.1070   37.7730    8.1100 O   0  0  0  0  0  0  0  0  0  0  0  0
   20.4400   37.3430    8.7170 H   0  0  0  0  0  0  0  0  0  0  0  0
   20.7710   34.8620    7.5570 O   0  0  0  0  0  0  0  0  0  0  0  0
   20.9430   35.1280    6.6150 H   0  0  0  0  0  0  0  0  0  0  0  0
   21.7610   33.5200   12.7490 O   0  0  0  0  0  0  0  0  0  0  0  0
   22.4230   34.1770   13.8110 C   0  0  0  0  0  0  0  0  0  0  0  0
   23.8600   34.4010   13.5400 C   0  0  0  0  0  0  0  0  0  0  0  0
   24.8490   34.9560   14.3240 C   0  0  0  0  0  0  0  0  0  0  0  0
   24.4740   34.0700   12.3910 N   0  0  0  0  0  0  0  0  0  0  0  0
   26.0200   34.9490   13.6400 N   0  0  0  0  0  0  0  0  0  0  0  0
   25.7440   34.4010   12.4720 N   0  0  0  0  0  0  0  0  0  0  0  0
   27.3260   35.4460   14.1000 C   0  0  0  0  0  0  0  0  0  0  0  0
   28.2200   34.3820   14.1790 O   0  0  0  0  0  0  0  0  0  0  0  0
   29.1870   34.4290   13.2030 C   0  0  0  0  0  0  0  0  0  0  0  0
   30.5700   34.5180   13.7130 C   0  0  0  0  0  0  0  0  0  0  0  0
   30.9420   33.7770   14.8150 C   0  0  0  0  0  0  0  0  0  0  0  0
   31.5020   35.3230   13.1070 C   0  0  0  0  0  0  0  0  0  0  0  0
   32.2470   33.8400   15.3110 C   0  0  0  0  0  0  0  0  0  0  0  0
   32.7940   35.3820   13.6030 C   0  0  0  0  0  0  0  0  0  0  0  0
   33.1710   34.6560   14.6890 C   0  0  0  0  0  0  0  0  0  0  0  0
   29.8670   25.5550   16.9770 C   0  0  0  0  0  0  0  0  0  0  0  0
   28.3450   25.7220   17.0260 C   0  0  0  0  0  0  0  0  0  0  0  0
   27.5990   24.4780   16.5690 C   0  0  0  0  0  0  0  0  0  0  0  0
   27.0070   23.7170   17.7230 C   0  0  0  0  0  0  0  0  0  0  0  0
   26.2060   24.6700   18.6040 C   0  0  0  0  0  0  0  0  0  0  0  0
   25.4820   23.9200   19.6560 N   0  0  0  0  0  0  0  0  0  0  0  0
  1  4  1  0  0  0  0
  1  2  1  0  0  0  0
  2 31  1  0  0  0  0
  3  2  2  0  0  0  0
  5  1  1  0  0  0  0
  6  5  1  1  0  0  0
  7 27  1  1  0  0  0
  7  6  1  0  0  0  0
  8  7  1  1  0  0  0
  8 11  1  0  0  0  0
  8 13  1  0  0  0  0
  9 16  1  6  0  0  0
  9 10  1  0  0  0  0
  9 14  1  0  0  0  0
 10 12  1  0  0  0  0
 11  9  1  0  0  0  0
 12 20  1  6  0  0  0
 13 22  1  6  0  0  0
 13 12  1  0  0  0  0
 15 14  1  0  0  0  0
 17 16  2  0  0  0  0
 18 19  1  0  0  0  0
 18 16  1  0  0  0  0
 21 20  1  0  0  0  0
 22 23  1  0  0  0  0
 23 26  2  0  0  0  0
 24 22  1  0  0  0  0
 25 23  1  0  0  0  0
 27 28  1  0  0  0  0
 29  6  1  0  0  0  0
 30 29  1  0  0  0  0
 31 32  1  0  0  0  0
 33 32  1  0  0  0  0
 33 34  2  0  0  0  0
 35 37  2  0  0  0  0
 35 33  1  0  0  0  0
 36 38  1  0  0  0  0
 36 34  1  0  0  0  0
 37 36  1  0  0  0  0
 38 39  1  0  0  0  0
 40 41  1  0  0  0  0
 40 39  1  0  0  0  0
 41 42  2  0  0  0  0
 42 44  1  0  0  0  0
 43 45  2  0  0  0  0
 43 41  1  0  0  0  0
 45 46  1  0  0  0  0
 46 44  2  0  0  0  0
 47 48  1  0  0  0  0
 49 48  1  0  0  0  0
 49 50  1  0  0  0  0
 50 51  1  0  0  0  0
 51 52  1  0  0  0  0
M  END
>  <REMARK>
 VINA RESULT:    -5.769      2.575      5.418
 INTER + INTRA:         -14.771
 INTER:                  -9.049
 INTRA:                  -5.722
 UNBOUND:                -3.774
 SMILES CC(=O)N[C@@H]1[C@@H](O)C[C@](O)(C(=O)O)O[C@H]1C(O)[C@H](O)CNC(=O)OCc1cn(COCc2ccccc2)nn1
 SMILES IDX 21 1 22 2 23 3 20 5 18 6 16 7 15 8 9 9 8 10 14 11 6 12 5 13
 SMILES IDX 10 14 11 16 12 17 13 18 7 20 4 22 2 23 1 25 3 26 17 27 19 29
 SMILES IDX 24 31 25 32 26 33 27 34 39 35 28 36 38 37 29 38 30 39 31 40
 SMILES IDX 32 41 33 42 37 43 34 44 36 45 35 46
 H PARENT 21 4 10 15 13 19 7 21 4 24 17 28 19 30
 Flexibility Score: inf
  4 active torsions:
  status: ('A' for Active; 'I' for Inactive)
    1  A    between atoms: CA   and  CB  
    2  A    between atoms: CB   and  CG  
    3  A    between atoms: CG   and  CD  
    4  A    between atoms: CD   and  CE  

>  <TORSDO>
F 18

>  <BEGIN_>
RES LYS A 131

$$$$
ligand_12_pose_18_2HRL.pdbqt
 OpenBabel07062320523D

  6  5  0  0  0  0  0  0  0  0999 V2000
   33.1930   34.6630    9.2900 C   0  0  0  0  0  0  0  0  0  0  0  0
   32.0600   35.3600   10.0340 C   0  0  0  0  0  0  0  0  0  0  0  0
   30.6970   35.0800    9.4550 C   0  0  0  0  0  0  0  0  0  0  0  0
   29.6820   36.0960    9.9560 C   0  0  0  0  0  0  0  0  0  0  0  0
   29.9880   37.4730    9.4000 C   0  0  0  0  0  0  0  0  0  0  0  0
   29.6730   37.5460    7.9460 N   0  0  0  0  0  0  0  0  0  0  0  0
  1  2  1  0  0  0  0
  3  4  1  0  0  0  0
  3  2  1  0  0  0  0
  5  4  1  0  0  0  0
  6  5  1  0  0  0  0
M  END
>  <EGIN_R>
ES LYS A 135

>  <REMARK>
  4 active torsions:
  status: ('A' for Active; 'I' for Inactive)
    5  A    between atoms: CA   and  CB  
    6  A    between atoms: CB   and  CG  
    7  A    between atoms: CG   and  CD  
    8  A    between atoms: CD   and  CE  

$$$$
