ligand_9_pose_7_2HRL.pdbqt
 OpenBabel07062320523D

 54 55  0  0  1  0  0  0  0  0999 V2000
   23.6560   32.3540   14.2520 N   0  0  0  0  0  0  0  0  0  0  0  0
   23.3280   30.9720   14.1950 C   0  0  0  0  0  0  0  0  0  0  0  0
   22.1880   30.6440   13.7830 O   0  0  0  0  0  0  0  0  0  0  0  0
   24.6050   32.6020   14.5960 H   0  0  0  0  0  0  0  0  0  0  0  0
   22.7080   33.3740   13.8520 C   0  0  0  0  0  0  0  0  0  0  0  0
   22.8620   33.7830   12.4250 C   0  0  2  0  0  0  0  0  0  0  0  0
   23.3210   35.1940   12.2500 C   0  0  1  0  0  0  0  0  0  0  0  0
   24.2570   35.3090   11.0190 C   0  0  2  0  0  0  0  0  0  0  0  0
   26.3500   35.9220   10.4160 C   0  0  2  0  0  0  0  0  0  0  0  0
   25.8780   37.0610    9.5420 C   0  0  0  0  0  0  0  0  0  0  0  0
   25.4790   35.7570   11.4470 O   0  0  0  0  0  0  0  0  0  0  0  0
   24.4900   36.8480    9.0160 C   0  0  1  0  0  0  0  0  0  0  0  0
   23.5890   36.1130    9.9660 C   0  0  1  0  0  0  0  0  0  0  0  0
   27.5690   36.3850   10.9880 O   0  0  0  0  0  0  0  0  0  0  0  0
   27.4320   37.1530   11.5700 H   0  0  0  0  0  0  0  0  0  0  0  0
   26.6590   34.7320    9.6110 C   0  0  0  0  0  0  0  0  0  0  0  0
   26.2710   34.5840    8.4040 O   0  0  0  0  0  0  0  0  0  0  0  0
   27.4210   33.7070   10.2060 O   0  0  0  0  0  0  0  0  0  0  0  0
   27.0270   32.7590   10.1830 H   0  0  0  0  0  0  0  0  0  0  0  0
   23.9560   38.0830    8.6530 O   0  0  0  0  0  0  0  0  0  0  0  0
   24.3020   38.8260    9.2070 H   0  0  0  0  0  0  0  0  0  0  0  0
   22.6280   35.2860    9.2590 N   0  0  0  0  0  0  0  0  0  0  0  0
   21.4130   35.8140    8.7500 C   0  0  0  0  0  0  0  0  0  0  0  0
   22.8600   34.2570    9.1280 H   0  0  0  0  0  0  0  0  0  0  0  0
   20.4780   34.9040    8.0380 C   0  0  0  0  0  0  0  0  0  0  0  0
   21.1170   37.0490    8.8940 O   0  0  0  0  0  0  0  0  0  0  0  0
   22.3200   36.1210   12.1000 O   0  0  0  0  0  0  0  0  0  0  0  0
   22.4730   36.9790   12.5330 H   0  0  0  0  0  0  0  0  0  0  0  0
   21.7170   33.4800   11.6930 O   0  0  0  0  0  0  0  0  0  0  0  0
   21.3930   34.3310   11.2910 H   0  0  0  0  0  0  0  0  0  0  0  0
   24.1960   29.9600   14.5660 O   0  0  0  0  0  0  0  0  0  0  0  0
   24.6190   29.7880   15.9060 C   0  0  0  0  0  0  0  0  0  0  0  0
   26.0640   30.0560   16.0330 C   0  0  0  0  0  0  0  0  0  0  0  0
   26.7910   31.1340   15.5570 C   0  0  0  0  0  0  0  0  0  0  0  0
   26.9780   29.2790   16.6530 N   0  0  0  0  0  0  0  0  0  0  0  0
   28.0880   30.9800   15.8960 N   0  0  0  0  0  0  0  0  0  0  0  0
   28.1590   29.8280   16.5680 N   0  0  0  0  0  0  0  0  0  0  0  0
   29.1850   31.8260   15.6230 C   0  0  0  0  0  0  0  0  0  0  0  0
   29.0950   32.8510   14.7000 C   0  0  0  0  0  0  0  0  0  0  0  0
   30.3900   31.6630   16.2690 C   0  0  0  0  0  0  0  0  0  0  0  0
   30.1430   33.7010   14.4040 C   0  0  0  0  0  0  0  0  0  0  0  0
   31.4640   32.5040   15.9940 C   0  0  0  0  0  0  0  0  0  0  0  0
   31.3320   33.5090   15.0690 C   0  0  0  0  0  0  0  0  0  0  0  0
   30.0190   34.7740   13.4250 C   0  0  0  0  0  0  0  0  0  0  0  0
   29.2630   34.6200   12.4340 O   0  0  0  0  0  0  0  0  0  0  0  0
   30.7040   35.9720   13.5410 O   0  0  0  0  0  0  0  0  0  0  0  0
   31.9540   36.2000   12.9200 C   0  0  0  0  0  0  0  0  0  0  0  0
   31.8720   37.4710   12.1260 C   0  0  0  0  0  0  0  0  0  0  0  0
   29.8670   25.5550   16.9770 C   0  0  0  0  0  0  0  0  0  0  0  0
   28.3450   25.7220   17.0260 C   0  0  0  0  0  0  0  0  0  0  0  0
   27.5990   24.4720   16.5850 C   0  0  0  0  0  0  0  0  0  0  0  0
   27.1570   23.6340   17.7520 C   0  0  0  0  0  0  0  0  0  0  0  0
   25.6860   23.2690   17.5890 C   0  0  0  0  0  0  0  0  0  0  0  0
   24.9450   24.3760   16.9400 N   0  0  0  0  0  0  0  0  0  0  0  0
  1  4  1  0  0  0  0
  2  1  1  0  0  0  0
  2 31  1  0  0  0  0
  3  2  2  0  0  0  0
  5  1  1  0  0  0  0
  6  5  1  1  0  0  0
  7 27  1  6  0  0  0
  7  6  1  0  0  0  0
  8 11  1  0  0  0  0
  8  7  1  1  0  0  0
  9 16  1  6  0  0  0
  9 14  1  0  0  0  0
  9 11  1  0  0  0  0
 10  9  1  0  0  0  0
 12 20  1  1  0  0  0
 12 10  1  0  0  0  0
 12 13  1  0  0  0  0
 13 22  1  6  0  0  0
 13  8  1  0  0  0  0
 14 15  1  0  0  0  0
 16 18  1  0  0  0  0
 17 16  2  0  0  0  0
 19 18  1  0  0  0  0
 20 21  1  0  0  0  0
 23 26  2  0  0  0  0
 23 22  1  0  0  0  0
 24 22  1  0  0  0  0
 25 23  1  0  0  0  0
 27 28  1  0  0  0  0
 29  6  1  0  0  0  0
 30 29  1  0  0  0  0
 31 32  1  0  0  0  0
 32 33  1  0  0  0  0
 33 35  1  0  0  0  0
 34 36  1  0  0  0  0
 34 33  2  0  0  0  0
 36 37  1  0  0  0  0
 37 35  2  0  0  0  0
 38 36  1  0  0  0  0
 38 40  2  0  0  0  0
 39 38  1  0  0  0  0
 41 39  2  0  0  0  0
 41 43  1  0  0  0  0
 42 40  1  0  0  0  0
 43 42  2  0  0  0  0
 44 46  1  0  0  0  0
 44 41  1  0  0  0  0
 45 44  2  0  0  0  0
 47 46  1  0  0  0  0
 48 47  1  0  0  0  0
 49 50  1  0  0  0  0
 51 50  1  0  0  0  0
 51 52  1  0  0  0  0
 53 52  1  0  0  0  0
 54 53  1  0  0  0  0
M  END
>  <REMARK>
 VINA RESULT:    -5.023      4.622      8.859
 INTER + INTRA:         -15.247
 INTER:                  -9.958
 INTRA:                  -5.289
 UNBOUND:                -5.671
 SMILES CCOC(=O)c1cccc(-n2cc(COC(=O)NC[C@@H](O)C(O)[C@@H]3O[C@@](O)(C(=O)O)C[C@H](O)[C@H]3NC(C)=O)nn2)c1
 SMILES IDX 18 1 16 2 17 3 19 5 20 6 22 7 24 8 26 9 31 10 25 11 32 12
 SMILES IDX 34 13 27 14 28 16 29 17 30 18 33 20 35 22 36 23 37 25 38 26
 SMILES IDX 23 27 21 29 15 31 14 32 13 33 12 34 39 35 11 36 40 37 10 38
 SMILES IDX 41 39 9 40 6 41 8 42 7 43 4 44 5 45 3 46 2 47 1 48
 H PARENT 18 4 27 15 30 19 33 21 35 24 23 28 21 30
 Flexibility Score: inf
  4 active torsions:
  status: ('A' for Active; 'I' for Inactive)
    1  A    between atoms: CA   and  CB  
    2  A    between atoms: CB   and  CG  
    3  A    between atoms: CG   and  CD  
    4  A    between atoms: CD   and  CE  

>  <TORSDO>
F 18

>  <BEGIN_>
RES LYS A 131

$$$$
ligand_9_pose_7_2HRL.pdbqt
 OpenBabel07062320523D

  6  5  0  0  0  0  0  0  0  0999 V2000
   33.1930   34.6630    9.2900 C   0  0  0  0  0  0  0  0  0  0  0  0
   32.0600   35.3600   10.0340 C   0  0  0  0  0  0  0  0  0  0  0  0
   30.7300   35.2670    9.3310 C   0  0  0  0  0  0  0  0  0  0  0  0
   30.2310   36.6500    8.9410 C   0  0  0  0  0  0  0  0  0  0  0  0
   29.2880   36.5610    7.7570 C   0  0  0  0  0  0  0  0  0  0  0  0
   29.2750   35.1870    7.1820 N   0  0  0  0  0  0  0  0  0  0  0  0
  1  2  1  0  0  0  0
  3  2  1  0  0  0  0
  4  3  1  0  0  0  0
  5  4  1  0  0  0  0
  6  5  1  0  0  0  0
M  END
>  <EGIN_R>
ES LYS A 135

>  <REMARK>
  4 active torsions:
  status: ('A' for Active; 'I' for Inactive)
    5  A    between atoms: CA   and  CB  
    6  A    between atoms: CB   and  CG  
    7  A    between atoms: CG   and  CD  
    8  A    between atoms: CD   and  CE  

$$$$
