ligand_77_pose_6_2HRL.pdbqt
 OpenBabel07062320523D

 61 63  0  0  1  0  0  0  0  0999 V2000
   33.4080   28.4130   22.2280 N   0  0  0  0  0  0  0  0  0  0  0  0
   34.3790   28.4740   23.2560 C   0  0  0  0  0  0  0  0  0  0  0  0
   34.2930   27.7260   24.2350 O   0  0  0  0  0  0  0  0  0  0  0  0
   33.5650   29.0930   21.4210 H   0  0  0  0  0  0  0  0  0  0  0  0
   32.2700   27.5240   22.2080 C   0  0  0  0  0  0  0  0  0  0  0  0
   31.3990   27.8640   21.0480 C   0  0  2  0  0  0  0  0  0  0  0  0
   29.9230   27.7940   21.3770 C   0  0  1  0  0  0  0  0  0  0  0  0
   29.1220   28.9540   20.8900 C   0  0  2  0  0  0  0  0  0  0  0  0
   28.8700   30.1790   18.9400 C   0  0  2  0  0  0  0  0  0  0  0  0
   28.1130   31.2140   19.7120 C   0  0  0  0  0  0  0  0  0  0  0  0
   28.8660   28.9310   19.5380 O   0  0  0  0  0  0  0  0  0  0  0  0
   28.4190   31.2500   21.1670 C   0  0  1  0  0  0  0  0  0  0  0  0
   29.5900   30.2860   21.4210 C   0  0  1  0  0  0  0  0  0  0  0  0
   30.1840   30.6100   18.6490 O   0  0  0  0  0  0  0  0  0  0  0  0
   30.7140   29.8350   18.3970 H   0  0  0  0  0  0  0  0  0  0  0  0
   28.1980   30.0280   17.6150 C   0  0  0  0  0  0  0  0  0  0  0  0
   26.9430   29.8370   17.5910 O   0  0  0  0  0  0  0  0  0  0  0  0
   28.8520   30.0830   16.4110 O   0  0  0  0  0  0  0  0  0  0  0  0
   29.4660   29.3250   16.1210 H   0  0  0  0  0  0  0  0  0  0  0  0
   28.7150   32.5160   21.6460 O   0  0  0  0  0  0  0  0  0  0  0  0
   27.8600   33.0460   21.7280 H   0  0  0  0  0  0  0  0  0  0  0  0
   29.7630   30.1500   22.8620 N   0  0  0  0  0  0  0  0  0  0  0  0
   30.9680   30.5730   23.4760 C   0  0  0  0  0  0  0  0  0  0  0  0
   29.0240   29.7460   23.4760 H   0  0  0  0  0  0  0  0  0  0  0  0
   31.1790   30.4440   24.9610 C   0  0  0  0  0  0  0  0  0  0  0  0
   31.9160   31.0710   22.8320 O   0  0  0  0  0  0  0  0  0  0  0  0
   29.4740   26.5800   20.8420 O   0  0  0  0  0  0  0  0  0  0  0  0
   30.1250   26.2900   20.1680 H   0  0  0  0  0  0  0  0  0  0  0  0
   31.7430   27.1200   19.9280 O   0  0  0  0  0  0  0  0  0  0  0  0
   31.8210   27.7340   19.1540 H   0  0  0  0  0  0  0  0  0  0  0  0
   35.4560   29.3550   23.2240 O   0  0  0  0  0  0  0  0  0  0  0  0
   35.2870   30.7400   22.9650 C   0  0  0  0  0  0  0  0  0  0  0  0
   36.4810   31.3270   22.2930 C   0  0  0  0  0  0  0  0  0  0  0  0
   36.4220   32.1480   21.2000 C   0  0  0  0  0  0  0  0  0  0  0  0
   37.7760   31.1760   22.6060 N   0  0  0  0  0  0  0  0  0  0  0  0
   37.6910   32.4830   20.8680 N   0  0  0  0  0  0  0  0  0  0  0  0
   38.4620   31.8820   21.7310 N   0  0  0  0  0  0  0  0  0  0  0  0
   38.0130   33.3290   19.7760 C   0  0  0  0  0  0  0  0  0  0  0  0
   38.7560   32.8470   18.7210 C   0  0  0  0  0  0  0  0  0  0  0  0
   37.6080   34.6450   19.7180 C   0  0  0  0  0  0  0  0  0  0  0  0
   39.0920   33.6380   17.6350 C   0  0  0  0  0  0  0  0  0  0  0  0
   37.9420   35.4530   18.6260 C   0  0  0  0  0  0  0  0  0  0  0  0
   38.6840   34.9490   17.5860 C   0  0  0  0  0  0  0  0  0  0  0  0
   39.1040   35.9360   16.2300 S   0  0  0  0  0  0  0  0  0  0  0  0
   40.5670   36.2210   16.2420 O   0  0  0  0  0  0  0  0  0  0  0  0
   38.3780   37.2490   16.2250 O   0  0  0  0  0  0  0  0  0  0  0  0
   38.6320   35.0690   14.7720 C   0  0  0  0  0  0  0  0  0  0  0  0
   39.5080   35.0210   13.7200 C   0  0  0  0  0  0  0  0  0  0  0  0
   37.3980   34.4360   14.6700 C   0  0  0  0  0  0  0  0  0  0  0  0
   39.1770   34.3480   12.5500 C   0  0  0  0  0  0  0  0  0  0  0  0
   37.0360   33.7560   13.5180 C   0  0  0  0  0  0  0  0  0  0  0  0
   37.9430   33.7320   12.4840 C   0  0  0  0  0  0  0  0  0  0  0  0
   37.5940   33.0440   11.3000 N   0  0  0  0  0  0  0  0  0  0  0  0
   36.6540   33.1570   10.8860 H   0  0  0  0  0  0  0  0  0  0  0  0
   38.2890   32.4230   10.8500 H   0  0  0  0  0  0  0  0  0  0  0  0
   29.8670   25.5550   16.9770 C   0  0  0  0  0  0  0  0  0  0  0  0
   28.3450   25.7220   17.0260 C   0  0  0  0  0  0  0  0  0  0  0  0
   27.5990   24.4190   16.7820 C   0  0  0  0  0  0  0  0  0  0  0  0
   26.8070   23.9860   17.9850 C   0  0  0  0  0  0  0  0  0  0  0  0
   25.5770   23.2080   17.5300 C   0  0  0  0  0  0  0  0  0  0  0  0
   24.3380   23.9230   17.9200 N   0  0  0  0  0  0  0  0  0  0  0  0
  1  2  1  0  0  0  0
  2  3  2  0  0  0  0
  4  1  1  0  0  0  0
  5  1  1  0  0  0  0
  6  7  1  0  0  0  0
  6  5  1  1  0  0  0
  7 27  1  6  0  0  0
  8  7  1  6  0  0  0
  8 13  1  0  0  0  0
  9 16  1  6  0  0  0
  9 11  1  0  0  0  0
  9 10  1  0  0  0  0
 10 12  1  0  0  0  0
 11  8  1  0  0  0  0
 12 13  1  0  0  0  0
 12 20  1  6  0  0  0
 13 22  1  1  0  0  0
 14  9  1  0  0  0  0
 15 14  1  0  0  0  0
 17 16  2  0  0  0  0
 18 16  1  0  0  0  0
 19 18  1  0  0  0  0
 20 21  1  0  0  0  0
 22 23  1  0  0  0  0
 22 24  1  0  0  0  0
 23 25  1  0  0  0  0
 26 23  2  0  0  0  0
 28 27  1  0  0  0  0
 29  6  1  0  0  0  0
 30 29  1  0  0  0  0
 31  2  1  0  0  0  0
 32 31  1  0  0  0  0
 33 35  1  0  0  0  0
 33 32  1  0  0  0  0
 34 33  2  0  0  0  0
 36 34  1  0  0  0  0
 36 37  1  0  0  0  0
 37 35  2  0  0  0  0
 38 36  1  0  0  0  0
 39 38  2  0  0  0  0
 40 38  1  0  0  0  0
 41 39  1  0  0  0  0
 42 40  2  0  0  0  0
 43 41  2  0  0  0  0
 43 42  1  0  0  0  0
 44 45  2  0  0  0  0
 44 43  1  0  0  0  0
 46 44  2  0  0  0  0
 47 44  1  0  0  0  0
 48 47  2  0  0  0  0
 49 47  1  0  0  0  0
 50 48  1  0  0  0  0
 51 49  2  0  0  0  0
 52 50  2  0  0  0  0
 52 51  1  0  0  0  0
 53 52  1  0  0  0  0
 54 53  1  0  0  0  0
 55 53  1  0  0  0  0
 56 57  1  0  0  0  0
 58 57  1  0  0  0  0
 58 59  1  0  0  0  0
 60 61  1  0  0  0  0
 60 59  1  0  0  0  0
M  END
>  <REMARK>
 VINA RESULT:    -5.293      3.673      6.830
 INTER + INTRA:         -16.462
 INTER:                 -11.485
 INTRA:                  -4.977
 UNBOUND:                -6.527
 SMILES CC(=O)N[C@@H]1[C@@H](O)C[C@](O)(C(=O)O)O[C@H]1C(O)[C@H](O)CNC(=O)OCc1cn(-c2ccc(S(=O)(=O)c3ccc(N)cc3)cc2)nn1
 SMILES IDX 21 1 22 2 23 3 20 5 18 6 16 7 15 8 9 9 8 10 14 11 6 12 5 13
 SMILES IDX 10 14 11 16 12 17 13 18 7 20 4 22 2 23 1 25 3 26 17 27 19 29
 SMILES IDX 24 31 25 32 26 33 27 34 46 35 28 36 45 37 29 38 30 39 44 40
 SMILES IDX 31 41 43 42 32 43 33 44 34 45 35 46 36 47 37 48 42 49 38 50
 SMILES IDX 41 51 39 52 40 53
 H PARENT 21 4 10 15 13 19 7 21 4 24 17 28 19 30 40 54 40 55
 Flexibility Score: inf
  4 active torsions:
  status: ('A' for Active; 'I' for Inactive)
    1  A    between atoms: CA   and  CB  
    2  A    between atoms: CB   and  CG  
    3  A    between atoms: CG   and  CD  
    4  A    between atoms: CD   and  CE  

>  <TORSDO>
F 18

>  <BEGIN_>
RES LYS A 131

$$$$
ligand_77_pose_6_2HRL.pdbqt
 OpenBabel07062320523D

  6  5  0  0  0  0  0  0  0  0999 V2000
   33.1930   34.6630    9.2900 C   0  0  0  0  0  0  0  0  0  0  0  0
   32.0600   35.3600   10.0340 C   0  0  0  0  0  0  0  0  0  0  0  0
   30.7110   34.7300    9.8040 C   0  0  0  0  0  0  0  0  0  0  0  0
   30.4930   34.4520    8.3240 C   0  0  0  0  0  0  0  0  0  0  0  0
   29.4060   35.3500    7.7680 C   0  0  0  0  0  0  0  0  0  0  0  0
   28.0550   34.7690    8.0060 N   0  0  0  0  0  0  0  0  0  0  0  0
  1  2  1  0  0  0  0
  3  2  1  0  0  0  0
  4  3  1  0  0  0  0
  5  6  1  0  0  0  0
  5  4  1  0  0  0  0
M  END
>  <EGIN_R>
ES LYS A 135

>  <REMARK>
  4 active torsions:
  status: ('A' for Active; 'I' for Inactive)
    5  A    between atoms: CA   and  CB  
    6  A    between atoms: CB   and  CG  
    7  A    between atoms: CG   and  CD  
    8  A    between atoms: CD   and  CE  

$$$$
