ligand_87_pose_15_2HRL.pdbqt
 OpenBabel07062320523D

 52 54  0  0  1  0  0  0  0  0999 V2000
   25.6230   27.5810   19.2690 C   0  0  0  0  0  0  0  0  0  0  0  0
   26.5170   27.8250   20.4490 C   0  0  2  0  0  0  0  0  0  0  0  0
   27.9730   27.9310   20.0100 C   0  0  2  0  0  0  0  0  0  0  0  0
   28.5610   29.1840   20.6570 C   0  0  2  0  0  0  0  0  0  0  0  0
   28.3420   31.4950   20.3710 C   0  0  2  0  0  0  0  0  0  0  0  0
   29.7910   31.7050   20.0650 C   0  0  0  0  0  0  0  0  0  0  0  0
   27.8740   30.2350   20.1970 O   0  0  0  0  0  0  0  0  0  0  0  0
   30.5810   30.4560   19.8670 C   0  0  1  0  0  0  0  0  0  0  0  0
   30.0600   29.2360   20.5490 C   0  0  1  0  0  0  0  0  0  0  0  0
   27.6000   32.3120   19.5130 O   0  0  0  0  0  0  0  0  0  0  0  0
   28.0730   33.1470   19.2800 H   0  0  0  0  0  0  0  0  0  0  0  0
   27.9900   31.9220   21.7420 C   0  0  0  0  0  0  0  0  0  0  0  0
   26.8110   32.2340   22.0120 O   0  0  0  0  0  0  0  0  0  0  0  0
   28.9050   32.0070   22.7870 O   0  0  0  0  0  0  0  0  0  0  0  0
   29.6500   32.7210   22.7660 H   0  0  0  0  0  0  0  0  0  0  0  0
   30.6890   30.2500   18.4840 O   0  0  0  0  0  0  0  0  0  0  0  0
   30.1980   30.9540   17.9970 H   0  0  0  0  0  0  0  0  0  0  0  0
   30.6960   28.9220   21.7990 N   0  0  0  0  0  0  0  0  0  0  0  0
   31.3910   27.7170   22.0540 C   0  0  0  0  0  0  0  0  0  0  0  0
   30.6570   29.6160   22.5930 H   0  0  0  0  0  0  0  0  0  0  0  0
   32.0510   27.3730   23.3310 C   0  0  0  0  0  0  0  0  0  0  0  0
   31.4270   26.9060   21.0970 O   0  0  0  0  0  0  0  0  0  0  0  0
   28.1030   27.9760   18.6320 O   0  0  0  0  0  0  0  0  0  0  0  0
   27.2330   28.2660   18.2540 H   0  0  0  0  0  0  0  0  0  0  0  0
   26.4340   26.8460   21.3990 O   0  0  0  0  0  0  0  0  0  0  0  0
   26.6630   25.9560   21.0000 H   0  0  0  0  0  0  0  0  0  0  0  0
   25.4180   28.7450   18.4770 N   0  0  0  0  0  0  0  0  0  0  0  0
   24.5900   28.8210   17.3430 C   0  0  0  0  0  0  0  0  0  0  0  0
   25.9260   29.6450   18.7490 H   0  0  0  0  0  0  0  0  0  0  0  0
   23.9490   27.8450   16.9110 O   0  0  0  0  0  0  0  0  0  0  0  0
   24.4740   30.0460   16.6590 O   0  0  0  0  0  0  0  0  0  0  0  0
   25.2650   30.2520   15.5070 C   0  0  0  0  0  0  0  0  0  0  0  0
   26.6530   30.5330   15.8750 C   0  0  0  0  0  0  0  0  0  0  0  0
   27.2400   31.7930   15.9070 C   0  0  0  0  0  0  0  0  0  0  0  0
   27.5910   29.6600   16.2390 N   0  0  0  0  0  0  0  0  0  0  0  0
   28.5130   31.6340   16.2890 N   0  0  0  0  0  0  0  0  0  0  0  0
   28.6940   30.3450   16.4810 N   0  0  0  0  0  0  0  0  0  0  0  0
   29.5180   32.6520   16.4680 C   0  0  1  0  0  0  0  0  0  0  0  0
   30.7150   32.3210   15.5770 C   0  0  0  0  0  0  0  0  0  0  0  0
   28.9220   33.9530   15.9750 C   0  0  0  0  0  0  0  0  0  0  0  0
   31.6480   33.5020   15.5720 C   0  0  1  0  0  0  0  0  0  0  0  0
   29.9830   34.9910   15.8090 C   0  0  2  0  0  0  0  0  0  0  0  0
   31.0220   34.6240   14.8980 N   0  0  0  0  0  0  0  0  0  0  0  0
   31.8130   34.0410   16.9810 C   0  0  0  0  0  0  0  0  0  0  0  0
   30.7400   35.0740   17.1400 C   0  0  0  0  0  0  0  0  0  0  0  0
   30.5580   34.2990   13.5810 C   0  0  0  0  0  0  0  0  0  0  0  0
   29.8670   25.5550   16.9770 C   0  0  0  0  0  0  0  0  0  0  0  0
   28.3450   25.7220   17.0260 C   0  0  0  0  0  0  0  0  0  0  0  0
   27.6010   24.4020   16.8890 C   0  0  0  0  0  0  0  0  0  0  0  0
   26.5430   24.2360   17.9440 C   0  0  0  0  0  0  0  0  0  0  0  0
   25.1640   24.3850   17.3090 C   0  0  0  0  0  0  0  0  0  0  0  0
   24.4790   23.0720   17.2430 N   0  0  0  0  0  0  0  0  0  0  0  0
  2  1  1  6  0  0  0
  2 25  1  0  0  0  0
  3 23  1  6  0  0  0
  3  2  1  0  0  0  0
  4  3  1  6  0  0  0
  5 10  1  6  0  0  0
  5 12  1  0  0  0  0
  6  5  1  0  0  0  0
  7  5  1  0  0  0  0
  7  4  1  0  0  0  0
  8 16  1  6  0  0  0
  8  6  1  0  0  0  0
  8  9  1  0  0  0  0
  9  4  1  0  0  0  0
  9 18  1  1  0  0  0
 11 10  1  0  0  0  0
 12 13  2  0  0  0  0
 12 14  1  0  0  0  0
 15 14  1  0  0  0  0
 17 16  1  0  0  0  0
 18 19  1  0  0  0  0
 18 20  1  0  0  0  0
 19 21  1  0  0  0  0
 22 19  2  0  0  0  0
 24 23  1  0  0  0  0
 26 25  1  0  0  0  0
 27 29  1  0  0  0  0
 27  1  1  0  0  0  0
 28 27  1  0  0  0  0
 30 28  2  0  0  0  0
 31 28  1  0  0  0  0
 32 33  1  0  0  0  0
 32 31  1  0  0  0  0
 33 34  2  0  0  0  0
 33 35  1  0  0  0  0
 34 36  1  0  0  0  0
 35 37  2  0  0  0  0
 36 38  1  0  0  0  0
 36 37  1  0  0  0  0
 38 39  1  6  0  0  0
 40 38  1  0  0  0  0
 41 39  1  1  0  0  0
 41 44  1  0  0  0  0
 42 40  1  1  0  0  0
 42 45  1  0  0  0  0
 43 41  1  0  0  0  0
 43 42  1  0  0  0  0
 44 45  1  0  0  0  0
 46 43  1  0  0  0  0
 47 48  1  0  0  0  0
 49 48  1  0  0  0  0
 49 50  1  0  0  0  0
 51 50  1  0  0  0  0
 52 51  1  0  0  0  0
M  END
>  <REMARK>
 VINA RESULT:    -5.149      1.565      2.322
 INTER + INTRA:         -14.415
 INTER:                  -7.583
 INTRA:                  -6.831
 UNBOUND:                -5.502
 SMILES CC(=O)N[C@@H]1[C@@H](O)C[C@](O)(C(=O)O)O[C@H]1C(O)[C@H](O)CNC(=O)OCc1cn([C@@H]2C[C@H]3CC[C@@H](C2)N3C)nn1
 SMILES IDX 20 1 18 2 16 3 15 4 9 5 8 6 14 7 6 8 5 9 10 10 11 12 12 13
 SMILES IDX 13 14 7 16 4 18 2 19 1 21 3 22 17 23 19 25 21 27 22 28 23 30
 SMILES IDX 24 31 25 32 26 33 27 34 39 35 28 36 38 37 29 38 35 39 30 40
 SMILES IDX 34 41 31 42 36 43 33 44 32 45 37 46
 H PARENT 10 11 13 15 7 17 4 20 17 24 19 26 21 29
 Flexibility Score: inf
  4 active torsions:
  status: ('A' for Active; 'I' for Inactive)
    1  A    between atoms: CA   and  CB  
    2  A    between atoms: CB   and  CG  
    3  A    between atoms: CG   and  CD  
    4  A    between atoms: CD   and  CE  

>  <TORSDO>
F 15

>  <BEGIN_>
RES LYS A 131

$$$$
ligand_87_pose_15_2HRL.pdbqt
 OpenBabel07062320523D

  6  5  0  0  0  0  0  0  0  0999 V2000
   33.1930   34.6630    9.2900 C   0  0  0  0  0  0  0  0  0  0  0  0
   32.0600   35.3600   10.0340 C   0  0  0  0  0  0  0  0  0  0  0  0
   30.7080   34.7430    9.7870 C   0  0  0  0  0  0  0  0  0  0  0  0
   30.4650   34.5590    8.2970 C   0  0  0  0  0  0  0  0  0  0  0  0
   29.0160   34.8450    7.9540 C   0  0  0  0  0  0  0  0  0  0  0  0
   28.9040   35.5620    6.6530 N   0  0  0  0  0  0  0  0  0  0  0  0
  1  2  1  0  0  0  0
  3  2  1  0  0  0  0
  4  3  1  0  0  0  0
  5  4  1  0  0  0  0
  6  5  1  0  0  0  0
M  END
>  <EGIN_R>
ES LYS A 135

>  <REMARK>
  4 active torsions:
  status: ('A' for Active; 'I' for Inactive)
    5  A    between atoms: CA   and  CB  
    6  A    between atoms: CB   and  CG  
    7  A    between atoms: CG   and  CD  
    8  A    between atoms: CD   and  CE  

$$$$
