ligand_32_pose_9_2HRL.pdbqt
 OpenBabel07062320523D

 49 49  0  0  1  0  0  0  0  0999 V2000
   30.1550   38.8980    9.5610 N   0  0  0  0  0  0  0  0  0  0  0  0
   31.3670   39.6100    9.3820 C   0  0  0  0  0  0  0  0  0  0  0  0
   31.7360   40.4980   10.2080 O   0  0  0  0  0  0  0  0  0  0  0  0
   29.8870   38.1770    8.8630 H   0  0  0  0  0  0  0  0  0  0  0  0
   29.2840   39.1490   10.6840 C   0  0  0  0  0  0  0  0  0  0  0  0
   28.1390   38.1800   10.7930 C   0  0  2  0  0  0  0  0  0  0  0  0
   27.1650   38.3510    9.6270 C   0  0  1  0  0  0  0  0  0  0  0  0
   27.3760   37.2420    8.6120 C   0  0  2  0  0  0  0  0  0  0  0  0
   29.1930   35.9420    7.9320 C   0  0  2  0  0  0  0  0  0  0  0  0
   28.4730   35.6080    6.6560 C   0  0  0  0  0  0  0  0  0  0  0  0
   28.3680   36.3790    8.9450 O   0  0  0  0  0  0  0  0  0  0  0  0
   27.3520   36.5200    6.3070 C   0  0  1  0  0  0  0  0  0  0  0  0
   27.4770   37.7630    7.2020 C   0  0  1  0  0  0  0  0  0  0  0  0
   30.2110   36.8430    7.6400 O   0  0  0  0  0  0  0  0  0  0  0  0
   30.1950   36.9570    6.6500 H   0  0  0  0  0  0  0  0  0  0  0  0
   29.8230   34.6870    8.4030 C   0  0  0  0  0  0  0  0  0  0  0  0
   29.2130   33.8010    9.0380 O   0  0  0  0  0  0  0  0  0  0  0  0
   31.1620   34.4650    8.1350 O   0  0  0  0  0  0  0  0  0  0  0  0
   31.8480   35.2050    8.0600 H   0  0  0  0  0  0  0  0  0  0  0  0
   27.3390   36.8870    4.9640 O   0  0  0  0  0  0  0  0  0  0  0  0
   26.8150   37.7200    4.8070 H   0  0  0  0  0  0  0  0  0  0  0  0
   26.4200   38.7080    6.9010 N   0  0  0  0  0  0  0  0  0  0  0  0
   26.6450   39.7740    5.9850 C   0  0  0  0  0  0  0  0  0  0  0  0
   25.4710   38.6450    7.3390 H   0  0  0  0  0  0  0  0  0  0  0  0
   25.5810   40.7770    5.6430 C   0  0  0  0  0  0  0  0  0  0  0  0
   27.7800   39.9030    5.4230 O   0  0  0  0  0  0  0  0  0  0  0  0
   25.8700   38.2640   10.1330 O   0  0  0  0  0  0  0  0  0  0  0  0
   25.2140   37.9650    9.4460 H   0  0  0  0  0  0  0  0  0  0  0  0
   27.4950   38.4400   12.0060 O   0  0  0  0  0  0  0  0  0  0  0  0
   27.7990   37.7760   12.6740 H   0  0  0  0  0  0  0  0  0  0  0  0
   32.1550   39.3290    8.2890 O   0  0  0  0  0  0  0  0  0  0  0  0
   33.3760   39.9940    8.0160 C   0  0  0  0  0  0  0  0  0  0  0  0
   33.7200   39.8640    6.5590 C   0  0  0  0  0  0  0  0  0  0  0  0
   34.9600   39.6440    6.0200 C   0  0  0  0  0  0  0  0  0  0  0  0
   32.8400   39.9570    5.5430 N   0  0  0  0  0  0  0  0  0  0  0  0
   34.8070   39.6060    4.6740 N   0  0  0  0  0  0  0  0  0  0  0  0
   33.5200   39.7970    4.4190 N   0  0  0  0  0  0  0  0  0  0  0  0
   35.8910   39.3870    3.7400 C   0  0  0  0  0  0  0  0  0  0  0  0
   36.1980   37.8920    3.7270 C   0  0  0  0  0  0  0  0  0  0  0  0
   37.6100   37.7430    4.1940 C   0  0  0  0  0  0  0  0  0  0  0  0
   38.2240   38.6380    4.7890 O   0  0  0  0  0  0  0  0  0  0  0  0
   38.2280   36.5210    3.9270 O   0  0  0  0  0  0  0  0  0  0  0  0
   37.8020   35.6580    4.2630 H   0  0  0  0  0  0  0  0  0  0  0  0
   29.8670   25.5550   16.9770 C   0  0  0  0  0  0  0  0  0  0  0  0
   28.3450   25.7220   17.0260 C   0  0  0  0  0  0  0  0  0  0  0  0
   27.6000   24.4070   16.8560 C   0  0  0  0  0  0  0  0  0  0  0  0
   26.1500   24.5230   17.2350 C   0  0  0  0  0  0  0  0  0  0  0  0
   25.6300   23.1610   17.6820 C   0  0  0  0  0  0  0  0  0  0  0  0
   25.5330   23.1020   19.1590 N   0  0  0  0  0  0  0  0  0  0  0  0
  1  5  1  0  0  0  0
  2  1  1  0  0  0  0
  2  3  2  0  0  0  0
  4  1  1  0  0  0  0
  6  5  1  6  0  0  0
  6 29  1  0  0  0  0
  7 27  1  1  0  0  0
  7  6  1  0  0  0  0
  8 11  1  0  0  0  0
  8  7  1  1  0  0  0
  9 14  1  6  0  0  0
  9 16  1  0  0  0  0
  9 11  1  0  0  0  0
 10  9  1  0  0  0  0
 12 20  1  6  0  0  0
 12 10  1  0  0  0  0
 12 13  1  0  0  0  0
 13 22  1  6  0  0  0
 13  8  1  0  0  0  0
 15 14  1  0  0  0  0
 16 17  2  0  0  0  0
 18 16  1  0  0  0  0
 19 18  1  0  0  0  0
 21 20  1  0  0  0  0
 22 24  1  0  0  0  0
 23 22  1  0  0  0  0
 25 23  1  0  0  0  0
 26 23  2  0  0  0  0
 28 27  1  0  0  0  0
 29 30  1  0  0  0  0
 31  2  1  0  0  0  0
 32 31  1  0  0  0  0
 33 32  1  0  0  0  0
 34 33  2  0  0  0  0
 35 33  1  0  0  0  0
 36 34  1  0  0  0  0
 37 36  1  0  0  0  0
 37 35  2  0  0  0  0
 38 36  1  0  0  0  0
 39 38  1  0  0  0  0
 39 40  1  0  0  0  0
 40 41  2  0  0  0  0
 42 40  1  0  0  0  0
 42 43  1  0  0  0  0
 44 45  1  0  0  0  0
 46 45  1  0  0  0  0
 46 47  1  0  0  0  0
 47 48  1  0  0  0  0
 48 49  1  0  0  0  0
M  END
>  <REMARK>
 VINA RESULT:    -4.374      8.407     14.279
 INTER + INTRA:         -13.854
 INTER:                 -10.037
 INTRA:                  -3.817
 UNBOUND:                -5.644
 SMILES CC(=O)N[C@@H]1[C@@H](O)C[C@](O)(C(=O)O)O[C@H]1C(O)[C@H](O)CNC(=O)OCc1cn(CCC(=O)O)nn1
 SMILES IDX 21 1 22 2 23 3 20 5 18 6 16 7 15 8 9 9 8 10 14 11 6 12 5 13
 SMILES IDX 10 14 11 16 12 17 13 18 7 20 4 22 2 23 1 25 3 26 17 27 19 29
 SMILES IDX 24 31 25 32 26 33 27 34 35 35 28 36 34 37 29 38 30 39 31 40
 SMILES IDX 32 41 33 42
 H PARENT 21 4 10 15 13 19 7 21 4 24 17 28 19 30 33 43
 Flexibility Score: inf
  4 active torsions:
  status: ('A' for Active; 'I' for Inactive)
    1  A    between atoms: CA   and  CB  
    2  A    between atoms: CB   and  CG  
    3  A    between atoms: CG   and  CD  
    4  A    between atoms: CD   and  CE  

>  <TORSDO>
F 18

>  <BEGIN_>
RES LYS A 131

$$$$
ligand_32_pose_9_2HRL.pdbqt
 OpenBabel07062320523D

  6  5  0  0  0  0  0  0  0  0999 V2000
   33.1930   34.6630    9.2900 C   0  0  0  0  0  0  0  0  0  0  0  0
   32.0600   35.3600   10.0340 C   0  0  0  0  0  0  0  0  0  0  0  0
   32.3380   35.5640   11.5010 C   0  0  0  0  0  0  0  0  0  0  0  0
   32.2450   37.0380   11.8650 C   0  0  0  0  0  0  0  0  0  0  0  0
   31.4970   37.2180   13.1720 C   0  0  0  0  0  0  0  0  0  0  0  0
   30.2680   36.3780   13.2060 N   0  0  0  0  0  0  0  0  0  0  0  0
  1  2  1  0  0  0  0
  2  3  1  0  0  0  0
  3  4  1  0  0  0  0
  4  5  1  0  0  0  0
  5  6  1  0  0  0  0
M  END
>  <EGIN_R>
ES LYS A 135

>  <REMARK>
  4 active torsions:
  status: ('A' for Active; 'I' for Inactive)
    5  A    between atoms: CA   and  CB  
    6  A    between atoms: CB   and  CG  
    7  A    between atoms: CG   and  CD  
    8  A    between atoms: CD   and  CE  

$$$$
