ligand_33_pose_9_2HRL.pdbqt
 OpenBabel07062320523D

 52 52  0  0  1  0  0  0  0  0999 V2000
   28.4400   40.8680    6.1430 C   0  0  0  0  0  0  0  0  0  0  0  0
   27.4070   40.3210    5.3320 O   0  0  0  0  0  0  0  0  0  0  0  0
   26.0840   40.6330    5.6670 C   0  0  0  0  0  0  0  0  0  0  0  0
   25.3350   39.6740    6.4060 N   0  0  0  0  0  0  0  0  0  0  0  0
   25.8170   38.7750    6.6700 H   0  0  0  0  0  0  0  0  0  0  0  0
   25.6250   41.7420    5.2980 O   0  0  0  0  0  0  0  0  0  0  0  0
   23.9820   39.9680    6.7560 C   0  0  0  0  0  0  0  0  0  0  0  0
   23.7210   40.0740    8.2390 C   0  0  2  0  0  0  0  0  0  0  0  0
   24.4280   38.9220    8.9260 C   0  0  2  0  0  0  0  0  0  0  0  0
   23.5770   38.1490    9.8790 C   0  0  2  0  0  0  0  0  0  0  0  0
   25.2080   36.5030   10.2210 C   0  0  2  0  0  0  0  0  0  0  0  0
   24.4190   35.6370    9.2260 C   0  0  0  0  0  0  0  0  0  0  0  0
   24.4010   37.4690   10.7510 O   0  0  0  0  0  0  0  0  0  0  0  0
   22.9740   35.7860    9.6350 C   0  0  1  0  0  0  0  0  0  0  0  0
   22.5670   37.2310    9.2910 C   0  0  1  0  0  0  0  0  0  0  0  0
   26.3770   36.9670    9.6230 O   0  0  0  0  0  0  0  0  0  0  0  0
   27.1900   36.4940    9.9900 H   0  0  0  0  0  0  0  0  0  0  0  0
   25.6020   35.5930   11.3270 C   0  0  0  0  0  0  0  0  0  0  0  0
   26.7180   35.7500   11.9070 O   0  0  0  0  0  0  0  0  0  0  0  0
   24.7330   34.5840   11.7030 O   0  0  0  0  0  0  0  0  0  0  0  0
   25.1400   33.6400   11.7620 H   0  0  0  0  0  0  0  0  0  0  0  0
   22.1450   34.8810    8.9730 O   0  0  0  0  0  0  0  0  0  0  0  0
   22.5420   33.9810    9.1100 H   0  0  0  0  0  0  0  0  0  0  0  0
   21.2280   37.4830    9.8050 N   0  0  0  0  0  0  0  0  0  0  0  0
   20.0670   37.3580    9.0170 C   0  0  0  0  0  0  0  0  0  0  0  0
   21.1280   37.7680   10.8210 H   0  0  0  0  0  0  0  0  0  0  0  0
   18.6940   37.6280    9.5790 C   0  0  0  0  0  0  0  0  0  0  0  0
   20.1950   37.0100    7.8030 O   0  0  0  0  0  0  0  0  0  0  0  0
   25.4070   39.5650    9.7380 O   0  0  0  0  0  0  0  0  0  0  0  0
   25.1890   39.3070   10.6640 H   0  0  0  0  0  0  0  0  0  0  0  0
   22.3580   40.0790    8.4370 O   0  0  0  0  0  0  0  0  0  0  0  0
   22.0370   39.2040    8.7680 H   0  0  0  0  0  0  0  0  0  0  0  0
   28.6550   39.9020    7.2450 C   0  0  0  0  0  0  0  0  0  0  0  0
   29.7120   39.0160    7.2910 C   0  0  0  0  0  0  0  0  0  0  0  0
   27.9190   39.7090    8.3390 N   0  0  0  0  0  0  0  0  0  0  0  0
   29.5500   38.3210    8.4380 N   0  0  0  0  0  0  0  0  0  0  0  0
   28.4720   38.7430    9.0610 N   0  0  0  0  0  0  0  0  0  0  0  0
   30.4890   37.2710    8.8400 C   0  0  0  0  0  0  0  0  0  0  0  0
   29.6810   36.0880    9.3050 C   0  0  0  0  0  0  0  0  0  0  0  0
   29.5920   34.9900    8.2670 C   0  0  0  0  0  0  0  0  0  0  0  0
   28.2970   34.9980    7.5310 C   0  0  0  0  0  0  0  0  0  0  0  0
   28.3610   35.6690    6.1860 C   0  0  0  0  0  0  0  0  0  0  0  0
   27.3560   36.7250    5.9980 C   0  0  0  0  0  0  0  0  0  0  0  0
   26.4730   36.9330    6.8460 O   0  0  0  0  0  0  0  0  0  0  0  0
   27.3700   37.5310    4.8460 O   0  0  0  0  0  0  0  0  0  0  0  0
   26.5630   38.1230    4.6230 H   0  0  0  0  0  0  0  0  0  0  0  0
   29.8670   25.5550   16.9770 C   0  0  0  0  0  0  0  0  0  0  0  0
   28.3450   25.7220   17.0260 C   0  0  0  0  0  0  0  0  0  0  0  0
   27.6010   24.4030   16.8860 C   0  0  0  0  0  0  0  0  0  0  0  0
   26.6340   24.1750   18.0140 C   0  0  0  0  0  0  0  0  0  0  0  0
   25.6200   23.1100   17.6090 C   0  0  0  0  0  0  0  0  0  0  0  0
   24.2400   23.5780   17.8790 N   0  0  0  0  0  0  0  0  0  0  0  0
  1 33  1  0  0  0  0
  2  3  1  0  0  0  0
  2  1  1  0  0  0  0
  3  4  1  0  0  0  0
  4  5  1  0  0  0  0
  4  7  1  0  0  0  0
  6  3  2  0  0  0  0
  8  7  1  6  0  0  0
  8 31  1  0  0  0  0
  8  9  1  0  0  0  0
  9 29  1  1  0  0  0
 10  9  1  6  0  0  0
 10 13  1  0  0  0  0
 11 16  1  6  0  0  0
 11 13  1  0  0  0  0
 11 18  1  0  0  0  0
 12 14  1  0  0  0  0
 12 11  1  0  0  0  0
 14 22  1  6  0  0  0
 15 14  1  0  0  0  0
 15 24  1  1  0  0  0
 15 10  1  0  0  0  0
 16 17  1  0  0  0  0
 18 20  1  0  0  0  0
 18 19  2  0  0  0  0
 20 21  1  0  0  0  0
 22 23  1  0  0  0  0
 24 26  1  0  0  0  0
 25 27  1  0  0  0  0
 25 24  1  0  0  0  0
 28 25  2  0  0  0  0
 29 30  1  0  0  0  0
 31 32  1  0  0  0  0
 33 34  2  0  0  0  0
 33 35  1  0  0  0  0
 34 36  1  0  0  0  0
 35 37  2  0  0  0  0
 36 38  1  0  0  0  0
 36 37  1  0  0  0  0
 38 39  1  0  0  0  0
 40 39  1  0  0  0  0
 41 40  1  0  0  0  0
 42 41  1  0  0  0  0
 43 42  1  0  0  0  0
 43 44  2  0  0  0  0
 45 43  1  0  0  0  0
 46 45  1  0  0  0  0
 47 48  1  0  0  0  0
 49 48  1  0  0  0  0
 49 50  1  0  0  0  0
 51 52  1  0  0  0  0
 51 50  1  0  0  0  0
M  END
>  <REMARK>
 VINA RESULT:    -4.386      2.295      4.475
 INTER + INTRA:         -14.919
 INTER:                  -8.927
 INTRA:                  -5.991
 UNBOUND:                -5.918
 SMILES CC(=O)N[C@@H]1[C@@H](O)C[C@](O)(C(=O)O)O[C@H]1C(O)[C@H](O)CNC(=O)OCc1cn(CCCCCC(=O)O)nn1
 SMILES IDX 25 1 24 2 22 3 21 4 23 6 20 7 18 8 16 9 15 10 9 11 8 12
 SMILES IDX 14 13 6 14 5 15 10 16 11 18 12 19 13 20 7 22 4 24 2 25 1 27
 SMILES IDX 3 28 17 29 19 31 26 33 27 34 38 35 28 36 37 37 29 38 30 39
 SMILES IDX 31 40 32 41 33 42 34 43 35 44 36 45
 H PARENT 21 5 10 17 13 21 7 23 4 26 17 30 19 32 36 46
 Flexibility Score: inf
  4 active torsions:
  status: ('A' for Active; 'I' for Inactive)
    1  A    between atoms: CA   and  CB  
    2  A    between atoms: CB   and  CG  
    3  A    between atoms: CG   and  CD  
    4  A    between atoms: CD   and  CE  

>  <TORSDO>
F 21

>  <BEGIN_>
RES LYS A 131

$$$$
ligand_33_pose_9_2HRL.pdbqt
 OpenBabel07062320523D

  6  5  0  0  0  0  0  0  0  0999 V2000
   33.1930   34.6630    9.2900 C   0  0  0  0  0  0  0  0  0  0  0  0
   32.0600   35.3600   10.0340 C   0  0  0  0  0  0  0  0  0  0  0  0
   32.1660   35.2500   11.5330 C   0  0  0  0  0  0  0  0  0  0  0  0
   32.2450   36.6300   12.1680 C   0  0  0  0  0  0  0  0  0  0  0  0
   32.2180   36.5230   13.6810 C   0  0  0  0  0  0  0  0  0  0  0  0
   31.3780   37.5970   14.2800 N   0  0  0  0  0  0  0  0  0  0  0  0
  1  2  1  0  0  0  0
  2  3  1  0  0  0  0
  3  4  1  0  0  0  0
  4  5  1  0  0  0  0
  5  6  1  0  0  0  0
M  END
>  <EGIN_R>
ES LYS A 135

>  <REMARK>
  4 active torsions:
  status: ('A' for Active; 'I' for Inactive)
    5  A    between atoms: CA   and  CB  
    6  A    between atoms: CB   and  CG  
    7  A    between atoms: CG   and  CD  
    8  A    between atoms: CD   and  CE  

$$$$
