ligand_5_pose_3_2HRL.pdbqt
 OpenBabel07062320523D

 51 52  0  0  1  0  0  0  0  0999 V2000
   29.4910   27.0050   20.2830 N   0  0  0  0  0  0  0  0  0  0  0  0
   28.2710   27.7090   20.1820 C   0  0  0  0  0  0  0  0  0  0  0  0
   27.8470   28.4360   21.0920 O   0  0  0  0  0  0  0  0  0  0  0  0
   29.7200   26.3950   19.4330 H   0  0  0  0  0  0  0  0  0  0  0  0
   30.4270   27.0030   21.3330 C   0  0  0  0  0  0  0  0  0  0  0  0
   31.8280   27.3230   21.0690 C   0  0  2  0  0  0  0  0  0  0  0  0
   32.3980   28.5570   21.5620 C   0  0  1  0  0  0  0  0  0  0  0  0
   31.4010   29.5940   22.1240 C   0  0  2  0  0  0  0  0  0  0  0  0
   31.2410   31.9040   21.6760 C   0  0  2  0  0  0  0  0  0  0  0  0
   31.9730   32.2350   22.9870 C   0  0  0  0  0  0  0  0  0  0  0  0
   31.6380   30.6840   21.3040 O   0  0  0  0  0  0  0  0  0  0  0  0
   31.4430   31.2940   23.9980 C   0  0  1  0  0  0  0  0  0  0  0  0
   31.4960   29.8180   23.5610 C   0  0  1  0  0  0  0  0  0  0  0  0
   31.8400   32.7980   20.7470 O   0  0  0  0  0  0  0  0  0  0  0  0
   31.7410   33.7350   21.0440 H   0  0  0  0  0  0  0  0  0  0  0  0
   29.8200   32.1890   21.7110 C   0  0  0  0  0  0  0  0  0  0  0  0
   29.4070   33.3080   22.1060 O   0  0  0  0  0  0  0  0  0  0  0  0
   28.8060   31.3090   21.3330 O   0  0  0  0  0  0  0  0  0  0  0  0
   27.8660   31.3520   21.7330 H   0  0  0  0  0  0  0  0  0  0  0  0
   32.1050   31.3590   25.2340 O   0  0  0  0  0  0  0  0  0  0  0  0
   31.4180   31.0570   25.9070 H   0  0  0  0  0  0  0  0  0  0  0  0
   30.4980   29.2250   24.3960 N   0  0  0  0  0  0  0  0  0  0  0  0
   30.5130   27.9570   24.9770 C   0  0  0  0  0  0  0  0  0  0  0  0
   29.6510   29.8400   24.5860 H   0  0  0  0  0  0  0  0  0  0  0  0
   29.3850   27.4700   25.8300 C   0  0  0  0  0  0  0  0  0  0  0  0
   31.5010   27.2470   24.7570 O   0  0  0  0  0  0  0  0  0  0  0  0
   33.3970   28.2900   22.4920 O   0  0  0  0  0  0  0  0  0  0  0  0
   33.0420   28.2050   23.4130 H   0  0  0  0  0  0  0  0  0  0  0  0
   32.1230   27.0780   19.6970 O   0  0  0  0  0  0  0  0  0  0  0  0
   31.2860   26.8720   19.2050 H   0  0  0  0  0  0  0  0  0  0  0  0
   27.4710   27.6150   19.0240 O   0  0  0  0  0  0  0  0  0  0  0  0
   26.8030   28.7570   18.5470 C   0  0  0  0  0  0  0  0  0  0  0  0
   27.6460   29.4500   17.5610 C   0  0  0  0  0  0  0  0  0  0  0  0
   28.5000   30.5110   17.8830 C   0  0  0  0  0  0  0  0  0  0  0  0
   27.8020   29.2700   16.2520 N   0  0  0  0  0  0  0  0  0  0  0  0
   29.1220   30.9120   16.7590 N   0  0  0  0  0  0  0  0  0  0  0  0
   28.6680   30.1280   15.7840 N   0  0  0  0  0  0  0  0  0  0  0  0
   30.0730   31.9590   16.6270 C   0  0  0  0  0  0  0  0  0  0  0  0
   30.3040   32.8910   17.6130 C   0  0  0  0  0  0  0  0  0  0  0  0
   30.8310   32.0820   15.4600 C   0  0  0  0  0  0  0  0  0  0  0  0
   31.2410   33.9070   17.4660 C   0  0  0  0  0  0  0  0  0  0  0  0
   31.7610   33.0930   15.3170 C   0  0  0  0  0  0  0  0  0  0  0  0
   31.9810   34.0160   16.3130 C   0  0  0  0  0  0  0  0  0  0  0  0
   32.8980   35.0130   16.1740 O   0  0  0  0  0  0  0  0  0  0  0  0
   33.5230   35.2280   14.9270 C   0  0  0  0  0  0  0  0  0  0  0  0
   29.8670   25.5550   16.9770 C   0  0  0  0  0  0  0  0  0  0  0  0
   28.3450   25.7220   17.0260 C   0  0  0  0  0  0  0  0  0  0  0  0
   27.6010   24.4040   16.8720 C   0  0  0  0  0  0  0  0  0  0  0  0
   26.7550   24.0880   18.0740 C   0  0  0  0  0  0  0  0  0  0  0  0
   25.2800   24.1670   17.6950 C   0  0  0  0  0  0  0  0  0  0  0  0
   24.8260   25.5770   17.6700 N   0  0  0  0  0  0  0  0  0  0  0  0
  1  5  1  0  0  0  0
  2  1  1  0  0  0  0
  2  3  2  0  0  0  0
  4  1  1  0  0  0  0
  6  5  1  6  0  0  0
  6  7  1  0  0  0  0
  7 27  1  1  0  0  0
  8  7  1  6  0  0  0
  8 13  1  0  0  0  0
  9 14  1  6  0  0  0
  9 16  1  0  0  0  0
  9 10  1  0  0  0  0
 10 12  1  0  0  0  0
 11  9  1  0  0  0  0
 11  8  1  0  0  0  0
 12 20  1  1  0  0  0
 13 12  1  0  0  0  0
 13 22  1  1  0  0  0
 14 15  1  0  0  0  0
 16 17  2  0  0  0  0
 18 16  1  0  0  0  0
 18 19  1  0  0  0  0
 20 21  1  0  0  0  0
 22 24  1  0  0  0  0
 22 23  1  0  0  0  0
 23 25  1  0  0  0  0
 26 23  2  0  0  0  0
 27 28  1  0  0  0  0
 29  6  1  0  0  0  0
 30 29  1  0  0  0  0
 31  2  1  0  0  0  0
 32 31  1  0  0  0  0
 33 34  2  0  0  0  0
 33 32  1  0  0  0  0
 35 33  1  0  0  0  0
 36 34  1  0  0  0  0
 37 35  2  0  0  0  0
 37 36  1  0  0  0  0
 38 36  1  0  0  0  0
 38 39  2  0  0  0  0
 40 38  1  0  0  0  0
 41 39  1  0  0  0  0
 42 40  2  0  0  0  0
 42 43  1  0  0  0  0
 43 41  2  0  0  0  0
 44 43  1  0  0  0  0
 45 44  1  0  0  0  0
 46 47  1  0  0  0  0
 48 47  1  0  0  0  0
 48 49  1  0  0  0  0
 50 49  1  0  0  0  0
 51 50  1  0  0  0  0
M  END
>  <REMARK>
 VINA RESULT:    -5.327      1.901      3.677
 INTER + INTRA:         -14.756
 INTER:                  -9.142
 INTRA:                  -5.614
 UNBOUND:                -5.226
 SMILES COc1ccc(-n2cc(COC(=O)NC[C@@H](O)C(O)[C@@H]3O[C@@](O)(C(=O)O)C[C@H](O)[C@H]3NC(C)=O)nn2)cc1
 SMILES IDX 14 1 12 2 13 3 15 5 16 6 18 7 20 8 22 9 27 10 21 11 28 12
 SMILES IDX 30 13 23 14 24 16 25 17 26 18 29 20 31 22 32 23 33 25 34 26
 SMILES IDX 19 27 17 29 11 31 10 32 9 33 8 34 35 35 7 36 36 37 6 38 5 39
 SMILES IDX 37 40 4 41 38 42 3 43 2 44 1 45
 H PARENT 14 4 23 15 26 19 29 21 31 24 19 28 17 30
 Flexibility Score: inf
  4 active torsions:
  status: ('A' for Active; 'I' for Inactive)
    1  A    between atoms: CA   and  CB  
    2  A    between atoms: CB   and  CG  
    3  A    between atoms: CG   and  CD  
    4  A    between atoms: CD   and  CE  

>  <TORSDO>
F 16

>  <BEGIN_>
RES LYS A 131

$$$$
ligand_5_pose_3_2HRL.pdbqt
 OpenBabel07062320523D

  6  5  0  0  0  0  0  0  0  0999 V2000
   33.1930   34.6630    9.2900 C   0  0  0  0  0  0  0  0  0  0  0  0
   32.0600   35.3600   10.0340 C   0  0  0  0  0  0  0  0  0  0  0  0
   30.7190   34.7000    9.8440 C   0  0  0  0  0  0  0  0  0  0  0  0
   30.4380   34.4710    8.3670 C   0  0  0  0  0  0  0  0  0  0  0  0
   29.4190   35.4720    7.8570 C   0  0  0  0  0  0  0  0  0  0  0  0
   28.0510   34.8840    7.8370 N   0  0  0  0  0  0  0  0  0  0  0  0
  1  2  1  0  0  0  0
  3  2  1  0  0  0  0
  4  3  1  0  0  0  0
  5  4  1  0  0  0  0
  6  5  1  0  0  0  0
M  END
>  <EGIN_R>
ES LYS A 135

>  <REMARK>
  4 active torsions:
  status: ('A' for Active; 'I' for Inactive)
    5  A    between atoms: CA   and  CB  
    6  A    between atoms: CB   and  CG  
    7  A    between atoms: CG   and  CD  
    8  A    between atoms: CD   and  CE  

$$$$
