ligand_15_pose_16_2HRL.pdbqt
 OpenBabel07062320523D

 50 51  0  0  1  0  0  0  0  0999 V2000
   29.9940   33.6840   17.4780 C   0  0  0  0  0  0  0  0  0  0  0  0
   31.1830   32.8890   17.0270 C   0  0  2  0  0  0  0  0  0  0  0  0
   31.7550   33.2840   15.7120 C   0  0  2  0  0  0  0  0  0  0  0  0
   31.1400   34.5330   15.1140 C   0  0  2  0  0  0  0  0  0  0  0  0
   29.5240   35.0050   13.4810 C   0  0  2  0  0  0  0  0  0  0  0  0
   30.3570   36.2160   13.1680 C   0  0  0  0  0  0  0  0  0  0  0  0
   30.2250   34.0800   14.1720 O   0  0  0  0  0  0  0  0  0  0  0  0
   31.7990   35.7750   13.0690 C   0  0  1  0  0  0  0  0  0  0  0  0
   32.2350   35.3400   14.4740 C   0  0  1  0  0  0  0  0  0  0  0  0
   29.1330   34.3920   12.2570 O   0  0  0  0  0  0  0  0  0  0  0  0
   29.9580   33.9510   11.9230 H   0  0  0  0  0  0  0  0  0  0  0  0
   28.2910   35.3680   14.2340 C   0  0  0  0  0  0  0  0  0  0  0  0
   27.8350   36.5230   14.2850 O   0  0  0  0  0  0  0  0  0  0  0  0
   27.6120   34.3740   14.9180 O   0  0  0  0  0  0  0  0  0  0  0  0
   26.8740   34.5720   15.5950 H   0  0  0  0  0  0  0  0  0  0  0  0
   31.8310   34.6270   12.2800 O   0  0  0  0  0  0  0  0  0  0  0  0
   31.6300   34.7940   11.3390 H   0  0  0  0  0  0  0  0  0  0  0  0
   32.4170   36.5610   15.2080 N   0  0  0  0  0  0  0  0  0  0  0  0
   33.3910   36.7440   16.2190 C   0  0  0  0  0  0  0  0  0  0  0  0
   31.8030   37.3920   15.0050 H   0  0  0  0  0  0  0  0  0  0  0  0
   33.5400   38.0340   16.9570 C   0  0  0  0  0  0  0  0  0  0  0  0
   34.1530   35.7980   16.5030 O   0  0  0  0  0  0  0  0  0  0  0  0
   31.5880   32.1960   14.8190 O   0  0  0  0  0  0  0  0  0  0  0  0
   32.3540   31.5970   14.9480 H   0  0  0  0  0  0  0  0  0  0  0  0
   30.7810   31.5380   16.9560 O   0  0  0  0  0  0  0  0  0  0  0  0
   30.0330   31.4260   16.3190 H   0  0  0  0  0  0  0  0  0  0  0  0
   28.7450   32.9970   17.4530 N   0  0  0  0  0  0  0  0  0  0  0  0
   28.0680   32.6830   18.6870 C   0  0  0  0  0  0  0  0  0  0  0  0
   28.2390   32.6740   16.6030 H   0  0  0  0  0  0  0  0  0  0  0  0
   28.6190   33.0330   19.7580 O   0  0  0  0  0  0  0  0  0  0  0  0
   26.8530   32.0160   18.6930 O   0  0  0  0  0  0  0  0  0  0  0  0
   26.8520   30.7100   18.1320 C   0  0  0  0  0  0  0  0  0  0  0  0
   26.1100   30.7960   16.8410 C   0  0  0  0  0  0  0  0  0  0  0  0
   24.9770   30.0850   16.4940 C   0  0  0  0  0  0  0  0  0  0  0  0
   26.3850   31.5680   15.7740 N   0  0  0  0  0  0  0  0  0  0  0  0
   24.6050   30.4380   15.2520 N   0  0  0  0  0  0  0  0  0  0  0  0
   25.4800   31.3340   14.8550 N   0  0  0  0  0  0  0  0  0  0  0  0
   23.5080   29.9820   14.4660 C   0  0  0  0  0  0  0  0  0  0  0  0
   22.2210   29.9130   14.9650 C   0  0  0  0  0  0  0  0  0  0  0  0
   23.6900   29.5880   13.1570 C   0  0  0  0  0  0  0  0  0  0  0  0
   21.1650   29.4700   14.1900 C   0  0  0  0  0  0  0  0  0  0  0  0
   22.6330   29.1410   12.3740 C   0  0  0  0  0  0  0  0  0  0  0  0
   21.3550   29.0750   12.8770 C   0  0  0  0  0  0  0  0  0  0  0  0
   19.8640   28.4720   11.8550 Br  0  0  0  0  0  0  0  0  0  0  0  0
   29.8670   25.5550   16.9770 C   0  0  0  0  0  0  0  0  0  0  0  0
   28.3450   25.7220   17.0260 C   0  0  0  0  0  0  0  0  0  0  0  0
   27.6010   24.4020   16.8960 C   0  0  0  0  0  0  0  0  0  0  0  0
   26.3390   24.3800   17.7130 C   0  0  0  0  0  0  0  0  0  0  0  0
   26.0900   25.7650   18.3020 C   0  0  0  0  0  0  0  0  0  0  0  0
   25.8820   25.6750   19.7670 N   0  0  0  0  0  0  0  0  0  0  0  0
  2  1  1  6  0  0  0
  3 23  1  6  0  0  0
  3  2  1  0  0  0  0
  4  3  1  6  0  0  0
  5 10  1  6  0  0  0
  5  7  1  0  0  0  0
  5 12  1  0  0  0  0
  6  5  1  0  0  0  0
  7  4  1  0  0  0  0
  8 16  1  6  0  0  0
  8  6  1  0  0  0  0
  8  9  1  0  0  0  0
  9  4  1  0  0  0  0
  9 18  1  1  0  0  0
 11 10  1  0  0  0  0
 12 13  2  0  0  0  0
 12 14  1  0  0  0  0
 14 15  1  0  0  0  0
 17 16  1  0  0  0  0
 18 19  1  0  0  0  0
 19 22  2  0  0  0  0
 19 21  1  0  0  0  0
 20 18  1  0  0  0  0
 23 24  1  0  0  0  0
 25  2  1  0  0  0  0
 26 25  1  0  0  0  0
 27  1  1  0  0  0  0
 27 28  1  0  0  0  0
 28 31  1  0  0  0  0
 28 30  2  0  0  0  0
 29 27  1  0  0  0  0
 32 31  1  0  0  0  0
 33 32  1  0  0  0  0
 34 33  2  0  0  0  0
 35 33  1  0  0  0  0
 36 34  1  0  0  0  0
 37 36  1  0  0  0  0
 37 35  2  0  0  0  0
 38 39  1  0  0  0  0
 38 36  1  0  0  0  0
 40 38  2  0  0  0  0
 41 39  2  0  0  0  0
 42 43  2  0  0  0  0
 42 40  1  0  0  0  0
 43 41  1  0  0  0  0
 44 43  1  0  0  0  0
 45 46  1  0  0  0  0
 47 46  1  0  0  0  0
 47 48  1  0  0  0  0
 48 49  1  0  0  0  0
 49 50  1  0  0  0  0
M  END
>  <REMARK>
 VINA RESULT:    -5.101      5.212      8.304
 INTER + INTRA:         -13.989
 INTER:                  -8.828
 INTRA:                  -5.161
 UNBOUND:                -5.161
 SMILES CC(=O)N[C@@H]1[C@@H](O)C[C@](O)(C(=O)O)O[C@H]1C(O)[C@H](O)CNC(=O)OCc1cn(-c2ccc(Br)cc2)nn1
 SMILES IDX 20 1 18 2 16 3 15 4 9 5 8 6 14 7 6 8 5 9 10 10 11 12 12 13
 SMILES IDX 13 14 7 16 4 18 2 19 1 21 3 22 17 23 19 25 21 27 22 28 23 30
 SMILES IDX 24 31 25 32 26 33 27 34 37 35 28 36 36 37 29 38 30 39 35 40
 SMILES IDX 31 41 34 42 32 43 33 44
 H PARENT 10 11 13 15 7 17 4 20 17 24 19 26 21 29
 Flexibility Score: inf
  4 active torsions:
  status: ('A' for Active; 'I' for Inactive)
    1  A    between atoms: CA   and  CB  
    2  A    between atoms: CB   and  CG  
    3  A    between atoms: CG   and  CD  
    4  A    between atoms: CD   and  CE  

>  <TORSDO>
F 15

>  <BEGIN_>
RES LYS A 131

$$$$
ligand_15_pose_16_2HRL.pdbqt
 OpenBabel07062320523D

  6  5  0  0  0  0  0  0  0  0999 V2000
   33.1930   34.6630    9.2900 C   0  0  0  0  0  0  0  0  0  0  0  0
   32.0600   35.3600   10.0340 C   0  0  0  0  0  0  0  0  0  0  0  0
   30.8470   35.6200    9.1780 C   0  0  0  0  0  0  0  0  0  0  0  0
   30.0860   34.3300    8.9190 C   0  0  0  0  0  0  0  0  0  0  0  0
   28.6310   34.6230    8.6060 C   0  0  0  0  0  0  0  0  0  0  0  0
   27.7260   33.7160    9.3650 N   0  0  0  0  0  0  0  0  0  0  0  0
  1  2  1  0  0  0  0
  3  2  1  0  0  0  0
  4  3  1  0  0  0  0
  5  4  1  0  0  0  0
  5  6  1  0  0  0  0
M  END
>  <EGIN_R>
ES LYS A 135

>  <REMARK>
  4 active torsions:
  status: ('A' for Active; 'I' for Inactive)
    5  A    between atoms: CA   and  CB  
    6  A    between atoms: CB   and  CG  
    7  A    between atoms: CG   and  CD  
    8  A    between atoms: CD   and  CE  

$$$$
