ligand_37_pose_19_2HRL.pdbqt
 OpenBabel07062320523D

 55 56  0  0  1  0  0  0  0  0999 V2000
   29.3450   40.1470   12.3890 O   0  0  0  0  0  0  0  0  0  0  0  0
   30.0740   40.5600   11.2490 C   0  0  0  0  0  0  0  0  0  0  0  0
   30.3700   39.6420   10.2200 N   0  0  0  0  0  0  0  0  0  0  0  0
   30.0210   38.6450   10.3810 H   0  0  0  0  0  0  0  0  0  0  0  0
   30.4180   41.7570   11.2350 O   0  0  0  0  0  0  0  0  0  0  0  0
   31.0850   39.9910    9.0340 C   0  0  0  0  0  0  0  0  0  0  0  0
   30.9130   38.9780    7.9510 C   0  0  2  0  0  0  0  0  0  0  0  0
   29.4960   39.0520    7.3870 C   0  0  2  0  0  0  0  0  0  0  0  0
   29.0680   40.4400    7.0290 C   0  0  2  0  0  0  0  0  0  0  0  0
   27.1500   39.8980    5.7970 C   0  0  2  0  0  0  0  0  0  0  0  0
   27.9230   40.1380    4.5400 C   0  0  0  0  0  0  0  0  0  0  0  0
   27.6700   40.5190    6.9060 O   0  0  0  0  0  0  0  0  0  0  0  0
   28.7880   41.3680    4.7210 C   0  0  1  0  0  0  0  0  0  0  0  0
   29.7540   41.0530    5.8530 C   0  0  1  0  0  0  0  0  0  0  0  0
   26.9830   38.5490    6.0070 O   0  0  0  0  0  0  0  0  0  0  0  0
   27.8120   38.0990    6.3320 H   0  0  0  0  0  0  0  0  0  0  0  0
   25.7740   40.4880    5.6140 C   0  0  0  0  0  0  0  0  0  0  0  0
   25.4620   41.0670    4.5430 O   0  0  0  0  0  0  0  0  0  0  0  0
   24.8060   40.4180    6.6060 O   0  0  0  0  0  0  0  0  0  0  0  0
   24.5090   39.5170    7.0110 H   0  0  0  0  0  0  0  0  0  0  0  0
   29.4490   41.6810    3.5500 O   0  0  0  0  0  0  0  0  0  0  0  0
   30.0810   42.4370    3.6500 H   0  0  0  0  0  0  0  0  0  0  0  0
   30.4980   42.2690    6.1980 N   0  0  0  0  0  0  0  0  0  0  0  0
   31.9230   42.3290    6.1790 C   0  0  0  0  0  0  0  0  0  0  0  0
   29.9930   43.1510    6.4770 H   0  0  0  0  0  0  0  0  0  0  0  0
   32.6250   43.5990    6.5410 C   0  0  0  0  0  0  0  0  0  0  0  0
   32.5810   41.3130    5.8550 O   0  0  0  0  0  0  0  0  0  0  0  0
   28.6070   38.5490    8.3450 O   0  0  0  0  0  0  0  0  0  0  0  0
   28.4870   39.2300    9.0620 H   0  0  0  0  0  0  0  0  0  0  0  0
   31.1450   37.7010    8.4600 O   0  0  0  0  0  0  0  0  0  0  0  0
   31.2670   37.7040    9.4540 H   0  0  0  0  0  0  0  0  0  0  0  0
   28.0040   40.5690   12.5230 C   0  0  0  0  0  0  0  0  0  0  0  0
   27.1450   40.0370   11.4480 C   0  0  0  0  0  0  0  0  0  0  0  0
   26.3390   38.9230   11.4570 C   0  0  0  0  0  0  0  0  0  0  0  0
   26.9970   40.5800   10.2280 N   0  0  0  0  0  0  0  0  0  0  0  0
   25.7270   38.8130   10.2540 N   0  0  0  0  0  0  0  0  0  0  0  0
   26.1410   39.8210    9.5360 N   0  0  0  0  0  0  0  0  0  0  0  0
   24.8060   37.7760    9.8710 C   0  0  1  0  0  0  0  0  0  0  0  0
   23.3820   38.2420   10.0780 C   0  0  0  0  0  0  0  0  0  0  0  0
   25.0770   37.3680    8.4870 C   0  0  0  0  0  0  0  0  0  0  0  0
   24.2890   37.7310    7.5630 O   0  0  0  0  0  0  0  0  0  0  0  0
   26.1640   36.5950    8.1380 O   0  0  0  0  0  0  0  0  0  0  0  0
   26.2850   35.2150    8.2820 C   0  0  0  0  0  0  0  0  0  0  0  0
   27.7280   34.8590    8.3780 C   0  0  0  0  0  0  0  0  0  0  0  0
   28.6090   35.2500    7.3940 C   0  0  0  0  0  0  0  0  0  0  0  0
   28.1870   34.1440    9.4510 C   0  0  0  0  0  0  0  0  0  0  0  0
   29.9410   34.9270    7.4810 C   0  0  0  0  0  0  0  0  0  0  0  0
   29.5080   33.8080    9.5640 C   0  0  0  0  0  0  0  0  0  0  0  0
   30.3820   34.2000    8.5790 C   0  0  0  0  0  0  0  0  0  0  0  0
   29.8670   25.5550   16.9770 C   0  0  0  0  0  0  0  0  0  0  0  0
   28.3450   25.7220   17.0260 C   0  0  0  0  0  0  0  0  0  0  0  0
   27.6010   24.4000   16.9080 C   0  0  0  0  0  0  0  0  0  0  0  0
   26.6370   24.1900   18.0420 C   0  0  0  0  0  0  0  0  0  0  0  0
   25.5870   23.1620   17.6330 C   0  0  0  0  0  0  0  0  0  0  0  0
   24.4640   23.8220   16.9250 N   0  0  0  0  0  0  0  0  0  0  0  0
  1 32  1  0  0  0  0
  2  1  1  0  0  0  0
  3  4  1  0  0  0  0
  3  2  1  0  0  0  0
  5  2  2  0  0  0  0
  6  3  1  0  0  0  0
  7 30  1  0  0  0  0
  7  6  1  1  0  0  0
  8  7  1  0  0  0  0
  8 28  1  1  0  0  0
  9  8  1  6  0  0  0
 10 17  1  6  0  0  0
 10 15  1  0  0  0  0
 10 12  1  0  0  0  0
 11 13  1  0  0  0  0
 11 10  1  0  0  0  0
 12  9  1  0  0  0  0
 13 21  1  6  0  0  0
 13 14  1  0  0  0  0
 14 23  1  1  0  0  0
 14  9  1  0  0  0  0
 15 16  1  0  0  0  0
 17 19  1  0  0  0  0
 18 17  2  0  0  0  0
 19 20  1  0  0  0  0
 21 22  1  0  0  0  0
 23 25  1  0  0  0  0
 24 23  1  0  0  0  0
 24 26  1  0  0  0  0
 27 24  2  0  0  0  0
 28 29  1  0  0  0  0
 30 31  1  0  0  0  0
 33 34  2  0  0  0  0
 33 32  1  0  0  0  0
 35 33  1  0  0  0  0
 36 34  1  0  0  0  0
 37 35  2  0  0  0  0
 37 36  1  0  0  0  0
 38 39  1  6  0  0  0
 38 36  1  0  0  0  0
 40 38  1  0  0  0  0
 41 40  2  0  0  0  0
 42 43  1  0  0  0  0
 42 40  1  0  0  0  0
 43 44  1  0  0  0  0
 44 46  2  0  0  0  0
 45 47  2  0  0  0  0
 45 44  1  0  0  0  0
 46 48  1  0  0  0  0
 47 49  1  0  0  0  0
 49 48  2  0  0  0  0
 50 51  1  0  0  0  0
 52 51  1  0  0  0  0
 52 53  1  0  0  0  0
 54 53  1  0  0  0  0
 55 54  1  0  0  0  0
M  END
>  <REMARK>
 VINA RESULT:    -5.347      3.400      7.089
 INTER + INTRA:         -15.614
 INTER:                  -9.430
 INTRA:                  -6.184
 UNBOUND:                -5.110
 SMILES CC(=O)N[C@@H]1[C@@H](O)C[C@](O)(C(=O)O)O[C@H]1C(O)[C@H](O)CNC(=O)OCc1cn([C@@H](C)C(=O)OCc2ccccc2)nn1
 SMILES IDX 24 1 22 2 21 3 23 5 20 6 18 7 16 8 15 9 9 10 8 11 14 12 6 13
 SMILES IDX 5 14 10 15 11 17 12 18 13 19 7 21 4 23 2 24 1 26 3 27 17 28
 SMILES IDX 19 30 25 32 26 33 27 34 42 35 28 36 41 37 29 38 30 39 31 40
 SMILES IDX 32 41 33 42 34 43 35 44 36 45 40 46 37 47 39 48 38 49
 H PARENT 21 4 10 16 13 20 7 22 4 25 17 29 19 31
 Flexibility Score: inf
  4 active torsions:
  status: ('A' for Active; 'I' for Inactive)
    1  A    between atoms: CA   and  CB  
    2  A    between atoms: CB   and  CG  
    3  A    between atoms: CG   and  CD  
    4  A    between atoms: CD   and  CE  

>  <TORSDO>
F 19

>  <BEGIN_>
RES LYS A 131

$$$$
ligand_37_pose_19_2HRL.pdbqt
 OpenBabel07062320523D

  6  5  0  0  0  0  0  0  0  0999 V2000
   33.1930   34.6630    9.2900 C   0  0  0  0  0  0  0  0  0  0  0  0
   32.0600   35.3600   10.0340 C   0  0  0  0  0  0  0  0  0  0  0  0
   32.2630   35.4150   11.5260 C   0  0  0  0  0  0  0  0  0  0  0  0
   31.0740   36.0770   12.2060 C   0  0  0  0  0  0  0  0  0  0  0  0
   31.5100   37.3300   12.9400 C   0  0  0  0  0  0  0  0  0  0  0  0
   30.6660   37.5680   14.1430 N   0  0  0  0  0  0  0  0  0  0  0  0
  1  2  1  0  0  0  0
  2  3  1  0  0  0  0
  3  4  1  0  0  0  0
  4  5  1  0  0  0  0
  5  6  1  0  0  0  0
M  END
>  <EGIN_R>
ES LYS A 135

>  <REMARK>
  4 active torsions:
  status: ('A' for Active; 'I' for Inactive)
    5  A    between atoms: CA   and  CB  
    6  A    between atoms: CB   and  CG  
    7  A    between atoms: CG   and  CD  
    8  A    between atoms: CD   and  CE  

$$$$
