ligand_29_pose_10_2HRL.pdbqt
 OpenBabel07062320523D

 54 55  0  0  1  0  0  0  0  0999 V2000
   30.6060   32.3520   18.2940 N   0  0  0  0  0  0  0  0  0  0  0  0
   31.1730   32.3120   19.5750 C   0  0  0  0  0  0  0  0  0  0  0  0
   31.1160   31.2830   20.2810 O   0  0  0  0  0  0  0  0  0  0  0  0
   30.6890   33.2710   17.7620 H   0  0  0  0  0  0  0  0  0  0  0  0
   29.9190   31.2570   17.6310 C   0  0  0  0  0  0  0  0  0  0  0  0
   30.1810   31.2760   16.1680 C   0  0  2  0  0  0  0  0  0  0  0  0
   30.7850   32.5620   15.6580 C   0  0  2  0  0  0  0  0  0  0  0  0
   29.9310   33.3170   14.6970 C   0  0  2  0  0  0  0  0  0  0  0  0
   31.1930   35.1590   14.0230 C   0  0  2  0  0  0  0  0  0  0  0  0
   29.9970   36.0730   13.7950 C   0  0  0  0  0  0  0  0  0  0  0  0
   30.7860   33.8850   13.7310 O   0  0  0  0  0  0  0  0  0  0  0  0
   28.7340   35.2950   14.0260 C   0  0  1  0  0  0  0  0  0  0  0  0
   28.9310   34.2660   15.2000 C   0  0  1  0  0  0  0  0  0  0  0  0
   31.7240   35.3320   15.2970 O   0  0  0  0  0  0  0  0  0  0  0  0
   31.2870   36.0700   15.7950 H   0  0  0  0  0  0  0  0  0  0  0  0
   32.2720   35.5260   13.0610 C   0  0  0  0  0  0  0  0  0  0  0  0
   32.1780   36.6030   12.4270 O   0  0  0  0  0  0  0  0  0  0  0  0
   33.3790   34.7210   12.8360 O   0  0  0  0  0  0  0  0  0  0  0  0
   34.3390   35.0890   12.8700 H   0  0  0  0  0  0  0  0  0  0  0  0
   27.6580   36.1160   14.3430 O   0  0  0  0  0  0  0  0  0  0  0  0
   26.9260   36.0170   13.6970 H   0  0  0  0  0  0  0  0  0  0  0  0
   27.5970   33.6550   15.2970 N   0  0  0  0  0  0  0  0  0  0  0  0
   26.9720   33.3110   16.5190 C   0  0  0  0  0  0  0  0  0  0  0  0
   27.0400   33.4470   14.4170 H   0  0  0  0  0  0  0  0  0  0  0  0
   25.6250   32.6910   16.5860 C   0  0  0  0  0  0  0  0  0  0  0  0
   27.5690   33.5310   17.6030 O   0  0  0  0  0  0  0  0  0  0  0  0
   31.9600   32.1870   14.8880 O   0  0  0  0  0  0  0  0  0  0  0  0
   32.0570   31.2090   14.9770 H   0  0  0  0  0  0  0  0  0  0  0  0
   29.2050   30.7400   15.3690 O   0  0  0  0  0  0  0  0  0  0  0  0
   28.9280   29.8390   15.6200 H   0  0  0  0  0  0  0  0  0  0  0  0
   31.8300   33.4410   20.1120 O   0  0  0  0  0  0  0  0  0  0  0  0
   32.3480   33.3350   21.4470 C   0  0  0  0  0  0  0  0  0  0  0  0
   33.7940   33.1270   21.4440 C   0  0  0  0  0  0  0  0  0  0  0  0
   34.7590   34.0880   21.2860 C   0  0  0  0  0  0  0  0  0  0  0  0
   34.4200   31.9510   21.6070 N   0  0  0  0  0  0  0  0  0  0  0  0
   35.9430   33.4870   21.3530 N   0  0  0  0  0  0  0  0  0  0  0  0
   35.7210   32.2040   21.5460 N   0  0  0  0  0  0  0  0  0  0  0  0
   37.2570   34.1070   21.2300 C   0  0  0  0  0  0  0  0  0  0  0  0
   37.6430   34.1010   19.7850 C   0  0  0  0  0  0  0  0  0  0  0  0
   37.3650   35.2200   19.0010 C   0  0  0  0  0  0  0  0  0  0  0  0
   38.2770   33.0320   19.1890 C   0  0  0  0  0  0  0  0  0  0  0  0
   37.7100   35.2600   17.6730 C   0  0  0  0  0  0  0  0  0  0  0  0
   38.6370   33.0420   17.8550 C   0  0  0  0  0  0  0  0  0  0  0  0
   38.3450   34.1640   17.1160 C   0  0  0  0  0  0  0  0  0  0  0  0
   37.4380   36.3690   16.8770 O   0  0  0  0  0  0  0  0  0  0  0  0
   36.3240   37.1790   17.2110 C   0  0  0  0  0  0  0  0  0  0  0  0
   38.6890   34.2130   15.7750 O   0  0  0  0  0  0  0  0  0  0  0  0
   37.8030   33.7880   14.7570 C   0  0  0  0  0  0  0  0  0  0  0  0
   29.8670   25.5550   16.9770 C   0  0  0  0  0  0  0  0  0  0  0  0
   28.3450   25.7220   17.0260 C   0  0  0  0  0  0  0  0  0  0  0  0
   27.6020   24.3990   16.9280 C   0  0  0  0  0  0  0  0  0  0  0  0
   26.4330   24.3340   17.8710 C   0  0  0  0  0  0  0  0  0  0  0  0
   25.9870   25.7480   18.2270 C   0  0  0  0  0  0  0  0  0  0  0  0
   26.0220   25.9490   19.6950 N   0  0  0  0  0  0  0  0  0  0  0  0
  1  2  1  0  0  0  0
  2 31  1  0  0  0  0
  2  3  2  0  0  0  0
  4  1  1  0  0  0  0
  5  1  1  0  0  0  0
  6  5  1  1  0  0  0
  7 27  1  6  0  0  0
  7  6  1  0  0  0  0
  8 13  1  0  0  0  0
  8  7  1  1  0  0  0
  9 16  1  6  0  0  0
  9 14  1  0  0  0  0
 10  9  1  0  0  0  0
 10 12  1  0  0  0  0
 11  9  1  0  0  0  0
 11  8  1  0  0  0  0
 12 20  1  1  0  0  0
 12 13  1  0  0  0  0
 13 22  1  6  0  0  0
 14 15  1  0  0  0  0
 17 16  2  0  0  0  0
 18 19  1  0  0  0  0
 18 16  1  0  0  0  0
 21 20  1  0  0  0  0
 22 23  1  0  0  0  0
 23 25  1  0  0  0  0
 23 26  2  0  0  0  0
 24 22  1  0  0  0  0
 27 28  1  0  0  0  0
 29 30  1  0  0  0  0
 29  6  1  0  0  0  0
 31 32  1  0  0  0  0
 33 32  1  0  0  0  0
 33 35  1  0  0  0  0
 34 36  1  0  0  0  0
 34 33  2  0  0  0  0
 36 37  1  0  0  0  0
 37 35  2  0  0  0  0
 38 36  1  0  0  0  0
 39 38  1  0  0  0  0
 40 39  2  0  0  0  0
 41 39  1  0  0  0  0
 42 40  1  0  0  0  0
 43 41  2  0  0  0  0
 44 42  2  0  0  0  0
 44 43  1  0  0  0  0
 45 46  1  0  0  0  0
 45 42  1  0  0  0  0
 47 44  1  0  0  0  0
 48 47  1  0  0  0  0
 49 50  1  0  0  0  0
 51 50  1  0  0  0  0
 51 52  1  0  0  0  0
 52 53  1  0  0  0  0
 53 54  1  0  0  0  0
M  END
>  <REMARK>
 VINA RESULT:    -5.037      4.819      9.498
 INTER + INTRA:         -14.720
 INTER:                  -9.598
 INTRA:                  -5.122
 UNBOUND:                -5.118
 SMILES COc1ccc(Cn2cc(COC(=O)NC[C@@H](O)C(O)[C@@H]3O[C@@](O)(C(=O)O)C[C@H](O)[C@H]3NC(C)=O)nn2)cc1OC
 SMILES IDX 15 1 13 2 14 3 16 5 17 6 19 7 21 8 23 9 28 10 22 11 29 12
 SMILES IDX 31 13 24 14 25 16 26 17 27 18 30 20 32 22 33 23 34 25 35 26
 SMILES IDX 20 27 18 29 12 31 11 32 10 33 9 34 36 35 8 36 37 37 7 38
 SMILES IDX 6 39 38 40 5 41 39 42 4 43 3 44 40 45 41 46 2 47 1 48
 H PARENT 15 4 24 15 27 19 30 21 32 24 20 28 18 30
 Flexibility Score: inf
  4 active torsions:
  status: ('A' for Active; 'I' for Inactive)
    1  A    between atoms: CA   and  CB  
    2  A    between atoms: CB   and  CG  
    3  A    between atoms: CG   and  CD  
    4  A    between atoms: CD   and  CE  

>  <TORSDO>
F 18

>  <BEGIN_>
RES LYS A 131

$$$$
ligand_29_pose_10_2HRL.pdbqt
 OpenBabel07062320523D

  6  5  0  0  0  0  0  0  0  0999 V2000
   33.1930   34.6630    9.2900 C   0  0  0  0  0  0  0  0  0  0  0  0
   32.0600   35.3600   10.0340 C   0  0  0  0  0  0  0  0  0  0  0  0
   30.8160   35.5420    9.2030 C   0  0  0  0  0  0  0  0  0  0  0  0
   30.2800   34.1970    8.7370 C   0  0  0  0  0  0  0  0  0  0  0  0
   28.8650   33.9850    9.2370 C   0  0  0  0  0  0  0  0  0  0  0  0
   28.4810   35.0350   10.2210 N   0  0  0  0  0  0  0  0  0  0  0  0
  1  2  1  0  0  0  0
  3  2  1  0  0  0  0
  4  3  1  0  0  0  0
  4  5  1  0  0  0  0
  5  6  1  0  0  0  0
M  END
>  <EGIN_R>
ES LYS A 135

>  <REMARK>
  4 active torsions:
  status: ('A' for Active; 'I' for Inactive)
    5  A    between atoms: CA   and  CB  
    6  A    between atoms: CB   and  CG  
    7  A    between atoms: CG   and  CD  
    8  A    between atoms: CD   and  CE  

$$$$
