ligand_45_pose_15_2HRL.pdbqt
 OpenBabel07062320523D

 52 52  0  0  1  0  0  0  0  0999 V2000
   27.9010   30.8270   19.9820 O   0  0  0  0  0  0  0  0  0  0  0  0
   28.2950   32.1370   20.1630 C   0  0  0  0  0  0  0  0  0  0  0  0
   28.9910   32.8710   19.1510 N   0  0  0  0  0  0  0  0  0  0  0  0
   29.1730   32.3680   18.2760 H   0  0  0  0  0  0  0  0  0  0  0  0
   28.0340   32.6990   21.2520 O   0  0  0  0  0  0  0  0  0  0  0  0
   29.3630   34.2130   19.4120 C   0  0  0  0  0  0  0  0  0  0  0  0
   30.8010   34.5630   19.2190 C   0  0  2  0  0  0  0  0  0  0  0  0
   31.1460   35.1900   17.9050 C   0  0  1  0  0  0  0  0  0  0  0  0
   30.6060   34.4790   16.7010 C   0  0  2  0  0  0  0  0  0  0  0  0
   30.4880   32.4050   15.7170 C   0  0  2  0  0  0  0  0  0  0  0  0
   29.4730   33.1690   14.8880 C   0  0  0  0  0  0  0  0  0  0  0  0
   30.9750   33.1570   16.7580 O   0  0  0  0  0  0  0  0  0  0  0  0
   30.0840   34.4110   14.3160 C   0  0  1  0  0  0  0  0  0  0  0  0
   30.9640   35.0700   15.3810 C   0  0  1  0  0  0  0  0  0  0  0  0
   31.5590   32.0860   14.8630 O   0  0  0  0  0  0  0  0  0  0  0  0
   32.1900   32.8500   14.9260 H   0  0  0  0  0  0  0  0  0  0  0  0
   29.8900   31.1530   16.2070 C   0  0  0  0  0  0  0  0  0  0  0  0
   30.0270   30.8100   17.4140 O   0  0  0  0  0  0  0  0  0  0  0  0
   29.1670   30.3220   15.3750 O   0  0  0  0  0  0  0  0  0  0  0  0
   28.1810   30.1910   15.4990 H   0  0  0  0  0  0  0  0  0  0  0  0
   30.8540   34.0580   13.1990 O   0  0  0  0  0  0  0  0  0  0  0  0
   31.7240   34.5100   13.2450 H   0  0  0  0  0  0  0  0  0  0  0  0
   30.6120   36.4910   15.3080 N   0  0  0  0  0  0  0  0  0  0  0  0
   31.2460   37.3390   14.3680 C   0  0  0  0  0  0  0  0  0  0  0  0
   29.8870   36.8690   15.9600 H   0  0  0  0  0  0  0  0  0  0  0  0
   30.8790   38.7900   14.3070 C   0  0  0  0  0  0  0  0  0  0  0  0
   32.1290   36.9340   13.5520 O   0  0  0  0  0  0  0  0  0  0  0  0
   30.7200   36.5270   17.9150 O   0  0  0  0  0  0  0  0  0  0  0  0
   31.2000   36.9930   17.1760 H   0  0  0  0  0  0  0  0  0  0  0  0
   31.5330   33.3680   19.3890 O   0  0  0  0  0  0  0  0  0  0  0  0
   31.0090   32.5730   19.1630 H   0  0  0  0  0  0  0  0  0  0  0  0
   26.5540   30.5580   19.6180 C   0  0  0  0  0  0  0  0  0  0  0  0
   26.4100   30.6060   18.1460 C   0  0  0  0  0  0  0  0  0  0  0  0
   26.0070   31.6410   17.3300 C   0  0  0  0  0  0  0  0  0  0  0  0
   26.6620   29.5850   17.2990 N   0  0  0  0  0  0  0  0  0  0  0  0
   26.0190   31.2440   16.0420 N   0  0  0  0  0  0  0  0  0  0  0  0
   26.4220   29.9910   16.0690 N   0  0  0  0  0  0  0  0  0  0  0  0
   25.6750   31.9770   14.8680 C   0  0  0  0  0  0  0  0  0  0  0  0
   24.2340   31.9410   14.5280 C   0  0  0  0  0  0  0  0  0  0  0  0
   23.8160   31.2700   13.2860 C   0  0  0  0  0  0  0  0  0  0  0  0
   22.9510   30.1630   13.3170 N   0  0  0  0  0  0  0  0  0  0  0  0
   23.4540   28.9250   12.7850 C   0  0  0  0  0  0  0  0  0  0  0  0
   22.7110   29.8800   14.7460 C   0  0  0  0  0  0  0  0  0  0  0  0
   22.9900   28.4840   15.1490 C   0  0  0  0  0  0  0  0  0  0  0  0
   21.6600   30.4120   12.7400 C   0  0  0  0  0  0  0  0  0  0  0  0
   21.0350   29.2460   12.0640 C   0  0  0  0  0  0  0  0  0  0  0  0
   29.8670   25.5550   16.9770 C   0  0  0  0  0  0  0  0  0  0  0  0
   28.3450   25.7220   17.0260 C   0  0  0  0  0  0  0  0  0  0  0  0
   27.6020   24.3990   16.9200 C   0  0  0  0  0  0  0  0  0  0  0  0
   26.6280   24.2040   18.0490 C   0  0  0  0  0  0  0  0  0  0  0  0
   25.4350   25.1350   17.8590 C   0  0  0  0  0  0  0  0  0  0  0  0
   25.2040   25.9390   19.0820 N   0  0  0  0  0  0  0  0  0  0  0  0
  1  2  1  0  0  0  0
  2  5  2  0  0  0  0
  3  6  1  0  0  0  0
  3  2  1  0  0  0  0
  4  3  1  0  0  0  0
  7 30  1  0  0  0  0
  7  6  1  6  0  0  0
  8 28  1  1  0  0  0
  8  7  1  0  0  0  0
  9 12  1  0  0  0  0
  9  8  1  1  0  0  0
 10 15  1  6  0  0  0
 10 17  1  0  0  0  0
 10 12  1  0  0  0  0
 11 10  1  0  0  0  0
 13 21  1  6  0  0  0
 13 11  1  0  0  0  0
 13 14  1  0  0  0  0
 14 23  1  1  0  0  0
 14  9  1  0  0  0  0
 15 16  1  0  0  0  0
 17 18  2  0  0  0  0
 19 20  1  0  0  0  0
 19 17  1  0  0  0  0
 21 22  1  0  0  0  0
 23 25  1  0  0  0  0
 24 23  1  0  0  0  0
 26 24  1  0  0  0  0
 27 24  2  0  0  0  0
 29 28  1  0  0  0  0
 31 30  1  0  0  0  0
 32  1  1  0  0  0  0
 33 32  1  0  0  0  0
 34 33  2  0  0  0  0
 35 33  1  0  0  0  0
 36 37  1  0  0  0  0
 36 34  1  0  0  0  0
 37 35  2  0  0  0  0
 38 36  1  0  0  0  0
 39 38  1  0  0  0  0
 40 41  1  0  0  0  0
 40 39  1  0  0  0  0
 41 43  1  0  0  0  0
 42 41  1  0  0  0  0
 43 44  1  0  0  0  0
 45 41  1  0  0  0  0
 46 45  1  0  0  0  0
 47 48  1  0  0  0  0
 49 48  1  0  0  0  0
 49 50  1  0  0  0  0
 51 50  1  0  0  0  0
 51 52  1  0  0  0  0
M  END
>  <REMARK>
 VINA RESULT:    -4.030      4.008      7.353
 INTER + INTRA:         -14.028
 INTER:                  -8.178
 INTRA:                  -5.850
 UNBOUND:                -5.875
 SMILES CC[N+](C)(CC)CCCn1cc(COC(=O)NC[C@@H](O)C(O)[C@@H]2O[C@@](O)(C(=O)O)C[C@H](O)[C@H]2NC(C)=O)nn1
 SMILES IDX 14 1 15 2 17 3 16 5 18 6 19 7 21 8 23 9 25 10 30 11 24 12
 SMILES IDX 31 13 33 14 26 15 27 17 28 18 29 19 32 21 34 23 35 24 36 26
 SMILES IDX 37 27 22 28 20 30 13 32 12 33 11 34 38 35 10 36 39 37 9 38
 SMILES IDX 8 39 7 40 3 41 4 42 2 43 1 44 5 45 6 46
 H PARENT 17 4 26 16 29 20 32 22 34 25 22 29 20 31
 Flexibility Score: inf
  4 active torsions:
  status: ('A' for Active; 'I' for Inactive)
    1  A    between atoms: CA   and  CB  
    2  A    between atoms: CB   and  CG  
    3  A    between atoms: CG   and  CD  
    4  A    between atoms: CD   and  CE  

>  <TORSDO>
F 20

>  <BEGIN_>
RES LYS A 131

$$$$
ligand_45_pose_15_2HRL.pdbqt
 OpenBabel07062320523D

  6  5  0  0  0  0  0  0  0  0999 V2000
   33.1930   34.6630    9.2900 C   0  0  0  0  0  0  0  0  0  0  0  0
   32.0600   35.3600   10.0340 C   0  0  0  0  0  0  0  0  0  0  0  0
   30.7010   34.7780    9.7440 C   0  0  0  0  0  0  0  0  0  0  0  0
   29.9170   35.6860    8.8090 C   0  0  0  0  0  0  0  0  0  0  0  0
   29.5160   34.9370    7.5520 C   0  0  0  0  0  0  0  0  0  0  0  0
   28.5210   35.7130    6.7600 N   0  0  0  0  0  0  0  0  0  0  0  0
  1  2  1  0  0  0  0
  3  2  1  0  0  0  0
  4  3  1  0  0  0  0
  5  4  1  0  0  0  0
  6  5  1  0  0  0  0
M  END
>  <EGIN_R>
ES LYS A 135

>  <REMARK>
  4 active torsions:
  status: ('A' for Active; 'I' for Inactive)
    5  A    between atoms: CA   and  CB  
    6  A    between atoms: CB   and  CG  
    7  A    between atoms: CG   and  CD  
    8  A    between atoms: CD   and  CE  

$$$$
