ligand_70_pose_7_2HRL.pdbqt
 OpenBabel07062320523D

 53 55  0  0  1  0  0  0  0  0999 V2000
   24.7340   36.6390   10.5660 C   0  0  0  0  0  0  0  0  0  0  0  0
   24.5410   36.2390    9.1310 C   0  0  2  0  0  0  0  0  0  0  0  0
   25.2210   37.1520    8.1480 C   0  0  1  0  0  0  0  0  0  0  0  0
   26.4480   36.5720    7.5070 C   0  0  2  0  0  0  0  0  0  0  0  0
   28.4370   35.6020    8.2050 C   0  0  2  0  0  0  0  0  0  0  0  0
   28.9210   35.6240    6.7770 C   0  0  0  0  0  0  0  0  0  0  0  0
   27.0690   35.6270    8.3120 O   0  0  0  0  0  0  0  0  0  0  0  0
   28.3690   36.8070    6.0530 C   0  0  1  0  0  0  0  0  0  0  0  0
   27.3700   37.5910    6.9320 C   0  0  1  0  0  0  0  0  0  0  0  0
   29.0790   36.6310    8.8890 O   0  0  0  0  0  0  0  0  0  0  0  0
   30.0500   36.6080    8.7980 H   0  0  0  0  0  0  0  0  0  0  0  0
   28.9100   34.3210    8.8080 C   0  0  0  0  0  0  0  0  0  0  0  0
   30.1200   34.0130    8.6630 O   0  0  0  0  0  0  0  0  0  0  0  0
   28.0730   33.4730    9.5110 O   0  0  0  0  0  0  0  0  0  0  0  0
   28.2780   33.2530   10.4900 H   0  0  0  0  0  0  0  0  0  0  0  0
   29.4020   37.6710    5.6460 O   0  0  0  0  0  0  0  0  0  0  0  0
   30.2550   37.1750    5.6080 H   0  0  0  0  0  0  0  0  0  0  0  0
   26.5880   38.4620    6.0500 N   0  0  0  0  0  0  0  0  0  0  0  0
   26.6860   39.8770    6.0700 C   0  0  0  0  0  0  0  0  0  0  0  0
   25.9240   38.0440    5.3730 H   0  0  0  0  0  0  0  0  0  0  0  0
   25.8790   40.7450    5.1700 C   0  0  0  0  0  0  0  0  0  0  0  0
   27.4730   40.4480    6.8650 O   0  0  0  0  0  0  0  0  0  0  0  0
   24.2580   37.4960    7.1780 O   0  0  0  0  0  0  0  0  0  0  0  0
   24.4960   36.9940    6.3590 H   0  0  0  0  0  0  0  0  0  0  0  0
   23.1700   36.1070    8.8300 O   0  0  0  0  0  0  0  0  0  0  0  0
   22.7380   36.8800    9.3160 H   0  0  0  0  0  0  0  0  0  0  0  0
   25.5770   35.6700   11.2260 N   0  0  0  0  0  0  0  0  0  0  0  0
   26.9170   35.9250   11.5820 C   0  0  0  0  0  0  0  0  0  0  0  0
   25.2170   34.7080   11.4760 H   0  0  0  0  0  0  0  0  0  0  0  0
   27.4630   37.0220   11.3430 O   0  0  0  0  0  0  0  0  0  0  0  0
   27.7190   34.9710   12.2240 O   0  0  0  0  0  0  0  0  0  0  0  0
   28.6430   35.3820   13.2440 C   0  0  0  0  0  0  0  0  0  0  0  0
   29.0610   34.2200   14.0550 C   0  0  0  0  0  0  0  0  0  0  0  0
   28.3310   33.5190   14.9630 C   0  0  0  0  0  0  0  0  0  0  0  0
   30.2780   33.6680   14.0090 N   0  0  0  0  0  0  0  0  0  0  0  0
   29.1560   32.5440   15.4430 N   0  0  0  0  0  0  0  0  0  0  0  0
   30.3250   32.6520   14.8550 N   0  0  0  0  0  0  0  0  0  0  0  0
   28.8200   31.5730   16.4140 C   0  0  0  0  0  0  0  0  0  0  0  0
   29.4860   31.5760   17.6270 C   0  0  0  0  0  0  0  0  0  0  0  0
   27.8410   30.6470   16.1330 C   0  0  0  0  0  0  0  0  0  0  0  0
   29.1670   30.6530   18.5490 N   0  0  0  0  0  0  0  0  0  0  0  0
   27.5250   29.6990   17.1010 C   0  0  0  0  0  0  0  0  0  0  0  0
   28.2030   29.7230   18.3030 C   0  0  0  0  0  0  0  0  0  0  0  0
   26.5610   28.7720   16.8490 C   0  0  0  0  0  0  0  0  0  0  0  0
   27.8910   28.7840   19.2650 C   0  0  0  0  0  0  0  0  0  0  0  0
   26.2400   27.8200   17.8160 C   0  0  0  0  0  0  0  0  0  0  0  0
   26.9080   27.8330   19.0180 C   0  0  0  0  0  0  0  0  0  0  0  0
   29.8670   25.5550   16.9770 C   0  0  0  0  0  0  0  0  0  0  0  0
   28.3450   25.7220   17.0260 C   0  0  0  0  0  0  0  0  0  0  0  0
   27.6000   24.4070   16.8530 C   0  0  0  0  0  0  0  0  0  0  0  0
   26.7600   24.0700   18.0540 C   0  0  0  0  0  0  0  0  0  0  0  0
   25.4640   23.4070   17.5980 C   0  0  0  0  0  0  0  0  0  0  0  0
   24.6180   24.3740   16.8590 N   0  0  0  0  0  0  0  0  0  0  0  0
  1 27  1  0  0  0  0
  2  1  1  1  0  0  0
  3 23  1  6  0  0  0
  3  2  1  0  0  0  0
  4  3  1  1  0  0  0
  4  7  1  0  0  0  0
  5  7  1  0  0  0  0
  5 12  1  1  0  0  0
  5 10  1  0  0  0  0
  6  5  1  0  0  0  0
  8 16  1  1  0  0  0
  8  6  1  0  0  0  0
  8  9  1  0  0  0  0
  9 18  1  6  0  0  0
  9  4  1  0  0  0  0
 11 10  1  0  0  0  0
 12 14  1  0  0  0  0
 13 12  2  0  0  0  0
 14 15  1  0  0  0  0
 17 16  1  0  0  0  0
 18 19  1  0  0  0  0
 19 22  2  0  0  0  0
 20 18  1  0  0  0  0
 21 19  1  0  0  0  0
 24 23  1  0  0  0  0
 25  2  1  0  0  0  0
 25 26  1  0  0  0  0
 27 29  1  0  0  0  0
 27 28  1  0  0  0  0
 28 31  1  0  0  0  0
 30 28  2  0  0  0  0
 31 32  1  0  0  0  0
 32 33  1  0  0  0  0
 33 34  2  0  0  0  0
 34 36  1  0  0  0  0
 35 33  1  0  0  0  0
 35 37  2  0  0  0  0
 36 38  1  0  0  0  0
 37 36  1  0  0  0  0
 38 39  1  0  0  0  0
 39 41  2  0  0  0  0
 40 38  2  0  0  0  0
 40 42  1  0  0  0  0
 42 43  1  0  0  0  0
 43 41  1  0  0  0  0
 43 45  2  0  0  0  0
 44 42  2  0  0  0  0
 44 46  1  0  0  0  0
 46 47  2  0  0  0  0
 47 45  1  0  0  0  0
 48 49  1  0  0  0  0
 50 49  1  0  0  0  0
 50 51  1  0  0  0  0
 52 51  1  0  0  0  0
 53 52  1  0  0  0  0
M  END
>  <REMARK>
 VINA RESULT:    -6.024      6.840     12.187
 INTER + INTRA:         -14.958
 INTER:                 -10.907
 INTRA:                  -4.051
 UNBOUND:                -4.533
 SMILES CC(=O)N[C@@H]1[C@@H](O)C[C@](O)(C(=O)O)O[C@H]1C(O)[C@H](O)CNC(=O)OCc1cn(-c2cnc3ccccc3c2)nn1
 SMILES IDX 20 1 18 2 16 3 15 4 9 5 8 6 14 7 6 8 5 9 10 10 11 12 12 13
 SMILES IDX 13 14 7 16 4 18 2 19 1 21 3 22 17 23 19 25 21 27 22 28 23 30
 SMILES IDX 24 31 25 32 26 33 27 34 40 35 28 36 39 37 29 38 30 39 38 40
 SMILES IDX 31 41 37 42 32 43 36 44 33 45 35 46 34 47
 H PARENT 10 11 13 15 7 17 4 20 17 24 19 26 21 29
 Flexibility Score: inf
  4 active torsions:
  status: ('A' for Active; 'I' for Inactive)
    1  A    between atoms: CA   and  CB  
    2  A    between atoms: CB   and  CG  
    3  A    between atoms: CG   and  CD  
    4  A    between atoms: CD   and  CE  

>  <TORSDO>
F 15

>  <BEGIN_>
RES LYS A 131

$$$$
ligand_70_pose_7_2HRL.pdbqt
 OpenBabel07062320523D

  6  5  0  0  0  0  0  0  0  0999 V2000
   33.1930   34.6630    9.2900 C   0  0  0  0  0  0  0  0  0  0  0  0
   32.0600   35.3600   10.0340 C   0  0  0  0  0  0  0  0  0  0  0  0
   32.5300   36.4480   10.9650 C   0  0  0  0  0  0  0  0  0  0  0  0
   32.4740   35.9780   12.4110 C   0  0  0  0  0  0  0  0  0  0  0  0
   31.8700   37.0510   13.2960 C   0  0  0  0  0  0  0  0  0  0  0  0
   32.0510   36.7230   14.7370 N   0  0  0  0  0  0  0  0  0  0  0  0
  1  2  1  0  0  0  0
  2  3  1  0  0  0  0
  3  4  1  0  0  0  0
  4  5  1  0  0  0  0
  5  6  1  0  0  0  0
M  END
>  <EGIN_R>
ES LYS A 135

>  <REMARK>
  4 active torsions:
  status: ('A' for Active; 'I' for Inactive)
    5  A    between atoms: CA   and  CB  
    6  A    between atoms: CB   and  CG  
    7  A    between atoms: CG   and  CD  
    8  A    between atoms: CD   and  CE  

$$$$
