ligand_15_pose_11_2HRL.pdbqt
 OpenBabel07062320523D

 50 51  0  0  1  0  0  0  0  0999 V2000
   26.1950   29.8100   20.0290 C   0  0  0  0  0  0  0  0  0  0  0  0
   27.5190   30.0780   20.6790 C   0  0  2  0  0  0  0  0  0  0  0  0
   28.6490   29.2360   20.2010 C   0  0  2  0  0  0  0  0  0  0  0  0
   29.6210   28.8230   21.2880 C   0  0  2  0  0  0  0  0  0  0  0  0
   31.9130   29.1050   21.6990 C   0  0  2  0  0  0  0  0  0  0  0  0
   31.8520   27.7410   22.3290 C   0  0  0  0  0  0  0  0  0  0  0  0
   30.8530   29.3320   20.8950 O   0  0  0  0  0  0  0  0  0  0  0  0
   31.0960   26.8290   21.3900 C   0  0  1  0  0  0  0  0  0  0  0  0
   29.6420   27.3220   21.3570 C   0  0  1  0  0  0  0  0  0  0  0  0
   33.0730   29.1760   20.8770 O   0  0  0  0  0  0  0  0  0  0  0  0
   33.0550   28.3390   20.3440 H   0  0  0  0  0  0  0  0  0  0  0  0
   32.0040   30.1780   22.7270 C   0  0  0  0  0  0  0  0  0  0  0  0
   31.7220   30.0050   23.9250 O   0  0  0  0  0  0  0  0  0  0  0  0
   32.4210   31.4390   22.3380 O   0  0  0  0  0  0  0  0  0  0  0  0
   32.8020   31.6360   21.4110 H   0  0  0  0  0  0  0  0  0  0  0  0
   31.6040   27.0350   20.1090 O   0  0  0  0  0  0  0  0  0  0  0  0
   32.4980   27.4270   20.1020 H   0  0  0  0  0  0  0  0  0  0  0  0
   29.0710   26.8960   22.6040 N   0  0  0  0  0  0  0  0  0  0  0  0
   27.6900   26.6570   22.8060 C   0  0  0  0  0  0  0  0  0  0  0  0
   29.6920   26.7410   23.4400 H   0  0  0  0  0  0  0  0  0  0  0  0
   27.1430   26.2180   24.1240 C   0  0  0  0  0  0  0  0  0  0  0  0
   26.9030   26.8190   21.8520 O   0  0  0  0  0  0  0  0  0  0  0  0
   29.3370   29.9590   19.1950 O   0  0  0  0  0  0  0  0  0  0  0  0
   28.8640   30.8100   19.0780 H   0  0  0  0  0  0  0  0  0  0  0  0
   27.3570   29.8690   22.0650 O   0  0  0  0  0  0  0  0  0  0  0  0
   27.5150   30.7060   22.5680 H   0  0  0  0  0  0  0  0  0  0  0  0
   26.2490   29.3700   18.6730 N   0  0  0  0  0  0  0  0  0  0  0  0
   25.4340   30.0140   17.6730 C   0  0  0  0  0  0  0  0  0  0  0  0
   26.8340   28.5950   18.3020 H   0  0  0  0  0  0  0  0  0  0  0  0
   24.6930   30.9560   18.0440 O   0  0  0  0  0  0  0  0  0  0  0  0
   25.4670   29.6090   16.3470 O   0  0  0  0  0  0  0  0  0  0  0  0
   25.9440   30.5660   15.4110 C   0  0  0  0  0  0  0  0  0  0  0  0
   27.3790   30.8100   15.7380 C   0  0  0  0  0  0  0  0  0  0  0  0
   28.0300   32.0290   15.7280 C   0  0  0  0  0  0  0  0  0  0  0  0
   28.3130   29.9120   16.1030 N   0  0  0  0  0  0  0  0  0  0  0  0
   29.3130   31.8400   16.0800 N   0  0  0  0  0  0  0  0  0  0  0  0
   29.4400   30.5510   16.2970 N   0  0  0  0  0  0  0  0  0  0  0  0
   30.3690   32.7870   16.2110 C   0  0  0  0  0  0  0  0  0  0  0  0
   30.6140   33.4600   17.3930 C   0  0  0  0  0  0  0  0  0  0  0  0
   31.2010   33.0710   15.1480 C   0  0  0  0  0  0  0  0  0  0  0  0
   31.6440   34.3760   17.5060 C   0  0  0  0  0  0  0  0  0  0  0  0
   32.2370   33.9900   15.2560 C   0  0  0  0  0  0  0  0  0  0  0  0
   32.4750   34.6560   16.4360 C   0  0  0  0  0  0  0  0  0  0  0  0
   33.8790   35.9270   16.6460 Br  0  0  0  0  0  0  0  0  0  0  0  0
   29.8670   25.5550   16.9770 C   0  0  0  0  0  0  0  0  0  0  0  0
   28.3450   25.7220   17.0260 C   0  0  0  0  0  0  0  0  0  0  0  0
   27.6000   24.4180   16.7870 C   0  0  0  0  0  0  0  0  0  0  0  0
   26.2090   24.4470   17.3590 C   0  0  0  0  0  0  0  0  0  0  0  0
   26.2330   25.1350   18.7200 C   0  0  0  0  0  0  0  0  0  0  0  0
   25.5230   24.3140   19.7290 N   0  0  0  0  0  0  0  0  0  0  0  0
  2  1  1  6  0  0  0
  2 25  1  0  0  0  0
  3 23  1  6  0  0  0
  3  2  1  0  0  0  0
  4  3  1  6  0  0  0
  4  9  1  0  0  0  0
  5 10  1  6  0  0  0
  5  6  1  0  0  0  0
  5 12  1  0  0  0  0
  7  4  1  0  0  0  0
  7  5  1  0  0  0  0
  8 16  1  6  0  0  0
  8  6  1  0  0  0  0
  9  8  1  0  0  0  0
  9 18  1  1  0  0  0
 11 10  1  0  0  0  0
 12 13  2  0  0  0  0
 14 12  1  0  0  0  0
 15 14  1  0  0  0  0
 17 16  1  0  0  0  0
 18 19  1  0  0  0  0
 18 20  1  0  0  0  0
 19 21  1  0  0  0  0
 22 19  2  0  0  0  0
 24 23  1  0  0  0  0
 25 26  1  0  0  0  0
 27  1  1  0  0  0  0
 28 30  2  0  0  0  0
 28 27  1  0  0  0  0
 29 27  1  0  0  0  0
 31 28  1  0  0  0  0
 32 33  1  0  0  0  0
 32 31  1  0  0  0  0
 33 35  1  0  0  0  0
 34 33  2  0  0  0  0
 34 36  1  0  0  0  0
 35 37  2  0  0  0  0
 36 38  1  0  0  0  0
 36 37  1  0  0  0  0
 38 39  2  0  0  0  0
 39 41  1  0  0  0  0
 40 42  2  0  0  0  0
 40 38  1  0  0  0  0
 42 43  1  0  0  0  0
 43 44  1  0  0  0  0
 43 41  2  0  0  0  0
 45 46  1  0  0  0  0
 47 46  1  0  0  0  0
 47 48  1  0  0  0  0
 48 49  1  0  0  0  0
 49 50  1  0  0  0  0
M  END
>  <REMARK>
 VINA RESULT:    -5.247      2.109      3.827
 INTER + INTRA:         -14.243
 INTER:                  -8.499
 INTRA:                  -5.744
 UNBOUND:                -5.161
 SMILES CC(=O)N[C@@H]1[C@@H](O)C[C@](O)(C(=O)O)O[C@H]1C(O)[C@H](O)CNC(=O)OCc1cn(-c2ccc(Br)cc2)nn1
 SMILES IDX 20 1 18 2 16 3 15 4 9 5 8 6 14 7 6 8 5 9 10 10 11 12 12 13
 SMILES IDX 13 14 7 16 4 18 2 19 1 21 3 22 17 23 19 25 21 27 22 28 23 30
 SMILES IDX 24 31 25 32 26 33 27 34 37 35 28 36 36 37 29 38 30 39 35 40
 SMILES IDX 31 41 34 42 32 43 33 44
 H PARENT 10 11 13 15 7 17 4 20 17 24 19 26 21 29
 Flexibility Score: inf
  4 active torsions:
  status: ('A' for Active; 'I' for Inactive)
    1  A    between atoms: CA   and  CB  
    2  A    between atoms: CB   and  CG  
    3  A    between atoms: CG   and  CD  
    4  A    between atoms: CD   and  CE  

>  <TORSDO>
F 15

>  <BEGIN_>
RES LYS A 131

$$$$
ligand_15_pose_11_2HRL.pdbqt
 OpenBabel07062320523D

  6  5  0  0  0  0  0  0  0  0999 V2000
   33.1930   34.6630    9.2900 C   0  0  0  0  0  0  0  0  0  0  0  0
   32.0600   35.3600   10.0340 C   0  0  0  0  0  0  0  0  0  0  0  0
   30.7200   34.6950    9.8510 C   0  0  0  0  0  0  0  0  0  0  0  0
   30.3970   34.5370    8.3730 C   0  0  0  0  0  0  0  0  0  0  0  0
   28.9080   34.6980    8.1340 C   0  0  0  0  0  0  0  0  0  0  0  0
   28.6450   35.4730    6.8890 N   0  0  0  0  0  0  0  0  0  0  0  0
  1  2  1  0  0  0  0
  3  2  1  0  0  0  0
  4  3  1  0  0  0  0
  5  4  1  0  0  0  0
  6  5  1  0  0  0  0
M  END
>  <EGIN_R>
ES LYS A 135

>  <REMARK>
  4 active torsions:
  status: ('A' for Active; 'I' for Inactive)
    5  A    between atoms: CA   and  CB  
    6  A    between atoms: CB   and  CG  
    7  A    between atoms: CG   and  CD  
    8  A    between atoms: CD   and  CE  

$$$$
