ligand_84_pose_10_2HRL.pdbqt
 OpenBabel07062320523D

 60 62  0  0  1  0  0  0  0  0999 V2000
   25.7530   37.4760   10.3660 O   0  0  0  0  0  0  0  0  0  0  0  0
   24.8980   36.7690    9.5350 C   0  0  0  0  0  0  0  0  0  0  0  0
   23.5810   36.3720    9.8970 N   0  0  0  0  0  0  0  0  0  0  0  0
   23.2650   36.6300   10.8520 H   0  0  0  0  0  0  0  0  0  0  0  0
   25.3510   36.4820    8.3940 O   0  0  0  0  0  0  0  0  0  0  0  0
   22.8260   35.6610    8.9180 C   0  0  0  0  0  0  0  0  0  0  0  0
   21.6330   36.3410    8.3760 C   0  0  2  0  0  0  0  0  0  0  0  0
   20.3390   35.5500    8.4430 C   0  0  1  0  0  0  0  0  0  0  0  0
   19.2800   36.5970    8.7970 C   0  0  2  0  0  0  0  0  0  0  0  0
   18.7620   38.8020    8.2370 C   0  0  2  0  0  0  0  0  0  0  0  0
   18.3970   39.0780    9.6680 C   0  0  0  0  0  0  0  0  0  0  0  0
   19.5740   37.7140    8.0650 O   0  0  0  0  0  0  0  0  0  0  0  0
   18.1440   37.8680   10.4930 C   0  0  1  0  0  0  0  0  0  0  0  0
   19.3240   36.9000   10.2580 C   0  0  1  0  0  0  0  0  0  0  0  0
   19.5190   39.9320    7.8330 O   0  0  0  0  0  0  0  0  0  0  0  0
   18.9420   40.6410    7.4940 H   0  0  0  0  0  0  0  0  0  0  0  0
   17.5750   38.7640    7.3320 C   0  0  0  0  0  0  0  0  0  0  0  0
   16.4470   39.1260    7.7520 O   0  0  0  0  0  0  0  0  0  0  0  0
   17.6460   38.3410    6.0130 O   0  0  0  0  0  0  0  0  0  0  0  0
   17.5560   38.9520    5.2100 H   0  0  0  0  0  0  0  0  0  0  0  0
   18.1480   38.2350   11.8390 O   0  0  0  0  0  0  0  0  0  0  0  0
   18.9820   38.7220   12.0690 H   0  0  0  0  0  0  0  0  0  0  0  0
   19.1740   35.7320   11.0860 N   0  0  0  0  0  0  0  0  0  0  0  0
   20.1980   35.3200   11.9670 C   0  0  0  0  0  0  0  0  0  0  0  0
   18.2980   35.1870   11.0320 H   0  0  0  0  0  0  0  0  0  0  0  0
   19.9380   34.0950   12.7790 C   0  0  0  0  0  0  0  0  0  0  0  0
   21.2820   35.9280   12.0920 O   0  0  0  0  0  0  0  0  0  0  0  0
   20.0870   34.9950    7.1780 O   0  0  0  0  0  0  0  0  0  0  0  0
   19.7080   35.7290    6.6290 H   0  0  0  0  0  0  0  0  0  0  0  0
   21.8560   36.4960    6.9790 O   0  0  0  0  0  0  0  0  0  0  0  0
   22.6990   37.0290    6.9280 H   0  0  0  0  0  0  0  0  0  0  0  0
   25.8180   37.1910   11.7540 C   0  0  0  0  0  0  0  0  0  0  0  0
   26.8880   36.2060   12.0300 C   0  0  0  0  0  0  0  0  0  0  0  0
   27.8360   36.3500   13.0470 C   0  0  0  0  0  0  0  0  0  0  0  0
   27.1980   35.0350   11.4580 N   0  0  0  0  0  0  0  0  0  0  0  0
   28.6650   35.2980   13.0630 N   0  0  0  0  0  0  0  0  0  0  0  0
   28.2440   34.4970   12.0590 N   0  0  0  0  0  0  0  0  0  0  0  0
   29.7770   35.0080   13.9500 C   0  0  0  0  0  0  0  0  0  0  0  0
   29.5710   33.6250   14.5820 C   0  0  1  0  0  0  0  0  0  0  0  0
   30.8550   32.9990   14.9800 C   0  0  0  0  0  0  0  0  0  0  0  0
   28.4390   33.6150   15.5210 C   0  0  0  0  0  0  0  0  0  0  0  0
   27.2910   32.9150   15.0350 N   0  0  0  0  0  0  0  0  0  0  0  0
   26.9350   31.8190   15.9760 C   0  0  0  0  0  0  0  0  0  0  0  0
   26.1230   33.7890   15.0810 C   0  0  0  0  0  0  0  0  0  0  0  0
   25.6540   31.1670   15.5950 C   0  0  0  0  0  0  0  0  0  0  0  0
   25.1270   33.1370   14.1100 C   0  0  0  0  0  0  0  0  0  0  0  0
   24.9170   31.7830   14.5360 N   0  0  0  0  0  0  0  0  0  0  0  0
   23.9150   31.0310   13.8630 C   0  0  0  0  0  0  0  0  0  0  0  0
   24.0040   29.6560   13.8380 C   0  0  0  0  0  0  0  0  0  0  0  0
   22.8560   31.6610   13.2240 C   0  0  0  0  0  0  0  0  0  0  0  0
   23.0370   28.9340   13.1780 C   0  0  0  0  0  0  0  0  0  0  0  0
   21.8990   30.9310   12.5690 C   0  0  0  0  0  0  0  0  0  0  0  0
   21.9960   29.5490   12.5500 C   0  0  0  0  0  0  0  0  0  0  0  0
   20.7740   28.6350   11.7060 Cl  0  0  0  0  0  0  0  0  0  0  0  0
   29.8670   25.5550   16.9770 C   0  0  0  0  0  0  0  0  0  0  0  0
   28.3450   25.7220   17.0260 C   0  0  0  0  0  0  0  0  0  0  0  0
   27.6020   24.3980   16.9310 C   0  0  0  0  0  0  0  0  0  0  0  0
   26.1550   24.5320   17.3180 C   0  0  0  0  0  0  0  0  0  0  0  0
   25.6820   23.2370   17.9730 C   0  0  0  0  0  0  0  0  0  0  0  0
   24.4690   22.7260   17.2930 N   0  0  0  0  0  0  0  0  0  0  0  0
  1 32  1  0  0  0  0
  2  3  1  0  0  0  0
  2  1  1  0  0  0  0
  3  4  1  0  0  0  0
  5  2  2  0  0  0  0
  6  3  1  0  0  0  0
  7  8  1  0  0  0  0
  7  6  1  6  0  0  0
  8 28  1  6  0  0  0
  9  8  1  1  0  0  0
  9 14  1  0  0  0  0
 10 17  1  6  0  0  0
 10 11  1  0  0  0  0
 11 13  1  0  0  0  0
 12 10  1  0  0  0  0
 12  9  1  0  0  0  0
 13 21  1  1  0  0  0
 14 13  1  0  0  0  0
 14 23  1  1  0  0  0
 15 10  1  0  0  0  0
 16 15  1  0  0  0  0
 17 18  2  0  0  0  0
 19 17  1  0  0  0  0
 20 19  1  0  0  0  0
 21 22  1  0  0  0  0
 23 24  1  0  0  0  0
 24 27  2  0  0  0  0
 24 26  1  0  0  0  0
 25 23  1  0  0  0  0
 29 28  1  0  0  0  0
 30  7  1  0  0  0  0
 31 30  1  0  0  0  0
 32 33  1  0  0  0  0
 33 34  2  0  0  0  0
 34 36  1  0  0  0  0
 35 33  1  0  0  0  0
 35 37  2  0  0  0  0
 36 38  1  0  0  0  0
 37 36  1  0  0  0  0
 38 39  1  0  0  0  0
 39 40  1  1  0  0  0
 39 41  1  0  0  0  0
 42 44  1  0  0  0  0
 42 41  1  0  0  0  0
 42 43  1  0  0  0  0
 45 43  1  0  0  0  0
 46 47  1  0  0  0  0
 46 44  1  0  0  0  0
 47 45  1  0  0  0  0
 48 47  1  0  0  0  0
 49 48  1  0  0  0  0
 50 48  2  0  0  0  0
 51 49  2  0  0  0  0
 52 50  1  0  0  0  0
 53 52  2  0  0  0  0
 53 51  1  0  0  0  0
 54 53  1  0  0  0  0
 55 56  1  0  0  0  0
 57 56  1  0  0  0  0
 57 58  1  0  0  0  0
 58 59  1  0  0  0  0
 60 59  1  0  0  0  0
M  END
>  <REMARK>
 VINA RESULT:    -5.105      3.634      7.323
 INTER + INTRA:         -16.150
 INTER:                  -9.858
 INTRA:                  -6.293
 UNBOUND:                -6.121
 SMILES CC(=O)N[C@@H]1[C@@H](O)C[C@](O)(C(=O)O)O[C@H]1C(O)[C@H](O)CNC(=O)OCc1cn(C[C@@H](C)CN2CCN(c3ccc(Cl)cc3)CC2)nn1
 SMILES IDX 24 1 22 2 21 3 23 5 20 6 18 7 16 8 15 9 9 10 8 11 14 12 6 13
 SMILES IDX 5 14 10 15 11 17 12 18 13 19 7 21 4 23 2 24 1 26 3 27 17 28
 SMILES IDX 19 30 25 32 26 33 27 34 47 35 28 36 46 37 29 38 30 39 31 40
 SMILES IDX 32 41 33 42 34 43 45 44 35 45 44 46 36 47 37 48 38 49 43 50
 SMILES IDX 39 51 42 52 40 53 41 54
 H PARENT 21 4 10 16 13 20 7 22 4 25 17 29 19 31
 Flexibility Score: inf
  4 active torsions:
  status: ('A' for Active; 'I' for Inactive)
    1  A    between atoms: CA   and  CB  
    2  A    between atoms: CB   and  CG  
    3  A    between atoms: CG   and  CD  
    4  A    between atoms: CD   and  CE  

>  <TORSDO>
F 19

>  <BEGIN_>
RES LYS A 131

$$$$
ligand_84_pose_10_2HRL.pdbqt
 OpenBabel07062320523D

  6  5  0  0  0  0  0  0  0  0999 V2000
   33.1930   34.6630    9.2900 C   0  0  0  0  0  0  0  0  0  0  0  0
   32.0600   35.3600   10.0340 C   0  0  0  0  0  0  0  0  0  0  0  0
   30.7240   34.6840    9.8660 C   0  0  0  0  0  0  0  0  0  0  0  0
   30.4240   34.4450    8.3950 C   0  0  0  0  0  0  0  0  0  0  0  0
   28.9790   34.7830    8.0840 C   0  0  0  0  0  0  0  0  0  0  0  0
   28.8670   35.5370    6.8040 N   0  0  0  0  0  0  0  0  0  0  0  0
  1  2  1  0  0  0  0
  3  2  1  0  0  0  0
  4  3  1  0  0  0  0
  5  4  1  0  0  0  0
  6  5  1  0  0  0  0
M  END
>  <EGIN_R>
ES LYS A 135

>  <REMARK>
  4 active torsions:
  status: ('A' for Active; 'I' for Inactive)
    5  A    between atoms: CA   and  CB  
    6  A    between atoms: CB   and  CG  
    7  A    between atoms: CG   and  CD  
    8  A    between atoms: CD   and  CE  

$$$$
