ligand_8_pose_3_2HRL.pdbqt
 OpenBabel07062320523D

 50 51  0  0  1  0  0  0  0  0999 V2000
   26.1290   35.6060   15.5300 C   0  0  0  0  0  0  0  0  0  0  0  0
   27.6150   35.7910   15.3570 C   0  0  2  0  0  0  0  0  0  0  0  0
   28.2780   34.4760   15.6290 C   0  0  1  0  0  0  0  0  0  0  0  0
   29.7130   34.5500   16.0960 C   0  0  2  0  0  0  0  0  0  0  0  0
   31.1280   34.5800   14.2270 C   0  0  2  0  0  0  0  0  0  0  0  0
   32.2660   33.9670   15.0430 C   0  0  0  0  0  0  0  0  0  0  0  0
   30.3790   35.2750   15.1160 O   0  0  0  0  0  0  0  0  0  0  0  0
   31.6270   32.8920   15.8750 C   0  0  1  0  0  0  0  0  0  0  0  0
   30.3220   33.2840   16.5150 C   0  0  1  0  0  0  0  0  0  0  0  0
   30.5160   33.5510   13.5580 O   0  0  0  0  0  0  0  0  0  0  0  0
   31.1400   33.2320   12.8590 H   0  0  0  0  0  0  0  0  0  0  0  0
   31.7030   35.5180   13.2230 C   0  0  0  0  0  0  0  0  0  0  0  0
   31.3240   36.7150   13.2200 O   0  0  0  0  0  0  0  0  0  0  0  0
   32.6470   35.0970   12.2920 O   0  0  0  0  0  0  0  0  0  0  0  0
   33.0690   34.1730   12.3070 H   0  0  0  0  0  0  0  0  0  0  0  0
   31.4220   31.8040   15.0250 O   0  0  0  0  0  0  0  0  0  0  0  0
   32.2610   31.4580   14.6740 H   0  0  0  0  0  0  0  0  0  0  0  0
   30.5250   33.3310   17.9790 N   0  0  0  0  0  0  0  0  0  0  0  0
   30.3270   32.1890   18.7860 C   0  0  0  0  0  0  0  0  0  0  0  0
   30.8270   34.2330   18.4470 H   0  0  0  0  0  0  0  0  0  0  0  0
   30.5230   32.2310   20.2750 C   0  0  0  0  0  0  0  0  0  0  0  0
   29.9780   31.1200   18.2240 O   0  0  0  0  0  0  0  0  0  0  0  0
   27.4620   33.6640   16.3730 O   0  0  0  0  0  0  0  0  0  0  0  0
   27.9580   32.9010   16.7990 H   0  0  0  0  0  0  0  0  0  0  0  0
   28.0740   36.7590   16.2120 O   0  0  0  0  0  0  0  0  0  0  0  0
   28.4220   36.3870   17.0680 H   0  0  0  0  0  0  0  0  0  0  0  0
   25.3920   35.2140   14.3770 N   0  0  0  0  0  0  0  0  0  0  0  0
   24.8090   33.9400   14.2000 C   0  0  0  0  0  0  0  0  0  0  0  0
   25.2510   35.9050   13.5670 H   0  0  0  0  0  0  0  0  0  0  0  0
   24.8940   33.0180   15.0440 O   0  0  0  0  0  0  0  0  0  0  0  0
   24.0960   33.6900   13.0180 O   0  0  0  0  0  0  0  0  0  0  0  0
   23.1640   34.6640   12.6050 C   0  0  0  0  0  0  0  0  0  0  0  0
   23.5040   35.0630   11.2170 C   0  0  0  0  0  0  0  0  0  0  0  0
   24.8090   35.2690   10.7490 C   0  0  0  0  0  0  0  0  0  0  0  0
   22.7380   35.3140   10.1500 N   0  0  0  0  0  0  0  0  0  0  0  0
   24.7800   35.6260    9.4540 N   0  0  0  0  0  0  0  0  0  0  0  0
   23.5020   35.6460    9.1150 N   0  0  0  0  0  0  0  0  0  0  0  0
   25.9100   35.9190    8.6330 C   0  0  0  0  0  0  0  0  0  0  0  0
   26.6360   34.9240    8.0170 C   0  0  0  0  0  0  0  0  0  0  0  0
   26.3190   37.2190    8.4240 C   0  0  0  0  0  0  0  0  0  0  0  0
   27.7390   35.2280    7.2170 C   0  0  0  0  0  0  0  0  0  0  0  0
   27.4140   37.5250    7.6300 C   0  0  0  0  0  0  0  0  0  0  0  0
   25.3150   38.6130    9.2770 Br  0  0  0  0  0  0  0  0  0  0  0  0
   28.1420   36.5310    7.0120 C   0  0  0  0  0  0  0  0  0  0  0  0
   29.8670   25.5550   16.9770 C   0  0  0  0  0  0  0  0  0  0  0  0
   28.3450   25.7220   17.0260 C   0  0  0  0  0  0  0  0  0  0  0  0
   27.6010   24.4010   16.9040 C   0  0  0  0  0  0  0  0  0  0  0  0
   26.5440   24.2460   17.9620 C   0  0  0  0  0  0  0  0  0  0  0  0
   25.2110   24.7590   17.4280 C   0  0  0  0  0  0  0  0  0  0  0  0
   24.3750   23.6330   16.9500 N   0  0  0  0  0  0  0  0  0  0  0  0
  2  1  1  1  0  0  0
  2  3  1  0  0  0  0
  2 25  1  0  0  0  0
  3 23  1  1  0  0  0
  4  3  1  6  0  0  0
  4  9  1  0  0  0  0
  5 12  1  6  0  0  0
  5  6  1  0  0  0  0
  5  7  1  0  0  0  0
  6  8  1  0  0  0  0
  7  4  1  0  0  0  0
  8 16  1  6  0  0  0
  8  9  1  0  0  0  0
  9 18  1  1  0  0  0
 10  5  1  0  0  0  0
 11 10  1  0  0  0  0
 13 12  2  0  0  0  0
 14 15  1  0  0  0  0
 14 12  1  0  0  0  0
 17 16  1  0  0  0  0
 18 20  1  0  0  0  0
 18 19  1  0  0  0  0
 19 21  1  0  0  0  0
 22 19  2  0  0  0  0
 23 24  1  0  0  0  0
 25 26  1  0  0  0  0
 27  1  1  0  0  0  0
 28 27  1  0  0  0  0
 28 30  2  0  0  0  0
 29 27  1  0  0  0  0
 31 28  1  0  0  0  0
 32 31  1  0  0  0  0
 33 32  1  0  0  0  0
 34 33  2  0  0  0  0
 35 33  1  0  0  0  0
 36 34  1  0  0  0  0
 37 36  1  0  0  0  0
 37 35  2  0  0  0  0
 38 36  1  0  0  0  0
 39 38  2  0  0  0  0
 40 38  1  0  0  0  0
 40 43  1  0  0  0  0
 41 39  1  0  0  0  0
 42 40  2  0  0  0  0
 44 41  2  0  0  0  0
 44 42  1  0  0  0  0
 45 46  1  0  0  0  0
 47 46  1  0  0  0  0
 47 48  1  0  0  0  0
 49 48  1  0  0  0  0
 50 49  1  0  0  0  0
M  END
>  <REMARK>
 VINA RESULT:    -5.840      3.795      7.129
 INTER + INTRA:         -14.504
 INTER:                 -10.160
 INTRA:                  -4.344
 UNBOUND:                -4.396
 SMILES CC(=O)N[C@@H]1[C@@H](O)C[C@](O)(C(=O)O)O[C@H]1C(O)[C@H](O)CNC(=O)OCc1cn(-c2ccccc2Br)nn1
 SMILES IDX 20 1 18 2 16 3 15 4 9 5 8 6 14 7 6 8 5 9 10 10 11 12 12 13
 SMILES IDX 13 14 7 16 4 18 2 19 1 21 3 22 17 23 19 25 21 27 22 28 23 30
 SMILES IDX 24 31 25 32 26 33 27 34 37 35 28 36 36 37 29 38 30 39 34 40
 SMILES IDX 31 41 33 42 35 43 32 44
 H PARENT 10 11 13 15 7 17 4 20 17 24 19 26 21 29
 Flexibility Score: inf
  4 active torsions:
  status: ('A' for Active; 'I' for Inactive)
    1  A    between atoms: CA   and  CB  
    2  A    between atoms: CB   and  CG  
    3  A    between atoms: CG   and  CD  
    4  A    between atoms: CD   and  CE  

>  <TORSDO>
F 15

>  <BEGIN_>
RES LYS A 131

$$$$
ligand_8_pose_3_2HRL.pdbqt
 OpenBabel07062320523D

  6  5  0  0  0  0  0  0  0  0999 V2000
   33.1930   34.6630    9.2900 C   0  0  0  0  0  0  0  0  0  0  0  0
   32.0600   35.3600   10.0340 C   0  0  0  0  0  0  0  0  0  0  0  0
   30.7370   35.2960    9.3150 C   0  0  0  0  0  0  0  0  0  0  0  0
   29.6980   34.5810   10.1650 C   0  0  0  0  0  0  0  0  0  0  0  0
   28.8470   35.5840   10.9190 C   0  0  0  0  0  0  0  0  0  0  0  0
   28.0060   34.9080   11.9460 N   0  0  0  0  0  0  0  0  0  0  0  0
  1  2  1  0  0  0  0
  3  2  1  0  0  0  0
  3  4  1  0  0  0  0
  4  5  1  0  0  0  0
  5  6  1  0  0  0  0
M  END
>  <EGIN_R>
ES LYS A 135

>  <REMARK>
  4 active torsions:
  status: ('A' for Active; 'I' for Inactive)
    5  A    between atoms: CA   and  CB  
    6  A    between atoms: CB   and  CG  
    7  A    between atoms: CG   and  CD  
    8  A    between atoms: CD   and  CE  

$$$$
