ligand_63_pose_8_2HRL.pdbqt
 OpenBabel07062320523D

 51 52  0  0  1  0  0  0  0  0999 V2000
   26.4900   36.7280   10.7460 N   0  0  0  0  0  0  0  0  0  0  0  0
   27.8540   36.8370   11.1790 C   0  0  0  0  0  0  0  0  0  0  0  0
   28.5450   37.8230   10.9000 O   0  0  0  0  0  0  0  0  0  0  0  0
   26.0180   35.8260   11.0890 H   0  0  0  0  0  0  0  0  0  0  0  0
   25.8070   37.6800   10.0100 C   0  0  0  0  0  0  0  0  0  0  0  0
   25.1350   37.2340    8.6870 C   0  0  2  0  0  0  0  0  0  0  0  0
   26.2740   36.9350    7.7900 C   0  0  1  0  0  0  0  0  0  0  0  0
   27.3360   37.9520    7.5800 C   0  0  2  0  0  0  0  0  0  0  0  0
   27.5490   38.9370    5.4540 C   0  0  2  0  0  0  0  0  0  0  0  0
   28.9810   39.3620    5.6680 C   0  0  0  0  0  0  0  0  0  0  0  0
   26.8280   38.9010    6.6490 O   0  0  0  0  0  0  0  0  0  0  0  0
   29.4970   38.8270    7.0200 C   0  0  1  0  0  0  0  0  0  0  0  0
   28.6840   37.5240    7.2150 C   0  0  1  0  0  0  0  0  0  0  0  0
   27.4960   37.7580    4.7260 O   0  0  0  0  0  0  0  0  0  0  0  0
   26.6670   37.6100    4.2480 H   0  0  0  0  0  0  0  0  0  0  0  0
   26.9160   40.0290    4.6870 C   0  0  0  0  0  0  0  0  0  0  0  0
   27.2630   40.6330    3.7470 O   0  0  0  0  0  0  0  0  0  0  0  0
   25.5950   40.3960    5.2440 O   0  0  0  0  0  0  0  0  0  0  0  0
   25.0360   39.6140    5.5940 H   0  0  0  0  0  0  0  0  0  0  0  0
   30.8450   38.5800    6.9740 O   0  0  0  0  0  0  0  0  0  0  0  0
   31.3450   39.3490    6.6470 H   0  0  0  0  0  0  0  0  0  0  0  0
   29.3710   36.7550    8.2620 N   0  0  0  0  0  0  0  0  0  0  0  0
   29.7470   35.4320    7.9830 C   0  0  0  0  0  0  0  0  0  0  0  0
   29.5760   37.1860    9.1430 H   0  0  0  0  0  0  0  0  0  0  0  0
   30.4290   34.4040    8.6790 C   0  0  0  0  0  0  0  0  0  0  0  0
   29.3450   35.1220    6.7170 O   0  0  0  0  0  0  0  0  0  0  0  0
   26.6620   35.6300    7.8850 O   0  0  0  0  0  0  0  0  0  0  0  0
   26.0100   35.0030    7.4730 H   0  0  0  0  0  0  0  0  0  0  0  0
   24.2890   38.2530    8.3540 O   0  0  0  0  0  0  0  0  0  0  0  0
   23.7030   37.9680    7.6080 H   0  0  0  0  0  0  0  0  0  0  0  0
   28.4010   35.8010   11.9390 O   0  0  0  0  0  0  0  0  0  0  0  0
   27.6020   35.0920   12.9100 C   0  0  0  0  0  0  0  0  0  0  0  0
   28.6440   34.5050   13.8310 C   0  0  0  0  0  0  0  0  0  0  0  0
   28.4770   34.1820   15.1450 C   0  0  0  0  0  0  0  0  0  0  0  0
   29.8670   34.1340   13.4560 N   0  0  0  0  0  0  0  0  0  0  0  0
   29.6520   33.5960   15.5320 N   0  0  0  0  0  0  0  0  0  0  0  0
   30.4720   33.5870   14.4710 N   0  0  0  0  0  0  0  0  0  0  0  0
   29.9590   33.0720   16.7830 C   0  0  0  0  0  0  0  0  0  0  0  0
   30.6080   33.8590   17.7390 N   0  0  0  0  0  0  0  0  0  0  0  0
   29.7700   31.7650   17.1800 C   0  0  0  0  0  0  0  0  0  0  0  0
   30.9670   33.3550   18.8440 C   0  0  0  0  0  0  0  0  0  0  0  0
   30.1530   31.2520   18.3370 C   0  0  0  0  0  0  0  0  0  0  0  0
   30.8170   32.0310   19.3290 C   0  0  0  0  0  0  0  0  0  0  0  0
   29.1390   30.8170   16.1820 C   0  0  0  0  0  0  0  0  0  0  0  0
   28.7350   30.1770   15.5130 N   0  0  0  0  0  0  0  0  0  0  0  0
   29.8670   25.5550   16.9770 C   0  0  0  0  0  0  0  0  0  0  0  0
   28.3450   25.7220   17.0260 C   0  0  0  0  0  0  0  0  0  0  0  0
   27.6010   24.4030   16.8850 C   0  0  0  0  0  0  0  0  0  0  0  0
   26.5370   24.2380   17.9340 C   0  0  0  0  0  0  0  0  0  0  0  0
   25.1920   23.9850   17.2600 C   0  0  0  0  0  0  0  0  0  0  0  0
   24.7530   22.5870   17.4860 N   0  0  0  0  0  0  0  0  0  0  0  0
  1  4  1  0  0  0  0
  1  2  1  0  0  0  0
  2 31  1  0  0  0  0
  3  2  2  0  0  0  0
  5  1  1  0  0  0  0
  6  5  1  1  0  0  0
  7 27  1  1  0  0  0
  7  6  1  0  0  0  0
  8  7  1  6  0  0  0
  9 16  1  6  0  0  0
  9 10  1  0  0  0  0
  9 11  1  0  0  0  0
 10 12  1  0  0  0  0
 11  8  1  0  0  0  0
 12 20  1  6  0  0  0
 12 13  1  0  0  0  0
 13  8  1  0  0  0  0
 13 22  1  1  0  0  0
 14  9  1  0  0  0  0
 15 14  1  0  0  0  0
 16 18  1  0  0  0  0
 17 16  2  0  0  0  0
 18 19  1  0  0  0  0
 21 20  1  0  0  0  0
 22 24  1  0  0  0  0
 23 22  1  0  0  0  0
 23 25  1  0  0  0  0
 26 23  2  0  0  0  0
 28 27  1  0  0  0  0
 29  6  1  0  0  0  0
 30 29  1  0  0  0  0
 31 32  1  0  0  0  0
 32 33  1  0  0  0  0
 33 34  2  0  0  0  0
 34 36  1  0  0  0  0
 35 33  1  0  0  0  0
 35 37  2  0  0  0  0
 36 38  1  0  0  0  0
 37 36  1  0  0  0  0
 38 40  2  0  0  0  0
 38 39  1  0  0  0  0
 39 41  2  0  0  0  0
 40 42  1  0  0  0  0
 41 43  1  0  0  0  0
 42 43  2  0  0  0  0
 44 40  1  0  0  0  0
 45 44  3  0  0  0  0
 46 47  1  0  0  0  0
 48 47  1  0  0  0  0
 48 49  1  0  0  0  0
 50 51  1  0  0  0  0
 50 49  1  0  0  0  0
M  END
>  <REMARK>
 VINA RESULT:    -4.155      2.289      4.274
 INTER + INTRA:         -14.475
 INTER:                 -10.366
 INTRA:                  -4.109
 UNBOUND:                -7.042
 SMILES CC(=O)N[C@@H]1[C@@H](O)C[C@](O)(C(=O)O)O[C@H]1C(O)[C@H](O)CNC(=O)OCc1cn(-c2ncccc2C#N)nn1
 SMILES IDX 21 1 22 2 23 3 20 5 18 6 16 7 15 8 9 9 8 10 14 11 6 12 5 13
 SMILES IDX 10 14 11 16 12 17 13 18 7 20 4 22 2 23 1 25 3 26 17 27 19 29
 SMILES IDX 24 31 25 32 26 33 27 34 38 35 28 36 37 37 29 38 30 39 34 40
 SMILES IDX 31 41 33 42 32 43 35 44 36 45
 H PARENT 21 4 10 15 13 19 7 21 4 24 17 28 19 30
 Flexibility Score: inf
  4 active torsions:
  status: ('A' for Active; 'I' for Inactive)
    1  A    between atoms: CA   and  CB  
    2  A    between atoms: CB   and  CG  
    3  A    between atoms: CG   and  CD  
    4  A    between atoms: CD   and  CE  

>  <TORSDO>
F 16

>  <BEGIN_>
RES LYS A 131

$$$$
ligand_63_pose_8_2HRL.pdbqt
 OpenBabel07062320523D

  6  5  0  0  0  0  0  0  0  0999 V2000
   33.1930   34.6630    9.2900 C   0  0  0  0  0  0  0  0  0  0  0  0
   32.0600   35.3600   10.0340 C   0  0  0  0  0  0  0  0  0  0  0  0
   32.4450   35.8320   11.4120 C   0  0  0  0  0  0  0  0  0  0  0  0
   31.9270   37.2400   11.6620 C   0  0  0  0  0  0  0  0  0  0  0  0
   31.5050   37.4030   13.1090 C   0  0  0  0  0  0  0  0  0  0  0  0
   30.8460   38.7210   13.3300 N   0  0  0  0  0  0  0  0  0  0  0  0
  1  2  1  0  0  0  0
  2  3  1  0  0  0  0
  3  4  1  0  0  0  0
  4  5  1  0  0  0  0
  5  6  1  0  0  0  0
M  END
>  <EGIN_R>
ES LYS A 135

>  <REMARK>
  4 active torsions:
  status: ('A' for Active; 'I' for Inactive)
    5  A    between atoms: CA   and  CB  
    6  A    between atoms: CB   and  CG  
    7  A    between atoms: CG   and  CD  
    8  A    between atoms: CD   and  CE  

$$$$
