ligand_67_pose_15_2HRL.pdbqt
 OpenBabel07062320523D

 50 51  0  0  1  0  0  0  0  0999 V2000
   31.9540   40.8750    8.6460 N   0  0  0  0  0  0  0  0  0  0  0  0
   31.5720   41.9180    9.5240 C   0  0  0  0  0  0  0  0  0  0  0  0
   30.5880   42.6690    9.2070 O   0  0  0  0  0  0  0  0  0  0  0  0
   32.7480   40.2620    8.8940 H   0  0  0  0  0  0  0  0  0  0  0  0
   31.2370   40.6790    7.4300 C   0  0  0  0  0  0  0  0  0  0  0  0
   30.6230   39.3120    7.3020 C   0  0  2  0  0  0  0  0  0  0  0  0
   29.1820   39.2750    7.7130 C   0  0  1  0  0  0  0  0  0  0  0  0
   28.7370   37.8500    7.9590 C   0  0  2  0  0  0  0  0  0  0  0  0
   28.9700   35.7260    7.0400 C   0  0  2  0  0  0  0  0  0  0  0  0
   27.5160   35.4840    7.3250 C   0  0  0  0  0  0  0  0  0  0  0  0
   29.3430   37.0440    7.0310 O   0  0  0  0  0  0  0  0  0  0  0  0
   26.7600   36.7370    6.9330 C   0  0  1  0  0  0  0  0  0  0  0  0
   27.2180   37.8390    7.8790 C   0  0  1  0  0  0  0  0  0  0  0  0
   29.2240   35.2250    5.7420 O   0  0  0  0  0  0  0  0  0  0  0  0
   30.1220   34.8480    5.6670 H   0  0  0  0  0  0  0  0  0  0  0  0
   29.8170   34.8910    7.9500 C   0  0  0  0  0  0  0  0  0  0  0  0
   29.3780   33.9480    8.6450 O   0  0  0  0  0  0  0  0  0  0  0  0
   31.1690   35.1990    8.0120 O   0  0  0  0  0  0  0  0  0  0  0  0
   31.6680   35.7120    7.2920 H   0  0  0  0  0  0  0  0  0  0  0  0
   27.1380   37.0900    5.6290 O   0  0  0  0  0  0  0  0  0  0  0  0
   27.8380   36.4930    5.2720 H   0  0  0  0  0  0  0  0  0  0  0  0
   26.6180   37.5950    9.1820 N   0  0  0  0  0  0  0  0  0  0  0  0
   25.9990   38.6690    9.8700 C   0  0  0  0  0  0  0  0  0  0  0  0
   26.6400   36.6290    9.6190 H   0  0  0  0  0  0  0  0  0  0  0  0
   25.3610   38.5210   11.2030 C   0  0  0  0  0  0  0  0  0  0  0  0
   25.9950   39.8040    9.3110 O   0  0  0  0  0  0  0  0  0  0  0  0
   28.9470   40.1040    8.8090 O   0  0  0  0  0  0  0  0  0  0  0  0
   28.2890   39.7470    9.4430 H   0  0  0  0  0  0  0  0  0  0  0  0
   31.3500   38.4160    8.0730 O   0  0  0  0  0  0  0  0  0  0  0  0
   32.2570   38.7140    8.2750 H   0  0  0  0  0  0  0  0  0  0  0  0
   32.1870   42.1960   10.7120 O   0  0  0  0  0  0  0  0  0  0  0  0
   31.8330   41.6710   11.9760 C   0  0  0  0  0  0  0  0  0  0  0  0
   30.7490   40.6650   11.8870 C   0  0  0  0  0  0  0  0  0  0  0  0
   30.9000   39.3070   11.7290 C   0  0  0  0  0  0  0  0  0  0  0  0
   29.4260   40.8850   11.9410 N   0  0  0  0  0  0  0  0  0  0  0  0
   29.6730   38.7450   11.6910 N   0  0  0  0  0  0  0  0  0  0  0  0
   28.7980   39.7250   11.8210 N   0  0  0  0  0  0  0  0  0  0  0  0
   29.3200   37.3390   11.5420 C   0  0  0  0  0  0  0  0  0  0  0  0
   28.4570   36.8840   12.6990 C   0  0  0  0  0  0  0  0  0  0  0  0
   27.7340   35.6210   12.3730 C   0  0  0  0  0  0  0  0  0  0  0  0
   27.6230   35.3640   11.0130 O   0  0  0  0  0  0  0  0  0  0  0  0
   26.4520   35.5460   12.8980 O   0  0  0  0  0  0  0  0  0  0  0  0
   26.5390   34.5020   10.8640 C   0  0  0  0  0  0  0  0  0  0  0  0
   25.7170   34.6990   12.1040 C   0  0  0  0  0  0  0  0  0  0  0  0
   29.8670   25.5550   16.9770 C   0  0  0  0  0  0  0  0  0  0  0  0
   28.3450   25.7220   17.0260 C   0  0  0  0  0  0  0  0  0  0  0  0
   27.6010   24.4010   16.9040 C   0  0  0  0  0  0  0  0  0  0  0  0
   26.1490   24.5320   17.2700 C   0  0  0  0  0  0  0  0  0  0  0  0
   26.0210   24.7520   18.7740 C   0  0  0  0  0  0  0  0  0  0  0  0
   25.2700   25.9990   19.0540 N   0  0  0  0  0  0  0  0  0  0  0  0
  1  4  1  0  0  0  0
  1  2  1  0  0  0  0
  2 31  1  0  0  0  0
  3  2  2  0  0  0  0
  5  1  1  0  0  0  0
  6  5  1  1  0  0  0
  6  7  1  0  0  0  0
  6 29  1  0  0  0  0
  7 27  1  1  0  0  0
  8  7  1  6  0  0  0
  9 14  1  6  0  0  0
  9 10  1  0  0  0  0
  9 16  1  0  0  0  0
 11  9  1  0  0  0  0
 11  8  1  0  0  0  0
 12 20  1  6  0  0  0
 12 10  1  0  0  0  0
 12 13  1  0  0  0  0
 13  8  1  0  0  0  0
 13 22  1  1  0  0  0
 15 14  1  0  0  0  0
 16 18  1  0  0  0  0
 16 17  2  0  0  0  0
 19 18  1  0  0  0  0
 21 20  1  0  0  0  0
 22 24  1  0  0  0  0
 22 23  1  0  0  0  0
 23 25  1  0  0  0  0
 26 23  2  0  0  0  0
 27 28  1  0  0  0  0
 29 30  1  0  0  0  0
 31 32  1  0  0  0  0
 33 35  1  0  0  0  0
 33 32  1  0  0  0  0
 34 33  2  0  0  0  0
 36 34  1  0  0  0  0
 36 37  1  0  0  0  0
 37 35  2  0  0  0  0
 38 36  1  0  0  0  0
 38 39  1  0  0  0  0
 40 39  1  0  0  0  0
 40 42  1  0  0  0  0
 41 40  1  0  0  0  0
 43 41  1  0  0  0  0
 43 44  1  0  0  0  0
 44 42  1  0  0  0  0
 45 46  1  0  0  0  0
 47 46  1  0  0  0  0
 47 48  1  0  0  0  0
 48 49  1  0  0  0  0
 49 50  1  0  0  0  0
M  END
>  <REMARK>
 VINA RESULT:    -4.204      4.085      8.761
 INTER + INTRA:         -14.060
 INTER:                  -8.179
 INTRA:                  -5.882
 UNBOUND:                -6.292
 SMILES CC(=O)N[C@@H]1[C@@H](O)C[C@](O)(C(=O)O)O[C@H]1C(O)[C@H](O)CNC(=O)OCc1cn(CCC2OCCO2)nn1
 SMILES IDX 21 1 22 2 23 3 20 5 18 6 16 7 15 8 9 9 8 10 14 11 6 12 5 13
 SMILES IDX 10 14 11 16 12 17 13 18 7 20 4 22 2 23 1 25 3 26 17 27 19 29
 SMILES IDX 24 31 25 32 26 33 27 34 37 35 28 36 36 37 29 38 30 39 31 40
 SMILES IDX 32 41 35 42 33 43 34 44
 H PARENT 21 4 10 15 13 19 7 21 4 24 17 28 19 30
 Flexibility Score: inf
  4 active torsions:
  status: ('A' for Active; 'I' for Inactive)
    1  A    between atoms: CA   and  CB  
    2  A    between atoms: CB   and  CG  
    3  A    between atoms: CG   and  CD  
    4  A    between atoms: CD   and  CE  

>  <TORSDO>
F 17

>  <BEGIN_>
RES LYS A 131

$$$$
ligand_67_pose_15_2HRL.pdbqt
 OpenBabel07062320523D

  6  5  0  0  0  0  0  0  0  0999 V2000
   33.1930   34.6630    9.2900 C   0  0  0  0  0  0  0  0  0  0  0  0
   32.0600   35.3600   10.0340 C   0  0  0  0  0  0  0  0  0  0  0  0
   32.0090   35.0260   11.5030 C   0  0  0  0  0  0  0  0  0  0  0  0
   32.6630   36.1250   12.3260 C   0  0  0  0  0  0  0  0  0  0  0  0
   32.1400   36.1070   13.7490 C   0  0  0  0  0  0  0  0  0  0  0  0
   31.2500   34.9360   13.9790 N   0  0  0  0  0  0  0  0  0  0  0  0
  1  2  1  0  0  0  0
  2  3  1  0  0  0  0
  3  4  1  0  0  0  0
  4  5  1  0  0  0  0
  5  6  1  0  0  0  0
M  END
>  <EGIN_R>
ES LYS A 135

>  <REMARK>
  4 active torsions:
  status: ('A' for Active; 'I' for Inactive)
    5  A    between atoms: CA   and  CB  
    6  A    between atoms: CB   and  CG  
    7  A    between atoms: CG   and  CD  
    8  A    between atoms: CD   and  CE  

$$$$
