ligand_27_pose_18_2HRL.pdbqt
 OpenBabel07062320523D

 50 51  0  0  1  0  0  0  0  0999 V2000
   27.8440   37.4020   17.4750 C   0  0  0  0  0  0  0  0  0  0  0  0
   29.1280   37.4650   16.6990 C   0  0  2  0  0  0  0  0  0  0  0  0
   29.3500   36.2640   15.8260 C   0  0  2  0  0  0  0  0  0  0  0  0
   30.7750   35.7290   15.9870 C   0  0  2  0  0  0  0  0  0  0  0  0
   31.6650   34.9270   13.9640 C   0  0  2  0  0  0  0  0  0  0  0  0
   32.1340   33.6780   14.6970 C   0  0  0  0  0  0  0  0  0  0  0  0
   31.4340   35.9300   14.8400 O   0  0  0  0  0  0  0  0  0  0  0  0
   30.9150   33.2570   15.5160 C   0  0  1  0  0  0  0  0  0  0  0  0
   30.6870   34.3460   16.5280 C   0  0  1  0  0  0  0  0  0  0  0  0
   30.5560   34.5400   13.2230 O   0  0  0  0  0  0  0  0  0  0  0  0
   30.4290   35.1880   12.4870 H   0  0  0  0  0  0  0  0  0  0  0  0
   32.7230   35.3660   13.0240 C   0  0  0  0  0  0  0  0  0  0  0  0
   32.5780   36.4460   12.4060 O   0  0  0  0  0  0  0  0  0  0  0  0
   33.8770   34.6310   12.7950 O   0  0  0  0  0  0  0  0  0  0  0  0
   34.5450   34.5260   13.5670 H   0  0  0  0  0  0  0  0  0  0  0  0
   29.7760   33.1610   14.7230 O   0  0  0  0  0  0  0  0  0  0  0  0
   29.1790   32.4130   15.0090 H   0  0  0  0  0  0  0  0  0  0  0  0
   31.6500   34.1420   17.5890 N   0  0  0  0  0  0  0  0  0  0  0  0
   31.3080   34.4840   18.9220 C   0  0  0  0  0  0  0  0  0  0  0  0
   32.6130   33.7430   17.3910 H   0  0  0  0  0  0  0  0  0  0  0  0
   32.3030   34.2730   20.0060 C   0  0  0  0  0  0  0  0  0  0  0  0
   30.1720   34.9600   19.1760 O   0  0  0  0  0  0  0  0  0  0  0  0
   29.1610   36.7020   14.4970 O   0  0  0  0  0  0  0  0  0  0  0  0
   28.2200   36.7790   14.2850 H   0  0  0  0  0  0  0  0  0  0  0  0
   30.1980   37.5670   17.6060 O   0  0  0  0  0  0  0  0  0  0  0  0
   30.9540   37.9810   17.1530 H   0  0  0  0  0  0  0  0  0  0  0  0
   26.7330   37.1270   16.5710 N   0  0  0  0  0  0  0  0  0  0  0  0
   25.8780   36.0190   16.7910 C   0  0  0  0  0  0  0  0  0  0  0  0
   26.5910   37.7670   15.7640 H   0  0  0  0  0  0  0  0  0  0  0  0
   26.0870   35.2710   17.7790 O   0  0  0  0  0  0  0  0  0  0  0  0
   24.8120   35.7210   15.9570 O   0  0  0  0  0  0  0  0  0  0  0  0
   24.8130   34.4800   15.2870 C   0  0  0  0  0  0  0  0  0  0  0  0
   25.7690   34.5370   14.1500 C   0  0  0  0  0  0  0  0  0  0  0  0
   25.4580   34.7410   12.8180 C   0  0  0  0  0  0  0  0  0  0  0  0
   27.1080   34.4050   14.1760 N   0  0  0  0  0  0  0  0  0  0  0  0
   26.5940   34.7280   12.0820 N   0  0  0  0  0  0  0  0  0  0  0  0
   27.5770   34.5210   12.9430 N   0  0  0  0  0  0  0  0  0  0  0  0
   26.7020   34.9010   10.6750 C   0  0  0  0  0  0  0  0  0  0  0  0
   27.4500   34.0050    9.9430 C   0  0  0  0  0  0  0  0  0  0  0  0
   26.0910   35.9300    9.9890 C   0  0  0  0  0  0  0  0  0  0  0  0
   27.5850   34.1320    8.5700 C   0  0  0  0  0  0  0  0  0  0  0  0
   26.2040   36.0870    8.6240 C   0  0  0  0  0  0  0  0  0  0  0  0
   26.9610   35.1720    7.9200 C   0  0  0  0  0  0  0  0  0  0  0  0
   25.4030   37.4230    7.7840 Cl  0  0  0  0  0  0  0  0  0  0  0  0
   29.8670   25.5550   16.9770 C   0  0  0  0  0  0  0  0  0  0  0  0
   28.3450   25.7220   17.0260 C   0  0  0  0  0  0  0  0  0  0  0  0
   27.6010   24.4040   16.8760 C   0  0  0  0  0  0  0  0  0  0  0  0
   26.2090   24.4720   17.4400 C   0  0  0  0  0  0  0  0  0  0  0  0
   25.6410   23.0620   17.5670 C   0  0  0  0  0  0  0  0  0  0  0  0
   25.1330   22.8290   18.9390 N   0  0  0  0  0  0  0  0  0  0  0  0
  2  1  1  1  0  0  0
  2 25  1  0  0  0  0
  3 23  1  6  0  0  0
  3  2  1  0  0  0  0
  4  3  1  6  0  0  0
  4  9  1  0  0  0  0
  5 12  1  6  0  0  0
  5  6  1  0  0  0  0
  5  7  1  0  0  0  0
  6  8  1  0  0  0  0
  7  4  1  0  0  0  0
  8 16  1  6  0  0  0
  8  9  1  0  0  0  0
  9 18  1  1  0  0  0
 10  5  1  0  0  0  0
 11 10  1  0  0  0  0
 13 12  2  0  0  0  0
 14 12  1  0  0  0  0
 14 15  1  0  0  0  0
 16 17  1  0  0  0  0
 18 19  1  0  0  0  0
 19 22  2  0  0  0  0
 19 21  1  0  0  0  0
 20 18  1  0  0  0  0
 24 23  1  0  0  0  0
 26 25  1  0  0  0  0
 27 28  1  0  0  0  0
 27  1  1  0  0  0  0
 28 30  2  0  0  0  0
 29 27  1  0  0  0  0
 31 28  1  0  0  0  0
 32 31  1  0  0  0  0
 33 35  1  0  0  0  0
 33 32  1  0  0  0  0
 34 33  2  0  0  0  0
 36 34  1  0  0  0  0
 36 37  1  0  0  0  0
 37 35  2  0  0  0  0
 38 36  1  0  0  0  0
 39 38  2  0  0  0  0
 40 38  1  0  0  0  0
 41 39  1  0  0  0  0
 42 40  2  0  0  0  0
 43 41  2  0  0  0  0
 43 42  1  0  0  0  0
 44 42  1  0  0  0  0
 45 46  1  0  0  0  0
 47 46  1  0  0  0  0
 47 48  1  0  0  0  0
 48 49  1  0  0  0  0
 49 50  1  0  0  0  0
M  END
>  <REMARK>
 VINA RESULT:    -5.333      5.034      7.666
 INTER + INTRA:         -13.726
 INTER:                  -8.300
 INTRA:                  -5.427
 UNBOUND:                -4.497
 SMILES CC(=O)N[C@@H]1[C@@H](O)C[C@](O)(C(=O)O)O[C@H]1C(O)[C@H](O)CNC(=O)OCc1cn(-c2cccc(Cl)c2)nn1
 SMILES IDX 20 1 18 2 16 3 15 4 9 5 8 6 14 7 6 8 5 9 10 10 11 12 12 13
 SMILES IDX 13 14 7 16 4 18 2 19 1 21 3 22 17 23 19 25 21 27 22 28 23 30
 SMILES IDX 24 31 25 32 26 33 27 34 37 35 28 36 36 37 29 38 30 39 35 40
 SMILES IDX 31 41 33 42 32 43 34 44
 H PARENT 10 11 13 15 7 17 4 20 17 24 19 26 21 29
 Flexibility Score: inf
  4 active torsions:
  status: ('A' for Active; 'I' for Inactive)
    1  A    between atoms: CA   and  CB  
    2  A    between atoms: CB   and  CG  
    3  A    between atoms: CG   and  CD  
    4  A    between atoms: CD   and  CE  

>  <TORSDO>
F 15

>  <BEGIN_>
RES LYS A 131

$$$$
ligand_27_pose_18_2HRL.pdbqt
 OpenBabel07062320523D

  6  5  0  0  0  0  0  0  0  0999 V2000
   33.1930   34.6630    9.2900 C   0  0  0  0  0  0  0  0  0  0  0  0
   32.0600   35.3600   10.0340 C   0  0  0  0  0  0  0  0  0  0  0  0
   30.7610   35.3800    9.2710 C   0  0  0  0  0  0  0  0  0  0  0  0
   30.1560   36.7750    9.2770 C   0  0  0  0  0  0  0  0  0  0  0  0
   29.5770   37.0990   10.6410 C   0  0  0  0  0  0  0  0  0  0  0  0
   30.1120   38.3880   11.1590 N   0  0  0  0  0  0  0  0  0  0  0  0
  1  2  1  0  0  0  0
  3  4  1  0  0  0  0
  3  2  1  0  0  0  0
  4  5  1  0  0  0  0
  5  6  1  0  0  0  0
M  END
>  <EGIN_R>
ES LYS A 135

>  <REMARK>
  4 active torsions:
  status: ('A' for Active; 'I' for Inactive)
    5  A    between atoms: CA   and  CB  
    6  A    between atoms: CB   and  CG  
    7  A    between atoms: CG   and  CD  
    8  A    between atoms: CD   and  CE  

$$$$
