ligand_69_pose_8_2HRL.pdbqt
 OpenBabel07062320523D

 54 51  0  0  1  0  0  0  0  0999 V2000
   28.7130   33.7980   16.4820 N   0  0  0  0  0  0  0  0  0  0  0  0
   27.3410   34.1460   16.2940 C   0  0  0  0  0  0  0  0  0  0  0  0
   26.4040   33.5850   16.9200 O   0  0  0  0  0  0  0  0  0  0  0  0
   29.4690   34.2790   15.9490 H   0  0  0  0  0  0  0  0  0  0  0  0
   28.9780   32.7380   17.4560 C   0  0  0  0  0  0  0  0  0  0  0  0
   29.5000   31.5500   16.6680 C   0  0  2  0  0  0  0  0  0  0  0  0
   28.3940   30.6360   16.1920 C   0  0  2  0  0  0  0  0  0  0  0  0
   27.5050   30.1860   17.3080 C   0  0  2  0  0  0  0  0  0  0  0  0
   26.9740   28.5790   18.8360 C   0  0  2  0  0  0  0  0  0  0  0  0
   26.0230   29.6770   19.2660 C   0  0  0  0  0  0  0  0  0  0  0  0
   27.9150   29.0320   17.9200 O   0  0  0  0  0  0  0  0  0  0  0  0
   25.2290   30.2230   18.0970 C   0  0  1  0  0  0  0  0  0  0  0  0
   26.0680   30.0090   16.8700 C   0  0  1  0  0  0  0  0  0  0  0  0
   26.2840   27.4650   18.3710 O   0  0  0  0  0  0  0  0  0  0  0  0
   26.8720   26.6670   18.3000 H   0  0  0  0  0  0  0  0  0  0  0  0
   27.7230   28.1700   20.0490 C   0  0  0  0  0  0  0  0  0  0  0  0
   27.3220   28.4330   21.2150 O   0  0  0  0  0  0  0  0  0  0  0  0
   28.9050   27.4770   19.9080 O   0  0  0  0  0  0  0  0  0  0  0  0
   29.1130   26.5960   20.3670 H   0  0  0  0  0  0  0  0  0  0  0  0
   24.0210   29.5660   18.0700 O   0  0  0  0  0  0  0  0  0  0  0  0
   23.4560   30.0080   17.3640 H   0  0  0  0  0  0  0  0  0  0  0  0
   25.7130   30.7920   15.7460 N   0  0  0  0  0  0  0  0  0  0  0  0
   24.7030   30.4730   14.7990 C   0  0  0  0  0  0  0  0  0  0  0  0
   26.2310   31.6830   15.5860 H   0  0  0  0  0  0  0  0  0  0  0  0
   24.4040   31.3680   13.6420 C   0  0  0  0  0  0  0  0  0  0  0  0
   24.0700   29.4120   14.9690 O   0  0  0  0  0  0  0  0  0  0  0  0
   28.8730   29.6240   15.3970 O   0  0  0  0  0  0  0  0  0  0  0  0
   28.1160   29.2090   14.9270 H   0  0  0  0  0  0  0  0  0  0  0  0
   30.3080   30.7540   17.5130 O   0  0  0  0  0  0  0  0  0  0  0  0
   29.7780   30.3990   18.2810 H   0  0  0  0  0  0  0  0  0  0  0  0
   27.0110   35.1320   15.3970 O   0  0  0  0  0  0  0  0  0  0  0  0
   27.8950   35.6490   14.4190 C   0  0  0  0  0  0  0  0  0  0  0  0
   27.4580   35.1670   13.0880 C   0  0  0  0  0  0  0  0  0  0  0  0
   28.1910   35.0150   11.9310 C   0  0  0  0  0  0  0  0  0  0  0  0
   26.2010   34.7830   12.7950 N   0  0  0  0  0  0  0  0  0  0  0  0
   27.3720   34.5470   10.9710 N   0  0  0  0  0  0  0  0  0  0  0  0
   26.1700   34.4190   11.5390 N   0  0  0  0  0  0  0  0  0  0  0  0
   27.7430   34.2430    9.5880 C   0  0  2  0  0  0  0  0  0  0  0  0
   29.0330   34.9360    9.3040 C   0  0  0  0  0  0  0  0  0  0  0  0
   29.5470   34.7580    7.9190 *   0  0  0  0  0  0  0  0  0  0  0  0
   30.9570   34.8260    7.8540 O   0  0  0  0  0  0  0  0  0  0  0  0
   31.2200   35.7690    7.7920 H   0  0  0  0  0  0  0  0  0  0  0  0
   26.6120   34.6610    8.7130 C   0  0  0  0  0  0  0  0  0  0  0  0
   26.7230   36.0550    8.1750 C   0  0  1  0  0  0  0  0  0  0  0  0
   27.6900   36.1870    7.0630 C   0  0  0  0  0  0  0  0  0  0  0  0
   28.8800   35.6430    6.9520 *   0  0  0  0  0  0  0  0  0  0  0  0
   25.4850   36.5980    7.8350 O   0  0  0  0  0  0  0  0  0  0  0  0
   25.4030   37.5370    8.1360 H   0  0  0  0  0  0  0  0  0  0  0  0
   29.8670   25.5550   16.9770 C   0  0  0  0  0  0  0  0  0  0  0  0
   28.3450   25.7220   17.0260 C   0  0  0  0  0  0  0  0  0  0  0  0
   27.6020   24.3980   16.9390 C   0  0  0  0  0  0  0  0  0  0  0  0
   26.1470   24.5400   17.2910 C   0  0  0  0  0  0  0  0  0  0  0  0
   25.8650   23.8070   18.5990 C   0  0  0  0  0  0  0  0  0  0  0  0
   24.5250   24.1680   19.1170 N   0  0  0  0  0  0  0  0  0  0  0  0
  1  5  1  0  0  0  0
  2  1  1  0  0  0  0
  2  3  2  0  0  0  0
  4  1  1  0  0  0  0
  6  5  1  1  0  0  0
  6 29  1  0  0  0  0
  7 27  1  1  0  0  0
  7  6  1  0  0  0  0
  8  7  1  6  0  0  0
  8 11  1  0  0  0  0
  9 14  1  6  0  0  0
  9 10  1  0  0  0  0
  9 16  1  0  0  0  0
 11  9  1  0  0  0  0
 12 20  1  6  0  0  0
 12 10  1  0  0  0  0
 13 22  1  6  0  0  0
 13  8  1  0  0  0  0
 13 12  1  0  0  0  0
 15 14  1  0  0  0  0
 16 17  2  0  0  0  0
 18 16  1  0  0  0  0
 18 19  1  0  0  0  0
 21 20  1  0  0  0  0
 23 26  2  0  0  0  0
 23 22  1  0  0  0  0
 24 22  1  0  0  0  0
 25 23  1  0  0  0  0
 28 27  1  0  0  0  0
 29 30  1  0  0  0  0
 31  2  1  0  0  0  0
 32 31  1  0  0  0  0
 33 32  1  0  0  0  0
 34 33  2  0  0  0  0
 35 33  1  0  0  0  0
 36 37  1  0  0  0  0
 36 34  1  0  0  0  0
 37 35  2  0  0  0  0
 38 39  1  6  0  0  0
 38 36  1  0  0  0  0
 42 41  1  0  0  0  0
 43 38  1  0  0  0  0
 44 45  1  6  0  0  0
 44 43  1  0  0  0  0
 47 48  1  0  0  0  0
 47 44  1  0  0  0  0
 49 50  1  0  0  0  0
 51 50  1  0  0  0  0
 51 52  1  0  0  0  0
 52 53  1  0  0  0  0
 53 54  1  0  0  0  0
M  END
>  <REMARK>
 VINA RESULT:    -7.790      3.084      6.402
 INTER + INTRA:         -13.182
 INTER:                  -9.771
 INTRA:                  -3.411
 UNBOUND:                 3.032
 SMILES CC(=O)N[C@@H]1[C@@H](O)C[C@](O)(C(=O)O)O[C@H]1C(O)[C@H](O)CNC(=O)OCc1cn(C2CC(O)C=C[C@@H](O)C2)nn1
 SMILES IDX 21 1 22 2 23 3 20 5 18 6 16 7 15 8 9 9 8 10 14 11 6 12 5 13
 SMILES IDX 10 14 11 16 12 17 13 18 7 20 4 22 2 23 1 25 3 26 17 27 19 29
 SMILES IDX 24 31 25 32 26 33 27 34 39 35 28 36 38 37 29 38 30 39 31 40
 SMILES IDX 32 42 37 44 35 45 34 46 33 47 36 49
 H PARENT 21 4 10 15 13 19 7 21 4 24 17 28 19 30 32 43 36 50
 Flexibility Score: 90.00
  4 active torsions:
  status: ('A' for Active; 'I' for Inactive)
    1  A    between atoms: CA   and  CB  
    2  A    between atoms: CB   and  CG  
    3  A    between atoms: CG   and  CD  
    4  A    between atoms: CD   and  CE  

>  <TORSDO>
F 17

>  <BEGIN_>
RES LYS A 131

$$$$
ligand_69_pose_8_2HRL.pdbqt
 OpenBabel07062320523D

  6  5  0  0  0  0  0  0  0  0999 V2000
   33.1930   34.6630    9.2900 C   0  0  0  0  0  0  0  0  0  0  0  0
   32.0600   35.3600   10.0340 C   0  0  0  0  0  0  0  0  0  0  0  0
   32.5260   36.4780   10.9310 C   0  0  0  0  0  0  0  0  0  0  0  0
   32.3090   36.1180   12.3930 C   0  0  0  0  0  0  0  0  0  0  0  0
   31.3980   34.9120   12.5150 C   0  0  0  0  0  0  0  0  0  0  0  0
   31.2690   34.4790   13.9340 N   0  0  0  0  0  0  0  0  0  0  0  0
  1  2  1  0  0  0  0
  2  3  1  0  0  0  0
  3  4  1  0  0  0  0
  4  5  1  0  0  0  0
  5  6  1  0  0  0  0
M  END
>  <EGIN_R>
ES LYS A 135

>  <REMARK>
  4 active torsions:
  status: ('A' for Active; 'I' for Inactive)
    5  A    between atoms: CA   and  CB  
    6  A    between atoms: CB   and  CG  
    7  A    between atoms: CG   and  CD  
    8  A    between atoms: CD   and  CE  

$$$$
