ligand_29_pose_7_2HRL.pdbqt
 OpenBabel07062320523D

 54 55  0  0  1  0  0  0  0  0999 V2000
   25.4250   36.2530   13.1060 N   0  0  0  0  0  0  0  0  0  0  0  0
   25.6930   37.4240   13.8260 C   0  0  0  0  0  0  0  0  0  0  0  0
   24.9750   38.4400   13.7090 O   0  0  0  0  0  0  0  0  0  0  0  0
   26.0910   35.4350   13.2570 H   0  0  0  0  0  0  0  0  0  0  0  0
   24.3240   36.0540   12.1800 C   0  0  0  0  0  0  0  0  0  0  0  0
   24.7510   35.2330   11.0170 C   0  0  2  0  0  0  0  0  0  0  0  0
   26.1790   35.4590   10.5850 C   0  0  2  0  0  0  0  0  0  0  0  0
   26.4010   35.4120    9.1100 C   0  0  2  0  0  0  0  0  0  0  0  0
   28.7110   35.5150    8.8040 C   0  0  2  0  0  0  0  0  0  0  0  0
   28.6430   36.2300    7.4610 C   0  0  0  0  0  0  0  0  0  0  0  0
   27.6050   34.7140    8.8880 O   0  0  0  0  0  0  0  0  0  0  0  0
   27.2050   36.3780    7.0570 C   0  0  1  0  0  0  0  0  0  0  0  0
   26.3050   36.6450    8.3190 C   0  0  1  0  0  0  0  0  0  0  0  0
   28.8670   36.4190    9.8490 O   0  0  0  0  0  0  0  0  0  0  0  0
   29.2640   37.2790    9.5530 H   0  0  0  0  0  0  0  0  0  0  0  0
   29.9160   34.6350    8.8220 C   0  0  0  0  0  0  0  0  0  0  0  0
   30.5640   34.4740    7.7620 O   0  0  0  0  0  0  0  0  0  0  0  0
   30.3490   33.9850    9.9680 O   0  0  0  0  0  0  0  0  0  0  0  0
   30.8210   34.4820   10.7340 H   0  0  0  0  0  0  0  0  0  0  0  0
   27.0130   37.4220    6.1580 O   0  0  0  0  0  0  0  0  0  0  0  0
   27.6430   38.1560    6.3190 H   0  0  0  0  0  0  0  0  0  0  0  0
   24.9740   36.8070    7.7180 N   0  0  0  0  0  0  0  0  0  0  0  0
   23.9560   37.6280    8.2580 C   0  0  0  0  0  0  0  0  0  0  0  0
   24.7270   36.2910    6.8220 H   0  0  0  0  0  0  0  0  0  0  0  0
   22.6180   37.7690    7.6290 C   0  0  0  0  0  0  0  0  0  0  0  0
   24.1760   38.2720    9.3130 O   0  0  0  0  0  0  0  0  0  0  0  0
   26.9480   34.3410   11.1060 O   0  0  0  0  0  0  0  0  0  0  0  0
   27.8990   34.5520   10.9440 H   0  0  0  0  0  0  0  0  0  0  0  0
   23.8490   35.1150    9.9920 O   0  0  0  0  0  0  0  0  0  0  0  0
   22.9560   35.4470   10.2010 H   0  0  0  0  0  0  0  0  0  0  0  0
   26.7900   37.4950   14.7120 O   0  0  0  0  0  0  0  0  0  0  0  0
   28.0630   37.8740   14.1650 C   0  0  0  0  0  0  0  0  0  0  0  0
   28.8540   36.7040   13.7920 C   0  0  0  0  0  0  0  0  0  0  0  0
   29.9170   36.1800   14.4820 C   0  0  0  0  0  0  0  0  0  0  0  0
   28.6620   35.9380   12.7060 N   0  0  0  0  0  0  0  0  0  0  0  0
   30.3490   35.1170   13.8120 N   0  0  0  0  0  0  0  0  0  0  0  0
   29.5850   34.9860   12.7480 N   0  0  0  0  0  0  0  0  0  0  0  0
   31.4650   34.2460   14.1610 C   0  0  0  0  0  0  0  0  0  0  0  0
   31.0360   33.3700   15.2960 C   0  0  0  0  0  0  0  0  0  0  0  0
   30.1810   32.2980   15.0440 C   0  0  0  0  0  0  0  0  0  0  0  0
   31.4590   33.5720   16.5920 C   0  0  0  0  0  0  0  0  0  0  0  0
   29.7700   31.4650   16.0550 C   0  0  0  0  0  0  0  0  0  0  0  0
   31.0630   32.7520   17.6300 C   0  0  0  0  0  0  0  0  0  0  0  0
   30.2200   31.7050   17.3400 C   0  0  0  0  0  0  0  0  0  0  0  0
   28.9160   30.3910   15.8180 O   0  0  0  0  0  0  0  0  0  0  0  0
   27.5260   30.6460   15.7190 C   0  0  0  0  0  0  0  0  0  0  0  0
   29.8000   30.8590   18.3540 O   0  0  0  0  0  0  0  0  0  0  0  0
   29.0330   31.3230   19.4500 C   0  0  0  0  0  0  0  0  0  0  0  0
   29.8670   25.5550   16.9770 C   0  0  0  0  0  0  0  0  0  0  0  0
   28.3450   25.7220   17.0260 C   0  0  0  0  0  0  0  0  0  0  0  0
   27.6020   24.3970   16.9510 C   0  0  0  0  0  0  0  0  0  0  0  0
   26.5430   24.2800   18.0120 C   0  0  0  0  0  0  0  0  0  0  0  0
   25.2050   23.9480   17.3610 C   0  0  0  0  0  0  0  0  0  0  0  0
   24.9020   22.5040   17.5050 N   0  0  0  0  0  0  0  0  0  0  0  0
  1  4  1  0  0  0  0
  1  2  1  0  0  0  0
  2 31  1  0  0  0  0
  3  2  2  0  0  0  0
  5  1  1  0  0  0  0
  6  5  1  1  0  0  0
  7  6  1  0  0  0  0
  7 27  1  1  0  0  0
  8  7  1  1  0  0  0
  9 16  1  6  0  0  0
  9 11  1  0  0  0  0
  9 14  1  0  0  0  0
 10  9  1  0  0  0  0
 11  8  1  0  0  0  0
 12 20  1  6  0  0  0
 12 10  1  0  0  0  0
 12 13  1  0  0  0  0
 13 22  1  6  0  0  0
 13  8  1  0  0  0  0
 15 14  1  0  0  0  0
 16 18  1  0  0  0  0
 17 16  2  0  0  0  0
 18 19  1  0  0  0  0
 20 21  1  0  0  0  0
 22 23  1  0  0  0  0
 23 26  2  0  0  0  0
 24 22  1  0  0  0  0
 25 23  1  0  0  0  0
 28 27  1  0  0  0  0
 29 30  1  0  0  0  0
 29  6  1  0  0  0  0
 32 31  1  0  0  0  0
 33 32  1  0  0  0  0
 33 34  2  0  0  0  0
 35 37  2  0  0  0  0
 35 33  1  0  0  0  0
 36 38  1  0  0  0  0
 36 34  1  0  0  0  0
 37 36  1  0  0  0  0
 38 39  1  0  0  0  0
 39 41  1  0  0  0  0
 40 39  2  0  0  0  0
 40 42  1  0  0  0  0
 41 43  2  0  0  0  0
 42 44  2  0  0  0  0
 44 43  1  0  0  0  0
 44 47  1  0  0  0  0
 45 42  1  0  0  0  0
 46 45  1  0  0  0  0
 47 48  1  0  0  0  0
 49 50  1  0  0  0  0
 51 50  1  0  0  0  0
 51 52  1  0  0  0  0
 53 54  1  0  0  0  0
 53 52  1  0  0  0  0
M  END
>  <REMARK>
 VINA RESULT:    -5.115      3.372      8.078
 INTER + INTRA:         -14.867
 INTER:                  -9.501
 INTRA:                  -5.366
 UNBOUND:                -5.118
 SMILES COc1ccc(Cn2cc(COC(=O)NC[C@@H](O)C(O)[C@@H]3O[C@@](O)(C(=O)O)C[C@H](O)[C@H]3NC(C)=O)nn2)cc1OC
 SMILES IDX 15 1 13 2 14 3 16 5 17 6 19 7 21 8 23 9 28 10 22 11 29 12
 SMILES IDX 31 13 24 14 25 16 26 17 27 18 30 20 32 22 33 23 34 25 35 26
 SMILES IDX 20 27 18 29 12 31 11 32 10 33 9 34 36 35 8 36 37 37 7 38
 SMILES IDX 6 39 38 40 5 41 39 42 4 43 3 44 40 45 41 46 2 47 1 48
 H PARENT 15 4 24 15 27 19 30 21 32 24 20 28 18 30
 Flexibility Score: inf
  4 active torsions:
  status: ('A' for Active; 'I' for Inactive)
    1  A    between atoms: CA   and  CB  
    2  A    between atoms: CB   and  CG  
    3  A    between atoms: CG   and  CD  
    4  A    between atoms: CD   and  CE  

>  <TORSDO>
F 18

>  <BEGIN_>
RES LYS A 131

$$$$
ligand_29_pose_7_2HRL.pdbqt
 OpenBabel07062320523D

  6  5  0  0  0  0  0  0  0  0999 V2000
   33.1930   34.6630    9.2900 C   0  0  0  0  0  0  0  0  0  0  0  0
   32.0600   35.3600   10.0340 C   0  0  0  0  0  0  0  0  0  0  0  0
   32.5310   36.2330   11.1680 C   0  0  0  0  0  0  0  0  0  0  0  0
   31.6750   37.4860   11.2720 C   0  0  0  0  0  0  0  0  0  0  0  0
   31.8360   38.3450   10.0320 C   0  0  0  0  0  0  0  0  0  0  0  0
   31.7850   39.7940   10.3730 N   0  0  0  0  0  0  0  0  0  0  0  0
  1  2  1  0  0  0  0
  2  3  1  0  0  0  0
  3  4  1  0  0  0  0
  5  6  1  0  0  0  0
  5  4  1  0  0  0  0
M  END
>  <EGIN_R>
ES LYS A 135

>  <REMARK>
  4 active torsions:
  status: ('A' for Active; 'I' for Inactive)
    5  A    between atoms: CA   and  CB  
    6  A    between atoms: CB   and  CG  
    7  A    between atoms: CG   and  CD  
    8  A    between atoms: CD   and  CE  

$$$$
