ligand_91_pose_19_2HRL.pdbqt
 OpenBabel07062320523D

 57 60  0  0  1  0  0  0  0  0999 V2000
   27.1910   28.6390   22.3990 C   0  0  0  0  0  0  0  0  0  0  0  0
   27.6390   29.8530   23.1670 C   0  0  2  0  0  0  0  0  0  0  0  0
   29.1200   29.7370   23.3460 C   0  0  2  0  0  0  0  0  0  0  0  0
   29.9250   30.6710   22.4540 C   0  0  2  0  0  0  0  0  0  0  0  0
   29.5760   32.2990   20.9170 C   0  0  2  0  0  0  0  0  0  0  0  0
   30.4510   31.7050   19.8440 C   0  0  0  0  0  0  0  0  0  0  0  0
   29.0050   31.3600   21.7130 O   0  0  0  0  0  0  0  0  0  0  0  0
   30.8420   30.2850   20.1300 C   0  0  1  0  0  0  0  0  0  0  0  0
   30.8770   29.9400   21.5810 C   0  0  1  0  0  0  0  0  0  0  0  0
   28.4750   32.9530   20.2710 O   0  0  0  0  0  0  0  0  0  0  0  0
   28.6660   33.9190   20.1990 H   0  0  0  0  0  0  0  0  0  0  0  0
   30.2870   33.3990   21.6120 C   0  0  0  0  0  0  0  0  0  0  0  0
   31.5060   33.6410   21.4070 O   0  0  0  0  0  0  0  0  0  0  0  0
   29.6520   34.2390   22.5410 O   0  0  0  0  0  0  0  0  0  0  0  0
   29.2160   33.8330   23.3550 H   0  0  0  0  0  0  0  0  0  0  0  0
   29.9780   29.4360   19.4310 O   0  0  0  0  0  0  0  0  0  0  0  0
   29.7660   29.7970   18.5340 H   0  0  0  0  0  0  0  0  0  0  0  0
   32.2680   29.9970   22.0440 N   0  0  0  0  0  0  0  0  0  0  0  0
   32.9660   28.8530   22.5180 C   0  0  0  0  0  0  0  0  0  0  0  0
   32.8090   30.8900   22.0430 H   0  0  0  0  0  0  0  0  0  0  0  0
   34.3850   28.9300   22.9830 C   0  0  0  0  0  0  0  0  0  0  0  0
   32.3880   27.7350   22.5550 O   0  0  0  0  0  0  0  0  0  0  0  0
   29.5120   28.4370   23.0680 O   0  0  0  0  0  0  0  0  0  0  0  0
   30.1510   28.4700   22.3140 H   0  0  0  0  0  0  0  0  0  0  0  0
   26.9500   29.9500   24.3530 O   0  0  0  0  0  0  0  0  0  0  0  0
   25.9800   29.7810   24.1560 H   0  0  0  0  0  0  0  0  0  0  0  0
   27.5820   28.5740   21.0330 N   0  0  0  0  0  0  0  0  0  0  0  0
   27.2290   27.5400   20.1420 C   0  0  0  0  0  0  0  0  0  0  0  0
   28.1970   29.3460   20.5890 H   0  0  0  0  0  0  0  0  0  0  0  0
   26.5330   26.5700   20.5050 O   0  0  0  0  0  0  0  0  0  0  0  0
   27.6390   27.5450   18.8000 O   0  0  0  0  0  0  0  0  0  0  0  0
   26.7740   28.0490   17.7820 C   0  0  0  0  0  0  0  0  0  0  0  0
   27.0560   29.4960   17.6300 C   0  0  0  0  0  0  0  0  0  0  0  0
   27.3120   30.1650   16.4510 C   0  0  0  0  0  0  0  0  0  0  0  0
   27.1240   30.4580   18.5820 N   0  0  0  0  0  0  0  0  0  0  0  0
   27.5210   31.4680   16.7020 N   0  0  0  0  0  0  0  0  0  0  0  0
   27.4030   31.6260   18.0020 N   0  0  0  0  0  0  0  0  0  0  0  0
   27.8100   32.4890   15.7710 C   0  0  0  0  0  0  0  0  0  0  0  0
   29.1350   32.8510   15.5090 C   0  0  0  0  0  0  0  0  0  0  0  0
   26.8130   33.1610   15.0840 C   0  0  0  0  0  0  0  0  0  0  0  0
   30.1730   32.2190   16.1600 C   0  0  0  0  0  0  0  0  0  0  0  0
   29.4450   33.8260   14.6140 C   0  0  0  0  0  0  0  0  0  0  0  0
   27.1490   34.1460   14.1810 C   0  0  0  0  0  0  0  0  0  0  0  0
   25.5130   32.8070   15.3430 C   0  0  0  0  0  0  0  0  0  0  0  0
   31.4960   32.5390   15.9380 C   0  0  0  0  0  0  0  0  0  0  0  0
   30.7750   34.1590   14.3790 C   0  0  0  0  0  0  0  0  0  0  0  0
   28.4450   34.4560   13.9660 N   0  0  0  0  0  0  0  0  0  0  0  0
   26.1250   34.7870   13.5240 C   0  0  0  0  0  0  0  0  0  0  0  0
   24.4960   33.4770   14.6600 C   0  0  0  0  0  0  0  0  0  0  0  0
   31.8260   33.5410   15.0190 C   0  0  0  0  0  0  0  0  0  0  0  0
   24.7870   34.4680   13.7490 C   0  0  0  0  0  0  0  0  0  0  0  0
   29.8670   25.5550   16.9770 C   0  0  0  0  0  0  0  0  0  0  0  0
   28.3450   25.7220   17.0260 C   0  0  0  0  0  0  0  0  0  0  0  0
   27.6010   24.4010   16.9000 C   0  0  0  0  0  0  0  0  0  0  0  0
   26.6040   24.2050   18.0070 C   0  0  0  0  0  0  0  0  0  0  0  0
   25.2020   24.5150   17.4910 C   0  0  0  0  0  0  0  0  0  0  0  0
   24.2720   24.7470   18.6210 N   0  0  0  0  0  0  0  0  0  0  0  0
  2  1  1  1  0  0  0
  2  3  1  0  0  0  0
  2 25  1  0  0  0  0
  3 23  1  6  0  0  0
  4  3  1  1  0  0  0
  5 10  1  6  0  0  0
  5 12  1  0  0  0  0
  5  7  1  0  0  0  0
  6  8  1  0  0  0  0
  6  5  1  0  0  0  0
  7  4  1  0  0  0  0
  8 16  1  6  0  0  0
  8  9  1  0  0  0  0
  9 18  1  1  0  0  0
  9  4  1  0  0  0  0
 11 10  1  0  0  0  0
 12 14  1  0  0  0  0
 13 12  2  0  0  0  0
 14 15  1  0  0  0  0
 17 16  1  0  0  0  0
 18 19  1  0  0  0  0
 19 22  2  0  0  0  0
 19 21  1  0  0  0  0
 20 18  1  0  0  0  0
 24 23  1  0  0  0  0
 26 25  1  0  0  0  0
 27  1  1  0  0  0  0
 28 30  2  0  0  0  0
 28 27  1  0  0  0  0
 29 27  1  0  0  0  0
 31 28  1  0  0  0  0
 32 31  1  0  0  0  0
 33 32  1  0  0  0  0
 33 35  1  0  0  0  0
 34 36  1  0  0  0  0
 34 33  2  0  0  0  0
 36 37  1  0  0  0  0
 37 35  2  0  0  0  0
 38 36  1  0  0  0  0
 39 38  1  0  0  0  0
 39 41  2  0  0  0  0
 40 44  1  0  0  0  0
 40 38  2  0  0  0  0
 42 39  1  0  0  0  0
 43 40  1  0  0  0  0
 45 41  1  0  0  0  0
 46 42  2  0  0  0  0
 46 50  1  0  0  0  0
 47 43  2  0  0  0  0
 47 42  1  0  0  0  0
 48 51  2  0  0  0  0
 48 43  1  0  0  0  0
 49 44  2  0  0  0  0
 50 45  2  0  0  0  0
 51 49  1  0  0  0  0
 52 53  1  0  0  0  0
 54 53  1  0  0  0  0
 54 55  1  0  0  0  0
 56 55  1  0  0  0  0
 56 57  1  0  0  0  0
M  END
>  <REMARK>
 VINA RESULT:    -5.076      6.783     11.461
 INTER + INTRA:         -14.868
 INTER:                  -7.636
 INTRA:                  -7.232
 UNBOUND:                -6.084
 SMILES CC(=O)N[C@@H]1[C@@H](O)C[C@](O)(C(=O)O)O[C@H]1C(O)[C@H](O)CNC(=O)OCc1cn(-c2c3ccccc3nc3ccccc23)nn1
 SMILES IDX 20 1 18 2 16 3 15 4 9 5 8 6 14 7 6 8 5 9 10 10 11 12 12 13
 SMILES IDX 13 14 7 16 4 18 2 19 1 21 3 22 17 23 19 25 21 27 22 28 23 30
 SMILES IDX 24 31 25 32 26 33 27 34 44 35 28 36 43 37 29 38 30 39 42 40
 SMILES IDX 31 41 35 42 37 43 41 44 32 45 34 46 36 47 38 48 40 49 33 50
 SMILES IDX 39 51
 H PARENT 10 11 13 15 7 17 4 20 17 24 19 26 21 29
 Flexibility Score: inf
  4 active torsions:
  status: ('A' for Active; 'I' for Inactive)
    1  A    between atoms: CA   and  CB  
    2  A    between atoms: CB   and  CG  
    3  A    between atoms: CG   and  CD  
    4  A    between atoms: CD   and  CE  

>  <TORSDO>
F 15

>  <BEGIN_>
RES LYS A 131

$$$$
ligand_91_pose_19_2HRL.pdbqt
 OpenBabel07062320523D

  6  5  0  0  0  0  0  0  0  0999 V2000
   33.1930   34.6630    9.2900 C   0  0  0  0  0  0  0  0  0  0  0  0
   32.0600   35.3600   10.0340 C   0  0  0  0  0  0  0  0  0  0  0  0
   30.7200   34.6960    9.8490 C   0  0  0  0  0  0  0  0  0  0  0  0
   30.3810   34.5720    8.3720 C   0  0  0  0  0  0  0  0  0  0  0  0
   28.8780   34.5350    8.1710 C   0  0  0  0  0  0  0  0  0  0  0  0
   28.1820   34.1040    9.4150 N   0  0  0  0  0  0  0  0  0  0  0  0
  1  2  1  0  0  0  0
  3  2  1  0  0  0  0
  4  3  1  0  0  0  0
  5  4  1  0  0  0  0
  5  6  1  0  0  0  0
M  END
>  <EGIN_R>
ES LYS A 135

>  <REMARK>
  4 active torsions:
  status: ('A' for Active; 'I' for Inactive)
    5  A    between atoms: CA   and  CB  
    6  A    between atoms: CB   and  CG  
    7  A    between atoms: CG   and  CD  
    8  A    between atoms: CD   and  CE  

$$$$
