ligand_86_pose_12_2HRL.pdbqt
 OpenBabel07062320523D

 52 54  0  0  1  0  0  0  0  0999 V2000
   30.4260   32.0150   16.8590 C   0  0  0  0  0  0  0  0  0  0  0  0
   31.2480   32.2600   15.6410 C   0  0  2  0  0  0  0  0  0  0  0  0
   31.9960   33.5570   15.6630 C   0  0  2  0  0  0  0  0  0  0  0  0
   31.0850   34.7590   15.5640 C   0  0  2  0  0  0  0  0  0  0  0  0
   30.0900   36.1570   14.0150 C   0  0  2  0  0  0  0  0  0  0  0  0
   29.6970   36.8510   15.2920 C   0  0  0  0  0  0  0  0  0  0  0  0
   30.7550   34.9610   14.2320 O   0  0  0  0  0  0  0  0  0  0  0  0
   30.8440   37.0780   16.2280 C   0  0  1  0  0  0  0  0  0  0  0  0
   31.8530   35.9820   16.0230 C   0  0  1  0  0  0  0  0  0  0  0  0
   30.8190   36.9820   13.1610 O   0  0  0  0  0  0  0  0  0  0  0  0
   30.2140   37.4900   12.5710 H   0  0  0  0  0  0  0  0  0  0  0  0
   28.8210   35.8160   13.2960 C   0  0  0  0  0  0  0  0  0  0  0  0
   27.8440   35.2810   13.9200 O   0  0  0  0  0  0  0  0  0  0  0  0
   28.6330   36.0540   11.9550 O   0  0  0  0  0  0  0  0  0  0  0  0
   28.8310   37.0000   11.6050 H   0  0  0  0  0  0  0  0  0  0  0  0
   31.3740   38.3450   16.1630 O   0  0  0  0  0  0  0  0  0  0  0  0
   30.9230   38.8990   16.8540 H   0  0  0  0  0  0  0  0  0  0  0  0
   32.6570   35.7210   17.1890 N   0  0  0  0  0  0  0  0  0  0  0  0
   33.8990   36.3850   17.4280 C   0  0  0  0  0  0  0  0  0  0  0  0
   32.3510   35.0260   17.9070 H   0  0  0  0  0  0  0  0  0  0  0  0
   34.6760   36.0720   18.6440 C   0  0  0  0  0  0  0  0  0  0  0  0
   34.2840   37.2220   16.5790 O   0  0  0  0  0  0  0  0  0  0  0  0
   32.8720   33.5940   14.5790 O   0  0  0  0  0  0  0  0  0  0  0  0
   33.7490   33.2320   14.8000 H   0  0  0  0  0  0  0  0  0  0  0  0
   30.4470   32.2400   14.4770 O   0  0  0  0  0  0  0  0  0  0  0  0
   29.8660   31.4340   14.5770 H   0  0  0  0  0  0  0  0  0  0  0  0
   29.8040   30.7120   16.8510 N   0  0  0  0  0  0  0  0  0  0  0  0
   28.4710   30.5710   16.3840 C   0  0  0  0  0  0  0  0  0  0  0  0
   30.2940   29.8450   17.1760 H   0  0  0  0  0  0  0  0  0  0  0  0
   27.7800   31.5410   15.9680 O   0  0  0  0  0  0  0  0  0  0  0  0
   27.8220   29.3370   16.3520 O   0  0  0  0  0  0  0  0  0  0  0  0
   26.7330   29.0260   17.1990 C   0  0  0  0  0  0  0  0  0  0  0  0
   27.2180   28.3070   18.4080 C   0  0  0  0  0  0  0  0  0  0  0  0
   28.1040   28.8190   19.3330 C   0  0  0  0  0  0  0  0  0  0  0  0
   26.9210   27.0720   18.8490 N   0  0  0  0  0  0  0  0  0  0  0  0
   28.3220   27.8900   20.3050 N   0  0  0  0  0  0  0  0  0  0  0  0
   27.5800   26.8510   19.9610 N   0  0  0  0  0  0  0  0  0  0  0  0
   29.1890   28.0230   21.4720 C   0  0  2  0  0  0  0  0  0  0  0  0
   29.5300   29.4580   21.6330 C   0  0  0  0  0  0  0  0  0  0  0  0
   30.3460   27.1070   21.2830 C   0  0  0  0  0  0  0  0  0  0  0  0
   30.8780   29.7400   22.1900 C   0  0  1  0  0  0  0  0  0  0  0  0
   31.6810   27.7210   21.6150 C   0  0  2  0  0  0  0  0  0  0  0  0
   31.4860   28.5680   22.7790 N   0  0  0  0  0  0  0  0  0  0  0  0
   31.8160   30.0340   21.0300 C   0  0  0  0  0  0  0  0  0  0  0  0
   32.0660   28.6420   20.4850 C   0  0  0  0  0  0  0  0  0  0  0  0
   32.7330   28.9190   23.4110 C   0  0  0  0  0  0  0  0  0  0  0  0
   29.8670   25.5550   16.9770 C   0  0  0  0  0  0  0  0  0  0  0  0
   28.3450   25.7220   17.0260 C   0  0  0  0  0  0  0  0  0  0  0  0
   27.5990   24.4670   16.5990 C   0  0  0  0  0  0  0  0  0  0  0  0
   27.1160   23.6680   17.7780 C   0  0  0  0  0  0  0  0  0  0  0  0
   25.5930   23.7260   17.8420 C   0  0  0  0  0  0  0  0  0  0  0  0
   25.0150   22.3700   17.6890 N   0  0  0  0  0  0  0  0  0  0  0  0
  2  3  1  0  0  0  0
  2  1  1  1  0  0  0
  3 23  1  6  0  0  0
  4  3  1  6  0  0  0
  4  9  1  0  0  0  0
  5 10  1  6  0  0  0
  5  7  1  0  0  0  0
  5  6  1  0  0  0  0
  6  8  1  0  0  0  0
  7  4  1  0  0  0  0
  8 16  1  6  0  0  0
  9  8  1  0  0  0  0
  9 18  1  1  0  0  0
 11 10  1  0  0  0  0
 12 13  2  0  0  0  0
 12  5  1  0  0  0  0
 14 12  1  0  0  0  0
 15 14  1  0  0  0  0
 16 17  1  0  0  0  0
 18 19  1  0  0  0  0
 18 20  1  0  0  0  0
 19 21  1  0  0  0  0
 22 19  2  0  0  0  0
 23 24  1  0  0  0  0
 25 26  1  0  0  0  0
 25  2  1  0  0  0  0
 27  1  1  0  0  0  0
 27 29  1  0  0  0  0
 28 27  1  0  0  0  0
 30 28  2  0  0  0  0
 31 28  1  0  0  0  0
 31 32  1  0  0  0  0
 32 33  1  0  0  0  0
 33 35  1  0  0  0  0
 33 34  2  0  0  0  0
 34 36  1  0  0  0  0
 35 37  2  0  0  0  0
 37 36  1  0  0  0  0
 38 36  1  6  0  0  0
 38 39  1  0  0  0  0
 39 41  1  0  0  0  0
 40 38  1  0  0  0  0
 40 42  1  0  0  0  0
 41 44  1  6  0  0  0
 41 43  1  0  0  0  0
 42 45  1  6  0  0  0
 42 43  1  0  0  0  0
 43 46  1  0  0  0  0
 45 44  1  0  0  0  0
 47 48  1  0  0  0  0
 49 48  1  0  0  0  0
 49 50  1  0  0  0  0
 50 51  1  0  0  0  0
 52 51  1  0  0  0  0
M  END
>  <REMARK>
 VINA RESULT:    -4.261      3.173      7.728
 INTER + INTRA:         -13.930
 INTER:                  -8.893
 INTRA:                  -5.037
 UNBOUND:                -6.555
 SMILES CC(=O)N[C@@H]1[C@@H](O)C[C@](O)(C(=O)O)O[C@H]1C(O)[C@H](O)CNC(=O)OCc1cn([C@H]2C[C@H]3CC[C@@H](C2)N3C)nn1
 SMILES IDX 20 1 18 2 16 3 15 4 9 5 8 6 14 7 6 8 5 9 10 10 11 12 12 13
 SMILES IDX 13 14 7 16 4 18 2 19 1 21 3 22 17 23 19 25 21 27 22 28 23 30
 SMILES IDX 24 31 25 32 26 33 27 34 39 35 28 36 38 37 29 38 35 39 30 40
 SMILES IDX 34 41 31 42 36 43 33 44 32 45 37 46
 H PARENT 10 11 13 15 7 17 4 20 17 24 19 26 21 29
 Flexibility Score: inf
  4 active torsions:
  status: ('A' for Active; 'I' for Inactive)
    1  A    between atoms: CA   and  CB  
    2  A    between atoms: CB   and  CG  
    3  A    between atoms: CG   and  CD  
    4  A    between atoms: CD   and  CE  

>  <TORSDO>
F 15

>  <BEGIN_>
RES LYS A 131

$$$$
ligand_86_pose_12_2HRL.pdbqt
 OpenBabel07062320523D

  6  5  0  0  0  0  0  0  0  0999 V2000
   33.1930   34.6630    9.2900 C   0  0  0  0  0  0  0  0  0  0  0  0
   32.0600   35.3600   10.0340 C   0  0  0  0  0  0  0  0  0  0  0  0
   30.8000   35.5000    9.2190 C   0  0  0  0  0  0  0  0  0  0  0  0
   30.0660   34.1700    9.1340 C   0  0  0  0  0  0  0  0  0  0  0  0
   28.6270   34.3830    8.7030 C   0  0  0  0  0  0  0  0  0  0  0  0
   27.6850   33.6650    9.6050 N   0  0  0  0  0  0  0  0  0  0  0  0
  1  2  1  0  0  0  0
  3  2  1  0  0  0  0
  4  3  1  0  0  0  0
  5  4  1  0  0  0  0
  5  6  1  0  0  0  0
M  END
>  <EGIN_R>
ES LYS A 135

>  <REMARK>
  4 active torsions:
  status: ('A' for Active; 'I' for Inactive)
    5  A    between atoms: CA   and  CB  
    6  A    between atoms: CB   and  CG  
    7  A    between atoms: CG   and  CD  
    8  A    between atoms: CD   and  CE  

$$$$
