ligand_47_pose_17_2HRL.pdbqt
 OpenBabel07062320523D

 62 64  0  0  1  0  0  0  0  0999 V2000
   26.6430   35.3500   16.0850 N   0  0  0  0  0  0  0  0  0  0  0  0
   27.8450   36.0090   16.4500 C   0  0  0  0  0  0  0  0  0  0  0  0
   28.6270   35.4680   17.2860 O   0  0  0  0  0  0  0  0  0  0  0  0
   26.0430   35.8700   15.3790 H   0  0  0  0  0  0  0  0  0  0  0  0
   26.2420   34.0700   16.6170 C   0  0  0  0  0  0  0  0  0  0  0  0
   26.2190   32.9730   15.5510 C   0  0  2  0  0  0  0  0  0  0  0  0
   26.5700   31.6980   16.2540 C   0  0  2  0  0  0  0  0  0  0  0  0
   27.8470   31.7800   17.0410 C   0  0  2  0  0  0  0  0  0  0  0  0
   30.1390   31.8470   16.6960 C   0  0  2  0  0  0  0  0  0  0  0  0
   30.2530   31.7600   18.1960 C   0  0  0  0  0  0  0  0  0  0  0  0
   28.8870   32.1400   16.2290 O   0  0  0  0  0  0  0  0  0  0  0  0
   29.2300   30.8720   18.8170 C   0  0  1  0  0  0  0  0  0  0  0  0
   28.1840   30.4990   17.7670 C   0  0  1  0  0  0  0  0  0  0  0  0
   30.6040   30.6390   16.1660 O   0  0  0  0  0  0  0  0  0  0  0  0
   31.0540   30.0920   16.8650 H   0  0  0  0  0  0  0  0  0  0  0  0
   31.0600   32.9210   16.2530 C   0  0  0  0  0  0  0  0  0  0  0  0
   31.8850   32.6830   15.3380 O   0  0  0  0  0  0  0  0  0  0  0  0
   31.0370   34.1780   16.8170 O   0  0  0  0  0  0  0  0  0  0  0  0
   31.2070   35.0040   16.2270 H   0  0  0  0  0  0  0  0  0  0  0  0
   29.7290   29.7760   19.4740 O   0  0  0  0  0  0  0  0  0  0  0  0
   30.4560   29.3480   18.9510 H   0  0  0  0  0  0  0  0  0  0  0  0
   27.0090   29.9390   18.4190 N   0  0  0  0  0  0  0  0  0  0  0  0
   26.5750   28.6480   18.0360 C   0  0  0  0  0  0  0  0  0  0  0  0
   26.5230   30.4940   19.1400 H   0  0  0  0  0  0  0  0  0  0  0  0
   25.3880   28.0300   18.6650 C   0  0  0  0  0  0  0  0  0  0  0  0
   27.1930   28.0040   17.1530 O   0  0  0  0  0  0  0  0  0  0  0  0
   26.5280   30.6330   15.3770 O   0  0  0  0  0  0  0  0  0  0  0  0
   26.0600   30.8510   14.5220 H   0  0  0  0  0  0  0  0  0  0  0  0
   27.2110   33.3250   14.6190 O   0  0  0  0  0  0  0  0  0  0  0  0
   26.7190   33.3900   13.7460 H   0  0  0  0  0  0  0  0  0  0  0  0
   28.1860   37.2340   15.9120 O   0  0  0  0  0  0  0  0  0  0  0  0
   29.2850   37.3720   15.0020 C   0  0  0  0  0  0  0  0  0  0  0  0
   29.2700   36.2880   13.9950 C   0  0  0  0  0  0  0  0  0  0  0  0
   28.5500   36.3130   12.7900 C   0  0  0  0  0  0  0  0  0  0  0  0
   29.8910   35.1030   13.9820 N   0  0  0  0  0  0  0  0  0  0  0  0
   28.7530   35.1840   12.1110 N   0  0  0  0  0  0  0  0  0  0  0  0
   29.5920   34.4470   12.8740 N   0  0  0  0  0  0  0  0  0  0  0  0
   28.2910   34.7000   10.8420 C   0  0  0  0  0  0  0  0  0  0  0  0
   28.7290   35.4610    9.6360 C   0  0  1  0  0  0  0  0  0  0  0  0
   29.9180   34.8630    9.0270 C   0  0  0  0  0  0  0  0  0  0  0  0
   30.2290   33.6600    9.0570 O   0  0  0  0  0  0  0  0  0  0  0  0
   30.8280   35.6880    8.3310 O   0  0  0  0  0  0  0  0  0  0  0  0
   30.7800   35.7160    7.3090 H   0  0  0  0  0  0  0  0  0  0  0  0
   27.6000   35.6420    8.6370 C   0  0  0  0  0  0  0  0  0  0  0  0
   27.9420   36.6490    7.6050 C   0  0  0  0  0  0  0  0  0  0  0  0
   28.3500   37.9410    7.9550 C   0  0  0  0  0  0  0  0  0  0  0  0
   27.8760   36.3660    6.2540 C   0  0  0  0  0  0  0  0  0  0  0  0
   28.6690   38.8770    6.9970 C   0  0  0  0  0  0  0  0  0  0  0  0
   28.1900   37.2860    5.2880 C   0  0  0  0  0  0  0  0  0  0  0  0
   28.5890   38.5490    5.6420 C   0  0  0  0  0  0  0  0  0  0  0  0
   26.3200   36.0120    9.2500 C   0  0  0  0  0  0  0  0  0  0  0  0
   25.2040   35.2200    8.9490 C   0  0  0  0  0  0  0  0  0  0  0  0
   26.1560   37.0860   10.0980 C   0  0  0  0  0  0  0  0  0  0  0  0
   23.9870   35.5350    9.5050 C   0  0  0  0  0  0  0  0  0  0  0  0
   24.9380   37.4020   10.6560 C   0  0  0  0  0  0  0  0  0  0  0  0
   23.8250   36.6220   10.3630 C   0  0  0  0  0  0  0  0  0  0  0  0
   29.8670   25.5550   16.9770 C   0  0  0  0  0  0  0  0  0  0  0  0
   28.3450   25.7220   17.0260 C   0  0  0  0  0  0  0  0  0  0  0  0
   27.6010   24.4020   16.8890 C   0  0  0  0  0  0  0  0  0  0  0  0
   26.1530   24.5260   17.2730 C   0  0  0  0  0  0  0  0  0  0  0  0
   25.5690   23.1380   17.5130 C   0  0  0  0  0  0  0  0  0  0  0  0
   24.1300   23.1120   17.1620 N   0  0  0  0  0  0  0  0  0  0  0  0
  1  2  1  0  0  0  0
  1  5  1  0  0  0  0
  2  3  2  0  0  0  0
  4  1  1  0  0  0  0
  6  7  1  0  0  0  0
  6  5  1  1  0  0  0
  7 27  1  6  0  0  0
  8  7  1  6  0  0  0
  8 13  1  0  0  0  0
  9 14  1  6  0  0  0
  9 10  1  0  0  0  0
 10 12  1  0  0  0  0
 11  9  1  0  0  0  0
 11  8  1  0  0  0  0
 12 20  1  6  0  0  0
 13 22  1  1  0  0  0
 13 12  1  0  0  0  0
 14 15  1  0  0  0  0
 16  9  1  0  0  0  0
 16 18  1  0  0  0  0
 17 16  2  0  0  0  0
 19 18  1  0  0  0  0
 21 20  1  0  0  0  0
 22 24  1  0  0  0  0
 23 22  1  0  0  0  0
 23 25  1  0  0  0  0
 26 23  2  0  0  0  0
 28 27  1  0  0  0  0
 29  6  1  0  0  0  0
 30 29  1  0  0  0  0
 31  2  1  0  0  0  0
 32 31  1  0  0  0  0
 33 32  1  0  0  0  0
 34 33  2  0  0  0  0
 35 33  1  0  0  0  0
 36 34  1  0  0  0  0
 36 37  1  0  0  0  0
 37 35  2  0  0  0  0
 38 36  1  0  0  0  0
 39 38  1  1  0  0  0
 40 41  2  0  0  0  0
 40 39  1  0  0  0  0
 42 40  1  0  0  0  0
 43 42  1  0  0  0  0
 44 51  1  0  0  0  0
 44 39  1  0  0  0  0
 45 46  1  0  0  0  0
 45 44  1  0  0  0  0
 47 45  2  0  0  0  0
 48 46  2  0  0  0  0
 49 50  2  0  0  0  0
 49 47  1  0  0  0  0
 50 48  1  0  0  0  0
 51 53  1  0  0  0  0
 52 51  2  0  0  0  0
 52 54  1  0  0  0  0
 53 55  2  0  0  0  0
 54 56  2  0  0  0  0
 56 55  1  0  0  0  0
 57 58  1  0  0  0  0
 59 58  1  0  0  0  0
 59 60  1  0  0  0  0
 60 61  1  0  0  0  0
 62 61  1  0  0  0  0
M  END
>  <REMARK>
 VINA RESULT:    -5.288      2.307      4.829
 INTER + INTRA:         -17.151
 INTER:                 -11.673
 INTRA:                  -5.478
 UNBOUND:                -6.299
 SMILES CC(=O)N[C@@H]1[C@@H](O)C[C@](O)(C(=O)O)O[C@H]1C(O)[C@H](O)CNC(=O)OCc1cn(C[C@@H](C(=O)O)C(c2ccccc2)c2ccccc2)nn1
 SMILES IDX 21 1 22 2 23 3 20 5 18 6 16 7 15 8 9 9 8 10 14 11 6 12 5 13
 SMILES IDX 10 14 11 16 12 17 13 18 7 20 4 22 2 23 1 25 3 26 17 27 19 29
 SMILES IDX 24 31 25 32 26 33 27 34 48 35 28 36 47 37 29 38 30 39 31 40
 SMILES IDX 32 41 33 42 34 44 35 45 36 46 40 47 37 48 39 49 38 50 41 51
 SMILES IDX 42 52 46 53 43 54 45 55 44 56
 H PARENT 21 4 10 15 13 19 7 21 4 24 17 28 19 30 33 43
 Flexibility Score: inf
  4 active torsions:
  status: ('A' for Active; 'I' for Inactive)
    1  A    between atoms: CA   and  CB  
    2  A    between atoms: CB   and  CG  
    3  A    between atoms: CG   and  CD  
    4  A    between atoms: CD   and  CE  

>  <TORSDO>
F 21

>  <BEGIN_>
RES LYS A 131

$$$$
ligand_47_pose_17_2HRL.pdbqt
 OpenBabel07062320523D

  6  5  0  0  0  0  0  0  0  0999 V2000
   33.1930   34.6630    9.2900 C   0  0  0  0  0  0  0  0  0  0  0  0
   32.0600   35.3600   10.0340 C   0  0  0  0  0  0  0  0  0  0  0  0
   32.4960   36.0130   11.3200 C   0  0  0  0  0  0  0  0  0  0  0  0
   31.7920   37.3480   11.5100 C   0  0  0  0  0  0  0  0  0  0  0  0
   32.0080   38.2410   10.3030 C   0  0  0  0  0  0  0  0  0  0  0  0
   30.9130   39.2410   10.1720 N   0  0  0  0  0  0  0  0  0  0  0  0
  1  2  1  0  0  0  0
  2  3  1  0  0  0  0
  3  4  1  0  0  0  0
  5  4  1  0  0  0  0
  6  5  1  0  0  0  0
M  END
>  <EGIN_R>
ES LYS A 135

>  <REMARK>
  4 active torsions:
  status: ('A' for Active; 'I' for Inactive)
    5  A    between atoms: CA   and  CB  
    6  A    between atoms: CB   and  CG  
    7  A    between atoms: CG   and  CD  
    8  A    between atoms: CD   and  CE  

$$$$
