ligand_49_pose_14_2HRL.pdbqt
 OpenBabel07062320523D

 48 49  0  0  1  0  0  0  0  0999 V2000
   26.6030   33.0790   17.4560 C   0  0  0  0  0  0  0  0  0  0  0  0
   27.9080   32.9980   16.7150 C   0  0  2  0  0  0  0  0  0  0  0  0
   28.4180   34.4210   16.5900 C   0  0  1  0  0  0  0  0  0  0  0  0
   29.8060   34.4860   16.0370 C   0  0  2  0  0  0  0  0  0  0  0  0
   30.9330   34.8360   14.0420 C   0  0  2  0  0  0  0  0  0  0  0  0
   32.1150   34.5960   14.9680 C   0  0  0  0  0  0  0  0  0  0  0  0
   29.7830   34.3510   14.6690 O   0  0  0  0  0  0  0  0  0  0  0  0
   31.8750   33.2670   15.6550 C   0  0  1  0  0  0  0  0  0  0  0  0
   30.7530   33.4980   16.6600 C   0  0  1  0  0  0  0  0  0  0  0  0
   31.1950   34.1300   12.8740 O   0  0  0  0  0  0  0  0  0  0  0  0
   31.9060   34.6410   12.3770 H   0  0  0  0  0  0  0  0  0  0  0  0
   30.7680   36.2570   13.7130 C   0  0  0  0  0  0  0  0  0  0  0  0
   31.5650   37.1270   14.1420 O   0  0  0  0  0  0  0  0  0  0  0  0
   29.7200   36.6810   12.9130 O   0  0  0  0  0  0  0  0  0  0  0  0
   29.5250   37.6770   12.7450 H   0  0  0  0  0  0  0  0  0  0  0  0
   31.4380   32.3720   14.6640 O   0  0  0  0  0  0  0  0  0  0  0  0
   32.1930   32.2540   14.0300 H   0  0  0  0  0  0  0  0  0  0  0  0
   31.3300   33.9940   17.8930 N   0  0  0  0  0  0  0  0  0  0  0  0
   31.1340   33.3080   19.1120 C   0  0  0  0  0  0  0  0  0  0  0  0
   31.8950   34.8610   17.8900 H   0  0  0  0  0  0  0  0  0  0  0  0
   31.6960   33.7590   20.4100 C   0  0  0  0  0  0  0  0  0  0  0  0
   30.4490   32.2610   19.0980 O   0  0  0  0  0  0  0  0  0  0  0  0
   27.5680   35.0690   15.6930 O   0  0  0  0  0  0  0  0  0  0  0  0
   27.5450   36.0400   15.8030 H   0  0  0  0  0  0  0  0  0  0  0  0
   27.7610   32.4440   15.4650 O   0  0  0  0  0  0  0  0  0  0  0  0
   28.5230   32.7230   14.8900 H   0  0  0  0  0  0  0  0  0  0  0  0
   25.4670   33.4640   16.6790 N   0  0  0  0  0  0  0  0  0  0  0  0
   24.6390   32.6080   15.9450 C   0  0  0  0  0  0  0  0  0  0  0  0
   25.2390   34.5090   16.6650 H   0  0  0  0  0  0  0  0  0  0  0  0
   24.8680   31.3770   15.9220 O   0  0  0  0  0  0  0  0  0  0  0  0
   23.5420   33.1210   15.2280 O   0  0  0  0  0  0  0  0  0  0  0  0
   23.6190   33.0890   13.8150 C   0  0  0  0  0  0  0  0  0  0  0  0
   24.6300   34.0780   13.3820 C   0  0  0  0  0  0  0  0  0  0  0  0
   25.3460   33.9790   12.1960 C   0  0  0  0  0  0  0  0  0  0  0  0
   25.0530   35.1910   13.9700 N   0  0  0  0  0  0  0  0  0  0  0  0
   26.1610   35.0310   12.1260 N   0  0  0  0  0  0  0  0  0  0  0  0
   25.9740   35.7590   13.2090 N   0  0  0  0  0  0  0  0  0  0  0  0
   27.0760   35.2730   11.0150 C   0  0  0  0  0  0  0  0  0  0  0  0
   27.1930   33.9940   10.2360 C   0  0  0  0  0  0  0  0  0  0  0  0
   26.4620   36.3020   10.0930 C   0  0  0  0  0  0  0  0  0  0  0  0
   26.8070   34.3120    8.8270 C   0  0  0  0  0  0  0  0  0  0  0  0
   25.8710   35.4820    8.9600 C   0  0  0  0  0  0  0  0  0  0  0  0
   29.8670   25.5550   16.9770 C   0  0  0  0  0  0  0  0  0  0  0  0
   28.3450   25.7220   17.0260 C   0  0  0  0  0  0  0  0  0  0  0  0
   27.6010   24.4030   16.8880 C   0  0  0  0  0  0  0  0  0  0  0  0
   26.6510   24.1660   18.0290 C   0  0  0  0  0  0  0  0  0  0  0  0
   25.5310   23.2360   17.5750 C   0  0  0  0  0  0  0  0  0  0  0  0
   24.4730   24.0020   16.8740 N   0  0  0  0  0  0  0  0  0  0  0  0
  2  1  1  6  0  0  0
  3 23  1  6  0  0  0
  3  2  1  0  0  0  0
  4  3  1  1  0  0  0
  4  9  1  0  0  0  0
  5 10  1  6  0  0  0
  5  7  1  0  0  0  0
  5  6  1  0  0  0  0
  6  8  1  0  0  0  0
  7  4  1  0  0  0  0
  8 16  1  6  0  0  0
  8  9  1  0  0  0  0
  9 18  1  1  0  0  0
 11 10  1  0  0  0  0
 12  5  1  0  0  0  0
 12 13  2  0  0  0  0
 14 12  1  0  0  0  0
 15 14  1  0  0  0  0
 17 16  1  0  0  0  0
 18 19  1  0  0  0  0
 19 21  1  0  0  0  0
 20 18  1  0  0  0  0
 22 19  2  0  0  0  0
 23 24  1  0  0  0  0
 25  2  1  0  0  0  0
 26 25  1  0  0  0  0
 27  1  1  0  0  0  0
 28 27  1  0  0  0  0
 29 27  1  0  0  0  0
 30 28  2  0  0  0  0
 31 28  1  0  0  0  0
 32 31  1  0  0  0  0
 33 32  1  0  0  0  0
 33 35  1  0  0  0  0
 34 33  2  0  0  0  0
 36 34  1  0  0  0  0
 36 37  1  0  0  0  0
 37 35  2  0  0  0  0
 38 36  1  0  0  0  0
 39 38  1  0  0  0  0
 40 38  1  0  0  0  0
 41 42  1  0  0  0  0
 41 39  1  0  0  0  0
 42 40  1  0  0  0  0
 43 44  1  0  0  0  0
 45 44  1  0  0  0  0
 45 46  1  0  0  0  0
 47 46  1  0  0  0  0
 48 47  1  0  0  0  0
M  END
>  <REMARK>
 VINA RESULT:    -4.881      2.551      4.232
 INTER + INTRA:         -13.474
 INTER:                  -8.059
 INTRA:                  -5.416
 UNBOUND:                -5.026
 SMILES CC(=O)N[C@@H]1[C@@H](O)C[C@](O)(C(=O)O)O[C@H]1C(O)[C@H](O)CNC(=O)OCc1cn(C2CCCC2)nn1
 SMILES IDX 20 1 18 2 16 3 15 4 9 5 8 6 14 7 6 8 5 9 10 10 11 12 12 13
 SMILES IDX 13 14 7 16 4 18 2 19 1 21 3 22 17 23 19 25 21 27 22 28 23 30
 SMILES IDX 24 31 25 32 26 33 27 34 35 35 28 36 34 37 29 38 30 39 33 40
 SMILES IDX 31 41 32 42
 H PARENT 10 11 13 15 7 17 4 20 17 24 19 26 21 29
 Flexibility Score: inf
  4 active torsions:
  status: ('A' for Active; 'I' for Inactive)
    1  A    between atoms: CA   and  CB  
    2  A    between atoms: CB   and  CG  
    3  A    between atoms: CG   and  CD  
    4  A    between atoms: CD   and  CE  

>  <TORSDO>
F 15

>  <BEGIN_>
RES LYS A 131

$$$$
ligand_49_pose_14_2HRL.pdbqt
 OpenBabel07062320523D

  6  5  0  0  0  0  0  0  0  0999 V2000
   33.1930   34.6630    9.2900 C   0  0  0  0  0  0  0  0  0  0  0  0
   32.0600   35.3600   10.0340 C   0  0  0  0  0  0  0  0  0  0  0  0
   30.7360   35.2900    9.3180 C   0  0  0  0  0  0  0  0  0  0  0  0
   30.0960   36.6670    9.2370 C   0  0  0  0  0  0  0  0  0  0  0  0
   29.3860   36.8470    7.9080 C   0  0  0  0  0  0  0  0  0  0  0  0
   29.3720   35.5770    7.1310 N   0  0  0  0  0  0  0  0  0  0  0  0
  1  2  1  0  0  0  0
  3  2  1  0  0  0  0
  4  3  1  0  0  0  0
  5  4  1  0  0  0  0
  6  5  1  0  0  0  0
M  END
>  <EGIN_R>
ES LYS A 135

>  <REMARK>
  4 active torsions:
  status: ('A' for Active; 'I' for Inactive)
    5  A    between atoms: CA   and  CB  
    6  A    between atoms: CB   and  CG  
    7  A    between atoms: CG   and  CD  
    8  A    between atoms: CD   and  CE  

$$$$
