ligand_9_pose_8_2HRL.pdbqt
 OpenBabel07062320523D

 54 55  0  0  1  0  0  0  0  0999 V2000
   28.6920   32.3760   15.8810 N   0  0  0  0  0  0  0  0  0  0  0  0
   27.7900   33.4480   15.6440 C   0  0  0  0  0  0  0  0  0  0  0  0
   27.9110   34.4940   16.3280 O   0  0  0  0  0  0  0  0  0  0  0  0
   28.5740   31.5200   15.3040 H   0  0  0  0  0  0  0  0  0  0  0  0
   29.7310   32.4700   16.8860 C   0  0  0  0  0  0  0  0  0  0  0  0
   31.1060   32.3970   16.3110 C   0  0  2  0  0  0  0  0  0  0  0  0
   31.8710   33.6770   16.4150 C   0  0  1  0  0  0  0  0  0  0  0  0
   31.3460   34.7070   15.3810 C   0  0  2  0  0  0  0  0  0  0  0  0
   31.6690   35.4390   13.2650 C   0  0  2  0  0  0  0  0  0  0  0  0
   32.0850   36.8270   13.6970 C   0  0  0  0  0  0  0  0  0  0  0  0
   32.0460   34.5420   14.2150 O   0  0  0  0  0  0  0  0  0  0  0  0
   31.5120   37.2120   15.0270 C   0  0  1  0  0  0  0  0  0  0  0  0
   31.3710   36.0630   15.9830 C   0  0  1  0  0  0  0  0  0  0  0  0
   32.4620   35.1640   12.1150 O   0  0  0  0  0  0  0  0  0  0  0  0
   33.0630   34.4120   12.2560 H   0  0  0  0  0  0  0  0  0  0  0  0
   30.2600   35.4150   12.8520 C   0  0  0  0  0  0  0  0  0  0  0  0
   29.5270   36.4600   12.8010 O   0  0  0  0  0  0  0  0  0  0  0  0
   29.6930   34.1760   12.4930 O   0  0  0  0  0  0  0  0  0  0  0  0
   30.2320   33.5840   11.8480 H   0  0  0  0  0  0  0  0  0  0  0  0
   32.2880   38.2360   15.5670 O   0  0  0  0  0  0  0  0  0  0  0  0
   31.8160   38.7380   16.2790 H   0  0  0  0  0  0  0  0  0  0  0  0
   30.2210   36.2300   16.8530 N   0  0  0  0  0  0  0  0  0  0  0  0
   30.3140   36.8980   18.1020 C   0  0  0  0  0  0  0  0  0  0  0  0
   29.2890   35.8330   16.5280 H   0  0  0  0  0  0  0  0  0  0  0  0
   29.0930   37.0290   18.9390 C   0  0  0  0  0  0  0  0  0  0  0  0
   31.4240   37.3850   18.5090 O   0  0  0  0  0  0  0  0  0  0  0  0
   31.8440   34.2750   17.6500 O   0  0  0  0  0  0  0  0  0  0  0  0
   31.0710   34.8400   17.8270 H   0  0  0  0  0  0  0  0  0  0  0  0
   31.0790   31.8740   15.0210 O   0  0  0  0  0  0  0  0  0  0  0  0
   30.6010   31.0020   15.0680 H   0  0  0  0  0  0  0  0  0  0  0  0
   26.7800   33.4080   14.6980 O   0  0  0  0  0  0  0  0  0  0  0  0
   25.7630   34.3900   14.6440 C   0  0  0  0  0  0  0  0  0  0  0  0
   25.7550   35.0590   13.3300 C   0  0  0  0  0  0  0  0  0  0  0  0
   26.4030   34.6870   12.1640 C   0  0  0  0  0  0  0  0  0  0  0  0
   25.0980   36.1940   13.0050 N   0  0  0  0  0  0  0  0  0  0  0  0
   26.1250   35.5840   11.1950 N   0  0  0  0  0  0  0  0  0  0  0  0
   25.3210   36.4930   11.7540 N   0  0  0  0  0  0  0  0  0  0  0  0
   26.5650   35.6090    9.8540 C   0  0  0  0  0  0  0  0  0  0  0  0
   26.4800   36.7560    9.0870 C   0  0  0  0  0  0  0  0  0  0  0  0
   27.0970   34.4880    9.2560 C   0  0  0  0  0  0  0  0  0  0  0  0
   26.8990   36.8240    7.7730 C   0  0  0  0  0  0  0  0  0  0  0  0
   27.5290   34.5250    7.9330 C   0  0  0  0  0  0  0  0  0  0  0  0
   27.4260   35.6850    7.2080 C   0  0  0  0  0  0  0  0  0  0  0  0
   26.7990   38.0490    6.9880 C   0  0  0  0  0  0  0  0  0  0  0  0
   26.0660   38.9830    7.3960 O   0  0  0  0  0  0  0  0  0  0  0  0
   27.4850   38.2310    5.7990 O   0  0  0  0  0  0  0  0  0  0  0  0
   27.3830   39.4150    5.0330 C   0  0  0  0  0  0  0  0  0  0  0  0
   28.6480   40.2060    5.2020 C   0  0  0  0  0  0  0  0  0  0  0  0
   29.8670   25.5550   16.9770 C   0  0  0  0  0  0  0  0  0  0  0  0
   28.3450   25.7220   17.0260 C   0  0  0  0  0  0  0  0  0  0  0  0
   27.6010   24.4040   16.8720 C   0  0  0  0  0  0  0  0  0  0  0  0
   26.6270   24.1700   17.9940 C   0  0  0  0  0  0  0  0  0  0  0  0
   25.4680   23.3150   17.4910 C   0  0  0  0  0  0  0  0  0  0  0  0
   24.4510   24.1600   16.8230 N   0  0  0  0  0  0  0  0  0  0  0  0
  1  5  1  0  0  0  0
  2  1  1  0  0  0  0
  2  3  2  0  0  0  0
  4  1  1  0  0  0  0
  6  7  1  0  0  0  0
  6  5  1  6  0  0  0
  7 27  1  1  0  0  0
  8 13  1  0  0  0  0
  8  7  1  1  0  0  0
  9 14  1  6  0  0  0
  9 10  1  0  0  0  0
  9 11  1  0  0  0  0
 10 12  1  0  0  0  0
 11  8  1  0  0  0  0
 12 20  1  1  0  0  0
 12 13  1  0  0  0  0
 13 22  1  6  0  0  0
 14 15  1  0  0  0  0
 16  9  1  0  0  0  0
 17 16  2  0  0  0  0
 18 16  1  0  0  0  0
 19 18  1  0  0  0  0
 20 21  1  0  0  0  0
 22 23  1  0  0  0  0
 23 26  2  0  0  0  0
 23 25  1  0  0  0  0
 24 22  1  0  0  0  0
 27 28  1  0  0  0  0
 29 30  1  0  0  0  0
 29  6  1  0  0  0  0
 31  2  1  0  0  0  0
 32 31  1  0  0  0  0
 33 32  1  0  0  0  0
 34 33  2  0  0  0  0
 35 33  1  0  0  0  0
 36 37  1  0  0  0  0
 36 34  1  0  0  0  0
 37 35  2  0  0  0  0
 38 36  1  0  0  0  0
 39 38  2  0  0  0  0
 40 38  1  0  0  0  0
 41 39  1  0  0  0  0
 42 40  2  0  0  0  0
 43 41  2  0  0  0  0
 43 42  1  0  0  0  0
 44 45  2  0  0  0  0
 44 41  1  0  0  0  0
 46 44  1  0  0  0  0
 47 48  1  0  0  0  0
 47 46  1  0  0  0  0
 49 50  1  0  0  0  0
 51 50  1  0  0  0  0
 51 52  1  0  0  0  0
 53 52  1  0  0  0  0
 54 53  1  0  0  0  0
M  END
>  <REMARK>
 VINA RESULT:    -4.997      4.220      7.636
 INTER + INTRA:         -15.197
 INTER:                 -10.348
 INTRA:                  -4.849
 UNBOUND:                -5.671
 SMILES CCOC(=O)c1cccc(-n2cc(COC(=O)NC[C@@H](O)C(O)[C@@H]3O[C@@](O)(C(=O)O)C[C@H](O)[C@H]3NC(C)=O)nn2)c1
 SMILES IDX 18 1 16 2 17 3 19 5 20 6 22 7 24 8 26 9 31 10 25 11 32 12
 SMILES IDX 34 13 27 14 28 16 29 17 30 18 33 20 35 22 36 23 37 25 38 26
 SMILES IDX 23 27 21 29 15 31 14 32 13 33 12 34 39 35 11 36 40 37 10 38
 SMILES IDX 41 39 9 40 6 41 8 42 7 43 4 44 5 45 3 46 2 47 1 48
 H PARENT 18 4 27 15 30 19 33 21 35 24 23 28 21 30
 Flexibility Score: inf
  4 active torsions:
  status: ('A' for Active; 'I' for Inactive)
    1  A    between atoms: CA   and  CB  
    2  A    between atoms: CB   and  CG  
    3  A    between atoms: CG   and  CD  
    4  A    between atoms: CD   and  CE  

>  <TORSDO>
F 18

>  <BEGIN_>
RES LYS A 131

$$$$
ligand_9_pose_8_2HRL.pdbqt
 OpenBabel07062320523D

  6  5  0  0  0  0  0  0  0  0999 V2000
   33.1930   34.6630    9.2900 C   0  0  0  0  0  0  0  0  0  0  0  0
   32.0600   35.3600   10.0340 C   0  0  0  0  0  0  0  0  0  0  0  0
   30.8260   35.5690    9.1940 C   0  0  0  0  0  0  0  0  0  0  0  0
   30.1950   36.9190    9.4950 C   0  0  0  0  0  0  0  0  0  0  0  0
   30.4110   37.8770    8.3390 C   0  0  0  0  0  0  0  0  0  0  0  0
   30.8400   39.2180    8.8260 N   0  0  0  0  0  0  0  0  0  0  0  0
  1  2  1  0  0  0  0
  3  4  1  0  0  0  0
  3  2  1  0  0  0  0
  5  6  1  0  0  0  0
  5  4  1  0  0  0  0
M  END
>  <EGIN_R>
ES LYS A 135

>  <REMARK>
  4 active torsions:
  status: ('A' for Active; 'I' for Inactive)
    5  A    between atoms: CA   and  CB  
    6  A    between atoms: CB   and  CG  
    7  A    between atoms: CG   and  CD  
    8  A    between atoms: CD   and  CE  

$$$$
