ligand_13_pose_19_2HRL.pdbqt
 OpenBabel07062320523D

 49 49  0  0  1  0  0  0  0  0999 V2000
   31.7600   33.6640   15.6120 N   0  0  0  0  0  0  0  0  0  0  0  0
   32.6200   34.7240   15.2480 C   0  0  0  0  0  0  0  0  0  0  0  0
   32.8610   35.6750   16.0000 O   0  0  0  0  0  0  0  0  0  0  0  0
   31.6600   32.9140   14.8510 H   0  0  0  0  0  0  0  0  0  0  0  0
   31.0550   33.5290   16.8450 C   0  0  0  0  0  0  0  0  0  0  0  0
   29.7050   34.1550   16.9300 C   0  0  2  0  0  0  0  0  0  0  0  0
   28.6410   33.2540   17.4460 C   0  0  1  0  0  0  0  0  0  0  0  0
   28.5700   31.8870   16.8210 C   0  0  2  0  0  0  0  0  0  0  0  0
   26.3790   31.3390   16.2170 C   0  0  2  0  0  0  0  0  0  0  0  0
   26.5960   29.8420   16.2620 C   0  0  0  0  0  0  0  0  0  0  0  0
   27.5470   31.9480   15.8780 O   0  0  0  0  0  0  0  0  0  0  0  0
   27.7980   29.5400   17.0780 C   0  0  1  0  0  0  0  0  0  0  0  0
   28.3630   30.7710   17.8060 C   0  0  1  0  0  0  0  0  0  0  0  0
   25.8250   31.7000   17.4310 O   0  0  0  0  0  0  0  0  0  0  0  0
   26.4980   31.5320   18.1310 H   0  0  0  0  0  0  0  0  0  0  0  0
   25.3940   31.5880   15.1400 C   0  0  0  0  0  0  0  0  0  0  0  0
   24.8550   32.7130   15.0690 O   0  0  0  0  0  0  0  0  0  0  0  0
   25.0620   30.6190   14.2270 O   0  0  0  0  0  0  0  0  0  0  0  0
   24.6660   29.7210   14.5050 H   0  0  0  0  0  0  0  0  0  0  0  0
   27.5990   28.5280   18.0130 O   0  0  0  0  0  0  0  0  0  0  0  0
   26.6700   28.4340   18.3040 H   0  0  0  0  0  0  0  0  0  0  0  0
   29.6170   30.3030   18.3570 N   0  0  0  0  0  0  0  0  0  0  0  0
   29.9700   30.3320   19.7170 C   0  0  0  0  0  0  0  0  0  0  0  0
   30.3130   29.9110   17.6840 H   0  0  0  0  0  0  0  0  0  0  0  0
   31.2620   29.8470   20.2610 C   0  0  0  0  0  0  0  0  0  0  0  0
   29.1140   30.8100   20.5240 O   0  0  0  0  0  0  0  0  0  0  0  0
   28.6350   33.2140   18.8190 O   0  0  0  0  0  0  0  0  0  0  0  0
   27.9920   33.8350   19.2460 H   0  0  0  0  0  0  0  0  0  0  0  0
   29.3130   34.5140   15.6240 O   0  0  0  0  0  0  0  0  0  0  0  0
   29.2270   35.5100   15.5500 H   0  0  0  0  0  0  0  0  0  0  0  0
   33.2510   34.7380   13.9830 O   0  0  0  0  0  0  0  0  0  0  0  0
   32.8760   35.6760   12.9920 C   0  0  0  0  0  0  0  0  0  0  0  0
   31.4060   35.5460   12.8140 C   0  0  0  0  0  0  0  0  0  0  0  0
   30.4740   36.5500   12.6880 C   0  0  0  0  0  0  0  0  0  0  0  0
   30.6830   34.3940   12.7390 N   0  0  0  0  0  0  0  0  0  0  0  0
   29.2530   35.9630   12.5460 N   0  0  0  0  0  0  0  0  0  0  0  0
   29.4170   34.6520   12.5810 N   0  0  0  0  0  0  0  0  0  0  0  0
   27.9750   36.6140   12.3810 C   0  0  0  0  0  0  0  0  0  0  0  0
   26.8750   35.6380   12.4290 C   0  0  0  0  0  0  0  0  0  0  0  0
   26.3220   35.3950   13.5230 O   0  0  0  0  0  0  0  0  0  0  0  0
   26.4880   35.0140   11.2430 O   0  0  0  0  0  0  0  0  0  0  0  0
   25.1530   35.2880   10.8060 C   0  0  0  0  0  0  0  0  0  0  0  0
   25.2000   35.5590    9.3240 C   0  0  0  0  0  0  0  0  0  0  0  0
   29.8670   25.5550   16.9770 C   0  0  0  0  0  0  0  0  0  0  0  0
   28.3450   25.7220   17.0260 C   0  0  0  0  0  0  0  0  0  0  0  0
   27.6020   24.4000   16.9110 C   0  0  0  0  0  0  0  0  0  0  0  0
   26.5490   24.2470   17.9740 C   0  0  0  0  0  0  0  0  0  0  0  0
   25.1900   24.0270   17.3170 C   0  0  0  0  0  0  0  0  0  0  0  0
   24.7580   22.6190   17.4800 N   0  0  0  0  0  0  0  0  0  0  0  0
  1  5  1  0  0  0  0
  2  1  1  0  0  0  0
  2  3  2  0  0  0  0
  4  1  1  0  0  0  0
  6  5  1  6  0  0  0
  6  7  1  0  0  0  0
  7 27  1  1  0  0  0
  8  7  1  1  0  0  0
  8 13  1  0  0  0  0
  9 16  1  6  0  0  0
  9 10  1  0  0  0  0
  9 14  1  0  0  0  0
 10 12  1  0  0  0  0
 11  9  1  0  0  0  0
 11  8  1  0  0  0  0
 12 13  1  0  0  0  0
 12 20  1  1  0  0  0
 13 22  1  6  0  0  0
 14 15  1  0  0  0  0
 17 16  2  0  0  0  0
 18 19  1  0  0  0  0
 18 16  1  0  0  0  0
 20 21  1  0  0  0  0
 22 23  1  0  0  0  0
 23 25  1  0  0  0  0
 23 26  2  0  0  0  0
 24 22  1  0  0  0  0
 27 28  1  0  0  0  0
 29  6  1  0  0  0  0
 30 29  1  0  0  0  0
 31  2  1  0  0  0  0
 32 31  1  0  0  0  0
 33 32  1  0  0  0  0
 34 33  2  0  0  0  0
 35 33  1  0  0  0  0
 36 37  1  0  0  0  0
 36 34  1  0  0  0  0
 37 35  2  0  0  0  0
 38 39  1  0  0  0  0
 38 36  1  0  0  0  0
 39 40  2  0  0  0  0
 41 39  1  0  0  0  0
 42 41  1  0  0  0  0
 43 42  1  0  0  0  0
 44 45  1  0  0  0  0
 46 45  1  0  0  0  0
 46 47  1  0  0  0  0
 48 49  1  0  0  0  0
 48 47  1  0  0  0  0
M  END
>  <REMARK>
 VINA RESULT:    -4.015      2.956      8.561
 INTER + INTRA:         -13.603
 INTER:                  -7.671
 INTRA:                  -5.932
 UNBOUND:                -5.949
 SMILES CCOC(=O)Cn1cc(COC(=O)NC[C@@H](O)C(O)[C@@H]2O[C@@](O)(C(=O)O)C[C@H](O)[C@H]2NC(C)=O)nn1
 SMILES IDX 14 1 12 2 13 3 15 5 16 6 18 7 20 8 22 9 27 10 21 11 28 12
 SMILES IDX 30 13 23 14 24 16 25 17 26 18 29 20 31 22 32 23 33 25 34 26
 SMILES IDX 19 27 17 29 11 31 10 32 9 33 8 34 35 35 7 36 36 37 6 38 4 39
 SMILES IDX 5 40 3 41 2 42 1 43
 H PARENT 14 4 23 15 26 19 29 21 31 24 19 28 17 30
 Flexibility Score: inf
  4 active torsions:
  status: ('A' for Active; 'I' for Inactive)
    1  A    between atoms: CA   and  CB  
    2  A    between atoms: CB   and  CG  
    3  A    between atoms: CG   and  CD  
    4  A    between atoms: CD   and  CE  

>  <TORSDO>
F 18

>  <BEGIN_>
RES LYS A 131

$$$$
ligand_13_pose_19_2HRL.pdbqt
 OpenBabel07062320523D

  6  5  0  0  0  0  0  0  0  0999 V2000
   33.1930   34.6630    9.2900 C   0  0  0  0  0  0  0  0  0  0  0  0
   32.0600   35.3600   10.0340 C   0  0  0  0  0  0  0  0  0  0  0  0
   30.8160   35.5430    9.2030 C   0  0  0  0  0  0  0  0  0  0  0  0
   30.1090   34.2120    8.9970 C   0  0  0  0  0  0  0  0  0  0  0  0
   28.6940   34.4330    8.4970 C   0  0  0  0  0  0  0  0  0  0  0  0
   28.6860   35.2540    7.2540 N   0  0  0  0  0  0  0  0  0  0  0  0
  1  2  1  0  0  0  0
  3  2  1  0  0  0  0
  4  3  1  0  0  0  0
  5  4  1  0  0  0  0
  6  5  1  0  0  0  0
M  END
>  <EGIN_R>
ES LYS A 135

>  <REMARK>
  4 active torsions:
  status: ('A' for Active; 'I' for Inactive)
    5  A    between atoms: CA   and  CB  
    6  A    between atoms: CB   and  CG  
    7  A    between atoms: CG   and  CD  
    8  A    between atoms: CD   and  CE  

$$$$
