ligand_1_pose_16_2HRL.pdbqt
 OpenBabel07062320523D

 47 47  0  0  1  0  0  0  0  0999 V2000
   25.7830   39.0560   11.2220 N   0  0  0  0  0  0  0  0  0  0  0  0
   26.1530   37.7220   11.4220 C   0  0  0  0  0  0  0  0  0  0  0  0
   25.5750   37.0420   12.2660 O   0  0  0  0  0  0  0  0  0  0  0  0
   26.3500   39.5660   10.4630 H   0  0  0  0  0  0  0  0  0  0  0  0
   24.7870   39.8250   11.8610 C   0  0  0  0  0  0  0  0  0  0  0  0
   23.5150   40.0780   11.1150 C   0  0  2  0  0  0  0  0  0  0  0  0
   22.5930   38.8970   11.1410 C   0  0  1  0  0  0  0  0  0  0  0  0
   22.7860   37.8180   10.1630 C   0  0  2  0  0  0  0  0  0  0  0  0
   23.7050   37.1940    8.1430 C   0  0  2  0  0  0  0  0  0  0  0  0
   23.5590   35.8120    8.7460 C   0  0  0  0  0  0  0  0  0  0  0  0
   23.4950   38.2230    9.0600 O   0  0  0  0  0  0  0  0  0  0  0  0
   22.1590   35.6300    9.3170 C   0  0  1  0  0  0  0  0  0  0  0  0
   21.6090   37.0060    9.7440 C   0  0  1  0  0  0  0  0  0  0  0  0
   22.7800   37.3810    7.1200 O   0  0  0  0  0  0  0  0  0  0  0  0
   22.9850   38.1610    6.5570 H   0  0  0  0  0  0  0  0  0  0  0  0
   25.0660   37.3970    7.5990 C   0  0  0  0  0  0  0  0  0  0  0  0
   25.9560   36.5100    7.6350 O   0  0  0  0  0  0  0  0  0  0  0  0
   25.3850   38.6140    7.0230 O   0  0  0  0  0  0  0  0  0  0  0  0
   26.1300   38.6610    6.3120 H   0  0  0  0  0  0  0  0  0  0  0  0
   21.3450   35.0560    8.3510 O   0  0  0  0  0  0  0  0  0  0  0  0
   21.7680   34.1960    8.0920 H   0  0  0  0  0  0  0  0  0  0  0  0
   20.6190   36.8010   10.7820 N   0  0  0  0  0  0  0  0  0  0  0  0
   19.2530   37.0270   10.4750 C   0  0  0  0  0  0  0  0  0  0  0  0
   20.8850   36.4920   11.7490 H   0  0  0  0  0  0  0  0  0  0  0  0
   18.1690   36.8450   11.4770 C   0  0  0  0  0  0  0  0  0  0  0  0
   18.9350   37.3960    9.3210 O   0  0  0  0  0  0  0  0  0  0  0  0
   22.7620   38.3770   12.4790 O   0  0  0  0  0  0  0  0  0  0  0  0
   22.7650   39.1280   13.0970 H   0  0  0  0  0  0  0  0  0  0  0  0
   23.7430   40.5660    9.8720 O   0  0  0  0  0  0  0  0  0  0  0  0
   22.9580   40.6830    9.3010 H   0  0  0  0  0  0  0  0  0  0  0  0
   27.1730   37.1280   10.6830 O   0  0  0  0  0  0  0  0  0  0  0  0
   28.4090   37.7750   10.4660 C   0  0  0  0  0  0  0  0  0  0  0  0
   28.4170   38.3890    9.1170 C   0  0  0  0  0  0  0  0  0  0  0  0
   29.0870   37.9470    8.0030 C   0  0  0  0  0  0  0  0  0  0  0  0
   27.7650   39.4860    8.7580 N   0  0  0  0  0  0  0  0  0  0  0  0
   28.7920   38.8200    7.0230 N   0  0  0  0  0  0  0  0  0  0  0  0
   27.9860   39.7650    7.4760 N   0  0  0  0  0  0  0  0  0  0  0  0
   29.2990   38.7240    5.6680 C   0  0  0  0  0  0  0  0  0  0  0  0
   28.1130   38.6490    4.7100 C   0  0  0  0  0  0  0  0  0  0  0  0
   27.3340   37.5240    5.0480 O   0  0  0  0  0  0  0  0  0  0  0  0
   27.3450   36.8640    4.2900 H   0  0  0  0  0  0  0  0  0  0  0  0
   29.8670   25.5550   16.9770 C   0  0  0  0  0  0  0  0  0  0  0  0
   28.3450   25.7220   17.0260 C   0  0  0  0  0  0  0  0  0  0  0  0
   27.6030   24.3940   16.9900 C   0  0  0  0  0  0  0  0  0  0  0  0
   26.3280   24.4360   17.7850 C   0  0  0  0  0  0  0  0  0  0  0  0
   25.5020   23.1890   17.4890 C   0  0  0  0  0  0  0  0  0  0  0  0
   24.1030   23.5580   17.1660 N   0  0  0  0  0  0  0  0  0  0  0  0
  1  2  1  0  0  0  0
  1  5  1  0  0  0  0
  2  3  2  0  0  0  0
  4  1  1  0  0  0  0
  6  7  1  0  0  0  0
  6  5  1  6  0  0  0
  7 27  1  1  0  0  0
  8  7  1  6  0  0  0
  9 14  1  6  0  0  0
  9 10  1  0  0  0  0
  9 11  1  0  0  0  0
 10 12  1  0  0  0  0
 11  8  1  0  0  0  0
 12 20  1  6  0  0  0
 12 13  1  0  0  0  0
 13  8  1  0  0  0  0
 13 22  1  1  0  0  0
 15 14  1  0  0  0  0
 16 17  2  0  0  0  0
 16  9  1  0  0  0  0
 18 16  1  0  0  0  0
 19 18  1  0  0  0  0
 21 20  1  0  0  0  0
 22 24  1  0  0  0  0
 23 22  1  0  0  0  0
 23 25  1  0  0  0  0
 26 23  2  0  0  0  0
 27 28  1  0  0  0  0
 29  6  1  0  0  0  0
 30 29  1  0  0  0  0
 31  2  1  0  0  0  0
 32 31  1  0  0  0  0
 33 32  1  0  0  0  0
 34 33  2  0  0  0  0
 35 33  1  0  0  0  0
 36 37  1  0  0  0  0
 36 34  1  0  0  0  0
 37 35  2  0  0  0  0
 38 36  1  0  0  0  0
 39 40  1  0  0  0  0
 39 38  1  0  0  0  0
 41 40  1  0  0  0  0
 42 43  1  0  0  0  0
 44 43  1  0  0  0  0
 44 45  1  0  0  0  0
 46 45  1  0  0  0  0
 47 46  1  0  0  0  0
M  END
>  <REMARK>
 VINA RESULT:    -3.102      3.581      6.238
 INTER + INTRA:         -13.212
 INTER:                  -6.224
 INTRA:                  -6.988
 UNBOUND:                -7.572
 SMILES CC(=O)N[C@@H]1[C@@H](O)C[C@](O)(C(=O)O)O[C@H]1C(O)[C@H](O)CNC(=O)OCc1cn(CCO)nn1
 SMILES IDX 21 1 22 2 23 3 20 5 18 6 16 7 15 8 9 9 8 10 14 11 6 12 5 13
 SMILES IDX 10 14 11 16 12 17 13 18 7 20 4 22 2 23 1 25 3 26 17 27 19 29
 SMILES IDX 24 31 25 32 26 33 27 34 33 35 28 36 32 37 29 38 30 39 31 40
 H PARENT 21 4 10 15 13 19 7 21 4 24 17 28 19 30 31 41
 Flexibility Score: inf
  4 active torsions:
  status: ('A' for Active; 'I' for Inactive)
    1  A    between atoms: CA   and  CB  
    2  A    between atoms: CB   and  CG  
    3  A    between atoms: CG   and  CD  
    4  A    between atoms: CD   and  CE  

>  <TORSDO>
F 17

>  <BEGIN_>
RES LYS A 131

$$$$
ligand_1_pose_16_2HRL.pdbqt
 OpenBabel07062320523D

  6  5  0  0  0  0  0  0  0  0999 V2000
   33.1930   34.6630    9.2900 C   0  0  0  0  0  0  0  0  0  0  0  0
   32.0600   35.3600   10.0340 C   0  0  0  0  0  0  0  0  0  0  0  0
   30.7400   34.6400    9.9330 C   0  0  0  0  0  0  0  0  0  0  0  0
   30.3310   34.4700    8.4780 C   0  0  0  0  0  0  0  0  0  0  0  0
   28.8210   34.4480    8.3480 C   0  0  0  0  0  0  0  0  0  0  0  0
   28.1890   33.8180    9.5410 N   0  0  0  0  0  0  0  0  0  0  0  0
  1  2  1  0  0  0  0
  3  2  1  0  0  0  0
  4  3  1  0  0  0  0
  5  4  1  0  0  0  0
  5  6  1  0  0  0  0
M  END
>  <EGIN_R>
ES LYS A 135

>  <REMARK>
  4 active torsions:
  status: ('A' for Active; 'I' for Inactive)
    5  A    between atoms: CA   and  CB  
    6  A    between atoms: CB   and  CG  
    7  A    between atoms: CG   and  CD  
    8  A    between atoms: CD   and  CE  

$$$$
