ligand_71_pose_0_2HRL.pdbqt
 OpenBabel07062320523D

 54 55  0  0  1  0  0  0  0  0999 V2000
   29.1960   30.3370   17.1480 N   0  0  0  0  0  0  0  0  0  0  0  0
   28.4420   30.6200   18.3380 C   0  0  0  0  0  0  0  0  0  0  0  0
   28.8130   31.5090   19.1430 O   0  0  0  0  0  0  0  0  0  0  0  0
   28.8740   29.6020   16.4970 H   0  0  0  0  0  0  0  0  0  0  0  0
   30.3870   31.1060   16.9130 C   0  0  0  0  0  0  0  0  0  0  0  0
   30.3070   31.9740   15.6810 C   0  0  2  0  0  0  0  0  0  0  0  0
   31.3600   33.0470   15.8190 C   0  0  1  0  0  0  0  0  0  0  0  0
   31.0170   34.2710   14.9670 C   0  0  2  0  0  0  0  0  0  0  0  0
   29.8680   34.9400   13.1430 C   0  0  2  0  0  0  0  0  0  0  0  0
   30.8220   36.0640   12.9660 C   0  0  0  0  0  0  0  0  0  0  0  0
   30.4440   33.8800   13.7810 O   0  0  0  0  0  0  0  0  0  0  0  0
   32.2410   35.7940   13.4070 C   0  0  1  0  0  0  0  0  0  0  0  0
   32.3090   35.0230   14.6960 C   0  0  1  0  0  0  0  0  0  0  0  0
   29.5160   34.4310   11.8460 O   0  0  0  0  0  0  0  0  0  0  0  0
   29.3120   35.2050   11.2530 H   0  0  0  0  0  0  0  0  0  0  0  0
   28.5710   35.3870   13.7290 C   0  0  0  0  0  0  0  0  0  0  0  0
   28.3100   36.5830   13.8570 O   0  0  0  0  0  0  0  0  0  0  0  0
   27.6060   34.4690   14.1540 O   0  0  0  0  0  0  0  0  0  0  0  0
   27.5120   33.5600   13.7360 H   0  0  0  0  0  0  0  0  0  0  0  0
   32.8620   35.1000   12.3660 O   0  0  0  0  0  0  0  0  0  0  0  0
   32.2870   34.3580   12.0230 H   0  0  0  0  0  0  0  0  0  0  0  0
   32.6430   35.7940   15.8420 N   0  0  0  0  0  0  0  0  0  0  0  0
   33.9600   36.0060   16.3250 C   0  0  0  0  0  0  0  0  0  0  0  0
   31.8780   36.2530   16.3950 H   0  0  0  0  0  0  0  0  0  0  0  0
   34.2380   36.8270   17.5440 C   0  0  0  0  0  0  0  0  0  0  0  0
   34.8960   35.4800   15.6970 O   0  0  0  0  0  0  0  0  0  0  0  0
   31.5600   33.4100   17.1370 O   0  0  0  0  0  0  0  0  0  0  0  0
   31.3130   34.3800   17.2330 H   0  0  0  0  0  0  0  0  0  0  0  0
   29.0250   32.5160   15.6270 O   0  0  0  0  0  0  0  0  0  0  0  0
   28.5430   32.0500   14.8920 H   0  0  0  0  0  0  0  0  0  0  0  0
   27.2910   29.9270   18.6350 O   0  0  0  0  0  0  0  0  0  0  0  0
   26.3180   29.5110   17.7230 C   0  0  0  0  0  0  0  0  0  0  0  0
   25.9090   30.6410   16.8610 C   0  0  0  0  0  0  0  0  0  0  0  0
   24.9150   31.5730   17.0730 C   0  0  0  0  0  0  0  0  0  0  0  0
   26.4810   30.9470   15.6850 N   0  0  0  0  0  0  0  0  0  0  0  0
   24.9220   32.4010   16.0300 N   0  0  0  0  0  0  0  0  0  0  0  0
   25.8760   31.9960   15.2110 N   0  0  0  0  0  0  0  0  0  0  0  0
   24.0200   33.5470   15.8720 C   0  0  0  0  0  0  0  0  0  0  0  0
   24.3880   34.3140   14.6450 C   0  0  0  0  0  0  0  0  0  0  0  0
   24.8450   35.4690   14.6540 O   0  0  0  0  0  0  0  0  0  0  0  0
   24.2020   33.6740   13.3770 N   0  0  0  0  0  0  0  0  0  0  0  0
   23.8180   32.7030   13.3400 H   0  0  0  0  0  0  0  0  0  0  0  0
   24.5270   34.3170   12.1600 C   0  0  0  0  0  0  0  0  0  0  0  0
   23.6220   34.9510   11.3900 N   0  0  0  0  0  0  0  0  0  0  0  0
   25.7990   34.3160   11.7170 N   0  0  0  0  0  0  0  0  0  0  0  0
   23.9620   35.5560   10.2350 C   0  0  0  0  0  0  0  0  0  0  0  0
   26.1990   34.8950   10.5880 C   0  0  0  0  0  0  0  0  0  0  0  0
   25.2710   35.5450    9.7980 C   0  0  0  0  0  0  0  0  0  0  0  0
   29.8670   25.5550   16.9770 C   0  0  0  0  0  0  0  0  0  0  0  0
   28.3450   25.7220   17.0260 C   0  0  0  0  0  0  0  0  0  0  0  0
   27.6020   24.4000   16.9130 C   0  0  0  0  0  0  0  0  0  0  0  0
   26.3480   24.3820   17.7430 C   0  0  0  0  0  0  0  0  0  0  0  0
   26.0770   25.7820   18.2860 C   0  0  0  0  0  0  0  0  0  0  0  0
   25.8550   25.7360   19.7510 N   0  0  0  0  0  0  0  0  0  0  0  0
  1  2  1  0  0  0  0
  2 31  1  0  0  0  0
  2  3  2  0  0  0  0
  4  1  1  0  0  0  0
  5  1  1  0  0  0  0
  6  7  1  0  0  0  0
  6  5  1  1  0  0  0
  7 27  1  1  0  0  0
  8  7  1  1  0  0  0
  9 14  1  6  0  0  0
  9 16  1  0  0  0  0
  9 11  1  0  0  0  0
 10  9  1  0  0  0  0
 10 12  1  0  0  0  0
 11  8  1  0  0  0  0
 12 20  1  6  0  0  0
 12 13  1  0  0  0  0
 13  8  1  0  0  0  0
 13 22  1  1  0  0  0
 15 14  1  0  0  0  0
 16 17  2  0  0  0  0
 16 18  1  0  0  0  0
 19 18  1  0  0  0  0
 21 20  1  0  0  0  0
 22 23  1  0  0  0  0
 22 24  1  0  0  0  0
 23 25  1  0  0  0  0
 26 23  2  0  0  0  0
 27 28  1  0  0  0  0
 29  6  1  0  0  0  0
 30 29  1  0  0  0  0
 32 31  1  0  0  0  0
 33 34  2  0  0  0  0
 33 32  1  0  0  0  0
 35 33  1  0  0  0  0
 36 34  1  0  0  0  0
 37 35  2  0  0  0  0
 37 36  1  0  0  0  0
 38 36  1  0  0  0  0
 39 40  2  0  0  0  0
 39 38  1  0  0  0  0
 41 39  1  0  0  0  0
 42 41  1  0  0  0  0
 43 41  1  0  0  0  0
 44 43  2  0  0  0  0
 45 43  1  0  0  0  0
 46 44  1  0  0  0  0
 47 45  2  0  0  0  0
 48 46  2  0  0  0  0
 48 47  1  0  0  0  0
 49 50  1  0  0  0  0
 51 50  1  0  0  0  0
 51 52  1  0  0  0  0
 52 53  1  0  0  0  0
 53 54  1  0  0  0  0
M  END
>  <REMARK>
 VINA RESULT:    -4.289      0.000      0.000
 INTER + INTRA:         -15.491
 INTER:                  -8.243
 INTRA:                  -7.248
 UNBOUND:                -7.565
 SMILES CC(=O)N[C@@H]1[C@@H](O)C[C@](O)(C(=O)O)O[C@H]1C(O)[C@H](O)CNC(=O)OCc1cn(CC(=O)Nc2ncccn2)nn1
 SMILES IDX 21 1 22 2 23 3 20 5 18 6 16 7 15 8 9 9 8 10 14 11 6 12 5 13
 SMILES IDX 10 14 11 16 12 17 13 18 7 20 4 22 2 23 1 25 3 26 17 27 19 29
 SMILES IDX 24 31 25 32 26 33 27 34 40 35 28 36 39 37 29 38 30 39 31 40
 SMILES IDX 32 41 33 43 34 44 38 45 35 46 37 47 36 48
 H PARENT 21 4 10 15 13 19 7 21 4 24 17 28 19 30 32 42
 Flexibility Score: inf
  4 active torsions:
  status: ('A' for Active; 'I' for Inactive)
    1  A    between atoms: CA   and  CB  
    2  A    between atoms: CB   and  CG  
    3  A    between atoms: CG   and  CD  
    4  A    between atoms: CD   and  CE  

>  <TORSDO>
F 17

>  <BEGIN_>
RES LYS A 131

$$$$
ligand_71_pose_0_2HRL.pdbqt
 OpenBabel07062320523D

  6  5  0  0  0  0  0  0  0  0999 V2000
   33.1930   34.6630    9.2900 C   0  0  0  0  0  0  0  0  0  0  0  0
   32.0600   35.3600   10.0340 C   0  0  0  0  0  0  0  0  0  0  0  0
   30.8930   35.7230    9.1520 C   0  0  0  0  0  0  0  0  0  0  0  0
   30.4190   34.5120    8.3640 C   0  0  0  0  0  0  0  0  0  0  0  0
   28.9050   34.4940    8.2740 C   0  0  0  0  0  0  0  0  0  0  0  0
   28.4220   35.3960    7.1910 N   0  0  0  0  0  0  0  0  0  0  0  0
  1  2  1  0  0  0  0
  3  2  1  0  0  0  0
  4  3  1  0  0  0  0
  5  4  1  0  0  0  0
  6  5  1  0  0  0  0
M  END
>  <EGIN_R>
ES LYS A 135

>  <REMARK>
  4 active torsions:
  status: ('A' for Active; 'I' for Inactive)
    5  A    between atoms: CA   and  CB  
    6  A    between atoms: CB   and  CG  
    7  A    between atoms: CG   and  CD  
    8  A    between atoms: CD   and  CE  

$$$$
