ligand_20_pose_1_2HRL.pdbqt
 OpenBabel07062320523D

 53 55  0  0  1  0  0  0  0  0999 V2000
   30.7900   33.0920   14.6540 C   0  0  0  0  0  0  0  0  0  0  0  0
   31.4540   33.0310   15.9590 C   0  0  2  0  0  0  0  0  0  0  0  0
   30.4270   32.7900   17.0870 C   0  0  1  0  0  0  0  0  0  0  0  0
   30.1290   31.3740   17.3210 C   0  0  2  0  0  0  0  0  0  0  0  0
   27.8790   31.0620   16.7630 C   0  0  2  0  0  0  0  0  0  0  0  0
   27.5670   31.5620   18.1450 C   0  0  0  0  0  0  0  0  0  0  0  0
   29.1920   30.7660   16.5390 O   0  0  0  0  0  0  0  0  0  0  0  0
   28.4760   31.0320   19.1970 C   0  0  1  0  0  0  0  0  0  0  0  0
   29.9200   31.0710   18.8100 C   0  0  1  0  0  0  0  0  0  0  0  0
   27.4390   31.9970   15.8260 O   0  0  0  0  0  0  0  0  0  0  0  0
   26.6040   32.4440   16.1080 H   0  0  0  0  0  0  0  0  0  0  0  0
   27.0980   29.8190   16.5670 C   0  0  0  0  0  0  0  0  0  0  0  0
   27.5730   28.7250   16.9100 O   0  0  0  0  0  0  0  0  0  0  0  0
   25.8410   29.8800   16.0020 O   0  0  0  0  0  0  0  0  0  0  0  0
   25.5950   29.4080   15.1210 H   0  0  0  0  0  0  0  0  0  0  0  0
   28.2430   31.7630   20.3780 O   0  0  0  0  0  0  0  0  0  0  0  0
   28.6520   31.2290   21.1010 H   0  0  0  0  0  0  0  0  0  0  0  0
   30.6510   29.9040   19.2300 N   0  0  0  0  0  0  0  0  0  0  0  0
   31.1930   29.7750   20.5370 C   0  0  0  0  0  0  0  0  0  0  0  0
   30.8010   29.1000   18.5500 H   0  0  0  0  0  0  0  0  0  0  0  0
   31.9360   28.5590   20.9200 C   0  0  0  0  0  0  0  0  0  0  0  0
   31.0260   30.7170   21.3540 O   0  0  0  0  0  0  0  0  0  0  0  0
   31.1920   33.2230   18.2300 O   0  0  0  0  0  0  0  0  0  0  0  0
   30.6060   33.3070   19.0170 H   0  0  0  0  0  0  0  0  0  0  0  0
   31.9150   34.3790   16.2090 O   0  0  0  0  0  0  0  0  0  0  0  0
   31.6500   34.6420   17.1330 H   0  0  0  0  0  0  0  0  0  0  0  0
   29.4330   33.5620   14.6430 N   0  0  0  0  0  0  0  0  0  0  0  0
   29.0980   34.8900   14.2680 C   0  0  0  0  0  0  0  0  0  0  0  0
   28.6540   32.9210   14.8630 H   0  0  0  0  0  0  0  0  0  0  0  0
   30.0310   35.6670   13.9380 O   0  0  0  0  0  0  0  0  0  0  0  0
   27.8110   35.3760   14.2480 O   0  0  0  0  0  0  0  0  0  0  0  0
   26.8970   35.1900   13.1840 C   0  0  0  0  0  0  0  0  0  0  0  0
   25.9230   34.1250   13.6020 C   0  0  0  0  0  0  0  0  0  0  0  0
   25.1560   33.3070   12.8020 C   0  0  0  0  0  0  0  0  0  0  0  0
   25.6100   33.7620   14.8770 N   0  0  0  0  0  0  0  0  0  0  0  0
   24.4300   32.5030   13.6320 N   0  0  0  0  0  0  0  0  0  0  0  0
   24.7260   32.8020   14.8840 N   0  0  0  0  0  0  0  0  0  0  0  0
   23.5110   31.5160   13.1930 C   0  0  0  0  0  0  0  0  0  0  0  0
   23.9440   30.2140   13.0240 C   0  0  0  0  0  0  0  0  0  0  0  0
   22.1860   31.7800   12.9190 C   0  0  0  0  0  0  0  0  0  0  0  0
   23.0970   29.2110   12.5990 C   0  0  0  0  0  0  0  0  0  0  0  0
   21.3300   30.8030   12.4990 C   0  0  0  0  0  0  0  0  0  0  0  0
   21.7690   29.4910   12.3300 C   0  0  0  0  0  0  0  0  0  0  0  0
   19.9970   30.7830   12.1630 C   0  0  0  0  0  0  0  0  0  0  0  0
   20.7310   28.7480   11.9130 N   0  0  0  0  0  0  0  0  0  0  0  0
   19.6650   29.5080   11.8090 N   0  0  0  0  0  0  0  0  0  0  0  0
   20.7750   27.7330   11.7080 H   0  0  0  0  0  0  0  0  0  0  0  0
   29.8670   25.5550   16.9770 C   0  0  0  0  0  0  0  0  0  0  0  0
   28.3450   25.7220   17.0260 C   0  0  0  0  0  0  0  0  0  0  0  0
   27.6010   24.4010   16.9000 C   0  0  0  0  0  0  0  0  0  0  0  0
   26.3280   24.3900   17.7000 C   0  0  0  0  0  0  0  0  0  0  0  0
   26.0400   25.7950   18.2190 C   0  0  0  0  0  0  0  0  0  0  0  0
   25.8490   25.7770   19.6880 N   0  0  0  0  0  0  0  0  0  0  0  0
  2  1  1  6  0  0  0
  2 25  1  0  0  0  0
  2  3  1  0  0  0  0
  3 23  1  1  0  0  0
  4  3  1  1  0  0  0
  4  9  1  0  0  0  0
  5 10  1  6  0  0  0
  5  6  1  0  0  0  0
  6  8  1  0  0  0  0
  7  5  1  0  0  0  0
  7  4  1  0  0  0  0
  8 16  1  1  0  0  0
  9  8  1  0  0  0  0
  9 18  1  6  0  0  0
 10 11  1  0  0  0  0
 12  5  1  0  0  0  0
 12 13  2  0  0  0  0
 14 12  1  0  0  0  0
 15 14  1  0  0  0  0
 16 17  1  0  0  0  0
 18 19  1  0  0  0  0
 19 21  1  0  0  0  0
 19 22  2  0  0  0  0
 20 18  1  0  0  0  0
 23 24  1  0  0  0  0
 25 26  1  0  0  0  0
 27  1  1  0  0  0  0
 27 29  1  0  0  0  0
 28 27  1  0  0  0  0
 30 28  2  0  0  0  0
 31 28  1  0  0  0  0
 32 33  1  0  0  0  0
 32 31  1  0  0  0  0
 33 35  1  0  0  0  0
 34 33  2  0  0  0  0
 34 36  1  0  0  0  0
 35 37  2  0  0  0  0
 36 37  1  0  0  0  0
 38 36  1  0  0  0  0
 39 38  1  0  0  0  0
 40 38  2  0  0  0  0
 41 39  2  0  0  0  0
 42 40  1  0  0  0  0
 43 42  2  0  0  0  0
 43 41  1  0  0  0  0
 44 42  1  0  0  0  0
 45 43  1  0  0  0  0
 46 45  1  0  0  0  0
 46 44  2  0  0  0  0
 47 45  1  0  0  0  0
 48 49  1  0  0  0  0
 50 49  1  0  0  0  0
 50 51  1  0  0  0  0
 51 52  1  0  0  0  0
 52 53  1  0  0  0  0
M  END
>  <REMARK>
 VINA RESULT:    -5.118      3.219      5.944
 INTER + INTRA:         -15.349
 INTER:                  -9.269
 INTRA:                  -6.080
 UNBOUND:                -6.490
 SMILES CC(=O)N[C@@H]1[C@@H](O)C[C@](O)(C(=O)O)O[C@H]1C(O)[C@H](O)CNC(=O)OCc1cn(-c2ccc3[nH]ncc3c2)nn1
 SMILES IDX 20 1 18 2 16 3 15 4 9 5 8 6 14 7 6 8 5 9 10 10 11 12 12 13
 SMILES IDX 13 14 7 16 4 18 2 19 1 21 3 22 17 23 19 25 21 27 22 28 23 30
 SMILES IDX 24 31 25 32 26 33 27 34 39 35 28 36 38 37 29 38 30 39 37 40
 SMILES IDX 31 41 36 42 32 43 35 44 33 45 34 46
 H PARENT 10 11 13 15 7 17 4 20 17 24 19 26 21 29 33 47
 Flexibility Score: inf
  4 active torsions:
  status: ('A' for Active; 'I' for Inactive)
    1  A    between atoms: CA   and  CB  
    2  A    between atoms: CB   and  CG  
    3  A    between atoms: CG   and  CD  
    4  A    between atoms: CD   and  CE  

>  <TORSDO>
F 15

>  <BEGIN_>
RES LYS A 131

$$$$
ligand_20_pose_1_2HRL.pdbqt
 OpenBabel07062320523D

  6  5  0  0  0  0  0  0  0  0999 V2000
   33.1930   34.6630    9.2900 C   0  0  0  0  0  0  0  0  0  0  0  0
   32.0600   35.3600   10.0340 C   0  0  0  0  0  0  0  0  0  0  0  0
   30.7070   34.7440    9.7860 C   0  0  0  0  0  0  0  0  0  0  0  0
   30.4500   34.5970    8.2940 C   0  0  0  0  0  0  0  0  0  0  0  0
   28.9860   34.8400    7.9800 C   0  0  0  0  0  0  0  0  0  0  0  0
   28.8250   35.5210    6.6650 N   0  0  0  0  0  0  0  0  0  0  0  0
  1  2  1  0  0  0  0
  3  2  1  0  0  0  0
  4  3  1  0  0  0  0
  5  4  1  0  0  0  0
  6  5  1  0  0  0  0
M  END
>  <EGIN_R>
ES LYS A 135

>  <REMARK>
  4 active torsions:
  status: ('A' for Active; 'I' for Inactive)
    5  A    between atoms: CA   and  CB  
    6  A    between atoms: CB   and  CG  
    7  A    between atoms: CG   and  CD  
    8  A    between atoms: CD   and  CE  

$$$$
