ligand_9_pose_14_2HRL.pdbqt
 OpenBabel07062320523D

 54 55  0  0  1  0  0  0  0  0999 V2000
   21.6400   36.3320    8.8640 N   0  0  0  0  0  0  0  0  0  0  0  0
   20.6190   36.9850    9.6040 C   0  0  0  0  0  0  0  0  0  0  0  0
   20.0340   37.9660    9.0810 O   0  0  0  0  0  0  0  0  0  0  0  0
   22.1100   35.5220    9.3160 H   0  0  0  0  0  0  0  0  0  0  0  0
   22.0130   36.7740    7.5360 C   0  0  0  0  0  0  0  0  0  0  0  0
   23.3670   37.3990    7.4890 C   0  0  2  0  0  0  0  0  0  0  0  0
   24.1560   37.2200    8.7460 C   0  0  1  0  0  0  0  0  0  0  0  0
   25.6660   37.0760    8.4210 C   0  0  2  0  0  0  0  0  0  0  0  0
   27.1080   36.8440    6.6920 C   0  0  2  0  0  0  0  0  0  0  0  0
   27.5780   35.4760    7.1320 C   0  0  0  0  0  0  0  0  0  0  0  0
   25.8090   37.0100    7.0600 O   0  0  0  0  0  0  0  0  0  0  0  0
   27.4270   35.2610    8.6070 C   0  0  1  0  0  0  0  0  0  0  0  0
   26.2310   35.9480    9.2010 C   0  0  1  0  0  0  0  0  0  0  0  0
   27.1210   36.7920    5.2700 O   0  0  0  0  0  0  0  0  0  0  0  0
   27.5030   35.9610    4.9370 H   0  0  0  0  0  0  0  0  0  0  0  0
   28.0540   37.8870    7.1090 C   0  0  0  0  0  0  0  0  0  0  0  0
   27.7010   39.0840    7.3830 O   0  0  0  0  0  0  0  0  0  0  0  0
   29.4170   37.5460    7.2120 O   0  0  0  0  0  0  0  0  0  0  0  0
   29.6410   36.5510    7.3390 H   0  0  0  0  0  0  0  0  0  0  0  0
   27.4100   33.8900    8.8590 O   0  0  0  0  0  0  0  0  0  0  0  0
   28.2440   33.5700    9.2850 H   0  0  0  0  0  0  0  0  0  0  0  0
   26.4840   36.3780   10.5640 N   0  0  0  0  0  0  0  0  0  0  0  0
   26.2770   35.5170   11.6740 C   0  0  0  0  0  0  0  0  0  0  0  0
   26.8350   37.3700   10.7150 H   0  0  0  0  0  0  0  0  0  0  0  0
   26.5570   36.0300   13.0410 C   0  0  0  0  0  0  0  0  0  0  0  0
   25.8590   34.3200   11.5130 O   0  0  0  0  0  0  0  0  0  0  0  0
   24.0230   38.2270    9.6680 O   0  0  0  0  0  0  0  0  0  0  0  0
   24.6580   38.9610    9.5850 H   0  0  0  0  0  0  0  0  0  0  0  0
   23.2910   38.7240    7.0700 O   0  0  0  0  0  0  0  0  0  0  0  0
   22.7510   39.2150    7.7460 H   0  0  0  0  0  0  0  0  0  0  0  0
   20.2260   36.6030   10.8750 O   0  0  0  0  0  0  0  0  0  0  0  0
   21.1560   36.1590   11.8460 C   0  0  0  0  0  0  0  0  0  0  0  0
   21.0480   34.7000   12.0380 C   0  0  0  0  0  0  0  0  0  0  0  0
   22.0260   33.8040   12.4350 C   0  0  0  0  0  0  0  0  0  0  0  0
   19.9460   33.9400   11.8580 N   0  0  0  0  0  0  0  0  0  0  0  0
   21.5000   32.5630   12.4810 N   0  0  0  0  0  0  0  0  0  0  0  0
   20.2200   32.6910   12.1190 N   0  0  0  0  0  0  0  0  0  0  0  0
   22.1230   31.3450   12.8300 C   0  0  0  0  0  0  0  0  0  0  0  0
   23.1630   31.3000   13.7390 C   0  0  0  0  0  0  0  0  0  0  0  0
   21.7160   30.1500   12.2770 C   0  0  0  0  0  0  0  0  0  0  0  0
   23.7990   30.1310   14.1090 C   0  0  0  0  0  0  0  0  0  0  0  0
   22.3360   28.9550   12.6300 C   0  0  0  0  0  0  0  0  0  0  0  0
   23.3660   28.9560   13.5370 C   0  0  0  0  0  0  0  0  0  0  0  0
   24.8930   30.1130   15.0720 C   0  0  0  0  0  0  0  0  0  0  0  0
   24.8360   29.3340   16.0550 O   0  0  0  0  0  0  0  0  0  0  0  0
   26.0080   30.9260   14.9490 O   0  0  0  0  0  0  0  0  0  0  0  0
   27.0800   30.8960   15.8710 C   0  0  0  0  0  0  0  0  0  0  0  0
   27.1300   32.2110   16.5920 C   0  0  0  0  0  0  0  0  0  0  0  0
   29.8670   25.5550   16.9770 C   0  0  0  0  0  0  0  0  0  0  0  0
   28.3450   25.7220   17.0260 C   0  0  0  0  0  0  0  0  0  0  0  0
   27.6010   24.4030   16.8880 C   0  0  0  0  0  0  0  0  0  0  0  0
   26.2740   24.4240   17.5950 C   0  0  0  0  0  0  0  0  0  0  0  0
   25.6670   23.0250   17.5790 C   0  0  0  0  0  0  0  0  0  0  0  0
   24.9890   22.7380   18.8650 N   0  0  0  0  0  0  0  0  0  0  0  0
  1  4  1  0  0  0  0
  1  2  1  0  0  0  0
  2 31  1  0  0  0  0
  3  2  2  0  0  0  0
  5  1  1  0  0  0  0
  6  5  1  1  0  0  0
  6  7  1  0  0  0  0
  7 27  1  1  0  0  0
  8  7  1  6  0  0  0
  8 13  1  0  0  0  0
  9 14  1  6  0  0  0
  9 11  1  0  0  0  0
  9 16  1  0  0  0  0
  9 10  1  0  0  0  0
 10 12  1  0  0  0  0
 11  8  1  0  0  0  0
 12 20  1  6  0  0  0
 12 13  1  0  0  0  0
 13 22  1  1  0  0  0
 15 14  1  0  0  0  0
 16 18  1  0  0  0  0
 16 17  2  0  0  0  0
 18 19  1  0  0  0  0
 20 21  1  0  0  0  0
 22 24  1  0  0  0  0
 22 23  1  0  0  0  0
 23 25  1  0  0  0  0
 26 23  2  0  0  0  0
 28 27  1  0  0  0  0
 29  6  1  0  0  0  0
 29 30  1  0  0  0  0
 31 32  1  0  0  0  0
 32 33  1  0  0  0  0
 33 34  2  0  0  0  0
 34 36  1  0  0  0  0
 35 33  1  0  0  0  0
 35 37  2  0  0  0  0
 36 38  1  0  0  0  0
 37 36  1  0  0  0  0
 38 39  2  0  0  0  0
 39 41  1  0  0  0  0
 40 42  2  0  0  0  0
 40 38  1  0  0  0  0
 41 44  1  0  0  0  0
 42 43  1  0  0  0  0
 43 41  2  0  0  0  0
 44 45  2  0  0  0  0
 46 44  1  0  0  0  0
 46 47  1  0  0  0  0
 47 48  1  0  0  0  0
 49 50  1  0  0  0  0
 51 50  1  0  0  0  0
 51 52  1  0  0  0  0
 53 52  1  0  0  0  0
 53 54  1  0  0  0  0
M  END
>  <REMARK>
 VINA RESULT:    -4.843      5.296     11.332
 INTER + INTRA:         -14.902
 INTER:                 -10.306
 INTRA:                  -4.596
 UNBOUND:                -5.671
 SMILES CCOC(=O)c1cccc(-n2cc(COC(=O)NC[C@@H](O)C(O)[C@@H]3O[C@@](O)(C(=O)O)C[C@H](O)[C@H]3NC(C)=O)nn2)c1
 SMILES IDX 18 1 16 2 17 3 19 5 20 6 22 7 24 8 26 9 31 10 25 11 32 12
 SMILES IDX 34 13 27 14 28 16 29 17 30 18 33 20 35 22 36 23 37 25 38 26
 SMILES IDX 23 27 21 29 15 31 14 32 13 33 12 34 39 35 11 36 40 37 10 38
 SMILES IDX 41 39 9 40 6 41 8 42 7 43 4 44 5 45 3 46 2 47 1 48
 H PARENT 18 4 27 15 30 19 33 21 35 24 23 28 21 30
 Flexibility Score: inf
  4 active torsions:
  status: ('A' for Active; 'I' for Inactive)
    1  A    between atoms: CA   and  CB  
    2  A    between atoms: CB   and  CG  
    3  A    between atoms: CG   and  CD  
    4  A    between atoms: CD   and  CE  

>  <TORSDO>
F 18

>  <BEGIN_>
RES LYS A 131

$$$$
ligand_9_pose_14_2HRL.pdbqt
 OpenBabel07062320523D

  6  5  0  0  0  0  0  0  0  0999 V2000
   33.1930   34.6630    9.2900 C   0  0  0  0  0  0  0  0  0  0  0  0
   32.0600   35.3600   10.0340 C   0  0  0  0  0  0  0  0  0  0  0  0
   30.7590   34.6010    9.9980 C   0  0  0  0  0  0  0  0  0  0  0  0
   29.9090   34.9340   11.2150 C   0  0  0  0  0  0  0  0  0  0  0  0
   30.7480   34.8880   12.4780 C   0  0  0  0  0  0  0  0  0  0  0  0
   30.2830   35.9000   13.4670 N   0  0  0  0  0  0  0  0  0  0  0  0
  1  2  1  0  0  0  0
  3  2  1  0  0  0  0
  3  4  1  0  0  0  0
  4  5  1  0  0  0  0
  5  6  1  0  0  0  0
M  END
>  <EGIN_R>
ES LYS A 135

>  <REMARK>
  4 active torsions:
  status: ('A' for Active; 'I' for Inactive)
    5  A    between atoms: CA   and  CB  
    6  A    between atoms: CB   and  CG  
    7  A    between atoms: CG   and  CD  
    8  A    between atoms: CD   and  CE  

$$$$
