ligand_77_pose_5_2HRL.pdbqt
 OpenBabel07062320523D

 61 63  0  0  1  0  0  0  0  0999 V2000
   27.2020   27.9550   20.6440 N   0  0  0  0  0  0  0  0  0  0  0  0
   26.5140   28.7070   19.6620 C   0  0  0  0  0  0  0  0  0  0  0  0
   26.2480   29.8960   19.8650 O   0  0  0  0  0  0  0  0  0  0  0  0
   27.3900   26.9380   20.3810 H   0  0  0  0  0  0  0  0  0  0  0  0
   27.6440   28.4610   21.9230 C   0  0  0  0  0  0  0  0  0  0  0  0
   28.9860   27.8980   22.2380 C   0  0  2  0  0  0  0  0  0  0  0  0
   29.9850   28.0850   21.1150 C   0  0  1  0  0  0  0  0  0  0  0  0
   31.3930   28.2840   21.5620 C   0  0  2  0  0  0  0  0  0  0  0  0
   32.6280   28.0910   23.5130 C   0  0  2  0  0  0  0  0  0  0  0  0
   33.7470   28.8340   22.8540 C   0  0  0  0  0  0  0  0  0  0  0  0
   31.7660   27.4830   22.6170 O   0  0  0  0  0  0  0  0  0  0  0  0
   33.3310   29.7190   21.7340 C   0  0  1  0  0  0  0  0  0  0  0  0
   31.7930   29.7320   21.6970 C   0  0  1  0  0  0  0  0  0  0  0  0
   31.9300   28.9130   24.4270 O   0  0  0  0  0  0  0  0  0  0  0  0
   32.0360   28.5400   25.3190 H   0  0  0  0  0  0  0  0  0  0  0  0
   33.2350   27.0040   24.3370 C   0  0  0  0  0  0  0  0  0  0  0  0
   34.1910   26.3310   23.8430 O   0  0  0  0  0  0  0  0  0  0  0  0
   32.8260   26.6830   25.6060 O   0  0  0  0  0  0  0  0  0  0  0  0
   31.8380   26.7010   25.8510 H   0  0  0  0  0  0  0  0  0  0  0  0
   33.8290   31.0090   21.8240 O   0  0  0  0  0  0  0  0  0  0  0  0
   33.5490   31.4100   22.7070 H   0  0  0  0  0  0  0  0  0  0  0  0
   31.3730   30.4210   20.4830 N   0  0  0  0  0  0  0  0  0  0  0  0
   31.0310   31.7950   20.5290 C   0  0  0  0  0  0  0  0  0  0  0  0
   31.3100   29.9380   19.5620 H   0  0  0  0  0  0  0  0  0  0  0  0
   30.5900   32.5350   19.2930 C   0  0  0  0  0  0  0  0  0  0  0  0
   31.0720   32.4680   21.5810 O   0  0  0  0  0  0  0  0  0  0  0  0
   29.8440   26.9600   20.2940 O   0  0  0  0  0  0  0  0  0  0  0  0
   28.9100   26.9160   20.0010 H   0  0  0  0  0  0  0  0  0  0  0  0
   28.8900   26.5820   22.6670 O   0  0  0  0  0  0  0  0  0  0  0  0
   28.6810   26.0100   21.8850 H   0  0  0  0  0  0  0  0  0  0  0  0
   26.1080   28.1660   18.4460 O   0  0  0  0  0  0  0  0  0  0  0  0
   26.9890   28.0580   17.3390 C   0  0  0  0  0  0  0  0  0  0  0  0
   27.2010   29.3720   16.6690 C   0  0  0  0  0  0  0  0  0  0  0  0
   28.3980   30.0350   16.6390 C   0  0  0  0  0  0  0  0  0  0  0  0
   26.3140   30.1240   16.0020 N   0  0  0  0  0  0  0  0  0  0  0  0
   28.2140   31.1850   15.9500 N   0  0  0  0  0  0  0  0  0  0  0  0
   26.9610   31.1950   15.5900 N   0  0  0  0  0  0  0  0  0  0  0  0
   29.2480   32.1280   15.7180 C   0  0  0  0  0  0  0  0  0  0  0  0
   28.9410   33.4530   15.4990 C   0  0  0  0  0  0  0  0  0  0  0  0
   30.5790   31.7750   15.7010 C   0  0  0  0  0  0  0  0  0  0  0  0
   29.9190   34.4070   15.2690 C   0  0  0  0  0  0  0  0  0  0  0  0
   31.5750   32.7300   15.4700 C   0  0  0  0  0  0  0  0  0  0  0  0
   31.2430   34.0460   15.2540 C   0  0  0  0  0  0  0  0  0  0  0  0
   32.4630   35.2360   14.9680 S   0  0  0  0  0  0  0  0  0  0  0  0
   31.8420   36.4830   14.4350 O   0  0  0  0  0  0  0  0  0  0  0  0
   33.4970   34.7780   13.9820 O   0  0  0  0  0  0  0  0  0  0  0  0
   33.2870   35.5340   16.4940 C   0  0  0  0  0  0  0  0  0  0  0  0
   34.5980   35.9310   16.4700 C   0  0  0  0  0  0  0  0  0  0  0  0
   32.6370   35.3770   17.7140 C   0  0  0  0  0  0  0  0  0  0  0  0
   35.2870   36.1770   17.6510 C   0  0  0  0  0  0  0  0  0  0  0  0
   33.2960   35.6140   18.9110 C   0  0  0  0  0  0  0  0  0  0  0  0
   34.6110   36.0100   18.8440 C   0  0  0  0  0  0  0  0  0  0  0  0
   35.3000   36.2570   20.0520 N   0  0  0  0  0  0  0  0  0  0  0  0
   36.2650   36.6290   20.0380 H   0  0  0  0  0  0  0  0  0  0  0  0
   34.8320   36.0620   20.9530 H   0  0  0  0  0  0  0  0  0  0  0  0
   29.8670   25.5550   16.9770 C   0  0  0  0  0  0  0  0  0  0  0  0
   28.3450   25.7220   17.0260 C   0  0  0  0  0  0  0  0  0  0  0  0
   27.6020   24.3980   16.9330 C   0  0  0  0  0  0  0  0  0  0  0  0
   26.5300   24.2760   17.9800 C   0  0  0  0  0  0  0  0  0  0  0  0
   25.1790   24.0670   17.3030 C   0  0  0  0  0  0  0  0  0  0  0  0
   24.7730   22.6440   17.3830 N   0  0  0  0  0  0  0  0  0  0  0  0
  1  5  1  0  0  0  0
  2  3  2  0  0  0  0
  2  1  1  0  0  0  0
  4  1  1  0  0  0  0
  6  5  1  6  0  0  0
  6 29  1  0  0  0  0
  7 27  1  6  0  0  0
  7  6  1  0  0  0  0
  8  7  1  1  0  0  0
  8 13  1  0  0  0  0
  8 11  1  0  0  0  0
  9 16  1  1  0  0  0
  9 14  1  0  0  0  0
 10  9  1  0  0  0  0
 11  9  1  0  0  0  0
 12 20  1  1  0  0  0
 12 10  1  0  0  0  0
 13 22  1  6  0  0  0
 13 12  1  0  0  0  0
 14 15  1  0  0  0  0
 16 18  1  0  0  0  0
 17 16  2  0  0  0  0
 18 19  1  0  0  0  0
 20 21  1  0  0  0  0
 22 23  1  0  0  0  0
 23 26  2  0  0  0  0
 24 22  1  0  0  0  0
 25 23  1  0  0  0  0
 28 27  1  0  0  0  0
 30 29  1  0  0  0  0
 31  2  1  0  0  0  0
 32 31  1  0  0  0  0
 33 32  1  0  0  0  0
 34 33  2  0  0  0  0
 35 33  1  0  0  0  0
 36 34  1  0  0  0  0
 37 36  1  0  0  0  0
 37 35  2  0  0  0  0
 38 36  1  0  0  0  0
 39 38  2  0  0  0  0
 40 38  1  0  0  0  0
 41 39  1  0  0  0  0
 42 40  2  0  0  0  0
 43 41  2  0  0  0  0
 43 42  1  0  0  0  0
 44 43  1  0  0  0  0
 44 47  1  0  0  0  0
 45 44  2  0  0  0  0
 46 44  2  0  0  0  0
 47 49  1  0  0  0  0
 48 47  2  0  0  0  0
 48 50  1  0  0  0  0
 49 51  2  0  0  0  0
 50 52  2  0  0  0  0
 52 51  1  0  0  0  0
 52 53  1  0  0  0  0
 53 55  1  0  0  0  0
 54 53  1  0  0  0  0
 56 57  1  0  0  0  0
 58 57  1  0  0  0  0
 58 59  1  0  0  0  0
 60 61  1  0  0  0  0
 60 59  1  0  0  0  0
M  END
>  <REMARK>
 VINA RESULT:    -5.302      1.610      2.222
 INTER + INTRA:         -16.479
 INTER:                 -10.223
 INTRA:                  -6.256
 UNBOUND:                -6.527
 SMILES CC(=O)N[C@@H]1[C@@H](O)C[C@](O)(C(=O)O)O[C@H]1C(O)[C@H](O)CNC(=O)OCc1cn(-c2ccc(S(=O)(=O)c3ccc(N)cc3)cc2)nn1
 SMILES IDX 21 1 22 2 23 3 20 5 18 6 16 7 15 8 9 9 8 10 14 11 6 12 5 13
 SMILES IDX 10 14 11 16 12 17 13 18 7 20 4 22 2 23 1 25 3 26 17 27 19 29
 SMILES IDX 24 31 25 32 26 33 27 34 46 35 28 36 45 37 29 38 30 39 44 40
 SMILES IDX 31 41 43 42 32 43 33 44 34 45 35 46 36 47 37 48 42 49 38 50
 SMILES IDX 41 51 39 52 40 53
 H PARENT 21 4 10 15 13 19 7 21 4 24 17 28 19 30 40 54 40 55
 Flexibility Score: inf
  4 active torsions:
  status: ('A' for Active; 'I' for Inactive)
    1  A    between atoms: CA   and  CB  
    2  A    between atoms: CB   and  CG  
    3  A    between atoms: CG   and  CD  
    4  A    between atoms: CD   and  CE  

>  <TORSDO>
F 18

>  <BEGIN_>
RES LYS A 131

$$$$
ligand_77_pose_5_2HRL.pdbqt
 OpenBabel07062320523D

  6  5  0  0  0  0  0  0  0  0999 V2000
   33.1930   34.6630    9.2900 C   0  0  0  0  0  0  0  0  0  0  0  0
   32.0600   35.3600   10.0340 C   0  0  0  0  0  0  0  0  0  0  0  0
   30.7210   34.6930    9.8530 C   0  0  0  0  0  0  0  0  0  0  0  0
   30.2760   34.7660    8.4010 C   0  0  0  0  0  0  0  0  0  0  0  0
   28.7800   34.5420    8.2900 C   0  0  0  0  0  0  0  0  0  0  0  0
   28.2580   33.8070    9.4750 N   0  0  0  0  0  0  0  0  0  0  0  0
  1  2  1  0  0  0  0
  3  2  1  0  0  0  0
  4  3  1  0  0  0  0
  5  4  1  0  0  0  0
  5  6  1  0  0  0  0
M  END
>  <EGIN_R>
ES LYS A 135

>  <REMARK>
  4 active torsions:
  status: ('A' for Active; 'I' for Inactive)
    5  A    between atoms: CA   and  CB  
    6  A    between atoms: CB   and  CG  
    7  A    between atoms: CG   and  CD  
    8  A    between atoms: CD   and  CE  

$$$$
