ligand_30_pose_1_2HRL.pdbqt
 OpenBabel07062320523D

 57 57  0  0  1  0  0  0  0  0999 V2000
   33.4460   36.6390   16.6970 C   0  0  0  0  0  0  0  0  0  0  0  0
   32.9620   35.4350   16.0800 N   0  0  0  0  0  0  0  0  0  0  0  0
   31.9730   33.5330   15.6120 C   0  0  0  0  0  0  0  0  0  0  0  0
   32.1330   34.4790   16.5880 C   0  0  0  0  0  0  0  0  0  0  0  0
   32.6990   33.9280   14.5430 N   0  0  0  0  0  0  0  0  0  0  0  0
   33.2710   35.0590   14.8550 N   0  0  0  0  0  0  0  0  0  0  0  0
   31.1490   32.3130   15.7370 C   0  0  0  0  0  0  0  0  0  0  0  0
   29.9550   32.4380   14.9950 O   0  0  0  0  0  0  0  0  0  0  0  0
   28.8750   33.1450   15.5040 C   0  0  0  0  0  0  0  0  0  0  0  0
   28.6190   33.2130   16.8990 N   0  0  0  0  0  0  0  0  0  0  0  0
   29.2450   32.7260   17.5750 H   0  0  0  0  0  0  0  0  0  0  0  0
   28.1030   33.7440   14.6770 O   0  0  0  0  0  0  0  0  0  0  0  0
   27.4950   33.9540   17.3810 C   0  0  0  0  0  0  0  0  0  0  0  0
   26.6570   33.1670   18.3660 C   0  0  2  0  0  0  0  0  0  0  0  0
   25.6770   32.3040   17.6320 C   0  0  2  0  0  0  0  0  0  0  0  0
   26.0870   30.8510   17.7390 C   0  0  2  0  0  0  0  0  0  0  0  0
   27.6680   29.4950   18.7560 C   0  0  2  0  0  0  0  0  0  0  0  0
   27.3250   28.5530   17.6240 C   0  0  0  0  0  0  0  0  0  0  0  0
   27.1990   30.7800   18.5340 O   0  0  0  0  0  0  0  0  0  0  0  0
   27.4330   29.3120   16.3300 C   0  0  1  0  0  0  0  0  0  0  0  0
   26.2870   30.3330   16.3370 C   0  0  1  0  0  0  0  0  0  0  0  0
   29.0570   29.5720   18.8040 O   0  0  0  0  0  0  0  0  0  0  0  0
   29.4430   28.7900   19.2600 H   0  0  0  0  0  0  0  0  0  0  0  0
   27.1770   28.9010   19.9990 C   0  0  0  0  0  0  0  0  0  0  0  0
   26.0650   28.3210   20.0060 O   0  0  0  0  0  0  0  0  0  0  0  0
   27.8690   28.9320   21.2030 O   0  0  0  0  0  0  0  0  0  0  0  0
   28.5780   28.2030   21.3790 H   0  0  0  0  0  0  0  0  0  0  0  0
   28.6650   29.9190   16.2090 O   0  0  0  0  0  0  0  0  0  0  0  0
   29.2560   29.5580   16.9160 H   0  0  0  0  0  0  0  0  0  0  0  0
   25.1220   29.6120   15.8730 N   0  0  0  0  0  0  0  0  0  0  0  0
   24.5100   30.0250   14.6650 C   0  0  0  0  0  0  0  0  0  0  0  0
   24.7210   28.7980   16.4010 H   0  0  0  0  0  0  0  0  0  0  0  0
   23.3040   29.3060   14.1500 C   0  0  0  0  0  0  0  0  0  0  0  0
   24.9740   30.9880   14.0250 O   0  0  0  0  0  0  0  0  0  0  0  0
   25.6290   32.7400   16.3040 O   0  0  0  0  0  0  0  0  0  0  0  0
   26.4530   33.1620   16.0050 H   0  0  0  0  0  0  0  0  0  0  0  0
   25.9400   34.0110   19.2140 O   0  0  0  0  0  0  0  0  0  0  0  0
   25.5510   33.5210   19.9620 H   0  0  0  0  0  0  0  0  0  0  0  0
   34.5550   36.2900   17.6520 C   0  0  0  0  0  0  0  0  0  0  0  0
   35.9070   36.2730   16.9980 C   0  0  0  0  0  0  0  0  0  0  0  0
   37.0090   35.9000   17.9590 C   0  0  0  0  0  0  0  0  0  0  0  0
   37.9710   34.9280   17.2820 C   0  0  0  0  0  0  0  0  0  0  0  0
   39.1720   35.6950   16.7950 C   0  0  0  0  0  0  0  0  0  0  0  0
   39.7840   35.0550   15.5830 C   0  0  0  0  0  0  0  0  0  0  0  0
   39.1370   35.5610   14.3370 C   0  0  0  0  0  0  0  0  0  0  0  0
   38.7620   34.4110   13.4070 C   0  0  0  0  0  0  0  0  0  0  0  0
   37.4930   33.7250   13.8370 C   0  0  0  0  0  0  0  0  0  0  0  0
   36.6380   33.6080   12.6140 C   0  0  0  0  0  0  0  0  0  0  0  0
   37.1000   33.4600   11.4640 O   0  0  0  0  0  0  0  0  0  0  0  0
   35.2500   33.6640   12.7500 O   0  0  0  0  0  0  0  0  0  0  0  0
   34.7280   32.8050   12.7700 H   0  0  0  0  0  0  0  0  0  0  0  0
   29.8670   25.5550   16.9770 C   0  0  0  0  0  0  0  0  0  0  0  0
   28.3450   25.7220   17.0260 C   0  0  0  0  0  0  0  0  0  0  0  0
   27.6010   24.4060   16.8570 C   0  0  0  0  0  0  0  0  0  0  0  0
   26.5680   24.1980   17.9300 C   0  0  0  0  0  0  0  0  0  0  0  0
   25.7050   22.9910   17.5780 C   0  0  0  0  0  0  0  0  0  0  0  0
   24.3890   23.4280   17.0560 N   0  0  0  0  0  0  0  0  0  0  0  0
  1 39  1  0  0  0  0
  2  4  1  0  0  0  0
  2  1  1  0  0  0  0
  3  7  1  0  0  0  0
  3  4  2  0  0  0  0
  5  6  2  0  0  0  0
  5  3  1  0  0  0  0
  6  2  1  0  0  0  0
  8  9  1  0  0  0  0
  8  7  1  0  0  0  0
  9 10  1  0  0  0  0
 10 13  1  0  0  0  0
 10 11  1  0  0  0  0
 12  9  2  0  0  0  0
 14 13  1  6  0  0  0
 14 37  1  0  0  0  0
 15 35  1  6  0  0  0
 15 14  1  0  0  0  0
 16 15  1  6  0  0  0
 16 19  1  0  0  0  0
 17 22  1  1  0  0  0
 17 24  1  0  0  0  0
 18 17  1  0  0  0  0
 19 17  1  0  0  0  0
 20 28  1  1  0  0  0
 20 21  1  0  0  0  0
 20 18  1  0  0  0  0
 21 30  1  1  0  0  0
 21 16  1  0  0  0  0
 22 23  1  0  0  0  0
 24 25  2  0  0  0  0
 24 26  1  0  0  0  0
 26 27  1  0  0  0  0
 28 29  1  0  0  0  0
 30 32  1  0  0  0  0
 31 30  1  0  0  0  0
 33 31  1  0  0  0  0
 34 31  2  0  0  0  0
 36 35  1  0  0  0  0
 37 38  1  0  0  0  0
 40 39  1  0  0  0  0
 40 41  1  0  0  0  0
 42 41  1  0  0  0  0
 43 42  1  0  0  0  0
 44 43  1  0  0  0  0
 45 44  1  0  0  0  0
 46 47  1  0  0  0  0
 46 45  1  0  0  0  0
 48 50  1  0  0  0  0
 48 47  1  0  0  0  0
 49 48  2  0  0  0  0
 50 51  1  0  0  0  0
 52 53  1  0  0  0  0
 54 53  1  0  0  0  0
 54 55  1  0  0  0  0
 56 55  1  0  0  0  0
 57 56  1  0  0  0  0
M  END
>  <REMARK>
 VINA RESULT:    -4.171      3.645      5.774
 INTER + INTRA:         -18.076
 INTER:                 -11.600
 INTRA:                  -6.476
 UNBOUND:                -8.298
 SMILES CC(=O)N[C@@H]1[C@@H](O)C[C@](O)(C(=O)O)O[C@H]1C(O)[C@H](O)CNC(=O)OCc1cn(CCCCCCCCCCC(=O)O)nn1
 SMILES IDX 29 1 28 2 26 3 27 4 43 5 42 6 25 7 24 8 22 9 21 10 23 12
 SMILES IDX 20 13 18 14 16 15 15 16 9 17 8 18 14 19 6 20 5 21 10 22
 SMILES IDX 11 24 12 25 13 26 7 28 4 30 2 31 1 33 3 34 17 35 19 37 30 39
 SMILES IDX 31 40 32 41 33 42 34 43 35 44 36 45 37 46 38 47 39 48 40 49
 SMILES IDX 41 50
 H PARENT 21 11 10 23 13 27 7 29 4 32 17 36 19 38 41 51
 Flexibility Score: inf
  4 active torsions:
  status: ('A' for Active; 'I' for Inactive)
    1  A    between atoms: CA   and  CB  
    2  A    between atoms: CB   and  CG  
    3  A    between atoms: CG   and  CD  
    4  A    between atoms: CD   and  CE  

>  <TORSDO>
F 26

>  <BEGIN_>
RES LYS A 131

$$$$
ligand_30_pose_1_2HRL.pdbqt
 OpenBabel07062320523D

  6  5  0  0  0  0  0  0  0  0999 V2000
   33.1930   34.6630    9.2900 C   0  0  0  0  0  0  0  0  0  0  0  0
   32.0600   35.3600   10.0340 C   0  0  0  0  0  0  0  0  0  0  0  0
   30.6900   34.8760    9.6360 C   0  0  0  0  0  0  0  0  0  0  0  0
   29.7320   34.9470   10.8140 C   0  0  0  0  0  0  0  0  0  0  0  0
   30.4970   34.9550   12.1240 C   0  0  0  0  0  0  0  0  0  0  0  0
   29.9410   35.9660   13.0640 N   0  0  0  0  0  0  0  0  0  0  0  0
  1  2  1  0  0  0  0
  3  2  1  0  0  0  0
  3  4  1  0  0  0  0
  4  5  1  0  0  0  0
  5  6  1  0  0  0  0
M  END
>  <EGIN_R>
ES LYS A 135

>  <REMARK>
  4 active torsions:
  status: ('A' for Active; 'I' for Inactive)
    5  A    between atoms: CA   and  CB  
    6  A    between atoms: CB   and  CG  
    7  A    between atoms: CG   and  CD  
    8  A    between atoms: CD   and  CE  

$$$$
