ligand_21_pose_1_2HRL.pdbqt
 OpenBabel07062320523D

 54 55  0  0  1  0  0  0  0  0999 V2000
   26.8050   31.3070   19.0630 N   0  0  0  0  0  0  0  0  0  0  0  0
   25.6250   31.5000   18.2840 C   0  0  0  0  0  0  0  0  0  0  0  0
   24.6420   30.7630   18.5090 O   0  0  0  0  0  0  0  0  0  0  0  0
   27.6160   31.9250   18.8660 H   0  0  0  0  0  0  0  0  0  0  0  0
   26.8630   30.2880   20.0770 C   0  0  0  0  0  0  0  0  0  0  0  0
   27.5970   29.0760   19.4940 C   0  0  2  0  0  0  0  0  0  0  0  0
   27.9110   28.1140   20.6060 C   0  0  2  0  0  0  0  0  0  0  0  0
   29.3070   28.3750   21.1040 C   0  0  2  0  0  0  0  0  0  0  0  0
   31.5240   27.8340   20.6540 C   0  0  2  0  0  0  0  0  0  0  0  0
   31.6330   27.0080   21.9140 C   0  0  0  0  0  0  0  0  0  0  0  0
   30.1960   27.7830   20.2630 O   0  0  0  0  0  0  0  0  0  0  0  0
   30.8160   27.6590   22.9770 C   0  0  1  0  0  0  0  0  0  0  0  0
   29.4210   28.0110   22.5410 C   0  0  1  0  0  0  0  0  0  0  0  0
   32.2460   27.1200   19.6740 O   0  0  0  0  0  0  0  0  0  0  0  0
   31.7450   26.3360   19.3530 H   0  0  0  0  0  0  0  0  0  0  0  0
   32.0620   29.2010   20.7920 C   0  0  0  0  0  0  0  0  0  0  0  0
   31.4370   30.2390   20.4640 O   0  0  0  0  0  0  0  0  0  0  0  0
   33.3300   29.3750   21.3130 O   0  0  0  0  0  0  0  0  0  0  0  0
   33.9790   28.6070   21.4980 H   0  0  0  0  0  0  0  0  0  0  0  0
   30.7730   26.7650   24.0700 O   0  0  0  0  0  0  0  0  0  0  0  0
   31.4880   27.0320   24.7200 H   0  0  0  0  0  0  0  0  0  0  0  0
   28.9680   29.1330   23.3400 N   0  0  0  0  0  0  0  0  0  0  0  0
   28.2070   28.9550   24.5350 C   0  0  0  0  0  0  0  0  0  0  0  0
   29.1920   30.1110   23.0580 H   0  0  0  0  0  0  0  0  0  0  0  0
   27.7710   30.1360   25.3130 C   0  0  0  0  0  0  0  0  0  0  0  0
   27.9140   27.8010   24.9150 O   0  0  0  0  0  0  0  0  0  0  0  0
   27.7880   26.7830   20.1910 O   0  0  0  0  0  0  0  0  0  0  0  0
   27.3030   26.2800   20.8870 H   0  0  0  0  0  0  0  0  0  0  0  0
   28.7050   29.5520   18.8300 O   0  0  0  0  0  0  0  0  0  0  0  0
   29.5260   29.5470   19.3660 H   0  0  0  0  0  0  0  0  0  0  0  0
   25.5910   32.4850   17.3120 O   0  0  0  0  0  0  0  0  0  0  0  0
   25.8880   32.2120   15.9620 C   0  0  0  0  0  0  0  0  0  0  0  0
   27.2420   31.6440   15.8780 C   0  0  0  0  0  0  0  0  0  0  0  0
   28.4300   32.3510   15.6730 C   0  0  0  0  0  0  0  0  0  0  0  0
   27.6250   30.3450   15.9750 N   0  0  0  0  0  0  0  0  0  0  0  0
   29.4230   31.4700   15.6600 N   0  0  0  0  0  0  0  0  0  0  0  0
   28.9330   30.2560   15.8430 N   0  0  0  0  0  0  0  0  0  0  0  0
   30.8270   31.7760   15.4790 C   0  0  0  0  0  0  0  0  0  0  0  0
   31.1760   32.7770   16.5430 C   0  0  0  0  0  0  0  0  0  0  0  0
   31.8470   33.9130   16.1750 C   0  0  0  0  0  0  0  0  0  0  0  0
   30.8210   32.5360   17.8460 C   0  0  0  0  0  0  0  0  0  0  0  0
   32.1890   34.8550   17.1100 C   0  0  0  0  0  0  0  0  0  0  0  0
   31.1630   33.4900   18.8110 C   0  0  0  0  0  0  0  0  0  0  0  0
   31.8340   34.6170   18.4210 C   0  0  0  0  0  0  0  0  0  0  0  0
   32.1880   34.1190   14.8470 O   0  0  0  0  0  0  0  0  0  0  0  0
   31.5120   35.1250   14.1580 C   0  0  0  0  0  0  0  0  0  0  0  0
   30.2590   35.1320   14.1510 O   0  0  0  0  0  0  0  0  0  0  0  0
   32.2560   36.1850   13.4370 C   0  0  0  0  0  0  0  0  0  0  0  0
   29.8670   25.5550   16.9770 C   0  0  0  0  0  0  0  0  0  0  0  0
   28.3450   25.7220   17.0260 C   0  0  0  0  0  0  0  0  0  0  0  0
   27.6010   24.4020   16.8960 C   0  0  0  0  0  0  0  0  0  0  0  0
   26.5620   24.2290   17.9680 C   0  0  0  0  0  0  0  0  0  0  0  0
   25.2700   23.7100   17.3460 C   0  0  0  0  0  0  0  0  0  0  0  0
   24.7270   22.5830   18.1410 N   0  0  0  0  0  0  0  0  0  0  0  0
  1  5  1  0  0  0  0
  2  3  2  0  0  0  0
  2  1  1  0  0  0  0
  4  1  1  0  0  0  0
  6  5  1  1  0  0  0
  6  7  1  0  0  0  0
  7 27  1  6  0  0  0
  8  7  1  6  0  0  0
  8 13  1  0  0  0  0
  9 14  1  6  0  0  0
  9 16  1  0  0  0  0
  9 10  1  0  0  0  0
 10 12  1  0  0  0  0
 11  9  1  0  0  0  0
 11  8  1  0  0  0  0
 12 20  1  1  0  0  0
 13 12  1  0  0  0  0
 13 22  1  1  0  0  0
 15 14  1  0  0  0  0
 16 18  1  0  0  0  0
 17 16  2  0  0  0  0
 18 19  1  0  0  0  0
 20 21  1  0  0  0  0
 22 23  1  0  0  0  0
 23 26  2  0  0  0  0
 23 25  1  0  0  0  0
 24 22  1  0  0  0  0
 27 28  1  0  0  0  0
 29 30  1  0  0  0  0
 29  6  1  0  0  0  0
 31  2  1  0  0  0  0
 32 31  1  0  0  0  0
 33 32  1  0  0  0  0
 33 35  1  0  0  0  0
 34 33  2  0  0  0  0
 36 34  1  0  0  0  0
 36 37  1  0  0  0  0
 37 35  2  0  0  0  0
 38 36  1  0  0  0  0
 38 39  1  0  0  0  0
 39 41  1  0  0  0  0
 40 39  2  0  0  0  0
 40 42  1  0  0  0  0
 41 43  2  0  0  0  0
 42 44  2  0  0  0  0
 44 43  1  0  0  0  0
 45 40  1  0  0  0  0
 46 45  1  0  0  0  0
 47 46  2  0  0  0  0
 48 46  1  0  0  0  0
 49 50  1  0  0  0  0
 51 50  1  0  0  0  0
 51 52  1  0  0  0  0
 53 52  1  0  0  0  0
 53 54  1  0  0  0  0
M  END
>  <REMARK>
 VINA RESULT:    -4.946      7.968     13.763
 INTER + INTRA:         -15.704
 INTER:                  -9.776
 INTRA:                  -5.928
 UNBOUND:                -6.275
 SMILES CC(=O)N[C@@H]1[C@@H](O)C[C@](O)(C(=O)O)O[C@H]1C(O)[C@H](O)CNC(=O)OCc1cn(Cc2ccccc2OC(C)=O)nn1
 SMILES IDX 21 1 22 2 23 3 20 5 18 6 16 7 15 8 9 9 8 10 14 11 6 12 5 13
 SMILES IDX 10 14 11 16 12 17 13 18 7 20 4 22 2 23 1 25 3 26 17 27 19 29
 SMILES IDX 24 31 25 32 26 33 27 34 41 35 28 36 40 37 29 38 30 39 35 40
 SMILES IDX 31 41 34 42 32 43 33 44 36 45 37 46 39 47 38 48
 H PARENT 21 4 10 15 13 19 7 21 4 24 17 28 19 30
 Flexibility Score: inf
  4 active torsions:
  status: ('A' for Active; 'I' for Inactive)
    1  A    between atoms: CA   and  CB  
    2  A    between atoms: CB   and  CG  
    3  A    between atoms: CG   and  CD  
    4  A    between atoms: CD   and  CE  

>  <TORSDO>
F 18

>  <BEGIN_>
RES LYS A 131

$$$$
ligand_21_pose_1_2HRL.pdbqt
 OpenBabel07062320523D

  6  5  0  0  0  0  0  0  0  0999 V2000
   33.1930   34.6630    9.2900 C   0  0  0  0  0  0  0  0  0  0  0  0
   32.0600   35.3600   10.0340 C   0  0  0  0  0  0  0  0  0  0  0  0
   30.7100   34.7310    9.8030 C   0  0  0  0  0  0  0  0  0  0  0  0
   30.4840   34.4770    8.3200 C   0  0  0  0  0  0  0  0  0  0  0  0
   29.0360   34.7380    7.9510 C   0  0  0  0  0  0  0  0  0  0  0  0
   28.1130   34.2100    8.9940 N   0  0  0  0  0  0  0  0  0  0  0  0
  1  2  1  0  0  0  0
  3  2  1  0  0  0  0
  4  3  1  0  0  0  0
  5  4  1  0  0  0  0
  5  6  1  0  0  0  0
M  END
>  <EGIN_R>
ES LYS A 135

>  <REMARK>
  4 active torsions:
  status: ('A' for Active; 'I' for Inactive)
    5  A    between atoms: CA   and  CB  
    6  A    between atoms: CB   and  CG  
    7  A    between atoms: CG   and  CD  
    8  A    between atoms: CD   and  CE  

$$$$
