ligand_50_pose_9_2HRL.pdbqt
 OpenBabel07062320523D

 50 50  0  0  1  0  0  0  0  0999 V2000
   29.4010   41.4750    8.7120 N   0  0  0  0  0  0  0  0  0  0  0  0
   30.4990   40.7600    8.1710 C   0  0  0  0  0  0  0  0  0  0  0  0
   31.0210   39.8150    8.7880 O   0  0  0  0  0  0  0  0  0  0  0  0
   29.0260   42.2670    8.1080 H   0  0  0  0  0  0  0  0  0  0  0  0
   28.8470   41.1470    9.9810 C   0  0  0  0  0  0  0  0  0  0  0  0
   27.3910   40.7390    9.9210 C   0  0  2  0  0  0  0  0  0  0  0  0
   27.2910   39.6630    8.8470 C   0  0  1  0  0  0  0  0  0  0  0  0
   26.2330   38.6250    9.2370 C   0  0  2  0  0  0  0  0  0  0  0  0
   26.2170   36.6990    7.9390 C   0  0  2  0  0  0  0  0  0  0  0  0
   24.7780   36.4100    8.3180 C   0  0  0  0  0  0  0  0  0  0  0  0
   26.7700   37.3940    8.9870 O   0  0  0  0  0  0  0  0  0  0  0  0
   24.0570   37.7120    8.3650 C   0  0  1  0  0  0  0  0  0  0  0  0
   24.9440   38.9180    8.5370 C   0  0  1  0  0  0  0  0  0  0  0  0
   26.1800   37.4190    6.7460 O   0  0  0  0  0  0  0  0  0  0  0  0
   25.4840   38.1150    6.7450 H   0  0  0  0  0  0  0  0  0  0  0  0
   26.9870   35.4440    7.7410 C   0  0  0  0  0  0  0  0  0  0  0  0
   27.9920   35.4680    6.9860 O   0  0  0  0  0  0  0  0  0  0  0  0
   26.5970   34.2900    8.3770 O   0  0  0  0  0  0  0  0  0  0  0  0
   26.5210   34.2560    9.3890 H   0  0  0  0  0  0  0  0  0  0  0  0
   23.3770   37.8690    7.1510 O   0  0  0  0  0  0  0  0  0  0  0  0
   22.7530   38.6150    7.2220 H   0  0  0  0  0  0  0  0  0  0  0  0
   24.1710   39.8890    9.2820 N   0  0  0  0  0  0  0  0  0  0  0  0
   23.4280   40.8730    8.5790 C   0  0  0  0  0  0  0  0  0  0  0  0
   24.1330   39.9010   10.3270 H   0  0  0  0  0  0  0  0  0  0  0  0
   22.6080   41.9070    9.3000 C   0  0  0  0  0  0  0  0  0  0  0  0
   23.4050   40.9460    7.3240 O   0  0  0  0  0  0  0  0  0  0  0  0
   27.0310   40.2530    7.6340 O   0  0  0  0  0  0  0  0  0  0  0  0
   26.1770   40.7680    7.6510 H   0  0  0  0  0  0  0  0  0  0  0  0
   26.5890   41.8350    9.6060 O   0  0  0  0  0  0  0  0  0  0  0  0
   26.6900   42.0040    8.6500 H   0  0  0  0  0  0  0  0  0  0  0  0
   31.0320   41.0950    6.9170 O   0  0  0  0  0  0  0  0  0  0  0  0
   31.0040   40.1280    5.9060 C   0  0  0  0  0  0  0  0  0  0  0  0
   29.6380   39.9370    5.3560 C   0  0  0  0  0  0  0  0  0  0  0  0
   28.9270   40.8210    4.5980 C   0  0  0  0  0  0  0  0  0  0  0  0
   28.8650   38.8590    5.5120 N   0  0  0  0  0  0  0  0  0  0  0  0
   27.7340   40.2300    4.3210 N   0  0  0  0  0  0  0  0  0  0  0  0
   27.7110   39.0310    4.8870 N   0  0  0  0  0  0  0  0  0  0  0  0
   26.6690   40.8400    3.5280 C   0  0  0  0  0  0  0  0  0  0  0  0
   25.6050   41.2770    4.5160 C   0  0  1  0  0  0  0  0  0  0  0  0
   25.4210   40.2790    5.4650 O   0  0  0  0  0  0  0  0  0  0  0  0
   24.8150   40.6350    6.1690 H   0  0  0  0  0  0  0  0  0  0  0  0
   26.0330   42.5750    5.2090 C   0  0  0  0  0  0  0  0  0  0  0  0
   25.8440   42.4440    6.5860 O   0  0  0  0  0  0  0  0  0  0  0  0
   26.3140   43.1960    7.0560 H   0  0  0  0  0  0  0  0  0  0  0  0
   29.8670   25.5550   16.9770 C   0  0  0  0  0  0  0  0  0  0  0  0
   28.3450   25.7220   17.0260 C   0  0  0  0  0  0  0  0  0  0  0  0
   27.6010   24.4010   16.9040 C   0  0  0  0  0  0  0  0  0  0  0  0
   26.1520   24.5290   17.2840 C   0  0  0  0  0  0  0  0  0  0  0  0
   25.7870   23.4310   18.2770 C   0  0  0  0  0  0  0  0  0  0  0  0
   25.0790   22.3250   17.5900 N   0  0  0  0  0  0  0  0  0  0  0  0
  1  5  1  0  0  0  0
  2  1  1  0  0  0  0
  2  3  2  0  0  0  0
  4  1  1  0  0  0  0
  6  5  1  6  0  0  0
  7 27  1  6  0  0  0
  7  6  1  0  0  0  0
  8  7  1  6  0  0  0
  9 14  1  6  0  0  0
  9 10  1  0  0  0  0
  9 11  1  0  0  0  0
 10 12  1  0  0  0  0
 11  8  1  0  0  0  0
 12 20  1  6  0  0  0
 12 13  1  0  0  0  0
 13  8  1  0  0  0  0
 13 22  1  1  0  0  0
 15 14  1  0  0  0  0
 16  9  1  0  0  0  0
 16 18  1  0  0  0  0
 17 16  2  0  0  0  0
 18 19  1  0  0  0  0
 20 21  1  0  0  0  0
 22 24  1  0  0  0  0
 23 22  1  0  0  0  0
 23 25  1  0  0  0  0
 26 23  2  0  0  0  0
 27 28  1  0  0  0  0
 29  6  1  0  0  0  0
 30 29  1  0  0  0  0
 31  2  1  0  0  0  0
 32 31  1  0  0  0  0
 33 35  1  0  0  0  0
 33 32  1  0  0  0  0
 34 33  2  0  0  0  0
 36 34  1  0  0  0  0
 36 37  1  0  0  0  0
 37 35  2  0  0  0  0
 38 36  1  0  0  0  0
 39 38  1  6  0  0  0
 39 42  1  0  0  0  0
 39 40  1  0  0  0  0
 40 41  1  0  0  0  0
 42 43  1  0  0  0  0
 43 44  1  0  0  0  0
 45 46  1  0  0  0  0
 47 46  1  0  0  0  0
 47 48  1  0  0  0  0
 48 49  1  0  0  0  0
 50 49  1  0  0  0  0
M  END
>  <REMARK>
 VINA RESULT:    -4.674      8.572     14.683
 INTER + INTRA:         -14.386
 INTER:                  -6.710
 INTRA:                  -7.676
 UNBOUND:                -5.477
 SMILES CC(=O)N[C@@H]1[C@@H](O)C[C@](O)(C(=O)O)O[C@H]1C(O)[C@H](O)CNC(=O)OCc1cn(CC(O)CO)nn1
 SMILES IDX 21 1 22 2 23 3 20 5 18 6 16 7 15 8 9 9 8 10 14 11 6 12 5 13
 SMILES IDX 10 14 11 16 12 17 13 18 7 20 4 22 2 23 1 25 3 26 17 27 19 29
 SMILES IDX 24 31 25 32 26 33 27 34 35 35 28 36 34 37 29 38 30 39 31 40
 SMILES IDX 32 42 33 43
 H PARENT 21 4 10 15 13 19 7 21 4 24 17 28 19 30 31 41 33 44
 Flexibility Score: inf
  4 active torsions:
  status: ('A' for Active; 'I' for Inactive)
    1  A    between atoms: CA   and  CB  
    2  A    between atoms: CB   and  CG  
    3  A    between atoms: CG   and  CD  
    4  A    between atoms: CD   and  CE  

>  <TORSDO>
F 19

>  <BEGIN_>
RES LYS A 131

$$$$
ligand_50_pose_9_2HRL.pdbqt
 OpenBabel07062320523D

  6  5  0  0  0  0  0  0  0  0999 V2000
   33.1930   34.6630    9.2900 C   0  0  0  0  0  0  0  0  0  0  0  0
   32.0600   35.3600   10.0340 C   0  0  0  0  0  0  0  0  0  0  0  0
   30.7590   35.3740    9.2740 C   0  0  0  0  0  0  0  0  0  0  0  0
   29.7260   34.4950    9.9620 C   0  0  0  0  0  0  0  0  0  0  0  0
   28.9250   35.3010   10.9670 C   0  0  0  0  0  0  0  0  0  0  0  0
   29.1410   34.7980   12.3520 N   0  0  0  0  0  0  0  0  0  0  0  0
  1  2  1  0  0  0  0
  3  4  1  0  0  0  0
  3  2  1  0  0  0  0
  4  5  1  0  0  0  0
  5  6  1  0  0  0  0
M  END
>  <EGIN_R>
ES LYS A 135

>  <REMARK>
  4 active torsions:
  status: ('A' for Active; 'I' for Inactive)
    5  A    between atoms: CA   and  CB  
    6  A    between atoms: CB   and  CG  
    7  A    between atoms: CG   and  CD  
    8  A    between atoms: CD   and  CE  

$$$$
