ligand_47_pose_3_2HRL.pdbqt
 OpenBabel07062320523D

 62 64  0  0  1  0  0  0  0  0999 V2000
   24.7960   38.3690   12.3240 N   0  0  0  0  0  0  0  0  0  0  0  0
   24.7500   38.1080   13.7180 C   0  0  0  0  0  0  0  0  0  0  0  0
   24.5370   36.9290   14.1280 O   0  0  0  0  0  0  0  0  0  0  0  0
   24.9800   39.3820   12.0630 H   0  0  0  0  0  0  0  0  0  0  0  0
   24.6120   37.3520   11.3170 C   0  0  0  0  0  0  0  0  0  0  0  0
   25.9390   36.8100   10.7820 C   0  0  2  0  0  0  0  0  0  0  0  0
   26.2920   37.6580    9.5990 C   0  0  2  0  0  0  0  0  0  0  0  0
   26.8870   36.8780    8.4610 C   0  0  2  0  0  0  0  0  0  0  0  0
   28.9110   35.9470    7.8190 C   0  0  2  0  0  0  0  0  0  0  0  0
   28.2260   35.6390    6.5120 C   0  0  0  0  0  0  0  0  0  0  0  0
   28.0740   36.3120    8.8360 O   0  0  0  0  0  0  0  0  0  0  0  0
   27.2840   36.7070    6.0720 C   0  0  1  0  0  0  0  0  0  0  0  0
   27.0880   37.7050    7.2120 C   0  0  1  0  0  0  0  0  0  0  0  0
   29.8670   36.9380    7.5730 O   0  0  0  0  0  0  0  0  0  0  0  0
   30.3420   36.7690    6.7140 H   0  0  0  0  0  0  0  0  0  0  0  0
   29.6300   34.7180    8.2320 C   0  0  0  0  0  0  0  0  0  0  0  0
   30.8060   34.5320    7.8360 O   0  0  0  0  0  0  0  0  0  0  0  0
   29.0430   33.7680    9.0410 O   0  0  0  0  0  0  0  0  0  0  0  0
   29.6240   33.2310    9.6990 H   0  0  0  0  0  0  0  0  0  0  0  0
   27.6080   37.3200    4.8880 O   0  0  0  0  0  0  0  0  0  0  0  0
   26.8180   37.7710    4.4930 H   0  0  0  0  0  0  0  0  0  0  0  0
   25.9260   38.5400    6.9420 N   0  0  0  0  0  0  0  0  0  0  0  0
   26.1340   39.8390    6.4200 C   0  0  0  0  0  0  0  0  0  0  0  0
   24.9840   38.1660    7.1350 H   0  0  0  0  0  0  0  0  0  0  0  0
   24.9910   40.7290    6.1260 C   0  0  0  0  0  0  0  0  0  0  0  0
   27.2970   40.2580    6.1980 O   0  0  0  0  0  0  0  0  0  0  0  0
   27.0540   38.7400    9.9870 O   0  0  0  0  0  0  0  0  0  0  0  0
   27.5340   39.1730    9.2250 H   0  0  0  0  0  0  0  0  0  0  0  0
   25.6800   35.4830   10.3930 O   0  0  0  0  0  0  0  0  0  0  0  0
   26.5870   35.0540   10.3610 H   0  0  0  0  0  0  0  0  0  0  0  0
   24.9340   39.1140   14.6450 O   0  0  0  0  0  0  0  0  0  0  0  0
   26.1320   39.9010   14.6680 C   0  0  0  0  0  0  0  0  0  0  0  0
   27.2610   39.1530   14.0730 C   0  0  0  0  0  0  0  0  0  0  0  0
   27.9850   38.1350   14.7140 C   0  0  0  0  0  0  0  0  0  0  0  0
   27.8320   39.2520   12.8670 N   0  0  0  0  0  0  0  0  0  0  0  0
   28.9340   37.6670   13.9040 N   0  0  0  0  0  0  0  0  0  0  0  0
   28.8180   38.3790   12.7600 N   0  0  0  0  0  0  0  0  0  0  0  0
   29.9240   36.6370   14.0350 C   0  0  0  0  0  0  0  0  0  0  0  0
   29.4220   35.2350   14.1270 C   0  0  1  0  0  0  0  0  0  0  0  0
   28.7120   34.8390   12.9100 C   0  0  0  0  0  0  0  0  0  0  0  0
   29.2270   34.6250   11.8000 O   0  0  0  0  0  0  0  0  0  0  0  0
   27.3110   34.6740   12.9510 O   0  0  0  0  0  0  0  0  0  0  0  0
   26.7800   35.1610   13.6780 H   0  0  0  0  0  0  0  0  0  0  0  0
   30.5270   34.2590   14.4920 C   0  0  0  0  0  0  0  0  0  0  0  0
   30.0070   33.1150   15.2770 C   0  0  0  0  0  0  0  0  0  0  0  0
   28.6670   33.0580   15.6790 C   0  0  0  0  0  0  0  0  0  0  0  0
   30.8100   32.0540   15.6480 C   0  0  0  0  0  0  0  0  0  0  0  0
   28.1820   31.9950   16.4080 C   0  0  0  0  0  0  0  0  0  0  0  0
   30.3430   30.9890   16.3720 C   0  0  0  0  0  0  0  0  0  0  0  0
   29.0280   30.9430   16.7620 C   0  0  0  0  0  0  0  0  0  0  0  0
   31.6370   34.8700   15.2310 C   0  0  0  0  0  0  0  0  0  0  0  0
   31.3560   35.4150   16.4900 C   0  0  0  0  0  0  0  0  0  0  0  0
   32.9300   34.9360   14.7590 C   0  0  0  0  0  0  0  0  0  0  0  0
   32.3700   35.9960   17.2130 C   0  0  0  0  0  0  0  0  0  0  0  0
   33.9480   35.5170   15.4820 C   0  0  0  0  0  0  0  0  0  0  0  0
   33.6780   36.0610   16.7330 C   0  0  0  0  0  0  0  0  0  0  0  0
   29.8670   25.5550   16.9770 C   0  0  0  0  0  0  0  0  0  0  0  0
   28.3450   25.7220   17.0260 C   0  0  0  0  0  0  0  0  0  0  0  0
   27.6020   24.3970   16.9510 C   0  0  0  0  0  0  0  0  0  0  0  0
   26.1220   24.5650   17.1500 C   0  0  0  0  0  0  0  0  0  0  0  0
   25.8290   24.7820   18.6310 C   0  0  0  0  0  0  0  0  0  0  0  0
   25.7490   23.4830   19.3400 N   0  0  0  0  0  0  0  0  0  0  0  0
  1  2  1  0  0  0  0
  2  3  2  0  0  0  0
  2 31  1  0  0  0  0
  4  1  1  0  0  0  0
  5  1  1  0  0  0  0
  6  5  1  6  0  0  0
  7 27  1  1  0  0  0
  7  6  1  0  0  0  0
  8 11  1  0  0  0  0
  8  7  1  1  0  0  0
  9 14  1  6  0  0  0
  9 16  1  0  0  0  0
  9 11  1  0  0  0  0
 10  9  1  0  0  0  0
 12 20  1  6  0  0  0
 12 10  1  0  0  0  0
 12 13  1  0  0  0  0
 13 22  1  6  0  0  0
 13  8  1  0  0  0  0
 15 14  1  0  0  0  0
 16 18  1  0  0  0  0
 17 16  2  0  0  0  0
 18 19  1  0  0  0  0
 21 20  1  0  0  0  0
 22 24  1  0  0  0  0
 23 22  1  0  0  0  0
 25 23  1  0  0  0  0
 26 23  2  0  0  0  0
 28 27  1  0  0  0  0
 29  6  1  0  0  0  0
 30 29  1  0  0  0  0
 31 32  1  0  0  0  0
 33 32  1  0  0  0  0
 33 34  2  0  0  0  0
 35 33  1  0  0  0  0
 36 38  1  0  0  0  0
 36 34  1  0  0  0  0
 37 35  2  0  0  0  0
 37 36  1  0  0  0  0
 39 38  1  6  0  0  0
 39 44  1  0  0  0  0
 40 42  1  0  0  0  0
 40 39  1  0  0  0  0
 41 40  2  0  0  0  0
 42 43  1  0  0  0  0
 44 51  1  0  0  0  0
 44 45  1  0  0  0  0
 45 47  2  0  0  0  0
 45 46  1  0  0  0  0
 46 48  2  0  0  0  0
 47 49  1  0  0  0  0
 48 50  1  0  0  0  0
 49 50  2  0  0  0  0
 51 52  1  0  0  0  0
 52 54  2  0  0  0  0
 53 51  2  0  0  0  0
 53 55  1  0  0  0  0
 55 56  2  0  0  0  0
 56 54  1  0  0  0  0
 57 58  1  0  0  0  0
 59 58  1  0  0  0  0
 59 60  1  0  0  0  0
 60 61  1  0  0  0  0
 61 62  1  0  0  0  0
M  END
>  <REMARK>
 VINA RESULT:    -5.557      3.655      9.049
 INTER + INTRA:         -17.702
 INTER:                 -11.804
 INTRA:                  -5.899
 UNBOUND:                -6.299
 SMILES CC(=O)N[C@@H]1[C@@H](O)C[C@](O)(C(=O)O)O[C@H]1C(O)[C@H](O)CNC(=O)OCc1cn(C[C@@H](C(=O)O)C(c2ccccc2)c2ccccc2)nn1
 SMILES IDX 21 1 22 2 23 3 20 5 18 6 16 7 15 8 9 9 8 10 14 11 6 12 5 13
 SMILES IDX 10 14 11 16 12 17 13 18 7 20 4 22 2 23 1 25 3 26 17 27 19 29
 SMILES IDX 24 31 25 32 26 33 27 34 48 35 28 36 47 37 29 38 30 39 31 40
 SMILES IDX 32 41 33 42 34 44 35 45 36 46 40 47 37 48 39 49 38 50 41 51
 SMILES IDX 42 52 46 53 43 54 45 55 44 56
 H PARENT 21 4 10 15 13 19 7 21 4 24 17 28 19 30 33 43
 Flexibility Score: inf
  4 active torsions:
  status: ('A' for Active; 'I' for Inactive)
    1  A    between atoms: CA   and  CB  
    2  A    between atoms: CB   and  CG  
    3  A    between atoms: CG   and  CD  
    4  A    between atoms: CD   and  CE  

>  <TORSDO>
F 21

>  <BEGIN_>
RES LYS A 131

$$$$
ligand_47_pose_3_2HRL.pdbqt
 OpenBabel07062320523D

  6  5  0  0  0  0  0  0  0  0999 V2000
   33.1930   34.6630    9.2900 C   0  0  0  0  0  0  0  0  0  0  0  0
   32.0600   35.3600   10.0340 C   0  0  0  0  0  0  0  0  0  0  0  0
   32.4570   35.8710   11.3950 C   0  0  0  0  0  0  0  0  0  0  0  0
   32.2330   37.3720   11.4910 C   0  0  0  0  0  0  0  0  0  0  0  0
   31.4240   37.8670   10.3080 C   0  0  0  0  0  0  0  0  0  0  0  0
   32.1120   38.9950    9.6210 N   0  0  0  0  0  0  0  0  0  0  0  0
  1  2  1  0  0  0  0
  2  3  1  0  0  0  0
  3  4  1  0  0  0  0
  5  4  1  0  0  0  0
  6  5  1  0  0  0  0
M  END
>  <EGIN_R>
ES LYS A 135

>  <REMARK>
  4 active torsions:
  status: ('A' for Active; 'I' for Inactive)
    5  A    between atoms: CA   and  CB  
    6  A    between atoms: CB   and  CG  
    7  A    between atoms: CG   and  CD  
    8  A    between atoms: CD   and  CE  

$$$$
