ligand_50_pose_15_2HRL.pdbqt
 OpenBabel07062320523D

 50 50  0  0  1  0  0  0  0  0999 V2000
   20.5880   38.3060    8.2830 N   0  0  0  0  0  0  0  0  0  0  0  0
   20.7830   38.8790    9.5640 C   0  0  0  0  0  0  0  0  0  0  0  0
   21.2860   38.2250   10.4940 O   0  0  0  0  0  0  0  0  0  0  0  0
   20.1480   38.9460    7.5550 H   0  0  0  0  0  0  0  0  0  0  0  0
   20.9570   36.9610    8.0010 C   0  0  0  0  0  0  0  0  0  0  0  0
   22.3280   36.8240    7.3770 C   0  0  2  0  0  0  0  0  0  0  0  0
   23.2010   36.1210    8.4090 C   0  0  1  0  0  0  0  0  0  0  0  0
   24.3810   37.0180    8.8000 C   0  0  2  0  0  0  0  0  0  0  0  0
   26.4620   36.2740    8.0850 C   0  0  2  0  0  0  0  0  0  0  0  0
   27.1630   37.0810    9.1600 C   0  0  0  0  0  0  0  0  0  0  0  0
   25.2960   36.9370    7.7890 O   0  0  0  0  0  0  0  0  0  0  0  0
   26.3290   37.0040   10.3910 C   0  0  1  0  0  0  0  0  0  0  0  0
   24.8870   36.6380   10.1560 C   0  0  1  0  0  0  0  0  0  0  0  0
   26.2640   34.9980    8.6080 O   0  0  0  0  0  0  0  0  0  0  0  0
   26.6050   34.2880    8.0180 H   0  0  0  0  0  0  0  0  0  0  0  0
   27.2860   36.1860    6.8510 C   0  0  0  0  0  0  0  0  0  0  0  0
   28.3090   35.4570    6.8630 O   0  0  0  0  0  0  0  0  0  0  0  0
   26.9220   36.8930    5.7300 O   0  0  0  0  0  0  0  0  0  0  0  0
   26.8930   36.4420    4.8200 H   0  0  0  0  0  0  0  0  0  0  0  0
   26.8770   36.0160   11.2180 O   0  0  0  0  0  0  0  0  0  0  0  0
   26.2950   35.8750   11.9870 H   0  0  0  0  0  0  0  0  0  0  0  0
   24.1230   37.3060   11.1880 N   0  0  0  0  0  0  0  0  0  0  0  0
   23.8310   36.6150   12.3930 C   0  0  0  0  0  0  0  0  0  0  0  0
   23.7700   38.2850   11.0870 H   0  0  0  0  0  0  0  0  0  0  0  0
   23.0400   37.2590   13.5000 C   0  0  0  0  0  0  0  0  0  0  0  0
   24.2080   35.4360   12.6150 O   0  0  0  0  0  0  0  0  0  0  0  0
   22.4310   35.7600    9.4870 O   0  0  0  0  0  0  0  0  0  0  0  0
   22.2390   34.7810    9.4910 H   0  0  0  0  0  0  0  0  0  0  0  0
   22.8460   38.0790    7.0570 O   0  0  0  0  0  0  0  0  0  0  0  0
   22.3870   38.3860    6.2510 H   0  0  0  0  0  0  0  0  0  0  0  0
   20.4160   40.2080    9.8250 O   0  0  0  0  0  0  0  0  0  0  0  0
   21.4310   41.1480   10.0260 C   0  0  0  0  0  0  0  0  0  0  0  0
   22.3690   41.2100    8.8770 C   0  0  0  0  0  0  0  0  0  0  0  0
   23.7190   41.3960    8.9280 C   0  0  0  0  0  0  0  0  0  0  0  0
   22.0480   41.0940    7.5850 N   0  0  0  0  0  0  0  0  0  0  0  0
   24.1670   41.3840    7.6440 N   0  0  0  0  0  0  0  0  0  0  0  0
   23.1330   41.1980    6.8340 N   0  0  0  0  0  0  0  0  0  0  0  0
   25.5640   41.5500    7.2490 C   0  0  0  0  0  0  0  0  0  0  0  0
   26.1650   40.1590    7.2290 C   0  0  1  0  0  0  0  0  0  0  0  0
   25.4590   39.3650    6.3320 O   0  0  0  0  0  0  0  0  0  0  0  0
   25.2570   38.5010    6.7820 H   0  0  0  0  0  0  0  0  0  0  0  0
   27.6370   40.2270    6.8070 C   0  0  0  0  0  0  0  0  0  0  0  0
   27.7790   39.6590    5.5400 O   0  0  0  0  0  0  0  0  0  0  0  0
   26.9360   39.8060    5.0170 H   0  0  0  0  0  0  0  0  0  0  0  0
   29.8670   25.5550   16.9770 C   0  0  0  0  0  0  0  0  0  0  0  0
   28.3450   25.7220   17.0260 C   0  0  0  0  0  0  0  0  0  0  0  0
   27.6040   24.3940   16.9950 C   0  0  0  0  0  0  0  0  0  0  0  0
   26.1170   24.5720   17.1350 C   0  0  0  0  0  0  0  0  0  0  0  0
   25.8260   25.5560   18.2630 C   0  0  0  0  0  0  0  0  0  0  0  0
   25.7280   24.8450   19.5600 N   0  0  0  0  0  0  0  0  0  0  0  0
  1  2  1  0  0  0  0
  2 31  1  0  0  0  0
  2  3  2  0  0  0  0
  4  1  1  0  0  0  0
  5  1  1  0  0  0  0
  6  5  1  1  0  0  0
  6  7  1  0  0  0  0
  7 27  1  1  0  0  0
  8  7  1  6  0  0  0
  8 13  1  0  0  0  0
  9 16  1  6  0  0  0
  9 14  1  0  0  0  0
  9 10  1  0  0  0  0
 10 12  1  0  0  0  0
 11  9  1  0  0  0  0
 11  8  1  0  0  0  0
 12 20  1  1  0  0  0
 13 12  1  0  0  0  0
 13 22  1  1  0  0  0
 15 14  1  0  0  0  0
 16 17  2  0  0  0  0
 18 16  1  0  0  0  0
 19 18  1  0  0  0  0
 20 21  1  0  0  0  0
 22 23  1  0  0  0  0
 23 26  2  0  0  0  0
 23 25  1  0  0  0  0
 24 22  1  0  0  0  0
 27 28  1  0  0  0  0
 29  6  1  0  0  0  0
 30 29  1  0  0  0  0
 31 32  1  0  0  0  0
 33 34  2  0  0  0  0
 33 32  1  0  0  0  0
 35 33  1  0  0  0  0
 36 34  1  0  0  0  0
 37 35  2  0  0  0  0
 37 36  1  0  0  0  0
 38 36  1  0  0  0  0
 39 42  1  6  0  0  0
 39 38  1  0  0  0  0
 40 41  1  0  0  0  0
 40 39  1  0  0  0  0
 43 42  1  0  0  0  0
 44 43  1  0  0  0  0
 45 46  1  0  0  0  0
 47 46  1  0  0  0  0
 47 48  1  0  0  0  0
 48 49  1  0  0  0  0
 49 50  1  0  0  0  0
M  END
>  <REMARK>
 VINA RESULT:    -4.497      7.847     13.329
 INTER + INTRA:         -14.049
 INTER:                  -6.658
 INTRA:                  -7.391
 UNBOUND:                -5.477
 SMILES CC(=O)N[C@@H]1[C@@H](O)C[C@](O)(C(=O)O)O[C@H]1C(O)[C@H](O)CNC(=O)OCc1cn(CC(O)CO)nn1
 SMILES IDX 21 1 22 2 23 3 20 5 18 6 16 7 15 8 9 9 8 10 14 11 6 12 5 13
 SMILES IDX 10 14 11 16 12 17 13 18 7 20 4 22 2 23 1 25 3 26 17 27 19 29
 SMILES IDX 24 31 25 32 26 33 27 34 35 35 28 36 34 37 29 38 30 39 31 40
 SMILES IDX 32 42 33 43
 H PARENT 21 4 10 15 13 19 7 21 4 24 17 28 19 30 31 41 33 44
 Flexibility Score: inf
  4 active torsions:
  status: ('A' for Active; 'I' for Inactive)
    1  A    between atoms: CA   and  CB  
    2  A    between atoms: CB   and  CG  
    3  A    between atoms: CG   and  CD  
    4  A    between atoms: CD   and  CE  

>  <TORSDO>
F 19

>  <BEGIN_>
RES LYS A 131

$$$$
ligand_50_pose_15_2HRL.pdbqt
 OpenBabel07062320523D

  6  5  0  0  0  0  0  0  0  0999 V2000
   33.1930   34.6630    9.2900 C   0  0  0  0  0  0  0  0  0  0  0  0
   32.0600   35.3600   10.0340 C   0  0  0  0  0  0  0  0  0  0  0  0
   30.6880   34.9510    9.5630 C   0  0  0  0  0  0  0  0  0  0  0  0
   29.7780   34.6630   10.7470 C   0  0  0  0  0  0  0  0  0  0  0  0
   30.5260   34.8560   12.0530 C   0  0  0  0  0  0  0  0  0  0  0  0
   29.8460   35.8590   12.9180 N   0  0  0  0  0  0  0  0  0  0  0  0
  1  2  1  0  0  0  0
  3  2  1  0  0  0  0
  3  4  1  0  0  0  0
  4  5  1  0  0  0  0
  5  6  1  0  0  0  0
M  END
>  <EGIN_R>
ES LYS A 135

>  <REMARK>
  4 active torsions:
  status: ('A' for Active; 'I' for Inactive)
    5  A    between atoms: CA   and  CB  
    6  A    between atoms: CB   and  CG  
    7  A    between atoms: CG   and  CD  
    8  A    between atoms: CD   and  CE  

$$$$
