ligand_13_pose_9_2HRL.pdbqt
 OpenBabel07062320523D

 49 49  0  0  1  0  0  0  0  0999 V2000
   27.8390   34.5970   18.6420 N   0  0  0  0  0  0  0  0  0  0  0  0
   28.4260   34.1930   19.8620 C   0  0  0  0  0  0  0  0  0  0  0  0
   27.7860   33.6210   20.7510 O   0  0  0  0  0  0  0  0  0  0  0  0
   28.5290   35.0740   17.9720 H   0  0  0  0  0  0  0  0  0  0  0  0
   26.4750   34.4300   18.2600 C   0  0  0  0  0  0  0  0  0  0  0  0
   26.1580   33.2990   17.3420 C   0  0  2  0  0  0  0  0  0  0  0  0
   26.9250   32.0540   17.6130 C   0  0  1  0  0  0  0  0  0  0  0  0
   26.1770   30.9570   18.3210 C   0  0  2  0  0  0  0  0  0  0  0  0
   27.6420   29.3950   19.2590 C   0  0  2  0  0  0  0  0  0  0  0  0
   26.6410   28.2600   19.2720 C   0  0  0  0  0  0  0  0  0  0  0  0
   26.9790   30.5750   19.3930 O   0  0  0  0  0  0  0  0  0  0  0  0
   25.5460   28.5540   18.3130 C   0  0  1  0  0  0  0  0  0  0  0  0
   25.8180   29.7910   17.4420 C   0  0  1  0  0  0  0  0  0  0  0  0
   28.4050   29.2430   18.1160 O   0  0  0  0  0  0  0  0  0  0  0  0
   28.4930   30.1280   17.6930 H   0  0  0  0  0  0  0  0  0  0  0  0
   28.5040   29.2060   20.4480 C   0  0  0  0  0  0  0  0  0  0  0  0
   28.4110   28.1400   21.0920 O   0  0  0  0  0  0  0  0  0  0  0  0
   29.3960   30.1670   20.8530 O   0  0  0  0  0  0  0  0  0  0  0  0
   30.3200   30.2630   20.4320 H   0  0  0  0  0  0  0  0  0  0  0  0
   25.2350   27.4860   17.4760 O   0  0  0  0  0  0  0  0  0  0  0  0
   25.7970   27.4310   16.6780 H   0  0  0  0  0  0  0  0  0  0  0  0
   24.5660   30.0090   16.7480 N   0  0  0  0  0  0  0  0  0  0  0  0
   24.4380   30.3940   15.4020 C   0  0  0  0  0  0  0  0  0  0  0  0
   23.6900   29.8660   17.2970 H   0  0  0  0  0  0  0  0  0  0  0  0
   23.1440   30.6110   14.7100 C   0  0  0  0  0  0  0  0  0  0  0  0
   25.5120   30.5640   14.7470 O   0  0  0  0  0  0  0  0  0  0  0  0
   27.5840   31.6140   16.4910 O   0  0  0  0  0  0  0  0  0  0  0  0
   27.2340   30.7670   16.1150 H   0  0  0  0  0  0  0  0  0  0  0  0
   26.5060   33.6940   16.0340 O   0  0  0  0  0  0  0  0  0  0  0  0
   27.1170   34.4880   16.0630 H   0  0  0  0  0  0  0  0  0  0  0  0
   29.7960   34.4310   20.1160 O   0  0  0  0  0  0  0  0  0  0  0  0
   30.7320   33.3700   20.1120 C   0  0  0  0  0  0  0  0  0  0  0  0
   30.7370   32.8070   18.7360 C   0  0  0  0  0  0  0  0  0  0  0  0
   31.1280   33.4210   17.5690 C   0  0  0  0  0  0  0  0  0  0  0  0
   30.3520   31.5570   18.3560 N   0  0  0  0  0  0  0  0  0  0  0  0
   30.9610   32.5240   16.5570 N   0  0  0  0  0  0  0  0  0  0  0  0
   30.4870   31.4020   17.0700 N   0  0  0  0  0  0  0  0  0  0  0  0
   31.2380   32.7170   15.1530 C   0  0  0  0  0  0  0  0  0  0  0  0
   30.2390   33.6030   14.5350 C   0  0  0  0  0  0  0  0  0  0  0  0
   29.0270   33.3070   14.6140 O   0  0  0  0  0  0  0  0  0  0  0  0
   30.6860   34.7500   13.8760 O   0  0  0  0  0  0  0  0  0  0  0  0
   32.1050   34.9240   13.8320 C   0  0  0  0  0  0  0  0  0  0  0  0
   32.3990   36.0780   12.9070 C   0  0  0  0  0  0  0  0  0  0  0  0
   29.8670   25.5550   16.9770 C   0  0  0  0  0  0  0  0  0  0  0  0
   28.3450   25.7220   17.0260 C   0  0  0  0  0  0  0  0  0  0  0  0
   27.6010   24.4020   16.8900 C   0  0  0  0  0  0  0  0  0  0  0  0
   26.6010   24.2000   17.9940 C   0  0  0  0  0  0  0  0  0  0  0  0
   25.2380   23.8740   17.3920 C   0  0  0  0  0  0  0  0  0  0  0  0
   24.9260   22.4340   17.5610 N   0  0  0  0  0  0  0  0  0  0  0  0
  1  2  1  0  0  0  0
  2 31  1  0  0  0  0
  2  3  2  0  0  0  0
  4  1  1  0  0  0  0
  5  1  1  0  0  0  0
  6  7  1  0  0  0  0
  6  5  1  1  0  0  0
  7 27  1  6  0  0  0
  8  7  1  6  0  0  0
  8 11  1  0  0  0  0
  9 14  1  6  0  0  0
  9 10  1  0  0  0  0
  9 11  1  0  0  0  0
  9 16  1  0  0  0  0
 12 20  1  6  0  0  0
 12 10  1  0  0  0  0
 13 22  1  1  0  0  0
 13 12  1  0  0  0  0
 13  8  1  0  0  0  0
 15 14  1  0  0  0  0
 16 18  1  0  0  0  0
 16 17  2  0  0  0  0
 19 18  1  0  0  0  0
 21 20  1  0  0  0  0
 22 24  1  0  0  0  0
 23 22  1  0  0  0  0
 25 23  1  0  0  0  0
 26 23  2  0  0  0  0
 28 27  1  0  0  0  0
 29 30  1  0  0  0  0
 29  6  1  0  0  0  0
 32 31  1  0  0  0  0
 33 32  1  0  0  0  0
 34 33  2  0  0  0  0
 35 33  1  0  0  0  0
 36 37  1  0  0  0  0
 36 34  1  0  0  0  0
 37 35  2  0  0  0  0
 38 36  1  0  0  0  0
 39 40  2  0  0  0  0
 39 38  1  0  0  0  0
 41 39  1  0  0  0  0
 42 41  1  0  0  0  0
 43 42  1  0  0  0  0
 44 45  1  0  0  0  0
 46 45  1  0  0  0  0
 46 47  1  0  0  0  0
 48 49  1  0  0  0  0
 48 47  1  0  0  0  0
M  END
>  <REMARK>
 VINA RESULT:    -4.131      3.104      6.933
 INTER + INTRA:         -13.824
 INTER:                  -6.097
 INTRA:                  -7.727
 UNBOUND:                -5.949
 SMILES CCOC(=O)Cn1cc(COC(=O)NC[C@@H](O)C(O)[C@@H]2O[C@@](O)(C(=O)O)C[C@H](O)[C@H]2NC(C)=O)nn1
 SMILES IDX 14 1 12 2 13 3 15 5 16 6 18 7 20 8 22 9 27 10 21 11 28 12
 SMILES IDX 30 13 23 14 24 16 25 17 26 18 29 20 31 22 32 23 33 25 34 26
 SMILES IDX 19 27 17 29 11 31 10 32 9 33 8 34 35 35 7 36 36 37 6 38 4 39
 SMILES IDX 5 40 3 41 2 42 1 43
 H PARENT 14 4 23 15 26 19 29 21 31 24 19 28 17 30
 Flexibility Score: inf
  4 active torsions:
  status: ('A' for Active; 'I' for Inactive)
    1  A    between atoms: CA   and  CB  
    2  A    between atoms: CB   and  CG  
    3  A    between atoms: CG   and  CD  
    4  A    between atoms: CD   and  CE  

>  <TORSDO>
F 18

>  <BEGIN_>
RES LYS A 131

$$$$
ligand_13_pose_9_2HRL.pdbqt
 OpenBabel07062320523D

  6  5  0  0  0  0  0  0  0  0999 V2000
   33.1930   34.6630    9.2900 C   0  0  0  0  0  0  0  0  0  0  0  0
   32.0600   35.3600   10.0340 C   0  0  0  0  0  0  0  0  0  0  0  0
   30.7130   34.7190    9.8180 C   0  0  0  0  0  0  0  0  0  0  0  0
   30.4100   34.5940    8.3330 C   0  0  0  0  0  0  0  0  0  0  0  0
   28.9200   34.7180    8.0820 C   0  0  0  0  0  0  0  0  0  0  0  0
   28.1380   34.0060    9.1310 N   0  0  0  0  0  0  0  0  0  0  0  0
  1  2  1  0  0  0  0
  3  2  1  0  0  0  0
  4  3  1  0  0  0  0
  5  4  1  0  0  0  0
  5  6  1  0  0  0  0
M  END
>  <EGIN_R>
ES LYS A 135

>  <REMARK>
  4 active torsions:
  status: ('A' for Active; 'I' for Inactive)
    5  A    between atoms: CA   and  CB  
    6  A    between atoms: CB   and  CG  
    7  A    between atoms: CG   and  CD  
    8  A    between atoms: CD   and  CE  

$$$$
