ligand_84_pose_14_2HRL.pdbqt
 OpenBabel07062320523D

 60 62  0  0  1  0  0  0  0  0999 V2000
   20.7980   32.6840   12.1450 O   0  0  0  0  0  0  0  0  0  0  0  0
   21.2350   31.5420   12.7980 C   0  0  0  0  0  0  0  0  0  0  0  0
   22.4010   30.8120   12.4360 N   0  0  0  0  0  0  0  0  0  0  0  0
   22.9370   31.1700   11.6230 H   0  0  0  0  0  0  0  0  0  0  0  0
   20.5300   31.1600   13.7720 O   0  0  0  0  0  0  0  0  0  0  0  0
   22.7190   29.6650   13.2220 C   0  0  0  0  0  0  0  0  0  0  0  0
   23.8060   29.8160   14.2090 C   0  0  2  0  0  0  0  0  0  0  0  0
   23.4210   30.4960   15.5110 C   0  0  1  0  0  0  0  0  0  0  0  0
   24.2810   29.7960   16.5650 C   0  0  2  0  0  0  0  0  0  0  0  0
   26.5430   29.4020   16.9810 C   0  0  2  0  0  0  0  0  0  0  0  0
   26.2140   28.0120   17.4460 C   0  0  0  0  0  0  0  0  0  0  0  0
   25.5830   29.9700   16.1870 O   0  0  0  0  0  0  0  0  0  0  0  0
   24.7860   27.7900   17.7920 C   0  0  1  0  0  0  0  0  0  0  0  0
   23.9420   28.3430   16.6240 C   0  0  1  0  0  0  0  0  0  0  0  0
   27.6940   29.2470   16.1650 O   0  0  0  0  0  0  0  0  0  0  0  0
   28.3070   29.9970   16.2730 H   0  0  0  0  0  0  0  0  0  0  0  0
   26.9540   30.3060   18.0960 C   0  0  0  0  0  0  0  0  0  0  0  0
   27.4150   29.8250   19.1620 O   0  0  0  0  0  0  0  0  0  0  0  0
   26.8570   31.6870   18.0220 O   0  0  0  0  0  0  0  0  0  0  0  0
   26.0400   32.2200   18.2990 H   0  0  0  0  0  0  0  0  0  0  0  0
   24.5550   26.4170   17.8810 O   0  0  0  0  0  0  0  0  0  0  0  0
   23.7590   26.1600   17.3460 H   0  0  0  0  0  0  0  0  0  0  0  0
   22.5450   28.0950   16.8680 N   0  0  0  0  0  0  0  0  0  0  0  0
   21.8650   27.0350   16.2280 C   0  0  0  0  0  0  0  0  0  0  0  0
   22.0320   28.7070   17.5240 H   0  0  0  0  0  0  0  0  0  0  0  0
   20.4170   26.8680   16.5520 C   0  0  0  0  0  0  0  0  0  0  0  0
   22.4150   26.2520   15.4260 O   0  0  0  0  0  0  0  0  0  0  0  0
   23.7540   31.8570   15.4210 O   0  0  0  0  0  0  0  0  0  0  0  0
   22.9180   32.3560   15.6080 H   0  0  0  0  0  0  0  0  0  0  0  0
   24.7520   30.7110   13.6340 O   0  0  0  0  0  0  0  0  0  0  0  0
   25.0850   30.2220   12.8280 H   0  0  0  0  0  0  0  0  0  0  0  0
   21.2590   33.9670   12.5380 C   0  0  0  0  0  0  0  0  0  0  0  0
   22.7240   34.0690   12.3530 C   0  0  0  0  0  0  0  0  0  0  0  0
   23.3320   34.8440   11.3620 C   0  0  0  0  0  0  0  0  0  0  0  0
   23.7510   33.5210   13.0160 N   0  0  0  0  0  0  0  0  0  0  0  0
   24.6660   34.7490   11.4490 N   0  0  0  0  0  0  0  0  0  0  0  0
   24.8960   33.9160   12.4880 N   0  0  0  0  0  0  0  0  0  0  0  0
   25.6950   35.3920   10.6520 C   0  0  0  0  0  0  0  0  0  0  0  0
   27.0030   34.6010   10.7840 C   0  0  1  0  0  0  0  0  0  0  0  0
   27.3650   33.9110    9.5230 C   0  0  0  0  0  0  0  0  0  0  0  0
   28.0300   35.3580   11.5160 C   0  0  0  0  0  0  0  0  0  0  0  0
   28.4640   34.7250   12.7230 N   0  0  0  0  0  0  0  0  0  0  0  0
   29.9490   34.7690   12.8070 C   0  0  0  0  0  0  0  0  0  0  0  0
   28.0390   35.5150   13.8740 C   0  0  0  0  0  0  0  0  0  0  0  0
   30.4350   34.2670   14.1210 C   0  0  0  0  0  0  0  0  0  0  0  0
   28.1050   34.5300   15.0520 C   0  0  0  0  0  0  0  0  0  0  0  0
   29.4370   33.9990   15.1090 N   0  0  0  0  0  0  0  0  0  0  0  0
   29.7670   33.1710   16.2170 C   0  0  0  0  0  0  0  0  0  0  0  0
   29.7610   33.7050   17.4860 C   0  0  0  0  0  0  0  0  0  0  0  0
   30.1040   31.8370   16.0350 C   0  0  0  0  0  0  0  0  0  0  0  0
   30.0900   32.9010   18.5530 C   0  0  0  0  0  0  0  0  0  0  0  0
   30.4310   31.0460   17.1060 C   0  0  0  0  0  0  0  0  0  0  0  0
   30.4210   31.5910   18.3800 C   0  0  0  0  0  0  0  0  0  0  0  0
   30.8470   30.5720   19.7290 Cl  0  0  0  0  0  0  0  0  0  0  0  0
   29.8670   25.5550   16.9770 C   0  0  0  0  0  0  0  0  0  0  0  0
   28.3450   25.7220   17.0260 C   0  0  0  0  0  0  0  0  0  0  0  0
   27.5990   24.4540   16.6410 C   0  0  0  0  0  0  0  0  0  0  0  0
   27.1770   23.6570   17.8450 C   0  0  0  0  0  0  0  0  0  0  0  0
   25.8180   23.0180   17.5810 C   0  0  0  0  0  0  0  0  0  0  0  0
   24.9410   23.1570   18.7680 N   0  0  0  0  0  0  0  0  0  0  0  0
  1 32  1  0  0  0  0
  1  2  1  0  0  0  0
  2  5  2  0  0  0  0
  3  2  1  0  0  0  0
  3  6  1  0  0  0  0
  4  3  1  0  0  0  0
  7  6  1  6  0  0  0
  7  8  1  0  0  0  0
  8 28  1  6  0  0  0
  9  8  1  6  0  0  0
  9 14  1  0  0  0  0
 10 15  1  6  0  0  0
 10 11  1  0  0  0  0
 10 17  1  0  0  0  0
 11 13  1  0  0  0  0
 12  9  1  0  0  0  0
 12 10  1  0  0  0  0
 13 21  1  6  0  0  0
 14 23  1  1  0  0  0
 14 13  1  0  0  0  0
 15 16  1  0  0  0  0
 17 18  2  0  0  0  0
 19 17  1  0  0  0  0
 19 20  1  0  0  0  0
 22 21  1  0  0  0  0
 23 25  1  0  0  0  0
 24 26  1  0  0  0  0
 24 23  1  0  0  0  0
 27 24  2  0  0  0  0
 28 29  1  0  0  0  0
 30  7  1  0  0  0  0
 31 30  1  0  0  0  0
 33 32  1  0  0  0  0
 33 35  1  0  0  0  0
 34 36  1  0  0  0  0
 34 33  2  0  0  0  0
 36 37  1  0  0  0  0
 37 35  2  0  0  0  0
 38 39  1  0  0  0  0
 38 36  1  0  0  0  0
 39 40  1  6  0  0  0
 39 41  1  0  0  0  0
 41 42  1  0  0  0  0
 42 43  1  0  0  0  0
 42 44  1  0  0  0  0
 43 45  1  0  0  0  0
 44 46  1  0  0  0  0
 45 47  1  0  0  0  0
 46 47  1  0  0  0  0
 47 48  1  0  0  0  0
 48 49  1  0  0  0  0
 49 51  2  0  0  0  0
 50 48  2  0  0  0  0
 50 52  1  0  0  0  0
 52 53  2  0  0  0  0
 53 51  1  0  0  0  0
 53 54  1  0  0  0  0
 55 56  1  0  0  0  0
 57 56  1  0  0  0  0
 57 58  1  0  0  0  0
 59 58  1  0  0  0  0
 59 60  1  0  0  0  0
M  END
>  <REMARK>
 VINA RESULT:    -4.996      4.633      9.262
 INTER + INTRA:         -15.935
 INTER:                  -9.530
 INTRA:                  -6.405
 UNBOUND:                -6.121
 SMILES CC(=O)N[C@@H]1[C@@H](O)C[C@](O)(C(=O)O)O[C@H]1C(O)[C@H](O)CNC(=O)OCc1cn(C[C@@H](C)CN2CCN(c3ccc(Cl)cc3)CC2)nn1
 SMILES IDX 24 1 22 2 21 3 23 5 20 6 18 7 16 8 15 9 9 10 8 11 14 12 6 13
 SMILES IDX 5 14 10 15 11 17 12 18 13 19 7 21 4 23 2 24 1 26 3 27 17 28
 SMILES IDX 19 30 25 32 26 33 27 34 47 35 28 36 46 37 29 38 30 39 31 40
 SMILES IDX 32 41 33 42 34 43 45 44 35 45 44 46 36 47 37 48 38 49 43 50
 SMILES IDX 39 51 42 52 40 53 41 54
 H PARENT 21 4 10 16 13 20 7 22 4 25 17 29 19 31
 Flexibility Score: inf
  4 active torsions:
  status: ('A' for Active; 'I' for Inactive)
    1  A    between atoms: CA   and  CB  
    2  A    between atoms: CB   and  CG  
    3  A    between atoms: CG   and  CD  
    4  A    between atoms: CD   and  CE  

>  <TORSDO>
F 19

>  <BEGIN_>
RES LYS A 131

$$$$
ligand_84_pose_14_2HRL.pdbqt
 OpenBabel07062320523D

  6  5  0  0  0  0  0  0  0  0999 V2000
   33.1930   34.6630    9.2900 C   0  0  0  0  0  0  0  0  0  0  0  0
   32.0600   35.3600   10.0340 C   0  0  0  0  0  0  0  0  0  0  0  0
   30.7610   35.3800    9.2710 C   0  0  0  0  0  0  0  0  0  0  0  0
   30.3180   36.8110    9.0030 C   0  0  0  0  0  0  0  0  0  0  0  0
   29.2030   36.8390    7.9750 C   0  0  0  0  0  0  0  0  0  0  0  0
   27.9930   37.5180    8.5160 N   0  0  0  0  0  0  0  0  0  0  0  0
  1  2  1  0  0  0  0
  3  2  1  0  0  0  0
  4  3  1  0  0  0  0
  5  6  1  0  0  0  0
  5  4  1  0  0  0  0
M  END
>  <EGIN_R>
ES LYS A 135

>  <REMARK>
  4 active torsions:
  status: ('A' for Active; 'I' for Inactive)
    5  A    between atoms: CA   and  CB  
    6  A    between atoms: CB   and  CG  
    7  A    between atoms: CG   and  CD  
    8  A    between atoms: CD   and  CE  

$$$$
