ligand_50_pose_5_2HRL.pdbqt
 OpenBabel07062320523D

 50 50  0  0  1  0  0  0  0  0999 V2000
   31.5420   32.9690   14.6850 N   0  0  0  0  0  0  0  0  0  0  0  0
   32.1320   34.2070   15.0440 C   0  0  0  0  0  0  0  0  0  0  0  0
   32.3220   34.5100   16.2350 O   0  0  0  0  0  0  0  0  0  0  0  0
   31.4200   32.8040   13.6410 H   0  0  0  0  0  0  0  0  0  0  0  0
   31.1420   32.0190   15.6660 C   0  0  0  0  0  0  0  0  0  0  0  0
   29.7070   32.1770   16.1160 C   0  0  2  0  0  0  0  0  0  0  0  0
   29.2110   30.7800   16.4680 C   0  0  1  0  0  0  0  0  0  0  0  0
   28.0840   30.8660   17.5030 C   0  0  2  0  0  0  0  0  0  0  0  0
   27.6870   28.9090   18.6910 C   0  0  2  0  0  0  0  0  0  0  0  0
   26.2740   29.3510   19.0210 C   0  0  0  0  0  0  0  0  0  0  0  0
   28.4340   30.0520   18.5430 O   0  0  0  0  0  0  0  0  0  0  0  0
   25.7290   30.0400   17.8180 C   0  0  1  0  0  0  0  0  0  0  0  0
   26.7700   30.5550   16.8590 C   0  0  1  0  0  0  0  0  0  0  0  0
   27.6050   28.1400   17.5320 O   0  0  0  0  0  0  0  0  0  0  0  0
   27.0940   28.5830   16.8180 H   0  0  0  0  0  0  0  0  0  0  0  0
   28.2700   28.0980   19.7900 C   0  0  0  0  0  0  0  0  0  0  0  0
   28.8330   28.6930   20.7430 O   0  0  0  0  0  0  0  0  0  0  0  0
   28.1890   26.7260   19.7500 O   0  0  0  0  0  0  0  0  0  0  0  0
   28.6270   26.1600   20.4710 H   0  0  0  0  0  0  0  0  0  0  0  0
   24.9410   29.1180   17.1180 O   0  0  0  0  0  0  0  0  0  0  0  0
   24.4500   29.5790   16.4130 H   0  0  0  0  0  0  0  0  0  0  0  0
   26.2100   31.7420   16.2480 N   0  0  0  0  0  0  0  0  0  0  0  0
   25.4780   31.6210   15.0380 C   0  0  0  0  0  0  0  0  0  0  0  0
   26.3200   32.6960   16.6610 H   0  0  0  0  0  0  0  0  0  0  0  0
   24.8750   32.8210   14.3590 C   0  0  0  0  0  0  0  0  0  0  0  0
   25.2880   30.5210   14.4600 O   0  0  0  0  0  0  0  0  0  0  0  0
   28.8270   30.1300   15.3200 O   0  0  0  0  0  0  0  0  0  0  0  0
   28.8740   29.1390   15.4250 H   0  0  0  0  0  0  0  0  0  0  0  0
   28.9350   32.7390   15.0990 O   0  0  0  0  0  0  0  0  0  0  0  0
   28.1780   33.1870   15.5230 H   0  0  0  0  0  0  0  0  0  0  0  0
   32.5230   35.1320   14.0640 O   0  0  0  0  0  0  0  0  0  0  0  0
   31.7660   35.2130   12.8910 C   0  0  0  0  0  0  0  0  0  0  0  0
   30.3160   35.3670   13.1740 C   0  0  0  0  0  0  0  0  0  0  0  0
   29.7150   36.3920   13.8450 C   0  0  0  0  0  0  0  0  0  0  0  0
   29.3450   34.5220   12.8190 N   0  0  0  0  0  0  0  0  0  0  0  0
   28.3830   36.1200   13.8670 N   0  0  0  0  0  0  0  0  0  0  0  0
   28.1720   34.9730   13.2360 N   0  0  0  0  0  0  0  0  0  0  0  0
   27.3710   36.9700   14.4910 C   0  0  0  0  0  0  0  0  0  0  0  0
   27.6530   36.9360   15.9800 C   0  0  1  0  0  0  0  0  0  0  0  0
   27.4120   38.1930   16.5220 O   0  0  0  0  0  0  0  0  0  0  0  0
   26.5150   38.1740   16.9520 H   0  0  0  0  0  0  0  0  0  0  0  0
   26.7540   35.9000   16.6620 C   0  0  0  0  0  0  0  0  0  0  0  0
   27.1840   34.6180   16.3150 O   0  0  0  0  0  0  0  0  0  0  0  0
   28.1730   34.5500   16.4690 H   0  0  0  0  0  0  0  0  0  0  0  0
   29.8670   25.5550   16.9770 C   0  0  0  0  0  0  0  0  0  0  0  0
   28.3450   25.7220   17.0260 C   0  0  0  0  0  0  0  0  0  0  0  0
   27.6010   24.4020   16.8910 C   0  0  0  0  0  0  0  0  0  0  0  0
   26.5330   24.2440   17.9360 C   0  0  0  0  0  0  0  0  0  0  0  0
   25.1600   24.3030   17.2740 C   0  0  0  0  0  0  0  0  0  0  0  0
   24.5410   22.9560   17.2420 N   0  0  0  0  0  0  0  0  0  0  0  0
  1  2  1  0  0  0  0
  1  5  1  0  0  0  0
  2  3  2  0  0  0  0
  4  1  1  0  0  0  0
  6  5  1  6  0  0  0
  6  7  1  0  0  0  0
  7 27  1  6  0  0  0
  8  7  1  6  0  0  0
  8 11  1  0  0  0  0
  9 14  1  6  0  0  0
  9 10  1  0  0  0  0
  9 16  1  0  0  0  0
 11  9  1  0  0  0  0
 12 20  1  6  0  0  0
 12 10  1  0  0  0  0
 13 22  1  1  0  0  0
 13  8  1  0  0  0  0
 13 12  1  0  0  0  0
 15 14  1  0  0  0  0
 16 17  2  0  0  0  0
 18 16  1  0  0  0  0
 18 19  1  0  0  0  0
 21 20  1  0  0  0  0
 22 24  1  0  0  0  0
 23 22  1  0  0  0  0
 25 23  1  0  0  0  0
 26 23  2  0  0  0  0
 27 28  1  0  0  0  0
 29 30  1  0  0  0  0
 29  6  1  0  0  0  0
 31  2  1  0  0  0  0
 32 33  1  0  0  0  0
 32 31  1  0  0  0  0
 33 34  2  0  0  0  0
 34 36  1  0  0  0  0
 35 33  1  0  0  0  0
 35 37  2  0  0  0  0
 36 38  1  0  0  0  0
 37 36  1  0  0  0  0
 39 38  1  6  0  0  0
 39 40  1  0  0  0  0
 39 42  1  0  0  0  0
 40 41  1  0  0  0  0
 43 44  1  0  0  0  0
 43 42  1  0  0  0  0
 45 46  1  0  0  0  0
 47 46  1  0  0  0  0
 47 48  1  0  0  0  0
 49 48  1  0  0  0  0
 50 49  1  0  0  0  0
M  END
>  <REMARK>
 VINA RESULT:    -4.738      3.153      6.509
 INTER + INTRA:         -14.508
 INTER:                  -7.855
 INTRA:                  -6.653
 UNBOUND:                -5.477
 SMILES CC(=O)N[C@@H]1[C@@H](O)C[C@](O)(C(=O)O)O[C@H]1C(O)[C@H](O)CNC(=O)OCc1cn(CC(O)CO)nn1
 SMILES IDX 21 1 22 2 23 3 20 5 18 6 16 7 15 8 9 9 8 10 14 11 6 12 5 13
 SMILES IDX 10 14 11 16 12 17 13 18 7 20 4 22 2 23 1 25 3 26 17 27 19 29
 SMILES IDX 24 31 25 32 26 33 27 34 35 35 28 36 34 37 29 38 30 39 31 40
 SMILES IDX 32 42 33 43
 H PARENT 21 4 10 15 13 19 7 21 4 24 17 28 19 30 31 41 33 44
 Flexibility Score: inf
  4 active torsions:
  status: ('A' for Active; 'I' for Inactive)
    1  A    between atoms: CA   and  CB  
    2  A    between atoms: CB   and  CG  
    3  A    between atoms: CG   and  CD  
    4  A    between atoms: CD   and  CE  

>  <TORSDO>
F 19

>  <BEGIN_>
RES LYS A 131

$$$$
ligand_50_pose_5_2HRL.pdbqt
 OpenBabel07062320523D

  6  5  0  0  0  0  0  0  0  0999 V2000
   33.1930   34.6630    9.2900 C   0  0  0  0  0  0  0  0  0  0  0  0
   32.0600   35.3600   10.0340 C   0  0  0  0  0  0  0  0  0  0  0  0
   30.7950   35.4860    9.2240 C   0  0  0  0  0  0  0  0  0  0  0  0
   30.1270   34.1300    9.0590 C   0  0  0  0  0  0  0  0  0  0  0  0
   28.6690   34.2970    8.6740 C   0  0  0  0  0  0  0  0  0  0  0  0
   27.7710   33.7190    9.7120 N   0  0  0  0  0  0  0  0  0  0  0  0
  1  2  1  0  0  0  0
  3  2  1  0  0  0  0
  4  3  1  0  0  0  0
  5  4  1  0  0  0  0
  5  6  1  0  0  0  0
M  END
>  <EGIN_R>
ES LYS A 135

>  <REMARK>
  4 active torsions:
  status: ('A' for Active; 'I' for Inactive)
    5  A    between atoms: CA   and  CB  
    6  A    between atoms: CB   and  CG  
    7  A    between atoms: CG   and  CD  
    8  A    between atoms: CD   and  CE  

$$$$
