ligand_46_pose_11_2HRL.pdbqt
 OpenBabel07062320523D

 50 51  0  0  1  0  0  0  0  0999 V2000
   25.9630   40.6110    9.4600 N   0  0  0  0  0  0  0  0  0  0  0  0
   25.2050   40.4180    8.2870 C   0  0  0  0  0  0  0  0  0  0  0  0
   25.5580   40.8690    7.1860 O   0  0  0  0  0  0  0  0  0  0  0  0
   25.5650   40.1770   10.3330 H   0  0  0  0  0  0  0  0  0  0  0  0
   27.1920   41.3430    9.4870 C   0  0  0  0  0  0  0  0  0  0  0  0
   28.2430   40.5490   10.2290 C   0  0  2  0  0  0  0  0  0  0  0  0
   28.9490   39.5840    9.3190 C   0  0  2  0  0  0  0  0  0  0  0  0
   29.0900   40.0860    7.9010 C   0  0  2  0  0  0  0  0  0  0  0  0
   28.9310   39.0410    5.8170 C   0  0  2  0  0  0  0  0  0  0  0  0
   29.5740   40.3250    5.2680 C   0  0  0  0  0  0  0  0  0  0  0  0
   28.3510   39.3770    7.0030 O   0  0  0  0  0  0  0  0  0  0  0  0
   30.8330   40.4840    6.1160 C   0  0  1  0  0  0  0  0  0  0  0  0
   30.5270   40.3090    7.5860 C   0  0  1  0  0  0  0  0  0  0  0  0
   29.8580   38.0210    5.8690 O   0  0  0  0  0  0  0  0  0  0  0  0
   30.4380   38.0850    5.0810 H   0  0  0  0  0  0  0  0  0  0  0  0
   27.8180   38.6920    4.8630 C   0  0  0  0  0  0  0  0  0  0  0  0
   27.3770   39.5210    4.0400 O   0  0  0  0  0  0  0  0  0  0  0  0
   27.2570   37.4300    4.8860 O   0  0  0  0  0  0  0  0  0  0  0  0
   27.2150   36.9050    4.0270 H   0  0  0  0  0  0  0  0  0  0  0  0
   31.7240   39.5130    5.6560 O   0  0  0  0  0  0  0  0  0  0  0  0
   31.2610   38.9300    5.0150 H   0  0  0  0  0  0  0  0  0  0  0  0
   30.9350   41.5240    8.3170 N   0  0  0  0  0  0  0  0  0  0  0  0
   32.1490   41.6060    9.0410 C   0  0  0  0  0  0  0  0  0  0  0  0
   30.2990   42.3720    8.3050 H   0  0  0  0  0  0  0  0  0  0  0  0
   32.6020   42.8040    9.7900 C   0  0  0  0  0  0  0  0  0  0  0  0
   32.8990   40.5980    9.0510 O   0  0  0  0  0  0  0  0  0  0  0  0
   28.3280   38.3530    9.3910 O   0  0  0  0  0  0  0  0  0  0  0  0
   28.6670   37.8790   10.1880 H   0  0  0  0  0  0  0  0  0  0  0  0
   27.5680   39.9050   11.2660 O   0  0  0  0  0  0  0  0  0  0  0  0
   27.3620   38.9650   11.0640 H   0  0  0  0  0  0  0  0  0  0  0  0
   24.0120   39.6980    8.3270 O   0  0  0  0  0  0  0  0  0  0  0  0
   23.7170   38.9040    9.4510 C   0  0  0  0  0  0  0  0  0  0  0  0
   24.6660   37.7730    9.5880 C   0  0  0  0  0  0  0  0  0  0  0  0
   24.7050   36.6520    8.8030 C   0  0  0  0  0  0  0  0  0  0  0  0
   25.6370   37.6560   10.4990 N   0  0  0  0  0  0  0  0  0  0  0  0
   25.7040   35.8800    9.2600 N   0  0  0  0  0  0  0  0  0  0  0  0
   26.2550   36.5190   10.2980 N   0  0  0  0  0  0  0  0  0  0  0  0
   26.1510   34.5980    8.7750 C   0  0  0  0  0  0  0  0  0  0  0  0
   27.6290   34.5720    8.6100 C   0  0  0  0  0  0  0  0  0  0  0  0
   28.4450   33.9200    9.5260 C   0  0  0  0  0  0  0  0  0  0  0  0
   28.2540   35.1870    7.5540 C   0  0  0  0  0  0  0  0  0  0  0  0
   29.8090   33.9000    9.3690 C   0  0  0  0  0  0  0  0  0  0  0  0
   29.6270   35.1720    7.3860 C   0  0  0  0  0  0  0  0  0  0  0  0
   30.4220   34.5210    8.3010 C   0  0  0  0  0  0  0  0  0  0  0  0
   29.8670   25.5550   16.9770 C   0  0  0  0  0  0  0  0  0  0  0  0
   28.3450   25.7220   17.0260 C   0  0  0  0  0  0  0  0  0  0  0  0
   27.6010   24.4020   16.8930 C   0  0  0  0  0  0  0  0  0  0  0  0
   26.1770   24.5040   17.3640 C   0  0  0  0  0  0  0  0  0  0  0  0
   25.6170   23.1050   17.6000 C   0  0  0  0  0  0  0  0  0  0  0  0
   25.1780   22.9530   19.0070 N   0  0  0  0  0  0  0  0  0  0  0  0
  1  5  1  0  0  0  0
  1  4  1  0  0  0  0
  2 31  1  0  0  0  0
  2  1  1  0  0  0  0
  3  2  2  0  0  0  0
  6  5  1  6  0  0  0
  6 29  1  0  0  0  0
  7 27  1  6  0  0  0
  7  6  1  0  0  0  0
  8  7  1  1  0  0  0
  9 16  1  6  0  0  0
  9 14  1  0  0  0  0
  9 11  1  0  0  0  0
 10  9  1  0  0  0  0
 10 12  1  0  0  0  0
 11  8  1  0  0  0  0
 12 20  1  6  0  0  0
 12 13  1  0  0  0  0
 13  8  1  0  0  0  0
 13 22  1  1  0  0  0
 15 14  1  0  0  0  0
 16 18  1  0  0  0  0
 17 16  2  0  0  0  0
 19 18  1  0  0  0  0
 21 20  1  0  0  0  0
 22 23  1  0  0  0  0
 23 26  2  0  0  0  0
 23 25  1  0  0  0  0
 24 22  1  0  0  0  0
 27 28  1  0  0  0  0
 30 29  1  0  0  0  0
 31 32  1  0  0  0  0
 32 33  1  0  0  0  0
 33 35  1  0  0  0  0
 34 36  1  0  0  0  0
 34 33  2  0  0  0  0
 36 37  1  0  0  0  0
 37 35  2  0  0  0  0
 38 36  1  0  0  0  0
 39 38  1  0  0  0  0
 39 40  2  0  0  0  0
 41 39  1  0  0  0  0
 42 40  1  0  0  0  0
 43 41  2  0  0  0  0
 43 44  1  0  0  0  0
 44 42  2  0  0  0  0
 45 46  1  0  0  0  0
 47 46  1  0  0  0  0
 47 48  1  0  0  0  0
 48 49  1  0  0  0  0
 49 50  1  0  0  0  0
M  END
>  <REMARK>
 VINA RESULT:    -5.323      2.767      5.946
 INTER + INTRA:         -14.814
 INTER:                 -10.013
 INTRA:                  -4.801
 UNBOUND:                -5.290
 SMILES CC(=O)N[C@@H]1[C@@H](O)C[C@](O)(C(=O)O)O[C@H]1C(O)[C@H](O)CNC(=O)OCc1cn(Cc2ccccc2)nn1
 SMILES IDX 21 1 22 2 23 3 20 5 18 6 16 7 15 8 9 9 8 10 14 11 6 12 5 13
 SMILES IDX 10 14 11 16 12 17 13 18 7 20 4 22 2 23 1 25 3 26 17 27 19 29
 SMILES IDX 24 31 25 32 26 33 27 34 37 35 28 36 36 37 29 38 30 39 31 40
 SMILES IDX 35 41 32 42 34 43 33 44
 H PARENT 21 4 10 15 13 19 7 21 4 24 17 28 19 30
 Flexibility Score: inf
  4 active torsions:
  status: ('A' for Active; 'I' for Inactive)
    1  A    between atoms: CA   and  CB  
    2  A    between atoms: CB   and  CG  
    3  A    between atoms: CG   and  CD  
    4  A    between atoms: CD   and  CE  

>  <TORSDO>
F 16

>  <BEGIN_>
RES LYS A 131

$$$$
ligand_46_pose_11_2HRL.pdbqt
 OpenBabel07062320523D

  6  5  0  0  0  0  0  0  0  0999 V2000
   33.1930   34.6630    9.2900 C   0  0  0  0  0  0  0  0  0  0  0  0
   32.0600   35.3600   10.0340 C   0  0  0  0  0  0  0  0  0  0  0  0
   32.4800   35.9510   11.3550 C   0  0  0  0  0  0  0  0  0  0  0  0
   31.2640   36.2980   12.1990 C   0  0  0  0  0  0  0  0  0  0  0  0
   31.3550   37.7260   12.7020 C   0  0  0  0  0  0  0  0  0  0  0  0
   31.5530   38.6800   11.5760 N   0  0  0  0  0  0  0  0  0  0  0  0
  1  2  1  0  0  0  0
  2  3  1  0  0  0  0
  3  4  1  0  0  0  0
  4  5  1  0  0  0  0
  6  5  1  0  0  0  0
M  END
>  <EGIN_R>
ES LYS A 135

>  <REMARK>
  4 active torsions:
  status: ('A' for Active; 'I' for Inactive)
    5  A    between atoms: CA   and  CB  
    6  A    between atoms: CB   and  CG  
    7  A    between atoms: CG   and  CD  
    8  A    between atoms: CD   and  CE  

$$$$
