ligand_2_pose_13_2HRL.pdbqt
 OpenBabel07062320523D

 50 51  0  0  1  0  0  0  0  0999 V2000
   29.7500   31.3170   18.2990 C   0  0  0  0  0  0  0  0  0  0  0  0
   29.9800   30.7930   19.6810 C   0  0  2  0  0  0  0  0  0  0  0  0
   28.8120   29.8560   20.0300 C   0  0  2  0  0  0  0  0  0  0  0  0
   29.0190   29.2090   21.3970 C   0  0  2  0  0  0  0  0  0  0  0  0
   30.9620   27.8950   21.5040 C   0  0  2  0  0  0  0  0  0  0  0  0
   30.3880   26.8460   22.4310 C   0  0  0  0  0  0  0  0  0  0  0  0
   30.3840   29.1150   21.5770 O   0  0  0  0  0  0  0  0  0  0  0  0
   28.9670   27.1760   22.7150 C   0  0  1  0  0  0  0  0  0  0  0  0
   28.3840   27.8840   21.5080 C   0  0  1  0  0  0  0  0  0  0  0  0
   30.9660   27.3290   20.2310 O   0  0  0  0  0  0  0  0  0  0  0  0
   30.2150   26.6830   20.2140 H   0  0  0  0  0  0  0  0  0  0  0  0
   32.3820   28.0530   21.9090 C   0  0  0  0  0  0  0  0  0  0  0  0
   32.9160   29.1760   21.7570 O   0  0  0  0  0  0  0  0  0  0  0  0
   33.1080   27.0200   22.4340 O   0  0  0  0  0  0  0  0  0  0  0  0
   33.8990   26.6390   21.9080 H   0  0  0  0  0  0  0  0  0  0  0  0
   28.2060   26.0760   23.0940 O   0  0  0  0  0  0  0  0  0  0  0  0
   28.6750   25.5440   23.7690 H   0  0  0  0  0  0  0  0  0  0  0  0
   26.9670   27.8330   21.6240 N   0  0  0  0  0  0  0  0  0  0  0  0
   26.1240   27.2820   20.6300 C   0  0  0  0  0  0  0  0  0  0  0  0
   26.5670   28.2380   22.5110 H   0  0  0  0  0  0  0  0  0  0  0  0
   24.6550   27.2450   20.7850 C   0  0  0  0  0  0  0  0  0  0  0  0
   26.7290   26.8320   19.6180 O   0  0  0  0  0  0  0  0  0  0  0  0
   28.6930   28.8660   19.0490 O   0  0  0  0  0  0  0  0  0  0  0  0
   28.1510   29.1830   18.2730 H   0  0  0  0  0  0  0  0  0  0  0  0
   30.1190   31.7850   20.6240 O   0  0  0  0  0  0  0  0  0  0  0  0
   29.5990   32.5960   20.4870 H   0  0  0  0  0  0  0  0  0  0  0  0
   30.5130   32.4580   17.9180 N   0  0  0  0  0  0  0  0  0  0  0  0
   31.1460   32.6330   16.6620 C   0  0  0  0  0  0  0  0  0  0  0  0
   30.6300   33.2490   18.6110 H   0  0  0  0  0  0  0  0  0  0  0  0
   31.0710   31.7750   15.7670 O   0  0  0  0  0  0  0  0  0  0  0  0
   31.8850   33.8030   16.4010 O   0  0  0  0  0  0  0  0  0  0  0  0
   32.2460   34.1520   15.0680 C   0  0  0  0  0  0  0  0  0  0  0  0
   31.1470   34.9920   14.5330 C   0  0  0  0  0  0  0  0  0  0  0  0
   30.3170   34.6670   13.5010 C   0  0  0  0  0  0  0  0  0  0  0  0
   30.7870   36.1920   14.9630 N   0  0  0  0  0  0  0  0  0  0  0  0
   29.4660   35.7010   13.3360 N   0  0  0  0  0  0  0  0  0  0  0  0
   29.7650   36.6220   14.2340 N   0  0  0  0  0  0  0  0  0  0  0  0
   28.4420   35.7200   12.3370 C   0  0  0  0  0  0  0  0  0  0  0  0
   27.7340   34.5730   12.0730 C   0  0  0  0  0  0  0  0  0  0  0  0
   28.2120   36.9020   11.6790 C   0  0  0  0  0  0  0  0  0  0  0  0
   26.7540   34.6350   11.1010 C   0  0  0  0  0  0  0  0  0  0  0  0
   27.2260   36.9310   10.7130 C   0  0  0  0  0  0  0  0  0  0  0  0
   26.4910   35.8110   10.4130 C   0  0  0  0  0  0  0  0  0  0  0  0
   25.2600   35.9130    9.1830 Cl  0  0  0  0  0  0  0  0  0  0  0  0
   29.8670   25.5550   16.9770 C   0  0  0  0  0  0  0  0  0  0  0  0
   28.3450   25.7220   17.0260 C   0  0  0  0  0  0  0  0  0  0  0  0
   27.5990   24.4330   16.7170 C   0  0  0  0  0  0  0  0  0  0  0  0
   27.0000   23.8160   17.9510 C   0  0  0  0  0  0  0  0  0  0  0  0
   25.4880   24.0150   17.9370 C   0  0  0  0  0  0  0  0  0  0  0  0
   24.8120   22.8200   17.3780 N   0  0  0  0  0  0  0  0  0  0  0  0
  2  1  1  6  0  0  0
  2  3  1  0  0  0  0
  2 25  1  0  0  0  0
  3 23  1  6  0  0  0
  4  3  1  6  0  0  0
  4  9  1  0  0  0  0
  4  7  1  0  0  0  0
  5 10  1  6  0  0  0
  5  7  1  0  0  0  0
  5 12  1  0  0  0  0
  5  6  1  0  0  0  0
  6  8  1  0  0  0  0
  8 16  1  6  0  0  0
  9 18  1  1  0  0  0
  9  8  1  0  0  0  0
 11 10  1  0  0  0  0
 12 14  1  0  0  0  0
 13 12  2  0  0  0  0
 15 14  1  0  0  0  0
 16 17  1  0  0  0  0
 18 20  1  0  0  0  0
 19 21  1  0  0  0  0
 19 18  1  0  0  0  0
 22 19  2  0  0  0  0
 24 23  1  0  0  0  0
 26 25  1  0  0  0  0
 27  1  1  0  0  0  0
 27 29  1  0  0  0  0
 28 27  1  0  0  0  0
 30 28  2  0  0  0  0
 31 28  1  0  0  0  0
 32 31  1  0  0  0  0
 33 35  1  0  0  0  0
 33 32  1  0  0  0  0
 34 33  2  0  0  0  0
 36 34  1  0  0  0  0
 36 37  1  0  0  0  0
 37 35  2  0  0  0  0
 38 36  1  0  0  0  0
 39 38  1  0  0  0  0
 40 38  2  0  0  0  0
 41 39  2  0  0  0  0
 42 40  1  0  0  0  0
 43 42  2  0  0  0  0
 43 41  1  0  0  0  0
 44 43  1  0  0  0  0
 45 46  1  0  0  0  0
 47 46  1  0  0  0  0
 47 48  1  0  0  0  0
 49 48  1  0  0  0  0
 50 49  1  0  0  0  0
M  END
>  <REMARK>
 VINA RESULT:    -4.015      3.123      5.880
 INTER + INTRA:         -13.957
 INTER:                  -8.835
 INTRA:                  -5.122
 UNBOUND:                -7.007
 SMILES CC(=O)N[C@@H]1[C@@H](O)C[C@](O)(C(=O)O)O[C@H]1C(O)[C@H](O)CNC(=O)OCc1cn(-c2ccc(Cl)cc2)nn1
 SMILES IDX 20 1 18 2 16 3 15 4 9 5 8 6 14 7 6 8 5 9 10 10 11 12 12 13
 SMILES IDX 13 14 7 16 4 18 2 19 1 21 3 22 17 23 19 25 21 27 22 28 23 30
 SMILES IDX 24 31 25 32 26 33 27 34 37 35 28 36 36 37 29 38 30 39 35 40
 SMILES IDX 31 41 34 42 32 43 33 44
 H PARENT 10 11 13 15 7 17 4 20 17 24 19 26 21 29
 Flexibility Score: inf
  4 active torsions:
  status: ('A' for Active; 'I' for Inactive)
    1  A    between atoms: CA   and  CB  
    2  A    between atoms: CB   and  CG  
    3  A    between atoms: CG   and  CD  
    4  A    between atoms: CD   and  CE  

>  <TORSDO>
F 15

>  <BEGIN_>
RES LYS A 131

$$$$
ligand_2_pose_13_2HRL.pdbqt
 OpenBabel07062320523D

  6  5  0  0  0  0  0  0  0  0999 V2000
   33.1930   34.6630    9.2900 C   0  0  0  0  0  0  0  0  0  0  0  0
   32.0600   35.3600   10.0340 C   0  0  0  0  0  0  0  0  0  0  0  0
   30.7060   34.7510    9.7760 C   0  0  0  0  0  0  0  0  0  0  0  0
   30.4690   34.5800    8.2840 C   0  0  0  0  0  0  0  0  0  0  0  0
   29.0150   34.8390    7.9420 C   0  0  0  0  0  0  0  0  0  0  0  0
   28.8890   35.5700    6.6500 N   0  0  0  0  0  0  0  0  0  0  0  0
  1  2  1  0  0  0  0
  3  2  1  0  0  0  0
  4  3  1  0  0  0  0
  5  4  1  0  0  0  0
  6  5  1  0  0  0  0
M  END
>  <EGIN_R>
ES LYS A 135

>  <REMARK>
  4 active torsions:
  status: ('A' for Active; 'I' for Inactive)
    5  A    between atoms: CA   and  CB  
    6  A    between atoms: CB   and  CG  
    7  A    between atoms: CG   and  CD  
    8  A    between atoms: CD   and  CE  

$$$$
