ligand_74_pose_3_2HRL.pdbqt
 OpenBabel07062320523D

 54 54  0  0  1  0  0  0  0  0999 V2000
   25.1960   30.6950   18.3360 O   0  0  0  0  0  0  0  0  0  0  0  0
   25.6610   29.9930   19.4630 C   0  0  0  0  0  0  0  0  0  0  0  0
   26.0050   28.6220   19.3840 N   0  0  0  0  0  0  0  0  0  0  0  0
   25.8920   28.1650   18.4250 H   0  0  0  0  0  0  0  0  0  0  0  0
   25.7610   30.6220   20.5430 O   0  0  0  0  0  0  0  0  0  0  0  0
   26.4830   27.8510   20.5100 C   0  0  0  0  0  0  0  0  0  0  0  0
   27.7070   27.1000   20.1150 C   0  0  2  0  0  0  0  0  0  0  0  0
   28.9270   27.4350   20.9570 C   0  0  2  0  0  0  0  0  0  0  0  0
   29.0410   28.9060   21.2050 C   0  0  2  0  0  0  0  0  0  0  0  0
   30.4200   30.2670   19.9240 C   0  0  2  0  0  0  0  0  0  0  0  0
   30.8130   31.1490   21.0840 C   0  0  0  0  0  0  0  0  0  0  0  0
   29.1730   29.6850   20.0930 O   0  0  0  0  0  0  0  0  0  0  0  0
   30.1190   30.7350   22.3650 C   0  0  1  0  0  0  0  0  0  0  0  0
   30.0540   29.2030   22.3060 C   0  0  1  0  0  0  0  0  0  0  0  0
   31.4100   29.3150   19.6630 O   0  0  0  0  0  0  0  0  0  0  0  0
   31.9810   29.1280   20.4320 H   0  0  0  0  0  0  0  0  0  0  0  0
   30.3320   31.1360   18.7210 C   0  0  0  0  0  0  0  0  0  0  0  0
   30.2270   32.3900   18.8790 O   0  0  0  0  0  0  0  0  0  0  0  0
   30.3600   30.6560   17.4280 O   0  0  0  0  0  0  0  0  0  0  0  0
   30.2800   31.3220   16.6450 H   0  0  0  0  0  0  0  0  0  0  0  0
   30.7510   31.1870   23.4960 O   0  0  0  0  0  0  0  0  0  0  0  0
   30.0290   31.4670   24.1390 H   0  0  0  0  0  0  0  0  0  0  0  0
   29.5640   28.6620   23.5490 N   0  0  0  0  0  0  0  0  0  0  0  0
   30.3360   27.7130   24.2870 C   0  0  0  0  0  0  0  0  0  0  0  0
   28.6390   28.9270   23.9690 H   0  0  0  0  0  0  0  0  0  0  0  0
   29.8630   27.1410   25.5620 C   0  0  0  0  0  0  0  0  0  0  0  0
   31.4540   27.3500   23.8430 O   0  0  0  0  0  0  0  0  0  0  0  0
   30.0590   26.8540   20.4320 O   0  0  0  0  0  0  0  0  0  0  0  0
   30.5710   27.5350   19.9470 H   0  0  0  0  0  0  0  0  0  0  0  0
   28.0250   27.4450   18.7800 O   0  0  0  0  0  0  0  0  0  0  0  0
   28.7760   28.0810   18.7470 H   0  0  0  0  0  0  0  0  0  0  0  0
   25.7380   30.3490   17.0870 C   0  0  0  0  0  0  0  0  0  0  0  0
   26.7880   31.2870   16.6500 C   0  0  0  0  0  0  0  0  0  0  0  0
   27.0000   32.6130   16.9950 C   0  0  0  0  0  0  0  0  0  0  0  0
   27.7730   30.9930   15.7930 N   0  0  0  0  0  0  0  0  0  0  0  0
   28.0870   33.0660   16.3470 N   0  0  0  0  0  0  0  0  0  0  0  0
   28.5350   32.0690   15.6280 N   0  0  0  0  0  0  0  0  0  0  0  0
   28.6320   34.4460   16.4620 C   0  0  0  0  0  0  0  0  0  0  0  0
   29.7410   34.6300   15.4860 C   0  0  2  0  0  0  0  0  0  0  0  0
   31.0450   34.3250   16.2020 C   0  0  0  0  0  0  0  0  0  0  0  0
   31.9130   33.5120   15.3120 C   0  0  0  0  0  0  0  0  0  0  0  0
   32.9370   33.9960   14.7990 O   0  0  0  0  0  0  0  0  0  0  0  0
   31.5310   32.1880   15.0780 O   0  0  0  0  0  0  0  0  0  0  0  0
   31.0480   31.9560   14.2320 H   0  0  0  0  0  0  0  0  0  0  0  0
   29.7080   35.9290   14.7930 C   0  0  0  0  0  0  0  0  0  0  0  0
   29.7980   35.9410   13.3150 C   0  0  0  0  0  0  0  0  0  0  0  0
   31.2160   36.4920   12.9910 C   0  0  0  0  0  0  0  0  0  0  0  0
   29.6740   34.6320   12.6120 C   0  0  0  0  0  0  0  0  0  0  0  0
   29.8670   25.5550   16.9770 C   0  0  0  0  0  0  0  0  0  0  0  0
   28.3450   25.7220   17.0260 C   0  0  0  0  0  0  0  0  0  0  0  0
   27.6030   24.3960   16.9620 C   0  0  0  0  0  0  0  0  0  0  0  0
   26.1420   24.5480   17.2860 C   0  0  0  0  0  0  0  0  0  0  0  0
   25.5770   23.2030   17.7300 C   0  0  0  0  0  0  0  0  0  0  0  0
   25.5030   23.1340   19.2090 N   0  0  0  0  0  0  0  0  0  0  0  0
  1  2  1  0  0  0  0
  2  5  2  0  0  0  0
  3  2  1  0  0  0  0
  3  6  1  0  0  0  0
  4  3  1  0  0  0  0
  7  6  1  1  0  0  0
  7  8  1  0  0  0  0
  8 28  1  6  0  0  0
  9  8  1  6  0  0  0
  9 14  1  0  0  0  0
 10 17  1  6  0  0  0
 10 12  1  0  0  0  0
 10 11  1  0  0  0  0
 11 13  1  0  0  0  0
 12  9  1  0  0  0  0
 13 21  1  1  0  0  0
 14 13  1  0  0  0  0
 14 23  1  1  0  0  0
 15 10  1  0  0  0  0
 15 16  1  0  0  0  0
 17 18  2  0  0  0  0
 19 17  1  0  0  0  0
 20 19  1  0  0  0  0
 21 22  1  0  0  0  0
 23 25  1  0  0  0  0
 23 24  1  0  0  0  0
 24 26  1  0  0  0  0
 27 24  2  0  0  0  0
 29 28  1  0  0  0  0
 30  7  1  0  0  0  0
 31 30  1  0  0  0  0
 32  1  1  0  0  0  0
 33 34  2  0  0  0  0
 33 32  1  0  0  0  0
 35 33  1  0  0  0  0
 36 38  1  0  0  0  0
 36 34  1  0  0  0  0
 37 35  2  0  0  0  0
 37 36  1  0  0  0  0
 39 45  1  1  0  0  0
 39 40  1  0  0  0  0
 39 38  1  0  0  0  0
 41 40  1  0  0  0  0
 42 41  2  0  0  0  0
 43 41  1  0  0  0  0
 44 43  1  0  0  0  0
 46 45  1  0  0  0  0
 47 46  1  0  0  0  0
 48 46  1  0  0  0  0
 49 50  1  0  0  0  0
 51 50  1  0  0  0  0
 51 52  1  0  0  0  0
 52 53  1  0  0  0  0
 53 54  1  0  0  0  0
M  END
>  <REMARK>
 VINA RESULT:    -4.513      1.782      2.043
 INTER + INTRA:         -16.381
 INTER:                  -8.924
 INTRA:                  -7.457
 UNBOUND:                -7.118
 SMILES CC(=O)N[C@@H]1[C@@H](O)C[C@](O)(C(=O)O)O[C@H]1C(O)[C@H](O)CNC(=O)OCc1cn(C[C@H](CC(=O)O)CC(C)C)nn1
 SMILES IDX 24 1 22 2 21 3 23 5 20 6 18 7 16 8 15 9 9 10 8 11 14 12 6 13
 SMILES IDX 5 14 10 15 11 17 12 18 13 19 7 21 4 23 2 24 1 26 3 27 17 28
 SMILES IDX 19 30 25 32 26 33 27 34 40 35 28 36 39 37 29 38 30 39 31 40
 SMILES IDX 32 41 33 42 34 43 35 45 36 46 37 47 38 48
 H PARENT 21 4 10 16 13 20 7 22 4 25 17 29 19 31 34 44
 Flexibility Score: inf
  4 active torsions:
  status: ('A' for Active; 'I' for Inactive)
    1  A    between atoms: CA   and  CB  
    2  A    between atoms: CB   and  CG  
    3  A    between atoms: CG   and  CD  
    4  A    between atoms: CD   and  CE  

>  <TORSDO>
F 21

>  <BEGIN_>
RES LYS A 131

$$$$
ligand_74_pose_3_2HRL.pdbqt
 OpenBabel07062320523D

  6  5  0  0  0  0  0  0  0  0999 V2000
   33.1930   34.6630    9.2900 C   0  0  0  0  0  0  0  0  0  0  0  0
   32.0600   35.3600   10.0340 C   0  0  0  0  0  0  0  0  0  0  0  0
   30.8220   35.5590    9.1980 C   0  0  0  0  0  0  0  0  0  0  0  0
   30.2780   34.2220    8.7180 C   0  0  0  0  0  0  0  0  0  0  0  0
   28.7870   34.1290    8.9780 C   0  0  0  0  0  0  0  0  0  0  0  0
   28.0150   34.8790    7.9490 N   0  0  0  0  0  0  0  0  0  0  0  0
  1  2  1  0  0  0  0
  3  2  1  0  0  0  0
  4  5  1  0  0  0  0
  4  3  1  0  0  0  0
  6  5  1  0  0  0  0
M  END
>  <EGIN_R>
ES LYS A 135

>  <REMARK>
  4 active torsions:
  status: ('A' for Active; 'I' for Inactive)
    5  A    between atoms: CA   and  CB  
    6  A    between atoms: CB   and  CG  
    7  A    between atoms: CG   and  CD  
    8  A    between atoms: CD   and  CE  

$$$$
