ligand_42_pose_4_2HRL.pdbqt
 OpenBabel07062320523D

 52 54  0  0  1  0  0  0  0  0999 V2000
   28.9900   30.6270   15.5740 C   0  0  0  0  0  0  0  0  0  0  0  0
   29.5600   31.6240   16.5270 C   0  0  2  0  0  0  0  0  0  0  0  0
   30.5150   32.5910   15.8070 C   0  0  1  0  0  0  0  0  0  0  0  0
   31.1520   33.4390   16.8480 C   0  0  2  0  0  0  0  0  0  0  0  0
   30.8410   34.5990   18.7850 C   0  0  2  0  0  0  0  0  0  0  0  0
   32.3390   34.7390   18.6210 C   0  0  0  0  0  0  0  0  0  0  0  0
   30.2580   33.7690   17.8610 O   0  0  0  0  0  0  0  0  0  0  0  0
   32.7200   35.2330   17.2390 C   0  0  1  0  0  0  0  0  0  0  0  0
   31.6690   34.7650   16.2900 C   0  0  1  0  0  0  0  0  0  0  0  0
   30.3220   35.8950   18.7530 O   0  0  0  0  0  0  0  0  0  0  0  0
   29.9180   36.0030   17.8500 H   0  0  0  0  0  0  0  0  0  0  0  0
   30.6130   34.0070   20.1230 C   0  0  0  0  0  0  0  0  0  0  0  0
   30.4750   34.7630   21.1140 O   0  0  0  0  0  0  0  0  0  0  0  0
   30.5430   32.6400   20.3350 O   0  0  0  0  0  0  0  0  0  0  0  0
   30.8550   31.9510   19.6600 H   0  0  0  0  0  0  0  0  0  0  0  0
   32.7530   36.6410   17.3320 O   0  0  0  0  0  0  0  0  0  0  0  0
   32.7330   37.0500   16.4480 H   0  0  0  0  0  0  0  0  0  0  0  0
   32.0510   34.6950   14.9270 N   0  0  0  0  0  0  0  0  0  0  0  0
   32.1720   35.7820   14.0210 C   0  0  0  0  0  0  0  0  0  0  0  0
   32.2710   33.7530   14.5360 H   0  0  0  0  0  0  0  0  0  0  0  0
   32.5840   35.5980   12.5980 C   0  0  0  0  0  0  0  0  0  0  0  0
   31.9150   36.9250   14.4620 O   0  0  0  0  0  0  0  0  0  0  0  0
   31.4200   31.8370   15.1110 O   0  0  0  0  0  0  0  0  0  0  0  0
   32.2510   32.2430   14.8450 H   0  0  0  0  0  0  0  0  0  0  0  0
   30.2550   31.0240   17.5420 O   0  0  0  0  0  0  0  0  0  0  0  0
   30.4740   31.5830   18.3180 H   0  0  0  0  0  0  0  0  0  0  0  0
   28.4740   29.4820   16.2380 N   0  0  0  0  0  0  0  0  0  0  0  0
   27.1120   29.3000   16.5280 C   0  0  0  0  0  0  0  0  0  0  0  0
   29.1260   28.6990   16.5470 H   0  0  0  0  0  0  0  0  0  0  0  0
   26.2070   30.1070   16.2590 O   0  0  0  0  0  0  0  0  0  0  0  0
   26.7120   28.1180   17.1780 O   0  0  0  0  0  0  0  0  0  0  0  0
   26.4340   28.1500   18.5450 C   0  0  0  0  0  0  0  0  0  0  0  0
   27.5810   28.7650   19.2610 C   0  0  0  0  0  0  0  0  0  0  0  0
   28.5940   28.0870   19.9310 C   0  0  0  0  0  0  0  0  0  0  0  0
   27.8760   30.0680   19.4090 N   0  0  0  0  0  0  0  0  0  0  0  0
   29.4570   28.9740   20.4570 N   0  0  0  0  0  0  0  0  0  0  0  0
   28.9860   30.1610   20.1170 N   0  0  0  0  0  0  0  0  0  0  0  0
   30.6210   28.6630   21.2120 C   0  0  0  0  0  0  0  0  0  0  0  0
   30.6670   27.5250   21.9920 C   0  0  0  0  0  0  0  0  0  0  0  0
   31.7460   29.4620   21.2090 C   0  0  0  0  0  0  0  0  0  0  0  0
   31.7990   27.2010   22.7400 C   0  0  0  0  0  0  0  0  0  0  0  0
   32.8880   29.1580   21.9490 C   0  0  0  0  0  0  0  0  0  0  0  0
   32.9090   28.0170   22.7190 C   0  0  0  0  0  0  0  0  0  0  0  0
   34.1200   29.7870   22.1090 O   0  0  0  0  0  0  0  0  0  0  0  0
   34.1700   27.9760   23.3390 O   0  0  0  0  0  0  0  0  0  0  0  0
   34.7410   29.2870   23.2800 C   0  0  0  0  0  0  0  0  0  0  0  0
   29.8670   25.5550   16.9770 C   0  0  0  0  0  0  0  0  0  0  0  0
   28.3450   25.7220   17.0260 C   0  0  0  0  0  0  0  0  0  0  0  0
   27.6010   24.4010   16.8990 C   0  0  0  0  0  0  0  0  0  0  0  0
   26.2220   24.4690   17.4940 C   0  0  0  0  0  0  0  0  0  0  0  0
   25.6620   23.0580   17.6410 C   0  0  0  0  0  0  0  0  0  0  0  0
   25.1780   22.8320   19.0240 N   0  0  0  0  0  0  0  0  0  0  0  0
  1 27  1  0  0  0  0
  2  1  1  6  0  0  0
  2 25  1  0  0  0  0
  3 23  1  1  0  0  0
  3  2  1  0  0  0  0
  4  3  1  6  0  0  0
  4  7  1  0  0  0  0
  5 10  1  6  0  0  0
  5 12  1  0  0  0  0
  6  5  1  0  0  0  0
  7  5  1  0  0  0  0
  8 16  1  1  0  0  0
  8  6  1  0  0  0  0
  9 18  1  6  0  0  0
  9  4  1  0  0  0  0
  9  8  1  0  0  0  0
 11 10  1  0  0  0  0
 12 14  1  0  0  0  0
 12 13  2  0  0  0  0
 15 14  1  0  0  0  0
 17 16  1  0  0  0  0
 19 22  2  0  0  0  0
 19 18  1  0  0  0  0
 20 18  1  0  0  0  0
 21 19  1  0  0  0  0
 24 23  1  0  0  0  0
 25 26  1  0  0  0  0
 27 28  1  0  0  0  0
 27 29  1  0  0  0  0
 28 31  1  0  0  0  0
 30 28  2  0  0  0  0
 31 32  1  0  0  0  0
 32 33  1  0  0  0  0
 33 35  1  0  0  0  0
 33 34  2  0  0  0  0
 34 36  1  0  0  0  0
 35 37  2  0  0  0  0
 36 38  1  0  0  0  0
 37 36  1  0  0  0  0
 38 39  1  0  0  0  0
 39 41  2  0  0  0  0
 40 38  2  0  0  0  0
 40 42  1  0  0  0  0
 42 44  1  0  0  0  0
 42 43  2  0  0  0  0
 43 41  1  0  0  0  0
 43 45  1  0  0  0  0
 44 46  1  0  0  0  0
 46 45  1  0  0  0  0
 47 48  1  0  0  0  0
 49 48  1  0  0  0  0
 49 50  1  0  0  0  0
 50 51  1  0  0  0  0
 51 52  1  0  0  0  0
M  END
>  <REMARK>
 VINA RESULT:    -5.777      1.998      6.058
 INTER + INTRA:         -14.545
 INTER:                  -8.570
 INTRA:                  -5.975
 UNBOUND:                -4.548
 SMILES CC(=O)N[C@@H]1[C@@H](O)C[C@](O)(C(=O)O)O[C@H]1C(O)[C@H](O)CNC(=O)OCc1cn(-c2ccc3c(c2)OCO3)nn1
 SMILES IDX 20 1 18 2 16 3 15 4 9 5 8 6 14 7 6 8 5 9 10 10 11 12 12 13
 SMILES IDX 13 14 7 16 4 18 2 19 1 21 3 22 17 23 19 25 21 27 22 28 23 30
 SMILES IDX 24 31 25 32 26 33 27 34 39 35 28 36 38 37 29 38 30 39 34 40
 SMILES IDX 31 41 33 42 32 43 35 44 37 45 36 46
 H PARENT 10 11 13 15 7 17 4 20 17 24 19 26 21 29
 Flexibility Score: inf
  4 active torsions:
  status: ('A' for Active; 'I' for Inactive)
    1  A    between atoms: CA   and  CB  
    2  A    between atoms: CB   and  CG  
    3  A    between atoms: CG   and  CD  
    4  A    between atoms: CD   and  CE  

>  <TORSDO>
F 15

>  <BEGIN_>
RES LYS A 131

$$$$
ligand_42_pose_4_2HRL.pdbqt
 OpenBabel07062320523D

  6  5  0  0  0  0  0  0  0  0999 V2000
   33.1930   34.6630    9.2900 C   0  0  0  0  0  0  0  0  0  0  0  0
   32.0600   35.3600   10.0340 C   0  0  0  0  0  0  0  0  0  0  0  0
   30.9100   35.7580    9.1450 C   0  0  0  0  0  0  0  0  0  0  0  0
   30.3830   34.5540    8.3790 C   0  0  0  0  0  0  0  0  0  0  0  0
   29.1580   34.9340    7.5690 C   0  0  0  0  0  0  0  0  0  0  0  0
   28.8600   36.3880    7.6950 N   0  0  0  0  0  0  0  0  0  0  0  0
  1  2  1  0  0  0  0
  3  2  1  0  0  0  0
  4  3  1  0  0  0  0
  5  6  1  0  0  0  0
  5  4  1  0  0  0  0
M  END
>  <EGIN_R>
ES LYS A 135

>  <REMARK>
  4 active torsions:
  status: ('A' for Active; 'I' for Inactive)
    5  A    between atoms: CA   and  CB  
    6  A    between atoms: CB   and  CG  
    7  A    between atoms: CG   and  CD  
    8  A    between atoms: CD   and  CE  

$$$$
