ligand_29_pose_12_2HRL.pdbqt
 OpenBabel07062320523D

 54 55  0  0  1  0  0  0  0  0999 V2000
   29.5410   30.8090   17.5240 N   0  0  0  0  0  0  0  0  0  0  0  0
   28.4960   31.0090   18.4360 C   0  0  0  0  0  0  0  0  0  0  0  0
   27.3990   31.4850   18.0750 O   0  0  0  0  0  0  0  0  0  0  0  0
   30.4480   30.4080   17.9160 H   0  0  0  0  0  0  0  0  0  0  0  0
   29.4990   31.0970   16.1020 C   0  0  0  0  0  0  0  0  0  0  0  0
   30.4360   32.1980   15.7550 C   0  0  2  0  0  0  0  0  0  0  0  0
   29.7640   33.4650   15.2840 C   0  0  2  0  0  0  0  0  0  0  0  0
   30.2480   34.7120   15.9430 C   0  0  2  0  0  0  0  0  0  0  0  0
   31.9880   35.5110   14.6090 C   0  0  2  0  0  0  0  0  0  0  0  0
   32.7570   36.1560   15.7540 C   0  0  0  0  0  0  0  0  0  0  0  0
   30.6580   35.5950   14.9230 O   0  0  0  0  0  0  0  0  0  0  0  0
   31.9650   36.0100   17.0210 C   0  0  1  0  0  0  0  0  0  0  0  0
   31.2150   34.6280   17.0430 C   0  0  1  0  0  0  0  0  0  0  0  0
   32.4530   34.2270   14.3500 O   0  0  0  0  0  0  0  0  0  0  0  0
   33.0470   33.8830   15.0670 H   0  0  0  0  0  0  0  0  0  0  0  0
   32.2150   36.3040   13.3660 C   0  0  0  0  0  0  0  0  0  0  0  0
   32.7720   35.7500   12.3890 O   0  0  0  0  0  0  0  0  0  0  0  0
   31.8360   37.6320   13.2470 O   0  0  0  0  0  0  0  0  0  0  0  0
   31.3330   38.1270   13.9940 H   0  0  0  0  0  0  0  0  0  0  0  0
   32.7640   36.0910   18.1560 O   0  0  0  0  0  0  0  0  0  0  0  0
   33.2610   36.9360   18.1880 H   0  0  0  0  0  0  0  0  0  0  0  0
   30.5540   34.6590   18.3560 N   0  0  0  0  0  0  0  0  0  0  0  0
   30.7030   33.6540   19.3410 C   0  0  0  0  0  0  0  0  0  0  0  0
   29.9220   35.4720   18.6150 H   0  0  0  0  0  0  0  0  0  0  0  0
   30.0190   33.7110   20.6580 C   0  0  0  0  0  0  0  0  0  0  0  0
   31.4400   32.6640   19.1080 O   0  0  0  0  0  0  0  0  0  0  0  0
   28.3680   33.3610   15.6790 O   0  0  0  0  0  0  0  0  0  0  0  0
   28.1930   34.1110   16.2970 H   0  0  0  0  0  0  0  0  0  0  0  0
   31.5580   31.8440   15.0530 O   0  0  0  0  0  0  0  0  0  0  0  0
   31.5320   32.0800   14.1060 H   0  0  0  0  0  0  0  0  0  0  0  0
   28.6500   30.6770   19.7990 O   0  0  0  0  0  0  0  0  0  0  0  0
   29.2280   29.4000   20.1120 C   0  0  0  0  0  0  0  0  0  0  0  0
   30.5680   29.5430   20.6760 C   0  0  0  0  0  0  0  0  0  0  0  0
   30.9280   30.3310   21.7400 C   0  0  0  0  0  0  0  0  0  0  0  0
   31.6740   28.9150   20.2480 N   0  0  0  0  0  0  0  0  0  0  0  0
   32.2330   30.1700   21.9380 N   0  0  0  0  0  0  0  0  0  0  0  0
   32.6650   29.3170   21.0330 N   0  0  0  0  0  0  0  0  0  0  0  0
   33.0580   30.8130   22.9530 C   0  0  0  0  0  0  0  0  0  0  0  0
   33.9630   31.7900   22.2710 C   0  0  0  0  0  0  0  0  0  0  0  0
   33.4510   33.0190   21.8570 C   0  0  0  0  0  0  0  0  0  0  0  0
   35.2970   31.5300   22.0370 C   0  0  0  0  0  0  0  0  0  0  0  0
   34.2490   33.9470   21.2350 C   0  0  0  0  0  0  0  0  0  0  0  0
   36.1250   32.4430   21.4140 C   0  0  0  0  0  0  0  0  0  0  0  0
   35.5820   33.6440   21.0220 C   0  0  0  0  0  0  0  0  0  0  0  0
   33.7520   35.1780   20.8160 O   0  0  0  0  0  0  0  0  0  0  0  0
   32.9370   35.9140   21.7110 C   0  0  0  0  0  0  0  0  0  0  0  0
   36.3790   34.5870   20.3930 O   0  0  0  0  0  0  0  0  0  0  0  0
   37.5930   34.2370   19.7550 C   0  0  0  0  0  0  0  0  0  0  0  0
   29.8670   25.5550   16.9770 C   0  0  0  0  0  0  0  0  0  0  0  0
   28.3450   25.7220   17.0260 C   0  0  0  0  0  0  0  0  0  0  0  0
   27.6030   24.3950   16.9810 C   0  0  0  0  0  0  0  0  0  0  0  0
   26.1210   24.5680   17.1600 C   0  0  0  0  0  0  0  0  0  0  0  0
   25.8570   25.6270   18.2260 C   0  0  0  0  0  0  0  0  0  0  0  0
   25.7130   24.9970   19.5600 N   0  0  0  0  0  0  0  0  0  0  0  0
  1  4  1  0  0  0  0
  1  2  1  0  0  0  0
  2 31  1  0  0  0  0
  3  2  2  0  0  0  0
  5  1  1  0  0  0  0
  6  5  1  6  0  0  0
  7 27  1  1  0  0  0
  7  6  1  0  0  0  0
  8  7  1  6  0  0  0
  8 13  1  0  0  0  0
  9 16  1  6  0  0  0
  9 11  1  0  0  0  0
  9 10  1  0  0  0  0
 10 12  1  0  0  0  0
 11  8  1  0  0  0  0
 12 13  1  0  0  0  0
 12 20  1  1  0  0  0
 13 22  1  1  0  0  0
 14  9  1  0  0  0  0
 14 15  1  0  0  0  0
 17 16  2  0  0  0  0
 18 16  1  0  0  0  0
 18 19  1  0  0  0  0
 20 21  1  0  0  0  0
 22 24  1  0  0  0  0
 22 23  1  0  0  0  0
 23 25  1  0  0  0  0
 26 23  2  0  0  0  0
 27 28  1  0  0  0  0
 29  6  1  0  0  0  0
 30 29  1  0  0  0  0
 31 32  1  0  0  0  0
 32 33  1  0  0  0  0
 33 34  2  0  0  0  0
 34 36  1  0  0  0  0
 35 33  1  0  0  0  0
 35 37  2  0  0  0  0
 36 38  1  0  0  0  0
 37 36  1  0  0  0  0
 39 38  1  0  0  0  0
 40 39  2  0  0  0  0
 41 39  1  0  0  0  0
 42 40  1  0  0  0  0
 43 41  2  0  0  0  0
 44 42  2  0  0  0  0
 44 43  1  0  0  0  0
 45 42  1  0  0  0  0
 45 46  1  0  0  0  0
 47 44  1  0  0  0  0
 48 47  1  0  0  0  0
 49 50  1  0  0  0  0
 51 50  1  0  0  0  0
 51 52  1  0  0  0  0
 52 53  1  0  0  0  0
 53 54  1  0  0  0  0
M  END
>  <REMARK>
 VINA RESULT:    -4.964      4.376      9.392
 INTER + INTRA:         -14.579
 INTER:                  -8.643
 INTRA:                  -5.936
 UNBOUND:                -5.118
 SMILES COc1ccc(Cn2cc(COC(=O)NC[C@@H](O)C(O)[C@@H]3O[C@@](O)(C(=O)O)C[C@H](O)[C@H]3NC(C)=O)nn2)cc1OC
 SMILES IDX 15 1 13 2 14 3 16 5 17 6 19 7 21 8 23 9 28 10 22 11 29 12
 SMILES IDX 31 13 24 14 25 16 26 17 27 18 30 20 32 22 33 23 34 25 35 26
 SMILES IDX 20 27 18 29 12 31 11 32 10 33 9 34 36 35 8 36 37 37 7 38
 SMILES IDX 6 39 38 40 5 41 39 42 4 43 3 44 40 45 41 46 2 47 1 48
 H PARENT 15 4 24 15 27 19 30 21 32 24 20 28 18 30
 Flexibility Score: inf
  4 active torsions:
  status: ('A' for Active; 'I' for Inactive)
    1  A    between atoms: CA   and  CB  
    2  A    between atoms: CB   and  CG  
    3  A    between atoms: CG   and  CD  
    4  A    between atoms: CD   and  CE  

>  <TORSDO>
F 18

>  <BEGIN_>
RES LYS A 131

$$$$
ligand_29_pose_12_2HRL.pdbqt
 OpenBabel07062320523D

  6  5  0  0  0  0  0  0  0  0999 V2000
   33.1930   34.6630    9.2900 C   0  0  0  0  0  0  0  0  0  0  0  0
   32.0600   35.3600   10.0340 C   0  0  0  0  0  0  0  0  0  0  0  0
   30.6890   34.8970    9.6140 C   0  0  0  0  0  0  0  0  0  0  0  0
   29.6670   36.0080    9.7980 C   0  0  0  0  0  0  0  0  0  0  0  0
   29.2340   36.0990   11.2490 C   0  0  0  0  0  0  0  0  0  0  0  0
   29.1080   34.7460   11.8570 N   0  0  0  0  0  0  0  0  0  0  0  0
  1  2  1  0  0  0  0
  3  4  1  0  0  0  0
  3  2  1  0  0  0  0
  4  5  1  0  0  0  0
  5  6  1  0  0  0  0
M  END
>  <EGIN_R>
ES LYS A 135

>  <REMARK>
  4 active torsions:
  status: ('A' for Active; 'I' for Inactive)
    5  A    between atoms: CA   and  CB  
    6  A    between atoms: CB   and  CG  
    7  A    between atoms: CG   and  CD  
    8  A    between atoms: CD   and  CE  

$$$$
