ligand_73_pose_6_2HRL.pdbqt
 OpenBabel07062320523D

 54 55  0  0  1  0  0  0  0  0999 V2000
   30.7600   31.3850   21.9170 N   0  0  0  0  0  0  0  0  0  0  0  0
   29.3950   31.6690   22.1910 C   0  0  0  0  0  0  0  0  0  0  0  0
   28.6090   30.7870   22.6720 O   0  0  0  0  0  0  0  0  0  0  0  0
   31.3640   32.1290   21.5340 H   0  0  0  0  0  0  0  0  0  0  0  0
   31.2690   30.0730   22.1880 C   0  0  0  0  0  0  0  0  0  0  0  0
   31.6020   29.2310   21.0090 C   0  0  2  0  0  0  0  0  0  0  0  0
   31.0310   27.8370   21.0240 C   0  0  1  0  0  0  0  0  0  0  0  0
   29.5410   27.7730   20.9000 C   0  0  2  0  0  0  0  0  0  0  0  0
   27.7010   28.6030   19.8050 C   0  0  2  0  0  0  0  0  0  0  0  0
   27.1090   27.3600   20.4290 C   0  0  0  0  0  0  0  0  0  0  0  0
   29.0490   28.7660   20.0700 O   0  0  0  0  0  0  0  0  0  0  0  0
   27.3340   27.3920   21.9030 C   0  0  1  0  0  0  0  0  0  0  0  0
   28.8260   27.5970   22.1890 C   0  0  1  0  0  0  0  0  0  0  0  0
   27.0040   29.6860   20.3220 O   0  0  0  0  0  0  0  0  0  0  0  0
   27.6750   30.3980   20.5120 H   0  0  0  0  0  0  0  0  0  0  0  0
   27.4410   28.5320   18.3460 C   0  0  0  0  0  0  0  0  0  0  0  0
   26.6190   27.7060   17.8680 O   0  0  0  0  0  0  0  0  0  0  0  0
   28.1010   29.3780   17.4760 O   0  0  0  0  0  0  0  0  0  0  0  0
   28.8260   29.0800   16.8510 H   0  0  0  0  0  0  0  0  0  0  0  0
   26.5680   28.4560   22.4150 O   0  0  0  0  0  0  0  0  0  0  0  0
   25.6830   28.0560   22.6730 H   0  0  0  0  0  0  0  0  0  0  0  0
   29.3220   26.3450   22.7830 N   0  0  0  0  0  0  0  0  0  0  0  0
   29.5520   26.1940   24.1660 C   0  0  0  0  0  0  0  0  0  0  0  0
   29.5120   25.5350   22.1460 H   0  0  0  0  0  0  0  0  0  0  0  0
   30.0550   24.9150   24.7240 C   0  0  0  0  0  0  0  0  0  0  0  0
   29.3330   27.1420   24.9300 O   0  0  0  0  0  0  0  0  0  0  0  0
   31.5810   27.0540   20.0090 O   0  0  0  0  0  0  0  0  0  0  0  0
   32.2030   27.5340   19.4380 H   0  0  0  0  0  0  0  0  0  0  0  0
   33.0020   29.1690   20.9430 O   0  0  0  0  0  0  0  0  0  0  0  0
   33.2780   29.6340   20.1020 H   0  0  0  0  0  0  0  0  0  0  0  0
   28.9290   32.9340   21.9220 O   0  0  0  0  0  0  0  0  0  0  0  0
   27.7910   33.1020   21.1330 C   0  0  0  0  0  0  0  0  0  0  0  0
   28.0470   32.9220   19.6790 C   0  0  0  0  0  0  0  0  0  0  0  0
   29.0270   33.5200   18.9000 C   0  0  0  0  0  0  0  0  0  0  0  0
   27.3720   32.1350   18.8220 N   0  0  0  0  0  0  0  0  0  0  0  0
   28.9280   33.0970   17.6310 N   0  0  0  0  0  0  0  0  0  0  0  0
   27.9110   32.2520   17.6080 N   0  0  0  0  0  0  0  0  0  0  0  0
   29.7220   33.4500   16.5050 C   0  0  0  0  0  0  0  0  0  0  0  0
   31.0630   33.1250   16.4740 C   0  0  0  0  0  0  0  0  0  0  0  0
   29.2130   34.1180   15.4110 C   0  0  0  0  0  0  0  0  0  0  0  0
   31.8550   33.4590   15.3880 C   0  0  0  0  0  0  0  0  0  0  0  0
   29.9660   34.4730   14.3040 C   0  0  0  0  0  0  0  0  0  0  0  0
   31.3130   34.1250   14.3150 C   0  0  0  0  0  0  0  0  0  0  0  0
   29.4290   35.1570   13.1930 N   0  0  0  0  0  0  0  0  0  0  0  0
   29.8510   36.2790   12.9080 O   0  0  0  0  0  0  0  0  0  0  0  0
   28.4530   34.5780   12.4450 O   0  0  0  0  0  0  0  0  0  0  0  0
   32.0680   34.4840   13.2000 O   0  0  0  0  0  0  0  0  0  0  0  0
   32.0810   35.4760   12.9250 H   0  0  0  0  0  0  0  0  0  0  0  0
   29.8670   25.5550   16.9770 C   0  0  0  0  0  0  0  0  0  0  0  0
   28.3450   25.7220   17.0260 C   0  0  0  0  0  0  0  0  0  0  0  0
   27.6010   24.4060   16.8600 C   0  0  0  0  0  0  0  0  0  0  0  0
   26.5340   24.2230   17.9030 C   0  0  0  0  0  0  0  0  0  0  0  0
   25.7160   22.9770   17.5820 C   0  0  0  0  0  0  0  0  0  0  0  0
   24.5550   22.8680   18.4960 N   0  0  0  0  0  0  0  0  0  0  0  0
  1  5  1  0  0  0  0
  1  2  1  0  0  0  0
  2  3  2  0  0  0  0
  4  1  1  0  0  0  0
  6  7  1  0  0  0  0
  6  5  1  1  0  0  0
  7 27  1  6  0  0  0
  8  7  1  1  0  0  0
  8 13  1  0  0  0  0
  9 16  1  6  0  0  0
  9 11  1  0  0  0  0
  9 14  1  0  0  0  0
  9 10  1  0  0  0  0
 10 12  1  0  0  0  0
 11  8  1  0  0  0  0
 12 13  1  0  0  0  0
 12 20  1  6  0  0  0
 13 22  1  6  0  0  0
 14 15  1  0  0  0  0
 17 16  2  0  0  0  0
 18 16  1  0  0  0  0
 19 18  1  0  0  0  0
 20 21  1  0  0  0  0
 22 23  1  0  0  0  0
 23 25  1  0  0  0  0
 23 26  2  0  0  0  0
 24 22  1  0  0  0  0
 28 27  1  0  0  0  0
 29  6  1  0  0  0  0
 30 29  1  0  0  0  0
 31  2  1  0  0  0  0
 32 31  1  0  0  0  0
 33 32  1  0  0  0  0
 34 33  2  0  0  0  0
 35 33  1  0  0  0  0
 36 34  1  0  0  0  0
 37 36  1  0  0  0  0
 37 35  2  0  0  0  0
 38 36  1  0  0  0  0
 39 38  1  0  0  0  0
 40 38  2  0  0  0  0
 41 39  2  0  0  0  0
 42 43  2  0  0  0  0
 42 40  1  0  0  0  0
 43 41  1  0  0  0  0
 44 42  1  0  0  0  0
 45 44  2  0  0  0  0
 46 44  2  0  0  0  0
 47 43  1  0  0  0  0
 48 47  1  0  0  0  0
 49 50  1  0  0  0  0
 51 50  1  0  0  0  0
 51 52  1  0  0  0  0
 53 52  1  0  0  0  0
 53 54  1  0  0  0  0
M  END
>  <REMARK>
 VINA RESULT:    -4.167      3.144      6.033
 INTER + INTRA:         -14.888
 INTER:                  -8.446
 INTRA:                  -6.442
 UNBOUND:                -7.311
 SMILES CC(=O)N[C@@H]1[C@@H](O)C[C@](O)(C(=O)O)O[C@H]1C(O)[C@H](O)CNC(=O)OCc1cn(-c2ccc(O)c([N+](=O)[O-])c2)nn1
 SMILES IDX 21 1 22 2 23 3 20 5 18 6 16 7 15 8 9 9 8 10 14 11 6 12 5 13
 SMILES IDX 10 14 11 16 12 17 13 18 7 20 4 22 2 23 1 25 3 26 17 27 19 29
 SMILES IDX 24 31 25 32 26 33 27 34 40 35 28 36 39 37 29 38 30 39 38 40
 SMILES IDX 31 41 34 42 32 43 35 44 36 45 37 46 33 47
 H PARENT 21 4 10 15 13 19 7 21 4 24 17 28 19 30 33 48
 Flexibility Score: inf
  4 active torsions:
  status: ('A' for Active; 'I' for Inactive)
    1  A    between atoms: CA   and  CB  
    2  A    between atoms: CB   and  CG  
    3  A    between atoms: CG   and  CD  
    4  A    between atoms: CD   and  CE  

>  <TORSDO>
F 17

>  <BEGIN_>
RES LYS A 131

$$$$
ligand_73_pose_6_2HRL.pdbqt
 OpenBabel07062320523D

  6  5  0  0  0  0  0  0  0  0999 V2000
   33.1930   34.6630    9.2900 C   0  0  0  0  0  0  0  0  0  0  0  0
   32.0600   35.3600   10.0340 C   0  0  0  0  0  0  0  0  0  0  0  0
   30.7000   34.7800    9.7410 C   0  0  0  0  0  0  0  0  0  0  0  0
   30.4600   34.7070    8.2410 C   0  0  0  0  0  0  0  0  0  0  0  0
   28.9810   34.8370    7.9310 C   0  0  0  0  0  0  0  0  0  0  0  0
   28.7640   35.5450    6.6390 N   0  0  0  0  0  0  0  0  0  0  0  0
  1  2  1  0  0  0  0
  3  2  1  0  0  0  0
  4  3  1  0  0  0  0
  5  4  1  0  0  0  0
  6  5  1  0  0  0  0
M  END
>  <EGIN_R>
ES LYS A 135

>  <REMARK>
  4 active torsions:
  status: ('A' for Active; 'I' for Inactive)
    5  A    between atoms: CA   and  CB  
    6  A    between atoms: CB   and  CG  
    7  A    between atoms: CG   and  CD  
    8  A    between atoms: CD   and  CE  

$$$$
