ligand_9_pose_4_2HRL.pdbqt
 OpenBabel07062320523D

 54 55  0  0  1  0  0  0  0  0999 V2000
   28.6810   29.8530   16.6930 N   0  0  0  0  0  0  0  0  0  0  0  0
   27.4740   29.2180   17.0900 C   0  0  0  0  0  0  0  0  0  0  0  0
   26.4610   29.3460   16.3580 O   0  0  0  0  0  0  0  0  0  0  0  0
   29.5060   29.7330   17.3140 H   0  0  0  0  0  0  0  0  0  0  0  0
   28.7600   30.6370   15.4770 C   0  0  0  0  0  0  0  0  0  0  0  0
   29.1560   32.0540   15.7230 C   0  0  2  0  0  0  0  0  0  0  0  0
   30.5590   32.2110   16.2140 C   0  0  1  0  0  0  0  0  0  0  0  0
   31.1380   33.5790   15.7690 C   0  0  2  0  0  0  0  0  0  0  0  0
   32.8310   34.5050   14.5870 C   0  0  2  0  0  0  0  0  0  0  0  0
   33.4280   35.2020   15.7890 C   0  0  0  0  0  0  0  0  0  0  0  0
   32.2400   33.3480   14.9890 O   0  0  0  0  0  0  0  0  0  0  0  0
   32.4130   35.4830   16.8560 C   0  0  1  0  0  0  0  0  0  0  0  0
   31.3400   34.4380   16.9620 C   0  0  1  0  0  0  0  0  0  0  0  0
   33.9510   34.1310   13.7920 O   0  0  0  0  0  0  0  0  0  0  0  0
   34.5240   34.8910   13.5860 H   0  0  0  0  0  0  0  0  0  0  0  0
   32.0090   35.4300   13.7950 C   0  0  0  0  0  0  0  0  0  0  0  0
   31.1410   35.0410   12.9440 O   0  0  0  0  0  0  0  0  0  0  0  0
   32.1920   36.8130   13.9880 O   0  0  0  0  0  0  0  0  0  0  0  0
   32.0240   37.1800   14.9330 H   0  0  0  0  0  0  0  0  0  0  0  0
   33.0780   35.6610   18.0680 O   0  0  0  0  0  0  0  0  0  0  0  0
   33.8320   36.2990   18.0000 H   0  0  0  0  0  0  0  0  0  0  0  0
   30.0710   35.0160   17.3650 N   0  0  0  0  0  0  0  0  0  0  0  0
   29.6650   35.0630   18.7250 C   0  0  0  0  0  0  0  0  0  0  0  0
   29.4400   35.4100   16.6060 H   0  0  0  0  0  0  0  0  0  0  0  0
   28.3500   35.6680   19.0610 C   0  0  0  0  0  0  0  0  0  0  0  0
   30.4110   34.5970   19.6530 O   0  0  0  0  0  0  0  0  0  0  0  0
   30.7180   32.1140   17.5730 O   0  0  0  0  0  0  0  0  0  0  0  0
   31.6320   31.9880   17.8820 H   0  0  0  0  0  0  0  0  0  0  0  0
   28.2180   32.7040   16.5200 O   0  0  0  0  0  0  0  0  0  0  0  0
   28.7200   33.1860   17.2310 H   0  0  0  0  0  0  0  0  0  0  0  0
   27.3450   28.4600   18.2410 O   0  0  0  0  0  0  0  0  0  0  0  0
   27.3610   29.0450   19.5290 C   0  0  0  0  0  0  0  0  0  0  0  0
   28.7160   28.9890   20.1090 C   0  0  0  0  0  0  0  0  0  0  0  0
   29.6100   30.0240   20.3240 C   0  0  0  0  0  0  0  0  0  0  0  0
   29.3610   27.8880   20.5510 N   0  0  0  0  0  0  0  0  0  0  0  0
   30.7390   29.5310   20.8750 N   0  0  0  0  0  0  0  0  0  0  0  0
   30.5440   28.2150   20.9970 N   0  0  0  0  0  0  0  0  0  0  0  0
   31.9120   30.2130   21.2610 C   0  0  0  0  0  0  0  0  0  0  0  0
   31.9730   31.5940   21.2770 C   0  0  0  0  0  0  0  0  0  0  0  0
   33.0450   29.5270   21.6400 C   0  0  0  0  0  0  0  0  0  0  0  0
   33.1010   32.3000   21.6480 C   0  0  0  0  0  0  0  0  0  0  0  0
   34.1970   30.2100   22.0210 C   0  0  0  0  0  0  0  0  0  0  0  0
   34.2140   31.5820   22.0210 C   0  0  0  0  0  0  0  0  0  0  0  0
   33.1360   33.7580   21.6560 C   0  0  0  0  0  0  0  0  0  0  0  0
   32.5520   34.3830   22.5750 O   0  0  0  0  0  0  0  0  0  0  0  0
   33.7940   34.4940   20.6840 O   0  0  0  0  0  0  0  0  0  0  0  0
   34.9460   35.2660   20.9600 C   0  0  0  0  0  0  0  0  0  0  0  0
   36.1620   34.4460   20.6380 C   0  0  0  0  0  0  0  0  0  0  0  0
   29.8670   25.5550   16.9770 C   0  0  0  0  0  0  0  0  0  0  0  0
   28.3450   25.7220   17.0260 C   0  0  0  0  0  0  0  0  0  0  0  0
   27.6010   24.4020   16.8890 C   0  0  0  0  0  0  0  0  0  0  0  0
   26.1530   24.5260   17.2720 C   0  0  0  0  0  0  0  0  0  0  0  0
   26.0450   24.8310   18.7630 C   0  0  0  0  0  0  0  0  0  0  0  0
   25.5230   23.6540   19.4970 N   0  0  0  0  0  0  0  0  0  0  0  0
  1  2  1  0  0  0  0
  1  4  1  0  0  0  0
  2 31  1  0  0  0  0
  3  2  2  0  0  0  0
  5  1  1  0  0  0  0
  6  5  1  1  0  0  0
  6  7  1  0  0  0  0
  6 29  1  0  0  0  0
  7 27  1  1  0  0  0
  8  7  1  1  0  0  0
  8 13  1  0  0  0  0
  9 14  1  6  0  0  0
  9 11  1  0  0  0  0
  9 10  1  0  0  0  0
 10 12  1  0  0  0  0
 11  8  1  0  0  0  0
 12 13  1  0  0  0  0
 12 20  1  1  0  0  0
 13 22  1  6  0  0  0
 15 14  1  0  0  0  0
 16 18  1  0  0  0  0
 16  9  1  0  0  0  0
 17 16  2  0  0  0  0
 18 19  1  0  0  0  0
 21 20  1  0  0  0  0
 22 23  1  0  0  0  0
 23 25  1  0  0  0  0
 23 26  2  0  0  0  0
 24 22  1  0  0  0  0
 27 28  1  0  0  0  0
 29 30  1  0  0  0  0
 31 32  1  0  0  0  0
 32 33  1  0  0  0  0
 33 34  2  0  0  0  0
 33 35  1  0  0  0  0
 34 36  1  0  0  0  0
 35 37  2  0  0  0  0
 36 37  1  0  0  0  0
 36 38  1  0  0  0  0
 38 39  2  0  0  0  0
 38 40  1  0  0  0  0
 39 41  1  0  0  0  0
 40 42  2  0  0  0  0
 41 44  1  0  0  0  0
 41 43  2  0  0  0  0
 43 42  1  0  0  0  0
 44 45  2  0  0  0  0
 46 47  1  0  0  0  0
 46 44  1  0  0  0  0
 48 47  1  0  0  0  0
 49 50  1  0  0  0  0
 51 50  1  0  0  0  0
 51 52  1  0  0  0  0
 52 53  1  0  0  0  0
 53 54  1  0  0  0  0
M  END
>  <REMARK>
 VINA RESULT:    -5.138      2.819      6.425
 INTER + INTRA:         -15.465
 INTER:                  -8.842
 INTRA:                  -6.622
 UNBOUND:                -5.671
 SMILES CCOC(=O)c1cccc(-n2cc(COC(=O)NC[C@@H](O)C(O)[C@@H]3O[C@@](O)(C(=O)O)C[C@H](O)[C@H]3NC(C)=O)nn2)c1
 SMILES IDX 18 1 16 2 17 3 19 5 20 6 22 7 24 8 26 9 31 10 25 11 32 12
 SMILES IDX 34 13 27 14 28 16 29 17 30 18 33 20 35 22 36 23 37 25 38 26
 SMILES IDX 23 27 21 29 15 31 14 32 13 33 12 34 39 35 11 36 40 37 10 38
 SMILES IDX 41 39 9 40 6 41 8 42 7 43 4 44 5 45 3 46 2 47 1 48
 H PARENT 18 4 27 15 30 19 33 21 35 24 23 28 21 30
 Flexibility Score: inf
  4 active torsions:
  status: ('A' for Active; 'I' for Inactive)
    1  A    between atoms: CA   and  CB  
    2  A    between atoms: CB   and  CG  
    3  A    between atoms: CG   and  CD  
    4  A    between atoms: CD   and  CE  

>  <TORSDO>
F 18

>  <BEGIN_>
RES LYS A 131

$$$$
ligand_9_pose_4_2HRL.pdbqt
 OpenBabel07062320523D

  6  5  0  0  0  0  0  0  0  0999 V2000
   33.1930   34.6630    9.2900 C   0  0  0  0  0  0  0  0  0  0  0  0
   32.0600   35.3600   10.0340 C   0  0  0  0  0  0  0  0  0  0  0  0
   30.8030   35.5070    9.2160 C   0  0  0  0  0  0  0  0  0  0  0  0
   30.0700   34.1780    9.1150 C   0  0  0  0  0  0  0  0  0  0  0  0
   28.6270   34.3960    8.7000 C   0  0  0  0  0  0  0  0  0  0  0  0
   27.6930   33.6640    9.5990 N   0  0  0  0  0  0  0  0  0  0  0  0
  1  2  1  0  0  0  0
  3  2  1  0  0  0  0
  4  3  1  0  0  0  0
  5  4  1  0  0  0  0
  5  6  1  0  0  0  0
M  END
>  <EGIN_R>
ES LYS A 135

>  <REMARK>
  4 active torsions:
  status: ('A' for Active; 'I' for Inactive)
    5  A    between atoms: CA   and  CB  
    6  A    between atoms: CB   and  CG  
    7  A    between atoms: CG   and  CD  
    8  A    between atoms: CD   and  CE  

$$$$
