ligand_51_pose_10_2HRL.pdbqt
 OpenBabel07062320523D

 53 56  0  0  1  0  0  0  0  0999 V2000
   26.3160   27.3960   19.3880 C   0  0  0  0  0  0  0  0  0  0  0  0
   27.5970   27.6110   20.1520 C   0  0  2  0  0  0  0  0  0  0  0  0
   28.1040   29.0350   20.0500 C   0  0  1  0  0  0  0  0  0  0  0  0
   28.9210   29.3940   21.2960 C   0  0  2  0  0  0  0  0  0  0  0  0
   28.3580   31.4890   22.1880 C   0  0  2  0  0  0  0  0  0  0  0  0
   29.1880   32.0790   21.0760 C   0  0  0  0  0  0  0  0  0  0  0  0
   28.2270   30.1440   22.1910 O   0  0  0  0  0  0  0  0  0  0  0  0
   30.4840   31.3540   20.9790 C   0  0  1  0  0  0  0  0  0  0  0  0
   30.2920   29.8610   20.9720 C   0  0  1  0  0  0  0  0  0  0  0  0
   27.0660   32.0340   22.0050 O   0  0  0  0  0  0  0  0  0  0  0  0
   27.1520   33.0160   22.1300 H   0  0  0  0  0  0  0  0  0  0  0  0
   28.8790   32.0460   23.4620 C   0  0  0  0  0  0  0  0  0  0  0  0
   29.3620   31.3140   24.3680 O   0  0  0  0  0  0  0  0  0  0  0  0
   28.8440   33.4060   23.6810 O   0  0  0  0  0  0  0  0  0  0  0  0
   28.0040   33.8920   23.9990 H   0  0  0  0  0  0  0  0  0  0  0  0
   31.1380   31.8070   19.8110 O   0  0  0  0  0  0  0  0  0  0  0  0
   31.8150   32.4760   20.0460 H   0  0  0  0  0  0  0  0  0  0  0  0
   31.2240   29.2440   21.9060 N   0  0  0  0  0  0  0  0  0  0  0  0
   31.7180   27.9250   21.7290 C   0  0  0  0  0  0  0  0  0  0  0  0
   31.5530   29.7920   22.7540 H   0  0  0  0  0  0  0  0  0  0  0  0
   32.6570   27.3820   22.7210 C   0  0  0  0  0  0  0  0  0  0  0  0
   31.3260   27.2690   20.7170 O   0  0  0  0  0  0  0  0  0  0  0  0
   28.7740   29.2920   18.8930 O   0  0  0  0  0  0  0  0  0  0  0  0
   29.5830   28.7860   18.7270 H   0  0  0  0  0  0  0  0  0  0  0  0
   28.5290   26.6900   19.6820 O   0  0  0  0  0  0  0  0  0  0  0  0
   29.4340   27.1390   19.6620 H   0  0  0  0  0  0  0  0  0  0  0  0
   26.0210   28.6350   18.6920 N   0  0  0  0  0  0  0  0  0  0  0  0
   25.0550   28.7000   17.6300 C   0  0  0  0  0  0  0  0  0  0  0  0
   26.4890   29.5450   18.9170 H   0  0  0  0  0  0  0  0  0  0  0  0
   24.4640   27.6350   17.3220 O   0  0  0  0  0  0  0  0  0  0  0  0
   24.7660   29.8650   16.9620 O   0  0  0  0  0  0  0  0  0  0  0  0
   25.2910   30.0650   15.6690 C   0  0  0  0  0  0  0  0  0  0  0  0
   26.7430   30.4000   15.8270 C   0  0  0  0  0  0  0  0  0  0  0  0
   27.2520   31.6840   15.7770 C   0  0  0  0  0  0  0  0  0  0  0  0
   27.7930   29.6080   16.0290 N   0  0  0  0  0  0  0  0  0  0  0  0
   28.5640   31.6120   15.9490 N   0  0  0  0  0  0  0  0  0  0  0  0
   28.8810   30.3440   16.1010 N   0  0  0  0  0  0  0  0  0  0  0  0
   29.4640   32.7690   15.9600 C   0  0  2  0  0  0  0  0  0  0  0  0
   30.8750   32.2120   15.8230 C   0  0  0  0  0  0  0  0  0  0  0  0
   29.3280   33.5390   17.2370 C   0  0  0  0  0  0  0  0  0  0  0  0
   29.1280   33.6740   14.8010 C   0  0  0  0  0  0  0  0  0  0  0  0
   31.8620   33.3630   15.8000 C   0  0  1  0  0  0  0  0  0  0  0  0
   30.3550   34.6490   17.2310 C   0  0  1  0  0  0  0  0  0  0  0  0
   30.1220   34.8140   14.7690 C   0  0  2  0  0  0  0  0  0  0  0  0
   31.5270   34.2520   14.6390 C   0  0  0  0  0  0  0  0  0  0  0  0
   31.7430   34.0940   17.1140 C   0  0  0  0  0  0  0  0  0  0  0  0
   30.0220   35.5640   16.0750 C   0  0  0  0  0  0  0  0  0  0  0  0
   29.8670   25.5550   16.9770 C   0  0  0  0  0  0  0  0  0  0  0  0
   28.3450   25.7220   17.0260 C   0  0  0  0  0  0  0  0  0  0  0  0
   27.6010   24.4020   16.8950 C   0  0  0  0  0  0  0  0  0  0  0  0
   26.1490   24.5310   17.2620 C   0  0  0  0  0  0  0  0  0  0  0  0
   25.7770   23.4410   18.2620 C   0  0  0  0  0  0  0  0  0  0  0  0
   25.0510   22.3410   17.5850 N   0  0  0  0  0  0  0  0  0  0  0  0
  2  1  1  6  0  0  0
  3 23  1  6  0  0  0
  3  2  1  0  0  0  0
  4  3  1  6  0  0  0
  4  7  1  0  0  0  0
  5 10  1  6  0  0  0
  5  7  1  0  0  0  0
  5 12  1  0  0  0  0
  6  5  1  0  0  0  0
  8 16  1  6  0  0  0
  8  6  1  0  0  0  0
  9  8  1  0  0  0  0
  9  4  1  0  0  0  0
  9 18  1  1  0  0  0
 10 11  1  0  0  0  0
 12 14  1  0  0  0  0
 12 13  2  0  0  0  0
 14 15  1  0  0  0  0
 16 17  1  0  0  0  0
 18 20  1  0  0  0  0
 19 18  1  0  0  0  0
 19 21  1  0  0  0  0
 22 19  2  0  0  0  0
 24 23  1  0  0  0  0
 25  2  1  0  0  0  0
 26 25  1  0  0  0  0
 27 29  1  0  0  0  0
 27  1  1  0  0  0  0
 28 27  1  0  0  0  0
 30 28  2  0  0  0  0
 31 28  1  0  0  0  0
 32 33  1  0  0  0  0
 32 31  1  0  0  0  0
 33 35  1  0  0  0  0
 34 33  2  0  0  0  0
 34 36  1  0  0  0  0
 35 37  2  0  0  0  0
 36 38  1  0  0  0  0
 36 37  1  0  0  0  0
 38 41  1  6  0  0  0
 38 40  1  0  0  0  0
 39 38  1  0  0  0  0
 42 45  1  6  0  0  0
 42 39  1  0  0  0  0
 42 46  1  0  0  0  0
 43 47  1  6  0  0  0
 43 40  1  0  0  0  0
 44 45  1  1  0  0  0
 44 41  1  0  0  0  0
 44 47  1  0  0  0  0
 46 43  1  0  0  0  0
 48 49  1  0  0  0  0
 50 49  1  0  0  0  0
 50 51  1  0  0  0  0
 51 52  1  0  0  0  0
 53 52  1  0  0  0  0
M  END
>  <REMARK>
 VINA RESULT:    -4.765      2.094      3.498
 INTER + INTRA:         -14.801
 INTER:                  -8.367
 INTRA:                  -6.434
 UNBOUND:                -6.554
 SMILES CC(=O)N[C@@H]1[C@@H](O)C[C@](O)(C(=O)O)O[C@H]1C(O)[C@H](O)CNC(=O)OCc1cn(C23CC4CC(CC(C4)C2)C3)nn1
 SMILES IDX 20 1 18 2 16 3 15 4 9 5 8 6 14 7 6 8 5 9 10 10 11 12 12 13
 SMILES IDX 13 14 7 16 4 18 2 19 1 21 3 22 17 23 19 25 21 27 22 28 23 30
 SMILES IDX 24 31 25 32 26 33 27 34 40 35 28 36 39 37 29 38 38 39 37 40
 SMILES IDX 30 41 33 42 35 43 31 44 32 45 34 46 36 47
 H PARENT 10 11 13 15 7 17 4 20 17 24 19 26 21 29
 Flexibility Score: inf
  4 active torsions:
  status: ('A' for Active; 'I' for Inactive)
    1  A    between atoms: CA   and  CB  
    2  A    between atoms: CB   and  CG  
    3  A    between atoms: CG   and  CD  
    4  A    between atoms: CD   and  CE  

>  <TORSDO>
F 15

>  <BEGIN_>
RES LYS A 131

$$$$
ligand_51_pose_10_2HRL.pdbqt
 OpenBabel07062320523D

  6  5  0  0  0  0  0  0  0  0999 V2000
   33.1930   34.6630    9.2900 C   0  0  0  0  0  0  0  0  0  0  0  0
   32.0600   35.3600   10.0340 C   0  0  0  0  0  0  0  0  0  0  0  0
   30.7210   34.6940    9.8530 C   0  0  0  0  0  0  0  0  0  0  0  0
   30.2950   34.7330    8.3930 C   0  0  0  0  0  0  0  0  0  0  0  0
   28.8000   34.5130    8.2680 C   0  0  0  0  0  0  0  0  0  0  0  0
   28.2460   33.8790    9.4970 N   0  0  0  0  0  0  0  0  0  0  0  0
  1  2  1  0  0  0  0
  3  2  1  0  0  0  0
  4  3  1  0  0  0  0
  5  4  1  0  0  0  0
  5  6  1  0  0  0  0
M  END
>  <EGIN_R>
ES LYS A 135

>  <REMARK>
  4 active torsions:
  status: ('A' for Active; 'I' for Inactive)
    5  A    between atoms: CA   and  CB  
    6  A    between atoms: CB   and  CG  
    7  A    between atoms: CG   and  CD  
    8  A    between atoms: CD   and  CE  

$$$$
