ligand_17_pose_11_2HRL.pdbqt
 OpenBabel07062320523D

 50 50  0  0  1  0  0  0  0  0999 V2000
   32.3000   33.4650   14.9840 N   0  0  0  0  0  0  0  0  0  0  0  0
   31.4510   32.9750   16.0230 C   0  0  0  0  0  0  0  0  0  0  0  0
   31.2310   33.6710   17.0290 O   0  0  0  0  0  0  0  0  0  0  0  0
   32.4400   32.8310   14.1780 H   0  0  0  0  0  0  0  0  0  0  0  0
   32.9400   34.7430   15.0150 C   0  0  0  0  0  0  0  0  0  0  0  0
   33.4300   35.2140   13.6750 C   0  0  2  0  0  0  0  0  0  0  0  0
   32.2670   35.6630   12.8180 C   0  0  1  0  0  0  0  0  0  0  0  0
   31.3940   36.6480   13.5420 C   0  0  2  0  0  0  0  0  0  0  0  0
   29.4930   35.2710   13.6960 C   0  0  2  0  0  0  0  0  0  0  0  0
   28.8960   36.0160   12.5100 C   0  0  0  0  0  0  0  0  0  0  0  0
   30.4920   35.9620   14.3150 O   0  0  0  0  0  0  0  0  0  0  0  0
   29.2470   37.4940   12.7110 C   0  0  1  0  0  0  0  0  0  0  0  0
   30.7270   37.6100   12.6230 C   0  0  1  0  0  0  0  0  0  0  0  0
   29.8360   33.9960   13.2510 O   0  0  0  0  0  0  0  0  0  0  0  0
   30.5030   33.5720   13.8610 H   0  0  0  0  0  0  0  0  0  0  0  0
   28.4000   35.1060   14.7060 C   0  0  0  0  0  0  0  0  0  0  0  0
   27.2110   34.9070   14.3790 O   0  0  0  0  0  0  0  0  0  0  0  0
   28.7190   35.1770   16.0460 O   0  0  0  0  0  0  0  0  0  0  0  0
   28.0490   35.0170   16.7920 H   0  0  0  0  0  0  0  0  0  0  0  0
   28.5760   38.2230   11.7300 O   0  0  0  0  0  0  0  0  0  0  0  0
   29.2920   38.7120   11.2130 H   0  0  0  0  0  0  0  0  0  0  0  0
   31.2030   38.9710   12.7850 N   0  0  0  0  0  0  0  0  0  0  0  0
   31.3570   39.8770   11.6970 C   0  0  0  0  0  0  0  0  0  0  0  0
   31.4610   39.3550   13.7380 H   0  0  0  0  0  0  0  0  0  0  0  0
   31.8540   41.2710   11.9220 C   0  0  0  0  0  0  0  0  0  0  0  0
   31.0790   39.5170   10.5370 O   0  0  0  0  0  0  0  0  0  0  0  0
   32.8660   36.2330   11.6790 O   0  0  0  0  0  0  0  0  0  0  0  0
   32.2610   36.9730   11.4050 H   0  0  0  0  0  0  0  0  0  0  0  0
   34.2400   34.2770   13.1010 O   0  0  0  0  0  0  0  0  0  0  0  0
   34.9630   34.0270   13.7280 H   0  0  0  0  0  0  0  0  0  0  0  0
   30.8440   31.7320   15.9620 O   0  0  0  0  0  0  0  0  0  0  0  0
   29.4390   31.5820   15.8130 C   0  0  0  0  0  0  0  0  0  0  0  0
   28.9360   30.8070   16.9750 C   0  0  0  0  0  0  0  0  0  0  0  0
   29.5320   30.8350   18.2360 C   0  0  0  0  0  0  0  0  0  0  0  0
   27.8940   29.9750   17.0930 N   0  0  0  0  0  0  0  0  0  0  0  0
   28.8330   30.0350   19.0370 N   0  0  0  0  0  0  0  0  0  0  0  0
   27.8460   29.5220   18.3350 N   0  0  0  0  0  0  0  0  0  0  0  0
   29.1040   29.7710   20.4240 C   0  0  0  0  0  0  0  0  0  0  0  0
   30.4610   30.3530   20.7750 C   0  0  0  0  0  0  0  0  0  0  0  0
   31.3160   29.4380   21.4590 N   0  0  0  0  0  0  0  0  0  0  0  0
   32.2200   30.0340   22.3860 C   0  0  0  0  0  0  0  0  0  0  0  0
   33.6140   29.9860   21.7450 C   0  0  0  0  0  0  0  0  0  0  0  0
   31.8410   28.4090   20.6260 C   0  0  0  0  0  0  0  0  0  0  0  0
   31.5170   27.0220   21.0850 C   0  0  0  0  0  0  0  0  0  0  0  0
   29.8670   25.5550   16.9770 C   0  0  0  0  0  0  0  0  0  0  0  0
   28.3450   25.7220   17.0260 C   0  0  0  0  0  0  0  0  0  0  0  0
   27.5990   24.4730   16.5810 C   0  0  0  0  0  0  0  0  0  0  0  0
   27.1300   23.6480   17.7470 C   0  0  0  0  0  0  0  0  0  0  0  0
   25.6730   23.2500   17.5350 C   0  0  0  0  0  0  0  0  0  0  0  0
   24.8990   24.3870   16.9830 N   0  0  0  0  0  0  0  0  0  0  0  0
  1  5  1  0  0  0  0
  1  2  1  0  0  0  0
  2  3  2  0  0  0  0
  4  1  1  0  0  0  0
  6  5  1  1  0  0  0
  7 27  1  6  0  0  0
  7  6  1  0  0  0  0
  8  7  1  6  0  0  0
  8 11  1  0  0  0  0
  9 14  1  6  0  0  0
  9 11  1  0  0  0  0
  9 16  1  0  0  0  0
 10 12  1  0  0  0  0
 10  9  1  0  0  0  0
 12 20  1  6  0  0  0
 13 12  1  0  0  0  0
 13 22  1  1  0  0  0
 13  8  1  0  0  0  0
 14 15  1  0  0  0  0
 16 18  1  0  0  0  0
 17 16  2  0  0  0  0
 18 19  1  0  0  0  0
 21 20  1  0  0  0  0
 22 24  1  0  0  0  0
 23 25  1  0  0  0  0
 23 22  1  0  0  0  0
 26 23  2  0  0  0  0
 28 27  1  0  0  0  0
 29  6  1  0  0  0  0
 29 30  1  0  0  0  0
 31  2  1  0  0  0  0
 32 31  1  0  0  0  0
 32 33  1  0  0  0  0
 33 35  1  0  0  0  0
 33 34  2  0  0  0  0
 34 36  1  0  0  0  0
 35 37  2  0  0  0  0
 36 38  1  0  0  0  0
 37 36  1  0  0  0  0
 38 39  1  0  0  0  0
 39 40  1  0  0  0  0
 40 41  1  0  0  0  0
 42 41  1  0  0  0  0
 43 44  1  0  0  0  0
 43 40  1  0  0  0  0
 45 46  1  0  0  0  0
 47 46  1  0  0  0  0
 47 48  1  0  0  0  0
 49 48  1  0  0  0  0
 50 49  1  0  0  0  0
M  END
>  <REMARK>
 VINA RESULT:    -3.574      3.804      8.538
 INTER + INTRA:         -14.179
 INTER:                  -9.312
 INTRA:                  -4.867
 UNBOUND:                -7.158
 SMILES CCN(CC)CCn1cc(COC(=O)NC[C@@H](O)C(O)[C@@H]2O[C@@](O)(C(=O)O)C[C@H](O)[C@H]2NC(C)=O)nn1
 SMILES IDX 15 1 13 2 14 3 16 5 17 6 19 7 21 8 23 9 28 10 22 11 29 12
 SMILES IDX 31 13 24 14 25 16 26 17 27 18 30 20 32 22 33 23 34 25 35 26
 SMILES IDX 20 27 18 29 12 31 11 32 10 33 9 34 36 35 8 36 37 37 7 38
 SMILES IDX 6 39 3 40 2 41 1 42 4 43 5 44
 H PARENT 15 4 24 15 27 19 30 21 32 24 20 28 18 30
 Flexibility Score: inf
  4 active torsions:
  status: ('A' for Active; 'I' for Inactive)
    1  A    between atoms: CA   and  CB  
    2  A    between atoms: CB   and  CG  
    3  A    between atoms: CG   and  CD  
    4  A    between atoms: CD   and  CE  

>  <TORSDO>
F 19

>  <BEGIN_>
RES LYS A 131

$$$$
ligand_17_pose_11_2HRL.pdbqt
 OpenBabel07062320523D

  6  5  0  0  0  0  0  0  0  0999 V2000
   33.1930   34.6630    9.2900 C   0  0  0  0  0  0  0  0  0  0  0  0
   32.0600   35.3600   10.0340 C   0  0  0  0  0  0  0  0  0  0  0  0
   30.7010   35.1110    9.4330 C   0  0  0  0  0  0  0  0  0  0  0  0
   30.0770   36.4140    8.9570 C   0  0  0  0  0  0  0  0  0  0  0  0
   28.6270   36.1990    8.5690 C   0  0  0  0  0  0  0  0  0  0  0  0
   28.3390   34.7550    8.3460 N   0  0  0  0  0  0  0  0  0  0  0  0
  1  2  1  0  0  0  0
  3  2  1  0  0  0  0
  4  3  1  0  0  0  0
  5  4  1  0  0  0  0
  6  5  1  0  0  0  0
M  END
>  <EGIN_R>
ES LYS A 135

>  <REMARK>
  4 active torsions:
  status: ('A' for Active; 'I' for Inactive)
    5  A    between atoms: CA   and  CB  
    6  A    between atoms: CB   and  CG  
    7  A    between atoms: CG   and  CD  
    8  A    between atoms: CD   and  CE  

$$$$
