ligand_50_pose_12_2HRL.pdbqt
 OpenBabel07062320523D

 50 50  0  0  1  0  0  0  0  0999 V2000
   33.7120   35.7260   18.6030 N   0  0  0  0  0  0  0  0  0  0  0  0
   33.4220   35.4260   19.9570 C   0  0  0  0  0  0  0  0  0  0  0  0
   32.9540   36.2870   20.7240 O   0  0  0  0  0  0  0  0  0  0  0  0
   34.1110   34.9230   18.0300 H   0  0  0  0  0  0  0  0  0  0  0  0
   33.4830   37.0210   18.0580 C   0  0  0  0  0  0  0  0  0  0  0  0
   32.5250   37.0260   16.8870 C   0  0  2  0  0  0  0  0  0  0  0  0
   32.4910   35.5990   16.3540 C   0  0  1  0  0  0  0  0  0  0  0  0
   31.0850   35.2580   15.8480 C   0  0  2  0  0  0  0  0  0  0  0  0
   30.6210   32.9870   15.6830 C   0  0  2  0  0  0  0  0  0  0  0  0
   29.5190   33.2470   14.6740 C   0  0  0  0  0  0  0  0  0  0  0  0
   30.7030   34.1060   16.4760 O   0  0  0  0  0  0  0  0  0  0  0  0
   29.9810   34.3450   13.7800 C   0  0  1  0  0  0  0  0  0  0  0  0
   31.0750   35.2080   14.3530 C   0  0  1  0  0  0  0  0  0  0  0  0
   31.7800   32.7330   14.9530 O   0  0  0  0  0  0  0  0  0  0  0  0
   32.3370   33.5350   14.8330 H   0  0  0  0  0  0  0  0  0  0  0  0
   30.3040   31.8180   16.5420 C   0  0  0  0  0  0  0  0  0  0  0  0
   29.7290   30.8280   16.0210 O   0  0  0  0  0  0  0  0  0  0  0  0
   30.6380   31.8320   17.8750 O   0  0  0  0  0  0  0  0  0  0  0  0
   29.9500   31.6000   18.5840 H   0  0  0  0  0  0  0  0  0  0  0  0
   30.4840   33.7620   12.6100 O   0  0  0  0  0  0  0  0  0  0  0  0
   30.1170   32.8650   12.5100 H   0  0  0  0  0  0  0  0  0  0  0  0
   30.8810   36.5320   13.8020 N   0  0  0  0  0  0  0  0  0  0  0  0
   31.7060   36.9670   12.7320 C   0  0  0  0  0  0  0  0  0  0  0  0
   30.1530   37.1930   14.1590 H   0  0  0  0  0  0  0  0  0  0  0  0
   31.5500   38.3330   12.1210 C   0  0  0  0  0  0  0  0  0  0  0  0
   32.6100   36.2520   12.2300 O   0  0  0  0  0  0  0  0  0  0  0  0
   33.4530   35.4520   15.3840 O   0  0  0  0  0  0  0  0  0  0  0  0
   33.0940   34.9830   14.5790 H   0  0  0  0  0  0  0  0  0  0  0  0
   32.9590   37.9150   15.9040 O   0  0  0  0  0  0  0  0  0  0  0  0
   32.3070   38.6410   15.8610 H   0  0  0  0  0  0  0  0  0  0  0  0
   33.6520   34.1440   20.4790 O   0  0  0  0  0  0  0  0  0  0  0  0
   33.0150   33.7900   21.6720 C   0  0  0  0  0  0  0  0  0  0  0  0
   31.9120   32.8210   21.4480 C   0  0  0  0  0  0  0  0  0  0  0  0
   31.8070   31.5630   21.9660 C   0  0  0  0  0  0  0  0  0  0  0  0
   30.8270   33.0160   20.6940 N   0  0  0  0  0  0  0  0  0  0  0  0
   30.6420   31.0420   21.4960 N   0  0  0  0  0  0  0  0  0  0  0  0
   30.0550   31.9410   20.7200 N   0  0  0  0  0  0  0  0  0  0  0  0
   30.1430   29.7040   21.8120 C   0  0  0  0  0  0  0  0  0  0  0  0
   30.5240   28.8250   20.6370 C   0  0  1  0  0  0  0  0  0  0  0  0
   30.9010   29.6250   19.5650 O   0  0  0  0  0  0  0  0  0  0  0  0
   31.3880   30.4130   19.9280 H   0  0  0  0  0  0  0  0  0  0  0  0
   31.6860   27.9040   21.0240 C   0  0  0  0  0  0  0  0  0  0  0  0
   32.0960   27.1830   19.9010 O   0  0  0  0  0  0  0  0  0  0  0  0
   32.0970   26.2040   20.1210 H   0  0  0  0  0  0  0  0  0  0  0  0
   29.8670   25.5550   16.9770 C   0  0  0  0  0  0  0  0  0  0  0  0
   28.3450   25.7220   17.0260 C   0  0  0  0  0  0  0  0  0  0  0  0
   27.5990   24.4750   16.5760 C   0  0  0  0  0  0  0  0  0  0  0  0
   27.1600   23.6270   17.7370 C   0  0  0  0  0  0  0  0  0  0  0  0
   25.6810   23.2870   17.5890 C   0  0  0  0  0  0  0  0  0  0  0  0
   24.9470   24.4170   16.9720 N   0  0  0  0  0  0  0  0  0  0  0  0
  1  2  1  0  0  0  0
  2 31  1  0  0  0  0
  2  3  2  0  0  0  0
  4  1  1  0  0  0  0
  5  1  1  0  0  0  0
  6  5  1  1  0  0  0
  7 27  1  6  0  0  0
  7  6  1  0  0  0  0
  8  7  1  1  0  0  0
  8 11  1  0  0  0  0
  9 14  1  6  0  0  0
  9 11  1  0  0  0  0
  9 16  1  0  0  0  0
 10  9  1  0  0  0  0
 12 20  1  6  0  0  0
 12 13  1  0  0  0  0
 12 10  1  0  0  0  0
 13 22  1  6  0  0  0
 13  8  1  0  0  0  0
 15 14  1  0  0  0  0
 16 18  1  0  0  0  0
 17 16  2  0  0  0  0
 18 19  1  0  0  0  0
 21 20  1  0  0  0  0
 22 24  1  0  0  0  0
 23 22  1  0  0  0  0
 25 23  1  0  0  0  0
 26 23  2  0  0  0  0
 28 27  1  0  0  0  0
 29  6  1  0  0  0  0
 30 29  1  0  0  0  0
 31 32  1  0  0  0  0
 33 32  1  0  0  0  0
 33 34  2  0  0  0  0
 35 37  2  0  0  0  0
 35 33  1  0  0  0  0
 36 38  1  0  0  0  0
 36 34  1  0  0  0  0
 37 36  1  0  0  0  0
 39 42  1  1  0  0  0
 39 38  1  0  0  0  0
 40 41  1  0  0  0  0
 40 39  1  0  0  0  0
 43 44  1  0  0  0  0
 43 42  1  0  0  0  0
 45 46  1  0  0  0  0
 47 46  1  0  0  0  0
 47 48  1  0  0  0  0
 49 48  1  0  0  0  0
 50 49  1  0  0  0  0
M  END
>  <REMARK>
 VINA RESULT:    -4.575      2.645      8.107
 INTER + INTRA:         -14.198
 INTER:                  -7.850
 INTRA:                  -6.348
 UNBOUND:                -5.477
 SMILES CC(=O)N[C@@H]1[C@@H](O)C[C@](O)(C(=O)O)O[C@H]1C(O)[C@H](O)CNC(=O)OCc1cn(CC(O)CO)nn1
 SMILES IDX 21 1 22 2 23 3 20 5 18 6 16 7 15 8 9 9 8 10 14 11 6 12 5 13
 SMILES IDX 10 14 11 16 12 17 13 18 7 20 4 22 2 23 1 25 3 26 17 27 19 29
 SMILES IDX 24 31 25 32 26 33 27 34 35 35 28 36 34 37 29 38 30 39 31 40
 SMILES IDX 32 42 33 43
 H PARENT 21 4 10 15 13 19 7 21 4 24 17 28 19 30 31 41 33 44
 Flexibility Score: inf
  4 active torsions:
  status: ('A' for Active; 'I' for Inactive)
    1  A    between atoms: CA   and  CB  
    2  A    between atoms: CB   and  CG  
    3  A    between atoms: CG   and  CD  
    4  A    between atoms: CD   and  CE  

>  <TORSDO>
F 19

>  <BEGIN_>
RES LYS A 131

$$$$
ligand_50_pose_12_2HRL.pdbqt
 OpenBabel07062320523D

  6  5  0  0  0  0  0  0  0  0999 V2000
   33.1930   34.6630    9.2900 C   0  0  0  0  0  0  0  0  0  0  0  0
   32.0600   35.3600   10.0340 C   0  0  0  0  0  0  0  0  0  0  0  0
   30.7750   35.4260    9.2500 C   0  0  0  0  0  0  0  0  0  0  0  0
   30.2190   34.0300    9.0130 C   0  0  0  0  0  0  0  0  0  0  0  0
   28.7250   34.0000    9.2770 C   0  0  0  0  0  0  0  0  0  0  0  0
   28.3440   34.9950   10.3180 N   0  0  0  0  0  0  0  0  0  0  0  0
  1  2  1  0  0  0  0
  3  2  1  0  0  0  0
  4  3  1  0  0  0  0
  4  5  1  0  0  0  0
  5  6  1  0  0  0  0
M  END
>  <EGIN_R>
ES LYS A 135

>  <REMARK>
  4 active torsions:
  status: ('A' for Active; 'I' for Inactive)
    5  A    between atoms: CA   and  CB  
    6  A    between atoms: CB   and  CG  
    7  A    between atoms: CG   and  CD  
    8  A    between atoms: CD   and  CE  

$$$$
