ligand_31_pose_18_2HRL.pdbqt
 OpenBabel07062320523D

 57 58  0  0  1  0  0  0  0  0999 V2000
   30.3210   32.9230   17.4920 O   0  0  0  0  0  0  0  0  0  0  0  0
   28.9470   32.7100   17.4630 C   0  0  0  0  0  0  0  0  0  0  0  0
   28.2820   31.9430   16.4960 N   0  0  0  0  0  0  0  0  0  0  0  0
   28.8170   31.4910   15.7400 H   0  0  0  0  0  0  0  0  0  0  0  0
   28.2610   33.2480   18.3720 O   0  0  0  0  0  0  0  0  0  0  0  0
   26.8260   31.7850   16.5600 C   0  0  0  0  0  0  0  0  0  0  0  0
   26.1800   32.9070   15.7920 C   0  0  2  0  0  0  0  0  0  0  0  0
   25.0700   32.4300   14.8980 C   0  0  1  0  0  0  0  0  0  0  0  0
   24.7470   33.4030   13.8020 C   0  0  2  0  0  0  0  0  0  0  0  0
   24.6180   35.7160   13.4930 C   0  0  2  0  0  0  0  0  0  0  0  0
   23.6650   35.5500   12.3550 C   0  0  0  0  0  0  0  0  0  0  0  0
   24.6660   34.6850   14.3750 O   0  0  0  0  0  0  0  0  0  0  0  0
   23.3360   34.1600   11.9900 C   0  0  1  0  0  0  0  0  0  0  0  0
   23.3960   33.1990   13.1630 C   0  0  1  0  0  0  0  0  0  0  0  0
   24.1420   36.8360   14.2210 O   0  0  0  0  0  0  0  0  0  0  0  0
   24.2470   36.6930   15.1940 H   0  0  0  0  0  0  0  0  0  0  0  0
   25.9920   36.0600   13.0500 C   0  0  0  0  0  0  0  0  0  0  0  0
   26.2230   36.4930   11.8860 O   0  0  0  0  0  0  0  0  0  0  0  0
   27.1020   35.9270   13.8760 O   0  0  0  0  0  0  0  0  0  0  0  0
   26.9820   35.6570   14.8470 H   0  0  0  0  0  0  0  0  0  0  0  0
   22.0530   34.1100   11.4040 O   0  0  0  0  0  0  0  0  0  0  0  0
   22.0870   34.2770   10.4410 H   0  0  0  0  0  0  0  0  0  0  0  0
   23.1020   31.8720   12.7430 N   0  0  0  0  0  0  0  0  0  0  0  0
   21.7670   31.3820   12.8920 C   0  0  0  0  0  0  0  0  0  0  0  0
   23.7940   31.2170   12.3210 H   0  0  0  0  0  0  0  0  0  0  0  0
   21.3610   30.0190   12.4860 C   0  0  0  0  0  0  0  0  0  0  0  0
   20.8770   32.1310   13.3890 O   0  0  0  0  0  0  0  0  0  0  0  0
   25.2260   31.1250   14.4670 O   0  0  0  0  0  0  0  0  0  0  0  0
   26.1690   30.8250   14.4270 H   0  0  0  0  0  0  0  0  0  0  0  0
   27.1860   33.3900   14.9110 O   0  0  0  0  0  0  0  0  0  0  0  0
   27.2250   32.6890   14.1900 H   0  0  0  0  0  0  0  0  0  0  0  0
   31.1420   32.5850   16.3930 C   0  0  0  0  0  0  0  0  0  0  0  0
   30.8820   33.5550   15.3070 C   0  0  0  0  0  0  0  0  0  0  0  0
   31.5550   34.7210   15.0630 C   0  0  0  0  0  0  0  0  0  0  0  0
   29.9320   33.4530   14.3640 N   0  0  0  0  0  0  0  0  0  0  0  0
   30.9970   35.2950   13.9820 N   0  0  0  0  0  0  0  0  0  0  0  0
   30.0110   34.5200   13.5590 N   0  0  0  0  0  0  0  0  0  0  0  0
   31.3880   36.5590   13.3520 C   0  0  0  0  0  0  0  0  0  0  0  0
   30.2390   37.5190   13.5130 C   0  0  0  0  0  0  0  0  0  0  0  0
   29.2950   37.3180   12.4430 N   0  0  0  0  0  0  0  0  0  0  0  0
   29.2330   38.1130   11.2740 C   0  0  0  0  0  0  0  0  0  0  0  0
   28.5900   36.5300   12.5080 H   0  0  0  0  0  0  0  0  0  0  0  0
   30.0620   39.0650   11.1530 O   0  0  0  0  0  0  0  0  0  0  0  0
   28.2630   37.8360   10.2760 N   0  0  0  0  0  0  0  0  0  0  0  0
   27.5750   37.0640   10.3500 H   0  0  0  0  0  0  0  0  0  0  0  0
   28.2310   38.6700    9.0960 C   0  0  0  0  0  0  0  0  0  0  0  0
   28.1440   37.7960    7.9070 C   0  0  0  0  0  0  0  0  0  0  0  0
   27.0330   37.0180    7.5960 C   0  0  0  0  0  0  0  0  0  0  0  0
   29.0480   37.6140    6.9960 O   0  0  0  0  0  0  0  0  0  0  0  0
   27.3580   36.3650    6.4270 C   0  0  0  0  0  0  0  0  0  0  0  0
   28.6330   36.7770    6.0960 C   0  0  0  0  0  0  0  0  0  0  0  0
   29.8670   25.5550   16.9770 C   0  0  0  0  0  0  0  0  0  0  0  0
   28.3450   25.7220   17.0260 C   0  0  0  0  0  0  0  0  0  0  0  0
   27.6010   24.4030   16.8860 C   0  0  0  0  0  0  0  0  0  0  0  0
   26.5570   24.2250   17.9530 C   0  0  0  0  0  0  0  0  0  0  0  0
   25.2070   23.9420   17.3030 C   0  0  0  0  0  0  0  0  0  0  0  0
   24.7980   22.5390   17.5460 N   0  0  0  0  0  0  0  0  0  0  0  0
  2  1  1  0  0  0  0
  2  5  2  0  0  0  0
  3  6  1  0  0  0  0
  3  2  1  0  0  0  0
  4  3  1  0  0  0  0
  7  6  1  6  0  0  0
  8 28  1  6  0  0  0
  8  7  1  0  0  0  0
  9 12  1  0  0  0  0
  9  8  1  1  0  0  0
 10 17  1  6  0  0  0
 10 15  1  0  0  0  0
 10 12  1  0  0  0  0
 11 10  1  0  0  0  0
 13 21  1  1  0  0  0
 13 11  1  0  0  0  0
 13 14  1  0  0  0  0
 14 23  1  6  0  0  0
 14  9  1  0  0  0  0
 15 16  1  0  0  0  0
 17 19  1  0  0  0  0
 18 17  2  0  0  0  0
 19 20  1  0  0  0  0
 22 21  1  0  0  0  0
 23 24  1  0  0  0  0
 24 27  2  0  0  0  0
 25 23  1  0  0  0  0
 26 24  1  0  0  0  0
 29 28  1  0  0  0  0
 30  7  1  0  0  0  0
 31 30  1  0  0  0  0
 32  1  1  0  0  0  0
 33 32  1  0  0  0  0
 34 33  2  0  0  0  0
 35 33  1  0  0  0  0
 36 34  1  0  0  0  0
 37 36  1  0  0  0  0
 37 35  2  0  0  0  0
 38 39  1  0  0  0  0
 38 36  1  0  0  0  0
 40 42  1  0  0  0  0
 40 39  1  0  0  0  0
 41 40  1  0  0  0  0
 43 41  2  0  0  0  0
 44 45  1  0  0  0  0
 44 41  1  0  0  0  0
 46 44  1  0  0  0  0
 47 46  1  0  0  0  0
 48 47  2  0  0  0  0
 49 47  1  0  0  0  0
 50 48  1  0  0  0  0
 51 50  2  0  0  0  0
 51 49  1  0  0  0  0
 52 53  1  0  0  0  0
 54 53  1  0  0  0  0
 54 55  1  0  0  0  0
 56 57  1  0  0  0  0
 56 55  1  0  0  0  0
M  END
>  <REMARK>
 VINA RESULT:    -4.806      4.807     10.168
 INTER + INTRA:         -15.351
 INTER:                  -8.138
 INTRA:                  -7.213
 UNBOUND:                -5.909
 SMILES CC(=O)N[C@@H]1[C@@H](O)C[C@](O)(C(=O)O)O[C@H]1C(O)[C@H](O)CNC(=O)OCc1cn(CCNC(=O)NCc2ccco2)nn1
 SMILES IDX 24 1 22 2 21 3 23 5 20 6 18 7 16 8 15 9 9 10 8 11 14 12 6 13
 SMILES IDX 5 14 10 15 11 17 12 18 13 19 7 21 4 23 2 24 1 26 3 27 17 28
 SMILES IDX 19 30 25 32 26 33 27 34 42 35 28 36 41 37 29 38 30 39 31 40
 SMILES IDX 32 41 33 43 34 44 35 46 36 47 37 48 40 49 38 50 39 51
 H PARENT 21 4 10 16 13 20 7 22 4 25 17 29 19 31 31 42 34 45
 Flexibility Score: inf
  4 active torsions:
  status: ('A' for Active; 'I' for Inactive)
    1  A    between atoms: CA   and  CB  
    2  A    between atoms: CB   and  CG  
    3  A    between atoms: CG   and  CD  
    4  A    between atoms: CD   and  CE  

>  <TORSDO>
F 19

>  <BEGIN_>
RES LYS A 131

$$$$
ligand_31_pose_18_2HRL.pdbqt
 OpenBabel07062320523D

  6  5  0  0  0  0  0  0  0  0999 V2000
   33.1930   34.6630    9.2900 C   0  0  0  0  0  0  0  0  0  0  0  0
   32.0600   35.3600   10.0340 C   0  0  0  0  0  0  0  0  0  0  0  0
   30.8170   35.5440    9.2030 C   0  0  0  0  0  0  0  0  0  0  0  0
   30.2850   34.2010    8.7280 C   0  0  0  0  0  0  0  0  0  0  0  0
   28.7990   34.0870    9.0090 C   0  0  0  0  0  0  0  0  0  0  0  0
   28.5070   34.3140   10.4510 N   0  0  0  0  0  0  0  0  0  0  0  0
  1  2  1  0  0  0  0
  3  2  1  0  0  0  0
  4  5  1  0  0  0  0
  4  3  1  0  0  0  0
  5  6  1  0  0  0  0
M  END
>  <EGIN_R>
ES LYS A 135

>  <REMARK>
  4 active torsions:
  status: ('A' for Active; 'I' for Inactive)
    5  A    between atoms: CA   and  CB  
    6  A    between atoms: CB   and  CG  
    7  A    between atoms: CG   and  CD  
    8  A    between atoms: CD   and  CE  

$$$$
