ligand_83_pose_4_2HRL.pdbqt
 OpenBabel07062320523D

 56 57  0  0  1  0  0  0  0  0999 V2000
   27.0820   33.0180   16.7650 O   0  0  0  0  0  0  0  0  0  0  0  0
   28.3280   33.2070   17.3860 C   0  0  0  0  0  0  0  0  0  0  0  0
   28.5950   32.7980   18.6960 N   0  0  0  0  0  0  0  0  0  0  0  0
   27.8040   32.3270   19.2310 H   0  0  0  0  0  0  0  0  0  0  0  0
   29.1990   33.7630   16.7040 O   0  0  0  0  0  0  0  0  0  0  0  0
   29.8610   32.9690   19.3690 C   0  0  0  0  0  0  0  0  0  0  0  0
   30.4710   31.6100   19.5830 C   0  0  2  0  0  0  0  0  0  0  0  0
   29.3600   30.6450   19.9250 C   0  0  2  0  0  0  0  0  0  0  0  0
   29.8370   29.5940   20.9180 C   0  0  2  0  0  0  0  0  0  0  0  0
   31.4020   27.8720   21.0250 C   0  0  2  0  0  0  0  0  0  0  0  0
   30.3580   27.1550   21.8590 C   0  0  0  0  0  0  0  0  0  0  0  0
   30.8020   28.8610   20.2840 O   0  0  0  0  0  0  0  0  0  0  0  0
   29.0010   27.3100   21.2090 C   0  0  1  0  0  0  0  0  0  0  0  0
   28.6280   28.7810   21.3450 C   0  0  1  0  0  0  0  0  0  0  0  0
   31.9910   26.9780   20.1100 O   0  0  0  0  0  0  0  0  0  0  0  0
   31.5270   27.1070   19.2510 H   0  0  0  0  0  0  0  0  0  0  0  0
   32.4670   28.4600   21.8470 C   0  0  0  0  0  0  0  0  0  0  0  0
   32.5700   28.1700   23.0500 O   0  0  0  0  0  0  0  0  0  0  0  0
   33.3710   29.3450   21.2880 O   0  0  0  0  0  0  0  0  0  0  0  0
   33.0780   30.2510   20.9740 H   0  0  0  0  0  0  0  0  0  0  0  0
   29.0110   27.0320   19.8510 O   0  0  0  0  0  0  0  0  0  0  0  0
   29.9230   26.8530   19.5450 H   0  0  0  0  0  0  0  0  0  0  0  0
   28.2550   29.0420   22.7060 N   0  0  0  0  0  0  0  0  0  0  0  0
   26.9560   29.4880   23.0250 C   0  0  0  0  0  0  0  0  0  0  0  0
   28.9150   28.9210   23.5200 H   0  0  0  0  0  0  0  0  0  0  0  0
   26.5750   29.7580   24.4450 C   0  0  0  0  0  0  0  0  0  0  0  0
   26.0950   29.6650   22.1260 O   0  0  0  0  0  0  0  0  0  0  0  0
   29.0010   29.9710   18.7750 O   0  0  0  0  0  0  0  0  0  0  0  0
   28.1810   29.4350   18.8820 H   0  0  0  0  0  0  0  0  0  0  0  0
   31.4670   31.6260   20.5550 O   0  0  0  0  0  0  0  0  0  0  0  0
   31.5550   32.5650   20.8550 H   0  0  0  0  0  0  0  0  0  0  0  0
   26.9660   32.0720   15.6900 C   0  0  0  0  0  0  0  0  0  0  0  0
   26.7640   30.7150   16.1890 C   0  0  0  0  0  0  0  0  0  0  0  0
   25.5820   30.1930   16.6530 C   0  0  0  0  0  0  0  0  0  0  0  0
   27.7050   29.7630   16.2730 N   0  0  0  0  0  0  0  0  0  0  0  0
   25.8430   28.9270   17.0090 N   0  0  0  0  0  0  0  0  0  0  0  0
   27.1120   28.6910   16.7740 N   0  0  0  0  0  0  0  0  0  0  0  0
   24.8400   28.0020   17.5620 C   0  0  0  0  0  0  0  0  0  0  0  0
   24.7160   28.2090   19.0550 C   0  0  2  0  0  0  0  0  0  0  0  0
   26.0060   27.9640   19.5740 O   0  0  0  0  0  0  0  0  0  0  0  0
   26.5510   28.7720   19.6130 H   0  0  0  0  0  0  0  0  0  0  0  0
   23.7190   27.2400   19.6080 C   0  0  0  0  0  0  0  0  0  0  0  0
   23.3000   27.7200   20.9270 N   0  0  0  0  0  0  0  0  0  0  0  0
   22.4290   28.7260   21.1740 C   0  0  0  0  0  0  0  0  0  0  0  0
   23.7200   27.2120   22.0730 C   0  0  0  0  0  0  0  0  0  0  0  0
   22.3100   28.8390   22.5210 C   0  0  0  0  0  0  0  0  0  0  0  0
   23.1000   27.9130   23.0620 N   0  0  0  0  0  0  0  0  0  0  0  0
   24.6490   26.1350   22.2860 N   0  0  0  0  0  0  0  0  0  0  0  0
   25.8770   26.2620   22.1530 O   0  0  0  0  0  0  0  0  0  0  0  0
   24.1630   24.8990   22.6570 O   0  0  0  0  0  0  0  0  0  0  0  0
   29.8670   25.5550   16.9770 C   0  0  0  0  0  0  0  0  0  0  0  0
   28.3450   25.7220   17.0260 C   0  0  0  0  0  0  0  0  0  0  0  0
   27.5990   24.4860   16.5470 C   0  0  0  0  0  0  0  0  0  0  0  0
   27.0080   23.7040   17.6870 C   0  0  0  0  0  0  0  0  0  0  0  0
   26.4060   24.6660   18.7060 C   0  0  0  0  0  0  0  0  0  0  0  0
   25.4330   23.9620   19.5730 N   0  0  0  0  0  0  0  0  0  0  0  0
  1  2  1  0  0  0  0
  2  3  1  0  0  0  0
  3  4  1  0  0  0  0
  3  6  1  0  0  0  0
  5  2  2  0  0  0  0
  7  6  1  1  0  0  0
  7  8  1  0  0  0  0
  7 30  1  0  0  0  0
  8 28  1  6  0  0  0
  9  8  1  6  0  0  0
  9 14  1  0  0  0  0
 10 15  1  6  0  0  0
 10 17  1  0  0  0  0
 10 11  1  0  0  0  0
 12  9  1  0  0  0  0
 12 10  1  0  0  0  0
 13 21  1  6  0  0  0
 13 14  1  0  0  0  0
 13 11  1  0  0  0  0
 14 23  1  1  0  0  0
 16 15  1  0  0  0  0
 17 18  2  0  0  0  0
 19 17  1  0  0  0  0
 20 19  1  0  0  0  0
 22 21  1  0  0  0  0
 23 24  1  0  0  0  0
 23 25  1  0  0  0  0
 24 26  1  0  0  0  0
 27 24  2  0  0  0  0
 28 29  1  0  0  0  0
 30 31  1  0  0  0  0
 32 33  1  0  0  0  0
 32  1  1  0  0  0  0
 33 35  1  0  0  0  0
 33 34  2  0  0  0  0
 34 36  1  0  0  0  0
 35 37  2  0  0  0  0
 36 38  1  0  0  0  0
 37 36  1  0  0  0  0
 39 38  1  6  0  0  0
 39 40  1  0  0  0  0
 39 42  1  0  0  0  0
 40 41  1  0  0  0  0
 42 43  1  0  0  0  0
 43 44  1  0  0  0  0
 43 45  1  0  0  0  0
 44 46  2  0  0  0  0
 45 48  1  0  0  0  0
 45 47  2  0  0  0  0
 46 47  1  0  0  0  0
 48 50  2  0  0  0  0
 49 48  2  0  0  0  0
 51 52  1  0  0  0  0
 53 52  1  0  0  0  0
 53 54  1  0  0  0  0
 54 55  1  0  0  0  0
 55 56  1  0  0  0  0
M  END
>  <REMARK>
 VINA RESULT:    -3.758      2.412      5.744
 INTER + INTRA:         -15.939
 INTER:                  -7.718
 INTRA:                  -8.220
 UNBOUND:                -8.446
 SMILES CC(=O)N[C@@H]1[C@@H](O)C[C@](O)(C(=O)O)O[C@H]1C(O)[C@H](O)CNC(=O)OCc1cn(CC(O)Cn2ccnc2[N+](=O)[O-])nn1
 SMILES IDX 24 1 22 2 21 3 23 5 20 6 18 7 16 8 15 9 9 10 8 11 14 12 6 13
 SMILES IDX 5 14 10 15 11 17 12 18 13 19 7 21 4 23 2 24 1 26 3 27 17 28
 SMILES IDX 19 30 25 32 26 33 27 34 42 35 28 36 41 37 29 38 30 39 31 40
 SMILES IDX 32 42 33 43 34 44 37 45 35 46 36 47 38 48 39 49 40 50
 H PARENT 21 4 10 16 13 20 7 22 4 25 17 29 19 31 31 41
 Flexibility Score: inf
  4 active torsions:
  status: ('A' for Active; 'I' for Inactive)
    1  A    between atoms: CA   and  CB  
    2  A    between atoms: CB   and  CG  
    3  A    between atoms: CG   and  CD  
    4  A    between atoms: CD   and  CE  

>  <TORSDO>
F 20

>  <BEGIN_>
RES LYS A 131

$$$$
ligand_83_pose_4_2HRL.pdbqt
 OpenBabel07062320523D

  6  5  0  0  0  0  0  0  0  0999 V2000
   33.1930   34.6630    9.2900 C   0  0  0  0  0  0  0  0  0  0  0  0
   32.0600   35.3600   10.0340 C   0  0  0  0  0  0  0  0  0  0  0  0
   30.8800   35.6950    9.1580 C   0  0  0  0  0  0  0  0  0  0  0  0
   30.3880   34.4560    8.4250 C   0  0  0  0  0  0  0  0  0  0  0  0
   28.8720   34.4360    8.3730 C   0  0  0  0  0  0  0  0  0  0  0  0
   28.3630   35.2480    7.2330 N   0  0  0  0  0  0  0  0  0  0  0  0
  1  2  1  0  0  0  0
  3  2  1  0  0  0  0
  4  3  1  0  0  0  0
  5  4  1  0  0  0  0
  6  5  1  0  0  0  0
M  END
>  <EGIN_R>
ES LYS A 135

>  <REMARK>
  4 active torsions:
  status: ('A' for Active; 'I' for Inactive)
    5  A    between atoms: CA   and  CB  
    6  A    between atoms: CB   and  CG  
    7  A    between atoms: CG   and  CD  
    8  A    between atoms: CD   and  CE  

$$$$
