ligand_75_pose_17_2HRL.pdbqt
 OpenBabel07062320523D

 55 56  0  0  1  0  0  0  0  0999 V2000
   23.8330   37.1190   10.3970 N   0  0  0  0  0  0  0  0  0  0  0  0
   24.6790   37.6420   11.4020 C   0  0  0  0  0  0  0  0  0  0  0  0
   24.9920   38.8490   11.4590 O   0  0  0  0  0  0  0  0  0  0  0  0
   23.6480   36.0580   10.4530 H   0  0  0  0  0  0  0  0  0  0  0  0
   23.2140   37.8610    9.3370 C   0  0  0  0  0  0  0  0  0  0  0  0
   23.7280   37.4260    8.0020 C   0  0  2  0  0  0  0  0  0  0  0  0
   25.0850   38.0030    7.6460 C   0  0  2  0  0  0  0  0  0  0  0  0
   26.1350   36.9540    7.6760 C   0  0  2  0  0  0  0  0  0  0  0  0
   27.6160   35.6400    8.8650 C   0  0  2  0  0  0  0  0  0  0  0  0
   27.8390   35.0310    7.5090 C   0  0  0  0  0  0  0  0  0  0  0  0
   26.5690   36.5410    8.8960 O   0  0  0  0  0  0  0  0  0  0  0  0
   27.9570   35.9960    6.3880 C   0  0  1  0  0  0  0  0  0  0  0  0
   27.3210   37.3070    6.7810 C   0  0  1  0  0  0  0  0  0  0  0  0
   28.8130   36.1810    9.3300 O   0  0  0  0  0  0  0  0  0  0  0  0
   28.7860   36.3890   10.2890 H   0  0  0  0  0  0  0  0  0  0  0  0
   27.2570   34.5280    9.7880 C   0  0  0  0  0  0  0  0  0  0  0  0
   27.9080   33.4300    9.7270 O   0  0  0  0  0  0  0  0  0  0  0  0
   26.2340   34.6380   10.7200 O   0  0  0  0  0  0  0  0  0  0  0  0
   25.3990   34.0880   10.6790 H   0  0  0  0  0  0  0  0  0  0  0  0
   29.2620   36.1710    5.9370 O   0  0  0  0  0  0  0  0  0  0  0  0
   29.8620   35.5920    6.4350 H   0  0  0  0  0  0  0  0  0  0  0  0
   26.9470   38.1050    5.6550 N   0  0  0  0  0  0  0  0  0  0  0  0
   27.7920   39.1080    5.1130 C   0  0  0  0  0  0  0  0  0  0  0  0
   26.0080   37.9760    5.1730 H   0  0  0  0  0  0  0  0  0  0  0  0
   27.3630   39.9060    3.9480 C   0  0  0  0  0  0  0  0  0  0  0  0
   28.9210   39.3350    5.6140 O   0  0  0  0  0  0  0  0  0  0  0  0
   25.3780   39.1490    8.3790 O   0  0  0  0  0  0  0  0  0  0  0  0
   25.2700   38.9330    9.3310 H   0  0  0  0  0  0  0  0  0  0  0  0
   22.8330   37.7340    6.9750 O   0  0  0  0  0  0  0  0  0  0  0  0
   23.3450   37.8090    6.1230 H   0  0  0  0  0  0  0  0  0  0  0  0
   25.2180   36.8070   12.4030 O   0  0  0  0  0  0  0  0  0  0  0  0
   24.3930   36.3810   13.4400 C   0  0  0  0  0  0  0  0  0  0  0  0
   23.6060   35.1730   13.0930 C   0  0  0  0  0  0  0  0  0  0  0  0
   23.9120   33.8410   13.2320 C   0  0  0  0  0  0  0  0  0  0  0  0
   22.3780   35.1970   12.5480 N   0  0  0  0  0  0  0  0  0  0  0  0
   22.8810   33.0870   12.7760 N   0  0  0  0  0  0  0  0  0  0  0  0
   21.9620   33.9430   12.3660 N   0  0  0  0  0  0  0  0  0  0  0  0
   22.8450   31.6590   12.7630 C   0  0  0  0  0  0  0  0  0  0  0  0
   21.7100   30.9790   12.4070 C   0  0  0  0  0  0  0  0  0  0  0  0
   23.9610   30.9360   13.1160 C   0  0  0  0  0  0  0  0  0  0  0  0
   21.6660   29.5570   12.3930 C   0  0  0  0  0  0  0  0  0  0  0  0
   23.9840   29.5730   13.1230 C   0  0  0  0  0  0  0  0  0  0  0  0
   22.8090   28.8950   12.7530 C   0  0  0  0  0  0  0  0  0  0  0  0
   20.4720   28.9110   11.9730 C   0  0  0  0  0  0  0  0  0  0  0  0
   19.6050   28.0930   12.4290 C   0  0  0  0  0  0  0  0  0  0  0  0
   19.3990   27.4020   13.6400 C   0  0  0  0  0  0  0  0  0  0  0  0
   18.4950   26.4240   13.6510 O   0  0  0  0  0  0  0  0  0  0  0  0
   19.9620   27.5330   14.8840 O   0  0  0  0  0  0  0  0  0  0  0  0
   19.4260   27.6300   15.7320 H   0  0  0  0  0  0  0  0  0  0  0  0
   29.8670   25.5550   16.9770 C   0  0  0  0  0  0  0  0  0  0  0  0
   28.3450   25.7220   17.0260 C   0  0  0  0  0  0  0  0  0  0  0  0
   27.6020   24.3990   16.9210 C   0  0  0  0  0  0  0  0  0  0  0  0
   26.6190   24.2110   18.0440 C   0  0  0  0  0  0  0  0  0  0  0  0
   26.4100   25.5390   18.7650 C   0  0  0  0  0  0  0  0  0  0  0  0
   25.0030   25.9860   18.6330 N   0  0  0  0  0  0  0  0  0  0  0  0
  1  4  1  0  0  0  0
  1  2  1  0  0  0  0
  2  3  2  0  0  0  0
  2 31  1  0  0  0  0
  5  1  1  0  0  0  0
  6  5  1  1  0  0  0
  7  6  1  0  0  0  0
  7 27  1  1  0  0  0
  8  7  1  1  0  0  0
  8 11  1  0  0  0  0
  9 11  1  0  0  0  0
  9 14  1  1  0  0  0
  9 16  1  0  0  0  0
 10  9  1  0  0  0  0
 12 20  1  1  0  0  0
 12 13  1  0  0  0  0
 12 10  1  0  0  0  0
 13 22  1  6  0  0  0
 13  8  1  0  0  0  0
 14 15  1  0  0  0  0
 16 18  1  0  0  0  0
 17 16  2  0  0  0  0
 19 18  1  0  0  0  0
 20 21  1  0  0  0  0
 23 26  2  0  0  0  0
 23 22  1  0  0  0  0
 24 22  1  0  0  0  0
 25 23  1  0  0  0  0
 27 28  1  0  0  0  0
 29  6  1  0  0  0  0
 30 29  1  0  0  0  0
 31 32  1  0  0  0  0
 33 34  2  0  0  0  0
 33 32  1  0  0  0  0
 35 33  1  0  0  0  0
 36 34  1  0  0  0  0
 37 35  2  0  0  0  0
 37 36  1  0  0  0  0
 38 36  1  0  0  0  0
 38 40  2  0  0  0  0
 39 38  1  0  0  0  0
 40 42  1  0  0  0  0
 41 39  2  0  0  0  0
 41 43  1  0  0  0  0
 43 42  2  0  0  0  0
 44 41  1  0  0  0  0
 44 45  2  0  0  0  0
 45 46  1  0  0  0  0
 46 47  2  0  0  0  0
 46 48  1  0  0  0  0
 48 49  1  0  0  0  0
 50 51  1  0  0  0  0
 52 51  1  0  0  0  0
 52 53  1  0  0  0  0
 53 54  1  0  0  0  0
 55 54  1  0  0  0  0
M  END
>  <REMARK>
 VINA RESULT:    -4.881      4.406      7.529
 INTER + INTRA:         -15.478
 INTER:                 -10.975
 INTRA:                  -4.503
 UNBOUND:                -6.317
 SMILES CC(=O)N[C@@H]1[C@@H](O)C[C@](O)(C(=O)O)O[C@H]1C(O)[C@H](O)CNC(=O)OCc1cn(-c2cccc(C=CC(=O)O)c2)nn1
 SMILES IDX 21 1 22 2 23 3 20 5 18 6 16 7 15 8 9 9 8 10 14 11 6 12 5 13
 SMILES IDX 10 14 11 16 12 17 13 18 7 20 4 22 2 23 1 25 3 26 17 27 19 29
 SMILES IDX 24 31 25 32 26 33 27 34 41 35 28 36 40 37 29 38 39 39 30 40
 SMILES IDX 33 41 31 42 32 43 34 44 35 45 36 46 37 47 38 48
 H PARENT 21 4 10 15 13 19 7 21 4 24 17 28 19 30 38 49
 Flexibility Score: inf
  4 active torsions:
  status: ('A' for Active; 'I' for Inactive)
    1  A    between atoms: CA   and  CB  
    2  A    between atoms: CB   and  CG  
    3  A    between atoms: CG   and  CD  
    4  A    between atoms: CD   and  CE  

>  <TORSDO>
F 18

>  <BEGIN_>
RES LYS A 131

$$$$
ligand_75_pose_17_2HRL.pdbqt
 OpenBabel07062320523D

  6  5  0  0  0  0  0  0  0  0999 V2000
   33.1930   34.6630    9.2900 C   0  0  0  0  0  0  0  0  0  0  0  0
   32.0600   35.3600   10.0340 C   0  0  0  0  0  0  0  0  0  0  0  0
   32.4950   36.0080   11.3230 C   0  0  0  0  0  0  0  0  0  0  0  0
   31.4530   37.0080   11.7990 C   0  0  0  0  0  0  0  0  0  0  0  0
   30.5450   36.3780   12.8380 C   0  0  0  0  0  0  0  0  0  0  0  0
   29.1290   36.7930   12.6350 N   0  0  0  0  0  0  0  0  0  0  0  0
  1  2  1  0  0  0  0
  2  3  1  0  0  0  0
  3  4  1  0  0  0  0
  4  5  1  0  0  0  0
  6  5  1  0  0  0  0
M  END
>  <EGIN_R>
ES LYS A 135

>  <REMARK>
  4 active torsions:
  status: ('A' for Active; 'I' for Inactive)
    5  A    between atoms: CA   and  CB  
    6  A    between atoms: CB   and  CG  
    7  A    between atoms: CG   and  CD  
    8  A    between atoms: CD   and  CE  

$$$$
