ligand_26_pose_2_2HRL.pdbqt
 OpenBabel07062320523D

 54 55  0  0  1  0  0  0  0  0999 V2000
   28.6020   32.7190   17.6050 N   0  0  0  0  0  0  0  0  0  0  0  0
   27.6730   33.7260   17.9950 C   0  0  0  0  0  0  0  0  0  0  0  0
   27.9200   34.9110   17.7070 O   0  0  0  0  0  0  0  0  0  0  0  0
   28.3180   31.7310   17.8850 H   0  0  0  0  0  0  0  0  0  0  0  0
   29.8330   32.9760   16.8900 C   0  0  0  0  0  0  0  0  0  0  0  0
   29.6600   32.8250   15.3950 C   0  0  2  0  0  0  0  0  0  0  0  0
   30.7570   33.5310   14.6260 C   0  0  1  0  0  0  0  0  0  0  0  0
   30.9710   34.9460   15.0740 C   0  0  2  0  0  0  0  0  0  0  0  0
   30.0690   36.2880   13.3920 C   0  0  2  0  0  0  0  0  0  0  0  0
   31.4300   36.7670   12.9550 C   0  0  0  0  0  0  0  0  0  0  0  0
   29.9930   35.8130   14.6660 O   0  0  0  0  0  0  0  0  0  0  0  0
   32.5280   35.8030   13.2920 C   0  0  1  0  0  0  0  0  0  0  0  0
   32.3700   35.4410   14.7520 C   0  0  1  0  0  0  0  0  0  0  0  0
   29.5530   35.4010   12.4200 O   0  0  0  0  0  0  0  0  0  0  0  0
   28.5780   35.3490   12.4470 H   0  0  0  0  0  0  0  0  0  0  0  0
   29.1760   37.5040   13.3310 C   0  0  0  0  0  0  0  0  0  0  0  0
   29.3730   38.4610   12.5710 O   0  0  0  0  0  0  0  0  0  0  0  0
   28.0830   37.4730   14.2130 O   0  0  0  0  0  0  0  0  0  0  0  0
   27.6760   38.3270   14.5610 H   0  0  0  0  0  0  0  0  0  0  0  0
   32.5560   34.7030   12.4690 O   0  0  0  0  0  0  0  0  0  0  0  0
   31.8010   34.1030   12.6830 H   0  0  0  0  0  0  0  0  0  0  0  0
   32.5200   36.7070   15.4880 N   0  0  0  0  0  0  0  0  0  0  0  0
   33.6310   36.8710   16.3610 C   0  0  0  0  0  0  0  0  0  0  0  0
   31.8420   37.4860   15.3900 H   0  0  0  0  0  0  0  0  0  0  0  0
   33.7680   38.1560   17.0940 C   0  0  0  0  0  0  0  0  0  0  0  0
   34.4490   35.9330   16.4790 O   0  0  0  0  0  0  0  0  0  0  0  0
   31.9150   32.7670   14.7860 O   0  0  0  0  0  0  0  0  0  0  0  0
   31.6530   31.8360   15.0550 H   0  0  0  0  0  0  0  0  0  0  0  0
   28.4010   33.3450   15.0310 O   0  0  0  0  0  0  0  0  0  0  0  0
   27.6850   32.6680   15.1190 H   0  0  0  0  0  0  0  0  0  0  0  0
   26.5110   33.4430   18.6760 O   0  0  0  0  0  0  0  0  0  0  0  0
   25.2830   33.0700   18.0890 C   0  0  0  0  0  0  0  0  0  0  0  0
   25.3950   32.5240   16.7330 C   0  0  0  0  0  0  0  0  0  0  0  0
   24.7890   33.0520   15.5860 C   0  0  0  0  0  0  0  0  0  0  0  0
   26.0780   31.4350   16.2980 N   0  0  0  0  0  0  0  0  0  0  0  0
   25.1190   32.2950   14.5570 N   0  0  0  0  0  0  0  0  0  0  0  0
   25.8850   31.3390   14.9960 N   0  0  0  0  0  0  0  0  0  0  0  0
   24.6760   32.5220   13.1450 C   0  0  1  0  0  0  0  0  0  0  0  0
   23.2530   32.0260   13.1220 C   0  0  0  0  0  0  0  0  0  0  0  0
   24.7910   33.9520   12.8940 C   0  0  0  0  0  0  0  0  0  0  0  0
   25.9240   34.4840   12.2030 C   0  0  2  0  0  0  0  0  0  0  0  0
   26.8330   34.9960   13.0380 O   0  0  0  0  0  0  0  0  0  0  0  0
   26.2960   34.5910   10.8270 C   0  0  0  0  0  0  0  0  0  0  0  0
   25.5600   35.4720    9.9950 C   0  0  0  0  0  0  0  0  0  0  0  0
   27.3330   33.9220   10.2250 C   0  0  0  0  0  0  0  0  0  0  0  0
   25.8740   35.6360    8.6700 C   0  0  0  0  0  0  0  0  0  0  0  0
   27.6210   34.1130    8.8810 C   0  0  0  0  0  0  0  0  0  0  0  0
   26.9140   34.9550    8.0880 C   0  0  0  0  0  0  0  0  0  0  0  0
   29.8670   25.5550   16.9770 C   0  0  0  0  0  0  0  0  0  0  0  0
   28.3450   25.7220   17.0260 C   0  0  0  0  0  0  0  0  0  0  0  0
   27.5990   24.4610   16.6170 C   0  0  0  0  0  0  0  0  0  0  0  0
   27.1970   23.6310   17.8050 C   0  0  0  0  0  0  0  0  0  0  0  0
   26.1290   24.3700   18.6040 C   0  0  0  0  0  0  0  0  0  0  0  0
   25.4250   23.4380   19.5160 N   0  0  0  0  0  0  0  0  0  0  0  0
  1  4  1  0  0  0  0
  1  2  1  0  0  0  0
  2 31  1  0  0  0  0
  3  2  2  0  0  0  0
  5  1  1  0  0  0  0
  6  5  1  1  0  0  0
  7 27  1  1  0  0  0
  7  6  1  0  0  0  0
  8  7  1  6  0  0  0
  9 14  1  6  0  0  0
  9 11  1  0  0  0  0
 10 12  1  0  0  0  0
 10  9  1  0  0  0  0
 11  8  1  0  0  0  0
 12 20  1  6  0  0  0
 12 13  1  0  0  0  0
 13  8  1  0  0  0  0
 13 22  1  1  0  0  0
 14 15  1  0  0  0  0
 16  9  1  0  0  0  0
 16 18  1  0  0  0  0
 17 16  2  0  0  0  0
 18 19  1  0  0  0  0
 20 21  1  0  0  0  0
 22 23  1  0  0  0  0
 23 26  2  0  0  0  0
 23 25  1  0  0  0  0
 24 22  1  0  0  0  0
 27 28  1  0  0  0  0
 29 30  1  0  0  0  0
 29  6  1  0  0  0  0
 32 31  1  0  0  0  0
 33 32  1  0  0  0  0
 34 33  2  0  0  0  0
 35 33  1  0  0  0  0
 36 37  1  0  0  0  0
 36 34  1  0  0  0  0
 37 35  2  0  0  0  0
 38 39  1  1  0  0  0
 38 36  1  0  0  0  0
 40 38  1  0  0  0  0
 41 40  1  0  0  0  0
 41 42  1  6  0  0  0
 43 41  1  0  0  0  0
 44 43  2  0  0  0  0
 45 43  1  0  0  0  0
 46 44  1  0  0  0  0
 47 45  2  0  0  0  0
 48 46  2  0  0  0  0
 48 47  1  0  0  0  0
 49 50  1  0  0  0  0
 51 50  1  0  0  0  0
 51 52  1  0  0  0  0
 52 53  1  0  0  0  0
 53 54  1  0  0  0  0
M  END
>  <REMARK>
 VINA RESULT:    -4.915      4.348      8.055
 INTER + INTRA:         -16.302
 INTER:                  -9.915
 INTRA:                  -6.388
 UNBOUND:                -6.934
 SMILES CC(=O)N[C@@H]1[C@@H](O)C[C@](O)(C(=O)O)O[C@H]1C(O)[C@H](O)CNC(=O)OCc1cn(C(C)CC(=O)c2ccccc2)nn1
 SMILES IDX 21 1 22 2 23 3 20 5 18 6 16 7 15 8 9 9 8 10 14 11 6 12 5 13
 SMILES IDX 10 14 11 16 12 17 13 18 7 20 4 22 2 23 1 25 3 26 17 27 19 29
 SMILES IDX 24 31 25 32 26 33 27 34 41 35 28 36 40 37 29 38 30 39 31 40
 SMILES IDX 32 41 33 42 34 43 35 44 39 45 36 46 38 47 37 48
 H PARENT 21 4 10 15 13 19 7 21 4 24 17 28 19 30
 Flexibility Score: inf
  4 active torsions:
  status: ('A' for Active; 'I' for Inactive)
    1  A    between atoms: CA   and  CB  
    2  A    between atoms: CB   and  CG  
    3  A    between atoms: CG   and  CD  
    4  A    between atoms: CD   and  CE  

>  <TORSDO>
F 18

>  <BEGIN_>
RES LYS A 131

$$$$
ligand_26_pose_2_2HRL.pdbqt
 OpenBabel07062320523D

  6  5  0  0  0  0  0  0  0  0999 V2000
   33.1930   34.6630    9.2900 C   0  0  0  0  0  0  0  0  0  0  0  0
   32.0600   35.3600   10.0340 C   0  0  0  0  0  0  0  0  0  0  0  0
   30.8220   35.5590    9.1980 C   0  0  0  0  0  0  0  0  0  0  0  0
   30.2580   36.9570    9.3980 C   0  0  0  0  0  0  0  0  0  0  0  0
   29.5570   37.4330    8.1400 C   0  0  0  0  0  0  0  0  0  0  0  0
   28.6100   38.5430    8.4420 N   0  0  0  0  0  0  0  0  0  0  0  0
  1  2  1  0  0  0  0
  3  4  1  0  0  0  0
  3  2  1  0  0  0  0
  5  6  1  0  0  0  0
  5  4  1  0  0  0  0
M  END
>  <EGIN_R>
ES LYS A 135

>  <REMARK>
  4 active torsions:
  status: ('A' for Active; 'I' for Inactive)
    5  A    between atoms: CA   and  CB  
    6  A    between atoms: CB   and  CG  
    7  A    between atoms: CG   and  CD  
    8  A    between atoms: CD   and  CE  

$$$$
