ligand_59_pose_4_2HRL.pdbqt
 OpenBabel07062320523D

 52 53  0  0  1  0  0  0  0  0999 V2000
   26.4050   32.2070   16.9940 N   0  0  0  0  0  0  0  0  0  0  0  0
   25.5420   32.0620   15.8570 C   0  0  0  0  0  0  0  0  0  0  0  0
   25.7290   31.0510   15.1440 O   0  0  0  0  0  0  0  0  0  0  0  0
   26.2060   33.0550   17.5670 H   0  0  0  0  0  0  0  0  0  0  0  0
   27.4180   31.2300   17.2880 C   0  0  0  0  0  0  0  0  0  0  0  0
   28.7780   31.7640   16.8670 C   0  0  2  0  0  0  0  0  0  0  0  0
   28.7210   33.2510   17.0680 C   0  0  2  0  0  0  0  0  0  0  0  0
   29.8530   34.0620   16.5070 C   0  0  2  0  0  0  0  0  0  0  0  0
   30.3950   34.7930   14.3300 C   0  0  2  0  0  0  0  0  0  0  0  0
   31.8630   34.5050   14.5220 C   0  0  0  0  0  0  0  0  0  0  0  0
   29.6070   34.0710   15.1590 O   0  0  0  0  0  0  0  0  0  0  0  0
   31.9060   33.2820   15.4180 C   0  0  1  0  0  0  0  0  0  0  0  0
   31.2260   33.6150   16.7700 C   0  0  1  0  0  0  0  0  0  0  0  0
   30.1160   34.4160   12.9790 O   0  0  0  0  0  0  0  0  0  0  0  0
   29.9390   33.4410   12.9450 H   0  0  0  0  0  0  0  0  0  0  0  0
   30.0560   36.2280   14.4160 C   0  0  0  0  0  0  0  0  0  0  0  0
   30.9090   37.0370   14.8320 O   0  0  0  0  0  0  0  0  0  0  0  0
   28.8110   36.6930   14.0410 O   0  0  0  0  0  0  0  0  0  0  0  0
   28.7310   37.2650   13.2090 H   0  0  0  0  0  0  0  0  0  0  0  0
   31.3550   32.1700   14.8310 O   0  0  0  0  0  0  0  0  0  0  0  0
   31.8880   31.3630   15.0810 H   0  0  0  0  0  0  0  0  0  0  0  0
   32.0990   34.5680   17.3740 N   0  0  0  0  0  0  0  0  0  0  0  0
   32.2330   34.6890   18.7670 C   0  0  0  0  0  0  0  0  0  0  0  0
   32.6490   35.1970   16.7640 H   0  0  0  0  0  0  0  0  0  0  0  0
   33.1400   35.6790   19.3940 C   0  0  0  0  0  0  0  0  0  0  0  0
   31.5690   33.9380   19.5090 O   0  0  0  0  0  0  0  0  0  0  0  0
   28.7360   33.4920   18.4540 O   0  0  0  0  0  0  0  0  0  0  0  0
   28.0490   32.9490   18.9270 H   0  0  0  0  0  0  0  0  0  0  0  0
   28.8130   31.4790   15.4740 O   0  0  0  0  0  0  0  0  0  0  0  0
   29.3730   32.1420   15.0390 H   0  0  0  0  0  0  0  0  0  0  0  0
   24.5590   32.9590   15.5420 O   0  0  0  0  0  0  0  0  0  0  0  0
   24.1810   33.2930   14.2410 C   0  0  0  0  0  0  0  0  0  0  0  0
   25.2630   33.9300   13.4490 C   0  0  0  0  0  0  0  0  0  0  0  0
   25.2650   34.0140   12.0540 C   0  0  0  0  0  0  0  0  0  0  0  0
   26.3920   34.5200   13.8200 N   0  0  0  0  0  0  0  0  0  0  0  0
   26.3760   34.6370   11.6610 N   0  0  0  0  0  0  0  0  0  0  0  0
   27.0540   34.9400   12.7410 N   0  0  0  0  0  0  0  0  0  0  0  0
   26.7550   34.9120   10.3040 C   0  0  0  0  0  0  0  0  0  0  0  0
   27.5530   34.0670    9.5620 C   0  0  0  0  0  0  0  0  0  0  0  0
   26.3380   36.0420    9.7110 N   0  0  0  0  0  0  0  0  0  0  0  0
   27.9290   34.3290    8.2710 C   0  0  0  0  0  0  0  0  0  0  0  0
   26.6790   36.3420    8.4490 C   0  0  0  0  0  0  0  0  0  0  0  0
   27.4830   35.5000    7.6880 C   0  0  0  0  0  0  0  0  0  0  0  0
   27.8310   35.8810    6.2890 C   0  0  0  0  0  0  0  0  0  0  0  0
   29.1870   35.6640    6.0870 O   0  0  0  0  0  0  0  0  0  0  0  0
   29.5320   35.0300    6.7670 H   0  0  0  0  0  0  0  0  0  0  0  0
   29.8670   25.5550   16.9770 C   0  0  0  0  0  0  0  0  0  0  0  0
   28.3450   25.7220   17.0260 C   0  0  0  0  0  0  0  0  0  0  0  0
   27.6020   24.3990   16.9230 C   0  0  0  0  0  0  0  0  0  0  0  0
   26.5170   24.2770   17.9570 C   0  0  0  0  0  0  0  0  0  0  0  0
   26.2820   25.6350   18.6110 C   0  0  0  0  0  0  0  0  0  0  0  0
   25.0230   26.2390   18.1150 N   0  0  0  0  0  0  0  0  0  0  0  0
  1  5  1  0  0  0  0
  1  4  1  0  0  0  0
  2  1  1  0  0  0  0
  3  2  2  0  0  0  0
  6  7  1  0  0  0  0
  6  5  1  6  0  0  0
  7 27  1  1  0  0  0
  8 13  1  0  0  0  0
  8  7  1  1  0  0  0
  9 14  1  6  0  0  0
  9 16  1  0  0  0  0
  9 10  1  0  0  0  0
  9 11  1  0  0  0  0
 10 12  1  0  0  0  0
 11  8  1  0  0  0  0
 12 20  1  6  0  0  0
 12 13  1  0  0  0  0
 13 22  1  6  0  0  0
 15 14  1  0  0  0  0
 16 17  2  0  0  0  0
 18 16  1  0  0  0  0
 19 18  1  0  0  0  0
 20 21  1  0  0  0  0
 22 23  1  0  0  0  0
 23 25  1  0  0  0  0
 23 26  2  0  0  0  0
 24 22  1  0  0  0  0
 27 28  1  0  0  0  0
 29  6  1  0  0  0  0
 30 29  1  0  0  0  0
 31  2  1  0  0  0  0
 32 31  1  0  0  0  0
 33 35  1  0  0  0  0
 33 32  1  0  0  0  0
 34 33  2  0  0  0  0
 36 34  1  0  0  0  0
 36 37  1  0  0  0  0
 37 35  2  0  0  0  0
 38 36  1  0  0  0  0
 39 38  2  0  0  0  0
 40 38  1  0  0  0  0
 41 39  1  0  0  0  0
 42 40  2  0  0  0  0
 43 41  2  0  0  0  0
 43 42  1  0  0  0  0
 44 43  1  0  0  0  0
 45 44  1  0  0  0  0
 45 46  1  0  0  0  0
 47 48  1  0  0  0  0
 49 48  1  0  0  0  0
 49 50  1  0  0  0  0
 50 51  1  0  0  0  0
 52 51  1  0  0  0  0
M  END
>  <REMARK>
 VINA RESULT:    -5.154      3.643      6.240
 INTER + INTRA:         -15.107
 INTER:                  -9.683
 INTRA:                  -5.425
 UNBOUND:                -5.735
 SMILES CC(=O)N[C@@H]1[C@@H](O)C[C@](O)(C(=O)O)O[C@H]1C(O)[C@H](O)CNC(=O)OCc1cn(-c2ccc(CO)cn2)nn1
 SMILES IDX 21 1 22 2 23 3 20 5 18 6 16 7 15 8 9 9 8 10 14 11 6 12 5 13
 SMILES IDX 10 14 11 16 12 17 13 18 7 20 4 22 2 23 1 25 3 26 17 27 19 29
 SMILES IDX 24 31 25 32 26 33 27 34 38 35 28 36 37 37 29 38 30 39 36 40
 SMILES IDX 31 41 35 42 32 43 33 44 34 45
 H PARENT 21 4 10 15 13 19 7 21 4 24 17 28 19 30 34 46
 Flexibility Score: inf
  4 active torsions:
  status: ('A' for Active; 'I' for Inactive)
    1  A    between atoms: CA   and  CB  
    2  A    between atoms: CB   and  CG  
    3  A    between atoms: CG   and  CD  
    4  A    between atoms: CD   and  CE  

>  <TORSDO>
F 17

>  <BEGIN_>
RES LYS A 131

$$$$
ligand_59_pose_4_2HRL.pdbqt
 OpenBabel07062320523D

  6  5  0  0  0  0  0  0  0  0999 V2000
   33.1930   34.6630    9.2900 C   0  0  0  0  0  0  0  0  0  0  0  0
   32.0600   35.3600   10.0340 C   0  0  0  0  0  0  0  0  0  0  0  0
   30.8960   35.7290    9.1510 C   0  0  0  0  0  0  0  0  0  0  0  0
   30.1750   36.9520    9.6950 C   0  0  0  0  0  0  0  0  0  0  0  0
   30.0910   38.0360    8.6370 C   0  0  0  0  0  0  0  0  0  0  0  0
   31.4030   38.7190    8.4640 N   0  0  0  0  0  0  0  0  0  0  0  0
  1  2  1  0  0  0  0
  3  4  1  0  0  0  0
  3  2  1  0  0  0  0
  5  4  1  0  0  0  0
  6  5  1  0  0  0  0
M  END
>  <EGIN_R>
ES LYS A 135

>  <REMARK>
  4 active torsions:
  status: ('A' for Active; 'I' for Inactive)
    5  A    between atoms: CA   and  CB  
    6  A    between atoms: CB   and  CG  
    7  A    between atoms: CG   and  CD  
    8  A    between atoms: CD   and  CE  

$$$$
