ligand_93_pose_15_2HRL.pdbqt
 OpenBabel07062320523D

 50 51  0  0  1  0  0  0  0  0999 V2000
   26.0140   35.5370   14.8140 C   0  0  0  0  0  0  0  0  0  0  0  0
   27.3920   35.8070   15.3730 C   0  0  2  0  0  0  0  0  0  0  0  0
   28.2830   34.6330   15.1760 C   0  0  1  0  0  0  0  0  0  0  0  0
   29.5420   34.6150   16.0040 C   0  0  2  0  0  0  0  0  0  0  0  0
   31.4540   34.2670   14.6720 C   0  0  2  0  0  0  0  0  0  0  0  0
   31.8760   33.0950   15.5340 C   0  0  0  0  0  0  0  0  0  0  0  0
   30.5450   35.0920   15.2290 O   0  0  0  0  0  0  0  0  0  0  0  0
   30.6150   32.4050   15.9840 C   0  0  1  0  0  0  0  0  0  0  0  0
   29.8050   33.3910   16.7880 C   0  0  1  0  0  0  0  0  0  0  0  0
   30.9010   33.7080   13.5200 O   0  0  0  0  0  0  0  0  0  0  0  0
   31.4630   32.9060   13.2960 H   0  0  0  0  0  0  0  0  0  0  0  0
   32.7080   34.9730   14.2610 C   0  0  0  0  0  0  0  0  0  0  0  0
   33.3640   35.7080   15.0310 O   0  0  0  0  0  0  0  0  0  0  0  0
   33.1580   34.8050   12.9680 O   0  0  0  0  0  0  0  0  0  0  0  0
   34.1140   34.5240   12.7440 H   0  0  0  0  0  0  0  0  0  0  0  0
   29.9570   31.9780   14.8290 O   0  0  0  0  0  0  0  0  0  0  0  0
   30.2080   31.0560   14.5750 H   0  0  0  0  0  0  0  0  0  0  0  0
   30.6110   33.7190   17.9780 N   0  0  0  0  0  0  0  0  0  0  0  0
   30.0640   34.4160   19.0830 C   0  0  0  0  0  0  0  0  0  0  0  0
   31.6100   33.4370   18.0210 H   0  0  0  0  0  0  0  0  0  0  0  0
   30.9390   34.7060   20.2410 C   0  0  0  0  0  0  0  0  0  0  0  0
   28.8530   34.7880   19.0900 O   0  0  0  0  0  0  0  0  0  0  0  0
   27.5950   33.4270   15.1680 O   0  0  0  0  0  0  0  0  0  0  0  0
   28.1630   32.6770   15.5010 H   0  0  0  0  0  0  0  0  0  0  0  0
   27.1900   36.0770   16.7520 O   0  0  0  0  0  0  0  0  0  0  0  0
   26.6410   36.9020   16.8440 H   0  0  0  0  0  0  0  0  0  0  0  0
   25.9550   35.5570   13.3710 N   0  0  0  0  0  0  0  0  0  0  0  0
   25.4680   34.4010   12.6830 C   0  0  0  0  0  0  0  0  0  0  0  0
   26.2610   36.4100   12.8720 H   0  0  0  0  0  0  0  0  0  0  0  0
   25.1130   33.4190   13.3570 O   0  0  0  0  0  0  0  0  0  0  0  0
   25.4220   34.4470   11.3000 O   0  0  0  0  0  0  0  0  0  0  0  0
   24.7220   35.4940   10.6800 C   0  0  0  0  0  0  0  0  0  0  0  0
   25.7060   36.3510    9.9750 C   0  0  0  0  0  0  0  0  0  0  0  0
   25.6310   36.6780    8.6160 C   0  0  0  0  0  0  0  0  0  0  0  0
   26.8040   36.9600   10.4370 N   0  0  0  0  0  0  0  0  0  0  0  0
   26.6920   37.4560    8.3790 N   0  0  0  0  0  0  0  0  0  0  0  0
   27.4080   37.6330    9.4720 N   0  0  0  0  0  0  0  0  0  0  0  0
   27.0140   38.0220    7.1210 C   0  0  0  0  0  0  0  0  0  0  0  0
   27.7470   37.2650    6.2090 C   0  0  0  0  0  0  0  0  0  0  0  0
   26.5990   39.2930    6.8290 C   0  0  0  0  0  0  0  0  0  0  0  0
   28.0640   37.8080    4.9820 C   0  0  0  0  0  0  0  0  0  0  0  0
   26.9280   39.8190    5.5930 C   0  0  0  0  0  0  0  0  0  0  0  0
   25.4900   40.4750    8.1740 I   0  0  0  0  0  0  0  0  0  0  0  0
   27.6550   39.0860    4.6730 C   0  0  0  0  0  0  0  0  0  0  0  0
   29.8670   25.5550   16.9770 C   0  0  0  0  0  0  0  0  0  0  0  0
   28.3450   25.7220   17.0260 C   0  0  0  0  0  0  0  0  0  0  0  0
   27.5990   24.4340   16.7120 C   0  0  0  0  0  0  0  0  0  0  0  0
   26.9880   23.8190   17.9410 C   0  0  0  0  0  0  0  0  0  0  0  0
   25.6110   23.2600   17.5990 C   0  0  0  0  0  0  0  0  0  0  0  0
   24.7840   24.2910   16.9290 N   0  0  0  0  0  0  0  0  0  0  0  0
  2  1  1  1  0  0  0
  2 25  1  0  0  0  0
  3 23  1  1  0  0  0
  3  2  1  0  0  0  0
  4  3  1  6  0  0  0
  4  9  1  0  0  0  0
  5 10  1  6  0  0  0
  5  7  1  0  0  0  0
  5  6  1  0  0  0  0
  6  8  1  0  0  0  0
  7  4  1  0  0  0  0
  8 16  1  6  0  0  0
  8  9  1  0  0  0  0
  9 18  1  1  0  0  0
 11 10  1  0  0  0  0
 12  5  1  0  0  0  0
 12 13  2  0  0  0  0
 14 12  1  0  0  0  0
 15 14  1  0  0  0  0
 17 16  1  0  0  0  0
 18 20  1  0  0  0  0
 18 19  1  0  0  0  0
 19 22  2  0  0  0  0
 19 21  1  0  0  0  0
 23 24  1  0  0  0  0
 25 26  1  0  0  0  0
 27  1  1  0  0  0  0
 28 30  2  0  0  0  0
 28 27  1  0  0  0  0
 29 27  1  0  0  0  0
 31 28  1  0  0  0  0
 32 31  1  0  0  0  0
 33 35  1  0  0  0  0
 33 32  1  0  0  0  0
 34 33  2  0  0  0  0
 36 34  1  0  0  0  0
 36 37  1  0  0  0  0
 37 35  2  0  0  0  0
 38 36  1  0  0  0  0
 39 38  2  0  0  0  0
 40 38  1  0  0  0  0
 40 43  1  0  0  0  0
 41 39  1  0  0  0  0
 42 40  2  0  0  0  0
 44 41  2  0  0  0  0
 44 42  1  0  0  0  0
 45 46  1  0  0  0  0
 47 46  1  0  0  0  0
 47 48  1  0  0  0  0
 49 48  1  0  0  0  0
 50 49  1  0  0  0  0
M  END
>  <REMARK>
 VINA RESULT:    -4.210      3.546      6.406
 INTER + INTRA:         -13.572
 INTER:                  -8.270
 INTRA:                  -5.302
 UNBOUND:                -6.285
 SMILES CC(=O)N[C@@H]1[C@@H](O)C[C@](O)(C(=O)O)O[C@H]1C(O)[C@H](O)CNC(=O)OCc1cn(-c2ccccc2I)nn1
 SMILES IDX 20 1 18 2 16 3 15 4 9 5 8 6 14 7 6 8 5 9 10 10 11 12 12 13
 SMILES IDX 13 14 7 16 4 18 2 19 1 21 3 22 17 23 19 25 21 27 22 28 23 30
 SMILES IDX 24 31 25 32 26 33 27 34 37 35 28 36 36 37 29 38 30 39 34 40
 SMILES IDX 31 41 33 42 35 43 32 44
 H PARENT 10 11 13 15 7 17 4 20 17 24 19 26 21 29
 Flexibility Score: inf
  4 active torsions:
  status: ('A' for Active; 'I' for Inactive)
    1  A    between atoms: CA   and  CB  
    2  A    between atoms: CB   and  CG  
    3  A    between atoms: CG   and  CD  
    4  A    between atoms: CD   and  CE  

>  <TORSDO>
F 15

>  <BEGIN_>
RES LYS A 131

$$$$
ligand_93_pose_15_2HRL.pdbqt
 OpenBabel07062320523D

  6  5  0  0  0  0  0  0  0  0999 V2000
   33.1930   34.6630    9.2900 C   0  0  0  0  0  0  0  0  0  0  0  0
   32.0600   35.3600   10.0340 C   0  0  0  0  0  0  0  0  0  0  0  0
   30.8650   35.6600    9.1670 C   0  0  0  0  0  0  0  0  0  0  0  0
   30.3290   34.3860    8.5320 C   0  0  0  0  0  0  0  0  0  0  0  0
   28.8150   34.4300    8.4450 C   0  0  0  0  0  0  0  0  0  0  0  0
   28.1910   33.7310    9.6030 N   0  0  0  0  0  0  0  0  0  0  0  0
  1  2  1  0  0  0  0
  3  2  1  0  0  0  0
  4  3  1  0  0  0  0
  5  4  1  0  0  0  0
  5  6  1  0  0  0  0
M  END
>  <EGIN_R>
ES LYS A 135

>  <REMARK>
  4 active torsions:
  status: ('A' for Active; 'I' for Inactive)
    5  A    between atoms: CA   and  CB  
    6  A    between atoms: CB   and  CG  
    7  A    between atoms: CG   and  CD  
    8  A    between atoms: CD   and  CE  

$$$$
