ligand_9_pose_15_2HRL.pdbqt
 OpenBabel07062320523D

 54 55  0  0  1  0  0  0  0  0999 V2000
   29.6770   30.6910   18.2620 N   0  0  0  0  0  0  0  0  0  0  0  0
   28.9830   31.0280   19.4550 C   0  0  0  0  0  0  0  0  0  0  0  0
   28.9330   32.2350   19.7970 O   0  0  0  0  0  0  0  0  0  0  0  0
   29.7050   29.6860   17.9970 H   0  0  0  0  0  0  0  0  0  0  0  0
   30.3210   31.7020   17.4490 C   0  0  0  0  0  0  0  0  0  0  0  0
   29.4510   32.2020   16.3450 C   0  0  2  0  0  0  0  0  0  0  0  0
   30.1640   32.3580   15.0400 C   0  0  1  0  0  0  0  0  0  0  0  0
   30.3020   33.8590   14.6760 C   0  0  2  0  0  0  0  0  0  0  0  0
   29.5310   35.4280   13.2400 C   0  0  2  0  0  0  0  0  0  0  0  0
   30.8810   35.6580   12.6010 C   0  0  0  0  0  0  0  0  0  0  0  0
   29.4420   34.1340   13.6460 O   0  0  0  0  0  0  0  0  0  0  0  0
   32.0180   35.3250   13.5190 C   0  0  1  0  0  0  0  0  0  0  0  0
   31.7330   34.1790   14.4460 C   0  0  1  0  0  0  0  0  0  0  0  0
   28.5950   35.5830   12.1780 O   0  0  0  0  0  0  0  0  0  0  0  0
   28.5690   34.8030   11.5960 H   0  0  0  0  0  0  0  0  0  0  0  0
   29.2400   36.4600   14.2450 C   0  0  0  0  0  0  0  0  0  0  0  0
   29.7720   37.6210   14.2290 O   0  0  0  0  0  0  0  0  0  0  0  0
   28.3290   36.1490   15.2730 O   0  0  0  0  0  0  0  0  0  0  0  0
   27.3310   36.1480   15.0290 H   0  0  0  0  0  0  0  0  0  0  0  0
   33.1580   35.0930   12.7520 O   0  0  0  0  0  0  0  0  0  0  0  0
   33.9760   35.4740   13.1580 H   0  0  0  0  0  0  0  0  0  0  0  0
   32.4050   34.3440   15.7220 N   0  0  0  0  0  0  0  0  0  0  0  0
   31.8200   35.0730   16.7910 C   0  0  0  0  0  0  0  0  0  0  0  0
   33.3620   33.8980   15.8410 H   0  0  0  0  0  0  0  0  0  0  0  0
   32.5690   35.2000   18.0680 C   0  0  0  0  0  0  0  0  0  0  0  0
   30.6680   35.6140   16.6690 O   0  0  0  0  0  0  0  0  0  0  0  0
   31.4160   31.7990   14.9880 O   0  0  0  0  0  0  0  0  0  0  0  0
   31.5100   31.0310   14.3960 H   0  0  0  0  0  0  0  0  0  0  0  0
   28.7570   33.3440   16.7340 O   0  0  0  0  0  0  0  0  0  0  0  0
   29.4220   33.9720   17.1270 H   0  0  0  0  0  0  0  0  0  0  0  0
   28.3530   30.1010   20.2660 O   0  0  0  0  0  0  0  0  0  0  0  0
   27.0240   29.6770   20.0300 C   0  0  0  0  0  0  0  0  0  0  0  0
   26.7450   29.6270   18.5820 C   0  0  0  0  0  0  0  0  0  0  0  0
   25.9990   30.5040   17.8130 C   0  0  0  0  0  0  0  0  0  0  0  0
   27.1750   28.6920   17.7080 N   0  0  0  0  0  0  0  0  0  0  0  0
   26.0000   30.0830   16.5310 N   0  0  0  0  0  0  0  0  0  0  0  0
   26.7340   28.9670   16.5100 N   0  0  0  0  0  0  0  0  0  0  0  0
   25.3740   30.6600   15.4040 C   0  0  0  0  0  0  0  0  0  0  0  0
   25.6410   31.9590   15.0150 C   0  0  0  0  0  0  0  0  0  0  0  0
   24.4710   29.9470   14.6460 C   0  0  0  0  0  0  0  0  0  0  0  0
   25.0520   32.5600   13.9210 C   0  0  0  0  0  0  0  0  0  0  0  0
   23.8610   30.5250   13.5370 C   0  0  0  0  0  0  0  0  0  0  0  0
   24.1550   31.8180   13.1870 C   0  0  0  0  0  0  0  0  0  0  0  0
   25.3530   33.9330   13.5330 C   0  0  0  0  0  0  0  0  0  0  0  0
   26.2170   34.5780   14.1760 O   0  0  0  0  0  0  0  0  0  0  0  0
   24.7230   34.5650   12.4740 O   0  0  0  0  0  0  0  0  0  0  0  0
   25.3640   34.8030   11.2360 C   0  0  0  0  0  0  0  0  0  0  0  0
   25.2310   36.2600   10.8990 C   0  0  0  0  0  0  0  0  0  0  0  0
   29.8670   25.5550   16.9770 C   0  0  0  0  0  0  0  0  0  0  0  0
   28.3450   25.7220   17.0260 C   0  0  0  0  0  0  0  0  0  0  0  0
   27.6010   24.4020   16.8900 C   0  0  0  0  0  0  0  0  0  0  0  0
   26.1630   24.5170   17.3120 C   0  0  0  0  0  0  0  0  0  0  0  0
   26.0740   25.3220   18.6050 C   0  0  0  0  0  0  0  0  0  0  0  0
   24.7270   25.9220   18.7510 N   0  0  0  0  0  0  0  0  0  0  0  0
  1  2  1  0  0  0  0
  2  3  2  0  0  0  0
  2 31  1  0  0  0  0
  4  1  1  0  0  0  0
  5  1  1  0  0  0  0
  6 29  1  0  0  0  0
  6  5  1  1  0  0  0
  7 27  1  1  0  0  0
  7  6  1  0  0  0  0
  8  7  1  6  0  0  0
  9 14  1  6  0  0  0
  9 11  1  0  0  0  0
  9 16  1  0  0  0  0
 10  9  1  0  0  0  0
 10 12  1  0  0  0  0
 11  8  1  0  0  0  0
 12 20  1  6  0  0  0
 12 13  1  0  0  0  0
 13  8  1  0  0  0  0
 13 22  1  1  0  0  0
 15 14  1  0  0  0  0
 16 18  1  0  0  0  0
 17 16  2  0  0  0  0
 19 18  1  0  0  0  0
 20 21  1  0  0  0  0
 22 24  1  0  0  0  0
 22 23  1  0  0  0  0
 23 25  1  0  0  0  0
 26 23  2  0  0  0  0
 28 27  1  0  0  0  0
 29 30  1  0  0  0  0
 32 31  1  0  0  0  0
 33 32  1  0  0  0  0
 34 33  2  0  0  0  0
 35 33  1  0  0  0  0
 36 34  1  0  0  0  0
 37 36  1  0  0  0  0
 37 35  2  0  0  0  0
 38 36  1  0  0  0  0
 39 38  1  0  0  0  0
 40 38  2  0  0  0  0
 41 39  2  0  0  0  0
 42 40  1  0  0  0  0
 43 42  2  0  0  0  0
 43 41  1  0  0  0  0
 44 41  1  0  0  0  0
 44 45  2  0  0  0  0
 46 44  1  0  0  0  0
 47 46  1  0  0  0  0
 48 47  1  0  0  0  0
 49 50  1  0  0  0  0
 51 50  1  0  0  0  0
 51 52  1  0  0  0  0
 52 53  1  0  0  0  0
 53 54  1  0  0  0  0
M  END
>  <REMARK>
 VINA RESULT:    -4.822      2.565      6.621
 INTER + INTRA:         -14.863
 INTER:                  -9.054
 INTRA:                  -5.809
 UNBOUND:                -5.671
 SMILES CCOC(=O)c1cccc(-n2cc(COC(=O)NC[C@@H](O)C(O)[C@@H]3O[C@@](O)(C(=O)O)C[C@H](O)[C@H]3NC(C)=O)nn2)c1
 SMILES IDX 18 1 16 2 17 3 19 5 20 6 22 7 24 8 26 9 31 10 25 11 32 12
 SMILES IDX 34 13 27 14 28 16 29 17 30 18 33 20 35 22 36 23 37 25 38 26
 SMILES IDX 23 27 21 29 15 31 14 32 13 33 12 34 39 35 11 36 40 37 10 38
 SMILES IDX 41 39 9 40 6 41 8 42 7 43 4 44 5 45 3 46 2 47 1 48
 H PARENT 18 4 27 15 30 19 33 21 35 24 23 28 21 30
 Flexibility Score: inf
  4 active torsions:
  status: ('A' for Active; 'I' for Inactive)
    1  A    between atoms: CA   and  CB  
    2  A    between atoms: CB   and  CG  
    3  A    between atoms: CG   and  CD  
    4  A    between atoms: CD   and  CE  

>  <TORSDO>
F 18

>  <BEGIN_>
RES LYS A 131

$$$$
ligand_9_pose_15_2HRL.pdbqt
 OpenBabel07062320523D

  6  5  0  0  0  0  0  0  0  0999 V2000
   33.1930   34.6630    9.2900 C   0  0  0  0  0  0  0  0  0  0  0  0
   32.0600   35.3600   10.0340 C   0  0  0  0  0  0  0  0  0  0  0  0
   30.7820   35.4460    9.2410 C   0  0  0  0  0  0  0  0  0  0  0  0
   30.2230   34.0570    8.9700 C   0  0  0  0  0  0  0  0  0  0  0  0
   28.7210   34.0370    9.1790 C   0  0  0  0  0  0  0  0  0  0  0  0
   28.0820   35.2490    8.5950 N   0  0  0  0  0  0  0  0  0  0  0  0
  1  2  1  0  0  0  0
  3  2  1  0  0  0  0
  4  5  1  0  0  0  0
  4  3  1  0  0  0  0
  6  5  1  0  0  0  0
M  END
>  <EGIN_R>
ES LYS A 135

>  <REMARK>
  4 active torsions:
  status: ('A' for Active; 'I' for Inactive)
    5  A    between atoms: CA   and  CB  
    6  A    between atoms: CB   and  CG  
    7  A    between atoms: CG   and  CD  
    8  A    between atoms: CD   and  CE  

$$$$
