ligand_86_pose_19_2HRL.pdbqt
 OpenBabel07062320523D

 52 54  0  0  1  0  0  0  0  0999 V2000
   31.7440   36.6020   19.2530 C   0  0  0  0  0  0  0  0  0  0  0  0
   32.2910   35.2290   19.0670 C   0  0  2  0  0  0  0  0  0  0  0  0
   31.2540   34.1980   18.7510 C   0  0  2  0  0  0  0  0  0  0  0  0
   31.4520   33.5650   17.3930 C   0  0  2  0  0  0  0  0  0  0  0  0
   31.3820   34.0600   15.1350 C   0  0  2  0  0  0  0  0  0  0  0  0
   31.6090   32.5730   15.0750 C   0  0  0  0  0  0  0  0  0  0  0  0
   31.4130   34.5610   16.4270 O   0  0  0  0  0  0  0  0  0  0  0  0
   30.6710   31.7880   15.9400 C   0  0  1  0  0  0  0  0  0  0  0  0
   30.2860   32.6360   17.1210 C   0  0  1  0  0  0  0  0  0  0  0  0
   30.2140   34.4490   14.4810 O   0  0  0  0  0  0  0  0  0  0  0  0
   30.3320   34.3950   13.5040 H   0  0  0  0  0  0  0  0  0  0  0  0
   32.5160   34.7040   14.4000 C   0  0  0  0  0  0  0  0  0  0  0  0
   33.4700   35.2650   15.0370 O   0  0  0  0  0  0  0  0  0  0  0  0
   32.6000   34.7290   13.0270 O   0  0  0  0  0  0  0  0  0  0  0  0
   33.5360   34.7970   12.6070 H   0  0  0  0  0  0  0  0  0  0  0  0
   29.6000   31.2560   15.2610 O   0  0  0  0  0  0  0  0  0  0  0  0
   29.9380   30.5100   14.6990 H   0  0  0  0  0  0  0  0  0  0  0  0
   29.9150   31.8660   18.2810 N   0  0  0  0  0  0  0  0  0  0  0  0
   28.5740   31.4400   18.5200 C   0  0  0  0  0  0  0  0  0  0  0  0
   30.6290   31.5920   18.9930 H   0  0  0  0  0  0  0  0  0  0  0  0
   28.2580   30.6520   19.7280 C   0  0  0  0  0  0  0  0  0  0  0  0
   27.7020   31.7580   17.6780 O   0  0  0  0  0  0  0  0  0  0  0  0
   29.9960   34.7990   18.7640 O   0  0  0  0  0  0  0  0  0  0  0  0
   29.5450   34.6940   19.6200 H   0  0  0  0  0  0  0  0  0  0  0  0
   32.9910   34.8020   20.2190 O   0  0  0  0  0  0  0  0  0  0  0  0
   33.7380   34.2370   19.8730 H   0  0  0  0  0  0  0  0  0  0  0  0
   31.7110   37.3540   18.0220 N   0  0  0  0  0  0  0  0  0  0  0  0
   30.4750   37.8560   17.5350 C   0  0  0  0  0  0  0  0  0  0  0  0
   32.5680   37.5550   17.4540 H   0  0  0  0  0  0  0  0  0  0  0  0
   29.3770   37.6770   18.1300 O   0  0  0  0  0  0  0  0  0  0  0  0
   30.3850   38.5890   16.3520 O   0  0  0  0  0  0  0  0  0  0  0  0
   31.1660   38.2940   15.2110 C   0  0  0  0  0  0  0  0  0  0  0  0
   30.2960   37.7800   14.1190 C   0  0  0  0  0  0  0  0  0  0  0  0
   28.9290   37.9460   14.0500 C   0  0  0  0  0  0  0  0  0  0  0  0
   30.6250   37.0830   13.0170 N   0  0  0  0  0  0  0  0  0  0  0  0
   28.4630   37.3500   12.9170 N   0  0  0  0  0  0  0  0  0  0  0  0
   29.5330   36.8420   12.3300 N   0  0  0  0  0  0  0  0  0  0  0  0
   27.0780   37.2880   12.4590 C   0  0  2  0  0  0  0  0  0  0  0  0
   26.3650   36.2800   13.2810 C   0  0  0  0  0  0  0  0  0  0  0  0
   27.0960   37.0260   10.9950 C   0  0  0  0  0  0  0  0  0  0  0  0
   25.2860   35.5300   12.5850 C   0  0  1  0  0  0  0  0  0  0  0  0
   26.1170   35.9730   10.5450 C   0  0  2  0  0  0  0  0  0  0  0  0
   24.9090   36.1450   11.3330 N   0  0  0  0  0  0  0  0  0  0  0  0
   25.8600   34.1990   12.1250 C   0  0  0  0  0  0  0  0  0  0  0  0
   26.6750   34.6230   10.9200 C   0  0  0  0  0  0  0  0  0  0  0  0
   23.7820   35.4540   10.7590 C   0  0  0  0  0  0  0  0  0  0  0  0
   29.8670   25.5550   16.9770 C   0  0  0  0  0  0  0  0  0  0  0  0
   28.3450   25.7220   17.0260 C   0  0  0  0  0  0  0  0  0  0  0  0
   27.6010   24.4000   16.9070 C   0  0  0  0  0  0  0  0  0  0  0  0
   26.3700   24.3640   17.7680 C   0  0  0  0  0  0  0  0  0  0  0  0
   25.6800   23.0130   17.6130 C   0  0  0  0  0  0  0  0  0  0  0  0
   24.3240   23.1850   17.0390 N   0  0  0  0  0  0  0  0  0  0  0  0
  2  1  1  1  0  0  0
  2 25  1  0  0  0  0
  3 23  1  6  0  0  0
  3  2  1  0  0  0  0
  4  3  1  1  0  0  0
  5 12  1  6  0  0  0
  5  7  1  0  0  0  0
  6  5  1  0  0  0  0
  6  8  1  0  0  0  0
  7  4  1  0  0  0  0
  8 16  1  6  0  0  0
  8  9  1  0  0  0  0
  9  4  1  0  0  0  0
  9 18  1  1  0  0  0
 10  5  1  0  0  0  0
 11 10  1  0  0  0  0
 12 13  2  0  0  0  0
 14 12  1  0  0  0  0
 15 14  1  0  0  0  0
 17 16  1  0  0  0  0
 18 19  1  0  0  0  0
 18 20  1  0  0  0  0
 19 21  1  0  0  0  0
 22 19  2  0  0  0  0
 23 24  1  0  0  0  0
 26 25  1  0  0  0  0
 27  1  1  0  0  0  0
 28 27  1  0  0  0  0
 28 30  2  0  0  0  0
 29 27  1  0  0  0  0
 31 28  1  0  0  0  0
 32 31  1  0  0  0  0
 33 32  1  0  0  0  0
 34 33  2  0  0  0  0
 35 33  1  0  0  0  0
 36 34  1  0  0  0  0
 37 36  1  0  0  0  0
 37 35  2  0  0  0  0
 38 40  1  6  0  0  0
 38 36  1  0  0  0  0
 38 39  1  0  0  0  0
 41 44  1  6  0  0  0
 41 39  1  0  0  0  0
 42 45  1  1  0  0  0
 42 40  1  0  0  0  0
 42 43  1  0  0  0  0
 43 41  1  0  0  0  0
 45 44  1  0  0  0  0
 46 43  1  0  0  0  0
 47 48  1  0  0  0  0
 49 48  1  0  0  0  0
 49 50  1  0  0  0  0
 51 50  1  0  0  0  0
 52 51  1  0  0  0  0
M  END
>  <REMARK>
 VINA RESULT:    -4.022      3.613      6.175
 INTER + INTRA:         -13.517
 INTER:                  -6.962
 INTRA:                  -6.555
 UNBOUND:                -6.555
 SMILES CC(=O)N[C@@H]1[C@@H](O)C[C@](O)(C(=O)O)O[C@H]1C(O)[C@H](O)CNC(=O)OCc1cn([C@H]2C[C@H]3CC[C@@H](C2)N3C)nn1
 SMILES IDX 20 1 18 2 16 3 15 4 9 5 8 6 14 7 6 8 5 9 10 10 11 12 12 13
 SMILES IDX 13 14 7 16 4 18 2 19 1 21 3 22 17 23 19 25 21 27 22 28 23 30
 SMILES IDX 24 31 25 32 26 33 27 34 39 35 28 36 38 37 29 38 35 39 30 40
 SMILES IDX 34 41 31 42 36 43 33 44 32 45 37 46
 H PARENT 10 11 13 15 7 17 4 20 17 24 19 26 21 29
 Flexibility Score: inf
  4 active torsions:
  status: ('A' for Active; 'I' for Inactive)
    1  A    between atoms: CA   and  CB  
    2  A    between atoms: CB   and  CG  
    3  A    between atoms: CG   and  CD  
    4  A    between atoms: CD   and  CE  

>  <TORSDO>
F 15

>  <BEGIN_>
RES LYS A 131

$$$$
ligand_86_pose_19_2HRL.pdbqt
 OpenBabel07062320523D

  6  5  0  0  0  0  0  0  0  0999 V2000
   33.1930   34.6630    9.2900 C   0  0  0  0  0  0  0  0  0  0  0  0
   32.0600   35.3600   10.0340 C   0  0  0  0  0  0  0  0  0  0  0  0
   30.7060   34.7510    9.7770 C   0  0  0  0  0  0  0  0  0  0  0  0
   29.8640   35.6650    8.9000 C   0  0  0  0  0  0  0  0  0  0  0  0
   29.0380   34.8520    7.9210 C   0  0  0  0  0  0  0  0  0  0  0  0
   28.8850   35.5680    6.6240 N   0  0  0  0  0  0  0  0  0  0  0  0
  1  2  1  0  0  0  0
  3  2  1  0  0  0  0
  4  3  1  0  0  0  0
  5  4  1  0  0  0  0
  6  5  1  0  0  0  0
M  END
>  <EGIN_R>
ES LYS A 135

>  <REMARK>
  4 active torsions:
  status: ('A' for Active; 'I' for Inactive)
    5  A    between atoms: CA   and  CB  
    6  A    between atoms: CB   and  CG  
    7  A    between atoms: CG   and  CD  
    8  A    between atoms: CD   and  CE  

$$$$
