ligand_19_pose_10_2HRL.pdbqt
 OpenBabel07062320523D

 49 49  0  0  1  0  0  0  0  0999 V2000
   29.8730   32.1160   18.5980 N   0  0  0  0  0  0  0  0  0  0  0  0
   30.4590   31.3240   19.6100 C   0  0  0  0  0  0  0  0  0  0  0  0
   30.2360   30.1060   19.6660 O   0  0  0  0  0  0  0  0  0  0  0  0
   30.1110   33.1460   18.6270 H   0  0  0  0  0  0  0  0  0  0  0  0
   28.9980   31.6180   17.5580 C   0  0  0  0  0  0  0  0  0  0  0  0
   29.7390   31.2970   16.3160 C   0  0  2  0  0  0  0  0  0  0  0  0
   30.5480   32.4230   15.7100 C   0  0  2  0  0  0  0  0  0  0  0  0
   29.8410   33.2130   14.6500 C   0  0  2  0  0  0  0  0  0  0  0  0
   31.5770   34.7540   14.5070 C   0  0  2  0  0  0  0  0  0  0  0  0
   30.9890   35.5130   15.6330 C   0  0  0  0  0  0  0  0  0  0  0  0
   30.7370   33.9050   13.8370 O   0  0  0  0  0  0  0  0  0  0  0  0
   29.5380   35.3200   15.8880 C   0  0  1  0  0  0  0  0  0  0  0  0
   28.8610   34.2390   15.1190 C   0  0  1  0  0  0  0  0  0  0  0  0
   32.6820   33.9700   14.9220 O   0  0  0  0  0  0  0  0  0  0  0  0
   32.7000   33.8650   15.9020 H   0  0  0  0  0  0  0  0  0  0  0  0
   32.1420   35.6840   13.4890 C   0  0  0  0  0  0  0  0  0  0  0  0
   31.9690   36.9470   13.5820 O   0  0  0  0  0  0  0  0  0  0  0  0
   32.8800   35.2690   12.3910 O   0  0  0  0  0  0  0  0  0  0  0  0
   33.0120   35.9460   11.6320 H   0  0  0  0  0  0  0  0  0  0  0  0
   29.3690   35.0530   17.2500 O   0  0  0  0  0  0  0  0  0  0  0  0
   30.1690   34.5650   17.6190 H   0  0  0  0  0  0  0  0  0  0  0  0
   28.1470   34.7010   13.9520 N   0  0  0  0  0  0  0  0  0  0  0  0
   26.7790   34.4890   13.7560 C   0  0  0  0  0  0  0  0  0  0  0  0
   28.6980   35.2100   13.2360 H   0  0  0  0  0  0  0  0  0  0  0  0
   26.0200   34.9530   12.5660 C   0  0  0  0  0  0  0  0  0  0  0  0
   26.1660   33.8670   14.6450 O   0  0  0  0  0  0  0  0  0  0  0  0
   31.5540   31.7050   14.9560 O   0  0  0  0  0  0  0  0  0  0  0  0
   32.1860   31.4090   15.6810 H   0  0  0  0  0  0  0  0  0  0  0  0
   29.1360   30.4990   15.3910 O   0  0  0  0  0  0  0  0  0  0  0  0
   28.3900   30.9210   14.9390 H   0  0  0  0  0  0  0  0  0  0  0  0
   31.3090   31.9140   20.5740 O   0  0  0  0  0  0  0  0  0  0  0  0
   31.0770   33.2570   20.9960 C   0  0  0  0  0  0  0  0  0  0  0  0
   31.9860   34.1350   20.2330 C   0  0  0  0  0  0  0  0  0  0  0  0
   33.0820   34.8100   20.7440 C   0  0  0  0  0  0  0  0  0  0  0  0
   31.9290   34.4490   18.9320 N   0  0  0  0  0  0  0  0  0  0  0  0
   33.6400   35.5000   19.7380 N   0  0  0  0  0  0  0  0  0  0  0  0
   32.9270   35.2660   18.6600 N   0  0  0  0  0  0  0  0  0  0  0  0
   34.8120   36.3360   19.8630 C   0  0  0  0  0  0  0  0  0  0  0  0
   35.8920   35.7800   18.9660 C   0  0  0  0  0  0  0  0  0  0  0  0
   35.9840   36.5490   17.8020 O   0  0  0  0  0  0  0  0  0  0  0  0
   35.9480   35.9810   16.5630 C   0  0  0  0  0  0  0  0  0  0  0  0
   34.8720   35.7900   15.9670 O   0  0  0  0  0  0  0  0  0  0  0  0
   37.2220   35.5680   15.8780 C   0  0  0  0  0  0  0  0  0  0  0  0
   29.8670   25.5550   16.9770 C   0  0  0  0  0  0  0  0  0  0  0  0
   28.3450   25.7220   17.0260 C   0  0  0  0  0  0  0  0  0  0  0  0
   27.6020   24.3990   16.9250 C   0  0  0  0  0  0  0  0  0  0  0  0
   26.1640   24.5230   17.3470 C   0  0  0  0  0  0  0  0  0  0  0  0
   25.8630   23.5000   18.4370 C   0  0  0  0  0  0  0  0  0  0  0  0
   25.4620   24.1800   19.6910 N   0  0  0  0  0  0  0  0  0  0  0  0
  1  4  1  0  0  0  0
  1  2  1  0  0  0  0
  2  3  2  0  0  0  0
  2 31  1  0  0  0  0
  5  1  1  0  0  0  0
  6  5  1  1  0  0  0
  7 27  1  6  0  0  0
  7  6  1  0  0  0  0
  8 13  1  0  0  0  0
  8  7  1  1  0  0  0
  9 16  1  6  0  0  0
  9 14  1  0  0  0  0
  9 10  1  0  0  0  0
 10 12  1  0  0  0  0
 11  9  1  0  0  0  0
 11  8  1  0  0  0  0
 12 20  1  1  0  0  0
 13 22  1  6  0  0  0
 13 12  1  0  0  0  0
 14 15  1  0  0  0  0
 16 17  2  0  0  0  0
 18 16  1  0  0  0  0
 19 18  1  0  0  0  0
 20 21  1  0  0  0  0
 23 22  1  0  0  0  0
 23 26  2  0  0  0  0
 24 22  1  0  0  0  0
 25 23  1  0  0  0  0
 27 28  1  0  0  0  0
 29  6  1  0  0  0  0
 30 29  1  0  0  0  0
 31 32  1  0  0  0  0
 33 34  2  0  0  0  0
 33 32  1  0  0  0  0
 35 33  1  0  0  0  0
 36 38  1  0  0  0  0
 36 34  1  0  0  0  0
 37 35  2  0  0  0  0
 37 36  1  0  0  0  0
 39 38  1  0  0  0  0
 40 39  1  0  0  0  0
 41 40  1  0  0  0  0
 42 41  2  0  0  0  0
 43 41  1  0  0  0  0
 44 45  1  0  0  0  0
 46 45  1  0  0  0  0
 46 47  1  0  0  0  0
 47 48  1  0  0  0  0
 48 49  1  0  0  0  0
M  END
>  <REMARK>
 VINA RESULT:    -4.082      2.587      7.024
 INTER + INTRA:         -13.840
 INTER:                  -8.013
 INTRA:                  -5.827
 UNBOUND:                -6.059
 SMILES CC(=O)N[C@@H]1[C@@H](O)C[C@](O)(C(=O)O)O[C@H]1C(O)[C@H](O)CNC(=O)OCc1cn(CCOC(C)=O)nn1
 SMILES IDX 21 1 22 2 23 3 20 5 18 6 16 7 15 8 9 9 8 10 14 11 6 12 5 13
 SMILES IDX 10 14 11 16 12 17 13 18 7 20 4 22 2 23 1 25 3 26 17 27 19 29
 SMILES IDX 24 31 25 32 26 33 27 34 36 35 28 36 35 37 29 38 30 39 31 40
 SMILES IDX 32 41 34 42 33 43
 H PARENT 21 4 10 15 13 19 7 21 4 24 17 28 19 30
 Flexibility Score: inf
  4 active torsions:
  status: ('A' for Active; 'I' for Inactive)
    1  A    between atoms: CA   and  CB  
    2  A    between atoms: CB   and  CG  
    3  A    between atoms: CG   and  CD  
    4  A    between atoms: CD   and  CE  

>  <TORSDO>
F 18

>  <BEGIN_>
RES LYS A 131

$$$$
ligand_19_pose_10_2HRL.pdbqt
 OpenBabel07062320523D

  6  5  0  0  0  0  0  0  0  0999 V2000
   33.1930   34.6630    9.2900 C   0  0  0  0  0  0  0  0  0  0  0  0
   32.0600   35.3600   10.0340 C   0  0  0  0  0  0  0  0  0  0  0  0
   30.8040   35.5090    9.2150 C   0  0  0  0  0  0  0  0  0  0  0  0
   30.1450   34.1570    8.9920 C   0  0  0  0  0  0  0  0  0  0  0  0
   28.6890   34.3320    8.6020 C   0  0  0  0  0  0  0  0  0  0  0  0
   27.7850   33.7090    9.6070 N   0  0  0  0  0  0  0  0  0  0  0  0
  1  2  1  0  0  0  0
  3  2  1  0  0  0  0
  4  3  1  0  0  0  0
  5  4  1  0  0  0  0
  5  6  1  0  0  0  0
M  END
>  <EGIN_R>
ES LYS A 135

>  <REMARK>
  4 active torsions:
  status: ('A' for Active; 'I' for Inactive)
    5  A    between atoms: CA   and  CB  
    6  A    between atoms: CB   and  CG  
    7  A    between atoms: CG   and  CD  
    8  A    between atoms: CD   and  CE  

$$$$
