ligand_77_pose_1_2HRL.pdbqt
 OpenBabel07062320523D

 61 63  0  0  1  0  0  0  0  0999 V2000
   25.0840   29.8690   18.7650 N   0  0  0  0  0  0  0  0  0  0  0  0
   24.7030   31.0090   18.0190 C   0  0  0  0  0  0  0  0  0  0  0  0
   24.8470   32.1390   18.4980 O   0  0  0  0  0  0  0  0  0  0  0  0
   24.9270   28.9360   18.2700 H   0  0  0  0  0  0  0  0  0  0  0  0
   25.6470   29.8910   20.0950 C   0  0  0  0  0  0  0  0  0  0  0  0
   27.0910   29.5280   20.0260 C   0  0  2  0  0  0  0  0  0  0  0  0
   28.0060   30.7330   20.0780 C   0  0  1  0  0  0  0  0  0  0  0  0
   29.4530   30.4080   20.2310 C   0  0  2  0  0  0  0  0  0  0  0  0
   30.7600   28.7990   21.2660 C   0  0  2  0  0  0  0  0  0  0  0  0
   31.9650   29.6540   21.0270 C   0  0  0  0  0  0  0  0  0  0  0  0
   29.7130   29.0680   20.4030 O   0  0  0  0  0  0  0  0  0  0  0  0
   31.6780   31.1040   20.8720 C   0  0  1  0  0  0  0  0  0  0  0  0
   30.1870   31.3190   21.1830 C   0  0  1  0  0  0  0  0  0  0  0  0
   30.3460   28.8580   22.6170 O   0  0  0  0  0  0  0  0  0  0  0  0
   31.0940   29.1700   23.1540 H   0  0  0  0  0  0  0  0  0  0  0  0
   31.1630   27.3810   21.0330 C   0  0  0  0  0  0  0  0  0  0  0  0
   30.7330   26.4900   21.8300 O   0  0  0  0  0  0  0  0  0  0  0  0
   31.9740   26.9710   20.0060 O   0  0  0  0  0  0  0  0  0  0  0  0
   32.8650   27.4320   19.8350 H   0  0  0  0  0  0  0  0  0  0  0  0
   32.4670   31.9200   21.6680 O   0  0  0  0  0  0  0  0  0  0  0  0
   33.2070   31.3680   22.0750 H   0  0  0  0  0  0  0  0  0  0  0  0
   29.8430   32.6920   20.8330 N   0  0  0  0  0  0  0  0  0  0  0  0
   29.8120   33.6940   21.8350 C   0  0  0  0  0  0  0  0  0  0  0  0
   29.6130   32.9770   19.8580 H   0  0  0  0  0  0  0  0  0  0  0  0
   29.4580   35.1210   21.5070 C   0  0  0  0  0  0  0  0  0  0  0  0
   30.0720   33.4590   23.0340 O   0  0  0  0  0  0  0  0  0  0  0  0
   27.7480   31.4530   18.9050 O   0  0  0  0  0  0  0  0  0  0  0  0
   26.9720   32.0300   19.0710 H   0  0  0  0  0  0  0  0  0  0  0  0
   27.3470   28.6950   18.9460 O   0  0  0  0  0  0  0  0  0  0  0  0
   26.5190   28.1970   18.7290 H   0  0  0  0  0  0  0  0  0  0  0  0
   24.1610   30.9270   16.7400 O   0  0  0  0  0  0  0  0  0  0  0  0
   24.8610   30.3210   15.6640 C   0  0  0  0  0  0  0  0  0  0  0  0
   26.3370   30.4580   15.8160 C   0  0  0  0  0  0  0  0  0  0  0  0
   27.0440   31.5800   15.4770 C   0  0  0  0  0  0  0  0  0  0  0  0
   27.2160   29.5620   16.2870 N   0  0  0  0  0  0  0  0  0  0  0  0
   28.3480   31.3430   15.7500 N   0  0  0  0  0  0  0  0  0  0  0  0
   28.4030   30.1310   16.2300 N   0  0  0  0  0  0  0  0  0  0  0  0
   29.3770   32.2920   15.5240 C   0  0  0  0  0  0  0  0  0  0  0  0
   30.6960   31.9430   15.7090 C   0  0  0  0  0  0  0  0  0  0  0  0
   29.1140   33.5820   15.1160 C   0  0  0  0  0  0  0  0  0  0  0  0
   31.7320   32.8380   15.4990 C   0  0  0  0  0  0  0  0  0  0  0  0
   30.1520   34.4940   14.9010 C   0  0  0  0  0  0  0  0  0  0  0  0
   31.4600   34.1210   15.0930 C   0  0  0  0  0  0  0  0  0  0  0  0
   32.7530   35.2380   14.8300 S   0  0  0  0  0  0  0  0  0  0  0  0
   32.2420   36.4540   14.1350 O   0  0  0  0  0  0  0  0  0  0  0  0
   33.8560   34.6580   13.9940 O   0  0  0  0  0  0  0  0  0  0  0  0
   33.4390   35.6400   16.4010 C   0  0  0  0  0  0  0  0  0  0  0  0
   32.6370   35.5710   17.5090 C   0  0  0  0  0  0  0  0  0  0  0  0
   34.7700   36.0220   16.5360 C   0  0  0  0  0  0  0  0  0  0  0  0
   33.1370   35.8780   18.7680 C   0  0  0  0  0  0  0  0  0  0  0  0
   35.3010   36.3370   17.7780 C   0  0  0  0  0  0  0  0  0  0  0  0
   34.4630   36.2550   18.8650 C   0  0  0  0  0  0  0  0  0  0  0  0
   34.9830   36.5710   20.1400 N   0  0  0  0  0  0  0  0  0  0  0  0
   35.8080   36.0700   20.5080 H   0  0  0  0  0  0  0  0  0  0  0  0
   34.5300   37.3100   20.7050 H   0  0  0  0  0  0  0  0  0  0  0  0
   29.8670   25.5550   16.9770 C   0  0  0  0  0  0  0  0  0  0  0  0
   28.3450   25.7220   17.0260 C   0  0  0  0  0  0  0  0  0  0  0  0
   27.5990   24.4180   16.7850 C   0  0  0  0  0  0  0  0  0  0  0  0
   26.1710   24.4890   17.2480 C   0  0  0  0  0  0  0  0  0  0  0  0
   26.0780   23.9940   18.6880 C   0  0  0  0  0  0  0  0  0  0  0  0
   24.7300   23.4410   18.9610 N   0  0  0  0  0  0  0  0  0  0  0  0
  1  5  1  0  0  0  0
  2  3  2  0  0  0  0
  2  1  1  0  0  0  0
  4  1  1  0  0  0  0
  6  7  1  0  0  0  0
  6  5  1  6  0  0  0
  7 27  1  6  0  0  0
  8  7  1  1  0  0  0
  8 11  1  0  0  0  0
  8 13  1  0  0  0  0
  9 16  1  6  0  0  0
  9 14  1  0  0  0  0
 10  9  1  0  0  0  0
 11  9  1  0  0  0  0
 12 10  1  0  0  0  0
 12 13  1  0  0  0  0
 12 20  1  1  0  0  0
 13 22  1  6  0  0  0
 14 15  1  0  0  0  0
 16 17  2  0  0  0  0
 18 16  1  0  0  0  0
 19 18  1  0  0  0  0
 20 21  1  0  0  0  0
 22 23  1  0  0  0  0
 23 26  2  0  0  0  0
 24 22  1  0  0  0  0
 25 23  1  0  0  0  0
 27 28  1  0  0  0  0
 29  6  1  0  0  0  0
 30 29  1  0  0  0  0
 31  2  1  0  0  0  0
 32 33  1  0  0  0  0
 32 31  1  0  0  0  0
 33 35  1  0  0  0  0
 34 36  1  0  0  0  0
 34 33  2  0  0  0  0
 36 37  1  0  0  0  0
 37 35  2  0  0  0  0
 38 39  1  0  0  0  0
 38 36  1  0  0  0  0
 40 38  2  0  0  0  0
 41 39  2  0  0  0  0
 42 43  2  0  0  0  0
 42 40  1  0  0  0  0
 43 41  1  0  0  0  0
 44 43  1  0  0  0  0
 44 47  1  0  0  0  0
 45 44  2  0  0  0  0
 46 44  2  0  0  0  0
 47 49  2  0  0  0  0
 47 48  1  0  0  0  0
 48 50  2  0  0  0  0
 49 51  1  0  0  0  0
 50 52  1  0  0  0  0
 51 52  2  0  0  0  0
 52 53  1  0  0  0  0
 53 54  1  0  0  0  0
 53 55  1  0  0  0  0
 56 57  1  0  0  0  0
 58 57  1  0  0  0  0
 58 59  1  0  0  0  0
 59 60  1  0  0  0  0
 60 61  1  0  0  0  0
M  END
>  <REMARK>
 VINA RESULT:    -5.491      2.023      3.091
 INTER + INTRA:         -16.834
 INTER:                  -9.458
 INTRA:                  -7.376
 UNBOUND:                -6.527
 SMILES CC(=O)N[C@@H]1[C@@H](O)C[C@](O)(C(=O)O)O[C@H]1C(O)[C@H](O)CNC(=O)OCc1cn(-c2ccc(S(=O)(=O)c3ccc(N)cc3)cc2)nn1
 SMILES IDX 21 1 22 2 23 3 20 5 18 6 16 7 15 8 9 9 8 10 14 11 6 12 5 13
 SMILES IDX 10 14 11 16 12 17 13 18 7 20 4 22 2 23 1 25 3 26 17 27 19 29
 SMILES IDX 24 31 25 32 26 33 27 34 46 35 28 36 45 37 29 38 30 39 44 40
 SMILES IDX 31 41 43 42 32 43 33 44 34 45 35 46 36 47 37 48 42 49 38 50
 SMILES IDX 41 51 39 52 40 53
 H PARENT 21 4 10 15 13 19 7 21 4 24 17 28 19 30 40 54 40 55
 Flexibility Score: inf
  4 active torsions:
  status: ('A' for Active; 'I' for Inactive)
    1  A    between atoms: CA   and  CB  
    2  A    between atoms: CB   and  CG  
    3  A    between atoms: CG   and  CD  
    4  A    between atoms: CD   and  CE  

>  <TORSDO>
F 18

>  <BEGIN_>
RES LYS A 131

$$$$
ligand_77_pose_1_2HRL.pdbqt
 OpenBabel07062320523D

  6  5  0  0  0  0  0  0  0  0999 V2000
   33.1930   34.6630    9.2900 C   0  0  0  0  0  0  0  0  0  0  0  0
   32.0600   35.3600   10.0340 C   0  0  0  0  0  0  0  0  0  0  0  0
   30.7450   34.6290    9.9500 C   0  0  0  0  0  0  0  0  0  0  0  0
   30.3180   34.4580    8.5010 C   0  0  0  0  0  0  0  0  0  0  0  0
   28.8070   34.5200    8.3790 C   0  0  0  0  0  0  0  0  0  0  0  0
   28.1490   33.8000    9.5050 N   0  0  0  0  0  0  0  0  0  0  0  0
  1  2  1  0  0  0  0
  3  2  1  0  0  0  0
  4  3  1  0  0  0  0
  5  4  1  0  0  0  0
  5  6  1  0  0  0  0
M  END
>  <EGIN_R>
ES LYS A 135

>  <REMARK>
  4 active torsions:
  status: ('A' for Active; 'I' for Inactive)
    5  A    between atoms: CA   and  CB  
    6  A    between atoms: CB   and  CG  
    7  A    between atoms: CG   and  CD  
    8  A    between atoms: CD   and  CE  

$$$$
