ligand_18_pose_11_2HRL.pdbqt
 OpenBabel07062320523D

 54 55  0  0  1  0  0  0  0  0999 V2000
   30.4600   34.7130   14.8410 N   0  0  0  0  0  0  0  0  0  0  0  0
   30.5560   35.0470   13.4740 C   0  0  0  0  0  0  0  0  0  0  0  0
   31.6970   35.2100   12.9770 O   0  0  0  0  0  0  0  0  0  0  0  0
   29.5020   34.5830   15.2340 H   0  0  0  0  0  0  0  0  0  0  0  0
   31.5870   34.5370   15.7360 C   0  0  0  0  0  0  0  0  0  0  0  0
   31.3080   33.4590   16.7450 C   0  0  2  0  0  0  0  0  0  0  0  0
   30.8810   32.1540   16.1630 C   0  0  1  0  0  0  0  0  0  0  0  0
   29.4860   31.7090   16.3950 C   0  0  2  0  0  0  0  0  0  0  0  0
   27.3440   32.6400   16.2560 C   0  0  2  0  0  0  0  0  0  0  0  0
   26.9760   31.1760   16.4140 C   0  0  0  0  0  0  0  0  0  0  0  0
   28.6820   32.8640   16.1180 O   0  0  0  0  0  0  0  0  0  0  0  0
   27.6800   30.6530   17.6180 C   0  0  1  0  0  0  0  0  0  0  0  0
   29.0810   31.2840   17.7480 C   0  0  1  0  0  0  0  0  0  0  0  0
   26.8050   33.2820   17.3870 O   0  0  0  0  0  0  0  0  0  0  0  0
   25.8650   32.9730   17.5050 H   0  0  0  0  0  0  0  0  0  0  0  0
   26.6720   33.2160   15.0630 C   0  0  0  0  0  0  0  0  0  0  0  0
   25.5170   32.8370   14.7770 O   0  0  0  0  0  0  0  0  0  0  0  0
   27.2890   34.1650   14.2530 O   0  0  0  0  0  0  0  0  0  0  0  0
   26.7210   34.5450   13.4950 H   0  0  0  0  0  0  0  0  0  0  0  0
   26.9690   30.7930   18.7890 O   0  0  0  0  0  0  0  0  0  0  0  0
   26.7100   29.9120   19.1610 H   0  0  0  0  0  0  0  0  0  0  0  0
   29.8650   30.3260   18.4330 N   0  0  0  0  0  0  0  0  0  0  0  0
   30.5900   30.6930   19.5860 C   0  0  0  0  0  0  0  0  0  0  0  0
   29.9280   29.3490   18.1170 H   0  0  0  0  0  0  0  0  0  0  0  0
   31.4340   29.7180   20.3430 C   0  0  0  0  0  0  0  0  0  0  0  0
   30.5730   31.8810   20.0550 O   0  0  0  0  0  0  0  0  0  0  0  0
   31.4220   31.8520   14.9220 O   0  0  0  0  0  0  0  0  0  0  0  0
   31.4250   32.5850   14.2930 H   0  0  0  0  0  0  0  0  0  0  0  0
   30.5260   33.8670   17.8170 O   0  0  0  0  0  0  0  0  0  0  0  0
   29.8860   34.5780   17.5830 H   0  0  0  0  0  0  0  0  0  0  0  0
   29.4280   35.2000   12.6560 O   0  0  0  0  0  0  0  0  0  0  0  0
   29.0510   36.4790   12.1800 C   0  0  0  0  0  0  0  0  0  0  0  0
   27.7080   36.3580   11.5480 C   0  0  0  0  0  0  0  0  0  0  0  0
   27.0650   37.2650   10.7310 C   0  0  0  0  0  0  0  0  0  0  0  0
   26.8500   35.3310   11.6550 N   0  0  0  0  0  0  0  0  0  0  0  0
   25.8700   36.7690   10.3790 N   0  0  0  0  0  0  0  0  0  0  0  0
   25.7630   35.5910   10.9550 N   0  0  0  0  0  0  0  0  0  0  0  0
   24.9030   37.4540    9.5050 C   0  0  0  0  0  0  0  0  0  0  0  0
   25.6220   37.7800    8.2520 C   0  0  0  0  0  0  0  0  0  0  0  0
   25.8580   36.8370    7.4260 O   0  0  0  0  0  0  0  0  0  0  0  0
   26.0780   39.0680    7.8850 N   0  0  0  0  0  0  0  0  0  0  0  0
   25.8870   39.8330    8.5570 H   0  0  0  0  0  0  0  0  0  0  0  0
   26.7750   39.3410    6.6500 C   0  0  0  0  0  0  0  0  0  0  0  0
   28.2380   39.5120    7.0110 C   0  0  0  0  0  0  0  0  0  0  0  0
   29.1890   38.5960    7.1520 C   0  0  0  0  0  0  0  0  0  0  0  0
   29.0350   41.0150    7.3390 S   0  0  0  0  0  0  0  0  0  0  0  0
   30.4480   38.9560    7.4840 C   0  0  0  0  0  0  0  0  0  0  0  0
   30.6590   40.3310    7.6610 C   0  0  0  0  0  0  0  0  0  0  0  0
   29.8670   25.5550   16.9770 C   0  0  0  0  0  0  0  0  0  0  0  0
   28.3450   25.7220   17.0260 C   0  0  0  0  0  0  0  0  0  0  0  0
   27.5990   24.4290   16.7340 C   0  0  0  0  0  0  0  0  0  0  0  0
   26.9900   23.8350   17.9730 C   0  0  0  0  0  0  0  0  0  0  0  0
   25.5670   23.3750   17.6710 C   0  0  0  0  0  0  0  0  0  0  0  0
   24.8530   24.3930   16.8650 N   0  0  0  0  0  0  0  0  0  0  0  0
  1  4  1  0  0  0  0
  1  5  1  0  0  0  0
  2  1  1  0  0  0  0
  3  2  2  0  0  0  0
  6  5  1  6  0  0  0
  6 29  1  0  0  0  0
  7 27  1  6  0  0  0
  7  6  1  0  0  0  0
  8  7  1  1  0  0  0
  8 13  1  0  0  0  0
  9 16  1  6  0  0  0
  9 10  1  0  0  0  0
  9 14  1  0  0  0  0
 10 12  1  0  0  0  0
 11  9  1  0  0  0  0
 11  8  1  0  0  0  0
 12 13  1  0  0  0  0
 12 20  1  1  0  0  0
 13 22  1  6  0  0  0
 14 15  1  0  0  0  0
 17 16  2  0  0  0  0
 18 16  1  0  0  0  0
 19 18  1  0  0  0  0
 20 21  1  0  0  0  0
 22 23  1  0  0  0  0
 23 26  2  0  0  0  0
 23 25  1  0  0  0  0
 24 22  1  0  0  0  0
 28 27  1  0  0  0  0
 30 29  1  0  0  0  0
 31  2  1  0  0  0  0
 32 31  1  0  0  0  0
 33 35  1  0  0  0  0
 33 32  1  0  0  0  0
 34 33  2  0  0  0  0
 36 34  1  0  0  0  0
 36 37  1  0  0  0  0
 37 35  2  0  0  0  0
 38 36  1  0  0  0  0
 39 38  1  0  0  0  0
 40 39  2  0  0  0  0
 41 39  1  0  0  0  0
 41 42  1  0  0  0  0
 43 44  1  0  0  0  0
 43 41  1  0  0  0  0
 44 45  2  0  0  0  0
 44 46  1  0  0  0  0
 45 47  1  0  0  0  0
 46 48  1  0  0  0  0
 47 48  2  0  0  0  0
 49 50  1  0  0  0  0
 51 50  1  0  0  0  0
 51 52  1  0  0  0  0
 53 52  1  0  0  0  0
 54 53  1  0  0  0  0
M  END
>  <REMARK>
 VINA RESULT:    -4.192      3.121      9.750
 INTER + INTRA:         -14.779
 INTER:                  -8.590
 INTRA:                  -6.189
 UNBOUND:                -6.788
 SMILES CC(=O)N[C@@H]1[C@@H](O)C[C@](O)(C(=O)O)O[C@H]1C(O)[C@H](O)CNC(=O)OCc1cn(CC(=O)NCc2cccs2)nn1
 SMILES IDX 21 1 22 2 23 3 20 5 18 6 16 7 15 8 9 9 8 10 14 11 6 12 5 13
 SMILES IDX 10 14 11 16 12 17 13 18 7 20 4 22 2 23 1 25 3 26 17 27 19 29
 SMILES IDX 24 31 25 32 26 33 27 34 40 35 28 36 39 37 29 38 30 39 31 40
 SMILES IDX 32 41 33 43 34 44 35 45 38 46 36 47 37 48
 H PARENT 21 4 10 15 13 19 7 21 4 24 17 28 19 30 32 42
 Flexibility Score: inf
  4 active torsions:
  status: ('A' for Active; 'I' for Inactive)
    1  A    between atoms: CA   and  CB  
    2  A    between atoms: CB   and  CG  
    3  A    between atoms: CG   and  CD  
    4  A    between atoms: CD   and  CE  

>  <TORSDO>
F 18

>  <BEGIN_>
RES LYS A 131

$$$$
ligand_18_pose_11_2HRL.pdbqt
 OpenBabel07062320523D

  6  5  0  0  0  0  0  0  0  0999 V2000
   33.1930   34.6630    9.2900 C   0  0  0  0  0  0  0  0  0  0  0  0
   32.0600   35.3600   10.0340 C   0  0  0  0  0  0  0  0  0  0  0  0
   30.8700   35.6720    9.1640 C   0  0  0  0  0  0  0  0  0  0  0  0
   30.3630   34.4140    8.4760 C   0  0  0  0  0  0  0  0  0  0  0  0
   29.0670   33.9470    9.1100 C   0  0  0  0  0  0  0  0  0  0  0  0
   27.8870   34.4820    8.3750 N   0  0  0  0  0  0  0  0  0  0  0  0
  1  2  1  0  0  0  0
  3  2  1  0  0  0  0
  4  5  1  0  0  0  0
  4  3  1  0  0  0  0
  6  5  1  0  0  0  0
M  END
>  <EGIN_R>
ES LYS A 135

>  <REMARK>
  4 active torsions:
  status: ('A' for Active; 'I' for Inactive)
    5  A    between atoms: CA   and  CB  
    6  A    between atoms: CB   and  CG  
    7  A    between atoms: CG   and  CD  
    8  A    between atoms: CD   and  CE  

$$$$
