ligand_55_pose_17_2HRL.pdbqt
 OpenBabel07062320523D

 51 51  0  0  1  0  0  0  0  0999 V2000
   30.1640   32.7030   18.9220 N   0  0  0  0  0  0  0  0  0  0  0  0
   30.4630   32.1800   17.6480 C   0  0  0  0  0  0  0  0  0  0  0  0
   30.3730   30.9740   17.3650 O   0  0  0  0  0  0  0  0  0  0  0  0
   30.2690   33.7560   19.0420 H   0  0  0  0  0  0  0  0  0  0  0  0
   29.7390   31.9590   20.0480 C   0  0  0  0  0  0  0  0  0  0  0  0
   28.2830   32.0600   20.4290 C   0  0  2  0  0  0  0  0  0  0  0  0
   27.7980   30.6650   20.6740 C   0  0  2  0  0  0  0  0  0  0  0  0
   27.8670   29.7070   19.5290 C   0  0  2  0  0  0  0  0  0  0  0  0
   26.7140   29.2010   17.5510 C   0  0  2  0  0  0  0  0  0  0  0  0
   27.0520   27.7560   17.6920 C   0  0  0  0  0  0  0  0  0  0  0  0
   26.9570   30.0020   18.5970 O   0  0  0  0  0  0  0  0  0  0  0  0
   27.1980   27.3070   19.1200 C   0  0  1  0  0  0  0  0  0  0  0  0
   28.0000   28.2700   19.9280 C   0  0  1  0  0  0  0  0  0  0  0  0
   25.3590   29.3020   17.2110 O   0  0  0  0  0  0  0  0  0  0  0  0
   24.8680   28.5900   17.6720 H   0  0  0  0  0  0  0  0  0  0  0  0
   27.4690   29.7340   16.3800 C   0  0  0  0  0  0  0  0  0  0  0  0
   27.2110   30.8140   15.8180 O   0  0  0  0  0  0  0  0  0  0  0  0
   28.5460   29.0000   15.8490 O   0  0  0  0  0  0  0  0  0  0  0  0
   29.1410   29.3870   15.1270 H   0  0  0  0  0  0  0  0  0  0  0  0
   25.9330   27.0490   19.6340 O   0  0  0  0  0  0  0  0  0  0  0  0
   25.9960   26.1930   20.1310 H   0  0  0  0  0  0  0  0  0  0  0  0
   29.3810   27.8210   19.9070 N   0  0  0  0  0  0  0  0  0  0  0  0
   30.1290   27.5270   21.0780 C   0  0  0  0  0  0  0  0  0  0  0  0
   29.9090   27.6890   18.9930 H   0  0  0  0  0  0  0  0  0  0  0  0
   31.5560   27.0670   21.0050 C   0  0  0  0  0  0  0  0  0  0  0  0
   29.5400   27.6700   22.1810 O   0  0  0  0  0  0  0  0  0  0  0  0
   26.4480   30.8310   21.1040 O   0  0  0  0  0  0  0  0  0  0  0  0
   25.8360   30.3230   20.5310 H   0  0  0  0  0  0  0  0  0  0  0  0
   27.6150   32.7730   19.4710 O   0  0  0  0  0  0  0  0  0  0  0  0
   28.0790   32.7880   18.6250 H   0  0  0  0  0  0  0  0  0  0  0  0
   30.8820   33.0360   16.6350 O   0  0  0  0  0  0  0  0  0  0  0  0
   30.3640   34.3270   16.4370 C   0  0  0  0  0  0  0  0  0  0  0  0
   28.9480   34.2670   16.0270 C   0  0  0  0  0  0  0  0  0  0  0  0
   28.4160   34.2710   14.7540 C   0  0  0  0  0  0  0  0  0  0  0  0
   27.9090   34.1960   16.8540 N   0  0  0  0  0  0  0  0  0  0  0  0
   27.0810   34.2030   14.8440 N   0  0  0  0  0  0  0  0  0  0  0  0
   26.8010   34.1580   16.1410 N   0  0  0  0  0  0  0  0  0  0  0  0
   26.0770   34.1780   13.8120 C   0  0  0  0  0  0  0  0  0  0  0  0
   24.8200   33.4510   14.2540 C   0  0  0  0  0  0  0  0  0  0  0  0
   25.1360   32.0400   14.3230 N   0  0  0  0  0  0  0  0  0  0  0  0
   25.9130   31.8460   14.9710 H   0  0  0  0  0  0  0  0  0  0  0  0
   23.7670   31.0840   14.7290 S   0  0  0  0  0  0  0  0  0  0  0  0
   24.1530   29.6410   14.5290 O   0  0  0  0  0  0  0  0  0  0  0  0
   23.3640   31.3600   16.1420 O   0  0  0  0  0  0  0  0  0  0  0  0
   22.4030   31.4400   13.6460 C   0  0  0  0  0  0  0  0  0  0  0  0
   29.8670   25.5550   16.9770 C   0  0  0  0  0  0  0  0  0  0  0  0
   28.3450   25.7220   17.0260 C   0  0  0  0  0  0  0  0  0  0  0  0
   27.5990   24.4420   16.6830 C   0  0  0  0  0  0  0  0  0  0  0  0
   26.9880   23.7990   17.8980 C   0  0  0  0  0  0  0  0  0  0  0  0
   25.5790   23.3200   17.5650 C   0  0  0  0  0  0  0  0  0  0  0  0
   24.7950   24.4090   16.9360 N   0  0  0  0  0  0  0  0  0  0  0  0
  1  4  1  0  0  0  0
  1  5  1  0  0  0  0
  2  1  1  0  0  0  0
  3  2  2  0  0  0  0
  6  5  1  6  0  0  0
  6  7  1  0  0  0  0
  7 27  1  6  0  0  0
  8 13  1  0  0  0  0
  8  7  1  1  0  0  0
  9 16  1  6  0  0  0
  9 10  1  0  0  0  0
  9 11  1  0  0  0  0
 10 12  1  0  0  0  0
 11  8  1  0  0  0  0
 12 20  1  1  0  0  0
 12 13  1  0  0  0  0
 13 22  1  6  0  0  0
 14  9  1  0  0  0  0
 14 15  1  0  0  0  0
 17 16  2  0  0  0  0
 18 16  1  0  0  0  0
 19 18  1  0  0  0  0
 20 21  1  0  0  0  0
 22 23  1  0  0  0  0
 23 26  2  0  0  0  0
 24 22  1  0  0  0  0
 25 23  1  0  0  0  0
 28 27  1  0  0  0  0
 29  6  1  0  0  0  0
 30 29  1  0  0  0  0
 31  2  1  0  0  0  0
 32 31  1  0  0  0  0
 33 32  1  0  0  0  0
 33 35  1  0  0  0  0
 34 36  1  0  0  0  0
 34 33  2  0  0  0  0
 36 37  1  0  0  0  0
 37 35  2  0  0  0  0
 38 39  1  0  0  0  0
 38 36  1  0  0  0  0
 39 40  1  0  0  0  0
 40 42  1  0  0  0  0
 40 41  1  0  0  0  0
 42 44  2  0  0  0  0
 43 42  2  0  0  0  0
 45 42  1  0  0  0  0
 46 47  1  0  0  0  0
 48 47  1  0  0  0  0
 48 49  1  0  0  0  0
 50 49  1  0  0  0  0
 51 50  1  0  0  0  0
M  END
>  <REMARK>
 VINA RESULT:    -4.196      3.261      7.577
 INTER + INTRA:         -14.274
 INTER:                  -6.852
 INTRA:                  -7.423
 UNBOUND:                -6.277
 SMILES CC(=O)N[C@@H]1[C@@H](O)C[C@](O)(C(=O)O)O[C@H]1C(O)[C@H](O)CNC(=O)OCc1cn(CCNS(C)(=O)=O)nn1
 SMILES IDX 21 1 22 2 23 3 20 5 18 6 16 7 15 8 9 9 8 10 14 11 6 12 5 13
 SMILES IDX 10 14 11 16 12 17 13 18 7 20 4 22 2 23 1 25 3 26 17 27 19 29
 SMILES IDX 24 31 25 32 26 33 27 34 37 35 28 36 36 37 29 38 30 39 31 40
 SMILES IDX 32 42 34 43 35 44 33 45
 H PARENT 21 4 10 15 13 19 7 21 4 24 17 28 19 30 31 41
 Flexibility Score: inf
  4 active torsions:
  status: ('A' for Active; 'I' for Inactive)
    1  A    between atoms: CA   and  CB  
    2  A    between atoms: CB   and  CG  
    3  A    between atoms: CG   and  CD  
    4  A    between atoms: CD   and  CE  

>  <TORSDO>
F 18

>  <BEGIN_>
RES LYS A 131

$$$$
ligand_55_pose_17_2HRL.pdbqt
 OpenBabel07062320523D

  6  5  0  0  0  0  0  0  0  0999 V2000
   33.1930   34.6630    9.2900 C   0  0  0  0  0  0  0  0  0  0  0  0
   32.0600   35.3600   10.0340 C   0  0  0  0  0  0  0  0  0  0  0  0
   30.7100   34.7340    9.7980 C   0  0  0  0  0  0  0  0  0  0  0  0
   30.4630   34.5340    8.3110 C   0  0  0  0  0  0  0  0  0  0  0  0
   29.0170   34.8310    7.9660 C   0  0  0  0  0  0  0  0  0  0  0  0
   28.9120   35.5460    6.6640 N   0  0  0  0  0  0  0  0  0  0  0  0
  1  2  1  0  0  0  0
  3  2  1  0  0  0  0
  4  3  1  0  0  0  0
  5  4  1  0  0  0  0
  6  5  1  0  0  0  0
M  END
>  <EGIN_R>
ES LYS A 135

>  <REMARK>
  4 active torsions:
  status: ('A' for Active; 'I' for Inactive)
    5  A    between atoms: CA   and  CB  
    6  A    between atoms: CB   and  CG  
    7  A    between atoms: CG   and  CD  
    8  A    between atoms: CD   and  CE  

$$$$
