ligand_92_pose_5_2HRL.pdbqt
 OpenBabel07062320523D

 59 61  0  0  1  0  0  0  0  0999 V2000
   25.5440   33.4250   14.0890 N   0  0  0  0  0  0  0  0  0  0  0  0
   24.2340   32.9240   14.2510 C   0  0  0  0  0  0  0  0  0  0  0  0
   23.5130   33.3940   15.1960 O   0  0  0  0  0  0  0  0  0  0  0  0
   26.1330   33.0510   13.3260 H   0  0  0  0  0  0  0  0  0  0  0  0
   26.0790   34.4420   14.9540 C   0  0  0  0  0  0  0  0  0  0  0  0
   27.4850   34.8440   14.5830 C   0  0  2  0  0  0  0  0  0  0  0  0
   28.4990   33.8260   15.0200 C   0  0  1  0  0  0  0  0  0  0  0  0
   29.6260   34.4940   15.8280 C   0  0  2  0  0  0  0  0  0  0  0  0
   31.3960   34.6360   14.2740 C   0  0  2  0  0  0  0  0  0  0  0  0
   32.2730   33.8460   15.2260 C   0  0  0  0  0  0  0  0  0  0  0  0
   30.3750   35.2110   14.9460 O   0  0  0  0  0  0  0  0  0  0  0  0
   31.3810   32.7760   15.8110 C   0  0  1  0  0  0  0  0  0  0  0  0
   30.3150   33.4610   16.6300 C   0  0  1  0  0  0  0  0  0  0  0  0
   30.8860   33.6990   13.3650 O   0  0  0  0  0  0  0  0  0  0  0  0
   31.1960   33.8430   12.4520 H   0  0  0  0  0  0  0  0  0  0  0  0
   32.2030   35.6090   13.4920 C   0  0  0  0  0  0  0  0  0  0  0  0
   32.2480   36.7940   13.8500 O   0  0  0  0  0  0  0  0  0  0  0  0
   32.9020   35.2080   12.3710 O   0  0  0  0  0  0  0  0  0  0  0  0
   33.1680   34.2190   12.2530 H   0  0  0  0  0  0  0  0  0  0  0  0
   30.8640   31.9810   14.7950 O   0  0  0  0  0  0  0  0  0  0  0  0
   30.2900   32.5690   14.2230 H   0  0  0  0  0  0  0  0  0  0  0  0
   30.9230   33.9130   17.8400 N   0  0  0  0  0  0  0  0  0  0  0  0
   30.9900   33.0660   18.9670 C   0  0  0  0  0  0  0  0  0  0  0  0
   31.3190   34.8650   17.9020 H   0  0  0  0  0  0  0  0  0  0  0  0
   31.6020   33.4530   20.2630 C   0  0  0  0  0  0  0  0  0  0  0  0
   30.5060   31.9300   18.8670 O   0  0  0  0  0  0  0  0  0  0  0  0
   27.9220   32.7930   15.7940 O   0  0  0  0  0  0  0  0  0  0  0  0
   28.1070   31.9510   15.3400 H   0  0  0  0  0  0  0  0  0  0  0  0
   27.6980   36.0860   15.2190 O   0  0  0  0  0  0  0  0  0  0  0  0
   27.3960   35.9710   16.1530 H   0  0  0  0  0  0  0  0  0  0  0  0
   23.6790   31.9500   13.4480 O   0  0  0  0  0  0  0  0  0  0  0  0
   24.3310   30.6930   13.2200 C   0  0  0  0  0  0  0  0  0  0  0  0
   24.4750   30.0510   14.5590 C   0  0  0  0  0  0  0  0  0  0  0  0
   25.6100   30.0600   15.3740 C   0  0  0  0  0  0  0  0  0  0  0  0
   23.5680   29.3400   15.2600 N   0  0  0  0  0  0  0  0  0  0  0  0
   25.3550   29.3760   16.5010 N   0  0  0  0  0  0  0  0  0  0  0  0
   24.1090   28.9580   16.3910 N   0  0  0  0  0  0  0  0  0  0  0  0
   26.2760   29.1740   17.5640 C   0  0  0  0  0  0  0  0  0  0  0  0
   26.7370   27.9280   17.9210 C   0  0  0  0  0  0  0  0  0  0  0  0
   26.7380   30.2580   18.2800 C   0  0  0  0  0  0  0  0  0  0  0  0
   27.6400   27.7530   18.9690 C   0  0  0  0  0  0  0  0  0  0  0  0
   27.6300   30.0870   19.3150 C   0  0  0  0  0  0  0  0  0  0  0  0
   28.1080   28.8260   19.6890 C   0  0  0  0  0  0  0  0  0  0  0  0
   29.2430   28.6580   20.9950 S   0  0  0  0  0  0  0  0  0  0  0  0
   29.9530   27.3250   20.7930 O   0  0  0  0  0  0  0  0  0  0  0  0
   28.4680   28.5340   22.2610 O   0  0  0  0  0  0  0  0  0  0  0  0
   30.4010   29.8980   21.0880 N   0  0  0  0  0  0  0  0  0  0  0  0
   30.1490   30.8340   20.6680 H   0  0  0  0  0  0  0  0  0  0  0  0
   31.6790   29.8250   21.6650 C   0  0  0  0  0  0  0  0  0  0  0  0
   32.8620   29.7400   21.3770 N   0  0  0  0  0  0  0  0  0  0  0  0
   31.8380   29.8650   23.5470 S   0  0  0  0  0  0  0  0  0  0  0  0
   33.8870   29.6930   22.1660 C   0  0  0  0  0  0  0  0  0  0  0  0
   33.6930   29.7420   23.5030 C   0  0  0  0  0  0  0  0  0  0  0  0
   29.8670   25.5550   16.9770 C   0  0  0  0  0  0  0  0  0  0  0  0
   28.3450   25.7220   17.0260 C   0  0  0  0  0  0  0  0  0  0  0  0
   27.6000   24.4140   16.8060 C   0  0  0  0  0  0  0  0  0  0  0  0
   26.1770   24.4850   17.2880 C   0  0  0  0  0  0  0  0  0  0  0  0
   26.0840   23.8870   18.6880 C   0  0  0  0  0  0  0  0  0  0  0  0
   25.4270   24.8380   19.6160 N   0  0  0  0  0  0  0  0  0  0  0  0
  1  2  1  0  0  0  0
  1  5  1  0  0  0  0
  2  3  2  0  0  0  0
  4  1  1  0  0  0  0
  6  5  1  1  0  0  0
  6  7  1  0  0  0  0
  6 29  1  0  0  0  0
  7 27  1  1  0  0  0
  8  7  1  6  0  0  0
  8 13  1  0  0  0  0
  9 14  1  6  0  0  0
  9 11  1  0  0  0  0
  9 10  1  0  0  0  0
 10 12  1  0  0  0  0
 11  8  1  0  0  0  0
 12 20  1  6  0  0  0
 12 13  1  0  0  0  0
 13 22  1  1  0  0  0
 15 14  1  0  0  0  0
 16 17  2  0  0  0  0
 16  9  1  0  0  0  0
 18 16  1  0  0  0  0
 19 18  1  0  0  0  0
 21 20  1  0  0  0  0
 22 24  1  0  0  0  0
 22 23  1  0  0  0  0
 23 25  1  0  0  0  0
 26 23  2  0  0  0  0
 28 27  1  0  0  0  0
 29 30  1  0  0  0  0
 31  2  1  0  0  0  0
 32 31  1  0  0  0  0
 32 33  1  0  0  0  0
 33 35  1  0  0  0  0
 33 34  2  0  0  0  0
 34 36  1  0  0  0  0
 35 37  2  0  0  0  0
 36 38  1  0  0  0  0
 37 36  1  0  0  0  0
 38 39  2  0  0  0  0
 38 40  1  0  0  0  0
 39 41  1  0  0  0  0
 40 42  2  0  0  0  0
 41 43  2  0  0  0  0
 42 43  1  0  0  0  0
 43 44  1  0  0  0  0
 44 47  1  0  0  0  0
 44 46  2  0  0  0  0
 45 44  2  0  0  0  0
 47 49  1  0  0  0  0
 48 47  1  0  0  0  0
 49 51  1  0  0  0  0
 50 49  2  0  0  0  0
 50 52  1  0  0  0  0
 52 53  2  0  0  0  0
 53 51  1  0  0  0  0
 54 55  1  0  0  0  0
 56 55  1  0  0  0  0
 56 57  1  0  0  0  0
 57 58  1  0  0  0  0
 58 59  1  0  0  0  0
M  END
>  <REMARK>
 VINA RESULT:    -5.220      3.789      8.610
 INTER + INTRA:         -16.358
 INTER:                 -10.121
 INTRA:                  -6.237
 UNBOUND:                -6.408
 SMILES CC(=O)N[C@@H]1[C@@H](O)C[C@](O)(C(=O)O)O[C@H]1C(O)[C@H](O)CNC(=O)OCc1cn(-c2ccc(S(=O)(=O)Nc3nccs3)cc2)nn1
 SMILES IDX 21 1 22 2 23 3 20 5 18 6 16 7 15 8 9 9 8 10 14 11 6 12 5 13
 SMILES IDX 10 14 11 16 12 17 13 18 7 20 4 22 2 23 1 25 3 26 17 27 19 29
 SMILES IDX 24 31 25 32 26 33 27 34 45 35 28 36 44 37 29 38 30 39 43 40
 SMILES IDX 31 41 42 42 32 43 33 44 34 45 35 46 36 47 37 49 38 50 41 51
 SMILES IDX 39 52 40 53
 H PARENT 21 4 10 15 13 19 7 21 4 24 17 28 19 30 36 48
 Flexibility Score: inf
  4 active torsions:
  status: ('A' for Active; 'I' for Inactive)
    1  A    between atoms: CA   and  CB  
    2  A    between atoms: CB   and  CG  
    3  A    between atoms: CG   and  CD  
    4  A    between atoms: CD   and  CE  

>  <TORSDO>
F 18

>  <BEGIN_>
RES LYS A 131

$$$$
ligand_92_pose_5_2HRL.pdbqt
 OpenBabel07062320523D

  6  5  0  0  0  0  0  0  0  0999 V2000
   33.1930   34.6630    9.2900 C   0  0  0  0  0  0  0  0  0  0  0  0
   32.0600   35.3600   10.0340 C   0  0  0  0  0  0  0  0  0  0  0  0
   30.8050   35.5120    9.2140 C   0  0  0  0  0  0  0  0  0  0  0  0
   30.1140   34.1680    9.0370 C   0  0  0  0  0  0  0  0  0  0  0  0
   28.6520   34.3640    8.6850 C   0  0  0  0  0  0  0  0  0  0  0  0
   27.7690   33.6320    9.6340 N   0  0  0  0  0  0  0  0  0  0  0  0
  1  2  1  0  0  0  0
  3  2  1  0  0  0  0
  4  3  1  0  0  0  0
  5  4  1  0  0  0  0
  5  6  1  0  0  0  0
M  END
>  <EGIN_R>
ES LYS A 135

>  <REMARK>
  4 active torsions:
  status: ('A' for Active; 'I' for Inactive)
    5  A    between atoms: CA   and  CB  
    6  A    between atoms: CB   and  CG  
    7  A    between atoms: CG   and  CD  
    8  A    between atoms: CD   and  CE  

$$$$
