ligand_25_pose_6_2HRL.pdbqt
 OpenBabel07062320523D

 56 59  0  0  1  0  0  0  0  0999 V2000
   27.3240   29.9830   17.6520 C   0  0  0  0  0  0  0  0  0  0  0  0
   27.6090   30.2910   16.2290 C   0  0  2  0  0  0  0  0  0  0  0  0
   28.9030   31.0100   16.0200 C   0  0  1  0  0  0  0  0  0  0  0  0
   28.8890   32.4870   16.3030 C   0  0  2  0  0  0  0  0  0  0  0  0
   30.3590   33.6440   14.8940 C   0  0  2  0  0  0  0  0  0  0  0  0
   30.5250   34.8340   15.8170 C   0  0  0  0  0  0  0  0  0  0  0  0
   29.1230   33.1090   15.0760 O   0  0  0  0  0  0  0  0  0  0  0  0
   30.1480   34.4350   17.1970 C   0  0  1  0  0  0  0  0  0  0  0  0
   29.8790   32.9290   17.3450 C   0  0  1  0  0  0  0  0  0  0  0  0
   31.4370   32.8230   15.0910 O   0  0  0  0  0  0  0  0  0  0  0  0
   31.1780   31.9490   15.4580 H   0  0  0  0  0  0  0  0  0  0  0  0
   30.4090   34.1930   13.5040 C   0  0  0  0  0  0  0  0  0  0  0  0
   29.3390   34.3920   12.8840 O   0  0  0  0  0  0  0  0  0  0  0  0
   31.6010   34.4930   12.8620 O   0  0  0  0  0  0  0  0  0  0  0  0
   32.5010   34.3620   13.3440 H   0  0  0  0  0  0  0  0  0  0  0  0
   31.0860   34.7760   18.1580 O   0  0  0  0  0  0  0  0  0  0  0  0
   30.7120   34.8480   19.0650 H   0  0  0  0  0  0  0  0  0  0  0  0
   29.2920   32.8090   18.6610 N   0  0  0  0  0  0  0  0  0  0  0  0
   29.7320   31.9110   19.6670 C   0  0  0  0  0  0  0  0  0  0  0  0
   28.4870   33.4290   18.8890 H   0  0  0  0  0  0  0  0  0  0  0  0
   29.0690   31.8460   21.0100 C   0  0  0  0  0  0  0  0  0  0  0  0
   30.7060   31.1640   19.3950 O   0  0  0  0  0  0  0  0  0  0  0  0
   30.0050   30.4060   16.6130 O   0  0  0  0  0  0  0  0  0  0  0  0
   29.8710   29.4860   16.8920 H   0  0  0  0  0  0  0  0  0  0  0  0
   26.6040   31.1100   15.7190 O   0  0  0  0  0  0  0  0  0  0  0  0
   26.8070   31.4600   14.8310 H   0  0  0  0  0  0  0  0  0  0  0  0
   28.1490   29.0040   18.2560 N   0  0  0  0  0  0  0  0  0  0  0  0
   28.0220   28.5760   19.5890 C   0  0  0  0  0  0  0  0  0  0  0  0
   28.9260   28.5460   17.6780 H   0  0  0  0  0  0  0  0  0  0  0  0
   27.1630   29.0190   20.3440 O   0  0  0  0  0  0  0  0  0  0  0  0
   28.8870   27.6060   20.1270 O   0  0  0  0  0  0  0  0  0  0  0  0
   29.3720   27.6500   21.4340 C   0  0  0  0  0  0  0  0  0  0  0  0
   30.6810   28.3370   21.5630 C   0  0  0  0  0  0  0  0  0  0  0  0
   31.1560   29.1250   22.5830 C   0  0  0  0  0  0  0  0  0  0  0  0
   31.6380   28.2730   20.6360 N   0  0  0  0  0  0  0  0  0  0  0  0
   32.3790   29.5110   22.2390 N   0  0  0  0  0  0  0  0  0  0  0  0
   32.6540   28.9880   21.0610 N   0  0  0  0  0  0  0  0  0  0  0  0
   33.2850   30.3570   23.0000 C   0  0  0  0  0  0  0  0  0  0  0  0
   33.5090   31.6540   22.3370 C   0  0  0  0  0  0  0  0  0  0  0  0
   34.6020   29.7630   23.1720 C   0  0  0  0  0  0  0  0  0  0  0  0
   32.5870   32.6370   21.9350 C   0  0  0  0  0  0  0  0  0  0  0  0
   34.8530   31.7960   22.1410 C   0  0  0  0  0  0  0  0  0  0  0  0
   35.5430   30.6160   22.6610 C   0  0  0  0  0  0  0  0  0  0  0  0
   35.0430   28.5480   23.7330 C   0  0  0  0  0  0  0  0  0  0  0  0
   33.0710   33.7700   21.3290 C   0  0  0  0  0  0  0  0  0  0  0  0
   35.3050   32.9600   21.5210 C   0  0  0  0  0  0  0  0  0  0  0  0
   36.9140   30.3390   22.6710 C   0  0  0  0  0  0  0  0  0  0  0  0
   36.3810   28.2550   23.7540 C   0  0  0  0  0  0  0  0  0  0  0  0
   34.4250   33.9390   21.1180 C   0  0  0  0  0  0  0  0  0  0  0  0
   37.3040   29.1430   23.2270 C   0  0  0  0  0  0  0  0  0  0  0  0
   29.8670   25.5550   16.9770 C   0  0  0  0  0  0  0  0  0  0  0  0
   28.3450   25.7220   17.0260 C   0  0  0  0  0  0  0  0  0  0  0  0
   27.6020   24.3990   16.9190 C   0  0  0  0  0  0  0  0  0  0  0  0
   26.5500   24.2530   17.9840 C   0  0  0  0  0  0  0  0  0  0  0  0
   26.0650   25.6340   18.4140 C   0  0  0  0  0  0  0  0  0  0  0  0
   25.8080   25.6620   19.8730 N   0  0  0  0  0  0  0  0  0  0  0  0
  1 27  1  0  0  0  0
  2  1  1  1  0  0  0
  3  2  1  0  0  0  0
  3 23  1  1  0  0  0
  4  3  1  6  0  0  0
  4  9  1  0  0  0  0
  5 12  1  6  0  0  0
  5  7  1  0  0  0  0
  5 10  1  0  0  0  0
  5  6  1  0  0  0  0
  6  8  1  0  0  0  0
  7  4  1  0  0  0  0
  8  9  1  0  0  0  0
  8 16  1  1  0  0  0
  9 18  1  1  0  0  0
 10 11  1  0  0  0  0
 13 12  2  0  0  0  0
 14 15  1  0  0  0  0
 14 12  1  0  0  0  0
 16 17  1  0  0  0  0
 18 20  1  0  0  0  0
 18 19  1  0  0  0  0
 19 21  1  0  0  0  0
 22 19  2  0  0  0  0
 23 24  1  0  0  0  0
 25  2  1  0  0  0  0
 26 25  1  0  0  0  0
 27 28  1  0  0  0  0
 28 31  1  0  0  0  0
 28 30  2  0  0  0  0
 29 27  1  0  0  0  0
 31 32  1  0  0  0  0
 32 33  1  0  0  0  0
 33 34  2  0  0  0  0
 35 37  2  0  0  0  0
 35 33  1  0  0  0  0
 36 34  1  0  0  0  0
 36 38  1  0  0  0  0
 37 36  1  0  0  0  0
 38 40  1  0  0  0  0
 39 38  1  0  0  0  0
 40 44  2  0  0  0  0
 41 39  2  0  0  0  0
 42 39  1  0  0  0  0
 42 43  1  0  0  0  0
 43 47  2  0  0  0  0
 43 40  1  0  0  0  0
 44 48  1  0  0  0  0
 45 41  1  0  0  0  0
 46 42  2  0  0  0  0
 47 50  1  0  0  0  0
 49 45  2  0  0  0  0
 49 46  1  0  0  0  0
 50 48  2  0  0  0  0
 51 52  1  0  0  0  0
 53 52  1  0  0  0  0
 53 54  1  0  0  0  0
 54 55  1  0  0  0  0
 55 56  1  0  0  0  0
M  END
>  <REMARK>
 VINA RESULT:    -6.657      5.102     10.226
 INTER + INTRA:         -16.100
 INTER:                  -9.734
 INTRA:                  -6.366
 UNBOUND:                -4.578
 SMILES CC(=O)N[C@@H]1[C@@H](O)C[C@](O)(C(=O)O)O[C@H]1C(O)[C@H](O)CNC(=O)OCc1cn(C2c3ccccc3-c3ccccc32)nn1
 SMILES IDX 20 1 18 2 16 3 15 4 9 5 8 6 14 7 6 8 5 9 10 10 11 12 12 13
 SMILES IDX 13 14 7 16 4 18 2 19 1 21 3 22 17 23 19 25 21 27 22 28 23 30
 SMILES IDX 24 31 25 32 26 33 27 34 43 35 28 36 42 37 29 38 30 39 41 40
 SMILES IDX 31 41 35 42 36 43 40 44 32 45 34 46 37 47 39 48 33 49 38 50
 H PARENT 10 11 13 15 7 17 4 20 17 24 19 26 21 29
 Flexibility Score: inf
  4 active torsions:
  status: ('A' for Active; 'I' for Inactive)
    1  A    between atoms: CA   and  CB  
    2  A    between atoms: CB   and  CG  
    3  A    between atoms: CG   and  CD  
    4  A    between atoms: CD   and  CE  

>  <TORSDO>
F 15

>  <BEGIN_>
RES LYS A 131

$$$$
ligand_25_pose_6_2HRL.pdbqt
 OpenBabel07062320523D

  6  5  0  0  0  0  0  0  0  0999 V2000
   33.1930   34.6630    9.2900 C   0  0  0  0  0  0  0  0  0  0  0  0
   32.0600   35.3600   10.0340 C   0  0  0  0  0  0  0  0  0  0  0  0
   30.6930   34.8350    9.6780 C   0  0  0  0  0  0  0  0  0  0  0  0
   30.0220   35.7350    8.6520 C   0  0  0  0  0  0  0  0  0  0  0  0
   29.3820   34.9070    7.5550 C   0  0  0  0  0  0  0  0  0  0  0  0
   28.8040   35.7770    6.4940 N   0  0  0  0  0  0  0  0  0  0  0  0
  1  2  1  0  0  0  0
  3  2  1  0  0  0  0
  4  3  1  0  0  0  0
  5  4  1  0  0  0  0
  6  5  1  0  0  0  0
M  END
>  <EGIN_R>
ES LYS A 135

>  <REMARK>
  4 active torsions:
  status: ('A' for Active; 'I' for Inactive)
    5  A    between atoms: CA   and  CB  
    6  A    between atoms: CB   and  CG  
    7  A    between atoms: CG   and  CD  
    8  A    between atoms: CD   and  CE  

$$$$
