ligand_24_pose_4_2HRL.pdbqt
 OpenBabel07062320523D

 52 53  0  0  1  0  0  0  0  0999 V2000
   26.3150   35.9190   10.2460 N   0  0  0  0  0  0  0  0  0  0  0  0
   27.1160   34.8880   10.7820 C   0  0  0  0  0  0  0  0  0  0  0  0
   27.3030   33.7900   10.2030 O   0  0  0  0  0  0  0  0  0  0  0  0
   26.2250   36.7910   10.8180 H   0  0  0  0  0  0  0  0  0  0  0  0
   25.6360   35.8440    8.9920 C   0  0  0  0  0  0  0  0  0  0  0  0
   25.7510   37.0620    8.1400 C   0  0  2  0  0  0  0  0  0  0  0  0
   26.8190   38.0170    8.6250 C   0  0  1  0  0  0  0  0  0  0  0  0
   27.2900   38.9840    7.5990 C   0  0  2  0  0  0  0  0  0  0  0  0
   27.4940   39.3580    5.3240 C   0  0  2  0  0  0  0  0  0  0  0  0
   28.8730   39.9320    5.4780 C   0  0  0  0  0  0  0  0  0  0  0  0
   27.0930   38.5080    6.3050 O   0  0  0  0  0  0  0  0  0  0  0  0
   29.2070   40.2760    6.9150 C   0  0  1  0  0  0  0  0  0  0  0  0
   28.8100   39.1050    7.7480 C   0  0  1  0  0  0  0  0  0  0  0  0
   27.5500   38.5870    4.1340 O   0  0  0  0  0  0  0  0  0  0  0  0
   27.4380   37.6500    4.4260 H   0  0  0  0  0  0  0  0  0  0  0  0
   26.5660   40.4790    5.0440 C   0  0  0  0  0  0  0  0  0  0  0  0
   26.9360   41.5340    4.4490 O   0  0  0  0  0  0  0  0  0  0  0  0
   25.2250   40.4350    5.4220 O   0  0  0  0  0  0  0  0  0  0  0  0
   24.6130   41.2080    5.2420 H   0  0  0  0  0  0  0  0  0  0  0  0
   30.5450   40.6040    7.0190 O   0  0  0  0  0  0  0  0  0  0  0  0
   30.6390   41.5620    7.1310 H   0  0  0  0  0  0  0  0  0  0  0  0
   29.2500   39.1590    9.1050 N   0  0  0  0  0  0  0  0  0  0  0  0
   30.5050   38.7410    9.5690 C   0  0  0  0  0  0  0  0  0  0  0  0
   28.5770   39.5490    9.8210 H   0  0  0  0  0  0  0  0  0  0  0  0
   30.8400   38.8510   11.0080 C   0  0  0  0  0  0  0  0  0  0  0  0
   31.3370   38.2800    8.7820 O   0  0  0  0  0  0  0  0  0  0  0  0
   26.3690   38.6690    9.7520 O   0  0  0  0  0  0  0  0  0  0  0  0
   26.2190   39.6350    9.6520 H   0  0  0  0  0  0  0  0  0  0  0  0
   24.5620   37.6900    7.9140 O   0  0  0  0  0  0  0  0  0  0  0  0
   24.6790   38.6610    8.1440 H   0  0  0  0  0  0  0  0  0  0  0  0
   27.7460   35.0770   12.0260 O   0  0  0  0  0  0  0  0  0  0  0  0
   28.5040   36.2490   12.2200 C   0  0  0  0  0  0  0  0  0  0  0  0
   29.5970   36.0590   13.1890 C   0  0  0  0  0  0  0  0  0  0  0  0
   30.3140   34.8850   13.4350 C   0  0  0  0  0  0  0  0  0  0  0  0
   30.1210   36.9660   14.0320 N   0  0  0  0  0  0  0  0  0  0  0  0
   31.2220   35.1250   14.3910 N   0  0  0  0  0  0  0  0  0  0  0  0
   31.0840   36.3910   14.7350 N   0  0  0  0  0  0  0  0  0  0  0  0
   32.1730   34.2040   14.9560 C   0  0  0  0  0  0  0  0  0  0  0  0
   31.5370   33.3000   15.9380 C   0  0  0  0  0  0  0  0  0  0  0  0
   31.0830   32.0600   15.5530 C   0  0  0  0  0  0  0  0  0  0  0  0
   31.3990   33.7020   17.2410 C   0  0  0  0  0  0  0  0  0  0  0  0
   30.4850   31.2150   16.4850 C   0  0  0  0  0  0  0  0  0  0  0  0
   30.8030   32.8650   18.1840 C   0  0  0  0  0  0  0  0  0  0  0  0
   30.3510   31.6290   17.8000 C   0  0  0  0  0  0  0  0  0  0  0  0
   29.7500   30.7680   18.7200 O   0  0  0  0  0  0  0  0  0  0  0  0
   28.3610   30.5020   18.6210 C   0  0  0  0  0  0  0  0  0  0  0  0
   29.8670   25.5550   16.9770 C   0  0  0  0  0  0  0  0  0  0  0  0
   28.3450   25.7220   17.0260 C   0  0  0  0  0  0  0  0  0  0  0  0
   27.6010   24.4030   16.8880 C   0  0  0  0  0  0  0  0  0  0  0  0
   26.6470   24.1690   18.0270 C   0  0  0  0  0  0  0  0  0  0  0  0
   25.5660   23.1850   17.5910 C   0  0  0  0  0  0  0  0  0  0  0  0
   24.4630   23.8980   16.9040 N   0  0  0  0  0  0  0  0  0  0  0  0
  1  2  1  0  0  0  0
  1  4  1  0  0  0  0
  2 31  1  0  0  0  0
  3  2  2  0  0  0  0
  5  1  1  0  0  0  0
  6  7  1  0  0  0  0
  6  5  1  1  0  0  0
  7 27  1  1  0  0  0
  8 13  1  0  0  0  0
  8  7  1  1  0  0  0
  9 14  1  6  0  0  0
  9 10  1  0  0  0  0
  9 11  1  0  0  0  0
 10 12  1  0  0  0  0
 11  8  1  0  0  0  0
 12 20  1  6  0  0  0
 12 13  1  0  0  0  0
 13 22  1  1  0  0  0
 14 15  1  0  0  0  0
 16  9  1  0  0  0  0
 16 18  1  0  0  0  0
 17 16  2  0  0  0  0
 19 18  1  0  0  0  0
 20 21  1  0  0  0  0
 22 23  1  0  0  0  0
 22 24  1  0  0  0  0
 23 25  1  0  0  0  0
 26 23  2  0  0  0  0
 28 27  1  0  0  0  0
 29  6  1  0  0  0  0
 29 30  1  0  0  0  0
 31 32  1  0  0  0  0
 32 33  1  0  0  0  0
 33 34  2  0  0  0  0
 33 35  1  0  0  0  0
 34 36  1  0  0  0  0
 35 37  2  0  0  0  0
 36 37  1  0  0  0  0
 36 38  1  0  0  0  0
 38 39  1  0  0  0  0
 39 41  1  0  0  0  0
 40 39  2  0  0  0  0
 40 42  1  0  0  0  0
 41 43  2  0  0  0  0
 42 44  2  0  0  0  0
 44 43  1  0  0  0  0
 44 45  1  0  0  0  0
 46 45  1  0  0  0  0
 47 48  1  0  0  0  0
 49 48  1  0  0  0  0
 49 50  1  0  0  0  0
 51 50  1  0  0  0  0
 52 51  1  0  0  0  0
M  END
>  <REMARK>
 VINA RESULT:    -5.318      5.821     12.210
 INTER + INTRA:         -15.101
 INTER:                 -10.084
 INTRA:                  -5.018
 UNBOUND:                -5.276
 SMILES COc1ccc(Cn2cc(COC(=O)NC[C@@H](O)C(O)[C@@H]3O[C@@](O)(C(=O)O)C[C@H](O)[C@H]3NC(C)=O)nn2)cc1
 SMILES IDX 15 1 13 2 14 3 16 5 17 6 19 7 21 8 23 9 28 10 22 11 29 12
 SMILES IDX 31 13 24 14 25 16 26 17 27 18 30 20 32 22 33 23 34 25 35 26
 SMILES IDX 20 27 18 29 12 31 11 32 10 33 9 34 36 35 8 36 37 37 7 38
 SMILES IDX 6 39 5 40 38 41 4 42 39 43 3 44 2 45 1 46
 H PARENT 15 4 24 15 27 19 30 21 32 24 20 28 18 30
 Flexibility Score: inf
  4 active torsions:
  status: ('A' for Active; 'I' for Inactive)
    1  A    between atoms: CA   and  CB  
    2  A    between atoms: CB   and  CG  
    3  A    between atoms: CG   and  CD  
    4  A    between atoms: CD   and  CE  

>  <TORSDO>
F 17

>  <BEGIN_>
RES LYS A 131

$$$$
ligand_24_pose_4_2HRL.pdbqt
 OpenBabel07062320523D

  6  5  0  0  0  0  0  0  0  0999 V2000
   33.1930   34.6630    9.2900 C   0  0  0  0  0  0  0  0  0  0  0  0
   32.0600   35.3600   10.0340 C   0  0  0  0  0  0  0  0  0  0  0  0
   30.7060   34.7520    9.7760 C   0  0  0  0  0  0  0  0  0  0  0  0
   30.4940   34.5250    8.2870 C   0  0  0  0  0  0  0  0  0  0  0  0
   29.5700   35.5820    7.7140 C   0  0  0  0  0  0  0  0  0  0  0  0
   28.3460   34.9660    7.1310 N   0  0  0  0  0  0  0  0  0  0  0  0
  1  2  1  0  0  0  0
  3  2  1  0  0  0  0
  4  3  1  0  0  0  0
  5  4  1  0  0  0  0
  6  5  1  0  0  0  0
M  END
>  <EGIN_R>
ES LYS A 135

>  <REMARK>
  4 active torsions:
  status: ('A' for Active; 'I' for Inactive)
    5  A    between atoms: CA   and  CB  
    6  A    between atoms: CB   and  CG  
    7  A    between atoms: CG   and  CD  
    8  A    between atoms: CD   and  CE  

$$$$
