ligand_55_pose_12_2HRL.pdbqt
 OpenBabel07062320523D

 51 51  0  0  1  0  0  0  0  0999 V2000
   30.3870   31.8140   18.5540 N   0  0  0  0  0  0  0  0  0  0  0  0
   30.8370   32.4890   17.4010 C   0  0  0  0  0  0  0  0  0  0  0  0
   31.4390   33.5750   17.4350 O   0  0  0  0  0  0  0  0  0  0  0  0
   29.8920   30.8850   18.4000 H   0  0  0  0  0  0  0  0  0  0  0  0
   30.5360   32.2580   19.8890 C   0  0  0  0  0  0  0  0  0  0  0  0
   31.3170   31.3700   20.8260 C   0  0  2  0  0  0  0  0  0  0  0  0
   30.3180   30.6240   21.6560 C   0  0  2  0  0  0  0  0  0  0  0  0
   30.6570   29.2160   22.0280 C   0  0  2  0  0  0  0  0  0  0  0  0
   32.4820   27.9600   22.7940 C   0  0  2  0  0  0  0  0  0  0  0  0
   32.0060   26.7620   22.0450 C   0  0  0  0  0  0  0  0  0  0  0  0
   31.8890   29.1330   22.5330 O   0  0  0  0  0  0  0  0  0  0  0  0
   31.2480   27.0980   20.7900 C   0  0  1  0  0  0  0  0  0  0  0  0
   30.2600   28.1920   21.0100 C   0  0  1  0  0  0  0  0  0  0  0  0
   33.8590   28.0920   22.5780 O   0  0  0  0  0  0  0  0  0  0  0  0
   34.2730   27.2060   22.6540 H   0  0  0  0  0  0  0  0  0  0  0  0
   32.3220   27.6800   24.2500 C   0  0  0  0  0  0  0  0  0  0  0  0
   31.2360   27.4010   24.7920 O   0  0  0  0  0  0  0  0  0  0  0  0
   33.4450   27.7210   25.0980 O   0  0  0  0  0  0  0  0  0  0  0  0
   33.4490   27.2420   25.9900 H   0  0  0  0  0  0  0  0  0  0  0  0
   32.1630   27.3530   19.7760 O   0  0  0  0  0  0  0  0  0  0  0  0
   32.9580   26.7900   19.9610 H   0  0  0  0  0  0  0  0  0  0  0  0
   28.9820   27.5770   21.3210 N   0  0  0  0  0  0  0  0  0  0  0  0
   27.8620   27.6100   20.4470 C   0  0  0  0  0  0  0  0  0  0  0  0
   28.8200   27.0610   22.2370 H   0  0  0  0  0  0  0  0  0  0  0  0
   26.5600   26.9590   20.8140 C   0  0  0  0  0  0  0  0  0  0  0  0
   28.0110   28.2100   19.3520 O   0  0  0  0  0  0  0  0  0  0  0  0
   29.1190   30.6600   20.8850 O   0  0  0  0  0  0  0  0  0  0  0  0
   28.6370   31.5000   21.0310 H   0  0  0  0  0  0  0  0  0  0  0  0
   32.2270   32.1280   21.5110 O   0  0  0  0  0  0  0  0  0  0  0  0
   32.3720   31.8130   22.4120 H   0  0  0  0  0  0  0  0  0  0  0  0
   30.6080   31.9330   16.1480 O   0  0  0  0  0  0  0  0  0  0  0  0
   29.4480   32.1640   15.3890 C   0  0  0  0  0  0  0  0  0  0  0  0
   28.4100   31.1620   15.6980 C   0  0  0  0  0  0  0  0  0  0  0  0
   27.0380   31.3170   15.7210 C   0  0  0  0  0  0  0  0  0  0  0  0
   28.6370   29.8910   16.0180 N   0  0  0  0  0  0  0  0  0  0  0  0
   26.4770   30.1450   16.0520 N   0  0  0  0  0  0  0  0  0  0  0  0
   27.4810   29.2930   16.2270 N   0  0  0  0  0  0  0  0  0  0  0  0
   25.0930   29.7870   16.2090 C   0  0  0  0  0  0  0  0  0  0  0  0
   24.5240   30.2610   17.5340 C   0  0  0  0  0  0  0  0  0  0  0  0
   25.4360   29.8370   18.5740 N   0  0  0  0  0  0  0  0  0  0  0  0
   26.2610   29.3500   18.1950 H   0  0  0  0  0  0  0  0  0  0  0  0
   25.9230   31.1380   19.5850 S   0  0  0  0  0  0  0  0  0  0  0  0
   26.0640   30.5920   20.9820 O   0  0  0  0  0  0  0  0  0  0  0  0
   27.2090   31.7110   19.0810 O   0  0  0  0  0  0  0  0  0  0  0  0
   24.6830   32.4120   19.6180 C   0  0  0  0  0  0  0  0  0  0  0  0
   29.8670   25.5550   16.9770 C   0  0  0  0  0  0  0  0  0  0  0  0
   28.3450   25.7220   17.0260 C   0  0  0  0  0  0  0  0  0  0  0  0
   27.6010   24.4020   16.8900 C   0  0  0  0  0  0  0  0  0  0  0  0
   26.2350   24.4550   17.5160 C   0  0  0  0  0  0  0  0  0  0  0  0
   25.6620   23.0440   17.6080 C   0  0  0  0  0  0  0  0  0  0  0  0
   25.0220   22.8300   18.9280 N   0  0  0  0  0  0  0  0  0  0  0  0
  1  5  1  0  0  0  0
  2  3  2  0  0  0  0
  2  1  1  0  0  0  0
  4  1  1  0  0  0  0
  6  5  1  6  0  0  0
  6 29  1  0  0  0  0
  6  7  1  0  0  0  0
  7 27  1  6  0  0  0
  8  7  1  6  0  0  0
  8 11  1  0  0  0  0
  9 14  1  6  0  0  0
  9 16  1  0  0  0  0
 10  9  1  0  0  0  0
 11  9  1  0  0  0  0
 12 20  1  6  0  0  0
 12 13  1  0  0  0  0
 12 10  1  0  0  0  0
 13 22  1  1  0  0  0
 13  8  1  0  0  0  0
 14 15  1  0  0  0  0
 16 17  2  0  0  0  0
 16 18  1  0  0  0  0
 18 19  1  0  0  0  0
 20 21  1  0  0  0  0
 22 24  1  0  0  0  0
 23 25  1  0  0  0  0
 23 22  1  0  0  0  0
 26 23  2  0  0  0  0
 27 28  1  0  0  0  0
 29 30  1  0  0  0  0
 31  2  1  0  0  0  0
 32 33  1  0  0  0  0
 32 31  1  0  0  0  0
 33 34  2  0  0  0  0
 33 35  1  0  0  0  0
 34 36  1  0  0  0  0
 35 37  2  0  0  0  0
 36 38  1  0  0  0  0
 36 37  1  0  0  0  0
 38 39  1  0  0  0  0
 39 40  1  0  0  0  0
 40 42  1  0  0  0  0
 41 40  1  0  0  0  0
 42 45  1  0  0  0  0
 42 43  2  0  0  0  0
 44 42  2  0  0  0  0
 46 47  1  0  0  0  0
 48 47  1  0  0  0  0
 48 49  1  0  0  0  0
 49 50  1  0  0  0  0
 50 51  1  0  0  0  0
M  END
>  <REMARK>
 VINA RESULT:    -4.315      2.282      6.575
 INTER + INTRA:         -14.502
 INTER:                  -7.302
 INTRA:                  -7.200
 UNBOUND:                -6.277
 SMILES CC(=O)N[C@@H]1[C@@H](O)C[C@](O)(C(=O)O)O[C@H]1C(O)[C@H](O)CNC(=O)OCc1cn(CCNS(C)(=O)=O)nn1
 SMILES IDX 21 1 22 2 23 3 20 5 18 6 16 7 15 8 9 9 8 10 14 11 6 12 5 13
 SMILES IDX 10 14 11 16 12 17 13 18 7 20 4 22 2 23 1 25 3 26 17 27 19 29
 SMILES IDX 24 31 25 32 26 33 27 34 37 35 28 36 36 37 29 38 30 39 31 40
 SMILES IDX 32 42 34 43 35 44 33 45
 H PARENT 21 4 10 15 13 19 7 21 4 24 17 28 19 30 31 41
 Flexibility Score: inf
  4 active torsions:
  status: ('A' for Active; 'I' for Inactive)
    1  A    between atoms: CA   and  CB  
    2  A    between atoms: CB   and  CG  
    3  A    between atoms: CG   and  CD  
    4  A    between atoms: CD   and  CE  

>  <TORSDO>
F 18

>  <BEGIN_>
RES LYS A 131

$$$$
ligand_55_pose_12_2HRL.pdbqt
 OpenBabel07062320523D

  6  5  0  0  0  0  0  0  0  0999 V2000
   33.1930   34.6630    9.2900 C   0  0  0  0  0  0  0  0  0  0  0  0
   32.0600   35.3600   10.0340 C   0  0  0  0  0  0  0  0  0  0  0  0
   30.7260   34.6760    9.8780 C   0  0  0  0  0  0  0  0  0  0  0  0
   30.3380   34.5860    8.4100 C   0  0  0  0  0  0  0  0  0  0  0  0
   28.8290   34.5910    8.2560 C   0  0  0  0  0  0  0  0  0  0  0  0
   28.1730   33.8780    9.3870 N   0  0  0  0  0  0  0  0  0  0  0  0
  1  2  1  0  0  0  0
  3  2  1  0  0  0  0
  4  3  1  0  0  0  0
  5  4  1  0  0  0  0
  5  6  1  0  0  0  0
M  END
>  <EGIN_R>
ES LYS A 135

>  <REMARK>
  4 active torsions:
  status: ('A' for Active; 'I' for Inactive)
    5  A    between atoms: CA   and  CB  
    6  A    between atoms: CB   and  CG  
    7  A    between atoms: CG   and  CD  
    8  A    between atoms: CD   and  CE  

$$$$
