ligand_12_pose_10_2HRL.pdbqt
 OpenBabel07062320523D

 52 53  0  0  1  0  0  0  0  0999 V2000
   28.8350   31.4410   16.8740 N   0  0  0  0  0  0  0  0  0  0  0  0
   28.0790   30.5580   16.0480 C   0  0  0  0  0  0  0  0  0  0  0  0
   28.6380   29.6130   15.4120 O   0  0  0  0  0  0  0  0  0  0  0  0
   28.3460   32.1980   17.3770 H   0  0  0  0  0  0  0  0  0  0  0  0
   30.2640   31.2120   16.9530 C   0  0  0  0  0  0  0  0  0  0  0  0
   31.0520   32.3030   16.2810 C   0  0  2  0  0  0  0  0  0  0  0  0
   30.2310   33.5730   16.2220 C   0  0  2  0  0  0  0  0  0  0  0  0
   30.8710   34.6380   15.3950 C   0  0  2  0  0  0  0  0  0  0  0  0
   31.2420   35.2120   13.1670 C   0  0  2  0  0  0  0  0  0  0  0  0
   32.3820   36.0610   13.7120 C   0  0  0  0  0  0  0  0  0  0  0  0
   30.8170   34.2380   14.0640 O   0  0  0  0  0  0  0  0  0  0  0  0
   33.1830   35.1710   14.6380 C   0  0  1  0  0  0  0  0  0  0  0  0
   32.2890   34.9180   15.8410 C   0  0  1  0  0  0  0  0  0  0  0  0
   31.7750   34.5260   12.0780 O   0  0  0  0  0  0  0  0  0  0  0  0
   31.9540   35.1260   11.3110 H   0  0  0  0  0  0  0  0  0  0  0  0
   30.1430   36.0640   12.6970 C   0  0  0  0  0  0  0  0  0  0  0  0
   29.0410   35.5410   12.3960 O   0  0  0  0  0  0  0  0  0  0  0  0
   30.2450   37.4430   12.5590 O   0  0  0  0  0  0  0  0  0  0  0  0
   29.5710   38.0200   13.0530 H   0  0  0  0  0  0  0  0  0  0  0  0
   33.5270   33.9700   14.0240 O   0  0  0  0  0  0  0  0  0  0  0  0
   32.8110   33.2940   14.2310 H   0  0  0  0  0  0  0  0  0  0  0  0
   32.3050   36.1260   16.6380 N   0  0  0  0  0  0  0  0  0  0  0  0
   32.4490   36.0470   18.0490 C   0  0  0  0  0  0  0  0  0  0  0  0
   32.2140   37.0890   16.2300 H   0  0  0  0  0  0  0  0  0  0  0  0
   32.4730   37.2570   18.9160 C   0  0  0  0  0  0  0  0  0  0  0  0
   32.5650   34.9320   18.6200 O   0  0  0  0  0  0  0  0  0  0  0  0
   29.8800   33.9580   17.4930 O   0  0  0  0  0  0  0  0  0  0  0  0
   29.0290   34.4780   17.4240 H   0  0  0  0  0  0  0  0  0  0  0  0
   31.4230   31.8750   15.0120 O   0  0  0  0  0  0  0  0  0  0  0  0
   31.2990   32.6130   14.3580 H   0  0  0  0  0  0  0  0  0  0  0  0
   26.7050   30.6810   15.8970 O   0  0  0  0  0  0  0  0  0  0  0  0
   25.7740   29.7130   16.3360 C   0  0  0  0  0  0  0  0  0  0  0  0
   25.9790   29.3190   17.7470 C   0  0  0  0  0  0  0  0  0  0  0  0
   26.3300   28.1070   18.3030 C   0  0  0  0  0  0  0  0  0  0  0  0
   25.8430   30.1530   18.7930 N   0  0  0  0  0  0  0  0  0  0  0  0
   26.3960   28.2340   19.6510 N   0  0  0  0  0  0  0  0  0  0  0  0
   26.0930   29.4940   19.9030 N   0  0  0  0  0  0  0  0  0  0  0  0
   26.7350   27.1910   20.6310 C   0  0  0  0  0  0  0  0  0  0  0  0
   27.9150   27.5380   21.2820 O   0  0  0  0  0  0  0  0  0  0  0  0
   29.0260   27.3640   20.4920 C   0  0  0  0  0  0  0  0  0  0  0  0
   30.1060   28.3440   20.7270 C   0  0  0  0  0  0  0  0  0  0  0  0
   29.8940   29.6770   20.4430 C   0  0  0  0  0  0  0  0  0  0  0  0
   31.3220   27.9560   21.2310 C   0  0  0  0  0  0  0  0  0  0  0  0
   30.8990   30.6230   20.6640 C   0  0  0  0  0  0  0  0  0  0  0  0
   32.3150   28.8980   21.4480 C   0  0  0  0  0  0  0  0  0  0  0  0
   32.1170   30.2140   21.1710 C   0  0  0  0  0  0  0  0  0  0  0  0
   29.8670   25.5550   16.9770 C   0  0  0  0  0  0  0  0  0  0  0  0
   28.3450   25.7220   17.0260 C   0  0  0  0  0  0  0  0  0  0  0  0
   27.6020   24.3990   16.9220 C   0  0  0  0  0  0  0  0  0  0  0  0
   26.5300   24.2680   17.9680 C   0  0  0  0  0  0  0  0  0  0  0  0
   25.1720   24.1150   17.2900 C   0  0  0  0  0  0  0  0  0  0  0  0
   24.6910   22.7180   17.4010 N   0  0  0  0  0  0  0  0  0  0  0  0
  1  5  1  0  0  0  0
  1  4  1  0  0  0  0
  2  1  1  0  0  0  0
  3  2  2  0  0  0  0
  6  5  1  6  0  0  0
  7  6  1  0  0  0  0
  7 27  1  1  0  0  0
  8 13  1  0  0  0  0
  8  7  1  1  0  0  0
  9 14  1  6  0  0  0
  9 10  1  0  0  0  0
  9 11  1  0  0  0  0
 10 12  1  0  0  0  0
 11  8  1  0  0  0  0
 12 20  1  6  0  0  0
 12 13  1  0  0  0  0
 13 22  1  1  0  0  0
 15 14  1  0  0  0  0
 16  9  1  0  0  0  0
 17 16  2  0  0  0  0
 18 16  1  0  0  0  0
 18 19  1  0  0  0  0
 20 21  1  0  0  0  0
 22 23  1  0  0  0  0
 23 26  2  0  0  0  0
 23 25  1  0  0  0  0
 24 22  1  0  0  0  0
 28 27  1  0  0  0  0
 29  6  1  0  0  0  0
 30 29  1  0  0  0  0
 31  2  1  0  0  0  0
 31 32  1  0  0  0  0
 32 33  1  0  0  0  0
 33 34  2  0  0  0  0
 33 35  1  0  0  0  0
 34 36  1  0  0  0  0
 35 37  2  0  0  0  0
 36 37  1  0  0  0  0
 36 38  1  0  0  0  0
 38 39  1  0  0  0  0
 40 41  1  0  0  0  0
 40 39  1  0  0  0  0
 41 43  2  0  0  0  0
 42 44  2  0  0  0  0
 42 41  1  0  0  0  0
 43 45  1  0  0  0  0
 44 46  1  0  0  0  0
 46 45  2  0  0  0  0
 47 48  1  0  0  0  0
 49 48  1  0  0  0  0
 49 50  1  0  0  0  0
 51 52  1  0  0  0  0
 51 50  1  0  0  0  0
M  END
>  <REMARK>
 VINA RESULT:    -6.111      5.464      9.760
 INTER + INTRA:         -15.422
 INTER:                  -9.567
 INTRA:                  -5.855
 UNBOUND:                -3.774
 SMILES CC(=O)N[C@@H]1[C@@H](O)C[C@](O)(C(=O)O)O[C@H]1C(O)[C@H](O)CNC(=O)OCc1cn(COCc2ccccc2)nn1
 SMILES IDX 21 1 22 2 23 3 20 5 18 6 16 7 15 8 9 9 8 10 14 11 6 12 5 13
 SMILES IDX 10 14 11 16 12 17 13 18 7 20 4 22 2 23 1 25 3 26 17 27 19 29
 SMILES IDX 24 31 25 32 26 33 27 34 39 35 28 36 38 37 29 38 30 39 31 40
 SMILES IDX 32 41 33 42 37 43 34 44 36 45 35 46
 H PARENT 21 4 10 15 13 19 7 21 4 24 17 28 19 30
 Flexibility Score: inf
  4 active torsions:
  status: ('A' for Active; 'I' for Inactive)
    1  A    between atoms: CA   and  CB  
    2  A    between atoms: CB   and  CG  
    3  A    between atoms: CG   and  CD  
    4  A    between atoms: CD   and  CE  

>  <TORSDO>
F 18

>  <BEGIN_>
RES LYS A 131

$$$$
ligand_12_pose_10_2HRL.pdbqt
 OpenBabel07062320523D

  6  5  0  0  0  0  0  0  0  0999 V2000
   33.1930   34.6630    9.2900 C   0  0  0  0  0  0  0  0  0  0  0  0
   32.0600   35.3600   10.0340 C   0  0  0  0  0  0  0  0  0  0  0  0
   30.8410   35.6050    9.1820 C   0  0  0  0  0  0  0  0  0  0  0  0
   30.0210   34.3320    9.0390 C   0  0  0  0  0  0  0  0  0  0  0  0
   28.5560   34.6630    8.8290 C   0  0  0  0  0  0  0  0  0  0  0  0
   27.6790   33.6770    9.5180 N   0  0  0  0  0  0  0  0  0  0  0  0
  1  2  1  0  0  0  0
  3  2  1  0  0  0  0
  4  3  1  0  0  0  0
  5  4  1  0  0  0  0
  5  6  1  0  0  0  0
M  END
>  <EGIN_R>
ES LYS A 135

>  <REMARK>
  4 active torsions:
  status: ('A' for Active; 'I' for Inactive)
    5  A    between atoms: CA   and  CB  
    6  A    between atoms: CB   and  CG  
    7  A    between atoms: CG   and  CD  
    8  A    between atoms: CD   and  CE  

$$$$
