ligand_49_pose_6_2HRL.pdbqt
 OpenBabel07062320523D

 48 49  0  0  1  0  0  0  0  0999 V2000
   27.3530   30.9220   20.2050 C   0  0  0  0  0  0  0  0  0  0  0  0
   28.7690   31.3930   20.3860 C   0  0  2  0  0  0  0  0  0  0  0  0
   29.6530   30.3500   19.7310 C   0  0  1  0  0  0  0  0  0  0  0  0
   30.1900   29.3550   20.7100 C   0  0  2  0  0  0  0  0  0  0  0  0
   32.0730   28.9310   21.9930 C   0  0  2  0  0  0  0  0  0  0  0  0
   31.2290   27.7210   22.3640 C   0  0  0  0  0  0  0  0  0  0  0  0
   31.5550   29.4800   20.8180 O   0  0  0  0  0  0  0  0  0  0  0  0
   30.8410   27.0400   21.0680 C   0  0  1  0  0  0  0  0  0  0  0  0
   29.8020   27.9350   20.4050 C   0  0  1  0  0  0  0  0  0  0  0  0
   33.3670   28.4650   21.7950 O   0  0  0  0  0  0  0  0  0  0  0  0
   33.3190   27.4600   21.7990 H   0  0  0  0  0  0  0  0  0  0  0  0
   32.0890   29.9410   23.0580 C   0  0  0  0  0  0  0  0  0  0  0  0
   32.1300   29.6170   24.2720 O   0  0  0  0  0  0  0  0  0  0  0  0
   32.0580   31.2920   22.7540 O   0  0  0  0  0  0  0  0  0  0  0  0
   32.6560   31.9780   23.2330 H   0  0  0  0  0  0  0  0  0  0  0  0
   31.9980   26.9970   20.2710 O   0  0  0  0  0  0  0  0  0  0  0  0
   31.7230   27.2500   19.3500 H   0  0  0  0  0  0  0  0  0  0  0  0
   28.4950   27.5990   20.9340 N   0  0  0  0  0  0  0  0  0  0  0  0
   27.4430   27.2110   20.0760 C   0  0  0  0  0  0  0  0  0  0  0  0
   28.3220   27.6390   21.9550 H   0  0  0  0  0  0  0  0  0  0  0  0
   26.0830   26.8540   20.5500 C   0  0  0  0  0  0  0  0  0  0  0  0
   27.6700   27.1670   18.8460 O   0  0  0  0  0  0  0  0  0  0  0  0
   28.8470   29.6630   18.8210 O   0  0  0  0  0  0  0  0  0  0  0  0
   29.1830   29.6830   17.9040 H   0  0  0  0  0  0  0  0  0  0  0  0
   29.1070   31.5230   21.7130 O   0  0  0  0  0  0  0  0  0  0  0  0
   28.3580   31.1910   22.2770 H   0  0  0  0  0  0  0  0  0  0  0  0
   26.6770   31.4090   19.0450 N   0  0  0  0  0  0  0  0  0  0  0  0
   25.5730   30.8180   18.4220 C   0  0  0  0  0  0  0  0  0  0  0  0
   27.0620   32.3130   18.6210 H   0  0  0  0  0  0  0  0  0  0  0  0
   25.0890   29.7550   18.8740 O   0  0  0  0  0  0  0  0  0  0  0  0
   24.9960   31.4120   17.2840 O   0  0  0  0  0  0  0  0  0  0  0  0
   25.3220   30.8530   16.0250 C   0  0  0  0  0  0  0  0  0  0  0  0
   26.7940   30.8600   15.8810 C   0  0  0  0  0  0  0  0  0  0  0  0
   27.5220   31.9710   15.4780 C   0  0  0  0  0  0  0  0  0  0  0  0
   27.6830   29.8950   16.0840 N   0  0  0  0  0  0  0  0  0  0  0  0
   28.8090   31.6250   15.4570 N   0  0  0  0  0  0  0  0  0  0  0  0
   28.8940   30.3620   15.8270 N   0  0  0  0  0  0  0  0  0  0  0  0
   29.8860   32.5360   15.0800 C   0  0  0  0  0  0  0  0  0  0  0  0
   29.5020   33.9110   15.5480 C   0  0  0  0  0  0  0  0  0  0  0  0
   31.1400   32.1440   15.8280 C   0  0  0  0  0  0  0  0  0  0  0  0
   30.6070   34.3880   16.4350 C   0  0  0  0  0  0  0  0  0  0  0  0
   31.2020   33.1220   16.9880 C   0  0  0  0  0  0  0  0  0  0  0  0
   29.8670   25.5550   16.9770 C   0  0  0  0  0  0  0  0  0  0  0  0
   28.3450   25.7220   17.0260 C   0  0  0  0  0  0  0  0  0  0  0  0
   27.6030   24.3960   16.9600 C   0  0  0  0  0  0  0  0  0  0  0  0
   26.1110   24.5790   17.0010 C   0  0  0  0  0  0  0  0  0  0  0  0
   25.4740   23.4060   17.7380 C   0  0  0  0  0  0  0  0  0  0  0  0
   25.8740   23.4100   19.1640 N   0  0  0  0  0  0  0  0  0  0  0  0
  2  1  1  1  0  0  0
  2 25  1  0  0  0  0
  3 23  1  6  0  0  0
  3  2  1  0  0  0  0
  4  3  1  6  0  0  0
  4  7  1  0  0  0  0
  5 10  1  6  0  0  0
  5  6  1  0  0  0  0
  5 12  1  0  0  0  0
  7  5  1  0  0  0  0
  8 16  1  6  0  0  0
  8  6  1  0  0  0  0
  9  4  1  0  0  0  0
  9 18  1  1  0  0  0
  9  8  1  0  0  0  0
 10 11  1  0  0  0  0
 12 13  2  0  0  0  0
 14 12  1  0  0  0  0
 14 15  1  0  0  0  0
 17 16  1  0  0  0  0
 18 20  1  0  0  0  0
 19 21  1  0  0  0  0
 19 18  1  0  0  0  0
 22 19  2  0  0  0  0
 24 23  1  0  0  0  0
 25 26  1  0  0  0  0
 27  1  1  0  0  0  0
 28 30  2  0  0  0  0
 28 27  1  0  0  0  0
 29 27  1  0  0  0  0
 31 28  1  0  0  0  0
 32 31  1  0  0  0  0
 33 32  1  0  0  0  0
 33 35  1  0  0  0  0
 34 33  2  0  0  0  0
 36 34  1  0  0  0  0
 36 37  1  0  0  0  0
 37 35  2  0  0  0  0
 38 36  1  0  0  0  0
 38 39  1  0  0  0  0
 38 40  1  0  0  0  0
 39 41  1  0  0  0  0
 40 42  1  0  0  0  0
 41 42  1  0  0  0  0
 43 44  1  0  0  0  0
 45 46  1  0  0  0  0
 45 44  1  0  0  0  0
 46 47  1  0  0  0  0
 47 48  1  0  0  0  0
M  END
>  <REMARK>
 VINA RESULT:    -5.201      3.574      7.139
 INTER + INTRA:         -14.028
 INTER:                  -7.863
 INTRA:                  -6.165
 UNBOUND:                -5.026
 SMILES CC(=O)N[C@@H]1[C@@H](O)C[C@](O)(C(=O)O)O[C@H]1C(O)[C@H](O)CNC(=O)OCc1cn(C2CCCC2)nn1
 SMILES IDX 20 1 18 2 16 3 15 4 9 5 8 6 14 7 6 8 5 9 10 10 11 12 12 13
 SMILES IDX 13 14 7 16 4 18 2 19 1 21 3 22 17 23 19 25 21 27 22 28 23 30
 SMILES IDX 24 31 25 32 26 33 27 34 35 35 28 36 34 37 29 38 30 39 33 40
 SMILES IDX 31 41 32 42
 H PARENT 10 11 13 15 7 17 4 20 17 24 19 26 21 29
 Flexibility Score: inf
  4 active torsions:
  status: ('A' for Active; 'I' for Inactive)
    1  A    between atoms: CA   and  CB  
    2  A    between atoms: CB   and  CG  
    3  A    between atoms: CG   and  CD  
    4  A    between atoms: CD   and  CE  

>  <TORSDO>
F 15

>  <BEGIN_>
RES LYS A 131

$$$$
ligand_49_pose_6_2HRL.pdbqt
 OpenBabel07062320523D

  6  5  0  0  0  0  0  0  0  0999 V2000
   33.1930   34.6630    9.2900 C   0  0  0  0  0  0  0  0  0  0  0  0
   32.0600   35.3600   10.0340 C   0  0  0  0  0  0  0  0  0  0  0  0
   30.7330   34.6570    9.9070 C   0  0  0  0  0  0  0  0  0  0  0  0
   30.3300   34.5330    8.4460 C   0  0  0  0  0  0  0  0  0  0  0  0
   28.8190   34.5400    8.3080 C   0  0  0  0  0  0  0  0  0  0  0  0
   28.1740   33.8160    9.4370 N   0  0  0  0  0  0  0  0  0  0  0  0
  1  2  1  0  0  0  0
  3  2  1  0  0  0  0
  4  3  1  0  0  0  0
  5  4  1  0  0  0  0
  5  6  1  0  0  0  0
M  END
>  <EGIN_R>
ES LYS A 135

>  <REMARK>
  4 active torsions:
  status: ('A' for Active; 'I' for Inactive)
    5  A    between atoms: CA   and  CB  
    6  A    between atoms: CB   and  CG  
    7  A    between atoms: CG   and  CD  
    8  A    between atoms: CD   and  CE  

$$$$
