ligand_52_pose_1_2HRL.pdbqt
 OpenBabel07062320523D

 49 50  0  0  1  0  0  0  0  0999 V2000
   32.5470   36.1330   15.1250 C   0  0  0  0  0  0  0  0  0  0  0  0
   32.6700   35.2790   13.9180 C   0  0  2  0  0  0  0  0  0  0  0  0
   31.3750   34.9640   13.2710 C   0  0  2  0  0  0  0  0  0  0  0  0
   30.3120   34.3190   14.0890 C   0  0  2  0  0  0  0  0  0  0  0  0
   29.7180   32.6040   15.4470 C   0  0  2  0  0  0  0  0  0  0  0  0
   28.2890   33.0110   15.3750 C   0  0  0  0  0  0  0  0  0  0  0  0
   30.5310   33.0180   14.4100 O   0  0  0  0  0  0  0  0  0  0  0  0
   27.9890   34.3140   14.7220 C   0  0  1  0  0  0  0  0  0  0  0  0
   28.9390   34.5020   13.5040 C   0  0  1  0  0  0  0  0  0  0  0  0
   29.7050   31.1750   15.3590 O   0  0  0  0  0  0  0  0  0  0  0  0
   28.8180   30.9660   14.9850 H   0  0  0  0  0  0  0  0  0  0  0  0
   30.3430   32.9110   16.7540 C   0  0  0  0  0  0  0  0  0  0  0  0
   31.5750   33.1460   16.8130 O   0  0  0  0  0  0  0  0  0  0  0  0
   29.6620   32.9650   17.9630 O   0  0  0  0  0  0  0  0  0  0  0  0
   28.6730   32.6950   17.9300 H   0  0  0  0  0  0  0  0  0  0  0  0
   26.7040   34.3160   14.1780 O   0  0  0  0  0  0  0  0  0  0  0  0
   26.3780   33.3860   14.1030 H   0  0  0  0  0  0  0  0  0  0  0  0
   28.7800   35.8770   13.1150 N   0  0  0  0  0  0  0  0  0  0  0  0
   27.9740   36.3040   12.0350 C   0  0  0  0  0  0  0  0  0  0  0  0
   29.2880   36.6240   13.6600 H   0  0  0  0  0  0  0  0  0  0  0  0
   27.8750   37.7450   11.7130 C   0  0  0  0  0  0  0  0  0  0  0  0
   27.3490   35.4540   11.3600 O   0  0  0  0  0  0  0  0  0  0  0  0
   31.4760   34.5030   11.9720 O   0  0  0  0  0  0  0  0  0  0  0  0
   30.9670   34.9810   11.2990 H   0  0  0  0  0  0  0  0  0  0  0  0
   33.2450   34.0330   14.2720 O   0  0  0  0  0  0  0  0  0  0  0  0
   34.0590   34.2290   14.7780 H   0  0  0  0  0  0  0  0  0  0  0  0
   33.2430   35.6990   16.2990 N   0  0  0  0  0  0  0  0  0  0  0  0
   33.5290   36.4700   17.4200 C   0  0  0  0  0  0  0  0  0  0  0  0
   33.5790   34.6870   16.3290 H   0  0  0  0  0  0  0  0  0  0  0  0
   33.1950   37.6590   17.4930 O   0  0  0  0  0  0  0  0  0  0  0  0
   34.2100   35.9650   18.5410 O   0  0  0  0  0  0  0  0  0  0  0  0
   35.4990   36.4310   18.8700 C   0  0  0  0  0  0  0  0  0  0  0  0
   36.5480   35.7100   18.1270 C   0  0  0  0  0  0  0  0  0  0  0  0
   36.7410   35.8500   16.7620 C   0  0  0  0  0  0  0  0  0  0  0  0
   37.4740   34.8390   18.5300 N   0  0  0  0  0  0  0  0  0  0  0  0
   37.7670   35.0660   16.3890 N   0  0  0  0  0  0  0  0  0  0  0  0
   38.1990   34.4630   17.4660 N   0  0  0  0  0  0  0  0  0  0  0  0
   38.3000   34.9090   15.0700 C   0  0  0  0  0  0  0  0  0  0  0  0
   39.2400   35.7880   14.5630 C   0  0  0  0  0  0  0  0  0  0  0  0
   37.8760   33.8620   14.2760 C   0  0  0  0  0  0  0  0  0  0  0  0
   39.7310   35.5940   13.2700 C   0  0  0  0  0  0  0  0  0  0  0  0
   38.3710   33.6970   13.0180 N   0  0  0  0  0  0  0  0  0  0  0  0
   39.2860   34.5350   12.5000 C   0  0  0  0  0  0  0  0  0  0  0  0
   29.8670   25.5550   16.9770 C   0  0  0  0  0  0  0  0  0  0  0  0
   28.3450   25.7220   17.0260 C   0  0  0  0  0  0  0  0  0  0  0  0
   27.6010   24.4020   16.8900 C   0  0  0  0  0  0  0  0  0  0  0  0
   26.1660   24.5140   17.3240 C   0  0  0  0  0  0  0  0  0  0  0  0
   25.6250   23.1270   17.6540 C   0  0  0  0  0  0  0  0  0  0  0  0
   25.3530   23.0080   19.1060 N   0  0  0  0  0  0  0  0  0  0  0  0
  1 27  1  0  0  0  0
  2 25  1  0  0  0  0
  2  1  1  1  0  0  0
  3 23  1  6  0  0  0
  3  2  1  0  0  0  0
  4  3  1  6  0  0  0
  4  7  1  0  0  0  0
  5 10  1  6  0  0  0
  5 12  1  0  0  0  0
  6  5  1  0  0  0  0
  7  5  1  0  0  0  0
  8 16  1  6  0  0  0
  8  6  1  0  0  0  0
  9 18  1  1  0  0  0
  9  4  1  0  0  0  0
  9  8  1  0  0  0  0
 11 10  1  0  0  0  0
 12 13  2  0  0  0  0
 12 14  1  0  0  0  0
 15 14  1  0  0  0  0
 17 16  1  0  0  0  0
 18 20  1  0  0  0  0
 19 18  1  0  0  0  0
 21 19  1  0  0  0  0
 22 19  2  0  0  0  0
 24 23  1  0  0  0  0
 25 26  1  0  0  0  0
 27 29  1  0  0  0  0
 27 28  1  0  0  0  0
 28 30  2  0  0  0  0
 28 31  1  0  0  0  0
 31 32  1  0  0  0  0
 33 35  1  0  0  0  0
 33 32  1  0  0  0  0
 34 33  2  0  0  0  0
 36 34  1  0  0  0  0
 36 37  1  0  0  0  0
 37 35  2  0  0  0  0
 38 36  1  0  0  0  0
 39 38  1  0  0  0  0
 40 38  2  0  0  0  0
 41 39  2  0  0  0  0
 42 40  1  0  0  0  0
 43 42  2  0  0  0  0
 43 41  1  0  0  0  0
 44 45  1  0  0  0  0
 46 45  1  0  0  0  0
 46 47  1  0  0  0  0
 47 48  1  0  0  0  0
 48 49  1  0  0  0  0
M  END
>  <REMARK>
 VINA RESULT:    -5.193      4.550      8.468
 INTER + INTRA:         -14.152
 INTER:                  -8.955
 INTRA:                  -5.198
 UNBOUND:                -5.164
 SMILES CC(=O)N[C@@H]1[C@@H](O)C[C@](O)(C(=O)O)O[C@H]1C(O)[C@H](O)CNC(=O)OCc1cn(-c2cccnc2)nn1
 SMILES IDX 20 1 18 2 16 3 15 4 9 5 8 6 14 7 6 8 5 9 10 10 11 12 12 13
 SMILES IDX 13 14 7 16 4 18 2 19 1 21 3 22 17 23 19 25 21 27 22 28 23 30
 SMILES IDX 24 31 25 32 26 33 27 34 36 35 28 36 35 37 29 38 30 39 34 40
 SMILES IDX 31 41 33 42 32 43
 H PARENT 10 11 13 15 7 17 4 20 17 24 19 26 21 29
 Flexibility Score: inf
  4 active torsions:
  status: ('A' for Active; 'I' for Inactive)
    1  A    between atoms: CA   and  CB  
    2  A    between atoms: CB   and  CG  
    3  A    between atoms: CG   and  CD  
    4  A    between atoms: CD   and  CE  

>  <TORSDO>
F 15

>  <BEGIN_>
RES LYS A 131

$$$$
ligand_52_pose_1_2HRL.pdbqt
 OpenBabel07062320523D

  6  5  0  0  0  0  0  0  0  0999 V2000
   33.1930   34.6630    9.2900 C   0  0  0  0  0  0  0  0  0  0  0  0
   32.0600   35.3600   10.0340 C   0  0  0  0  0  0  0  0  0  0  0  0
   30.8990   35.7340    9.1490 C   0  0  0  0  0  0  0  0  0  0  0  0
   30.4390   34.5370    8.3320 C   0  0  0  0  0  0  0  0  0  0  0  0
   28.9910   34.2070    8.6400 C   0  0  0  0  0  0  0  0  0  0  0  0
   28.0650   35.0520    7.8360 N   0  0  0  0  0  0  0  0  0  0  0  0
  1  2  1  0  0  0  0
  3  2  1  0  0  0  0
  4  5  1  0  0  0  0
  4  3  1  0  0  0  0
  6  5  1  0  0  0  0
M  END
>  <EGIN_R>
ES LYS A 135

>  <REMARK>
  4 active torsions:
  status: ('A' for Active; 'I' for Inactive)
    5  A    between atoms: CA   and  CB  
    6  A    between atoms: CB   and  CG  
    7  A    between atoms: CG   and  CD  
    8  A    between atoms: CD   and  CE  

$$$$
