ligand_19_pose_4_2HRL.pdbqt
 OpenBabel07062320523D

 49 49  0  0  1  0  0  0  0  0999 V2000
   26.3170   29.9190   16.0630 N   0  0  0  0  0  0  0  0  0  0  0  0
   24.9570   29.5730   16.2330 C   0  0  0  0  0  0  0  0  0  0  0  0
   24.6310   28.6550   16.9990 O   0  0  0  0  0  0  0  0  0  0  0  0
   26.5070   30.7100   15.3880 H   0  0  0  0  0  0  0  0  0  0  0  0
   27.4250   29.2780   16.7390 C   0  0  0  0  0  0  0  0  0  0  0  0
   28.3620   30.2650   17.3260 C   0  0  2  0  0  0  0  0  0  0  0  0
   29.2440   31.0120   16.3510 C   0  0  2  0  0  0  0  0  0  0  0  0
   28.8260   32.4250   16.0710 C   0  0  2  0  0  0  0  0  0  0  0  0
   30.9920   33.0530   15.5020 C   0  0  2  0  0  0  0  0  0  0  0  0
   31.2910   33.2980   16.9310 C   0  0  0  0  0  0  0  0  0  0  0  0
   29.6690   33.0400   15.1480 O   0  0  0  0  0  0  0  0  0  0  0  0
   30.1330   33.5600   17.8240 C   0  0  1  0  0  0  0  0  0  0  0  0
   28.7780   33.3540   17.2410 C   0  0  1  0  0  0  0  0  0  0  0  0
   31.5320   31.8220   15.0560 O   0  0  0  0  0  0  0  0  0  0  0  0
   32.1550   31.9530   14.3030 H   0  0  0  0  0  0  0  0  0  0  0  0
   31.6510   34.0800   14.6470 C   0  0  0  0  0  0  0  0  0  0  0  0
   31.0010   35.0910   14.2120 O   0  0  0  0  0  0  0  0  0  0  0  0
   32.9830   34.0260   14.2650 O   0  0  0  0  0  0  0  0  0  0  0  0
   33.6310   34.6660   14.7370 H   0  0  0  0  0  0  0  0  0  0  0  0
   30.2530   32.7290   18.9430 O   0  0  0  0  0  0  0  0  0  0  0  0
   29.3850   32.6900   19.4510 H   0  0  0  0  0  0  0  0  0  0  0  0
   28.1390   34.5670   16.7850 N   0  0  0  0  0  0  0  0  0  0  0  0
   26.8190   34.9040   17.1010 C   0  0  0  0  0  0  0  0  0  0  0  0
   28.7060   35.2020   16.1930 H   0  0  0  0  0  0  0  0  0  0  0  0
   26.1380   36.1440   16.6470 C   0  0  0  0  0  0  0  0  0  0  0  0
   26.1820   34.1030   17.8110 O   0  0  0  0  0  0  0  0  0  0  0  0
   28.9560   30.3400   15.1020 O   0  0  0  0  0  0  0  0  0  0  0  0
   29.0590   29.3720   15.3560 H   0  0  0  0  0  0  0  0  0  0  0  0
   28.9860   29.9460   18.4940 O   0  0  0  0  0  0  0  0  0  0  0  0
   29.5140   30.6700   18.8640 H   0  0  0  0  0  0  0  0  0  0  0  0
   23.9510   30.2730   15.5290 O   0  0  0  0  0  0  0  0  0  0  0  0
   24.0710   30.4590   14.1180 C   0  0  0  0  0  0  0  0  0  0  0  0
   24.5360   31.8400   13.8820 C   0  0  0  0  0  0  0  0  0  0  0  0
   24.0250   32.7190   12.9400 C   0  0  0  0  0  0  0  0  0  0  0  0
   25.5210   32.4970   14.5090 N   0  0  0  0  0  0  0  0  0  0  0  0
   24.7170   33.8630   13.0350 N   0  0  0  0  0  0  0  0  0  0  0  0
   25.6100   33.7040   13.9850 N   0  0  0  0  0  0  0  0  0  0  0  0
   24.4870   35.0350   12.2210 C   0  0  0  0  0  0  0  0  0  0  0  0
   25.6860   35.9460   12.3460 C   0  0  0  0  0  0  0  0  0  0  0  0
   26.2480   36.1640   11.0850 O   0  0  0  0  0  0  0  0  0  0  0  0
   26.5610   35.1310   10.2500 C   0  0  0  0  0  0  0  0  0  0  0  0
   27.3450   34.2300   10.5990 O   0  0  0  0  0  0  0  0  0  0  0  0
   25.9570   35.0550    8.8750 C   0  0  0  0  0  0  0  0  0  0  0  0
   29.8670   25.5550   16.9770 C   0  0  0  0  0  0  0  0  0  0  0  0
   28.3450   25.7220   17.0260 C   0  0  0  0  0  0  0  0  0  0  0  0
   27.6010   24.4030   16.8860 C   0  0  0  0  0  0  0  0  0  0  0  0
   26.2250   24.4620   17.4890 C   0  0  0  0  0  0  0  0  0  0  0  0
   26.1520   25.6200   18.4790 C   0  0  0  0  0  0  0  0  0  0  0  0
   25.5760   25.1660   19.7660 N   0  0  0  0  0  0  0  0  0  0  0  0
  1  2  1  0  0  0  0
  1  5  1  0  0  0  0
  2  3  2  0  0  0  0
  4  1  1  0  0  0  0
  6  5  1  6  0  0  0
  6 29  1  0  0  0  0
  7 27  1  6  0  0  0
  7  6  1  0  0  0  0
  8  7  1  1  0  0  0
  8 13  1  0  0  0  0
  9 16  1  6  0  0  0
  9 10  1  0  0  0  0
 10 12  1  0  0  0  0
 11  9  1  0  0  0  0
 11  8  1  0  0  0  0
 12 20  1  1  0  0  0
 13 22  1  6  0  0  0
 13 12  1  0  0  0  0
 14  9  1  0  0  0  0
 15 14  1  0  0  0  0
 17 16  2  0  0  0  0
 18 16  1  0  0  0  0
 18 19  1  0  0  0  0
 20 21  1  0  0  0  0
 22 23  1  0  0  0  0
 23 26  2  0  0  0  0
 24 22  1  0  0  0  0
 25 23  1  0  0  0  0
 27 28  1  0  0  0  0
 29 30  1  0  0  0  0
 31  2  1  0  0  0  0
 32 31  1  0  0  0  0
 33 32  1  0  0  0  0
 33 35  1  0  0  0  0
 34 36  1  0  0  0  0
 34 33  2  0  0  0  0
 36 37  1  0  0  0  0
 37 35  2  0  0  0  0
 38 39  1  0  0  0  0
 38 36  1  0  0  0  0
 40 39  1  0  0  0  0
 41 42  2  0  0  0  0
 41 40  1  0  0  0  0
 43 41  1  0  0  0  0
 44 45  1  0  0  0  0
 46 45  1  0  0  0  0
 46 47  1  0  0  0  0
 47 48  1  0  0  0  0
 48 49  1  0  0  0  0
M  END
>  <REMARK>
 VINA RESULT:    -4.317      2.525      5.661
 INTER + INTRA:         -14.287
 INTER:                  -8.438
 INTRA:                  -5.849
 UNBOUND:                -6.059
 SMILES CC(=O)N[C@@H]1[C@@H](O)C[C@](O)(C(=O)O)O[C@H]1C(O)[C@H](O)CNC(=O)OCc1cn(CCOC(C)=O)nn1
 SMILES IDX 21 1 22 2 23 3 20 5 18 6 16 7 15 8 9 9 8 10 14 11 6 12 5 13
 SMILES IDX 10 14 11 16 12 17 13 18 7 20 4 22 2 23 1 25 3 26 17 27 19 29
 SMILES IDX 24 31 25 32 26 33 27 34 36 35 28 36 35 37 29 38 30 39 31 40
 SMILES IDX 32 41 34 42 33 43
 H PARENT 21 4 10 15 13 19 7 21 4 24 17 28 19 30
 Flexibility Score: inf
  4 active torsions:
  status: ('A' for Active; 'I' for Inactive)
    1  A    between atoms: CA   and  CB  
    2  A    between atoms: CB   and  CG  
    3  A    between atoms: CG   and  CD  
    4  A    between atoms: CD   and  CE  

>  <TORSDO>
F 18

>  <BEGIN_>
RES LYS A 131

$$$$
ligand_19_pose_4_2HRL.pdbqt
 OpenBabel07062320523D

  6  5  0  0  0  0  0  0  0  0999 V2000
   33.1930   34.6630    9.2900 C   0  0  0  0  0  0  0  0  0  0  0  0
   32.0600   35.3600   10.0340 C   0  0  0  0  0  0  0  0  0  0  0  0
   30.6950   34.8190    9.6960 C   0  0  0  0  0  0  0  0  0  0  0  0
   30.6130   34.4500    8.2230 C   0  0  0  0  0  0  0  0  0  0  0  0
   29.4070   35.1050    7.5770 C   0  0  0  0  0  0  0  0  0  0  0  0
   29.2730   36.5250    8.0050 N   0  0  0  0  0  0  0  0  0  0  0  0
  1  2  1  0  0  0  0
  3  2  1  0  0  0  0
  4  3  1  0  0  0  0
  5  6  1  0  0  0  0
  5  4  1  0  0  0  0
M  END
>  <EGIN_R>
ES LYS A 135

>  <REMARK>
  4 active torsions:
  status: ('A' for Active; 'I' for Inactive)
    5  A    between atoms: CA   and  CB  
    6  A    between atoms: CB   and  CG  
    7  A    between atoms: CG   and  CD  
    8  A    between atoms: CD   and  CE  

$$$$
