ligand_60_pose_6_2HRL.pdbqt
 OpenBabel07062320523D

 55 56  0  0  1  0  0  0  0  0999 V2000
   23.8400   38.1360   10.5910 N   0  0  0  0  0  0  0  0  0  0  0  0
   23.6700   38.2770   11.9750 C   0  0  0  0  0  0  0  0  0  0  0  0
   24.4180   39.0160   12.6370 O   0  0  0  0  0  0  0  0  0  0  0  0
   23.1690   37.4940   10.0860 H   0  0  0  0  0  0  0  0  0  0  0  0
   24.8600   38.8150    9.8740 C   0  0  0  0  0  0  0  0  0  0  0  0
   26.1160   37.9750    9.6750 C   0  0  2  0  0  0  0  0  0  0  0  0
   25.8550   36.9860    8.5750 C   0  0  1  0  0  0  0  0  0  0  0  0
   27.0390   36.6460    7.7540 C   0  0  2  0  0  0  0  0  0  0  0  0
   29.2250   35.8870    8.0280 C   0  0  2  0  0  0  0  0  0  0  0  0
   29.0470   35.7130    6.5400 C   0  0  0  0  0  0  0  0  0  0  0  0
   28.1180   36.4030    8.6440 O   0  0  0  0  0  0  0  0  0  0  0  0
   28.5080   36.9340    5.8610 C   0  0  1  0  0  0  0  0  0  0  0  0
   27.5430   37.6430    6.7800 C   0  0  1  0  0  0  0  0  0  0  0  0
   30.3890   36.6380    8.3160 O   0  0  0  0  0  0  0  0  0  0  0  0
   30.7810   36.3590    9.1810 H   0  0  0  0  0  0  0  0  0  0  0  0
   29.4770   34.5360    8.5950 C   0  0  0  0  0  0  0  0  0  0  0  0
   30.6380   34.0630    8.5020 O   0  0  0  0  0  0  0  0  0  0  0  0
   28.5140   33.7650    9.2190 O   0  0  0  0  0  0  0  0  0  0  0  0
   27.7890   34.1950    9.7890 H   0  0  0  0  0  0  0  0  0  0  0  0
   29.5780   37.7320    5.4800 O   0  0  0  0  0  0  0  0  0  0  0  0
   29.4340   38.6160    5.9050 H   0  0  0  0  0  0  0  0  0  0  0  0
   26.6060   38.4590    6.1050 N   0  0  0  0  0  0  0  0  0  0  0  0
   26.8290   39.8320    5.8580 C   0  0  0  0  0  0  0  0  0  0  0  0
   25.7180   38.0530    5.7490 H   0  0  0  0  0  0  0  0  0  0  0  0
   25.8210   40.6860    5.1400 C   0  0  0  0  0  0  0  0  0  0  0  0
   27.8980   40.3280    6.2580 O   0  0  0  0  0  0  0  0  0  0  0  0
   24.9770   35.9780    8.8720 O   0  0  0  0  0  0  0  0  0  0  0  0
   24.6850   35.5480    8.0370 H   0  0  0  0  0  0  0  0  0  0  0  0
   26.4870   37.4400   10.8800 O   0  0  0  0  0  0  0  0  0  0  0  0
   26.8960   38.1400   11.4590 H   0  0  0  0  0  0  0  0  0  0  0  0
   22.6640   37.6020   12.6830 O   0  0  0  0  0  0  0  0  0  0  0  0
   22.6460   36.2110   12.7580 C   0  0  0  0  0  0  0  0  0  0  0  0
   23.9990   35.6270   12.6320 C   0  0  0  0  0  0  0  0  0  0  0  0
   24.9950   35.4870   13.5680 C   0  0  0  0  0  0  0  0  0  0  0  0
   24.5020   35.0980   11.4870 N   0  0  0  0  0  0  0  0  0  0  0  0
   26.0610   34.8930   13.0020 N   0  0  0  0  0  0  0  0  0  0  0  0
   25.7270   34.6740   11.7460 N   0  0  0  0  0  0  0  0  0  0  0  0
   27.3110   34.5530   13.5950 C   0  0  0  0  0  0  0  0  0  0  0  0
   28.4940   34.6380   12.8940 C   0  0  0  0  0  0  0  0  0  0  0  0
   27.3870   34.1180   14.9060 C   0  0  0  0  0  0  0  0  0  0  0  0
   29.7090   34.3120   13.4520 C   0  0  0  0  0  0  0  0  0  0  0  0
   28.6030   33.7910   15.4690 C   0  0  0  0  0  0  0  0  0  0  0  0
   29.7930   33.8720   14.7780 C   0  0  0  0  0  0  0  0  0  0  0  0
   31.3390   33.4580   15.4820 S   0  0  0  0  0  0  0  0  0  0  0  0
   31.3160   33.9240   16.9110 O   0  0  0  0  0  0  0  0  0  0  0  0
   31.4620   31.9520   15.5200 O   0  0  0  0  0  0  0  0  0  0  0  0
   32.6590   34.1570   14.6450 N   0  0  0  0  0  0  0  0  0  0  0  0
   33.4280   33.5130   14.4250 H   0  0  0  0  0  0  0  0  0  0  0  0
   32.3540   34.7130   13.8150 H   0  0  0  0  0  0  0  0  0  0  0  0
   29.8670   25.5550   16.9770 C   0  0  0  0  0  0  0  0  0  0  0  0
   28.3450   25.7220   17.0260 C   0  0  0  0  0  0  0  0  0  0  0  0
   27.5990   24.4260   16.7480 C   0  0  0  0  0  0  0  0  0  0  0  0
   26.9280   23.8840   17.9790 C   0  0  0  0  0  0  0  0  0  0  0  0
   25.7070   23.0640   17.5740 C   0  0  0  0  0  0  0  0  0  0  0  0
   24.8430   22.8030   18.7500 N   0  0  0  0  0  0  0  0  0  0  0  0
  1  2  1  0  0  0  0
  2  3  2  0  0  0  0
  2 31  1  0  0  0  0
  4  1  1  0  0  0  0
  5  1  1  0  0  0  0
  6  5  1  1  0  0  0
  6 29  1  0  0  0  0
  7 27  1  1  0  0  0
  7  6  1  0  0  0  0
  8  7  1  1  0  0  0
  8 11  1  0  0  0  0
  9 14  1  1  0  0  0
  9 16  1  0  0  0  0
  9 11  1  0  0  0  0
 10  9  1  0  0  0  0
 12 20  1  1  0  0  0
 12 10  1  0  0  0  0
 12 13  1  0  0  0  0
 13 22  1  6  0  0  0
 13  8  1  0  0  0  0
 14 15  1  0  0  0  0
 16 18  1  0  0  0  0
 17 16  2  0  0  0  0
 18 19  1  0  0  0  0
 20 21  1  0  0  0  0
 23 22  1  0  0  0  0
 23 26  2  0  0  0  0
 24 22  1  0  0  0  0
 25 23  1  0  0  0  0
 28 27  1  0  0  0  0
 29 30  1  0  0  0  0
 31 32  1  0  0  0  0
 33 32  1  0  0  0  0
 33 34  2  0  0  0  0
 35 37  2  0  0  0  0
 35 33  1  0  0  0  0
 36 34  1  0  0  0  0
 36 38  1  0  0  0  0
 37 36  1  0  0  0  0
 38 40  2  0  0  0  0
 39 41  2  0  0  0  0
 39 38  1  0  0  0  0
 40 42  1  0  0  0  0
 41 43  1  0  0  0  0
 43 42  2  0  0  0  0
 43 44  1  0  0  0  0
 44 46  2  0  0  0  0
 44 45  2  0  0  0  0
 47 44  1  0  0  0  0
 48 47  1  0  0  0  0
 49 47  1  0  0  0  0
 50 51  1  0  0  0  0
 52 51  1  0  0  0  0
 52 53  1  0  0  0  0
 54 53  1  0  0  0  0
 54 55  1  0  0  0  0
M  END
>  <REMARK>
 VINA RESULT:    -5.014      5.870     12.130
 INTER + INTRA:         -15.082
 INTER:                 -10.041
 INTRA:                  -5.041
 UNBOUND:                -5.964
 SMILES CC(=O)N[C@@H]1[C@@H](O)C[C@](O)(C(=O)O)O[C@H]1C(O)[C@H](O)CNC(=O)OCc1cn(-c2ccc(S(N)(=O)=O)cc2)nn1
 SMILES IDX 21 1 22 2 23 3 20 5 18 6 16 7 15 8 9 9 8 10 14 11 6 12 5 13
 SMILES IDX 10 14 11 16 12 17 13 18 7 20 4 22 2 23 1 25 3 26 17 27 19 29
 SMILES IDX 24 31 25 32 26 33 27 34 40 35 28 36 39 37 29 38 30 39 38 40
 SMILES IDX 31 41 37 42 32 43 33 44 35 45 36 46 34 47
 H PARENT 21 4 10 15 13 19 7 21 4 24 17 28 19 30 34 48 34 49
 Flexibility Score: inf
  4 active torsions:
  status: ('A' for Active; 'I' for Inactive)
    1  A    between atoms: CA   and  CB  
    2  A    between atoms: CB   and  CG  
    3  A    between atoms: CG   and  CD  
    4  A    between atoms: CD   and  CE  

>  <TORSDO>
F 17

>  <BEGIN_>
RES LYS A 131

$$$$
ligand_60_pose_6_2HRL.pdbqt
 OpenBabel07062320523D

  6  5  0  0  0  0  0  0  0  0999 V2000
   33.1930   34.6630    9.2900 C   0  0  0  0  0  0  0  0  0  0  0  0
   32.0600   35.3600   10.0340 C   0  0  0  0  0  0  0  0  0  0  0  0
   32.4330   35.7970   11.4270 C   0  0  0  0  0  0  0  0  0  0  0  0
   32.2440   37.2980   11.5870 C   0  0  0  0  0  0  0  0  0  0  0  0
   31.0150   37.5930   12.4260 C   0  0  0  0  0  0  0  0  0  0  0  0
   29.8060   37.7470   11.5710 N   0  0  0  0  0  0  0  0  0  0  0  0
  1  2  1  0  0  0  0
  2  3  1  0  0  0  0
  3  4  1  0  0  0  0
  4  5  1  0  0  0  0
  6  5  1  0  0  0  0
M  END
>  <EGIN_R>
ES LYS A 135

>  <REMARK>
  4 active torsions:
  status: ('A' for Active; 'I' for Inactive)
    5  A    between atoms: CA   and  CB  
    6  A    between atoms: CB   and  CG  
    7  A    between atoms: CG   and  CD  
    8  A    between atoms: CD   and  CE  

$$$$
