ligand_0_pose_10_2HRL.pdbqt
 OpenBabel07062320523D

 54 55  0  0  1  0  0  0  0  0999 V2000
   30.3010   33.6170   17.7370 N   0  0  0  0  0  0  0  0  0  0  0  0
   31.2380   34.1300   18.6720 C   0  0  0  0  0  0  0  0  0  0  0  0
   32.2440   34.7290   18.2520 O   0  0  0  0  0  0  0  0  0  0  0  0
   29.4670   33.1180   18.1600 H   0  0  0  0  0  0  0  0  0  0  0  0
   30.4180   33.7350   16.3040 C   0  0  0  0  0  0  0  0  0  0  0  0
   30.1610   32.4180   15.5910 C   0  0  2  0  0  0  0  0  0  0  0  0
   29.3690   31.4670   16.4370 C   0  0  1  0  0  0  0  0  0  0  0  0
   27.9950   31.2000   15.9530 C   0  0  2  0  0  0  0  0  0  0  0  0
   26.0200   32.3950   15.5690 C   0  0  2  0  0  0  0  0  0  0  0  0
   25.6120   31.0920   14.9480 C   0  0  0  0  0  0  0  0  0  0  0  0
   27.3160   32.4470   15.9750 O   0  0  0  0  0  0  0  0  0  0  0  0
   25.9820   29.8890   15.7460 C   0  0  1  0  0  0  0  0  0  0  0  0
   27.1350   30.2460   16.6780 C   0  0  1  0  0  0  0  0  0  0  0  0
   25.1130   32.7150   16.6070 O   0  0  0  0  0  0  0  0  0  0  0  0
   25.5830   32.5500   17.4760 H   0  0  0  0  0  0  0  0  0  0  0  0
   25.8230   33.4470   14.5300 C   0  0  0  0  0  0  0  0  0  0  0  0
   24.6900   33.5170   13.9610 O   0  0  0  0  0  0  0  0  0  0  0  0
   26.7970   34.3450   14.1530 O   0  0  0  0  0  0  0  0  0  0  0  0
   27.0610   35.1110   14.7530 H   0  0  0  0  0  0  0  0  0  0  0  0
   24.8720   29.4590   16.4560 O   0  0  0  0  0  0  0  0  0  0  0  0
   24.3200   30.1980   16.8150 H   0  0  0  0  0  0  0  0  0  0  0  0
   27.7180   29.1160   17.2920 N   0  0  0  0  0  0  0  0  0  0  0  0
   27.2730   28.6220   18.5360 C   0  0  0  0  0  0  0  0  0  0  0  0
   28.4880   28.5940   16.8290 H   0  0  0  0  0  0  0  0  0  0  0  0
   27.8450   27.4450   19.2230 C   0  0  0  0  0  0  0  0  0  0  0  0
   26.3280   29.2210   19.0960 O   0  0  0  0  0  0  0  0  0  0  0  0
   30.0740   30.4060   16.9560 O   0  0  0  0  0  0  0  0  0  0  0  0
   29.4440   29.7610   17.3980 H   0  0  0  0  0  0  0  0  0  0  0  0
   31.2870   31.9080   15.0090 O   0  0  0  0  0  0  0  0  0  0  0  0
   31.9590   31.6400   15.6940 H   0  0  0  0  0  0  0  0  0  0  0  0
   31.0710   33.9890   20.0440 O   0  0  0  0  0  0  0  0  0  0  0  0
   31.7990   33.0350   20.7990 C   0  0  0  0  0  0  0  0  0  0  0  0
   31.1430   31.6950   20.7100 C   0  0  0  0  0  0  0  0  0  0  0  0
   30.7910   30.9010   21.7850 C   0  0  0  0  0  0  0  0  0  0  0  0
   30.7790   31.0220   19.6080 N   0  0  0  0  0  0  0  0  0  0  0  0
   30.2200   29.7650   21.2840 N   0  0  0  0  0  0  0  0  0  0  0  0
   30.2290   29.8680   19.9870 N   0  0  0  0  0  0  0  0  0  0  0  0
   29.7260   28.6790   22.0770 C   0  0  0  0  0  0  0  0  0  0  0  0
   30.4360   27.5120   22.2400 C   0  0  0  0  0  0  0  0  0  0  0  0
   28.4880   28.8310   22.6910 C   0  0  0  0  0  0  0  0  0  0  0  0
   29.8870   26.4980   23.0300 C   0  0  0  0  0  0  0  0  0  0  0  0
   27.9640   27.8230   23.4630 C   0  0  0  0  0  0  0  0  0  0  0  0
   28.6720   26.6610   23.6250 C   0  0  0  0  0  0  0  0  0  0  0  0
   31.7370   27.2890   21.6270 C   0  0  0  0  0  0  0  0  0  0  0  0
   32.7510   27.2750   22.3970 O   0  0  0  0  0  0  0  0  0  0  0  0
   31.9090   27.0910   20.2310 N   0  0  0  0  0  0  0  0  0  0  0  0
   31.6160   26.2240   19.7530 H   0  0  0  0  0  0  0  0  0  0  0  0
   32.3680   27.8880   19.6950 H   0  0  0  0  0  0  0  0  0  0  0  0
   29.8670   25.5550   16.9770 C   0  0  0  0  0  0  0  0  0  0  0  0
   28.3450   25.7220   17.0260 C   0  0  0  0  0  0  0  0  0  0  0  0
   27.5990   24.4340   16.7120 C   0  0  0  0  0  0  0  0  0  0  0  0
   26.9910   23.8180   17.9420 C   0  0  0  0  0  0  0  0  0  0  0  0
   25.5220   23.5030   17.6800 C   0  0  0  0  0  0  0  0  0  0  0  0
   24.8380   24.6760   17.0860 N   0  0  0  0  0  0  0  0  0  0  0  0
  1  4  1  0  0  0  0
  1  2  1  0  0  0  0
  2 31  1  0  0  0  0
  3  2  2  0  0  0  0
  5  1  1  0  0  0  0
  6  5  1  1  0  0  0
  6  7  1  0  0  0  0
  7 27  1  6  0  0  0
  8 11  1  0  0  0  0
  8  7  1  1  0  0  0
  8 13  1  0  0  0  0
  9 16  1  6  0  0  0
  9 11  1  0  0  0  0
  9 14  1  0  0  0  0
 10  9  1  0  0  0  0
 10 12  1  0  0  0  0
 12 20  1  1  0  0  0
 12 13  1  0  0  0  0
 13 22  1  6  0  0  0
 14 15  1  0  0  0  0
 17 16  2  0  0  0  0
 18 16  1  0  0  0  0
 18 19  1  0  0  0  0
 20 21  1  0  0  0  0
 22 23  1  0  0  0  0
 23 26  2  0  0  0  0
 23 25  1  0  0  0  0
 24 22  1  0  0  0  0
 27 28  1  0  0  0  0
 29  6  1  0  0  0  0
 29 30  1  0  0  0  0
 31 32  1  0  0  0  0
 33 32  1  0  0  0  0
 33 34  2  0  0  0  0
 35 37  2  0  0  0  0
 35 33  1  0  0  0  0
 36 34  1  0  0  0  0
 36 38  1  0  0  0  0
 37 36  1  0  0  0  0
 38 39  2  0  0  0  0
 38 40  1  0  0  0  0
 39 41  1  0  0  0  0
 40 42  2  0  0  0  0
 41 43  2  0  0  0  0
 42 43  1  0  0  0  0
 44 39  1  0  0  0  0
 44 45  2  0  0  0  0
 46 44  1  0  0  0  0
 47 46  1  0  0  0  0
 48 46  1  0  0  0  0
 49 50  1  0  0  0  0
 51 50  1  0  0  0  0
 51 52  1  0  0  0  0
 53 52  1  0  0  0  0
 54 53  1  0  0  0  0
M  END
>  <REMARK>
 VINA RESULT:    -5.273      2.349      7.091
 INTER + INTRA:         -14.848
 INTER:                  -8.521
 INTRA:                  -6.327
 UNBOUND:                -5.414
 SMILES CC(=O)N[C@@H]1[C@@H](O)C[C@](O)(C(=O)O)O[C@H]1C(O)[C@H](O)CNC(=O)OCc1cn(-c2ccccc2C(N)=O)nn1
 SMILES IDX 21 1 22 2 23 3 20 5 18 6 16 7 15 8 9 9 8 10 14 11 6 12 5 13
 SMILES IDX 10 14 11 16 12 17 13 18 7 20 4 22 2 23 1 25 3 26 17 27 19 29
 SMILES IDX 24 31 25 32 26 33 27 34 39 35 28 36 38 37 29 38 34 39 30 40
 SMILES IDX 33 41 31 42 32 43 35 44 37 45 36 46
 H PARENT 21 4 10 15 13 19 7 21 4 24 17 28 19 30 36 47 36 48
 Flexibility Score: inf
  4 active torsions:
  status: ('A' for Active; 'I' for Inactive)
    1  A    between atoms: CA   and  CB  
    2  A    between atoms: CB   and  CG  
    3  A    between atoms: CG   and  CD  
    4  A    between atoms: CD   and  CE  

>  <TORSDO>
F 16

>  <BEGIN_>
RES LYS A 131

$$$$
ligand_0_pose_10_2HRL.pdbqt
 OpenBabel07062320523D

  6  5  0  0  0  0  0  0  0  0999 V2000
   33.1930   34.6630    9.2900 C   0  0  0  0  0  0  0  0  0  0  0  0
   32.0600   35.3600   10.0340 C   0  0  0  0  0  0  0  0  0  0  0  0
   30.7910   35.4730    9.2300 C   0  0  0  0  0  0  0  0  0  0  0  0
   30.1960   34.0970    8.9690 C   0  0  0  0  0  0  0  0  0  0  0  0
   28.7190   34.0810    9.3140 C   0  0  0  0  0  0  0  0  0  0  0  0
   28.4980   34.4380   10.7430 N   0  0  0  0  0  0  0  0  0  0  0  0
  1  2  1  0  0  0  0
  3  2  1  0  0  0  0
  4  3  1  0  0  0  0
  4  5  1  0  0  0  0
  5  6  1  0  0  0  0
M  END
>  <EGIN_R>
ES LYS A 135

>  <REMARK>
  4 active torsions:
  status: ('A' for Active; 'I' for Inactive)
    5  A    between atoms: CA   and  CB  
    6  A    between atoms: CB   and  CG  
    7  A    between atoms: CG   and  CD  
    8  A    between atoms: CD   and  CE  

$$$$
