ligand_33_pose_6_2HRL.pdbqt
 OpenBabel07062320523D

 52 52  0  0  1  0  0  0  0  0999 V2000
   27.0220   29.7160   18.6640 C   0  0  0  0  0  0  0  0  0  0  0  0
   27.2610   28.3480   18.9720 O   0  0  0  0  0  0  0  0  0  0  0  0
   28.0280   28.0620   20.1080 C   0  0  0  0  0  0  0  0  0  0  0  0
   29.3070   27.4660   19.9210 N   0  0  0  0  0  0  0  0  0  0  0  0
   29.6160   27.2720   18.9320 H   0  0  0  0  0  0  0  0  0  0  0  0
   27.5480   28.3450   21.2330 O   0  0  0  0  0  0  0  0  0  0  0  0
   30.1050   27.1600   21.0650 C   0  0  0  0  0  0  0  0  0  0  0  0
   31.2850   28.0780   21.2750 C   0  0  2  0  0  0  0  0  0  0  0  0
   30.8810   29.1470   22.2720 C   0  0  2  0  0  0  0  0  0  0  0  0
   31.9040   29.4440   23.3170 C   0  0  2  0  0  0  0  0  0  0  0  0
   32.7500   31.2990   22.1640 C   0  0  2  0  0  0  0  0  0  0  0  0
   33.8860   30.3770   21.6900 C   0  0  0  0  0  0  0  0  0  0  0  0
   32.1750   30.7960   23.2960 O   0  0  0  0  0  0  0  0  0  0  0  0
   34.3170   29.6190   22.9210 C   0  0  1  0  0  0  0  0  0  0  0  0
   33.1650   28.6580   23.2710 C   0  0  1  0  0  0  0  0  0  0  0  0
   31.8730   31.5510   21.1120 O   0  0  0  0  0  0  0  0  0  0  0  0
   32.2600   32.2220   20.4650 H   0  0  0  0  0  0  0  0  0  0  0  0
   33.3980   32.5860   22.5260 C   0  0  0  0  0  0  0  0  0  0  0  0
   34.2110   33.1310   21.7210 O   0  0  0  0  0  0  0  0  0  0  0  0
   33.0960   33.1670   23.7440 O   0  0  0  0  0  0  0  0  0  0  0  0
   33.4680   34.1160   23.8930 H   0  0  0  0  0  0  0  0  0  0  0  0
   35.4950   28.9030   22.7110 O   0  0  0  0  0  0  0  0  0  0  0  0
   35.9910   28.9140   23.5720 H   0  0  0  0  0  0  0  0  0  0  0  0
   33.4570   28.0090   24.5410 N   0  0  0  0  0  0  0  0  0  0  0  0
   34.1330   26.7770   24.6360 C   0  0  0  0  0  0  0  0  0  0  0  0
   33.1480   28.4920   25.4320 H   0  0  0  0  0  0  0  0  0  0  0  0
   34.4190   26.1280   25.9670 C   0  0  0  0  0  0  0  0  0  0  0  0
   34.5040   26.2070   23.5640 O   0  0  0  0  0  0  0  0  0  0  0  0
   29.7910   28.5560   22.9750 O   0  0  0  0  0  0  0  0  0  0  0  0
   30.1540   28.3030   23.8560 H   0  0  0  0  0  0  0  0  0  0  0  0
   31.6600   28.5840   20.0500 O   0  0  0  0  0  0  0  0  0  0  0  0
   31.1630   29.4110   19.8320 H   0  0  0  0  0  0  0  0  0  0  0  0
   28.3420   30.3000   18.3330 C   0  0  0  0  0  0  0  0  0  0  0  0
   28.7210   30.6610   17.0560 C   0  0  0  0  0  0  0  0  0  0  0  0
   29.3590   30.5770   19.1480 N   0  0  0  0  0  0  0  0  0  0  0  0
   29.9770   31.1450   17.1750 N   0  0  0  0  0  0  0  0  0  0  0  0
   30.3510   31.0920   18.4340 N   0  0  0  0  0  0  0  0  0  0  0  0
   30.7260   31.6320   16.0150 C   0  0  0  0  0  0  0  0  0  0  0  0
   31.3510   32.9490   16.3920 C   0  0  0  0  0  0  0  0  0  0  0  0
   31.7230   33.7900   15.1900 C   0  0  0  0  0  0  0  0  0  0  0  0
   30.6110   33.9150   14.2070 C   0  0  0  0  0  0  0  0  0  0  0  0
   30.9550   34.7400   12.9970 C   0  0  0  0  0  0  0  0  0  0  0  0
   32.2240   35.4720   13.1140 C   0  0  0  0  0  0  0  0  0  0  0  0
   32.2710   36.6020   13.6250 O   0  0  0  0  0  0  0  0  0  0  0  0
   33.4240   34.9060   12.6480 O   0  0  0  0  0  0  0  0  0  0  0  0
   33.8480   35.2450   11.7780 H   0  0  0  0  0  0  0  0  0  0  0  0
   29.8670   25.5550   16.9770 C   0  0  0  0  0  0  0  0  0  0  0  0
   28.3450   25.7220   17.0260 C   0  0  0  0  0  0  0  0  0  0  0  0
   27.6040   24.3940   16.9980 C   0  0  0  0  0  0  0  0  0  0  0  0
   26.1240   24.5670   17.2050 C   0  0  0  0  0  0  0  0  0  0  0  0
   25.6100   23.4760   18.1390 C   0  0  0  0  0  0  0  0  0  0  0  0
   25.6350   23.9430   19.5450 N   0  0  0  0  0  0  0  0  0  0  0  0
  1  2  1  0  0  0  0
  2  3  1  0  0  0  0
  3  6  2  0  0  0  0
  4  3  1  0  0  0  0
  4  7  1  0  0  0  0
  5  4  1  0  0  0  0
  8  7  1  6  0  0  0
  8  9  1  0  0  0  0
  9 29  1  1  0  0  0
 10  9  1  6  0  0  0
 11 16  1  6  0  0  0
 11 18  1  0  0  0  0
 11 13  1  0  0  0  0
 12 11  1  0  0  0  0
 12 14  1  0  0  0  0
 13 10  1  0  0  0  0
 14 22  1  6  0  0  0
 14 15  1  0  0  0  0
 15 10  1  0  0  0  0
 15 24  1  1  0  0  0
 17 16  1  0  0  0  0
 18 20  1  0  0  0  0
 19 18  2  0  0  0  0
 20 21  1  0  0  0  0
 22 23  1  0  0  0  0
 24 25  1  0  0  0  0
 24 26  1  0  0  0  0
 25 27  1  0  0  0  0
 28 25  2  0  0  0  0
 29 30  1  0  0  0  0
 31  8  1  0  0  0  0
 32 31  1  0  0  0  0
 33  1  1  0  0  0  0
 33 35  1  0  0  0  0
 34 36  1  0  0  0  0
 34 33  2  0  0  0  0
 36 37  1  0  0  0  0
 37 35  2  0  0  0  0
 38 39  1  0  0  0  0
 38 36  1  0  0  0  0
 40 39  1  0  0  0  0
 41 40  1  0  0  0  0
 42 43  1  0  0  0  0
 42 41  1  0  0  0  0
 43 44  2  0  0  0  0
 45 43  1  0  0  0  0
 46 45  1  0  0  0  0
 47 48  1  0  0  0  0
 49 48  1  0  0  0  0
 49 50  1  0  0  0  0
 50 51  1  0  0  0  0
 51 52  1  0  0  0  0
M  END
>  <REMARK>
 VINA RESULT:    -4.406      9.320     14.879
 INTER + INTRA:         -14.960
 INTER:                  -9.280
 INTRA:                  -5.680
 UNBOUND:                -5.918
 SMILES CC(=O)N[C@@H]1[C@@H](O)C[C@](O)(C(=O)O)O[C@H]1C(O)[C@H](O)CNC(=O)OCc1cn(CCCCCC(=O)O)nn1
 SMILES IDX 25 1 24 2 22 3 21 4 23 6 20 7 18 8 16 9 15 10 9 11 8 12
 SMILES IDX 14 13 6 14 5 15 10 16 11 18 12 19 13 20 7 22 4 24 2 25 1 27
 SMILES IDX 3 28 17 29 19 31 26 33 27 34 38 35 28 36 37 37 29 38 30 39
 SMILES IDX 31 40 32 41 33 42 34 43 35 44 36 45
 H PARENT 21 5 10 17 13 21 7 23 4 26 17 30 19 32 36 46
 Flexibility Score: inf
  4 active torsions:
  status: ('A' for Active; 'I' for Inactive)
    1  A    between atoms: CA   and  CB  
    2  A    between atoms: CB   and  CG  
    3  A    between atoms: CG   and  CD  
    4  A    between atoms: CD   and  CE  

>  <TORSDO>
F 21

>  <BEGIN_>
RES LYS A 131

$$$$
ligand_33_pose_6_2HRL.pdbqt
 OpenBabel07062320523D

  6  5  0  0  0  0  0  0  0  0999 V2000
   33.1930   34.6630    9.2900 C   0  0  0  0  0  0  0  0  0  0  0  0
   32.0600   35.3600   10.0340 C   0  0  0  0  0  0  0  0  0  0  0  0
   30.7680   35.4050    9.2590 C   0  0  0  0  0  0  0  0  0  0  0  0
   30.2130   34.0030    9.0600 C   0  0  0  0  0  0  0  0  0  0  0  0
   28.7100   33.9910    9.2620 C   0  0  0  0  0  0  0  0  0  0  0  0
   28.0690   35.1550    8.5900 N   0  0  0  0  0  0  0  0  0  0  0  0
  1  2  1  0  0  0  0
  3  2  1  0  0  0  0
  4  3  1  0  0  0  0
  4  5  1  0  0  0  0
  6  5  1  0  0  0  0
M  END
>  <EGIN_R>
ES LYS A 135

>  <REMARK>
  4 active torsions:
  status: ('A' for Active; 'I' for Inactive)
    5  A    between atoms: CA   and  CB  
    6  A    between atoms: CB   and  CG  
    7  A    between atoms: CG   and  CD  
    8  A    between atoms: CD   and  CE  

$$$$
