ligand_53_pose_6_2HRL.pdbqt
 OpenBabel07062320523D

 48 48  0  0  1  0  0  0  0  0999 V2000
   26.7670   31.3720   15.7190 N   0  0  0  0  0  0  0  0  0  0  0  0
   25.8780   32.2550   15.0750 C   0  0  0  0  0  0  0  0  0  0  0  0
   24.7140   31.9470   14.8240 O   0  0  0  0  0  0  0  0  0  0  0  0
   27.7430   31.7630   15.8860 H   0  0  0  0  0  0  0  0  0  0  0  0
   26.4830   30.0300   16.1560 C   0  0  0  0  0  0  0  0  0  0  0  0
   27.2000   29.5820   17.3890 C   0  0  2  0  0  0  0  0  0  0  0  0
   28.4450   30.3370   17.6710 C   0  0  1  0  0  0  0  0  0  0  0  0
   29.1780   29.9300   18.9210 C   0  0  2  0  0  0  0  0  0  0  0  0
   28.7710   28.9920   21.0410 C   0  0  2  0  0  0  0  0  0  0  0  0
   29.8410   29.8180   21.6750 C   0  0  0  0  0  0  0  0  0  0  0  0
   28.2730   29.4000   19.8530 O   0  0  0  0  0  0  0  0  0  0  0  0
   30.8000   30.3340   20.6490 C   0  0  1  0  0  0  0  0  0  0  0  0
   29.9270   31.0460   19.5990 C   0  0  1  0  0  0  0  0  0  0  0  0
   27.7300   28.8820   22.0100 O   0  0  0  0  0  0  0  0  0  0  0  0
   27.5810   29.8120   22.3330 H   0  0  0  0  0  0  0  0  0  0  0  0
   29.2840   27.5950   20.9080 C   0  0  0  0  0  0  0  0  0  0  0  0
   30.1140   27.0690   21.6780 O   0  0  0  0  0  0  0  0  0  0  0  0
   28.8150   26.8210   19.8680 O   0  0  0  0  0  0  0  0  0  0  0  0
   29.2460   26.8130   18.9450 H   0  0  0  0  0  0  0  0  0  0  0  0
   31.7320   31.2200   21.1820 O   0  0  0  0  0  0  0  0  0  0  0  0
   31.4370   32.1340   20.9310 H   0  0  0  0  0  0  0  0  0  0  0  0
   30.7650   31.8570   18.7780 N   0  0  0  0  0  0  0  0  0  0  0  0
   30.5380   33.2540   18.5930 C   0  0  0  0  0  0  0  0  0  0  0  0
   31.5830   31.4390   18.2980 H   0  0  0  0  0  0  0  0  0  0  0  0
   31.3850   34.1270   17.7490 C   0  0  0  0  0  0  0  0  0  0  0  0
   29.5610   33.7690   19.1850 O   0  0  0  0  0  0  0  0  0  0  0  0
   29.2600   30.4200   16.5540 O   0  0  0  0  0  0  0  0  0  0  0  0
   29.5900   31.3410   16.4010 H   0  0  0  0  0  0  0  0  0  0  0  0
   27.4470   28.2040   17.2790 O   0  0  0  0  0  0  0  0  0  0  0  0
   26.9570   27.6890   17.9590 H   0  0  0  0  0  0  0  0  0  0  0  0
   26.2890   33.5300   14.6950 O   0  0  0  0  0  0  0  0  0  0  0  0
   27.2140   34.3120   15.3820 C   0  0  0  0  0  0  0  0  0  0  0  0
   28.6050   34.2100   14.8770 C   0  0  0  0  0  0  0  0  0  0  0  0
   29.3970   35.1540   14.3020 C   0  0  0  0  0  0  0  0  0  0  0  0
   29.3670   33.0770   14.9090 N   0  0  0  0  0  0  0  0  0  0  0  0
   30.5850   34.5970   14.0060 N   0  0  0  0  0  0  0  0  0  0  0  0
   30.5530   33.3450   14.3770 N   0  0  0  0  0  0  0  0  0  0  0  0
   31.6980   35.2830   13.3820 C   0  0  0  0  0  0  0  0  0  0  0  0
   32.9290   35.0490   14.1630 C   0  0  0  0  0  0  0  0  0  0  0  0
   33.2080   35.8240   15.1210 O   0  0  0  0  0  0  0  0  0  0  0  0
   33.7670   33.9980   13.8550 O   0  0  0  0  0  0  0  0  0  0  0  0
   34.6440   33.9390   14.3830 H   0  0  0  0  0  0  0  0  0  0  0  0
   29.8670   25.5550   16.9770 C   0  0  0  0  0  0  0  0  0  0  0  0
   28.3450   25.7220   17.0260 C   0  0  0  0  0  0  0  0  0  0  0  0
   27.5990   24.4260   16.7470 C   0  0  0  0  0  0  0  0  0  0  0  0
   26.9280   23.8830   17.9770 C   0  0  0  0  0  0  0  0  0  0  0  0
   25.6110   23.2180   17.5870 C   0  0  0  0  0  0  0  0  0  0  0  0
   24.7060   24.1980   16.9420 N   0  0  0  0  0  0  0  0  0  0  0  0
  1  4  1  0  0  0  0
  1  5  1  0  0  0  0
  2  1  1  0  0  0  0
  3  2  2  0  0  0  0
  6  5  1  6  0  0  0
  6  7  1  0  0  0  0
  7 27  1  6  0  0  0
  8  7  1  6  0  0  0
  8 13  1  0  0  0  0
  8 11  1  0  0  0  0
  9 16  1  6  0  0  0
  9 10  1  0  0  0  0
  9 14  1  0  0  0  0
 11  9  1  0  0  0  0
 12 20  1  1  0  0  0
 12 10  1  0  0  0  0
 13 22  1  6  0  0  0
 13 12  1  0  0  0  0
 14 15  1  0  0  0  0
 16 17  2  0  0  0  0
 18 16  1  0  0  0  0
 19 18  1  0  0  0  0
 21 20  1  0  0  0  0
 23 22  1  0  0  0  0
 23 26  2  0  0  0  0
 24 22  1  0  0  0  0
 25 23  1  0  0  0  0
 28 27  1  0  0  0  0
 29  6  1  0  0  0  0
 29 30  1  0  0  0  0
 31  2  1  0  0  0  0
 31 32  1  0  0  0  0
 33 35  1  0  0  0  0
 33 32  1  0  0  0  0
 34 33  2  0  0  0  0
 36 34  1  0  0  0  0
 36 37  1  0  0  0  0
 37 35  2  0  0  0  0
 38 36  1  0  0  0  0
 38 39  1  0  0  0  0
 39 40  2  0  0  0  0
 41 39  1  0  0  0  0
 41 42  1  0  0  0  0
 43 44  1  0  0  0  0
 45 44  1  0  0  0  0
 45 46  1  0  0  0  0
 47 46  1  0  0  0  0
 48 47  1  0  0  0  0
M  END
>  <REMARK>
 VINA RESULT:    -4.149      2.288      4.196
 INTER + INTRA:         -13.907
 INTER:                  -7.767
 INTRA:                  -6.140
 UNBOUND:                -6.362
 SMILES CC(=O)N[C@@H]1[C@@H](O)C[C@](O)(C(=O)O)O[C@H]1C(O)[C@H](O)CNC(=O)OCc1cn(CC(=O)O)nn1
 SMILES IDX 21 1 22 2 23 3 20 5 18 6 16 7 15 8 9 9 8 10 14 11 6 12 5 13
 SMILES IDX 10 14 11 16 12 17 13 18 7 20 4 22 2 23 1 25 3 26 17 27 19 29
 SMILES IDX 24 31 25 32 26 33 27 34 34 35 28 36 33 37 29 38 30 39 31 40
 SMILES IDX 32 41
 H PARENT 21 4 10 15 13 19 7 21 4 24 17 28 19 30 32 42
 Flexibility Score: inf
  4 active torsions:
  status: ('A' for Active; 'I' for Inactive)
    1  A    between atoms: CA   and  CB  
    2  A    between atoms: CB   and  CG  
    3  A    between atoms: CG   and  CD  
    4  A    between atoms: CD   and  CE  

>  <TORSDO>
F 17

>  <BEGIN_>
RES LYS A 131

$$$$
ligand_53_pose_6_2HRL.pdbqt
 OpenBabel07062320523D

  6  5  0  0  0  0  0  0  0  0999 V2000
   33.1930   34.6630    9.2900 C   0  0  0  0  0  0  0  0  0  0  0  0
   32.0600   35.3600   10.0340 C   0  0  0  0  0  0  0  0  0  0  0  0
   30.7190   34.6980    9.8470 C   0  0  0  0  0  0  0  0  0  0  0  0
   30.4480   34.4410    8.3730 C   0  0  0  0  0  0  0  0  0  0  0  0
   29.4450   35.4430    7.8340 C   0  0  0  0  0  0  0  0  0  0  0  0
   28.0670   34.8790    7.8390 N   0  0  0  0  0  0  0  0  0  0  0  0
  1  2  1  0  0  0  0
  3  2  1  0  0  0  0
  4  3  1  0  0  0  0
  5  6  1  0  0  0  0
  5  4  1  0  0  0  0
M  END
>  <EGIN_R>
ES LYS A 135

>  <REMARK>
  4 active torsions:
  status: ('A' for Active; 'I' for Inactive)
    5  A    between atoms: CA   and  CB  
    6  A    between atoms: CB   and  CG  
    7  A    between atoms: CG   and  CD  
    8  A    between atoms: CD   and  CE  

$$$$
