ligand_40_pose_4_2HRL.pdbqt
 OpenBabel07062320523D

 50 51  0  0  1  0  0  0  0  0999 V2000
   17.2240   33.2040    7.8520 C   0  0  0  0  0  0  0  0  0  0  0  0
   18.1040   33.9870    8.7350 C   0  0  2  0  0  0  0  0  0  0  0  0
   19.3540   34.5930    8.1820 C   0  0  2  0  0  0  0  0  0  0  0  0
   19.5330   36.0650    8.3750 C   0  0  2  0  0  0  0  0  0  0  0  0
   21.8510   36.2190    8.6880 C   0  0  2  0  0  0  0  0  0  0  0  0
   21.7130   36.8770   10.0500 C   0  0  0  0  0  0  0  0  0  0  0  0
   20.7900   36.4230    7.8640 O   0  0  0  0  0  0  0  0  0  0  0  0
   20.3670   36.4990   10.6470 C   0  0  1  0  0  0  0  0  0  0  0  0
   19.2460   36.6900    9.6780 C   0  0  1  0  0  0  0  0  0  0  0  0
   22.1760   34.9030    8.9140 O   0  0  0  0  0  0  0  0  0  0  0  0
   21.4680   34.2550    8.6670 H   0  0  0  0  0  0  0  0  0  0  0  0
   23.0300   36.8850    8.0510 C   0  0  0  0  0  0  0  0  0  0  0  0
   24.1920   36.8140    8.5510 O   0  0  0  0  0  0  0  0  0  0  0  0
   22.8690   37.6040    6.8840 O   0  0  0  0  0  0  0  0  0  0  0  0
   23.6470   37.6600    6.2220 H   0  0  0  0  0  0  0  0  0  0  0  0
   20.4780   35.1310   10.9030 O   0  0  0  0  0  0  0  0  0  0  0  0
   19.6020   34.7310   11.1420 H   0  0  0  0  0  0  0  0  0  0  0  0
   18.9340   38.0820    9.4130 N   0  0  0  0  0  0  0  0  0  0  0  0
   17.6770   38.6560    9.6650 C   0  0  0  0  0  0  0  0  0  0  0  0
   19.7140   38.6460    9.0170 H   0  0  0  0  0  0  0  0  0  0  0  0
   17.3300   40.0660    9.4060 C   0  0  0  0  0  0  0  0  0  0  0  0
   16.8130   37.8940   10.1390 O   0  0  0  0  0  0  0  0  0  0  0  0
   19.1360   34.5550    6.7270 O   0  0  0  0  0  0  0  0  0  0  0  0
   18.1630   34.3950    6.5970 H   0  0  0  0  0  0  0  0  0  0  0  0
   18.2720   33.3920    9.9760 O   0  0  0  0  0  0  0  0  0  0  0  0
   19.2350   33.4060   10.2670 H   0  0  0  0  0  0  0  0  0  0  0  0
   16.3050   32.2960    8.5430 N   0  0  0  0  0  0  0  0  0  0  0  0
   16.3210   30.9020    8.3130 C   0  0  0  0  0  0  0  0  0  0  0  0
   15.5880   32.6430    9.2320 H   0  0  0  0  0  0  0  0  0  0  0  0
   17.1270   30.4210    7.5090 O   0  0  0  0  0  0  0  0  0  0  0  0
   15.4560   30.0190    8.9610 O   0  0  0  0  0  0  0  0  0  0  0  0
   15.9130   29.3060   10.0870 C   0  0  0  0  0  0  0  0  0  0  0  0
   16.9210   30.0360   10.8620 C   0  0  0  0  0  0  0  0  0  0  0  0
   18.2390   29.6410   10.9670 C   0  0  0  0  0  0  0  0  0  0  0  0
   16.8370   31.1630   11.5970 N   0  0  0  0  0  0  0  0  0  0  0  0
   18.9160   30.5120   11.7450 N   0  0  0  0  0  0  0  0  0  0  0  0
   18.0350   31.4200   12.1080 N   0  0  0  0  0  0  0  0  0  0  0  0
   20.2910   30.4990   12.1250 C   0  0  0  0  0  0  0  0  0  0  0  0
   21.0120   29.3230   12.1450 C   0  0  0  0  0  0  0  0  0  0  0  0
   20.9610   31.6490   12.4900 C   0  0  0  0  0  0  0  0  0  0  0  0
   22.3440   29.2950   12.5110 C   0  0  0  0  0  0  0  0  0  0  0  0
   22.2900   31.6280   12.8570 C   0  0  0  0  0  0  0  0  0  0  0  0
   23.0060   30.4500   12.8740 C   0  0  0  0  0  0  0  0  0  0  0  0
   24.4360   30.4710   13.2760 C   0  0  0  0  0  0  0  0  0  0  0  0
   29.8670   25.5550   16.9770 C   0  0  0  0  0  0  0  0  0  0  0  0
   28.3450   25.7220   17.0260 C   0  0  0  0  0  0  0  0  0  0  0  0
   27.6010   24.4030   16.8860 C   0  0  0  0  0  0  0  0  0  0  0  0
   26.5730   24.2150   17.9670 C   0  0  0  0  0  0  0  0  0  0  0  0
   25.6680   23.0400   17.6100 C   0  0  0  0  0  0  0  0  0  0  0  0
   24.3960   23.1160   18.3680 N   0  0  0  0  0  0  0  0  0  0  0  0
  1 27  1  0  0  0  0
  2  1  1  6  0  0  0
  2 25  1  0  0  0  0
  3 23  1  6  0  0  0
  3  2  1  0  0  0  0
  4  3  1  1  0  0  0
  4  9  1  0  0  0  0
  5 12  1  6  0  0  0
  5 10  1  0  0  0  0
  5  6  1  0  0  0  0
  6  8  1  0  0  0  0
  7  4  1  0  0  0  0
  7  5  1  0  0  0  0
  8 16  1  6  0  0  0
  9 18  1  6  0  0  0
  9  8  1  0  0  0  0
 11 10  1  0  0  0  0
 12 13  2  0  0  0  0
 14 12  1  0  0  0  0
 15 14  1  0  0  0  0
 16 17  1  0  0  0  0
 18 19  1  0  0  0  0
 19 22  2  0  0  0  0
 20 18  1  0  0  0  0
 21 19  1  0  0  0  0
 24 23  1  0  0  0  0
 25 26  1  0  0  0  0
 27 29  1  0  0  0  0
 28 27  1  0  0  0  0
 28 31  1  0  0  0  0
 30 28  2  0  0  0  0
 31 32  1  0  0  0  0
 32 33  1  0  0  0  0
 33 34  2  0  0  0  0
 33 35  1  0  0  0  0
 34 36  1  0  0  0  0
 35 37  2  0  0  0  0
 36 37  1  0  0  0  0
 36 38  1  0  0  0  0
 38 39  2  0  0  0  0
 38 40  1  0  0  0  0
 39 41  1  0  0  0  0
 40 42  2  0  0  0  0
 41 43  2  0  0  0  0
 42 43  1  0  0  0  0
 43 44  1  0  0  0  0
 45 46  1  0  0  0  0
 47 46  1  0  0  0  0
 47 48  1  0  0  0  0
 49 48  1  0  0  0  0
 49 50  1  0  0  0  0
M  END
>  <REMARK>
 VINA RESULT:    -5.461      6.528     10.870
 INTER + INTRA:         -14.463
 INTER:                  -8.931
 INTRA:                  -5.533
 UNBOUND:                -5.012
 SMILES CC(=O)N[C@@H]1[C@@H](O)C[C@](O)(C(=O)O)O[C@H]1C(O)[C@H](O)CNC(=O)OCc1cn(-c2ccc(C)cc2)nn1
 SMILES IDX 20 1 18 2 16 3 15 4 9 5 8 6 14 7 6 8 5 9 10 10 11 12 12 13
 SMILES IDX 13 14 7 16 4 18 2 19 1 21 3 22 17 23 19 25 21 27 22 28 23 30
 SMILES IDX 24 31 25 32 26 33 27 34 37 35 28 36 36 37 29 38 30 39 35 40
 SMILES IDX 31 41 34 42 32 43 33 44
 H PARENT 10 11 13 15 7 17 4 20 17 24 19 26 21 29
 Flexibility Score: inf
  4 active torsions:
  status: ('A' for Active; 'I' for Inactive)
    1  A    between atoms: CA   and  CB  
    2  A    between atoms: CB   and  CG  
    3  A    between atoms: CG   and  CD  
    4  A    between atoms: CD   and  CE  

>  <TORSDO>
F 15

>  <BEGIN_>
RES LYS A 131

$$$$
ligand_40_pose_4_2HRL.pdbqt
 OpenBabel07062320523D

  6  5  0  0  0  0  0  0  0  0999 V2000
   33.1930   34.6630    9.2900 C   0  0  0  0  0  0  0  0  0  0  0  0
   32.0600   35.3600   10.0340 C   0  0  0  0  0  0  0  0  0  0  0  0
   30.8020   35.5050    9.2170 C   0  0  0  0  0  0  0  0  0  0  0  0
   30.1330   34.1540    9.0170 C   0  0  0  0  0  0  0  0  0  0  0  0
   28.6780   34.3320    8.6290 C   0  0  0  0  0  0  0  0  0  0  0  0
   27.7750   33.6750    9.6150 N   0  0  0  0  0  0  0  0  0  0  0  0
  1  2  1  0  0  0  0
  3  2  1  0  0  0  0
  4  3  1  0  0  0  0
  5  4  1  0  0  0  0
  5  6  1  0  0  0  0
M  END
>  <EGIN_R>
ES LYS A 135

>  <REMARK>
  4 active torsions:
  status: ('A' for Active; 'I' for Inactive)
    5  A    between atoms: CA   and  CB  
    6  A    between atoms: CB   and  CG  
    7  A    between atoms: CG   and  CD  
    8  A    between atoms: CD   and  CE  

$$$$
