ligand_63_pose_14_2HRL.pdbqt
 OpenBabel07062320523D

 51 52  0  0  1  0  0  0  0  0999 V2000
   28.7680   29.2560   18.8930 N   0  0  0  0  0  0  0  0  0  0  0  0
   27.5590   29.2140   18.1210 C   0  0  0  0  0  0  0  0  0  0  0  0
   26.4520   29.0980   18.6570 O   0  0  0  0  0  0  0  0  0  0  0  0
   29.6440   29.3840   18.2840 H   0  0  0  0  0  0  0  0  0  0  0  0
   28.8370   29.1930   20.2740 C   0  0  0  0  0  0  0  0  0  0  0  0
   29.4670   27.9320   20.9160 C   0  0  2  0  0  0  0  0  0  0  0  0
   30.8930   28.2920   21.0870 C   0  0  1  0  0  0  0  0  0  0  0  0
   31.7730   27.4430   21.9330 C   0  0  2  0  0  0  0  0  0  0  0  0
   30.9600   26.6960   24.0100 C   0  0  2  0  0  0  0  0  0  0  0  0
   32.3320   26.4400   24.5830 C   0  0  0  0  0  0  0  0  0  0  0  0
   30.9310   26.5270   22.6230 O   0  0  0  0  0  0  0  0  0  0  0  0
   33.4170   26.9090   23.5940 C   0  0  1  0  0  0  0  0  0  0  0  0
   32.7270   28.0720   22.8410 C   0  0  1  0  0  0  0  0  0  0  0  0
   30.4730   27.9200   24.4400 O   0  0  0  0  0  0  0  0  0  0  0  0
   29.5340   27.9260   24.6760 H   0  0  0  0  0  0  0  0  0  0  0  0
   30.1010   25.6070   24.5190 C   0  0  0  0  0  0  0  0  0  0  0  0
   30.1650   24.9390   25.4780 O   0  0  0  0  0  0  0  0  0  0  0  0
   28.9550   25.3460   23.6200 O   0  0  0  0  0  0  0  0  0  0  0  0
   28.6100   24.3830   23.6220 H   0  0  0  0  0  0  0  0  0  0  0  0
   34.5420   27.3300   24.2540 O   0  0  0  0  0  0  0  0  0  0  0  0
   34.9440   26.6160   24.7800 H   0  0  0  0  0  0  0  0  0  0  0  0
   33.7930   28.8230   22.1630 N   0  0  0  0  0  0  0  0  0  0  0  0
   33.8780   30.2080   22.3770 C   0  0  0  0  0  0  0  0  0  0  0  0
   34.4480   28.3400   21.5780 H   0  0  0  0  0  0  0  0  0  0  0  0
   34.7420   31.2470   21.9560 C   0  0  0  0  0  0  0  0  0  0  0  0
   32.8670   30.5820   23.2130 O   0  0  0  0  0  0  0  0  0  0  0  0
   31.4260   28.8030   19.9400 O   0  0  0  0  0  0  0  0  0  0  0  0
   30.9810   28.4580   19.1210 H   0  0  0  0  0  0  0  0  0  0  0  0
   29.1480   26.9040   20.0740 O   0  0  0  0  0  0  0  0  0  0  0  0
   28.5770   26.2510   20.5500 H   0  0  0  0  0  0  0  0  0  0  0  0
   27.6480   29.3120   16.7300 O   0  0  0  0  0  0  0  0  0  0  0  0
   26.8520   30.2710   16.0020 C   0  0  0  0  0  0  0  0  0  0  0  0
   27.7360   31.4940   15.9890 C   0  0  0  0  0  0  0  0  0  0  0  0
   28.9030   31.6470   15.3000 C   0  0  0  0  0  0  0  0  0  0  0  0
   27.4470   32.6470   16.5920 N   0  0  0  0  0  0  0  0  0  0  0  0
   29.2890   32.9420   15.5150 N   0  0  0  0  0  0  0  0  0  0  0  0
   28.3730   33.5160   16.3070 N   0  0  0  0  0  0  0  0  0  0  0  0
   30.4110   33.5820   14.9960 C   0  0  0  0  0  0  0  0  0  0  0  0
   31.6380   33.5070   15.6610 N   0  0  0  0  0  0  0  0  0  0  0  0
   30.4310   34.4040   13.8890 C   0  0  0  0  0  0  0  0  0  0  0  0
   32.6350   34.1630   15.2360 C   0  0  0  0  0  0  0  0  0  0  0  0
   31.4800   35.0850   13.4600 C   0  0  0  0  0  0  0  0  0  0  0  0
   32.7420   35.0280   14.1180 C   0  0  0  0  0  0  0  0  0  0  0  0
   29.1280   34.6050   13.1450 C   0  0  0  0  0  0  0  0  0  0  0  0
   28.2590   34.7220   12.6430 N   0  0  0  0  0  0  0  0  0  0  0  0
   29.8670   25.5550   16.9770 C   0  0  0  0  0  0  0  0  0  0  0  0
   28.3450   25.7220   17.0260 C   0  0  0  0  0  0  0  0  0  0  0  0
   27.6010   24.4020   16.8940 C   0  0  0  0  0  0  0  0  0  0  0  0
   26.6610   24.1640   18.0440 C   0  0  0  0  0  0  0  0  0  0  0  0
   25.7050   23.0290   17.6930 C   0  0  0  0  0  0  0  0  0  0  0  0
   24.8080   22.7340   18.8350 N   0  0  0  0  0  0  0  0  0  0  0  0
  1  5  1  0  0  0  0
  2  3  2  0  0  0  0
  2  1  1  0  0  0  0
  4  1  1  0  0  0  0
  6  5  1  6  0  0  0
  6  7  1  0  0  0  0
  7 27  1  6  0  0  0
  8  7  1  1  0  0  0
  8 11  1  0  0  0  0
  8 13  1  0  0  0  0
  9 14  1  1  0  0  0
  9 16  1  0  0  0  0
  9 10  1  0  0  0  0
 11  9  1  0  0  0  0
 12 20  1  1  0  0  0
 12 10  1  0  0  0  0
 13 22  1  6  0  0  0
 13 12  1  0  0  0  0
 14 15  1  0  0  0  0
 16 17  2  0  0  0  0
 18 19  1  0  0  0  0
 18 16  1  0  0  0  0
 20 21  1  0  0  0  0
 22 23  1  0  0  0  0
 23 26  2  0  0  0  0
 24 22  1  0  0  0  0
 25 23  1  0  0  0  0
 28 27  1  0  0  0  0
 29 30  1  0  0  0  0
 29  6  1  0  0  0  0
 31  2  1  0  0  0  0
 32 31  1  0  0  0  0
 33 32  1  0  0  0  0
 33 35  1  0  0  0  0
 34 36  1  0  0  0  0
 34 33  2  0  0  0  0
 36 37  1  0  0  0  0
 37 35  2  0  0  0  0
 38 36  1  0  0  0  0
 38 39  2  0  0  0  0
 40 38  1  0  0  0  0
 41 39  1  0  0  0  0
 42 40  2  0  0  0  0
 42 43  1  0  0  0  0
 43 41  2  0  0  0  0
 44 40  1  0  0  0  0
 45 44  3  0  0  0  0
 46 47  1  0  0  0  0
 48 47  1  0  0  0  0
 48 49  1  0  0  0  0
 50 49  1  0  0  0  0
 50 51  1  0  0  0  0
M  END
>  <REMARK>
 VINA RESULT:    -4.075      8.001     12.785
 INTER + INTRA:         -14.333
 INTER:                  -9.246
 INTRA:                  -5.086
 UNBOUND:                -7.042
 SMILES CC(=O)N[C@@H]1[C@@H](O)C[C@](O)(C(=O)O)O[C@H]1C(O)[C@H](O)CNC(=O)OCc1cn(-c2ncccc2C#N)nn1
 SMILES IDX 21 1 22 2 23 3 20 5 18 6 16 7 15 8 9 9 8 10 14 11 6 12 5 13
 SMILES IDX 10 14 11 16 12 17 13 18 7 20 4 22 2 23 1 25 3 26 17 27 19 29
 SMILES IDX 24 31 25 32 26 33 27 34 38 35 28 36 37 37 29 38 30 39 34 40
 SMILES IDX 31 41 33 42 32 43 35 44 36 45
 H PARENT 21 4 10 15 13 19 7 21 4 24 17 28 19 30
 Flexibility Score: inf
  4 active torsions:
  status: ('A' for Active; 'I' for Inactive)
    1  A    between atoms: CA   and  CB  
    2  A    between atoms: CB   and  CG  
    3  A    between atoms: CG   and  CD  
    4  A    between atoms: CD   and  CE  

>  <TORSDO>
F 16

>  <BEGIN_>
RES LYS A 131

$$$$
ligand_63_pose_14_2HRL.pdbqt
 OpenBabel07062320523D

  6  5  0  0  0  0  0  0  0  0999 V2000
   33.1930   34.6630    9.2900 C   0  0  0  0  0  0  0  0  0  0  0  0
   32.0600   35.3600   10.0340 C   0  0  0  0  0  0  0  0  0  0  0  0
   30.7130   34.7200    9.8170 C   0  0  0  0  0  0  0  0  0  0  0  0
   30.3510   34.7190    8.3400 C   0  0  0  0  0  0  0  0  0  0  0  0
   28.8490   34.6140    8.1590 C   0  0  0  0  0  0  0  0  0  0  0  0
   28.2270   33.8540    9.2790 N   0  0  0  0  0  0  0  0  0  0  0  0
  1  2  1  0  0  0  0
  3  2  1  0  0  0  0
  4  3  1  0  0  0  0
  5  4  1  0  0  0  0
  5  6  1  0  0  0  0
M  END
>  <EGIN_R>
ES LYS A 135

>  <REMARK>
  4 active torsions:
  status: ('A' for Active; 'I' for Inactive)
    5  A    between atoms: CA   and  CB  
    6  A    between atoms: CB   and  CG  
    7  A    between atoms: CG   and  CD  
    8  A    between atoms: CD   and  CE  

$$$$
