ligand_24_pose_3_2HRL.pdbqt
 OpenBabel07062320523D

 52 53  0  0  1  0  0  0  0  0999 V2000
   25.3090   33.9870   12.2770 N   0  0  0  0  0  0  0  0  0  0  0  0
   26.2830   34.8450   12.8320 C   0  0  0  0  0  0  0  0  0  0  0  0
   26.0310   35.6790   13.7350 O   0  0  0  0  0  0  0  0  0  0  0  0
   25.6300   33.3340   11.5250 H   0  0  0  0  0  0  0  0  0  0  0  0
   23.9390   33.9560   12.6770 C   0  0  0  0  0  0  0  0  0  0  0  0
   22.9790   34.5040   11.6770 C   0  0  2  0  0  0  0  0  0  0  0  0
   23.4970   35.7480   10.9900 C   0  0  1  0  0  0  0  0  0  0  0  0
   22.6040   36.2770    9.9250 C   0  0  2  0  0  0  0  0  0  0  0  0
   20.9760   35.7050    8.3830 C   0  0  2  0  0  0  0  0  0  0  0  0
   21.5860   36.5750    7.3210 C   0  0  0  0  0  0  0  0  0  0  0  0
   21.8230   35.2750    9.3550 O   0  0  0  0  0  0  0  0  0  0  0  0
   22.6040   37.5490    7.8760 C   0  0  1  0  0  0  0  0  0  0  0  0
   23.4990   36.7750    8.7850 C   0  0  1  0  0  0  0  0  0  0  0  0
   20.5430   34.5400    7.6950 O   0  0  0  0  0  0  0  0  0  0  0  0
   20.6610   33.8000    8.3390 H   0  0  0  0  0  0  0  0  0  0  0  0
   19.7470   36.3760    8.8680 C   0  0  0  0  0  0  0  0  0  0  0  0
   19.1750   37.2980    8.2140 O   0  0  0  0  0  0  0  0  0  0  0  0
   19.1490   36.0290   10.0780 O   0  0  0  0  0  0  0  0  0  0  0  0
   18.1520   36.0020   10.1700 H   0  0  0  0  0  0  0  0  0  0  0  0
   23.2700   38.1710    6.8390 O   0  0  0  0  0  0  0  0  0  0  0  0
   23.7290   38.9590    7.1710 H   0  0  0  0  0  0  0  0  0  0  0  0
   24.6550   37.4830    9.2330 N   0  0  0  0  0  0  0  0  0  0  0  0
   25.8950   37.5080    8.5790 C   0  0  0  0  0  0  0  0  0  0  0  0
   24.5710   38.0380   10.1270 H   0  0  0  0  0  0  0  0  0  0  0  0
   27.0210   38.2850    9.1490 C   0  0  0  0  0  0  0  0  0  0  0  0
   26.0560   36.8820    7.5270 O   0  0  0  0  0  0  0  0  0  0  0  0
   23.7650   36.7130   11.9360 O   0  0  0  0  0  0  0  0  0  0  0  0
   23.5480   37.6350   11.6750 H   0  0  0  0  0  0  0  0  0  0  0  0
   21.7150   34.6700   12.1610 O   0  0  0  0  0  0  0  0  0  0  0  0
   21.7680   34.6790   13.1640 H   0  0  0  0  0  0  0  0  0  0  0  0
   27.6090   34.7810   12.3640 O   0  0  0  0  0  0  0  0  0  0  0  0
   28.3670   35.9680   12.3410 C   0  0  0  0  0  0  0  0  0  0  0  0
   29.5850   35.8750   13.1660 C   0  0  0  0  0  0  0  0  0  0  0  0
   30.2230   34.7090   13.6000 C   0  0  0  0  0  0  0  0  0  0  0  0
   30.3230   36.8800   13.6670 N   0  0  0  0  0  0  0  0  0  0  0  0
   31.2950   35.0500   14.3280 N   0  0  0  0  0  0  0  0  0  0  0  0
   31.3330   36.3680   14.3540 N   0  0  0  0  0  0  0  0  0  0  0  0
   32.2400   34.1750   14.9710 C   0  0  0  0  0  0  0  0  0  0  0  0
   31.5850   33.3150   15.9790 C   0  0  0  0  0  0  0  0  0  0  0  0
   31.1230   32.0650   15.6360 C   0  0  0  0  0  0  0  0  0  0  0  0
   31.4350   33.7670   17.2640 C   0  0  0  0  0  0  0  0  0  0  0  0
   30.5070   31.2610   16.5930 C   0  0  0  0  0  0  0  0  0  0  0  0
   30.8210   32.9730   18.2310 C   0  0  0  0  0  0  0  0  0  0  0  0
   30.3620   31.7270   17.8900 C   0  0  0  0  0  0  0  0  0  0  0  0
   29.7420   30.9070   18.8340 O   0  0  0  0  0  0  0  0  0  0  0  0
   30.5130   30.3380   19.8790 C   0  0  0  0  0  0  0  0  0  0  0  0
   29.8670   25.5550   16.9770 C   0  0  0  0  0  0  0  0  0  0  0  0
   28.3450   25.7220   17.0260 C   0  0  0  0  0  0  0  0  0  0  0  0
   27.6010   24.4020   16.8890 C   0  0  0  0  0  0  0  0  0  0  0  0
   26.7140   24.1260   18.0710 C   0  0  0  0  0  0  0  0  0  0  0  0
   26.0430   25.4210   18.5170 C   0  0  0  0  0  0  0  0  0  0  0  0
   24.8140   25.6680   17.7270 N   0  0  0  0  0  0  0  0  0  0  0  0
  1  5  1  0  0  0  0
  1  2  1  0  0  0  0
  2  3  2  0  0  0  0
  4  1  1  0  0  0  0
  6 29  1  0  0  0  0
  6  5  1  1  0  0  0
  7  6  1  0  0  0  0
  7 27  1  1  0  0  0
  8  7  1  1  0  0  0
  9 14  1  6  0  0  0
  9 16  1  0  0  0  0
  9 11  1  0  0  0  0
 10 12  1  0  0  0  0
 10  9  1  0  0  0  0
 11  8  1  0  0  0  0
 12 20  1  6  0  0  0
 12 13  1  0  0  0  0
 13 22  1  1  0  0  0
 13  8  1  0  0  0  0
 14 15  1  0  0  0  0
 16 18  1  0  0  0  0
 17 16  2  0  0  0  0
 18 19  1  0  0  0  0
 20 21  1  0  0  0  0
 22 24  1  0  0  0  0
 23 25  1  0  0  0  0
 23 22  1  0  0  0  0
 26 23  2  0  0  0  0
 28 27  1  0  0  0  0
 29 30  1  0  0  0  0
 31  2  1  0  0  0  0
 32 31  1  0  0  0  0
 32 33  1  0  0  0  0
 33 34  2  0  0  0  0
 33 35  1  0  0  0  0
 34 36  1  0  0  0  0
 35 37  2  0  0  0  0
 36 37  1  0  0  0  0
 36 38  1  0  0  0  0
 38 39  1  0  0  0  0
 39 41  1  0  0  0  0
 40 39  2  0  0  0  0
 40 42  1  0  0  0  0
 41 43  2  0  0  0  0
 42 44  2  0  0  0  0
 44 43  1  0  0  0  0
 44 45  1  0  0  0  0
 45 46  1  0  0  0  0
 47 48  1  0  0  0  0
 49 48  1  0  0  0  0
 49 50  1  0  0  0  0
 50 51  1  0  0  0  0
 52 51  1  0  0  0  0
M  END
>  <REMARK>
 VINA RESULT:    -5.382      5.971     11.078
 INTER + INTRA:         -15.220
 INTER:                 -10.088
 INTRA:                  -5.132
 UNBOUND:                -5.276
 SMILES COc1ccc(Cn2cc(COC(=O)NC[C@@H](O)C(O)[C@@H]3O[C@@](O)(C(=O)O)C[C@H](O)[C@H]3NC(C)=O)nn2)cc1
 SMILES IDX 15 1 13 2 14 3 16 5 17 6 19 7 21 8 23 9 28 10 22 11 29 12
 SMILES IDX 31 13 24 14 25 16 26 17 27 18 30 20 32 22 33 23 34 25 35 26
 SMILES IDX 20 27 18 29 12 31 11 32 10 33 9 34 36 35 8 36 37 37 7 38
 SMILES IDX 6 39 5 40 38 41 4 42 39 43 3 44 2 45 1 46
 H PARENT 15 4 24 15 27 19 30 21 32 24 20 28 18 30
 Flexibility Score: inf
  4 active torsions:
  status: ('A' for Active; 'I' for Inactive)
    1  A    between atoms: CA   and  CB  
    2  A    between atoms: CB   and  CG  
    3  A    between atoms: CG   and  CD  
    4  A    between atoms: CD   and  CE  

>  <TORSDO>
F 17

>  <BEGIN_>
RES LYS A 131

$$$$
ligand_24_pose_3_2HRL.pdbqt
 OpenBabel07062320523D

  6  5  0  0  0  0  0  0  0  0999 V2000
   33.1930   34.6630    9.2900 C   0  0  0  0  0  0  0  0  0  0  0  0
   32.0600   35.3600   10.0340 C   0  0  0  0  0  0  0  0  0  0  0  0
   30.7120   34.7260    9.8090 C   0  0  0  0  0  0  0  0  0  0  0  0
   30.4660   34.4990    8.3250 C   0  0  0  0  0  0  0  0  0  0  0  0
   29.0940   35.0110    7.9290 C   0  0  0  0  0  0  0  0  0  0  0  0
   28.0250   34.3570    8.7320 N   0  0  0  0  0  0  0  0  0  0  0  0
  1  2  1  0  0  0  0
  3  2  1  0  0  0  0
  4  3  1  0  0  0  0
  5  4  1  0  0  0  0
  5  6  1  0  0  0  0
M  END
>  <EGIN_R>
ES LYS A 135

>  <REMARK>
  4 active torsions:
  status: ('A' for Active; 'I' for Inactive)
    5  A    between atoms: CA   and  CB  
    6  A    between atoms: CB   and  CG  
    7  A    between atoms: CG   and  CD  
    8  A    between atoms: CD   and  CE  

$$$$
