ligand_0_pose_5_2HRL.pdbqt
 OpenBabel07062320523D

 54 55  0  0  1  0  0  0  0  0999 V2000
   21.5560   37.1620   11.2980 N   0  0  0  0  0  0  0  0  0  0  0  0
   22.6190   38.1020   11.3020 C   0  0  0  0  0  0  0  0  0  0  0  0
   23.3880   38.1410   12.2790 O   0  0  0  0  0  0  0  0  0  0  0  0
   20.9380   37.1820   10.4360 H   0  0  0  0  0  0  0  0  0  0  0  0
   21.2840   36.2210   12.3560 C   0  0  0  0  0  0  0  0  0  0  0  0
   21.6420   34.7950   11.9720 C   0  0  2  0  0  0  0  0  0  0  0  0
   23.0260   34.4260   12.4170 C   0  0  1  0  0  0  0  0  0  0  0  0
   23.2560   32.9740   12.5910 C   0  0  2  0  0  0  0  0  0  0  0  0
   22.0230   31.0720   13.1710 C   0  0  2  0  0  0  0  0  0  0  0  0
   23.2940   30.3910   12.7580 C   0  0  0  0  0  0  0  0  0  0  0  0
   22.0030   32.4130   12.9550 O   0  0  0  0  0  0  0  0  0  0  0  0
   24.5330   31.0430   13.2670 C   0  0  1  0  0  0  0  0  0  0  0  0
   24.2290   32.5010   13.5940 C   0  0  1  0  0  0  0  0  0  0  0  0
   21.7350   30.7340   14.5150 O   0  0  0  0  0  0  0  0  0  0  0  0
   21.4030   31.5640   14.9670 H   0  0  0  0  0  0  0  0  0  0  0  0
   20.9260   30.4610   12.3650 C   0  0  0  0  0  0  0  0  0  0  0  0
   21.0670   29.2590   11.9810 O   0  0  0  0  0  0  0  0  0  0  0  0
   19.7720   31.1250   12.0130 O   0  0  0  0  0  0  0  0  0  0  0  0
   19.5560   31.3220   11.0480 H   0  0  0  0  0  0  0  0  0  0  0  0
   24.9790   30.3570   14.3850 O   0  0  0  0  0  0  0  0  0  0  0  0
   25.8350   30.6980   14.7450 H   0  0  0  0  0  0  0  0  0  0  0  0
   25.3900   33.2640   13.8450 N   0  0  0  0  0  0  0  0  0  0  0  0
   25.8920   33.4620   15.1490 C   0  0  0  0  0  0  0  0  0  0  0  0
   25.9290   33.6900   13.0660 H   0  0  0  0  0  0  0  0  0  0  0  0
   27.1020   34.2490   15.4690 C   0  0  0  0  0  0  0  0  0  0  0  0
   25.2730   32.9360   16.0990 O   0  0  0  0  0  0  0  0  0  0  0  0
   24.0430   35.1660   11.8610 O   0  0  0  0  0  0  0  0  0  0  0  0
   24.7860   34.5560   11.5650 H   0  0  0  0  0  0  0  0  0  0  0  0
   21.3330   34.5070   10.6730 O   0  0  0  0  0  0  0  0  0  0  0  0
   22.1520   34.3070   10.1420 H   0  0  0  0  0  0  0  0  0  0  0  0
   22.8350   38.9850   10.2510 O   0  0  0  0  0  0  0  0  0  0  0  0
   22.9900   38.5430    8.9130 C   0  0  0  0  0  0  0  0  0  0  0  0
   23.8470   37.3190    8.8690 C   0  0  0  0  0  0  0  0  0  0  0  0
   25.2150   37.3050    8.6730 C   0  0  0  0  0  0  0  0  0  0  0  0
   23.4710   36.0390    9.0070 N   0  0  0  0  0  0  0  0  0  0  0  0
   25.6170   35.9980    8.7000 N   0  0  0  0  0  0  0  0  0  0  0  0
   24.5560   35.2720    8.9000 N   0  0  0  0  0  0  0  0  0  0  0  0
   26.9670   35.5540    8.5250 C   0  0  0  0  0  0  0  0  0  0  0  0
   27.7020   35.0260    9.5600 C   0  0  0  0  0  0  0  0  0  0  0  0
   27.5320   35.6690    7.2590 C   0  0  0  0  0  0  0  0  0  0  0  0
   29.0140   34.6140    9.3090 C   0  0  0  0  0  0  0  0  0  0  0  0
   28.8240   35.2600    7.0330 C   0  0  0  0  0  0  0  0  0  0  0  0
   29.5550   34.7350    8.0650 C   0  0  0  0  0  0  0  0  0  0  0  0
   27.1710   34.8760   10.9060 C   0  0  0  0  0  0  0  0  0  0  0  0
   26.6310   33.7610   11.2010 O   0  0  0  0  0  0  0  0  0  0  0  0
   27.2340   35.9080   11.8810 N   0  0  0  0  0  0  0  0  0  0  0  0
   28.1160   36.1870   12.3390 H   0  0  0  0  0  0  0  0  0  0  0  0
   26.3120   36.3810   12.1250 H   0  0  0  0  0  0  0  0  0  0  0  0
   29.8670   25.5550   16.9770 C   0  0  0  0  0  0  0  0  0  0  0  0
   28.3450   25.7220   17.0260 C   0  0  0  0  0  0  0  0  0  0  0  0
   27.6030   24.3950   16.9740 C   0  0  0  0  0  0  0  0  0  0  0  0
   26.6000   24.2630   18.0860 C   0  0  0  0  0  0  0  0  0  0  0  0
   25.2460   23.8670   17.5060 C   0  0  0  0  0  0  0  0  0  0  0  0
   25.0920   22.3930   17.5090 N   0  0  0  0  0  0  0  0  0  0  0  0
  1  2  1  0  0  0  0
  1  5  1  0  0  0  0
  2  3  2  0  0  0  0
  4  1  1  0  0  0  0
  6  5  1  6  0  0  0
  6  7  1  0  0  0  0
  7 27  1  6  0  0  0
  8  7  1  1  0  0  0
  8 11  1  0  0  0  0
  8 13  1  0  0  0  0
  9 16  1  6  0  0  0
  9 14  1  0  0  0  0
 10  9  1  0  0  0  0
 10 12  1  0  0  0  0
 11  9  1  0  0  0  0
 12 13  1  0  0  0  0
 12 20  1  1  0  0  0
 13 22  1  6  0  0  0
 14 15  1  0  0  0  0
 17 16  2  0  0  0  0
 18 16  1  0  0  0  0
 19 18  1  0  0  0  0
 20 21  1  0  0  0  0
 22 23  1  0  0  0  0
 23 25  1  0  0  0  0
 23 26  2  0  0  0  0
 24 22  1  0  0  0  0
 28 27  1  0  0  0  0
 29  6  1  0  0  0  0
 30 29  1  0  0  0  0
 31  2  1  0  0  0  0
 32 31  1  0  0  0  0
 33 32  1  0  0  0  0
 33 35  1  0  0  0  0
 34 36  1  0  0  0  0
 34 33  2  0  0  0  0
 36 37  1  0  0  0  0
 37 35  2  0  0  0  0
 38 36  1  0  0  0  0
 38 39  2  0  0  0  0
 39 44  1  0  0  0  0
 40 38  1  0  0  0  0
 41 39  1  0  0  0  0
 42 40  2  0  0  0  0
 42 43  1  0  0  0  0
 43 41  2  0  0  0  0
 44 45  2  0  0  0  0
 44 46  1  0  0  0  0
 46 48  1  0  0  0  0
 46 47  1  0  0  0  0
 49 50  1  0  0  0  0
 51 50  1  0  0  0  0
 51 52  1  0  0  0  0
 53 54  1  0  0  0  0
 53 52  1  0  0  0  0
M  END
>  <REMARK>
 VINA RESULT:    -5.340      5.455      9.883
 INTER + INTRA:         -14.969
 INTER:                  -8.548
 INTRA:                  -6.421
 UNBOUND:                -5.414
 SMILES CC(=O)N[C@@H]1[C@@H](O)C[C@](O)(C(=O)O)O[C@H]1C(O)[C@H](O)CNC(=O)OCc1cn(-c2ccccc2C(N)=O)nn1
 SMILES IDX 21 1 22 2 23 3 20 5 18 6 16 7 15 8 9 9 8 10 14 11 6 12 5 13
 SMILES IDX 10 14 11 16 12 17 13 18 7 20 4 22 2 23 1 25 3 26 17 27 19 29
 SMILES IDX 24 31 25 32 26 33 27 34 39 35 28 36 38 37 29 38 34 39 30 40
 SMILES IDX 33 41 31 42 32 43 35 44 37 45 36 46
 H PARENT 21 4 10 15 13 19 7 21 4 24 17 28 19 30 36 47 36 48
 Flexibility Score: inf
  4 active torsions:
  status: ('A' for Active; 'I' for Inactive)
    1  A    between atoms: CA   and  CB  
    2  A    between atoms: CB   and  CG  
    3  A    between atoms: CG   and  CD  
    4  A    between atoms: CD   and  CE  

>  <TORSDO>
F 16

>  <BEGIN_>
RES LYS A 131

$$$$
ligand_0_pose_5_2HRL.pdbqt
 OpenBabel07062320523D

  6  5  0  0  0  0  0  0  0  0999 V2000
   33.1930   34.6630    9.2900 C   0  0  0  0  0  0  0  0  0  0  0  0
   32.0600   35.3600   10.0340 C   0  0  0  0  0  0  0  0  0  0  0  0
   32.5310   36.2250   11.1750 C   0  0  0  0  0  0  0  0  0  0  0  0
   32.1090   35.6300   12.5090 C   0  0  0  0  0  0  0  0  0  0  0  0
   30.7360   34.9940   12.3980 C   0  0  0  0  0  0  0  0  0  0  0  0
   30.4320   34.1640   13.5970 N   0  0  0  0  0  0  0  0  0  0  0  0
  1  2  1  0  0  0  0
  2  3  1  0  0  0  0
  3  4  1  0  0  0  0
  5  4  1  0  0  0  0
  5  6  1  0  0  0  0
M  END
>  <EGIN_R>
ES LYS A 135

>  <REMARK>
  4 active torsions:
  status: ('A' for Active; 'I' for Inactive)
    5  A    between atoms: CA   and  CB  
    6  A    between atoms: CB   and  CG  
    7  A    between atoms: CG   and  CD  
    8  A    between atoms: CD   and  CE  

$$$$
