ligand_11_pose_11_2HRL.pdbqt
 OpenBabel07062320523D

 54 54  0  0  1  0  0  0  0  0999 V2000
   27.8650   26.4990   24.2080 O   0  0  0  0  0  0  0  0  0  0  0  0
   29.1130   26.1370   23.6850 C   0  0  0  0  0  0  0  0  0  0  0  0
   29.7990   26.9280   22.7530 N   0  0  0  0  0  0  0  0  0  0  0  0
   29.2970   27.8290   22.4550 H   0  0  0  0  0  0  0  0  0  0  0  0
   29.5960   25.0680   24.0900 O   0  0  0  0  0  0  0  0  0  0  0  0
   31.0810   26.6600   22.1650 C   0  0  0  0  0  0  0  0  0  0  0  0
   31.4010   27.6160   21.0850 C   0  0  2  0  0  0  0  0  0  0  0  0
   30.2490   28.5420   20.7410 C   0  0  1  0  0  0  0  0  0  0  0  0
   30.7740   29.8170   20.0740 C   0  0  2  0  0  0  0  0  0  0  0  0
   30.6890   31.5290   21.6670 C   0  0  2  0  0  0  0  0  0  0  0  0
   29.2230   31.5730   21.3450 C   0  0  0  0  0  0  0  0  0  0  0  0
   31.4180   30.6500   20.9280 O   0  0  0  0  0  0  0  0  0  0  0  0
   28.8770   31.4370   19.9060 C   0  0  1  0  0  0  0  0  0  0  0  0
   29.7350   30.4360   19.1870 C   0  0  1  0  0  0  0  0  0  0  0  0
   30.7780   31.1400   23.0040 O   0  0  0  0  0  0  0  0  0  0  0  0
   29.8970   31.0770   23.4280 H   0  0  0  0  0  0  0  0  0  0  0  0
   31.2670   32.8920   21.5610 C   0  0  0  0  0  0  0  0  0  0  0  0
   31.9900   33.1940   20.5820 O   0  0  0  0  0  0  0  0  0  0  0  0
   31.0360   33.8700   22.5250 O   0  0  0  0  0  0  0  0  0  0  0  0
   31.1520   34.8360   22.2190 H   0  0  0  0  0  0  0  0  0  0  0  0
   27.5460   31.0330   19.8210 O   0  0  0  0  0  0  0  0  0  0  0  0
   26.9790   31.5210   20.4760 H   0  0  0  0  0  0  0  0  0  0  0  0
   30.3960   30.9900   18.0410 N   0  0  0  0  0  0  0  0  0  0  0  0
   29.6570   31.2360   16.8570 C   0  0  0  0  0  0  0  0  0  0  0  0
   31.4330   31.2130   18.0780 H   0  0  0  0  0  0  0  0  0  0  0  0
   30.3350   31.8060   15.6740 C   0  0  0  0  0  0  0  0  0  0  0  0
   28.4250   30.9860   16.7650 O   0  0  0  0  0  0  0  0  0  0  0  0
   29.3890   27.8950   19.8750 O   0  0  0  0  0  0  0  0  0  0  0  0
   29.8570   27.1080   19.4960 H   0  0  0  0  0  0  0  0  0  0  0  0
   31.9640   27.0310   19.9990 O   0  0  0  0  0  0  0  0  0  0  0  0
   32.6910   27.5370   19.5700 H   0  0  0  0  0  0  0  0  0  0  0  0
   26.6770   26.1280   23.5140 C   0  0  0  0  0  0  0  0  0  0  0  0
   26.5240   26.8540   22.2600 C   0  0  0  0  0  0  0  0  0  0  0  0
   26.0110   26.4070   21.0720 C   0  0  0  0  0  0  0  0  0  0  0  0
   26.8670   28.1320   22.0360 N   0  0  0  0  0  0  0  0  0  0  0  0
   26.0450   27.3910   20.1620 N   0  0  0  0  0  0  0  0  0  0  0  0
   26.5720   28.4290   20.7830 N   0  0  0  0  0  0  0  0  0  0  0  0
   25.6260   27.4240   18.7720 C   0  0  1  0  0  0  0  0  0  0  0  0
   24.1550   27.6000   18.6780 C   0  0  0  0  0  0  0  0  0  0  0  0
   23.4740   26.8670   17.5840 C   0  0  0  0  0  0  0  0  0  0  0  0
   23.0950   27.7100   16.4520 C   0  0  0  0  0  0  0  0  0  0  0  0
   23.4550   28.9370   16.3840 O   0  0  0  0  0  0  0  0  0  0  0  0
   22.3210   27.1810   15.4170 O   0  0  0  0  0  0  0  0  0  0  0  0
   21.3210   27.3070   15.4750 H   0  0  0  0  0  0  0  0  0  0  0  0
   26.4590   28.2650   17.9300 C   0  0  0  0  0  0  0  0  0  0  0  0
   27.4700   27.9120   17.3260 O   0  0  0  0  0  0  0  0  0  0  0  0
   26.0730   29.6130   17.8000 O   0  0  0  0  0  0  0  0  0  0  0  0
   25.9060   30.1480   18.6340 H   0  0  0  0  0  0  0  0  0  0  0  0
   29.8670   25.5550   16.9770 C   0  0  0  0  0  0  0  0  0  0  0  0
   28.3450   25.7220   17.0260 C   0  0  0  0  0  0  0  0  0  0  0  0
   27.6000   24.4090   16.8370 C   0  0  0  0  0  0  0  0  0  0  0  0
   26.6120   24.1550   17.9400 C   0  0  0  0  0  0  0  0  0  0  0  0
   25.7430   22.9540   17.5790 C   0  0  0  0  0  0  0  0  0  0  0  0
   24.3920   23.3970   17.1630 N   0  0  0  0  0  0  0  0  0  0  0  0
  2  5  2  0  0  0  0
  2  1  1  0  0  0  0
  3  2  1  0  0  0  0
  4  3  1  0  0  0  0
  6  3  1  0  0  0  0
  7  6  1  1  0  0  0
  8 28  1  6  0  0  0
  8  7  1  0  0  0  0
  9  8  1  1  0  0  0
  9 12  1  0  0  0  0
 10 17  1  6  0  0  0
 10 15  1  0  0  0  0
 11 10  1  0  0  0  0
 12 10  1  0  0  0  0
 13 21  1  1  0  0  0
 13 11  1  0  0  0  0
 14 23  1  6  0  0  0
 14 13  1  0  0  0  0
 14  9  1  0  0  0  0
 15 16  1  0  0  0  0
 17 19  1  0  0  0  0
 18 17  2  0  0  0  0
 20 19  1  0  0  0  0
 21 22  1  0  0  0  0
 23 25  1  0  0  0  0
 24 23  1  0  0  0  0
 26 24  1  0  0  0  0
 27 24  2  0  0  0  0
 29 28  1  0  0  0  0
 30  7  1  0  0  0  0
 31 30  1  0  0  0  0
 32  1  1  0  0  0  0
 33 32  1  0  0  0  0
 34 33  2  0  0  0  0
 35 33  1  0  0  0  0
 36 37  1  0  0  0  0
 36 34  1  0  0  0  0
 37 35  2  0  0  0  0
 38 39  1  1  0  0  0
 38 36  1  0  0  0  0
 40 39  1  0  0  0  0
 41 40  1  0  0  0  0
 42 41  2  0  0  0  0
 43 44  1  0  0  0  0
 43 41  1  0  0  0  0
 45 38  1  0  0  0  0
 46 45  2  0  0  0  0
 47 45  1  0  0  0  0
 47 48  1  0  0  0  0
 49 50  1  0  0  0  0
 51 50  1  0  0  0  0
 51 52  1  0  0  0  0
 53 52  1  0  0  0  0
 54 53  1  0  0  0  0
M  END
>  <REMARK>
 VINA RESULT:    -3.898      7.090     13.295
 INTER + INTRA:         -15.323
 INTER:                  -7.445
 INTRA:                  -7.878
 UNBOUND:                -7.438
 SMILES CC(=O)N[C@@H]1[C@@H](O)C[C@](O)(C(=O)O)O[C@H]1C(O)[C@H](O)CNC(=O)OCc1cn([C@@H](CCC(=O)O)C(=O)O)nn1
 SMILES IDX 24 1 22 2 21 3 23 5 20 6 18 7 16 8 15 9 9 10 8 11 14 12 6 13
 SMILES IDX 5 14 10 15 11 17 12 18 13 19 7 21 4 23 2 24 1 26 3 27 17 28
 SMILES IDX 19 30 25 32 26 33 27 34 39 35 28 36 38 37 29 38 30 39 31 40
 SMILES IDX 32 41 33 42 34 43 35 45 36 46 37 47
 H PARENT 21 4 10 16 13 20 7 22 4 25 17 29 19 31 34 44 37 48
 Flexibility Score: inf
  4 active torsions:
  status: ('A' for Active; 'I' for Inactive)
    1  A    between atoms: CA   and  CB  
    2  A    between atoms: CB   and  CG  
    3  A    between atoms: CG   and  CD  
    4  A    between atoms: CD   and  CE  

>  <TORSDO>
F 21

>  <BEGIN_>
RES LYS A 131

$$$$
ligand_11_pose_11_2HRL.pdbqt
 OpenBabel07062320523D

  6  5  0  0  0  0  0  0  0  0999 V2000
   33.1930   34.6630    9.2900 C   0  0  0  0  0  0  0  0  0  0  0  0
   32.0600   35.3600   10.0340 C   0  0  0  0  0  0  0  0  0  0  0  0
   30.7360   34.6510    9.9160 C   0  0  0  0  0  0  0  0  0  0  0  0
   30.3270   34.5150    8.4580 C   0  0  0  0  0  0  0  0  0  0  0  0
   28.8170   34.5500    8.3220 C   0  0  0  0  0  0  0  0  0  0  0  0
   28.1600   33.8430    9.4570 N   0  0  0  0  0  0  0  0  0  0  0  0
  1  2  1  0  0  0  0
  3  2  1  0  0  0  0
  4  3  1  0  0  0  0
  5  4  1  0  0  0  0
  5  6  1  0  0  0  0
M  END
>  <EGIN_R>
ES LYS A 135

>  <REMARK>
  4 active torsions:
  status: ('A' for Active; 'I' for Inactive)
    5  A    between atoms: CA   and  CB  
    6  A    between atoms: CB   and  CG  
    7  A    between atoms: CG   and  CD  
    8  A    between atoms: CD   and  CE  

$$$$
