ligand_11_pose_9_2HRL.pdbqt
 OpenBabel07062320523D

 54 54  0  0  1  0  0  0  0  0999 V2000
   28.5050   30.2280   16.1400 O   0  0  0  0  0  0  0  0  0  0  0  0
   27.5060   29.5000   16.7990 C   0  0  0  0  0  0  0  0  0  0  0  0
   27.7870   28.5950   17.8330 N   0  0  0  0  0  0  0  0  0  0  0  0
   28.8260   28.4890   18.0810 H   0  0  0  0  0  0  0  0  0  0  0  0
   26.3390   29.6920   16.4220 O   0  0  0  0  0  0  0  0  0  0  0  0
   26.8440   27.8110   18.5790 C   0  0  0  0  0  0  0  0  0  0  0  0
   27.3230   27.5350   19.9490 C   0  0  2  0  0  0  0  0  0  0  0  0
   28.8160   27.7500   20.1200 C   0  0  1  0  0  0  0  0  0  0  0  0
   29.0780   28.9510   21.0330 C   0  0  2  0  0  0  0  0  0  0  0  0
   30.4570   30.4360   19.8610 C   0  0  2  0  0  0  0  0  0  0  0  0
   31.5640   29.4930   20.2380 C   0  0  0  0  0  0  0  0  0  0  0  0
   29.2310   30.1190   20.3610 O   0  0  0  0  0  0  0  0  0  0  0  0
   31.5070   28.9560   21.6230 C   0  0  1  0  0  0  0  0  0  0  0  0
   30.1110   28.6320   22.0710 C   0  0  1  0  0  0  0  0  0  0  0  0
   30.3730   30.3950   18.4690 O   0  0  0  0  0  0  0  0  0  0  0  0
   29.5070   30.7150   18.1430 H   0  0  0  0  0  0  0  0  0  0  0  0
   30.8260   31.8220   20.2440 C   0  0  0  0  0  0  0  0  0  0  0  0
   31.8600   32.0310   20.9210 O   0  0  0  0  0  0  0  0  0  0  0  0
   30.0540   32.9200   19.8760 O   0  0  0  0  0  0  0  0  0  0  0  0
   29.1600   33.0210   20.3570 H   0  0  0  0  0  0  0  0  0  0  0  0
   32.2750   27.7940   21.6650 O   0  0  0  0  0  0  0  0  0  0  0  0
   31.9460   27.1220   21.0120 H   0  0  0  0  0  0  0  0  0  0  0  0
   29.7470   29.3010   23.2860 N   0  0  0  0  0  0  0  0  0  0  0  0
   28.9610   28.6230   24.2510 C   0  0  0  0  0  0  0  0  0  0  0  0
   30.0630   30.2990   23.4630 H   0  0  0  0  0  0  0  0  0  0  0  0
   28.5830   29.3090   25.5040 C   0  0  0  0  0  0  0  0  0  0  0  0
   28.5610   27.4380   24.0850 O   0  0  0  0  0  0  0  0  0  0  0  0
   29.3760   26.6190   20.6820 O   0  0  0  0  0  0  0  0  0  0  0  0
   30.2480   26.4480   20.2450 H   0  0  0  0  0  0  0  0  0  0  0  0
   26.8910   26.3450   20.4390 O   0  0  0  0  0  0  0  0  0  0  0  0
   27.1690   25.5490   19.9340 H   0  0  0  0  0  0  0  0  0  0  0  0
   28.2620   31.5840   15.7760 C   0  0  0  0  0  0  0  0  0  0  0  0
   29.4970   32.3230   15.5510 C   0  0  0  0  0  0  0  0  0  0  0  0
   29.6570   33.6550   15.2790 C   0  0  0  0  0  0  0  0  0  0  0  0
   30.7390   31.8170   15.5730 N   0  0  0  0  0  0  0  0  0  0  0  0
   30.9600   33.9380   15.1420 N   0  0  0  0  0  0  0  0  0  0  0  0
   31.5920   32.7950   15.3270 N   0  0  0  0  0  0  0  0  0  0  0  0
   31.6430   35.1870   14.8510 C   0  0  1  0  0  0  0  0  0  0  0  0
   32.7870   35.3800   15.7770 C   0  0  0  0  0  0  0  0  0  0  0  0
   32.5790   36.3380   16.8890 C   0  0  0  0  0  0  0  0  0  0  0  0
   32.0310   35.7280   18.0990 C   0  0  0  0  0  0  0  0  0  0  0  0
   32.0850   34.4640   18.2940 O   0  0  0  0  0  0  0  0  0  0  0  0
   31.4300   36.5300   19.0730 O   0  0  0  0  0  0  0  0  0  0  0  0
   31.5200   37.5310   18.9680 H   0  0  0  0  0  0  0  0  0  0  0  0
   31.8780   35.4090   13.4350 C   0  0  0  0  0  0  0  0  0  0  0  0
   32.3410   36.4290   12.9280 O   0  0  0  0  0  0  0  0  0  0  0  0
   31.5380   34.3570   12.5630 O   0  0  0  0  0  0  0  0  0  0  0  0
   30.5650   34.1460   12.4210 H   0  0  0  0  0  0  0  0  0  0  0  0
   29.8670   25.5550   16.9770 C   0  0  0  0  0  0  0  0  0  0  0  0
   28.3450   25.7220   17.0260 C   0  0  0  0  0  0  0  0  0  0  0  0
   27.5990   24.4310   16.7270 C   0  0  0  0  0  0  0  0  0  0  0  0
   26.7250   24.0030   17.8730 C   0  0  0  0  0  0  0  0  0  0  0  0
   25.2650   24.0210   17.4340 C   0  0  0  0  0  0  0  0  0  0  0  0
   24.5020   25.0260   18.2110 N   0  0  0  0  0  0  0  0  0  0  0  0
  1  2  1  0  0  0  0
  2  3  1  0  0  0  0
  3  4  1  0  0  0  0
  3  6  1  0  0  0  0
  5  2  2  0  0  0  0
  7  6  1  6  0  0  0
  7  8  1  0  0  0  0
  7 30  1  0  0  0  0
  8 28  1  1  0  0  0
  9  8  1  6  0  0  0
  9 14  1  0  0  0  0
 10 15  1  6  0  0  0
 10 11  1  0  0  0  0
 10 17  1  0  0  0  0
 10 12  1  0  0  0  0
 11 13  1  0  0  0  0
 12  9  1  0  0  0  0
 13 21  1  6  0  0  0
 13 14  1  0  0  0  0
 14 23  1  1  0  0  0
 16 15  1  0  0  0  0
 17 18  2  0  0  0  0
 19 17  1  0  0  0  0
 19 20  1  0  0  0  0
 22 21  1  0  0  0  0
 23 25  1  0  0  0  0
 23 24  1  0  0  0  0
 24 26  1  0  0  0  0
 27 24  2  0  0  0  0
 29 28  1  0  0  0  0
 31 30  1  0  0  0  0
 32  1  1  0  0  0  0
 33 35  1  0  0  0  0
 33 32  1  0  0  0  0
 34 33  2  0  0  0  0
 36 34  1  0  0  0  0
 36 37  1  0  0  0  0
 37 35  2  0  0  0  0
 38 36  1  0  0  0  0
 38 39  1  1  0  0  0
 39 40  1  0  0  0  0
 40 41  1  0  0  0  0
 41 42  2  0  0  0  0
 41 43  1  0  0  0  0
 44 43  1  0  0  0  0
 45 38  1  0  0  0  0
 46 45  2  0  0  0  0
 47 45  1  0  0  0  0
 48 47  1  0  0  0  0
 49 50  1  0  0  0  0
 51 50  1  0  0  0  0
 51 52  1  0  0  0  0
 53 52  1  0  0  0  0
 53 54  1  0  0  0  0
M  END
>  <REMARK>
 VINA RESULT:    -3.962      6.358     11.913
 INTER + INTRA:         -15.453
 INTER:                  -9.241
 INTRA:                  -6.212
 UNBOUND:                -7.438
 SMILES CC(=O)N[C@@H]1[C@@H](O)C[C@](O)(C(=O)O)O[C@H]1C(O)[C@H](O)CNC(=O)OCc1cn([C@@H](CCC(=O)O)C(=O)O)nn1
 SMILES IDX 24 1 22 2 21 3 23 5 20 6 18 7 16 8 15 9 9 10 8 11 14 12 6 13
 SMILES IDX 5 14 10 15 11 17 12 18 13 19 7 21 4 23 2 24 1 26 3 27 17 28
 SMILES IDX 19 30 25 32 26 33 27 34 39 35 28 36 38 37 29 38 30 39 31 40
 SMILES IDX 32 41 33 42 34 43 35 45 36 46 37 47
 H PARENT 21 4 10 16 13 20 7 22 4 25 17 29 19 31 34 44 37 48
 Flexibility Score: inf
  4 active torsions:
  status: ('A' for Active; 'I' for Inactive)
    1  A    between atoms: CA   and  CB  
    2  A    between atoms: CB   and  CG  
    3  A    between atoms: CG   and  CD  
    4  A    between atoms: CD   and  CE  

>  <TORSDO>
F 21

>  <BEGIN_>
RES LYS A 131

$$$$
ligand_11_pose_9_2HRL.pdbqt
 OpenBabel07062320523D

  6  5  0  0  0  0  0  0  0  0999 V2000
   33.1930   34.6630    9.2900 C   0  0  0  0  0  0  0  0  0  0  0  0
   32.0600   35.3600   10.0340 C   0  0  0  0  0  0  0  0  0  0  0  0
   30.8190   35.5490    9.2010 C   0  0  0  0  0  0  0  0  0  0  0  0
   30.1490   34.2120    8.9250 C   0  0  0  0  0  0  0  0  0  0  0  0
   28.7340   34.4200    8.4180 C   0  0  0  0  0  0  0  0  0  0  0  0
   28.7160   35.3220    7.2340 N   0  0  0  0  0  0  0  0  0  0  0  0
  1  2  1  0  0  0  0
  3  2  1  0  0  0  0
  4  3  1  0  0  0  0
  5  4  1  0  0  0  0
  6  5  1  0  0  0  0
M  END
>  <EGIN_R>
ES LYS A 135

>  <REMARK>
  4 active torsions:
  status: ('A' for Active; 'I' for Inactive)
    5  A    between atoms: CA   and  CB  
    6  A    between atoms: CB   and  CG  
    7  A    between atoms: CG   and  CD  
    8  A    between atoms: CD   and  CE  

$$$$
