ligand_27_pose_9_2HRL.pdbqt
 OpenBabel07062320523D

 50 51  0  0  1  0  0  0  0  0999 V2000
   26.3750   29.4450   19.6750 C   0  0  0  0  0  0  0  0  0  0  0  0
   27.6910   28.7530   19.4670 C   0  0  2  0  0  0  0  0  0  0  0  0
   28.8720   29.6530   19.6910 C   0  0  2  0  0  0  0  0  0  0  0  0
   29.3640   29.5560   21.1370 C   0  0  2  0  0  0  0  0  0  0  0  0
   31.6960   29.2890   21.2760 C   0  0  2  0  0  0  0  0  0  0  0  0
   31.4800   28.1650   22.2800 C   0  0  0  0  0  0  0  0  0  0  0  0
   30.5970   30.0720   21.2000 O   0  0  0  0  0  0  0  0  0  0  0  0
   30.3890   27.3090   21.6390 C   0  0  1  0  0  0  0  0  0  0  0  0
   29.1490   28.1590   21.6020 C   0  0  1  0  0  0  0  0  0  0  0  0
   32.0490   28.6720   20.0830 O   0  0  0  0  0  0  0  0  0  0  0  0
   31.3450   28.0170   19.8490 H   0  0  0  0  0  0  0  0  0  0  0  0
   32.8340   30.1280   21.7200 C   0  0  0  0  0  0  0  0  0  0  0  0
   32.6100   31.2900   22.1310 O   0  0  0  0  0  0  0  0  0  0  0  0
   34.1470   29.6820   21.7040 O   0  0  0  0  0  0  0  0  0  0  0  0
   34.3240   28.6890   21.8920 H   0  0  0  0  0  0  0  0  0  0  0  0
   30.7130   26.9640   20.3310 O   0  0  0  0  0  0  0  0  0  0  0  0
   29.9490   27.1050   19.7030 H   0  0  0  0  0  0  0  0  0  0  0  0
   28.5850   28.1380   22.9350 N   0  0  0  0  0  0  0  0  0  0  0  0
   27.3850   27.4220   23.1780 C   0  0  0  0  0  0  0  0  0  0  0  0
   29.0500   28.6500   23.7400 H   0  0  0  0  0  0  0  0  0  0  0  0
   26.8110   27.4050   24.5490 C   0  0  0  0  0  0  0  0  0  0  0  0
   26.8180   26.8100   22.2360 O   0  0  0  0  0  0  0  0  0  0  0  0
   28.4220   30.9660   19.4360 O   0  0  0  0  0  0  0  0  0  0  0  0
   28.4570   31.1710   18.4910 H   0  0  0  0  0  0  0  0  0  0  0  0
   27.7400   28.2630   18.1500 O   0  0  0  0  0  0  0  0  0  0  0  0
   27.8200   29.0170   17.5390 H   0  0  0  0  0  0  0  0  0  0  0  0
   25.7530   29.7250   18.3860 N   0  0  0  0  0  0  0  0  0  0  0  0
   25.3840   31.0460   18.0310 C   0  0  0  0  0  0  0  0  0  0  0  0
   25.5910   28.9260   17.7400 H   0  0  0  0  0  0  0  0  0  0  0  0
   25.5990   31.9800   18.8440 O   0  0  0  0  0  0  0  0  0  0  0  0
   24.7910   31.3550   16.8180 O   0  0  0  0  0  0  0  0  0  0  0  0
   25.3830   30.8570   15.6380 C   0  0  0  0  0  0  0  0  0  0  0  0
   26.8620   30.9020   15.7750 C   0  0  0  0  0  0  0  0  0  0  0  0
   27.6480   32.0360   15.8850 C   0  0  0  0  0  0  0  0  0  0  0  0
   27.7300   29.8750   15.8190 N   0  0  0  0  0  0  0  0  0  0  0  0
   28.9480   31.6750   15.9920 N   0  0  0  0  0  0  0  0  0  0  0  0
   28.9590   30.3530   15.9470 N   0  0  0  0  0  0  0  0  0  0  0  0
   30.0670   32.5430   16.1230 C   0  0  0  0  0  0  0  0  0  0  0  0
   30.8120   32.8520   15.0060 C   0  0  0  0  0  0  0  0  0  0  0  0
   30.4550   33.1020   17.3230 C   0  0  0  0  0  0  0  0  0  0  0  0
   31.9110   33.6930   15.0830 C   0  0  0  0  0  0  0  0  0  0  0  0
   31.5420   33.9420   17.4360 C   0  0  0  0  0  0  0  0  0  0  0  0
   32.2680   34.2320   16.2980 C   0  0  0  0  0  0  0  0  0  0  0  0
   32.0060   34.6380   18.9960 Cl  0  0  0  0  0  0  0  0  0  0  0  0
   29.8670   25.5550   16.9770 C   0  0  0  0  0  0  0  0  0  0  0  0
   28.3450   25.7220   17.0260 C   0  0  0  0  0  0  0  0  0  0  0  0
   27.6020   24.4000   16.9130 C   0  0  0  0  0  0  0  0  0  0  0  0
   26.1560   24.5280   17.3050 C   0  0  0  0  0  0  0  0  0  0  0  0
   26.0600   24.9330   18.7730 C   0  0  0  0  0  0  0  0  0  0  0  0
   25.1440   26.0870   18.9340 N   0  0  0  0  0  0  0  0  0  0  0  0
  2  1  1  6  0  0  0
  2  3  1  0  0  0  0
  3 23  1  1  0  0  0
  4  3  1  6  0  0  0
  4  7  1  0  0  0  0
  4  9  1  0  0  0  0
  5 10  1  6  0  0  0
  5 12  1  0  0  0  0
  5  6  1  0  0  0  0
  7  5  1  0  0  0  0
  8 16  1  6  0  0  0
  8  6  1  0  0  0  0
  9  8  1  0  0  0  0
  9 18  1  1  0  0  0
 11 10  1  0  0  0  0
 12 13  2  0  0  0  0
 14 12  1  0  0  0  0
 14 15  1  0  0  0  0
 17 16  1  0  0  0  0
 18 19  1  0  0  0  0
 18 20  1  0  0  0  0
 19 21  1  0  0  0  0
 22 19  2  0  0  0  0
 24 23  1  0  0  0  0
 25  2  1  0  0  0  0
 26 25  1  0  0  0  0
 27  1  1  0  0  0  0
 28 27  1  0  0  0  0
 28 30  2  0  0  0  0
 29 27  1  0  0  0  0
 31 28  1  0  0  0  0
 32 33  1  0  0  0  0
 32 31  1  0  0  0  0
 33 35  1  0  0  0  0
 33 34  2  0  0  0  0
 34 36  1  0  0  0  0
 35 37  2  0  0  0  0
 36 38  1  0  0  0  0
 37 36  1  0  0  0  0
 38 40  2  0  0  0  0
 39 41  2  0  0  0  0
 39 38  1  0  0  0  0
 40 42  1  0  0  0  0
 41 43  1  0  0  0  0
 42 44  1  0  0  0  0
 43 42  2  0  0  0  0
 45 46  1  0  0  0  0
 47 46  1  0  0  0  0
 47 48  1  0  0  0  0
 48 49  1  0  0  0  0
 49 50  1  0  0  0  0
M  END
>  <REMARK>
 VINA RESULT:    -5.555      2.122      2.846
 INTER + INTRA:         -14.110
 INTER:                  -8.433
 INTRA:                  -5.677
 UNBOUND:                -4.497
 SMILES CC(=O)N[C@@H]1[C@@H](O)C[C@](O)(C(=O)O)O[C@H]1C(O)[C@H](O)CNC(=O)OCc1cn(-c2cccc(Cl)c2)nn1
 SMILES IDX 20 1 18 2 16 3 15 4 9 5 8 6 14 7 6 8 5 9 10 10 11 12 12 13
 SMILES IDX 13 14 7 16 4 18 2 19 1 21 3 22 17 23 19 25 21 27 22 28 23 30
 SMILES IDX 24 31 25 32 26 33 27 34 37 35 28 36 36 37 29 38 30 39 35 40
 SMILES IDX 31 41 33 42 32 43 34 44
 H PARENT 10 11 13 15 7 17 4 20 17 24 19 26 21 29
 Flexibility Score: inf
  4 active torsions:
  status: ('A' for Active; 'I' for Inactive)
    1  A    between atoms: CA   and  CB  
    2  A    between atoms: CB   and  CG  
    3  A    between atoms: CG   and  CD  
    4  A    between atoms: CD   and  CE  

>  <TORSDO>
F 15

>  <BEGIN_>
RES LYS A 131

$$$$
ligand_27_pose_9_2HRL.pdbqt
 OpenBabel07062320523D

  6  5  0  0  0  0  0  0  0  0999 V2000
   33.1930   34.6630    9.2900 C   0  0  0  0  0  0  0  0  0  0  0  0
   32.0600   35.3600   10.0340 C   0  0  0  0  0  0  0  0  0  0  0  0
   30.7930   35.4790    9.2270 C   0  0  0  0  0  0  0  0  0  0  0  0
   30.2270   34.1030    8.9100 C   0  0  0  0  0  0  0  0  0  0  0  0
   28.7330   34.0690    9.1710 C   0  0  0  0  0  0  0  0  0  0  0  0
   28.4160   34.5610   10.5400 N   0  0  0  0  0  0  0  0  0  0  0  0
  1  2  1  0  0  0  0
  3  2  1  0  0  0  0
  4  5  1  0  0  0  0
  4  3  1  0  0  0  0
  5  6  1  0  0  0  0
M  END
>  <EGIN_R>
ES LYS A 135

>  <REMARK>
  4 active torsions:
  status: ('A' for Active; 'I' for Inactive)
    5  A    between atoms: CA   and  CB  
    6  A    between atoms: CB   and  CG  
    7  A    between atoms: CG   and  CD  
    8  A    between atoms: CD   and  CE  

$$$$
