ligand_6_pose_12_2HRL.pdbqt
 OpenBabel07062320523D

 52 53  0  0  1  0  0  0  0  0999 V2000
   22.0050   38.7820    7.9100 N   0  0  0  0  0  0  0  0  0  0  0  0
   21.5810   38.3210    9.1710 C   0  0  0  0  0  0  0  0  0  0  0  0
   21.6910   38.9890   10.2140 O   0  0  0  0  0  0  0  0  0  0  0  0
   21.8280   38.1170    7.0800 H   0  0  0  0  0  0  0  0  0  0  0  0
   22.6310   40.0220    7.6700 C   0  0  0  0  0  0  0  0  0  0  0  0
   24.0510   40.0790    7.2690 C   0  0  2  0  0  0  0  0  0  0  0  0
   24.9880   38.9870    7.5090 C   0  0  2  0  0  0  0  0  0  0  0  0
   26.3890   39.2860    6.9650 C   0  0  2  0  0  0  0  0  0  0  0  0
   27.3670   40.0080    4.9820 C   0  0  2  0  0  0  0  0  0  0  0  0
   28.6390   39.8200    5.7770 C   0  0  0  0  0  0  0  0  0  0  0  0
   26.2240   39.9800    5.7480 O   0  0  0  0  0  0  0  0  0  0  0  0
   28.6550   38.5400    6.5520 C   0  0  1  0  0  0  0  0  0  0  0  0
   27.1920   38.0730    6.6690 C   0  0  1  0  0  0  0  0  0  0  0  0
   27.3700   39.0640    3.9700 O   0  0  0  0  0  0  0  0  0  0  0  0
   27.1460   39.5000    3.1230 H   0  0  0  0  0  0  0  0  0  0  0  0
   27.4510   41.3570    4.3630 C   0  0  0  0  0  0  0  0  0  0  0  0
   27.1520   41.5300    3.1540 O   0  0  0  0  0  0  0  0  0  0  0  0
   27.8560   42.4570    5.1000 O   0  0  0  0  0  0  0  0  0  0  0  0
   28.6860   42.4360    5.6980 H   0  0  0  0  0  0  0  0  0  0  0  0
   29.4520   37.5550    6.0130 O   0  0  0  0  0  0  0  0  0  0  0  0
   30.2760   37.9800    5.6660 H   0  0  0  0  0  0  0  0  0  0  0  0
   27.1980   37.0670    7.7100 N   0  0  0  0  0  0  0  0  0  0  0  0
   27.3570   35.6800    7.3830 C   0  0  0  0  0  0  0  0  0  0  0  0
   27.0920   37.2950    8.7170 H   0  0  0  0  0  0  0  0  0  0  0  0
   27.3720   34.6010    8.3940 C   0  0  0  0  0  0  0  0  0  0  0  0
   27.4870   35.3860    6.1760 O   0  0  0  0  0  0  0  0  0  0  0  0
   24.5160   37.7900    7.0350 O   0  0  0  0  0  0  0  0  0  0  0  0
   25.1910   37.1370    6.7470 H   0  0  0  0  0  0  0  0  0  0  0  0
   24.5240   41.3320    7.7550 O   0  0  0  0  0  0  0  0  0  0  0  0
   25.4630   41.2380    8.0620 H   0  0  0  0  0  0  0  0  0  0  0  0
   21.0060   37.0320    9.2290 O   0  0  0  0  0  0  0  0  0  0  0  0
   21.8360   35.9600    8.8260 C   0  0  0  0  0  0  0  0  0  0  0  0
   22.8190   35.6340    9.9150 C   0  0  0  0  0  0  0  0  0  0  0  0
   24.1320   36.0380   10.0080 C   0  0  0  0  0  0  0  0  0  0  0  0
   22.6140   34.8770   11.0210 N   0  0  0  0  0  0  0  0  0  0  0  0
   24.6910   35.5370   11.1360 N   0  0  0  0  0  0  0  0  0  0  0  0
   23.7300   34.8440   11.7090 N   0  0  0  0  0  0  0  0  0  0  0  0
   26.0300   35.7280   11.5860 C   0  0  0  0  0  0  0  0  0  0  0  0
   26.6390   36.9640   11.5750 C   0  0  0  0  0  0  0  0  0  0  0  0
   26.7800   34.6670   12.0600 C   0  0  0  0  0  0  0  0  0  0  0  0
   27.9370   37.1260   12.0170 C   0  0  0  0  0  0  0  0  0  0  0  0
   28.0790   34.8280   12.5030 C   0  0  0  0  0  0  0  0  0  0  0  0
   28.6910   36.0630   12.4930 C   0  0  0  0  0  0  0  0  0  0  0  0
   30.0200   36.2200   12.9490 N   0  0  0  0  0  0  0  0  0  0  0  0
   30.4090   37.3550   13.2700 O   0  0  0  0  0  0  0  0  0  0  0  0
   30.9110   35.1900   13.0600 O   0  0  0  0  0  0  0  0  0  0  0  0
   29.8670   25.5550   16.9770 C   0  0  0  0  0  0  0  0  0  0  0  0
   28.3450   25.7220   17.0260 C   0  0  0  0  0  0  0  0  0  0  0  0
   27.6010   24.4010   16.9010 C   0  0  0  0  0  0  0  0  0  0  0  0
   26.1580   24.5240   17.3020 C   0  0  0  0  0  0  0  0  0  0  0  0
   25.8070   23.4130   18.2870 C   0  0  0  0  0  0  0  0  0  0  0  0
   25.0810   22.3190   17.5990 N   0  0  0  0  0  0  0  0  0  0  0  0
  1  2  1  0  0  0  0
  2 31  1  0  0  0  0
  2  3  2  0  0  0  0
  4  1  1  0  0  0  0
  5  1  1  0  0  0  0
  6  7  1  0  0  0  0
  6  5  1  1  0  0  0
  6 29  1  0  0  0  0
  7 27  1  6  0  0  0
  8  7  1  6  0  0  0
  9 14  1  6  0  0  0
  9 11  1  0  0  0  0
  9 10  1  0  0  0  0
 10 12  1  0  0  0  0
 11  8  1  0  0  0  0
 12 20  1  6  0  0  0
 12 13  1  0  0  0  0
 13  8  1  0  0  0  0
 13 22  1  1  0  0  0
 15 14  1  0  0  0  0
 16  9  1  0  0  0  0
 16 18  1  0  0  0  0
 17 16  2  0  0  0  0
 18 19  1  0  0  0  0
 21 20  1  0  0  0  0
 22 24  1  0  0  0  0
 23 22  1  0  0  0  0
 23 25  1  0  0  0  0
 26 23  2  0  0  0  0
 28 27  1  0  0  0  0
 29 30  1  0  0  0  0
 32 31  1  0  0  0  0
 32 33  1  0  0  0  0
 33 34  2  0  0  0  0
 33 35  1  0  0  0  0
 34 36  1  0  0  0  0
 35 37  2  0  0  0  0
 36 38  1  0  0  0  0
 36 37  1  0  0  0  0
 38 40  1  0  0  0  0
 39 38  2  0  0  0  0
 39 41  1  0  0  0  0
 40 42  2  0  0  0  0
 41 43  2  0  0  0  0
 43 42  1  0  0  0  0
 43 44  1  0  0  0  0
 44 46  2  0  0  0  0
 44 45  2  0  0  0  0
 47 48  1  0  0  0  0
 49 48  1  0  0  0  0
 49 50  1  0  0  0  0
 50 51  1  0  0  0  0
 52 51  1  0  0  0  0
M  END
>  <REMARK>
 VINA RESULT:    -5.251      8.020     14.706
 INTER + INTRA:         -14.145
 INTER:                  -8.958
 INTRA:                  -5.187
 UNBOUND:                -4.749
 SMILES CC(=O)N[C@@H]1[C@@H](O)C[C@](O)(C(=O)O)O[C@H]1C(O)[C@H](O)CNC(=O)OCc1cn(-c2ccc([N+](=O)[O-])cc2)nn1
 SMILES IDX 21 1 22 2 23 3 20 5 18 6 16 7 15 8 9 9 8 10 14 11 6 12 5 13
 SMILES IDX 10 14 11 16 12 17 13 18 7 20 4 22 2 23 1 25 3 26 17 27 19 29
 SMILES IDX 24 31 25 32 26 33 27 34 39 35 28 36 38 37 29 38 30 39 37 40
 SMILES IDX 31 41 36 42 32 43 33 44 34 45 35 46
 H PARENT 21 4 10 15 13 19 7 21 4 24 17 28 19 30
 Flexibility Score: inf
  4 active torsions:
  status: ('A' for Active; 'I' for Inactive)
    1  A    between atoms: CA   and  CB  
    2  A    between atoms: CB   and  CG  
    3  A    between atoms: CG   and  CD  
    4  A    between atoms: CD   and  CE  

>  <TORSDO>
F 16

>  <BEGIN_>
RES LYS A 131

$$$$
ligand_6_pose_12_2HRL.pdbqt
 OpenBabel07062320523D

  6  5  0  0  0  0  0  0  0  0999 V2000
   33.1930   34.6630    9.2900 C   0  0  0  0  0  0  0  0  0  0  0  0
   32.0600   35.3600   10.0340 C   0  0  0  0  0  0  0  0  0  0  0  0
   30.7980   35.4930    9.2220 C   0  0  0  0  0  0  0  0  0  0  0  0
   30.2250   36.8960    9.3450 C   0  0  0  0  0  0  0  0  0  0  0  0
   31.2890   37.8650    9.8250 C   0  0  0  0  0  0  0  0  0  0  0  0
   31.6760   38.8150    8.7460 N   0  0  0  0  0  0  0  0  0  0  0  0
  1  2  1  0  0  0  0
  3  4  1  0  0  0  0
  3  2  1  0  0  0  0
  4  5  1  0  0  0  0
  6  5  1  0  0  0  0
M  END
>  <EGIN_R>
ES LYS A 135

>  <REMARK>
  4 active torsions:
  status: ('A' for Active; 'I' for Inactive)
    5  A    between atoms: CA   and  CB  
    6  A    between atoms: CB   and  CG  
    7  A    between atoms: CG   and  CD  
    8  A    between atoms: CD   and  CE  

$$$$
