ligand_25_pose_5_2HRL.pdbqt
 OpenBabel07062320523D

 56 59  0  0  1  0  0  0  0  0999 V2000
   25.8560   28.7700   18.4290 C   0  0  0  0  0  0  0  0  0  0  0  0
   27.0240   28.2720   19.1960 C   0  0  2  0  0  0  0  0  0  0  0  0
   27.9790   29.3490   19.6000 C   0  0  1  0  0  0  0  0  0  0  0  0
   28.4990   29.2740   21.0090 C   0  0  2  0  0  0  0  0  0  0  0  0
   30.1590   27.6360   21.2240 C   0  0  2  0  0  0  0  0  0  0  0  0
   29.9690   27.4440   22.7140 C   0  0  0  0  0  0  0  0  0  0  0  0
   29.8440   28.9160   20.8970 O   0  0  0  0  0  0  0  0  0  0  0  0
   28.6230   27.9370   23.1010 C   0  0  1  0  0  0  0  0  0  0  0  0
   27.7460   28.3240   21.8990 C   0  0  1  0  0  0  0  0  0  0  0  0
   29.4690   26.6360   20.5940 O   0  0  0  0  0  0  0  0  0  0  0  0
   29.9410   25.7740   20.6320 H   0  0  0  0  0  0  0  0  0  0  0  0
   31.6210   27.4570   20.9700 C   0  0  0  0  0  0  0  0  0  0  0  0
   32.4280   27.5620   21.9230 O   0  0  0  0  0  0  0  0  0  0  0  0
   32.1330   27.1760   19.7110 O   0  0  0  0  0  0  0  0  0  0  0  0
   32.0690   27.8720   18.9550 H   0  0  0  0  0  0  0  0  0  0  0  0
   27.8920   27.0410   23.8650 O   0  0  0  0  0  0  0  0  0  0  0  0
   26.9480   27.2950   23.9730 H   0  0  0  0  0  0  0  0  0  0  0  0
   26.6180   29.0020   22.4960 N   0  0  0  0  0  0  0  0  0  0  0  0
   25.3110   28.4600   22.6060 C   0  0  0  0  0  0  0  0  0  0  0  0
   26.7760   29.9580   22.8770 H   0  0  0  0  0  0  0  0  0  0  0  0
   24.1910   29.2290   23.2400 C   0  0  0  0  0  0  0  0  0  0  0  0
   25.1200   27.3040   22.1490 O   0  0  0  0  0  0  0  0  0  0  0  0
   29.0180   29.5700   18.7030 O   0  0  0  0  0  0  0  0  0  0  0  0
   29.4050   28.7690   18.3150 H   0  0  0  0  0  0  0  0  0  0  0  0
   27.7420   27.3680   18.4160 O   0  0  0  0  0  0  0  0  0  0  0  0
   28.3830   26.8400   18.9300 H   0  0  0  0  0  0  0  0  0  0  0  0
   26.1340   29.7210   17.4180 N   0  0  0  0  0  0  0  0  0  0  0  0
   25.3810   29.8650   16.2390 C   0  0  0  0  0  0  0  0  0  0  0  0
   26.9660   30.3850   17.5380 H   0  0  0  0  0  0  0  0  0  0  0  0
   24.3990   29.1700   15.9960 O   0  0  0  0  0  0  0  0  0  0  0  0
   25.7230   30.8260   15.2710 O   0  0  0  0  0  0  0  0  0  0  0  0
   26.4150   32.0010   15.5660 C   0  0  0  0  0  0  0  0  0  0  0  0
   27.8460   31.7860   15.8940 C   0  0  0  0  0  0  0  0  0  0  0  0
   28.7580   32.6590   16.4330 C   0  0  0  0  0  0  0  0  0  0  0  0
   28.4790   30.6280   15.6930 N   0  0  0  0  0  0  0  0  0  0  0  0
   29.9080   32.0030   16.5390 N   0  0  0  0  0  0  0  0  0  0  0  0
   29.7220   30.7790   16.0880 N   0  0  0  0  0  0  0  0  0  0  0  0
   31.1700   32.5100   17.0570 C   0  0  0  0  0  0  0  0  0  0  0  0
   31.0290   33.0320   18.4270 C   0  0  0  0  0  0  0  0  0  0  0  0
   31.7040   33.6060   16.2640 C   0  0  0  0  0  0  0  0  0  0  0  0
   30.5600   32.4010   19.5930 C   0  0  0  0  0  0  0  0  0  0  0  0
   31.4500   34.3310   18.4240 C   0  0  0  0  0  0  0  0  0  0  0  0
   31.8730   34.6980   17.0740 C   0  0  0  0  0  0  0  0  0  0  0  0
   32.0530   33.7290   14.9030 C   0  0  0  0  0  0  0  0  0  0  0  0
   30.5320   33.1280   20.7570 C   0  0  0  0  0  0  0  0  0  0  0  0
   31.4040   35.0370   19.6260 C   0  0  0  0  0  0  0  0  0  0  0  0
   32.3740   35.9210   16.6160 C   0  0  0  0  0  0  0  0  0  0  0  0
   32.5440   34.9190   14.4330 C   0  0  0  0  0  0  0  0  0  0  0  0
   30.9510   34.4430   20.7830 C   0  0  0  0  0  0  0  0  0  0  0  0
   32.7020   36.0010   15.2820 C   0  0  0  0  0  0  0  0  0  0  0  0
   29.8670   25.5550   16.9770 C   0  0  0  0  0  0  0  0  0  0  0  0
   28.3450   25.7220   17.0260 C   0  0  0  0  0  0  0  0  0  0  0  0
   27.6010   24.4050   16.8660 C   0  0  0  0  0  0  0  0  0  0  0  0
   26.1520   24.5230   17.2510 C   0  0  0  0  0  0  0  0  0  0  0  0
   25.9760   24.1030   18.7070 C   0  0  0  0  0  0  0  0  0  0  0  0
   25.1910   25.1170   19.4490 N   0  0  0  0  0  0  0  0  0  0  0  0
  2  1  1  6  0  0  0
  2  3  1  0  0  0  0
  3 23  1  6  0  0  0
  4  3  1  6  0  0  0
  4  9  1  0  0  0  0
  5 10  1  6  0  0  0
  5  6  1  0  0  0  0
  6  8  1  0  0  0  0
  7  4  1  0  0  0  0
  7  5  1  0  0  0  0
  8 16  1  6  0  0  0
  9 18  1  1  0  0  0
  9  8  1  0  0  0  0
 10 11  1  0  0  0  0
 12  5  1  0  0  0  0
 12 13  2  0  0  0  0
 14 12  1  0  0  0  0
 15 14  1  0  0  0  0
 16 17  1  0  0  0  0
 18 19  1  0  0  0  0
 18 20  1  0  0  0  0
 19 21  1  0  0  0  0
 22 19  2  0  0  0  0
 24 23  1  0  0  0  0
 25 26  1  0  0  0  0
 25  2  1  0  0  0  0
 27 29  1  0  0  0  0
 27  1  1  0  0  0  0
 28 27  1  0  0  0  0
 30 28  2  0  0  0  0
 31 32  1  0  0  0  0
 31 28  1  0  0  0  0
 32 33  1  0  0  0  0
 33 34  2  0  0  0  0
 34 36  1  0  0  0  0
 35 33  1  0  0  0  0
 35 37  2  0  0  0  0
 36 38  1  0  0  0  0
 37 36  1  0  0  0  0
 38 39  1  0  0  0  0
 39 41  1  0  0  0  0
 40 38  1  0  0  0  0
 40 43  2  0  0  0  0
 41 45  2  0  0  0  0
 42 39  2  0  0  0  0
 42 46  1  0  0  0  0
 43 42  1  0  0  0  0
 44 40  1  0  0  0  0
 45 49  1  0  0  0  0
 46 49  2  0  0  0  0
 47 43  1  0  0  0  0
 48 44  2  0  0  0  0
 48 50  1  0  0  0  0
 50 47  2  0  0  0  0
 51 52  1  0  0  0  0
 53 52  1  0  0  0  0
 53 54  1  0  0  0  0
 54 55  1  0  0  0  0
 55 56  1  0  0  0  0
M  END
>  <REMARK>
 VINA RESULT:    -6.740      4.006      7.881
 INTER + INTRA:         -16.243
 INTER:                 -10.217
 INTRA:                  -6.026
 UNBOUND:                -4.578
 SMILES CC(=O)N[C@@H]1[C@@H](O)C[C@](O)(C(=O)O)O[C@H]1C(O)[C@H](O)CNC(=O)OCc1cn(C2c3ccccc3-c3ccccc32)nn1
 SMILES IDX 20 1 18 2 16 3 15 4 9 5 8 6 14 7 6 8 5 9 10 10 11 12 12 13
 SMILES IDX 13 14 7 16 4 18 2 19 1 21 3 22 17 23 19 25 21 27 22 28 23 30
 SMILES IDX 24 31 25 32 26 33 27 34 43 35 28 36 42 37 29 38 30 39 41 40
 SMILES IDX 31 41 35 42 36 43 40 44 32 45 34 46 37 47 39 48 33 49 38 50
 H PARENT 10 11 13 15 7 17 4 20 17 24 19 26 21 29
 Flexibility Score: inf
  4 active torsions:
  status: ('A' for Active; 'I' for Inactive)
    1  A    between atoms: CA   and  CB  
    2  A    between atoms: CB   and  CG  
    3  A    between atoms: CG   and  CD  
    4  A    between atoms: CD   and  CE  

>  <TORSDO>
F 15

>  <BEGIN_>
RES LYS A 131

$$$$
ligand_25_pose_5_2HRL.pdbqt
 OpenBabel07062320523D

  6  5  0  0  0  0  0  0  0  0999 V2000
   33.1930   34.6630    9.2900 C   0  0  0  0  0  0  0  0  0  0  0  0
   32.0600   35.3600   10.0340 C   0  0  0  0  0  0  0  0  0  0  0  0
   30.7840   35.4540    9.2380 C   0  0  0  0  0  0  0  0  0  0  0  0
   30.2140   34.0690    8.9720 C   0  0  0  0  0  0  0  0  0  0  0  0
   28.7160   34.0550    9.2090 C   0  0  0  0  0  0  0  0  0  0  0  0
   27.9950   34.7810    8.1280 N   0  0  0  0  0  0  0  0  0  0  0  0
  1  2  1  0  0  0  0
  3  2  1  0  0  0  0
  4  5  1  0  0  0  0
  4  3  1  0  0  0  0
  6  5  1  0  0  0  0
M  END
>  <EGIN_R>
ES LYS A 135

>  <REMARK>
  4 active torsions:
  status: ('A' for Active; 'I' for Inactive)
    5  A    between atoms: CA   and  CB  
    6  A    between atoms: CB   and  CG  
    7  A    between atoms: CG   and  CD  
    8  A    between atoms: CD   and  CE  

$$$$
