ligand_67_pose_2_2HRL.pdbqt
 OpenBabel07062320523D

 50 51  0  0  1  0  0  0  0  0999 V2000
   27.0350   32.0080   16.2670 N   0  0  0  0  0  0  0  0  0  0  0  0
   25.8170   31.8200   15.5690 C   0  0  0  0  0  0  0  0  0  0  0  0
   25.7050   30.8280   14.7720 O   0  0  0  0  0  0  0  0  0  0  0  0
   27.1360   32.8070   16.9140 H   0  0  0  0  0  0  0  0  0  0  0  0
   28.1100   31.0930   16.0700 C   0  0  0  0  0  0  0  0  0  0  0  0
   29.4690   31.7040   16.2710 C   0  0  2  0  0  0  0  0  0  0  0  0
   29.9880   32.3990   15.0490 C   0  0  1  0  0  0  0  0  0  0  0  0
   29.6900   33.8800   15.1130 C   0  0  2  0  0  0  0  0  0  0  0  0
   28.0580   35.4010   14.4520 C   0  0  2  0  0  0  0  0  0  0  0  0
   29.1540   36.3540   14.0720 C   0  0  0  0  0  0  0  0  0  0  0  0
   28.4490   34.0930   14.5710 O   0  0  0  0  0  0  0  0  0  0  0  0
   30.2230   35.5570   13.3520 C   0  0  1  0  0  0  0  0  0  0  0  0
   30.8110   34.5920   14.3720 C   0  0  1  0  0  0  0  0  0  0  0  0
   27.0990   35.4420   13.4130 O   0  0  0  0  0  0  0  0  0  0  0  0
   26.7350   36.3400   13.2900 H   0  0  0  0  0  0  0  0  0  0  0  0
   27.3380   35.9020   15.6650 C   0  0  0  0  0  0  0  0  0  0  0  0
   27.5800   36.9970   16.2190 O   0  0  0  0  0  0  0  0  0  0  0  0
   26.3470   35.0860   16.1920 O   0  0  0  0  0  0  0  0  0  0  0  0
   25.4730   35.4310   16.5780 H   0  0  0  0  0  0  0  0  0  0  0  0
   29.6060   34.8080   12.3390 O   0  0  0  0  0  0  0  0  0  0  0  0
   30.0100   34.9760   11.4550 H   0  0  0  0  0  0  0  0  0  0  0  0
   31.6520   35.3530   15.2820 N   0  0  0  0  0  0  0  0  0  0  0  0
   33.0600   35.1940   15.2190 C   0  0  0  0  0  0  0  0  0  0  0  0
   31.2260   36.0200   15.9880 H   0  0  0  0  0  0  0  0  0  0  0  0
   34.0020   35.9240   16.1050 C   0  0  0  0  0  0  0  0  0  0  0  0
   33.5250   34.3890   14.3610 O   0  0  0  0  0  0  0  0  0  0  0  0
   31.3440   32.1350   14.8540 O   0  0  0  0  0  0  0  0  0  0  0  0
   31.6790   32.4110   13.9740 H   0  0  0  0  0  0  0  0  0  0  0  0
   30.3580   30.7100   16.6550 O   0  0  0  0  0  0  0  0  0  0  0  0
   31.2960   30.9500   16.5360 H   0  0  0  0  0  0  0  0  0  0  0  0
   24.7260   32.6330   15.6810 O   0  0  0  0  0  0  0  0  0  0  0  0
   23.6830   32.7650   14.7350 C   0  0  0  0  0  0  0  0  0  0  0  0
   23.8890   33.9160   13.8240 C   0  0  0  0  0  0  0  0  0  0  0  0
   23.9090   33.8810   12.4490 C   0  0  0  0  0  0  0  0  0  0  0  0
   24.0960   35.1980   14.1640 N   0  0  0  0  0  0  0  0  0  0  0  0
   24.1270   35.1340   11.9960 N   0  0  0  0  0  0  0  0  0  0  0  0
   24.2360   35.9120   13.0580 N   0  0  0  0  0  0  0  0  0  0  0  0
   24.2250   35.6000   10.6190 C   0  0  0  0  0  0  0  0  0  0  0  0
   25.6020   35.3160   10.0600 C   0  0  0  0  0  0  0  0  0  0  0  0
   26.4210   36.5590    9.9760 C   0  0  0  0  0  0  0  0  0  0  0  0
   27.5850   36.5260   10.7320 O   0  0  0  0  0  0  0  0  0  0  0  0
   25.7430   37.7140   10.3380 O   0  0  0  0  0  0  0  0  0  0  0  0
   27.9400   37.8530   10.9630 C   0  0  0  0  0  0  0  0  0  0  0  0
   26.6700   38.6290   10.7770 C   0  0  0  0  0  0  0  0  0  0  0  0
   29.8670   25.5550   16.9770 C   0  0  0  0  0  0  0  0  0  0  0  0
   28.3450   25.7220   17.0260 C   0  0  0  0  0  0  0  0  0  0  0  0
   27.6010   24.4020   16.8900 C   0  0  0  0  0  0  0  0  0  0  0  0
   26.1560   24.5230   17.2880 C   0  0  0  0  0  0  0  0  0  0  0  0
   25.8430   23.5090   18.3830 C   0  0  0  0  0  0  0  0  0  0  0  0
   24.9470   22.4480   17.8680 N   0  0  0  0  0  0  0  0  0  0  0  0
  1  4  1  0  0  0  0
  2 31  1  0  0  0  0
  2  1  1  0  0  0  0
  3  2  2  0  0  0  0
  5  1  1  0  0  0  0
  6  5  1  6  0  0  0
  6 29  1  0  0  0  0
  7 27  1  1  0  0  0
  7  6  1  0  0  0  0
  8  7  1  6  0  0  0
  9 14  1  6  0  0  0
  9 11  1  0  0  0  0
  9 16  1  0  0  0  0
 10  9  1  0  0  0  0
 11  8  1  0  0  0  0
 12 20  1  6  0  0  0
 12 10  1  0  0  0  0
 12 13  1  0  0  0  0
 13  8  1  0  0  0  0
 13 22  1  1  0  0  0
 15 14  1  0  0  0  0
 16 18  1  0  0  0  0
 16 17  2  0  0  0  0
 18 19  1  0  0  0  0
 21 20  1  0  0  0  0
 22 24  1  0  0  0  0
 23 22  1  0  0  0  0
 23 25  1  0  0  0  0
 26 23  2  0  0  0  0
 28 27  1  0  0  0  0
 30 29  1  0  0  0  0
 32 31  1  0  0  0  0
 33 35  1  0  0  0  0
 33 32  1  0  0  0  0
 34 33  2  0  0  0  0
 36 34  1  0  0  0  0
 36 37  1  0  0  0  0
 37 35  2  0  0  0  0
 38 36  1  0  0  0  0
 39 38  1  0  0  0  0
 40 39  1  0  0  0  0
 40 42  1  0  0  0  0
 40 41  1  0  0  0  0
 41 43  1  0  0  0  0
 42 44  1  0  0  0  0
 44 43  1  0  0  0  0
 45 46  1  0  0  0  0
 47 46  1  0  0  0  0
 47 48  1  0  0  0  0
 48 49  1  0  0  0  0
 50 49  1  0  0  0  0
M  END
>  <REMARK>
 VINA RESULT:    -4.558      2.332      4.013
 INTER + INTRA:         -14.715
 INTER:                  -7.106
 INTRA:                  -7.609
 UNBOUND:                -6.292
 SMILES CC(=O)N[C@@H]1[C@@H](O)C[C@](O)(C(=O)O)O[C@H]1C(O)[C@H](O)CNC(=O)OCc1cn(CCC2OCCO2)nn1
 SMILES IDX 21 1 22 2 23 3 20 5 18 6 16 7 15 8 9 9 8 10 14 11 6 12 5 13
 SMILES IDX 10 14 11 16 12 17 13 18 7 20 4 22 2 23 1 25 3 26 17 27 19 29
 SMILES IDX 24 31 25 32 26 33 27 34 37 35 28 36 36 37 29 38 30 39 31 40
 SMILES IDX 32 41 35 42 33 43 34 44
 H PARENT 21 4 10 15 13 19 7 21 4 24 17 28 19 30
 Flexibility Score: inf
  4 active torsions:
  status: ('A' for Active; 'I' for Inactive)
    1  A    between atoms: CA   and  CB  
    2  A    between atoms: CB   and  CG  
    3  A    between atoms: CG   and  CD  
    4  A    between atoms: CD   and  CE  

>  <TORSDO>
F 17

>  <BEGIN_>
RES LYS A 131

$$$$
ligand_67_pose_2_2HRL.pdbqt
 OpenBabel07062320523D

  6  5  0  0  0  0  0  0  0  0999 V2000
   33.1930   34.6630    9.2900 C   0  0  0  0  0  0  0  0  0  0  0  0
   32.0600   35.3600   10.0340 C   0  0  0  0  0  0  0  0  0  0  0  0
   30.8800   35.6930    9.1590 C   0  0  0  0  0  0  0  0  0  0  0  0
   30.4190   34.4650    8.3890 C   0  0  0  0  0  0  0  0  0  0  0  0
   28.9040   34.4110    8.3290 C   0  0  0  0  0  0  0  0  0  0  0  0
   28.3830   35.2120    7.1870 N   0  0  0  0  0  0  0  0  0  0  0  0
  1  2  1  0  0  0  0
  3  2  1  0  0  0  0
  4  3  1  0  0  0  0
  5  4  1  0  0  0  0
  6  5  1  0  0  0  0
M  END
>  <EGIN_R>
ES LYS A 135

>  <REMARK>
  4 active torsions:
  status: ('A' for Active; 'I' for Inactive)
    5  A    between atoms: CA   and  CB  
    6  A    between atoms: CB   and  CG  
    7  A    between atoms: CG   and  CD  
    8  A    between atoms: CD   and  CE  

$$$$
