ligand_13_pose_6_2HRL.pdbqt
 OpenBabel07062320523D

 49 49  0  0  1  0  0  0  0  0999 V2000
   25.2640   39.9510    6.0440 N   0  0  0  0  0  0  0  0  0  0  0  0
   25.5230   41.2290    5.5010 C   0  0  0  0  0  0  0  0  0  0  0  0
   25.2090   42.2740    6.0800 O   0  0  0  0  0  0  0  0  0  0  0  0
   25.6030   39.1450    5.4210 H   0  0  0  0  0  0  0  0  0  0  0  0
   24.6190   39.6710    7.2850 C   0  0  0  0  0  0  0  0  0  0  0  0
   25.3600   40.0190    8.5300 C   0  0  2  0  0  0  0  0  0  0  0  0
   26.6660   39.3270    8.6840 C   0  0  1  0  0  0  0  0  0  0  0  0
   26.9930   38.8290   10.0650 C   0  0  2  0  0  0  0  0  0  0  0  0
   29.3020   38.6270   10.3740 C   0  0  2  0  0  0  0  0  0  0  0  0
   29.2020   37.5930   11.4740 C   0  0  0  0  0  0  0  0  0  0  0  0
   28.2030   39.4260   10.4120 O   0  0  0  0  0  0  0  0  0  0  0  0
   27.8700   36.9420   11.4240 C   0  0  1  0  0  0  0  0  0  0  0  0
   27.0510   37.3320   10.1820 C   0  0  1  0  0  0  0  0  0  0  0  0
   29.5210   37.9370    9.1950 O   0  0  0  0  0  0  0  0  0  0  0  0
   30.3770   38.2470    8.8200 H   0  0  0  0  0  0  0  0  0  0  0  0
   30.4920   39.4530   10.6810 C   0  0  0  0  0  0  0  0  0  0  0  0
   31.3670   38.9840   11.4390 O   0  0  0  0  0  0  0  0  0  0  0  0
   30.6530   40.7110   10.1570 O   0  0  0  0  0  0  0  0  0  0  0  0
   29.8600   41.3120    9.9330 H   0  0  0  0  0  0  0  0  0  0  0  0
   27.9220   35.5540   11.4990 O   0  0  0  0  0  0  0  0  0  0  0  0
   28.8300   35.1890   11.4790 H   0  0  0  0  0  0  0  0  0  0  0  0
   25.7430   36.7640   10.4370 N   0  0  0  0  0  0  0  0  0  0  0  0
   24.9510   36.0890    9.4920 C   0  0  0  0  0  0  0  0  0  0  0  0
   25.3630   36.8670   11.4030 H   0  0  0  0  0  0  0  0  0  0  0  0
   23.6130   35.5140    9.7750 C   0  0  0  0  0  0  0  0  0  0  0  0
   25.4270   35.9710    8.3200 O   0  0  0  0  0  0  0  0  0  0  0  0
   26.8470   38.3700    7.7150 O   0  0  0  0  0  0  0  0  0  0  0  0
   27.3070   38.6930    6.8990 H   0  0  0  0  0  0  0  0  0  0  0  0
   24.5730   39.6140    9.6290 O   0  0  0  0  0  0  0  0  0  0  0  0
   24.4600   40.3740   10.2720 H   0  0  0  0  0  0  0  0  0  0  0  0
   26.1650   41.3630    4.2480 O   0  0  0  0  0  0  0  0  0  0  0  0
   26.9780   40.3270    3.7320 C   0  0  0  0  0  0  0  0  0  0  0  0
   28.0810   40.1210    4.7070 C   0  0  0  0  0  0  0  0  0  0  0  0
   29.0600   41.0120    5.0810 C   0  0  0  0  0  0  0  0  0  0  0  0
   28.3420   38.9980    5.4320 N   0  0  0  0  0  0  0  0  0  0  0  0
   29.8520   40.3900    5.9990 N   0  0  0  0  0  0  0  0  0  0  0  0
   29.3880   39.1670    6.1890 N   0  0  0  0  0  0  0  0  0  0  0  0
   31.0090   40.9290    6.6760 C   0  0  0  0  0  0  0  0  0  0  0  0
   32.0630   39.9120    6.8110 C   0  0  0  0  0  0  0  0  0  0  0  0
   32.1520   39.2630    7.8760 O   0  0  0  0  0  0  0  0  0  0  0  0
   32.9310   39.7090    5.7380 O   0  0  0  0  0  0  0  0  0  0  0  0
   34.3190   39.9170    6.0170 C   0  0  0  0  0  0  0  0  0  0  0  0
   35.0760   38.7140    5.5150 C   0  0  0  0  0  0  0  0  0  0  0  0
   29.8670   25.5550   16.9770 C   0  0  0  0  0  0  0  0  0  0  0  0
   28.3450   25.7220   17.0260 C   0  0  0  0  0  0  0  0  0  0  0  0
   27.5990   24.4380   16.6980 C   0  0  0  0  0  0  0  0  0  0  0  0
   26.9810   23.8140   17.9190 C   0  0  0  0  0  0  0  0  0  0  0  0
   25.5920   23.2870   17.5750 C   0  0  0  0  0  0  0  0  0  0  0  0
   24.7950   24.3340   16.8940 N   0  0  0  0  0  0  0  0  0  0  0  0
  1  5  1  0  0  0  0
  2  1  1  0  0  0  0
  2  3  2  0  0  0  0
  4  1  1  0  0  0  0
  6  5  1  6  0  0  0
  6  7  1  0  0  0  0
  6 29  1  0  0  0  0
  7 27  1  6  0  0  0
  8  7  1  6  0  0  0
  8 13  1  0  0  0  0
  8 11  1  0  0  0  0
  9 14  1  6  0  0  0
  9 11  1  0  0  0  0
  9 16  1  0  0  0  0
  9 10  1  0  0  0  0
 12 10  1  0  0  0  0
 12 20  1  6  0  0  0
 13 22  1  1  0  0  0
 13 12  1  0  0  0  0
 15 14  1  0  0  0  0
 16 17  2  0  0  0  0
 18 16  1  0  0  0  0
 19 18  1  0  0  0  0
 21 20  1  0  0  0  0
 22 24  1  0  0  0  0
 23 25  1  0  0  0  0
 23 22  1  0  0  0  0
 26 23  2  0  0  0  0
 28 27  1  0  0  0  0
 29 30  1  0  0  0  0
 31  2  1  0  0  0  0
 32 31  1  0  0  0  0
 32 33  1  0  0  0  0
 33 34  2  0  0  0  0
 33 35  1  0  0  0  0
 34 36  1  0  0  0  0
 35 37  2  0  0  0  0
 36 37  1  0  0  0  0
 36 38  1  0  0  0  0
 38 39  1  0  0  0  0
 39 40  2  0  0  0  0
 41 42  1  0  0  0  0
 41 39  1  0  0  0  0
 43 42  1  0  0  0  0
 44 45  1  0  0  0  0
 46 45  1  0  0  0  0
 46 47  1  0  0  0  0
 48 47  1  0  0  0  0
 49 48  1  0  0  0  0
M  END
>  <REMARK>
 VINA RESULT:    -4.208      7.325     13.803
 INTER + INTRA:         -13.970
 INTER:                  -6.706
 INTRA:                  -7.264
 UNBOUND:                -5.949
 SMILES CCOC(=O)Cn1cc(COC(=O)NC[C@@H](O)C(O)[C@@H]2O[C@@](O)(C(=O)O)C[C@H](O)[C@H]2NC(C)=O)nn1
 SMILES IDX 14 1 12 2 13 3 15 5 16 6 18 7 20 8 22 9 27 10 21 11 28 12
 SMILES IDX 30 13 23 14 24 16 25 17 26 18 29 20 31 22 32 23 33 25 34 26
 SMILES IDX 19 27 17 29 11 31 10 32 9 33 8 34 35 35 7 36 36 37 6 38 4 39
 SMILES IDX 5 40 3 41 2 42 1 43
 H PARENT 14 4 23 15 26 19 29 21 31 24 19 28 17 30
 Flexibility Score: inf
  4 active torsions:
  status: ('A' for Active; 'I' for Inactive)
    1  A    between atoms: CA   and  CB  
    2  A    between atoms: CB   and  CG  
    3  A    between atoms: CG   and  CD  
    4  A    between atoms: CD   and  CE  

>  <TORSDO>
F 18

>  <BEGIN_>
RES LYS A 131

$$$$
ligand_13_pose_6_2HRL.pdbqt
 OpenBabel07062320523D

  6  5  0  0  0  0  0  0  0  0999 V2000
   33.1930   34.6630    9.2900 C   0  0  0  0  0  0  0  0  0  0  0  0
   32.0600   35.3600   10.0340 C   0  0  0  0  0  0  0  0  0  0  0  0
   30.7200   34.6960    9.8500 C   0  0  0  0  0  0  0  0  0  0  0  0
   30.3820   34.5700    8.3720 C   0  0  0  0  0  0  0  0  0  0  0  0
   28.8850   34.6840    8.1560 C   0  0  0  0  0  0  0  0  0  0  0  0
   28.5780   35.5050    6.9520 N   0  0  0  0  0  0  0  0  0  0  0  0
  1  2  1  0  0  0  0
  3  2  1  0  0  0  0
  4  3  1  0  0  0  0
  5  4  1  0  0  0  0
  6  5  1  0  0  0  0
M  END
>  <EGIN_R>
ES LYS A 135

>  <REMARK>
  4 active torsions:
  status: ('A' for Active; 'I' for Inactive)
    5  A    between atoms: CA   and  CB  
    6  A    between atoms: CB   and  CG  
    7  A    between atoms: CG   and  CD  
    8  A    between atoms: CD   and  CE  

$$$$
