ligand_17_pose_9_2HRL.pdbqt
 OpenBabel07062320523D

 50 50  0  0  1  0  0  0  0  0999 V2000
   27.3180   38.4130    4.9080 N   0  0  0  0  0  0  0  0  0  0  0  0
   28.1350   39.5800    4.8100 C   0  0  0  0  0  0  0  0  0  0  0  0
   29.2920   39.5720    5.2660 O   0  0  0  0  0  0  0  0  0  0  0  0
   26.3660   38.4920    4.5090 H   0  0  0  0  0  0  0  0  0  0  0  0
   27.7460   37.1890    5.5120 C   0  0  0  0  0  0  0  0  0  0  0  0
   27.6220   37.1720    7.0090 C   0  0  2  0  0  0  0  0  0  0  0  0
   26.2760   37.7180    7.4320 C   0  0  1  0  0  0  0  0  0  0  0  0
   25.6320   36.8540    8.4790 C   0  0  2  0  0  0  0  0  0  0  0  0
   23.4080   37.4490    7.9990 C   0  0  2  0  0  0  0  0  0  0  0  0
   23.4400   38.4030    9.1850 C   0  0  0  0  0  0  0  0  0  0  0  0
   24.3790   36.4940    8.0530 O   0  0  0  0  0  0  0  0  0  0  0  0
   24.2080   37.6800   10.2970 C   0  0  1  0  0  0  0  0  0  0  0  0
   25.6040   37.4990    9.8200 C   0  0  1  0  0  0  0  0  0  0  0  0
   23.4000   38.2280    6.8440 O   0  0  0  0  0  0  0  0  0  0  0  0
   22.8340   37.8100    6.1350 H   0  0  0  0  0  0  0  0  0  0  0  0
   22.0970   36.7260    8.0520 C   0  0  0  0  0  0  0  0  0  0  0  0
   22.0010   35.5440    8.4460 O   0  0  0  0  0  0  0  0  0  0  0  0
   20.9570   37.3890    7.6520 O   0  0  0  0  0  0  0  0  0  0  0  0
   20.0200   37.1170    7.9370 H   0  0  0  0  0  0  0  0  0  0  0  0
   24.1130   38.4600   11.4490 O   0  0  0  0  0  0  0  0  0  0  0  0
   23.4940   39.2220   11.2140 H   0  0  0  0  0  0  0  0  0  0  0  0
   26.4550   36.8320   10.7870 N   0  0  0  0  0  0  0  0  0  0  0  0
   27.8080   37.2060   11.0240 C   0  0  0  0  0  0  0  0  0  0  0  0
   26.0980   36.0220   11.3700 H   0  0  0  0  0  0  0  0  0  0  0  0
   28.6410   36.4810   12.0350 C   0  0  0  0  0  0  0  0  0  0  0  0
   28.3190   38.1480   10.3880 O   0  0  0  0  0  0  0  0  0  0  0  0
   26.5550   39.0090    7.9170 O   0  0  0  0  0  0  0  0  0  0  0  0
   26.9650   38.8710    8.8130 H   0  0  0  0  0  0  0  0  0  0  0  0
   28.6980   37.7780    7.5900 O   0  0  0  0  0  0  0  0  0  0  0  0
   28.8770   37.3720    8.4750 H   0  0  0  0  0  0  0  0  0  0  0  0
   27.6910   40.7500    4.2170 O   0  0  0  0  0  0  0  0  0  0  0  0
   26.3300   40.9470    3.8570 C   0  0  0  0  0  0  0  0  0  0  0  0
   25.5730   41.2710    5.0930 C   0  0  0  0  0  0  0  0  0  0  0  0
   25.3800   42.5710    5.5610 C   0  0  0  0  0  0  0  0  0  0  0  0
   24.9510   40.4790    5.9750 N   0  0  0  0  0  0  0  0  0  0  0  0
   24.6640   42.5000    6.6800 N   0  0  0  0  0  0  0  0  0  0  0  0
   24.4110   41.2320    6.9190 N   0  0  0  0  0  0  0  0  0  0  0  0
   24.2400   43.6100    7.4900 C   0  0  0  0  0  0  0  0  0  0  0  0
   24.7420   43.3980    8.9070 C   0  0  0  0  0  0  0  0  0  0  0  0
   23.6980   43.2110    9.8620 N   0  0  0  0  0  0  0  0  0  0  0  0
   23.4960   44.3020   10.7570 C   0  0  0  0  0  0  0  0  0  0  0  0
   24.8660   44.6430   11.3620 C   0  0  0  0  0  0  0  0  0  0  0  0
   23.6650   41.9050   10.4270 C   0  0  0  0  0  0  0  0  0  0  0  0
   22.4120   41.5970   11.1870 C   0  0  0  0  0  0  0  0  0  0  0  0
   29.8670   25.5550   16.9770 C   0  0  0  0  0  0  0  0  0  0  0  0
   28.3450   25.7220   17.0260 C   0  0  0  0  0  0  0  0  0  0  0  0
   27.6010   24.4010   16.8980 C   0  0  0  0  0  0  0  0  0  0  0  0
   26.1720   24.5100   17.3520 C   0  0  0  0  0  0  0  0  0  0  0  0
   25.9800   23.6930   18.6260 C   0  0  0  0  0  0  0  0  0  0  0  0
   24.8260   24.2060   19.4020 N   0  0  0  0  0  0  0  0  0  0  0  0
  1  5  1  0  0  0  0
  2  1  1  0  0  0  0
  2  3  2  0  0  0  0
  4  1  1  0  0  0  0
  6  5  1  6  0  0  0
  6  7  1  0  0  0  0
  6 29  1  0  0  0  0
  7 27  1  1  0  0  0
  8  7  1  6  0  0  0
  8 13  1  0  0  0  0
  9 14  1  6  0  0  0
  9 16  1  0  0  0  0
  9 11  1  0  0  0  0
  9 10  1  0  0  0  0
 10 12  1  0  0  0  0
 11  8  1  0  0  0  0
 12 20  1  1  0  0  0
 13 12  1  0  0  0  0
 13 22  1  1  0  0  0
 15 14  1  0  0  0  0
 16 17  2  0  0  0  0
 18 19  1  0  0  0  0
 18 16  1  0  0  0  0
 21 20  1  0  0  0  0
 22 23  1  0  0  0  0
 22 24  1  0  0  0  0
 23 25  1  0  0  0  0
 26 23  2  0  0  0  0
 27 28  1  0  0  0  0
 29 30  1  0  0  0  0
 31  2  1  0  0  0  0
 32 31  1  0  0  0  0
 32 33  1  0  0  0  0
 33 34  2  0  0  0  0
 33 35  1  0  0  0  0
 34 36  1  0  0  0  0
 35 37  2  0  0  0  0
 36 37  1  0  0  0  0
 36 38  1  0  0  0  0
 38 39  1  0  0  0  0
 39 40  1  0  0  0  0
 40 43  1  0  0  0  0
 40 41  1  0  0  0  0
 41 42  1  0  0  0  0
 43 44  1  0  0  0  0
 45 46  1  0  0  0  0
 47 46  1  0  0  0  0
 47 48  1  0  0  0  0
 48 49  1  0  0  0  0
 49 50  1  0  0  0  0
M  END
>  <REMARK>
 VINA RESULT:    -3.624      8.358     13.898
 INTER + INTRA:         -14.278
 INTER:                  -6.802
 INTRA:                  -7.475
 UNBOUND:                -7.158
 SMILES CCN(CC)CCn1cc(COC(=O)NC[C@@H](O)C(O)[C@@H]2O[C@@](O)(C(=O)O)C[C@H](O)[C@H]2NC(C)=O)nn1
 SMILES IDX 15 1 13 2 14 3 16 5 17 6 19 7 21 8 23 9 28 10 22 11 29 12
 SMILES IDX 31 13 24 14 25 16 26 17 27 18 30 20 32 22 33 23 34 25 35 26
 SMILES IDX 20 27 18 29 12 31 11 32 10 33 9 34 36 35 8 36 37 37 7 38
 SMILES IDX 6 39 3 40 2 41 1 42 4 43 5 44
 H PARENT 15 4 24 15 27 19 30 21 32 24 20 28 18 30
 Flexibility Score: inf
  4 active torsions:
  status: ('A' for Active; 'I' for Inactive)
    1  A    between atoms: CA   and  CB  
    2  A    between atoms: CB   and  CG  
    3  A    between atoms: CG   and  CD  
    4  A    between atoms: CD   and  CE  

>  <TORSDO>
F 19

>  <BEGIN_>
RES LYS A 131

$$$$
ligand_17_pose_9_2HRL.pdbqt
 OpenBabel07062320523D

  6  5  0  0  0  0  0  0  0  0999 V2000
   33.1930   34.6630    9.2900 C   0  0  0  0  0  0  0  0  0  0  0  0
   32.0600   35.3600   10.0340 C   0  0  0  0  0  0  0  0  0  0  0  0
   30.7950   35.4850    9.2250 C   0  0  0  0  0  0  0  0  0  0  0  0
   30.1450   34.1240    9.0310 C   0  0  0  0  0  0  0  0  0  0  0  0
   28.6740   34.2800    8.6930 C   0  0  0  0  0  0  0  0  0  0  0  0
   27.8140   33.7060    9.7640 N   0  0  0  0  0  0  0  0  0  0  0  0
  1  2  1  0  0  0  0
  3  2  1  0  0  0  0
  4  3  1  0  0  0  0
  5  4  1  0  0  0  0
  5  6  1  0  0  0  0
M  END
>  <EGIN_R>
ES LYS A 135

>  <REMARK>
  4 active torsions:
  status: ('A' for Active; 'I' for Inactive)
    5  A    between atoms: CA   and  CB  
    6  A    between atoms: CB   and  CG  
    7  A    between atoms: CG   and  CD  
    8  A    between atoms: CD   and  CE  

$$$$
