ligand_52_pose_6_2HRL.pdbqt
 OpenBabel07062320523D

 49 50  0  0  1  0  0  0  0  0999 V2000
   29.8000   31.1520   15.9540 C   0  0  0  0  0  0  0  0  0  0  0  0
   30.5160   32.4290   15.7130 C   0  0  2  0  0  0  0  0  0  0  0  0
   29.6720   33.4840   15.1040 C   0  0  2  0  0  0  0  0  0  0  0  0
   30.3430   34.6000   14.3820 C   0  0  2  0  0  0  0  0  0  0  0  0
   32.0780   36.0560   14.2980 C   0  0  2  0  0  0  0  0  0  0  0  0
   31.4250   36.8080   13.1930 C   0  0  0  0  0  0  0  0  0  0  0  0
   31.2500   35.3030   15.1080 O   0  0  0  0  0  0  0  0  0  0  0  0
   30.2110   36.1970   12.5860 C   0  0  1  0  0  0  0  0  0  0  0  0
   29.3680   35.5220   13.7060 C   0  0  1  0  0  0  0  0  0  0  0  0
   32.6260   37.0590   15.1600 O   0  0  0  0  0  0  0  0  0  0  0  0
   31.9250   37.2010   15.8380 H   0  0  0  0  0  0  0  0  0  0  0  0
   33.2360   35.2520   13.8460 C   0  0  0  0  0  0  0  0  0  0  0  0
   34.0730   34.8390   14.6870 O   0  0  0  0  0  0  0  0  0  0  0  0
   33.4890   34.9010   12.5260 O   0  0  0  0  0  0  0  0  0  0  0  0
   34.1590   35.4970   12.0260 H   0  0  0  0  0  0  0  0  0  0  0  0
   29.3740   37.1770   12.0490 O   0  0  0  0  0  0  0  0  0  0  0  0
   29.6630   38.0670   12.3700 H   0  0  0  0  0  0  0  0  0  0  0  0
   28.3870   34.7320   13.0110 N   0  0  0  0  0  0  0  0  0  0  0  0
   27.0490   35.1370   12.8040 C   0  0  0  0  0  0  0  0  0  0  0  0
   28.6700   33.7930   12.6240 H   0  0  0  0  0  0  0  0  0  0  0  0
   26.1140   34.2510   12.0740 C   0  0  0  0  0  0  0  0  0  0  0  0
   26.6670   36.2460   13.2430 O   0  0  0  0  0  0  0  0  0  0  0  0
   28.5740   33.8500   15.8580 O   0  0  0  0  0  0  0  0  0  0  0  0
   28.6190   34.7100   16.3060 H   0  0  0  0  0  0  0  0  0  0  0  0
   31.5870   32.2130   14.8110 O   0  0  0  0  0  0  0  0  0  0  0  0
   32.0350   33.0740   14.6900 H   0  0  0  0  0  0  0  0  0  0  0  0
   29.7480   30.6830   17.3070 N   0  0  0  0  0  0  0  0  0  0  0  0
   28.8510   31.0920   18.2860 C   0  0  0  0  0  0  0  0  0  0  0  0
   30.4620   29.9480   17.6030 H   0  0  0  0  0  0  0  0  0  0  0  0
   27.9840   31.9460   18.0580 O   0  0  0  0  0  0  0  0  0  0  0  0
   28.8590   30.5750   19.5930 O   0  0  0  0  0  0  0  0  0  0  0  0
   29.6190   31.1920   20.6070 C   0  0  0  0  0  0  0  0  0  0  0  0
   30.8710   30.4610   20.8750 C   0  0  0  0  0  0  0  0  0  0  0  0
   31.9860   31.0550   21.4450 C   0  0  0  0  0  0  0  0  0  0  0  0
   31.2130   29.1910   20.6620 N   0  0  0  0  0  0  0  0  0  0  0  0
   32.9560   30.1310   21.5570 N   0  0  0  0  0  0  0  0  0  0  0  0
   32.4750   29.0110   21.0810 N   0  0  0  0  0  0  0  0  0  0  0  0
   34.2700   30.3170   22.0920 C   0  0  0  0  0  0  0  0  0  0  0  0
   34.9930   31.4700   21.8440 C   0  0  0  0  0  0  0  0  0  0  0  0
   34.8410   29.3320   22.8740 C   0  0  0  0  0  0  0  0  0  0  0  0
   36.2720   31.6060   22.3890 C   0  0  0  0  0  0  0  0  0  0  0  0
   36.0900   29.4910   23.3920 N   0  0  0  0  0  0  0  0  0  0  0  0
   36.8160   30.6010   23.1680 C   0  0  0  0  0  0  0  0  0  0  0  0
   29.8670   25.5550   16.9770 C   0  0  0  0  0  0  0  0  0  0  0  0
   28.3450   25.7220   17.0260 C   0  0  0  0  0  0  0  0  0  0  0  0
   27.5990   24.4340   16.7150 C   0  0  0  0  0  0  0  0  0  0  0  0
   26.9110   23.8710   17.9280 C   0  0  0  0  0  0  0  0  0  0  0  0
   26.1530   24.9830   18.6450 C   0  0  0  0  0  0  0  0  0  0  0  0
   25.4860   24.4560   19.8600 N   0  0  0  0  0  0  0  0  0  0  0  0
  1 27  1  0  0  0  0
  2  1  1  6  0  0  0
  3  2  1  0  0  0  0
  3 23  1  1  0  0  0
  4  3  1  1  0  0  0
  4  7  1  0  0  0  0
  5 12  1  6  0  0  0
  5  7  1  0  0  0  0
  5 10  1  0  0  0  0
  6  5  1  0  0  0  0
  8 16  1  1  0  0  0
  8  6  1  0  0  0  0
  8  9  1  0  0  0  0
  9 18  1  6  0  0  0
  9  4  1  0  0  0  0
 10 11  1  0  0  0  0
 12 13  2  0  0  0  0
 14 12  1  0  0  0  0
 15 14  1  0  0  0  0
 16 17  1  0  0  0  0
 19 18  1  0  0  0  0
 19 22  2  0  0  0  0
 20 18  1  0  0  0  0
 21 19  1  0  0  0  0
 23 24  1  0  0  0  0
 25  2  1  0  0  0  0
 26 25  1  0  0  0  0
 27 29  1  0  0  0  0
 27 28  1  0  0  0  0
 28 31  1  0  0  0  0
 30 28  2  0  0  0  0
 31 32  1  0  0  0  0
 32 33  1  0  0  0  0
 33 34  2  0  0  0  0
 34 36  1  0  0  0  0
 35 33  1  0  0  0  0
 35 37  2  0  0  0  0
 36 38  1  0  0  0  0
 37 36  1  0  0  0  0
 38 40  1  0  0  0  0
 39 38  2  0  0  0  0
 39 41  1  0  0  0  0
 40 42  2  0  0  0  0
 41 43  2  0  0  0  0
 43 42  1  0  0  0  0
 44 45  1  0  0  0  0
 46 45  1  0  0  0  0
 46 47  1  0  0  0  0
 47 48  1  0  0  0  0
 48 49  1  0  0  0  0
M  END
>  <REMARK>
 VINA RESULT:    -5.100      3.197      8.055
 INTER + INTRA:         -13.991
 INTER:                  -8.895
 INTRA:                  -5.095
 UNBOUND:                -5.164
 SMILES CC(=O)N[C@@H]1[C@@H](O)C[C@](O)(C(=O)O)O[C@H]1C(O)[C@H](O)CNC(=O)OCc1cn(-c2cccnc2)nn1
 SMILES IDX 20 1 18 2 16 3 15 4 9 5 8 6 14 7 6 8 5 9 10 10 11 12 12 13
 SMILES IDX 13 14 7 16 4 18 2 19 1 21 3 22 17 23 19 25 21 27 22 28 23 30
 SMILES IDX 24 31 25 32 26 33 27 34 36 35 28 36 35 37 29 38 30 39 34 40
 SMILES IDX 31 41 33 42 32 43
 H PARENT 10 11 13 15 7 17 4 20 17 24 19 26 21 29
 Flexibility Score: inf
  4 active torsions:
  status: ('A' for Active; 'I' for Inactive)
    1  A    between atoms: CA   and  CB  
    2  A    between atoms: CB   and  CG  
    3  A    between atoms: CG   and  CD  
    4  A    between atoms: CD   and  CE  

>  <TORSDO>
F 15

>  <BEGIN_>
RES LYS A 131

$$$$
ligand_52_pose_6_2HRL.pdbqt
 OpenBabel07062320523D

  6  5  0  0  0  0  0  0  0  0999 V2000
   33.1930   34.6630    9.2900 C   0  0  0  0  0  0  0  0  0  0  0  0
   32.0600   35.3600   10.0340 C   0  0  0  0  0  0  0  0  0  0  0  0
   30.8740   35.6820    9.1610 C   0  0  0  0  0  0  0  0  0  0  0  0
   30.2730   34.4100    8.5830 C   0  0  0  0  0  0  0  0  0  0  0  0
   29.0470   33.9940    9.3730 C   0  0  0  0  0  0  0  0  0  0  0  0
   27.7950   34.3870    8.6690 N   0  0  0  0  0  0  0  0  0  0  0  0
  1  2  1  0  0  0  0
  3  2  1  0  0  0  0
  4  3  1  0  0  0  0
  4  5  1  0  0  0  0
  6  5  1  0  0  0  0
M  END
>  <EGIN_R>
ES LYS A 135

>  <REMARK>
  4 active torsions:
  status: ('A' for Active; 'I' for Inactive)
    5  A    between atoms: CA   and  CB  
    6  A    between atoms: CB   and  CG  
    7  A    between atoms: CG   and  CD  
    8  A    between atoms: CD   and  CE  

$$$$
