ligand_69_pose_15_2HRL.pdbqt
 OpenBabel07062320523D

 54 51  0  0  1  0  0  0  0  0999 V2000
   25.4040   33.3320   13.6130 N   0  0  0  0  0  0  0  0  0  0  0  0
   24.0030   33.0800   13.7130 C   0  0  0  0  0  0  0  0  0  0  0  0
   23.1940   33.9090   14.2040 O   0  0  0  0  0  0  0  0  0  0  0  0
   26.0520   32.6250   13.2010 H   0  0  0  0  0  0  0  0  0  0  0  0
   25.8600   34.6270   14.1210 C   0  0  0  0  0  0  0  0  0  0  0  0
   26.6830   34.3370   15.3630 C   0  0  2  0  0  0  0  0  0  0  0  0
   28.0240   35.0350   15.3480 C   0  0  2  0  0  0  0  0  0  0  0  0
   29.1670   34.0780   15.4780 C   0  0  2  0  0  0  0  0  0  0  0  0
   30.4990   32.8220   16.8360 C   0  0  2  0  0  0  0  0  0  0  0  0
   30.9920   32.3580   15.4810 C   0  0  0  0  0  0  0  0  0  0  0  0
   29.3360   33.5750   16.7400 O   0  0  0  0  0  0  0  0  0  0  0  0
   31.3320   33.5250   14.5760 C   0  0  1  0  0  0  0  0  0  0  0  0
   30.4800   34.6780   15.0240 C   0  0  1  0  0  0  0  0  0  0  0  0
   31.4980   33.4880   17.5370 O   0  0  0  0  0  0  0  0  0  0  0  0
   31.7730   32.9910   18.3530 H   0  0  0  0  0  0  0  0  0  0  0  0
   30.1520   31.5990   17.6000 C   0  0  0  0  0  0  0  0  0  0  0  0
   29.9180   31.6180   18.8390 O   0  0  0  0  0  0  0  0  0  0  0  0
   30.0790   30.3920   16.9420 O   0  0  0  0  0  0  0  0  0  0  0  0
   29.4880   29.6160   17.2260 H   0  0  0  0  0  0  0  0  0  0  0  0
   32.6840   33.7550   14.6830 O   0  0  0  0  0  0  0  0  0  0  0  0
   32.9560   34.3080   13.8870 H   0  0  0  0  0  0  0  0  0  0  0  0
   30.3340   35.7280   14.0850 N   0  0  0  0  0  0  0  0  0  0  0  0
   31.2370   36.8090   13.9050 C   0  0  0  0  0  0  0  0  0  0  0  0
   29.4950   35.7190   13.4660 H   0  0  0  0  0  0  0  0  0  0  0  0
   30.9920   37.8710   12.8840 C   0  0  0  0  0  0  0  0  0  0  0  0
   32.2480   36.8420   14.6340 O   0  0  0  0  0  0  0  0  0  0  0  0
   28.0600   36.0930   16.2230 O   0  0  0  0  0  0  0  0  0  0  0  0
   27.1410   36.4070   16.3740 H   0  0  0  0  0  0  0  0  0  0  0  0
   26.9800   32.9540   15.4090 O   0  0  0  0  0  0  0  0  0  0  0  0
   26.7380   32.5680   16.2970 H   0  0  0  0  0  0  0  0  0  0  0  0
   23.4970   31.8870   13.2570 O   0  0  0  0  0  0  0  0  0  0  0  0
   24.2390   30.6830   13.1820 C   0  0  0  0  0  0  0  0  0  0  0  0
   24.3110   30.0880   14.5360 C   0  0  0  0  0  0  0  0  0  0  0  0
   25.3810   30.0070   15.3990 C   0  0  0  0  0  0  0  0  0  0  0  0
   23.2720   29.5010   15.1630 N   0  0  0  0  0  0  0  0  0  0  0  0
   24.9760   29.3810   16.5190 N   0  0  0  0  0  0  0  0  0  0  0  0
   23.6860   29.0900   16.3340 N   0  0  0  0  0  0  0  0  0  0  0  0
   25.7980   29.0860   17.6930 C   0  0  2  0  0  0  0  0  0  0  0  0
   24.8820   28.9390   18.8610 C   0  0  0  0  0  0  0  0  0  0  0  0
   25.5620   28.6980   20.1630 *   0  0  0  0  0  0  0  0  0  0  0  0
   24.7700   27.9380   21.0520 O   0  0  0  0  0  0  0  0  0  0  0  0
   25.1590   27.0410   21.1260 H   0  0  0  0  0  0  0  0  0  0  0  0
   26.8020   30.1790   17.8290 C   0  0  0  0  0  0  0  0  0  0  0  0
   26.3580   31.3310   18.6790 C   0  0  1  0  0  0  0  0  0  0  0  0
   26.4130   31.0530   20.1310 C   0  0  0  0  0  0  0  0  0  0  0  0
   26.0810   29.9490   20.7610 *   0  0  0  0  0  0  0  0  0  0  0  0
   27.0230   32.5150   18.3650 O   0  0  0  0  0  0  0  0  0  0  0  0
   26.5560   33.3050   18.7370 H   0  0  0  0  0  0  0  0  0  0  0  0
   29.8670   25.5550   16.9770 C   0  0  0  0  0  0  0  0  0  0  0  0
   28.3450   25.7220   17.0260 C   0  0  0  0  0  0  0  0  0  0  0  0
   27.6020   24.3980   16.9340 C   0  0  0  0  0  0  0  0  0  0  0  0
   26.1710   24.5190   17.3800 C   0  0  0  0  0  0  0  0  0  0  0  0
   26.1090   25.3130   18.6810 C   0  0  0  0  0  0  0  0  0  0  0  0
   25.4440   24.5200   19.7420 N   0  0  0  0  0  0  0  0  0  0  0  0
  1  2  1  0  0  0  0
  1  5  1  0  0  0  0
  2  3  2  0  0  0  0
  4  1  1  0  0  0  0
  6  5  1  6  0  0  0
  6 29  1  0  0  0  0
  7  6  1  0  0  0  0
  7 27  1  1  0  0  0
  8  7  1  1  0  0  0
  8 11  1  0  0  0  0
  9 14  1  1  0  0  0
  9 16  1  0  0  0  0
 10  9  1  0  0  0  0
 11  9  1  0  0  0  0
 12 20  1  1  0  0  0
 12 13  1  0  0  0  0
 12 10  1  0  0  0  0
 13 22  1  6  0  0  0
 13  8  1  0  0  0  0
 14 15  1  0  0  0  0
 16 17  2  0  0  0  0
 18 19  1  0  0  0  0
 18 16  1  0  0  0  0
 21 20  1  0  0  0  0
 23 22  1  0  0  0  0
 23 26  2  0  0  0  0
 24 22  1  0  0  0  0
 25 23  1  0  0  0  0
 27 28  1  0  0  0  0
 29 30  1  0  0  0  0
 31  2  1  0  0  0  0
 32 31  1  0  0  0  0
 32 33  1  0  0  0  0
 33 35  1  0  0  0  0
 33 34  2  0  0  0  0
 34 36  1  0  0  0  0
 35 37  2  0  0  0  0
 36 38  1  0  0  0  0
 37 36  1  0  0  0  0
 38 43  1  0  0  0  0
 38 39  1  1  0  0  0
 41 42  1  0  0  0  0
 43 44  1  0  0  0  0
 44 45  1  1  0  0  0
 47 44  1  0  0  0  0
 47 48  1  0  0  0  0
 49 50  1  0  0  0  0
 51 50  1  0  0  0  0
 51 52  1  0  0  0  0
 52 53  1  0  0  0  0
 53 54  1  0  0  0  0
M  END
>  <REMARK>
 VINA RESULT:    -7.628      3.061      5.777
 INTER + INTRA:         -12.846
 INTER:                  -7.145
 INTRA:                  -5.700
 UNBOUND:                 3.032
 SMILES CC(=O)N[C@@H]1[C@@H](O)C[C@](O)(C(=O)O)O[C@H]1C(O)[C@H](O)CNC(=O)OCc1cn(C2CC(O)C=C[C@@H](O)C2)nn1
 SMILES IDX 21 1 22 2 23 3 20 5 18 6 16 7 15 8 9 9 8 10 14 11 6 12 5 13
 SMILES IDX 10 14 11 16 12 17 13 18 7 20 4 22 2 23 1 25 3 26 17 27 19 29
 SMILES IDX 24 31 25 32 26 33 27 34 39 35 28 36 38 37 29 38 30 39 31 40
 SMILES IDX 32 42 37 44 35 45 34 46 33 47 36 49
 H PARENT 21 4 10 15 13 19 7 21 4 24 17 28 19 30 32 43 36 50
 Flexibility Score: 90.00
  4 active torsions:
  status: ('A' for Active; 'I' for Inactive)
    1  A    between atoms: CA   and  CB  
    2  A    between atoms: CB   and  CG  
    3  A    between atoms: CG   and  CD  
    4  A    between atoms: CD   and  CE  

>  <TORSDO>
F 17

>  <BEGIN_>
RES LYS A 131

$$$$
ligand_69_pose_15_2HRL.pdbqt
 OpenBabel07062320523D

  6  5  0  0  0  0  0  0  0  0999 V2000
   33.1930   34.6630    9.2900 C   0  0  0  0  0  0  0  0  0  0  0  0
   32.0600   35.3600   10.0340 C   0  0  0  0  0  0  0  0  0  0  0  0
   30.7960   35.4870    9.2240 C   0  0  0  0  0  0  0  0  0  0  0  0
   30.1400   34.1270    9.0370 C   0  0  0  0  0  0  0  0  0  0  0  0
   28.7400   34.1270    9.6220 C   0  0  0  0  0  0  0  0  0  0  0  0
   28.3890   35.4640   10.1750 N   0  0  0  0  0  0  0  0  0  0  0  0
  1  2  1  0  0  0  0
  3  2  1  0  0  0  0
  4  3  1  0  0  0  0
  4  5  1  0  0  0  0
  5  6  1  0  0  0  0
M  END
>  <EGIN_R>
ES LYS A 135

>  <REMARK>
  4 active torsions:
  status: ('A' for Active; 'I' for Inactive)
    5  A    between atoms: CA   and  CB  
    6  A    between atoms: CB   and  CG  
    7  A    between atoms: CG   and  CD  
    8  A    between atoms: CD   and  CE  

$$$$
