ligand_9_pose_5_2HRL.pdbqt
 OpenBabel07062320523D

 54 55  0  0  1  0  0  0  0  0999 V2000
   16.7420   33.6700    8.9680 N   0  0  0  0  0  0  0  0  0  0  0  0
   16.8830   32.2810    8.7030 C   0  0  0  0  0  0  0  0  0  0  0  0
   17.2660   31.9250    7.5610 O   0  0  0  0  0  0  0  0  0  0  0  0
   16.4240   33.9420    9.9200 H   0  0  0  0  0  0  0  0  0  0  0  0
   17.0250   34.6660    7.9550 C   0  0  0  0  0  0  0  0  0  0  0  0
   18.4520   35.1010    7.9510 C   0  0  2  0  0  0  0  0  0  0  0  0
   18.6310   36.5830    8.0340 C   0  0  1  0  0  0  0  0  0  0  0  0
   20.0380   36.9280    8.5870 C   0  0  2  0  0  0  0  0  0  0  0  0
   22.2070   37.1070    7.9690 C   0  0  2  0  0  0  0  0  0  0  0  0
   22.6670   35.9900    8.8790 C   0  0  0  0  0  0  0  0  0  0  0  0
   20.9360   36.8530    7.5560 O   0  0  0  0  0  0  0  0  0  0  0  0
   21.7660   35.8020   10.0620 C   0  0  1  0  0  0  0  0  0  0  0  0
   20.3200   36.0830    9.7740 C   0  0  1  0  0  0  0  0  0  0  0  0
   23.0350   37.0000    6.8160 O   0  0  0  0  0  0  0  0  0  0  0  0
   22.5590   36.6190    6.0570 H   0  0  0  0  0  0  0  0  0  0  0  0
   22.4570   38.4200    8.5780 C   0  0  0  0  0  0  0  0  0  0  0  0
   23.1380   38.5770    9.6470 O   0  0  0  0  0  0  0  0  0  0  0  0
   21.9190   39.5580    7.9480 O   0  0  0  0  0  0  0  0  0  0  0  0
   20.8950   39.6440    7.9330 H   0  0  0  0  0  0  0  0  0  0  0  0
   21.9490   34.5140   10.5620 O   0  0  0  0  0  0  0  0  0  0  0  0
   22.9010   34.2410   10.5770 H   0  0  0  0  0  0  0  0  0  0  0  0
   19.6410   36.6320   10.9340 N   0  0  0  0  0  0  0  0  0  0  0  0
   18.7000   35.8760   11.6810 C   0  0  0  0  0  0  0  0  0  0  0  0
   19.8690   37.6310   11.2170 H   0  0  0  0  0  0  0  0  0  0  0  0
   18.0440   36.5060   12.8560 C   0  0  0  0  0  0  0  0  0  0  0  0
   18.4140   34.6720   11.3580 O   0  0  0  0  0  0  0  0  0  0  0  0
   18.4710   37.2580    6.8500 O   0  0  0  0  0  0  0  0  0  0  0  0
   19.0770   38.0080    6.7080 H   0  0  0  0  0  0  0  0  0  0  0  0
   19.1480   34.5210    6.8940 O   0  0  0  0  0  0  0  0  0  0  0  0
   19.8310   33.9150    7.2900 H   0  0  0  0  0  0  0  0  0  0  0  0
   16.6240   31.2900    9.6350 O   0  0  0  0  0  0  0  0  0  0  0  0
   16.8790   31.4720   11.0140 C   0  0  0  0  0  0  0  0  0  0  0  0
   18.1070   30.7580   11.4140 C   0  0  0  0  0  0  0  0  0  0  0  0
   19.3540   31.2780   11.7140 C   0  0  0  0  0  0  0  0  0  0  0  0
   18.2510   29.4230   11.5660 N   0  0  0  0  0  0  0  0  0  0  0  0
   20.1930   30.2700   12.0300 N   0  0  0  0  0  0  0  0  0  0  0  0
   19.4750   29.1480   11.9270 N   0  0  0  0  0  0  0  0  0  0  0  0
   21.5540   30.3280   12.4000 C   0  0  0  0  0  0  0  0  0  0  0  0
   22.1530   31.5180   12.7680 C   0  0  0  0  0  0  0  0  0  0  0  0
   22.3400   29.1960   12.4080 C   0  0  0  0  0  0  0  0  0  0  0  0
   23.4800   31.6180   13.1370 C   0  0  0  0  0  0  0  0  0  0  0  0
   23.6810   29.2650   12.7760 C   0  0  0  0  0  0  0  0  0  0  0  0
   24.2350   30.4670   13.1340 C   0  0  0  0  0  0  0  0  0  0  0  0
   24.0850   32.8870   13.5220 C   0  0  0  0  0  0  0  0  0  0  0  0
   24.9070   32.9140   14.4700 O   0  0  0  0  0  0  0  0  0  0  0  0
   23.7910   34.0790   12.8800 O   0  0  0  0  0  0  0  0  0  0  0  0
   23.3620   35.2340   13.5740 C   0  0  0  0  0  0  0  0  0  0  0  0
   21.9510   35.0170   14.0390 C   0  0  0  0  0  0  0  0  0  0  0  0
   29.8670   25.5550   16.9770 C   0  0  0  0  0  0  0  0  0  0  0  0
   28.3450   25.7220   17.0260 C   0  0  0  0  0  0  0  0  0  0  0  0
   27.6020   24.4000   16.9130 C   0  0  0  0  0  0  0  0  0  0  0  0
   26.6470   24.1870   18.0550 C   0  0  0  0  0  0  0  0  0  0  0  0
   26.2830   25.5330   18.6710 C   0  0  0  0  0  0  0  0  0  0  0  0
   24.9170   25.9380   18.2620 N   0  0  0  0  0  0  0  0  0  0  0  0
  1  4  1  0  0  0  0
  2  1  1  0  0  0  0
  2 31  1  0  0  0  0
  3  2  2  0  0  0  0
  5  1  1  0  0  0  0
  6  5  1  6  0  0  0
  6  7  1  0  0  0  0
  7 27  1  6  0  0  0
  8  7  1  6  0  0  0
  8 13  1  0  0  0  0
  9 14  1  6  0  0  0
  9 16  1  0  0  0  0
  9 10  1  0  0  0  0
 10 12  1  0  0  0  0
 11  9  1  0  0  0  0
 11  8  1  0  0  0  0
 12 20  1  6  0  0  0
 13 12  1  0  0  0  0
 13 22  1  1  0  0  0
 15 14  1  0  0  0  0
 16 17  2  0  0  0  0
 18 16  1  0  0  0  0
 19 18  1  0  0  0  0
 20 21  1  0  0  0  0
 22 24  1  0  0  0  0
 22 23  1  0  0  0  0
 23 25  1  0  0  0  0
 26 23  2  0  0  0  0
 28 27  1  0  0  0  0
 29 30  1  0  0  0  0
 29  6  1  0  0  0  0
 31 32  1  0  0  0  0
 32 33  1  0  0  0  0
 33 35  1  0  0  0  0
 33 34  2  0  0  0  0
 34 36  1  0  0  0  0
 35 37  2  0  0  0  0
 36 38  1  0  0  0  0
 37 36  1  0  0  0  0
 38 40  2  0  0  0  0
 38 39  1  0  0  0  0
 39 41  2  0  0  0  0
 40 42  1  0  0  0  0
 41 44  1  0  0  0  0
 42 43  2  0  0  0  0
 43 41  1  0  0  0  0
 44 45  2  0  0  0  0
 46 44  1  0  0  0  0
 46 47  1  0  0  0  0
 47 48  1  0  0  0  0
 49 50  1  0  0  0  0
 51 50  1  0  0  0  0
 51 52  1  0  0  0  0
 52 53  1  0  0  0  0
 54 53  1  0  0  0  0
M  END
>  <REMARK>
 VINA RESULT:    -5.088      7.713     12.340
 INTER + INTRA:         -15.370
 INTER:                  -9.591
 INTRA:                  -5.779
 UNBOUND:                -5.671
 SMILES CCOC(=O)c1cccc(-n2cc(COC(=O)NC[C@@H](O)C(O)[C@@H]3O[C@@](O)(C(=O)O)C[C@H](O)[C@H]3NC(C)=O)nn2)c1
 SMILES IDX 18 1 16 2 17 3 19 5 20 6 22 7 24 8 26 9 31 10 25 11 32 12
 SMILES IDX 34 13 27 14 28 16 29 17 30 18 33 20 35 22 36 23 37 25 38 26
 SMILES IDX 23 27 21 29 15 31 14 32 13 33 12 34 39 35 11 36 40 37 10 38
 SMILES IDX 41 39 9 40 6 41 8 42 7 43 4 44 5 45 3 46 2 47 1 48
 H PARENT 18 4 27 15 30 19 33 21 35 24 23 28 21 30
 Flexibility Score: inf
  4 active torsions:
  status: ('A' for Active; 'I' for Inactive)
    1  A    between atoms: CA   and  CB  
    2  A    between atoms: CB   and  CG  
    3  A    between atoms: CG   and  CD  
    4  A    between atoms: CD   and  CE  

>  <TORSDO>
F 18

>  <BEGIN_>
RES LYS A 131

$$$$
ligand_9_pose_5_2HRL.pdbqt
 OpenBabel07062320523D

  6  5  0  0  0  0  0  0  0  0999 V2000
   33.1930   34.6630    9.2900 C   0  0  0  0  0  0  0  0  0  0  0  0
   32.0600   35.3600   10.0340 C   0  0  0  0  0  0  0  0  0  0  0  0
   30.6930   35.0400    9.4860 C   0  0  0  0  0  0  0  0  0  0  0  0
   29.8850   36.3120    9.2840 C   0  0  0  0  0  0  0  0  0  0  0  0
   29.0400   36.2130    8.0280 C   0  0  0  0  0  0  0  0  0  0  0  0
   28.3790   34.8820    7.9300 N   0  0  0  0  0  0  0  0  0  0  0  0
  1  2  1  0  0  0  0
  3  2  1  0  0  0  0
  4  3  1  0  0  0  0
  5  4  1  0  0  0  0
  6  5  1  0  0  0  0
M  END
>  <EGIN_R>
ES LYS A 135

>  <REMARK>
  4 active torsions:
  status: ('A' for Active; 'I' for Inactive)
    5  A    between atoms: CA   and  CB  
    6  A    between atoms: CB   and  CG  
    7  A    between atoms: CG   and  CD  
    8  A    between atoms: CD   and  CE  

$$$$
