ligand_70_pose_12_2HRL.pdbqt
 OpenBabel07062320523D

 53 55  0  0  1  0  0  0  0  0999 V2000
   23.1090   37.3520    8.8370 C   0  0  0  0  0  0  0  0  0  0  0  0
   24.1300   38.4390    9.0250 C   0  0  2  0  0  0  0  0  0  0  0  0
   25.0730   38.5970    7.8640 C   0  0  1  0  0  0  0  0  0  0  0  0
   25.8680   37.3660    7.5380 C   0  0  2  0  0  0  0  0  0  0  0  0
   27.0940   35.7740    8.6990 C   0  0  2  0  0  0  0  0  0  0  0  0
   27.5650   35.2110    7.3810 C   0  0  0  0  0  0  0  0  0  0  0  0
   25.9160   36.4710    8.5980 O   0  0  0  0  0  0  0  0  0  0  0  0
   27.6930   36.2940    6.3630 C   0  0  1  0  0  0  0  0  0  0  0  0
   27.1900   37.6470    6.9110 C   0  0  1  0  0  0  0  0  0  0  0  0
   28.1420   36.5070    9.2490 O   0  0  0  0  0  0  0  0  0  0  0  0
   27.8520   37.1520    9.9200 H   0  0  0  0  0  0  0  0  0  0  0  0
   26.8530   34.6150    9.6090 C   0  0  0  0  0  0  0  0  0  0  0  0
   27.5560   33.5860    9.4500 O   0  0  0  0  0  0  0  0  0  0  0  0
   25.8940   34.6370   10.6060 O   0  0  0  0  0  0  0  0  0  0  0  0
   25.5940   33.7590   11.0410 H   0  0  0  0  0  0  0  0  0  0  0  0
   29.0290   36.4340    5.9460 O   0  0  0  0  0  0  0  0  0  0  0  0
   29.0630   36.5420    4.9660 H   0  0  0  0  0  0  0  0  0  0  0  0
   26.9670   38.5380    5.7680 N   0  0  0  0  0  0  0  0  0  0  0  0
   27.9450   39.4490    5.2910 C   0  0  0  0  0  0  0  0  0  0  0  0
   26.0580   38.5180    5.2720 H   0  0  0  0  0  0  0  0  0  0  0  0
   27.6990   40.3480    4.1320 C   0  0  0  0  0  0  0  0  0  0  0  0
   29.0700   39.5220    5.8460 O   0  0  0  0  0  0  0  0  0  0  0  0
   24.2960   39.0030    6.7610 O   0  0  0  0  0  0  0  0  0  0  0  0
   24.6480   39.8840    6.4820 H   0  0  0  0  0  0  0  0  0  0  0  0
   24.8400   38.2530   10.2290 O   0  0  0  0  0  0  0  0  0  0  0  0
   25.2530   37.3380   10.1300 H   0  0  0  0  0  0  0  0  0  0  0  0
   23.1660   36.4390    9.9540 N   0  0  0  0  0  0  0  0  0  0  0  0
   22.0420   35.7450   10.4440 C   0  0  0  0  0  0  0  0  0  0  0  0
   24.0740   36.2490   10.4620 H   0  0  0  0  0  0  0  0  0  0  0  0
   20.9110   35.8820    9.9330 O   0  0  0  0  0  0  0  0  0  0  0  0
   22.1180   34.8620   11.5300 O   0  0  0  0  0  0  0  0  0  0  0  0
   22.3520   35.3710   12.8520 C   0  0  0  0  0  0  0  0  0  0  0  0
   23.7760   35.2180   13.2160 C   0  0  0  0  0  0  0  0  0  0  0  0
   24.3680   34.2020   13.8980 C   0  0  0  0  0  0  0  0  0  0  0  0
   24.7320   36.1030   12.9090 N   0  0  0  0  0  0  0  0  0  0  0  0
   25.6920   34.5200   13.9820 N   0  0  0  0  0  0  0  0  0  0  0  0
   25.8890   35.6690   13.3790 N   0  0  0  0  0  0  0  0  0  0  0  0
   26.6960   33.7470   14.6100 C   0  0  0  0  0  0  0  0  0  0  0  0
   26.3220   32.7100   15.4460 C   0  0  0  0  0  0  0  0  0  0  0  0
   28.0200   34.0430   14.3780 C   0  0  0  0  0  0  0  0  0  0  0  0
   27.2750   31.9770   16.0430 N   0  0  0  0  0  0  0  0  0  0  0  0
   28.9930   33.2710   15.0060 C   0  0  0  0  0  0  0  0  0  0  0  0
   28.5950   32.2430   15.8340 C   0  0  0  0  0  0  0  0  0  0  0  0
   30.3100   33.5410   14.7940 C   0  0  0  0  0  0  0  0  0  0  0  0
   29.5570   31.4760   16.4580 C   0  0  0  0  0  0  0  0  0  0  0  0
   31.2890   32.7710   15.4210 C   0  0  0  0  0  0  0  0  0  0  0  0
   30.9060   31.7430   16.2490 C   0  0  0  0  0  0  0  0  0  0  0  0
   29.8670   25.5550   16.9770 C   0  0  0  0  0  0  0  0  0  0  0  0
   28.3450   25.7220   17.0260 C   0  0  0  0  0  0  0  0  0  0  0  0
   27.6020   24.4000   16.9130 C   0  0  0  0  0  0  0  0  0  0  0  0
   26.1670   24.5180   17.3470 C   0  0  0  0  0  0  0  0  0  0  0  0
   26.0040   25.7450   18.2390 C   0  0  0  0  0  0  0  0  0  0  0  0
   24.9360   25.5200   19.2410 N   0  0  0  0  0  0  0  0  0  0  0  0
  1 27  1  0  0  0  0
  2  1  1  6  0  0  0
  2 25  1  0  0  0  0
  3 23  1  6  0  0  0
  3  2  1  0  0  0  0
  4  3  1  1  0  0  0
  4  7  1  0  0  0  0
  5 10  1  1  0  0  0
  5 12  1  0  0  0  0
  6  5  1  0  0  0  0
  7  5  1  0  0  0  0
  8 16  1  1  0  0  0
  8  9  1  0  0  0  0
  8  6  1  0  0  0  0
  9 18  1  6  0  0  0
  9  4  1  0  0  0  0
 10 11  1  0  0  0  0
 12 14  1  0  0  0  0
 13 12  2  0  0  0  0
 14 15  1  0  0  0  0
 17 16  1  0  0  0  0
 19 18  1  0  0  0  0
 19 22  2  0  0  0  0
 20 18  1  0  0  0  0
 21 19  1  0  0  0  0
 24 23  1  0  0  0  0
 26 25  1  0  0  0  0
 27 28  1  0  0  0  0
 27 29  1  0  0  0  0
 28 31  1  0  0  0  0
 30 28  2  0  0  0  0
 31 32  1  0  0  0  0
 32 33  1  0  0  0  0
 33 34  2  0  0  0  0
 34 36  1  0  0  0  0
 35 33  1  0  0  0  0
 35 37  2  0  0  0  0
 36 38  1  0  0  0  0
 37 36  1  0  0  0  0
 38 39  1  0  0  0  0
 39 41  2  0  0  0  0
 40 38  2  0  0  0  0
 40 42  1  0  0  0  0
 42 43  1  0  0  0  0
 43 41  1  0  0  0  0
 43 45  2  0  0  0  0
 44 42  2  0  0  0  0
 44 46  1  0  0  0  0
 46 47  2  0  0  0  0
 47 45  1  0  0  0  0
 48 49  1  0  0  0  0
 50 49  1  0  0  0  0
 50 51  1  0  0  0  0
 51 52  1  0  0  0  0
 52 53  1  0  0  0  0
M  END
>  <REMARK>
 VINA RESULT:    -5.945      7.557     12.489
 INTER + INTRA:         -14.821
 INTER:                 -10.158
 INTRA:                  -4.664
 UNBOUND:                -4.533
 SMILES CC(=O)N[C@@H]1[C@@H](O)C[C@](O)(C(=O)O)O[C@H]1C(O)[C@H](O)CNC(=O)OCc1cn(-c2cnc3ccccc3c2)nn1
 SMILES IDX 20 1 18 2 16 3 15 4 9 5 8 6 14 7 6 8 5 9 10 10 11 12 12 13
 SMILES IDX 13 14 7 16 4 18 2 19 1 21 3 22 17 23 19 25 21 27 22 28 23 30
 SMILES IDX 24 31 25 32 26 33 27 34 40 35 28 36 39 37 29 38 30 39 38 40
 SMILES IDX 31 41 37 42 32 43 36 44 33 45 35 46 34 47
 H PARENT 10 11 13 15 7 17 4 20 17 24 19 26 21 29
 Flexibility Score: inf
  4 active torsions:
  status: ('A' for Active; 'I' for Inactive)
    1  A    between atoms: CA   and  CB  
    2  A    between atoms: CB   and  CG  
    3  A    between atoms: CG   and  CD  
    4  A    between atoms: CD   and  CE  

>  <TORSDO>
F 15

>  <BEGIN_>
RES LYS A 131

$$$$
ligand_70_pose_12_2HRL.pdbqt
 OpenBabel07062320523D

  6  5  0  0  0  0  0  0  0  0999 V2000
   33.1930   34.6630    9.2900 C   0  0  0  0  0  0  0  0  0  0  0  0
   32.0600   35.3600   10.0340 C   0  0  0  0  0  0  0  0  0  0  0  0
   30.8260   34.5090   10.1860 C   0  0  0  0  0  0  0  0  0  0  0  0
   30.0840   34.8640   11.4660 C   0  0  0  0  0  0  0  0  0  0  0  0
   30.5040   36.2330   11.9630 C   0  0  0  0  0  0  0  0  0  0  0  0
   29.4240   36.8660   12.7690 N   0  0  0  0  0  0  0  0  0  0  0  0
  1  2  1  0  0  0  0
  2  3  1  0  0  0  0
  3  4  1  0  0  0  0
  4  5  1  0  0  0  0
  5  6  1  0  0  0  0
M  END
>  <EGIN_R>
ES LYS A 135

>  <REMARK>
  4 active torsions:
  status: ('A' for Active; 'I' for Inactive)
    5  A    between atoms: CA   and  CB  
    6  A    between atoms: CB   and  CG  
    7  A    between atoms: CG   and  CD  
    8  A    between atoms: CD   and  CE  

$$$$
