ligand_57_pose_8_2HRL.pdbqt
 OpenBabel07062320523D

 50 51  0  0  1  0  0  0  0  0999 V2000
   26.8870   30.4510   15.7780 C   0  0  0  0  0  0  0  0  0  0  0  0
   26.9460   29.9720   17.1900 C   0  0  2  0  0  0  0  0  0  0  0  0
   27.6660   30.9410   18.1040 C   0  0  2  0  0  0  0  0  0  0  0  0
   28.5720   30.1760   19.0440 C   0  0  2  0  0  0  0  0  0  0  0  0
   28.6240   28.9270   21.0170 C   0  0  2  0  0  0  0  0  0  0  0  0
   29.8400   29.6680   21.4830 C   0  0  0  0  0  0  0  0  0  0  0  0
   27.8980   29.5280   20.0310 O   0  0  0  0  0  0  0  0  0  0  0  0
   30.6220   30.2290   20.3260 C   0  0  1  0  0  0  0  0  0  0  0  0
   29.6560   31.0920   19.5180 C   0  0  1  0  0  0  0  0  0  0  0  0
   27.8140   28.6770   22.1610 O   0  0  0  0  0  0  0  0  0  0  0  0
   27.5690   29.5200   22.6140 H   0  0  0  0  0  0  0  0  0  0  0  0
   29.0560   27.6020   20.5040 C   0  0  0  0  0  0  0  0  0  0  0  0
   30.0670   27.0400   20.9960 O   0  0  0  0  0  0  0  0  0  0  0  0
   28.4140   26.9090   19.4890 O   0  0  0  0  0  0  0  0  0  0  0  0
   27.4120   26.7180   19.5020 H   0  0  0  0  0  0  0  0  0  0  0  0
   31.6930   31.0150   20.7600 O   0  0  0  0  0  0  0  0  0  0  0  0
   31.4060   31.7480   21.3470 H   0  0  0  0  0  0  0  0  0  0  0  0
   30.4470   31.5620   18.3740 N   0  0  0  0  0  0  0  0  0  0  0  0
   30.5810   32.9300   18.0640 C   0  0  0  0  0  0  0  0  0  0  0  0
   30.9060   30.8380   17.8040 H   0  0  0  0  0  0  0  0  0  0  0  0
   31.3960   33.3940   16.8870 C   0  0  0  0  0  0  0  0  0  0  0  0
   29.9980   33.7690   18.7980 O   0  0  0  0  0  0  0  0  0  0  0  0
   26.7310   31.7010   18.7680 O   0  0  0  0  0  0  0  0  0  0  0  0
   26.7200   32.6290   18.4200 H   0  0  0  0  0  0  0  0  0  0  0  0
   27.6680   28.7550   17.2090 O   0  0  0  0  0  0  0  0  0  0  0  0
   27.8500   28.4680   18.1430 H   0  0  0  0  0  0  0  0  0  0  0  0
   27.2610   31.8490   15.7470 N   0  0  0  0  0  0  0  0  0  0  0  0
   26.5020   32.8700   15.1140 C   0  0  0  0  0  0  0  0  0  0  0  0
   28.1530   32.1990   16.2110 H   0  0  0  0  0  0  0  0  0  0  0  0
   25.4420   32.5710   14.5440 O   0  0  0  0  0  0  0  0  0  0  0  0
   26.9030   34.1990   15.1090 O   0  0  0  0  0  0  0  0  0  0  0  0
   26.5650   35.0500   14.0320 C   0  0  0  0  0  0  0  0  0  0  0  0
   27.4780   34.8300   12.8810 C   0  0  0  0  0  0  0  0  0  0  0  0
   27.1610   34.4750   11.6020 C   0  0  0  0  0  0  0  0  0  0  0  0
   28.8190   34.9460   12.9060 N   0  0  0  0  0  0  0  0  0  0  0  0
   28.2900   34.3810   10.8800 N   0  0  0  0  0  0  0  0  0  0  0  0
   29.2890   34.6790   11.7150 N   0  0  0  0  0  0  0  0  0  0  0  0
   28.3810   34.0290    9.4810 C   0  0  0  0  0  0  0  0  0  0  0  0
   29.7530   34.3290    8.9220 C   0  0  0  0  0  0  0  0  0  0  0  0
   27.2830   34.6650    8.6810 C   0  0  0  0  0  0  0  0  0  0  0  0
   29.9000   35.7700    8.4940 C   0  0  0  0  0  0  0  0  0  0  0  0
   27.5270   36.1030    8.3460 C   0  0  0  0  0  0  0  0  0  0  0  0
   28.7990   36.2310    7.7020 N   0  0  0  0  0  0  0  0  0  0  0  0
   28.7480   35.6340    6.3990 C   0  0  0  0  0  0  0  0  0  0  0  0
   29.8670   25.5550   16.9770 C   0  0  0  0  0  0  0  0  0  0  0  0
   28.3450   25.7220   17.0260 C   0  0  0  0  0  0  0  0  0  0  0  0
   27.5990   24.4200   16.7770 C   0  0  0  0  0  0  0  0  0  0  0  0
   26.8320   23.9660   17.9880 C   0  0  0  0  0  0  0  0  0  0  0  0
   25.6820   24.9320   18.2540 C   0  0  0  0  0  0  0  0  0  0  0  0
   24.6640   24.8340   17.1810 N   0  0  0  0  0  0  0  0  0  0  0  0
  2  1  1  6  0  0  0
  2 25  1  0  0  0  0
  2  3  1  0  0  0  0
  3 23  1  1  0  0  0
  4  3  1  1  0  0  0
  4  9  1  0  0  0  0
  4  7  1  0  0  0  0
  5 12  1  6  0  0  0
  5  6  1  0  0  0  0
  5 10  1  0  0  0  0
  7  5  1  0  0  0  0
  8 16  1  1  0  0  0
  8  6  1  0  0  0  0
  9 18  1  6  0  0  0
  9  8  1  0  0  0  0
 10 11  1  0  0  0  0
 12 13  2  0  0  0  0
 14 15  1  0  0  0  0
 14 12  1  0  0  0  0
 16 17  1  0  0  0  0
 19 18  1  0  0  0  0
 19 22  2  0  0  0  0
 20 18  1  0  0  0  0
 21 19  1  0  0  0  0
 24 23  1  0  0  0  0
 25 26  1  0  0  0  0
 27  1  1  0  0  0  0
 27 29  1  0  0  0  0
 28 27  1  0  0  0  0
 30 28  2  0  0  0  0
 31 28  1  0  0  0  0
 32 31  1  0  0  0  0
 33 35  1  0  0  0  0
 33 32  1  0  0  0  0
 34 33  2  0  0  0  0
 36 34  1  0  0  0  0
 36 37  1  0  0  0  0
 37 35  2  0  0  0  0
 38 36  1  0  0  0  0
 39 38  1  0  0  0  0
 40 38  1  0  0  0  0
 41 39  1  0  0  0  0
 42 40  1  0  0  0  0
 43 42  1  0  0  0  0
 43 41  1  0  0  0  0
 44 43  1  0  0  0  0
 45 46  1  0  0  0  0
 47 46  1  0  0  0  0
 47 48  1  0  0  0  0
 48 49  1  0  0  0  0
 50 49  1  0  0  0  0
M  END
>  <REMARK>
 VINA RESULT:    -4.497      2.498      5.831
 INTER + INTRA:         -13.569
 INTER:                  -9.793
 INTRA:                  -3.776
 UNBOUND:                -5.786
 SMILES CC(=O)N[C@@H]1[C@@H](O)C[C@](O)(C(=O)O)O[C@H]1C(O)[C@H](O)CNC(=O)OCc1cn(C2CCN(C)CC2)nn1
 SMILES IDX 20 1 18 2 16 3 15 4 9 5 8 6 14 7 6 8 5 9 10 10 11 12 12 13
 SMILES IDX 13 14 7 16 4 18 2 19 1 21 3 22 17 23 19 25 21 27 22 28 23 30
 SMILES IDX 24 31 25 32 26 33 27 34 37 35 28 36 36 37 29 38 30 39 35 40
 SMILES IDX 31 41 34 42 32 43 33 44
 H PARENT 10 11 13 15 7 17 4 20 17 24 19 26 21 29
 Flexibility Score: inf
  4 active torsions:
  status: ('A' for Active; 'I' for Inactive)
    1  A    between atoms: CA   and  CB  
    2  A    between atoms: CB   and  CG  
    3  A    between atoms: CG   and  CD  
    4  A    between atoms: CD   and  CE  

>  <TORSDO>
F 15

>  <BEGIN_>
RES LYS A 131

$$$$
ligand_57_pose_8_2HRL.pdbqt
 OpenBabel07062320523D

  6  5  0  0  0  0  0  0  0  0999 V2000
   33.1930   34.6630    9.2900 C   0  0  0  0  0  0  0  0  0  0  0  0
   32.0600   35.3600   10.0340 C   0  0  0  0  0  0  0  0  0  0  0  0
   32.5060   36.0620   11.2900 C   0  0  0  0  0  0  0  0  0  0  0  0
   31.9030   37.4560   11.3700 C   0  0  0  0  0  0  0  0  0  0  0  0
   31.3340   37.7120   12.7520 C   0  0  0  0  0  0  0  0  0  0  0  0
   31.9410   36.7980   13.7600 N   0  0  0  0  0  0  0  0  0  0  0  0
  1  2  1  0  0  0  0
  2  3  1  0  0  0  0
  3  4  1  0  0  0  0
  4  5  1  0  0  0  0
  5  6  1  0  0  0  0
M  END
>  <EGIN_R>
ES LYS A 135

>  <REMARK>
  4 active torsions:
  status: ('A' for Active; 'I' for Inactive)
    5  A    between atoms: CA   and  CB  
    6  A    between atoms: CB   and  CG  
    7  A    between atoms: CG   and  CD  
    8  A    between atoms: CD   and  CE  

$$$$
