ligand_45_pose_8_2HRL.pdbqt
 OpenBabel07062320523D

 52 52  0  0  1  0  0  0  0  0999 V2000
   30.2650   32.3470   18.8040 O   0  0  0  0  0  0  0  0  0  0  0  0
   30.7620   31.5240   19.7940 C   0  0  0  0  0  0  0  0  0  0  0  0
   30.8350   30.1030   19.6390 N   0  0  0  0  0  0  0  0  0  0  0  0
   30.5040   29.7310   18.7420 H   0  0  0  0  0  0  0  0  0  0  0  0
   31.1610   32.0420   20.8630 O   0  0  0  0  0  0  0  0  0  0  0  0
   31.3580   29.3250   20.7010 C   0  0  0  0  0  0  0  0  0  0  0  0
   31.0450   27.8660   20.6830 C   0  0  2  0  0  0  0  0  0  0  0  0
   29.9430   27.4260   21.5950 C   0  0  1  0  0  0  0  0  0  0  0  0
   28.5840   27.3650   20.9650 C   0  0  2  0  0  0  0  0  0  0  0  0
   27.2410   28.4340   19.4360 C   0  0  2  0  0  0  0  0  0  0  0  0
   26.4640   27.1470   19.6430 C   0  0  0  0  0  0  0  0  0  0  0  0
   28.4420   28.4250   20.1030 O   0  0  0  0  0  0  0  0  0  0  0  0
   26.1850   26.9260   21.0970 C   0  0  1  0  0  0  0  0  0  0  0  0
   27.4320   27.2920   21.9050 C   0  0  1  0  0  0  0  0  0  0  0  0
   26.4530   29.4770   19.9570 O   0  0  0  0  0  0  0  0  0  0  0  0
   26.0430   29.1160   20.7850 H   0  0  0  0  0  0  0  0  0  0  0  0
   27.4390   28.6710   17.9970 C   0  0  0  0  0  0  0  0  0  0  0  0
   26.7670   28.0240   17.1460 O   0  0  0  0  0  0  0  0  0  0  0  0
   28.3520   29.5960   17.5350 O   0  0  0  0  0  0  0  0  0  0  0  0
   28.8080   29.4810   16.6500 H   0  0  0  0  0  0  0  0  0  0  0  0
   25.1050   27.7360   21.4750 O   0  0  0  0  0  0  0  0  0  0  0  0
   24.4250   27.7250   20.7660 H   0  0  0  0  0  0  0  0  0  0  0  0
   27.5780   26.1890   22.8610 N   0  0  0  0  0  0  0  0  0  0  0  0
   27.1180   26.3280   24.1920 C   0  0  0  0  0  0  0  0  0  0  0  0
   28.0270   25.3000   22.5430 H   0  0  0  0  0  0  0  0  0  0  0  0
   27.2770   25.1940   25.1570 C   0  0  0  0  0  0  0  0  0  0  0  0
   26.5630   27.3830   24.6290 O   0  0  0  0  0  0  0  0  0  0  0  0
   30.2810   26.1820   22.1490 O   0  0  0  0  0  0  0  0  0  0  0  0
   29.6500   25.5110   21.7690 H   0  0  0  0  0  0  0  0  0  0  0  0
   32.2410   27.1930   21.0160 O   0  0  0  0  0  0  0  0  0  0  0  0
   33.0290   27.6110   20.6140 H   0  0  0  0  0  0  0  0  0  0  0  0
   29.1760   33.2080   19.1080 C   0  0  0  0  0  0  0  0  0  0  0  0
   27.9650   32.7650   18.3810 C   0  0  0  0  0  0  0  0  0  0  0  0
   27.6280   32.9140   17.0530 C   0  0  0  0  0  0  0  0  0  0  0  0
   26.9200   32.1040   18.9240 N   0  0  0  0  0  0  0  0  0  0  0  0
   26.4220   32.3590   16.8180 N   0  0  0  0  0  0  0  0  0  0  0  0
   26.0290   31.8800   17.9800 N   0  0  0  0  0  0  0  0  0  0  0  0
   25.6840   32.2830   15.6000 C   0  0  0  0  0  0  0  0  0  0  0  0
   25.5900   30.9200   15.0300 C   0  0  0  0  0  0  0  0  0  0  0  0
   24.3690   30.5400   14.3010 C   0  0  0  0  0  0  0  0  0  0  0  0
   23.2990   29.9100   14.9580 N   0  0  0  0  0  0  0  0  0  0  0  0
   22.2780   30.7590   15.5100 C   0  0  0  0  0  0  0  0  0  0  0  0
   22.6020   29.1180   13.9250 C   0  0  0  0  0  0  0  0  0  0  0  0
   23.3780   28.9150   12.6820 C   0  0  0  0  0  0  0  0  0  0  0  0
   23.7030   28.9740   15.9700 C   0  0  0  0  0  0  0  0  0  0  0  0
   23.3120   29.3340   17.3570 C   0  0  0  0  0  0  0  0  0  0  0  0
   29.8670   25.5550   16.9770 C   0  0  0  0  0  0  0  0  0  0  0  0
   28.3450   25.7220   17.0260 C   0  0  0  0  0  0  0  0  0  0  0  0
   27.6010   24.4030   16.8880 C   0  0  0  0  0  0  0  0  0  0  0  0
   26.1520   24.5270   17.2700 C   0  0  0  0  0  0  0  0  0  0  0  0
   25.7900   23.4230   18.2570 C   0  0  0  0  0  0  0  0  0  0  0  0
   24.9050   22.4220   17.6150 N   0  0  0  0  0  0  0  0  0  0  0  0
  1 32  1  0  0  0  0
  1  2  1  0  0  0  0
  2  5  2  0  0  0  0
  3  2  1  0  0  0  0
  3  6  1  0  0  0  0
  4  3  1  0  0  0  0
  7  6  1  1  0  0  0
  7 30  1  0  0  0  0
  7  8  1  0  0  0  0
  8 28  1  6  0  0  0
  9  8  1  1  0  0  0
  9 14  1  0  0  0  0
 10 17  1  6  0  0  0
 10 11  1  0  0  0  0
 10 15  1  0  0  0  0
 10 12  1  0  0  0  0
 11 13  1  0  0  0  0
 12  9  1  0  0  0  0
 13 21  1  1  0  0  0
 13 14  1  0  0  0  0
 14 23  1  1  0  0  0
 15 16  1  0  0  0  0
 18 17  2  0  0  0  0
 19 17  1  0  0  0  0
 20 19  1  0  0  0  0
 22 21  1  0  0  0  0
 23 24  1  0  0  0  0
 24 27  2  0  0  0  0
 24 26  1  0  0  0  0
 25 23  1  0  0  0  0
 29 28  1  0  0  0  0
 31 30  1  0  0  0  0
 33 35  1  0  0  0  0
 33 32  1  0  0  0  0
 34 33  2  0  0  0  0
 36 34  1  0  0  0  0
 36 37  1  0  0  0  0
 37 35  2  0  0  0  0
 38 36  1  0  0  0  0
 39 38  1  0  0  0  0
 40 41  1  0  0  0  0
 40 39  1  0  0  0  0
 41 42  1  0  0  0  0
 41 45  1  0  0  0  0
 43 41  1  0  0  0  0
 44 43  1  0  0  0  0
 45 46  1  0  0  0  0
 47 48  1  0  0  0  0
 49 48  1  0  0  0  0
 49 50  1  0  0  0  0
 50 51  1  0  0  0  0
 52 51  1  0  0  0  0
M  END
>  <REMARK>
 VINA RESULT:    -4.184      3.142      6.844
 INTER + INTRA:         -14.339
 INTER:                  -7.699
 INTRA:                  -6.641
 UNBOUND:                -5.875
 SMILES CC[N+](C)(CC)CCCn1cc(COC(=O)NC[C@@H](O)C(O)[C@@H]2O[C@@](O)(C(=O)O)C[C@H](O)[C@H]2NC(C)=O)nn1
 SMILES IDX 14 1 15 2 17 3 16 5 18 6 19 7 21 8 23 9 25 10 30 11 24 12
 SMILES IDX 31 13 33 14 26 15 27 17 28 18 29 19 32 21 34 23 35 24 36 26
 SMILES IDX 37 27 22 28 20 30 13 32 12 33 11 34 38 35 10 36 39 37 9 38
 SMILES IDX 8 39 7 40 3 41 4 42 2 43 1 44 5 45 6 46
 H PARENT 17 4 26 16 29 20 32 22 34 25 22 29 20 31
 Flexibility Score: inf
  4 active torsions:
  status: ('A' for Active; 'I' for Inactive)
    1  A    between atoms: CA   and  CB  
    2  A    between atoms: CB   and  CG  
    3  A    between atoms: CG   and  CD  
    4  A    between atoms: CD   and  CE  

>  <TORSDO>
F 20

>  <BEGIN_>
RES LYS A 131

$$$$
ligand_45_pose_8_2HRL.pdbqt
 OpenBabel07062320523D

  6  5  0  0  0  0  0  0  0  0999 V2000
   33.1930   34.6630    9.2900 C   0  0  0  0  0  0  0  0  0  0  0  0
   32.0600   35.3600   10.0340 C   0  0  0  0  0  0  0  0  0  0  0  0
   30.7900   35.4710    9.2300 C   0  0  0  0  0  0  0  0  0  0  0  0
   30.2060   34.0940    8.9560 C   0  0  0  0  0  0  0  0  0  0  0  0
   28.6920   34.1330    9.0290 C   0  0  0  0  0  0  0  0  0  0  0  0
   28.2270   34.2900   10.4350 N   0  0  0  0  0  0  0  0  0  0  0  0
  1  2  1  0  0  0  0
  3  2  1  0  0  0  0
  4  5  1  0  0  0  0
  4  3  1  0  0  0  0
  5  6  1  0  0  0  0
M  END
>  <EGIN_R>
ES LYS A 135

>  <REMARK>
  4 active torsions:
  status: ('A' for Active; 'I' for Inactive)
    5  A    between atoms: CA   and  CB  
    6  A    between atoms: CB   and  CG  
    7  A    between atoms: CG   and  CD  
    8  A    between atoms: CD   and  CE  

$$$$
