ligand_79_pose_13_2HRL.pdbqt
 OpenBabel07062320523D

 58 60  0  0  1  0  0  0  0  0999 V2000
   26.1130   38.0060   15.0070 N   0  0  0  0  0  0  0  0  0  0  0  0
   27.0020   39.0340   14.6130 C   0  0  0  0  0  0  0  0  0  0  0  0
   28.1490   39.0930   15.0610 O   0  0  0  0  0  0  0  0  0  0  0  0
   25.1410   38.0450   14.5490 H   0  0  0  0  0  0  0  0  0  0  0  0
   26.4000   36.9520   15.9410 C   0  0  0  0  0  0  0  0  0  0  0  0
   26.7380   35.6340   15.3490 C   0  0  2  0  0  0  0  0  0  0  0  0
   28.2150   35.4710   15.0280 C   0  0  1  0  0  0  0  0  0  0  0  0
   28.5790   34.0260   14.7990 C   0  0  2  0  0  0  0  0  0  0  0  0
   28.3900   32.6370   16.6440 C   0  0  2  0  0  0  0  0  0  0  0  0
   29.6560   31.8640   16.3410 C   0  0  0  0  0  0  0  0  0  0  0  0
   27.8030   33.1420   15.4910 O   0  0  0  0  0  0  0  0  0  0  0  0
   30.2570   32.2790   15.0140 C   0  0  1  0  0  0  0  0  0  0  0  0
   30.0690   33.7960   14.9370 C   0  0  1  0  0  0  0  0  0  0  0  0
   28.5920   33.6470   17.5830 O   0  0  0  0  0  0  0  0  0  0  0  0
   29.5300   33.9920   17.5380 H   0  0  0  0  0  0  0  0  0  0  0  0
   27.4260   31.6760   17.2420 C   0  0  0  0  0  0  0  0  0  0  0  0
   27.5900   31.2930   18.4440 O   0  0  0  0  0  0  0  0  0  0  0  0
   26.3450   31.1650   16.5620 O   0  0  0  0  0  0  0  0  0  0  0  0
   25.8130   31.6960   15.8840 H   0  0  0  0  0  0  0  0  0  0  0  0
   31.5810   31.9280   14.9020 O   0  0  0  0  0  0  0  0  0  0  0  0
   31.7940   31.2840   15.6490 H   0  0  0  0  0  0  0  0  0  0  0  0
   30.7550   34.3550   13.8040 N   0  0  0  0  0  0  0  0  0  0  0  0
   32.0320   35.0080   13.9320 C   0  0  0  0  0  0  0  0  0  0  0  0
   30.3750   34.3260   12.8260 H   0  0  0  0  0  0  0  0  0  0  0  0
   32.7630   35.5900   12.8060 C   0  0  0  0  0  0  0  0  0  0  0  0
   32.5170   35.0580   15.1080 O   0  0  0  0  0  0  0  0  0  0  0  0
   28.4230   36.1980   13.8520 O   0  0  0  0  0  0  0  0  0  0  0  0
   28.5910   35.6280   13.0770 H   0  0  0  0  0  0  0  0  0  0  0  0
   26.0550   35.4350   14.1640 O   0  0  0  0  0  0  0  0  0  0  0  0
   25.1650   35.8640   14.2540 H   0  0  0  0  0  0  0  0  0  0  0  0
   26.6270   40.0250   13.7020 O   0  0  0  0  0  0  0  0  0  0  0  0
   26.7680   39.8260   12.3260 C   0  0  0  0  0  0  0  0  0  0  0  0
   26.1990   38.5120   11.9300 C   0  0  0  0  0  0  0  0  0  0  0  0
   24.8910   38.2740   11.5360 C   0  0  0  0  0  0  0  0  0  0  0  0
   26.7990   37.3060   11.8640 N   0  0  0  0  0  0  0  0  0  0  0  0
   24.7430   36.9640   11.2520 N   0  0  0  0  0  0  0  0  0  0  0  0
   25.9220   36.4040   11.4620 N   0  0  0  0  0  0  0  0  0  0  0  0
   23.5020   36.3090   10.7970 C   0  0  0  0  0  0  0  0  0  0  0  0
   23.2130   35.1430   11.6790 C   0  0  0  0  0  0  0  0  0  0  0  0
   22.4330   37.4040   10.9730 C   0  0  0  0  0  0  0  0  0  0  0  0
   23.6520   36.0330    9.3700 C   0  0  0  0  0  0  0  0  0  0  0  0
   22.9400   35.1370    8.7950 O   0  0  0  0  0  0  0  0  0  0  0  0
   24.5870   36.7080    8.4780 C   0  0  0  0  0  0  0  0  0  0  0  0
   24.3840   37.9670    7.9150 C   0  0  0  0  0  0  0  0  0  0  0  0
   25.7820   36.1960    8.0440 C   0  0  0  0  0  0  0  0  0  0  0  0
   25.4460   38.2090    7.1500 N   0  0  0  0  0  0  0  0  0  0  0  0
   26.3120   37.1740    7.1970 C   0  0  0  0  0  0  0  0  0  0  0  0
   26.4900   35.0200    8.2740 C   0  0  0  0  0  0  0  0  0  0  0  0
   25.6020   39.0620    6.5940 H   0  0  0  0  0  0  0  0  0  0  0  0
   27.5370   36.9310    6.6070 C   0  0  0  0  0  0  0  0  0  0  0  0
   27.6970   34.8130    7.6740 C   0  0  0  0  0  0  0  0  0  0  0  0
   28.2190   35.7620    6.8450 C   0  0  0  0  0  0  0  0  0  0  0  0
   29.8670   25.5550   16.9770 C   0  0  0  0  0  0  0  0  0  0  0  0
   28.3450   25.7220   17.0260 C   0  0  0  0  0  0  0  0  0  0  0  0
   27.5990   24.4360   16.7030 C   0  0  0  0  0  0  0  0  0  0  0  0
   27.0190   23.7940   17.9330 C   0  0  0  0  0  0  0  0  0  0  0  0
   25.6540   24.4060   18.2310 C   0  0  0  0  0  0  0  0  0  0  0  0
   24.7810   24.3340   17.0350 N   0  0  0  0  0  0  0  0  0  0  0  0
  1  5  1  0  0  0  0
  2  1  1  0  0  0  0
  2  3  2  0  0  0  0
  4  1  1  0  0  0  0
  6  5  1  6  0  0  0
  7 27  1  6  0  0  0
  7  6  1  0  0  0  0
  8 13  1  0  0  0  0
  8  7  1  1  0  0  0
  8 11  1  0  0  0  0
  9 16  1  1  0  0  0
  9 14  1  0  0  0  0
 10  9  1  0  0  0  0
 11  9  1  0  0  0  0
 12 20  1  1  0  0  0
 12 10  1  0  0  0  0
 13 22  1  6  0  0  0
 13 12  1  0  0  0  0
 15 14  1  0  0  0  0
 16 17  2  0  0  0  0
 18 16  1  0  0  0  0
 19 18  1  0  0  0  0
 20 21  1  0  0  0  0
 22 23  1  0  0  0  0
 23 26  2  0  0  0  0
 24 22  1  0  0  0  0
 25 23  1  0  0  0  0
 28 27  1  0  0  0  0
 29 30  1  0  0  0  0
 29  6  1  0  0  0  0
 31  2  1  0  0  0  0
 32 31  1  0  0  0  0
 33 32  1  0  0  0  0
 34 33  2  0  0  0  0
 35 33  1  0  0  0  0
 36 37  1  0  0  0  0
 36 34  1  0  0  0  0
 37 35  2  0  0  0  0
 38 40  1  0  0  0  0
 38 36  1  0  0  0  0
 38 39  1  0  0  0  0
 41 38  1  0  0  0  0
 42 41  2  0  0  0  0
 43 41  1  0  0  0  0
 44 43  2  0  0  0  0
 45 48  1  0  0  0  0
 45 43  1  0  0  0  0
 46 47  1  0  0  0  0
 46 44  1  0  0  0  0
 47 45  2  0  0  0  0
 49 46  1  0  0  0  0
 50 52  2  0  0  0  0
 50 47  1  0  0  0  0
 51 48  2  0  0  0  0
 52 51  1  0  0  0  0
 53 54  1  0  0  0  0
 55 54  1  0  0  0  0
 55 56  1  0  0  0  0
 56 57  1  0  0  0  0
 58 57  1  0  0  0  0
M  END
>  <REMARK>
 VINA RESULT:    -5.959      2.605      8.177
 INTER + INTRA:         -15.788
 INTER:                 -10.010
 INTRA:                  -5.778
 UNBOUND:                -4.777
 SMILES CC(=O)N[C@@H]1[C@@H](O)C[C@](O)(C(=O)O)O[C@H]1C(O)[C@H](O)CNC(=O)OCc1cn(C(C)(C)C(=O)c2c[nH]c3ccccc23)nn1
 SMILES IDX 21 1 22 2 23 3 20 5 18 6 16 7 15 8 9 9 8 10 14 11 6 12 5 13
 SMILES IDX 10 14 11 16 12 17 13 18 7 20 4 22 2 23 1 25 3 26 17 27 19 29
 SMILES IDX 24 31 25 32 26 33 27 34 44 35 28 36 43 37 29 38 30 39 31 40
 SMILES IDX 32 41 33 42 34 43 35 44 42 45 36 46 37 47 41 48 38 50 40 51
 SMILES IDX 39 52
 H PARENT 21 4 10 15 13 19 7 21 4 24 17 28 19 30 36 49
 Flexibility Score: inf
  4 active torsions:
  status: ('A' for Active; 'I' for Inactive)
    1  A    between atoms: CA   and  CB  
    2  A    between atoms: CB   and  CG  
    3  A    between atoms: CG   and  CD  
    4  A    between atoms: CD   and  CE  

>  <TORSDO>
F 17

>  <BEGIN_>
RES LYS A 131

$$$$
ligand_79_pose_13_2HRL.pdbqt
 OpenBabel07062320523D

  6  5  0  0  0  0  0  0  0  0999 V2000
   33.1930   34.6630    9.2900 C   0  0  0  0  0  0  0  0  0  0  0  0
   32.0600   35.3600   10.0340 C   0  0  0  0  0  0  0  0  0  0  0  0
   30.7140   34.7180    9.8190 C   0  0  0  0  0  0  0  0  0  0  0  0
   29.6040   35.6010   10.3700 C   0  0  0  0  0  0  0  0  0  0  0  0
   30.0750   37.0380   10.4850 C   0  0  0  0  0  0  0  0  0  0  0  0
   29.2550   37.9410    9.6310 N   0  0  0  0  0  0  0  0  0  0  0  0
  1  2  1  0  0  0  0
  3  2  1  0  0  0  0
  3  4  1  0  0  0  0
  4  5  1  0  0  0  0
  6  5  1  0  0  0  0
M  END
>  <EGIN_R>
ES LYS A 135

>  <REMARK>
  4 active torsions:
  status: ('A' for Active; 'I' for Inactive)
    5  A    between atoms: CA   and  CB  
    6  A    between atoms: CB   and  CG  
    7  A    between atoms: CG   and  CD  
    8  A    between atoms: CD   and  CE  

$$$$
