ligand_0_pose_11_2HRL.pdbqt
 OpenBabel07062320523D

 54 55  0  0  1  0  0  0  0  0999 V2000
   26.5580   35.8800   11.1850 N   0  0  0  0  0  0  0  0  0  0  0  0
   27.6110   36.7420   11.5890 C   0  0  0  0  0  0  0  0  0  0  0  0
   27.4530   37.9730   11.4980 O   0  0  0  0  0  0  0  0  0  0  0  0
   26.7590   34.8440   11.2880 H   0  0  0  0  0  0  0  0  0  0  0  0
   25.2870   36.3190   10.6660 C   0  0  0  0  0  0  0  0  0  0  0  0
   25.0360   35.8280    9.2510 C   0  0  2  0  0  0  0  0  0  0  0  0
   25.4750   36.8290    8.2240 C   0  0  1  0  0  0  0  0  0  0  0  0
   26.7320   36.4860    7.5190 C   0  0  2  0  0  0  0  0  0  0  0  0
   28.9010   35.7970    8.0620 C   0  0  2  0  0  0  0  0  0  0  0  0
   28.9820   35.6230    6.5740 C   0  0  0  0  0  0  0  0  0  0  0  0
   27.6700   36.1340    8.5260 O   0  0  0  0  0  0  0  0  0  0  0  0
   28.3940   36.7470    5.7920 C   0  0  1  0  0  0  0  0  0  0  0  0
   27.3940   37.4930    6.6690 C   0  0  1  0  0  0  0  0  0  0  0  0
   29.9050   36.7040    8.4750 O   0  0  0  0  0  0  0  0  0  0  0  0
   29.5150   37.6250    8.4190 H   0  0  0  0  0  0  0  0  0  0  0  0
   29.2760   34.4860    8.6680 C   0  0  0  0  0  0  0  0  0  0  0  0
   28.3490   33.7620    9.1430 O   0  0  0  0  0  0  0  0  0  0  0  0
   30.5700   34.0180    8.7410 O   0  0  0  0  0  0  0  0  0  0  0  0
   30.7950   33.1820    9.2570 H   0  0  0  0  0  0  0  0  0  0  0  0
   29.4140   37.5830    5.3660 O   0  0  0  0  0  0  0  0  0  0  0  0
   30.1420   37.6910    6.0280 H   0  0  0  0  0  0  0  0  0  0  0  0
   26.6060   38.4140    5.9450 N   0  0  0  0  0  0  0  0  0  0  0  0
   26.7130   39.8080    6.1340 C   0  0  0  0  0  0  0  0  0  0  0  0
   25.9290   38.0890    5.2260 H   0  0  0  0  0  0  0  0  0  0  0  0
   25.9150   40.8150    5.4050 C   0  0  0  0  0  0  0  0  0  0  0  0
   27.5410   40.2190    6.9760 O   0  0  0  0  0  0  0  0  0  0  0  0
   24.4670   37.3950    7.4790 O   0  0  0  0  0  0  0  0  0  0  0  0
   24.8460   38.1050    6.8770 H   0  0  0  0  0  0  0  0  0  0  0  0
   23.7810   35.3130    9.0880 O   0  0  0  0  0  0  0  0  0  0  0  0
   23.0990   35.8670    9.5590 H   0  0  0  0  0  0  0  0  0  0  0  0
   28.8170   36.2610   12.0850 O   0  0  0  0  0  0  0  0  0  0  0  0
   29.0870   34.8750   12.2000 C   0  0  0  0  0  0  0  0  0  0  0  0
   28.7410   34.3920   13.5710 C   0  0  0  0  0  0  0  0  0  0  0  0
   29.6230   33.8140   14.4650 C   0  0  0  0  0  0  0  0  0  0  0  0
   27.5490   34.4240   14.1850 N   0  0  0  0  0  0  0  0  0  0  0  0
   28.9200   33.5160   15.5980 N   0  0  0  0  0  0  0  0  0  0  0  0
   27.6900   33.8910   15.3990 N   0  0  0  0  0  0  0  0  0  0  0  0
   29.4720   32.8940   16.7640 C   0  0  0  0  0  0  0  0  0  0  0  0
   29.1540   31.6060   17.1250 C   0  0  0  0  0  0  0  0  0  0  0  0
   30.3560   33.6360   17.5410 C   0  0  0  0  0  0  0  0  0  0  0  0
   29.7360   31.0700   18.2780 C   0  0  0  0  0  0  0  0  0  0  0  0
   30.9160   33.0920   18.6710 C   0  0  0  0  0  0  0  0  0  0  0  0
   30.5990   31.8090   19.0300 C   0  0  0  0  0  0  0  0  0  0  0  0
   28.2390   30.7760   16.3570 C   0  0  0  0  0  0  0  0  0  0  0  0
   28.7510   29.9300   15.5540 O   0  0  0  0  0  0  0  0  0  0  0  0
   26.8270   30.8750   16.4690 N   0  0  0  0  0  0  0  0  0  0  0  0
   26.3110   30.5460   17.3000 H   0  0  0  0  0  0  0  0  0  0  0  0
   26.3170   31.3040   15.6390 H   0  0  0  0  0  0  0  0  0  0  0  0
   29.8670   25.5550   16.9770 C   0  0  0  0  0  0  0  0  0  0  0  0
   28.3450   25.7220   17.0260 C   0  0  0  0  0  0  0  0  0  0  0  0
   27.6000   24.4090   16.8380 C   0  0  0  0  0  0  0  0  0  0  0  0
   26.6090   24.1570   17.9400 C   0  0  0  0  0  0  0  0  0  0  0  0
   25.2370   23.8740   17.3360 C   0  0  0  0  0  0  0  0  0  0  0  0
   24.8770   22.4470   17.5150 N   0  0  0  0  0  0  0  0  0  0  0  0
  1  4  1  0  0  0  0
  1  2  1  0  0  0  0
  2 31  1  0  0  0  0
  3  2  2  0  0  0  0
  5  1  1  0  0  0  0
  6  5  1  1  0  0  0
  7 27  1  6  0  0  0
  7  6  1  0  0  0  0
  8  7  1  1  0  0  0
  8 11  1  0  0  0  0
  9 14  1  1  0  0  0
  9 11  1  0  0  0  0
  9 16  1  0  0  0  0
 10  9  1  0  0  0  0
 12 20  1  1  0  0  0
 12 10  1  0  0  0  0
 12 13  1  0  0  0  0
 13 22  1  6  0  0  0
 13  8  1  0  0  0  0
 15 14  1  0  0  0  0
 16 18  1  0  0  0  0
 16 17  2  0  0  0  0
 18 19  1  0  0  0  0
 20 21  1  0  0  0  0
 22 23  1  0  0  0  0
 23 26  2  0  0  0  0
 24 22  1  0  0  0  0
 25 23  1  0  0  0  0
 28 27  1  0  0  0  0
 29  6  1  0  0  0  0
 29 30  1  0  0  0  0
 31 32  1  0  0  0  0
 32 33  1  0  0  0  0
 33 35  1  0  0  0  0
 33 34  2  0  0  0  0
 34 36  1  0  0  0  0
 35 37  2  0  0  0  0
 36 38  1  0  0  0  0
 37 36  1  0  0  0  0
 38 39  2  0  0  0  0
 38 40  1  0  0  0  0
 39 41  1  0  0  0  0
 40 42  2  0  0  0  0
 41 43  2  0  0  0  0
 42 43  1  0  0  0  0
 44 46  1  0  0  0  0
 44 39  1  0  0  0  0
 45 44  2  0  0  0  0
 46 47  1  0  0  0  0
 48 46  1  0  0  0  0
 49 50  1  0  0  0  0
 51 50  1  0  0  0  0
 51 52  1  0  0  0  0
 53 54  1  0  0  0  0
 53 52  1  0  0  0  0
M  END
>  <REMARK>
 VINA RESULT:    -5.249      5.869     11.794
 INTER + INTRA:         -14.805
 INTER:                 -10.751
 INTRA:                  -4.055
 UNBOUND:                -5.414
 SMILES CC(=O)N[C@@H]1[C@@H](O)C[C@](O)(C(=O)O)O[C@H]1C(O)[C@H](O)CNC(=O)OCc1cn(-c2ccccc2C(N)=O)nn1
 SMILES IDX 21 1 22 2 23 3 20 5 18 6 16 7 15 8 9 9 8 10 14 11 6 12 5 13
 SMILES IDX 10 14 11 16 12 17 13 18 7 20 4 22 2 23 1 25 3 26 17 27 19 29
 SMILES IDX 24 31 25 32 26 33 27 34 39 35 28 36 38 37 29 38 34 39 30 40
 SMILES IDX 33 41 31 42 32 43 35 44 37 45 36 46
 H PARENT 21 4 10 15 13 19 7 21 4 24 17 28 19 30 36 47 36 48
 Flexibility Score: inf
  4 active torsions:
  status: ('A' for Active; 'I' for Inactive)
    1  A    between atoms: CA   and  CB  
    2  A    between atoms: CB   and  CG  
    3  A    between atoms: CG   and  CD  
    4  A    between atoms: CD   and  CE  

>  <TORSDO>
F 16

>  <BEGIN_>
RES LYS A 131

$$$$
ligand_0_pose_11_2HRL.pdbqt
 OpenBabel07062320523D

  6  5  0  0  0  0  0  0  0  0999 V2000
   33.1930   34.6630    9.2900 C   0  0  0  0  0  0  0  0  0  0  0  0
   32.0600   35.3600   10.0340 C   0  0  0  0  0  0  0  0  0  0  0  0
   32.4910   35.9930   11.3320 C   0  0  0  0  0  0  0  0  0  0  0  0
   32.1030   37.4640   11.3660 C   0  0  0  0  0  0  0  0  0  0  0  0
   31.5780   37.8440   12.7380 C   0  0  0  0  0  0  0  0  0  0  0  0
   31.9380   36.8160   13.7530 N   0  0  0  0  0  0  0  0  0  0  0  0
  1  2  1  0  0  0  0
  2  3  1  0  0  0  0
  3  4  1  0  0  0  0
  4  5  1  0  0  0  0
  5  6  1  0  0  0  0
M  END
>  <EGIN_R>
ES LYS A 135

>  <REMARK>
  4 active torsions:
  status: ('A' for Active; 'I' for Inactive)
    5  A    between atoms: CA   and  CB  
    6  A    between atoms: CB   and  CG  
    7  A    between atoms: CG   and  CD  
    8  A    between atoms: CD   and  CE  

$$$$
