ligand_6_pose_16_2HRL.pdbqt
 OpenBabel07062320523D

 52 53  0  0  1  0  0  0  0  0999 V2000
   28.1130   40.4710    7.9310 N   0  0  0  0  0  0  0  0  0  0  0  0
   29.5000   40.5340    7.6980 C   0  0  0  0  0  0  0  0  0  0  0  0
   30.0260   40.2090    6.6180 O   0  0  0  0  0  0  0  0  0  0  0  0
   27.7810   40.8080    8.8990 H   0  0  0  0  0  0  0  0  0  0  0  0
   27.1570   40.0040    7.0050 C   0  0  0  0  0  0  0  0  0  0  0  0
   25.9060   39.3770    7.4730 C   0  0  2  0  0  0  0  0  0  0  0  0
   25.8690   38.0780    8.1370 C   0  0  2  0  0  0  0  0  0  0  0  0
   24.4430   37.5360    8.2860 C   0  0  2  0  0  0  0  0  0  0  0  0
   22.4290   38.1850    9.2530 C   0  0  2  0  0  0  0  0  0  0  0  0
   21.9780   36.8410    8.7280 C   0  0  0  0  0  0  0  0  0  0  0  0
   23.6390   38.6000    8.7460 O   0  0  0  0  0  0  0  0  0  0  0  0
   22.9680   35.7510    8.9940 C   0  0  1  0  0  0  0  0  0  0  0  0
   24.3170   36.4370    9.2770 C   0  0  1  0  0  0  0  0  0  0  0  0
   22.4100   38.1160   10.6350 O   0  0  0  0  0  0  0  0  0  0  0  0
   21.7680   38.7680   10.9800 H   0  0  0  0  0  0  0  0  0  0  0  0
   21.4070   39.1730    8.8200 C   0  0  0  0  0  0  0  0  0  0  0  0
   21.5150   40.3880    9.1300 O   0  0  0  0  0  0  0  0  0  0  0  0
   20.3120   38.7860    8.0660 O   0  0  0  0  0  0  0  0  0  0  0  0
   19.9630   37.8240    8.0670 H   0  0  0  0  0  0  0  0  0  0  0  0
   22.6180   34.8970   10.0150 O   0  0  0  0  0  0  0  0  0  0  0  0
   23.0250   35.2340   10.8520 H   0  0  0  0  0  0  0  0  0  0  0  0
   25.3070   35.3870    9.1620 N   0  0  0  0  0  0  0  0  0  0  0  0
   26.1590   35.0640   10.2700 C   0  0  0  0  0  0  0  0  0  0  0  0
   25.4440   34.8310    8.2970 H   0  0  0  0  0  0  0  0  0  0  0  0
   27.1900   34.0040   10.2230 C   0  0  0  0  0  0  0  0  0  0  0  0
   26.0080   35.7220   11.3210 O   0  0  0  0  0  0  0  0  0  0  0  0
   26.5230   38.0970    9.3410 O   0  0  0  0  0  0  0  0  0  0  0  0
   26.2270   37.4410   10.0100 H   0  0  0  0  0  0  0  0  0  0  0  0
   25.0130   39.4590    6.3660 O   0  0  0  0  0  0  0  0  0  0  0  0
   24.7700   38.5450    6.0640 H   0  0  0  0  0  0  0  0  0  0  0  0
   30.3140   40.9940    8.7570 O   0  0  0  0  0  0  0  0  0  0  0  0
   31.3080   40.0970    9.2130 C   0  0  0  0  0  0  0  0  0  0  0  0
   30.7050   39.1040   10.1650 C   0  0  0  0  0  0  0  0  0  0  0  0
   31.3700   38.2690   11.0380 C   0  0  0  0  0  0  0  0  0  0  0  0
   29.3930   38.8260   10.3590 N   0  0  0  0  0  0  0  0  0  0  0  0
   30.4780   37.5190   11.7280 N   0  0  0  0  0  0  0  0  0  0  0  0
   29.2990   37.8960   11.2780 N   0  0  0  0  0  0  0  0  0  0  0  0
   30.7700   36.5380   12.7210 C   0  0  0  0  0  0  0  0  0  0  0  0
   32.0260   36.4020   13.2710 C   0  0  0  0  0  0  0  0  0  0  0  0
   29.7920   35.6740   13.1780 C   0  0  0  0  0  0  0  0  0  0  0  0
   32.2860   35.4450   14.2310 C   0  0  0  0  0  0  0  0  0  0  0  0
   30.0510   34.7160   14.1390 C   0  0  0  0  0  0  0  0  0  0  0  0
   31.3070   34.5780   14.6910 C   0  0  0  0  0  0  0  0  0  0  0  0
   31.5640   33.5960   15.6760 N   0  0  0  0  0  0  0  0  0  0  0  0
   31.8680   33.9670   16.8220 O   0  0  0  0  0  0  0  0  0  0  0  0
   31.4970   32.2510   15.4430 O   0  0  0  0  0  0  0  0  0  0  0  0
   29.8670   25.5550   16.9770 C   0  0  0  0  0  0  0  0  0  0  0  0
   28.3450   25.7220   17.0260 C   0  0  0  0  0  0  0  0  0  0  0  0
   27.6010   24.4020   16.8900 C   0  0  0  0  0  0  0  0  0  0  0  0
   26.2500   24.4430   17.5480 C   0  0  0  0  0  0  0  0  0  0  0  0
   25.6610   23.0370   17.5910 C   0  0  0  0  0  0  0  0  0  0  0  0
   25.0300   22.7780   18.9070 N   0  0  0  0  0  0  0  0  0  0  0  0
  1  4  1  0  0  0  0
  2  1  1  0  0  0  0
  2 31  1  0  0  0  0
  3  2  2  0  0  0  0
  5  1  1  0  0  0  0
  6  5  1  6  0  0  0
  6  7  1  0  0  0  0
  7 27  1  1  0  0  0
  8  7  1  1  0  0  0
  8 11  1  0  0  0  0
  8 13  1  0  0  0  0
  9 16  1  6  0  0  0
  9 14  1  0  0  0  0
 10 12  1  0  0  0  0
 10  9  1  0  0  0  0
 11  9  1  0  0  0  0
 12 13  1  0  0  0  0
 12 20  1  1  0  0  0
 13 22  1  6  0  0  0
 14 15  1  0  0  0  0
 16 17  2  0  0  0  0
 18 19  1  0  0  0  0
 18 16  1  0  0  0  0
 20 21  1  0  0  0  0
 22 23  1  0  0  0  0
 23 26  2  0  0  0  0
 24 22  1  0  0  0  0
 25 23  1  0  0  0  0
 27 28  1  0  0  0  0
 29  6  1  0  0  0  0
 30 29  1  0  0  0  0
 31 32  1  0  0  0  0
 32 33  1  0  0  0  0
 33 35  1  0  0  0  0
 33 34  2  0  0  0  0
 34 36  1  0  0  0  0
 35 37  2  0  0  0  0
 36 38  1  0  0  0  0
 37 36  1  0  0  0  0
 38 40  2  0  0  0  0
 38 39  1  0  0  0  0
 39 41  2  0  0  0  0
 40 42  1  0  0  0  0
 41 43  1  0  0  0  0
 42 43  2  0  0  0  0
 43 44  1  0  0  0  0
 44 45  2  0  0  0  0
 46 44  2  0  0  0  0
 47 48  1  0  0  0  0
 49 48  1  0  0  0  0
 49 50  1  0  0  0  0
 50 51  1  0  0  0  0
 51 52  1  0  0  0  0
M  END
>  <REMARK>
 VINA RESULT:    -5.134      6.555     13.975
 INTER + INTRA:         -13.935
 INTER:                  -8.496
 INTRA:                  -5.439
 UNBOUND:                -4.749
 SMILES CC(=O)N[C@@H]1[C@@H](O)C[C@](O)(C(=O)O)O[C@H]1C(O)[C@H](O)CNC(=O)OCc1cn(-c2ccc([N+](=O)[O-])cc2)nn1
 SMILES IDX 21 1 22 2 23 3 20 5 18 6 16 7 15 8 9 9 8 10 14 11 6 12 5 13
 SMILES IDX 10 14 11 16 12 17 13 18 7 20 4 22 2 23 1 25 3 26 17 27 19 29
 SMILES IDX 24 31 25 32 26 33 27 34 39 35 28 36 38 37 29 38 30 39 37 40
 SMILES IDX 31 41 36 42 32 43 33 44 34 45 35 46
 H PARENT 21 4 10 15 13 19 7 21 4 24 17 28 19 30
 Flexibility Score: inf
  4 active torsions:
  status: ('A' for Active; 'I' for Inactive)
    1  A    between atoms: CA   and  CB  
    2  A    between atoms: CB   and  CG  
    3  A    between atoms: CG   and  CD  
    4  A    between atoms: CD   and  CE  

>  <TORSDO>
F 16

>  <BEGIN_>
RES LYS A 131

$$$$
ligand_6_pose_16_2HRL.pdbqt
 OpenBabel07062320523D

  6  5  0  0  0  0  0  0  0  0999 V2000
   33.1930   34.6630    9.2900 C   0  0  0  0  0  0  0  0  0  0  0  0
   32.0600   35.3600   10.0340 C   0  0  0  0  0  0  0  0  0  0  0  0
   30.7070   34.7450    9.7840 C   0  0  0  0  0  0  0  0  0  0  0  0
   30.3640   34.7870    8.3020 C   0  0  0  0  0  0  0  0  0  0  0  0
   29.4330   35.9460    8.0040 C   0  0  0  0  0  0  0  0  0  0  0  0
   28.2930   35.5120    7.1490 N   0  0  0  0  0  0  0  0  0  0  0  0
  1  2  1  0  0  0  0
  3  2  1  0  0  0  0
  4  3  1  0  0  0  0
  5  4  1  0  0  0  0
  6  5  1  0  0  0  0
M  END
>  <EGIN_R>
ES LYS A 135

>  <REMARK>
  4 active torsions:
  status: ('A' for Active; 'I' for Inactive)
    5  A    between atoms: CA   and  CB  
    6  A    between atoms: CB   and  CG  
    7  A    between atoms: CG   and  CD  
    8  A    between atoms: CD   and  CE  

$$$$
