ligand_70_pose_14_2HRL.pdbqt
 OpenBabel07062320523D

 53 55  0  0  1  0  0  0  0  0999 V2000
   28.9940   34.8310   19.9630 C   0  0  0  0  0  0  0  0  0  0  0  0
   30.2700   34.0380   19.9930 C   0  0  2  0  0  0  0  0  0  0  0  0
   30.0960   32.5900   19.6240 C   0  0  1  0  0  0  0  0  0  0  0  0
   30.5220   32.2500   18.2260 C   0  0  2  0  0  0  0  0  0  0  0  0
   30.8170   33.3690   16.2160 C   0  0  2  0  0  0  0  0  0  0  0  0
   31.0360   32.0410   15.5360 C   0  0  0  0  0  0  0  0  0  0  0  0
   31.0760   33.3350   17.5620 O   0  0  0  0  0  0  0  0  0  0  0  0
   30.2220   30.9750   16.1900 C   0  0  1  0  0  0  0  0  0  0  0  0
   29.4930   31.5100   17.4420 C   0  0  1  0  0  0  0  0  0  0  0  0
   29.5340   33.8070   15.8950 O   0  0  0  0  0  0  0  0  0  0  0  0
   29.5130   34.4160   15.1330 H   0  0  0  0  0  0  0  0  0  0  0  0
   31.7710   34.3400   15.5990 C   0  0  0  0  0  0  0  0  0  0  0  0
   31.7640   35.5220   16.0240 O   0  0  0  0  0  0  0  0  0  0  0  0
   32.6480   33.9840   14.5910 O   0  0  0  0  0  0  0  0  0  0  0  0
   33.0660   34.7110   14.0020 H   0  0  0  0  0  0  0  0  0  0  0  0
   29.2730   30.4500   15.2940 O   0  0  0  0  0  0  0  0  0  0  0  0
   28.5530   30.0010   15.7980 H   0  0  0  0  0  0  0  0  0  0  0  0
   29.0650   30.3550   18.2370 N   0  0  0  0  0  0  0  0  0  0  0  0
   27.7840   29.7590   18.1110 C   0  0  0  0  0  0  0  0  0  0  0  0
   29.7130   29.9410   18.9310 H   0  0  0  0  0  0  0  0  0  0  0  0
   27.3650   28.5890   18.9300 C   0  0  0  0  0  0  0  0  0  0  0  0
   26.9500   30.2110   17.2860 O   0  0  0  0  0  0  0  0  0  0  0  0
   30.8200   31.8390   20.5710 O   0  0  0  0  0  0  0  0  0  0  0  0
   31.3020   32.4940   21.1350 H   0  0  0  0  0  0  0  0  0  0  0  0
   30.9070   34.1660   21.2440 O   0  0  0  0  0  0  0  0  0  0  0  0
   31.5260   34.9540   21.1240 H   0  0  0  0  0  0  0  0  0  0  0  0
   28.6000   35.0580   18.5930 N   0  0  0  0  0  0  0  0  0  0  0  0
   28.8120   36.2760   17.9170 C   0  0  0  0  0  0  0  0  0  0  0  0
   28.1250   34.3010   18.0250 H   0  0  0  0  0  0  0  0  0  0  0  0
   29.3620   37.2490   18.4740 O   0  0  0  0  0  0  0  0  0  0  0  0
   28.4230   36.4750   16.5850 O   0  0  0  0  0  0  0  0  0  0  0  0
   27.0380   36.6750   16.2660 C   0  0  0  0  0  0  0  0  0  0  0  0
   26.5930   35.6820   15.2660 C   0  0  0  0  0  0  0  0  0  0  0  0
   25.4300   34.9780   15.2370 C   0  0  0  0  0  0  0  0  0  0  0  0
   27.3080   35.3170   14.1960 N   0  0  0  0  0  0  0  0  0  0  0  0
   25.4880   34.1940   14.1220 N   0  0  0  0  0  0  0  0  0  0  0  0
   26.6280   34.4140   13.5100 N   0  0  0  0  0  0  0  0  0  0  0  0
   24.4910   33.2900   13.6870 C   0  0  0  0  0  0  0  0  0  0  0  0
   23.2360   33.7760   13.3660 C   0  0  0  0  0  0  0  0  0  0  0  0
   24.7900   31.9500   13.5920 C   0  0  0  0  0  0  0  0  0  0  0  0
   22.2900   32.9170   12.9540 N   0  0  0  0  0  0  0  0  0  0  0  0
   23.7960   31.0760   13.1630 C   0  0  0  0  0  0  0  0  0  0  0  0
   22.5530   31.5850   12.8490 C   0  0  0  0  0  0  0  0  0  0  0  0
   24.0640   29.7450   13.0600 C   0  0  0  0  0  0  0  0  0  0  0  0
   21.5650   30.7210   12.4230 C   0  0  0  0  0  0  0  0  0  0  0  0
   23.0710   28.8660   12.6300 C   0  0  0  0  0  0  0  0  0  0  0  0
   21.8280   29.3600   12.3140 C   0  0  0  0  0  0  0  0  0  0  0  0
   29.8670   25.5550   16.9770 C   0  0  0  0  0  0  0  0  0  0  0  0
   28.3450   25.7220   17.0260 C   0  0  0  0  0  0  0  0  0  0  0  0
   27.6020   24.3990   16.9250 C   0  0  0  0  0  0  0  0  0  0  0  0
   26.1520   24.5340   17.2980 C   0  0  0  0  0  0  0  0  0  0  0  0
   25.9470   24.0430   18.7280 C   0  0  0  0  0  0  0  0  0  0  0  0
   24.5020   23.8860   19.0200 N   0  0  0  0  0  0  0  0  0  0  0  0
  2  1  1  1  0  0  0
  2 25  1  0  0  0  0
  3  2  1  0  0  0  0
  3 23  1  1  0  0  0
  4  3  1  1  0  0  0
  5 12  1  6  0  0  0
  5  7  1  0  0  0  0
  6  8  1  0  0  0  0
  6  5  1  0  0  0  0
  7  4  1  0  0  0  0
  8 16  1  6  0  0  0
  8  9  1  0  0  0  0
  9  4  1  0  0  0  0
  9 18  1  1  0  0  0
 10  5  1  0  0  0  0
 11 10  1  0  0  0  0
 12 13  2  0  0  0  0
 14 12  1  0  0  0  0
 15 14  1  0  0  0  0
 16 17  1  0  0  0  0
 18 20  1  0  0  0  0
 19 18  1  0  0  0  0
 19 21  1  0  0  0  0
 22 19  2  0  0  0  0
 23 24  1  0  0  0  0
 26 25  1  0  0  0  0
 27  1  1  0  0  0  0
 28 30  2  0  0  0  0
 28 27  1  0  0  0  0
 29 27  1  0  0  0  0
 31 28  1  0  0  0  0
 32 31  1  0  0  0  0
 33 32  1  0  0  0  0
 34 33  2  0  0  0  0
 35 33  1  0  0  0  0
 36 34  1  0  0  0  0
 37 36  1  0  0  0  0
 37 35  2  0  0  0  0
 38 36  1  0  0  0  0
 39 38  2  0  0  0  0
 40 38  1  0  0  0  0
 41 39  1  0  0  0  0
 42 40  2  0  0  0  0
 43 41  2  0  0  0  0
 43 42  1  0  0  0  0
 44 42  1  0  0  0  0
 45 43  1  0  0  0  0
 46 44  2  0  0  0  0
 47 45  2  0  0  0  0
 47 46  1  0  0  0  0
 48 49  1  0  0  0  0
 50 49  1  0  0  0  0
 50 51  1  0  0  0  0
 51 52  1  0  0  0  0
 52 53  1  0  0  0  0
M  END
>  <REMARK>
 VINA RESULT:    -5.908      4.520      7.519
 INTER + INTRA:         -14.759
 INTER:                  -8.624
 INTRA:                  -6.134
 UNBOUND:                -4.533
 SMILES CC(=O)N[C@@H]1[C@@H](O)C[C@](O)(C(=O)O)O[C@H]1C(O)[C@H](O)CNC(=O)OCc1cn(-c2cnc3ccccc3c2)nn1
 SMILES IDX 20 1 18 2 16 3 15 4 9 5 8 6 14 7 6 8 5 9 10 10 11 12 12 13
 SMILES IDX 13 14 7 16 4 18 2 19 1 21 3 22 17 23 19 25 21 27 22 28 23 30
 SMILES IDX 24 31 25 32 26 33 27 34 40 35 28 36 39 37 29 38 30 39 38 40
 SMILES IDX 31 41 37 42 32 43 36 44 33 45 35 46 34 47
 H PARENT 10 11 13 15 7 17 4 20 17 24 19 26 21 29
 Flexibility Score: inf
  4 active torsions:
  status: ('A' for Active; 'I' for Inactive)
    1  A    between atoms: CA   and  CB  
    2  A    between atoms: CB   and  CG  
    3  A    between atoms: CG   and  CD  
    4  A    between atoms: CD   and  CE  

>  <TORSDO>
F 15

>  <BEGIN_>
RES LYS A 131

$$$$
ligand_70_pose_14_2HRL.pdbqt
 OpenBabel07062320523D

  6  5  0  0  0  0  0  0  0  0999 V2000
   33.1930   34.6630    9.2900 C   0  0  0  0  0  0  0  0  0  0  0  0
   32.0600   35.3600   10.0340 C   0  0  0  0  0  0  0  0  0  0  0  0
   30.7920   35.4770    9.2280 C   0  0  0  0  0  0  0  0  0  0  0  0
   30.2200   34.1010    8.9240 C   0  0  0  0  0  0  0  0  0  0  0  0
   28.7140   34.0990    9.1020 C   0  0  0  0  0  0  0  0  0  0  0  0
   28.0420   34.8380    7.9970 N   0  0  0  0  0  0  0  0  0  0  0  0
  1  2  1  0  0  0  0
  3  2  1  0  0  0  0
  4  5  1  0  0  0  0
  4  3  1  0  0  0  0
  6  5  1  0  0  0  0
M  END
>  <EGIN_R>
ES LYS A 135

>  <REMARK>
  4 active torsions:
  status: ('A' for Active; 'I' for Inactive)
    5  A    between atoms: CA   and  CB  
    6  A    between atoms: CB   and  CG  
    7  A    between atoms: CG   and  CD  
    8  A    between atoms: CD   and  CE  

$$$$
