ligand_89_pose_14_2HRL.pdbqt
 OpenBabel07062320523D

 60 63  0  0  1  0  0  0  0  0999 V2000
   26.6030   31.0890   21.0500 N   0  0  0  0  0  0  0  0  0  0  0  0
   25.3770   30.5800   21.4790 C   0  0  0  0  0  0  0  0  0  0  0  0
   24.3860   31.2740   21.7090 O   0  0  0  0  0  0  0  0  0  0  0  0
   27.3810   30.3430   20.8550 H   0  0  0  0  0  0  0  0  0  0  0  0
   26.9310   32.4480   20.8470 C   0  0  0  0  0  0  0  0  0  0  0  0
   26.5510   33.0380   19.5630 C   0  0  2  0  0  0  0  0  0  0  0  0
   26.7850   32.3730   18.2690 C   0  0  1  0  0  0  0  0  0  0  0  0
   28.3310   32.2680   18.1220 C   0  0  2  0  0  0  0  0  0  0  0  0
   28.7460   32.8450   15.8830 C   0  0  2  0  0  0  0  0  0  0  0  0
   29.3850   31.5170   15.6530 C   0  0  0  0  0  0  0  0  0  0  0  0
   28.7270   33.1640   17.2010 O   0  0  0  0  0  0  0  0  0  0  0  0
   28.8560   30.4110   16.5300 C   0  0  1  0  0  0  0  0  0  0  0  0
   28.7510   30.8530   17.9730 C   0  0  1  0  0  0  0  0  0  0  0  0
   27.4090   32.8250   15.4120 O   0  0  0  0  0  0  0  0  0  0  0  0
   27.4240   32.2180   14.6250 H   0  0  0  0  0  0  0  0  0  0  0  0
   29.5270   33.8360   15.0690 C   0  0  0  0  0  0  0  0  0  0  0  0
   29.1620   34.1050   13.9170 O   0  0  0  0  0  0  0  0  0  0  0  0
   30.6390   34.4400   15.6050 O   0  0  0  0  0  0  0  0  0  0  0  0
   31.5390   33.9510   15.6280 H   0  0  0  0  0  0  0  0  0  0  0  0
   27.6290   29.9150   16.0850 O   0  0  0  0  0  0  0  0  0  0  0  0
   27.6610   28.9280   16.0700 H   0  0  0  0  0  0  0  0  0  0  0  0
   30.0630   30.6050   18.5870 N   0  0  0  0  0  0  0  0  0  0  0  0
   30.2050   30.0530   19.8760 C   0  0  0  0  0  0  0  0  0  0  0  0
   30.9540   30.8410   18.0670 H   0  0  0  0  0  0  0  0  0  0  0  0
   31.5340   29.8040   20.4930 C   0  0  0  0  0  0  0  0  0  0  0  0
   29.1760   29.7500   20.5520 O   0  0  0  0  0  0  0  0  0  0  0  0
   26.2500   31.0880   18.1540 O   0  0  0  0  0  0  0  0  0  0  0  0
   26.9800   30.3980   18.2370 H   0  0  0  0  0  0  0  0  0  0  0  0
   27.1830   34.3390   19.5340 O   0  0  0  0  0  0  0  0  0  0  0  0
   28.0470   34.3090   19.9810 H   0  0  0  0  0  0  0  0  0  0  0  0
   25.2020   29.1920   21.6810 O   0  0  0  0  0  0  0  0  0  0  0  0
   26.0880   28.2540   21.1410 C   0  0  0  0  0  0  0  0  0  0  0  0
   25.8490   28.1230   19.6820 C   0  0  0  0  0  0  0  0  0  0  0  0
   24.6210   27.9680   19.0450 C   0  0  0  0  0  0  0  0  0  0  0  0
   26.7460   28.1300   18.6790 N   0  0  0  0  0  0  0  0  0  0  0  0
   24.8030   27.8870   17.6970 N   0  0  0  0  0  0  0  0  0  0  0  0
   26.0980   27.9900   17.5400 N   0  0  0  0  0  0  0  0  0  0  0  0
   23.7360   27.7290   16.7660 C   0  0  0  0  0  0  0  0  0  0  0  0
   22.9360   26.6280   16.6530 N   0  0  0  0  0  0  0  0  0  0  0  0
   23.2850   28.6060   15.8150 C   0  0  0  0  0  0  0  0  0  0  0  0
   22.0460   26.8420   15.6750 C   0  0  0  0  0  0  0  0  0  0  0  0
   22.2330   28.0590   15.1310 N   0  0  0  0  0  0  0  0  0  0  0  0
   23.6820   29.8560   15.4570 C   0  0  0  0  0  0  0  0  0  0  0  0
   21.6030   28.7170   14.1400 C   0  0  0  0  0  0  0  0  0  0  0  0
   23.0880   30.5420   14.4830 N   0  0  0  0  0  0  0  0  0  0  0  0
   24.6410   30.4220   16.0390 O   0  0  0  0  0  0  0  0  0  0  0  0
   20.5460   28.1330   13.4730 C   0  0  0  0  0  0  0  0  0  0  0  0
   22.0530   29.9820   13.8230 C   0  0  0  0  0  0  0  0  0  0  0  0
   19.8790   28.7850   12.4490 C   0  0  0  0  0  0  0  0  0  0  0  0
   21.3690   30.6140   12.7950 C   0  0  0  0  0  0  0  0  0  0  0  0
   20.3090   30.0410   12.1190 C   0  0  0  0  0  0  0  0  0  0  0  0
   23.4580   31.8720   14.0560 C   0  0  0  0  0  0  0  0  0  0  0  0
   24.7620   31.7500   13.2960 C   0  0  0  0  0  0  0  0  0  0  0  0
   23.6700   32.8490   15.1680 C   0  0  0  0  0  0  0  0  0  0  0  0
   29.8670   25.5550   16.9770 C   0  0  0  0  0  0  0  0  0  0  0  0
   28.3450   25.7220   17.0260 C   0  0  0  0  0  0  0  0  0  0  0  0
   27.6010   24.4010   16.9030 C   0  0  0  0  0  0  0  0  0  0  0  0
   26.1600   24.5220   17.3130 C   0  0  0  0  0  0  0  0  0  0  0  0
   25.9040   23.6520   18.5390 C   0  0  0  0  0  0  0  0  0  0  0  0
   25.4680   24.4850   19.6850 N   0  0  0  0  0  0  0  0  0  0  0  0
  1  2  1  0  0  0  0
  2 31  1  0  0  0  0
  2  3  2  0  0  0  0
  4  1  1  0  0  0  0
  5  1  1  0  0  0  0
  6  5  1  1  0  0  0
  7 27  1  1  0  0  0
  7  6  1  0  0  0  0
  8  7  1  6  0  0  0
  9 16  1  6  0  0  0
  9 11  1  0  0  0  0
 10  9  1  0  0  0  0
 10 12  1  0  0  0  0
 11  8  1  0  0  0  0
 12 20  1  6  0  0  0
 12 13  1  0  0  0  0
 13  8  1  0  0  0  0
 13 22  1  6  0  0  0
 14  9  1  0  0  0  0
 15 14  1  0  0  0  0
 16 18  1  0  0  0  0
 17 16  2  0  0  0  0
 18 19  1  0  0  0  0
 21 20  1  0  0  0  0
 22 23  1  0  0  0  0
 23 25  1  0  0  0  0
 23 26  2  0  0  0  0
 24 22  1  0  0  0  0
 27 28  1  0  0  0  0
 29  6  1  0  0  0  0
 29 30  1  0  0  0  0
 32 31  1  0  0  0  0
 33 32  1  0  0  0  0
 34 33  2  0  0  0  0
 35 33  1  0  0  0  0
 36 34  1  0  0  0  0
 37 36  1  0  0  0  0
 37 35  2  0  0  0  0
 38 36  1  0  0  0  0
 39 38  1  0  0  0  0
 40 38  2  0  0  0  0
 41 39  2  0  0  0  0
 42 41  1  0  0  0  0
 42 40  1  0  0  0  0
 43 40  1  0  0  0  0
 43 46  2  0  0  0  0
 44 42  1  0  0  0  0
 45 43  1  0  0  0  0
 47 44  2  0  0  0  0
 48 44  1  0  0  0  0
 48 45  1  0  0  0  0
 49 47  1  0  0  0  0
 50 48  2  0  0  0  0
 51 49  2  0  0  0  0
 51 50  1  0  0  0  0
 52 45  1  0  0  0  0
 52 54  1  0  0  0  0
 53 52  1  0  0  0  0
 55 56  1  0  0  0  0
 57 56  1  0  0  0  0
 57 58  1  0  0  0  0
 58 59  1  0  0  0  0
 59 60  1  0  0  0  0
M  END
>  <REMARK>
 VINA RESULT:    -4.359      3.582      6.923
 INTER + INTRA:         -14.908
 INTER:                  -7.768
 INTRA:                  -7.141
 UNBOUND:                -7.109
 SMILES CC(=O)N[C@@H]1[C@@H](O)C[C@](O)(C(=O)O)O[C@H]1C(O)[C@H](O)CNC(=O)OCc1cn(-c2ncn3c2c(=O)n(C(C)C)c2ccccc23)nn1
 SMILES IDX 21 1 22 2 23 3 20 5 18 6 16 7 15 8 9 9 8 10 14 11 6 12 5 13
 SMILES IDX 10 14 11 16 12 17 13 18 7 20 4 22 2 23 1 25 3 26 17 27 19 29
 SMILES IDX 24 31 25 32 26 33 27 34 47 35 28 36 46 37 29 38 30 39 33 40
 SMILES IDX 31 41 32 42 34 43 45 44 36 45 35 46 44 47 40 48 43 49 41 50
 SMILES IDX 42 51 37 52 38 53 39 54
 H PARENT 21 4 10 15 13 19 7 21 4 24 17 28 19 30
 Flexibility Score: inf
  4 active torsions:
  status: ('A' for Active; 'I' for Inactive)
    1  A    between atoms: CA   and  CB  
    2  A    between atoms: CB   and  CG  
    3  A    between atoms: CG   and  CD  
    4  A    between atoms: CD   and  CE  

>  <TORSDO>
F 16

>  <BEGIN_>
RES LYS A 131

$$$$
ligand_89_pose_14_2HRL.pdbqt
 OpenBabel07062320523D

  6  5  0  0  0  0  0  0  0  0999 V2000
   33.1930   34.6630    9.2900 C   0  0  0  0  0  0  0  0  0  0  0  0
   32.0600   35.3600   10.0340 C   0  0  0  0  0  0  0  0  0  0  0  0
   30.7890   35.4680    9.2320 C   0  0  0  0  0  0  0  0  0  0  0  0
   29.9950   34.1730    9.3080 C   0  0  0  0  0  0  0  0  0  0  0  0
   28.7310   34.3700   10.1240 C   0  0  0  0  0  0  0  0  0  0  0  0
   27.5470   33.8000    9.4240 N   0  0  0  0  0  0  0  0  0  0  0  0
  1  2  1  0  0  0  0
  3  4  1  0  0  0  0
  3  2  1  0  0  0  0
  4  5  1  0  0  0  0
  6  5  1  0  0  0  0
M  END
>  <EGIN_R>
ES LYS A 135

>  <REMARK>
  4 active torsions:
  status: ('A' for Active; 'I' for Inactive)
    5  A    between atoms: CA   and  CB  
    6  A    between atoms: CB   and  CG  
    7  A    between atoms: CG   and  CD  
    8  A    between atoms: CD   and  CE  

$$$$
