ligand_89_pose_4_2HRL.pdbqt
 OpenBabel07062320523D

 60 63  0  0  1  0  0  0  0  0999 V2000
   28.6310   32.1710   20.5880 N   0  0  0  0  0  0  0  0  0  0  0  0
   27.5150   31.3360   20.6030 C   0  0  0  0  0  0  0  0  0  0  0  0
   27.2880   30.5040   21.4840 O   0  0  0  0  0  0  0  0  0  0  0  0
   28.6780   32.8820   19.7560 H   0  0  0  0  0  0  0  0  0  0  0  0
   29.6880   32.1890   21.5250 C   0  0  0  0  0  0  0  0  0  0  0  0
   31.0040   31.7600   21.0490 C   0  0  2  0  0  0  0  0  0  0  0  0
   31.2760   30.4020   20.5450 C   0  0  1  0  0  0  0  0  0  0  0  0
   30.5610   29.4340   21.5340 C   0  0  2  0  0  0  0  0  0  0  0  0
   32.3140   28.3670   22.6760 C   0  0  2  0  0  0  0  0  0  0  0  0
   31.8250   27.0400   22.1990 C   0  0  0  0  0  0  0  0  0  0  0  0
   31.3350   29.3040   22.6260 O   0  0  0  0  0  0  0  0  0  0  0  0
   31.1030   27.0830   20.8770 C   0  0  1  0  0  0  0  0  0  0  0  0
   30.0980   28.2120   20.8320 C   0  0  1  0  0  0  0  0  0  0  0  0
   33.3900   28.8050   21.8630 O   0  0  0  0  0  0  0  0  0  0  0  0
   32.9660   29.3620   21.1570 H   0  0  0  0  0  0  0  0  0  0  0  0
   32.8250   28.1510   24.0720 C   0  0  0  0  0  0  0  0  0  0  0  0
   33.3060   29.1020   24.7010 O   0  0  0  0  0  0  0  0  0  0  0  0
   32.7540   26.9030   24.6430 O   0  0  0  0  0  0  0  0  0  0  0  0
   32.8100   26.7910   25.6600 H   0  0  0  0  0  0  0  0  0  0  0  0
   31.9770   27.1680   19.7910 O   0  0  0  0  0  0  0  0  0  0  0  0
   31.5520   26.7630   18.9970 H   0  0  0  0  0  0  0  0  0  0  0  0
   28.8510   27.6920   21.4080 N   0  0  0  0  0  0  0  0  0  0  0  0
   27.7710   27.2580   20.6120 C   0  0  0  0  0  0  0  0  0  0  0  0
   28.7270   27.6280   22.4570 H   0  0  0  0  0  0  0  0  0  0  0  0
   26.5110   26.7320   21.1980 C   0  0  0  0  0  0  0  0  0  0  0  0
   27.8560   27.3090   19.3480 O   0  0  0  0  0  0  0  0  0  0  0  0
   30.8000   30.1380   19.2600 O   0  0  0  0  0  0  0  0  0  0  0  0
   31.4680   29.5830   18.7480 H   0  0  0  0  0  0  0  0  0  0  0  0
   31.9170   32.0400   22.1370 O   0  0  0  0  0  0  0  0  0  0  0  0
   31.9350   31.3000   22.7670 H   0  0  0  0  0  0  0  0  0  0  0  0
   26.5510   31.3990   19.5710 O   0  0  0  0  0  0  0  0  0  0  0  0
   26.3470   30.3330   18.6900 C   0  0  0  0  0  0  0  0  0  0  0  0
   27.2920   30.4390   17.5500 C   0  0  0  0  0  0  0  0  0  0  0  0
   28.1300   31.5100   17.2540 C   0  0  0  0  0  0  0  0  0  0  0  0
   27.5420   29.5410   16.5790 N   0  0  0  0  0  0  0  0  0  0  0  0
   28.8540   31.2380   16.1310 N   0  0  0  0  0  0  0  0  0  0  0  0
   28.4570   30.0440   15.7740 N   0  0  0  0  0  0  0  0  0  0  0  0
   29.8060   32.1370   15.5710 C   0  0  0  0  0  0  0  0  0  0  0  0
   31.1640   32.0090   15.6510 N   0  0  0  0  0  0  0  0  0  0  0  0
   29.5910   33.2850   14.8540 C   0  0  0  0  0  0  0  0  0  0  0  0
   31.7310   33.0380   15.0080 C   0  0  0  0  0  0  0  0  0  0  0  0
   30.7860   33.8510   14.5010 N   0  0  0  0  0  0  0  0  0  0  0  0
   28.4560   33.9200   14.4570 C   0  0  0  0  0  0  0  0  0  0  0  0
   30.8560   34.9910   13.7890 C   0  0  0  0  0  0  0  0  0  0  0  0
   28.4790   35.0480   13.7520 N   0  0  0  0  0  0  0  0  0  0  0  0
   27.3230   33.4600   14.7450 O   0  0  0  0  0  0  0  0  0  0  0  0
   32.0800   35.5320   13.4510 C   0  0  0  0  0  0  0  0  0  0  0  0
   29.6700   35.5870   13.4150 C   0  0  0  0  0  0  0  0  0  0  0  0
   32.1830   36.7030   12.7190 C   0  0  0  0  0  0  0  0  0  0  0  0
   29.8000   36.7590   12.6840 C   0  0  0  0  0  0  0  0  0  0  0  0
   31.0180   37.3110   12.3390 C   0  0  0  0  0  0  0  0  0  0  0  0
   27.3120   35.7700   13.2960 C   0  0  0  0  0  0  0  0  0  0  0  0
   26.6320   36.3360   14.5240 C   0  0  0  0  0  0  0  0  0  0  0  0
   26.3090   34.9370   12.5630 C   0  0  0  0  0  0  0  0  0  0  0  0
   29.8670   25.5550   16.9770 C   0  0  0  0  0  0  0  0  0  0  0  0
   28.3450   25.7220   17.0260 C   0  0  0  0  0  0  0  0  0  0  0  0
   27.6020   24.3980   16.9380 C   0  0  0  0  0  0  0  0  0  0  0  0
   26.6770   24.1890   18.1050 C   0  0  0  0  0  0  0  0  0  0  0  0
   25.4150   25.0240   17.9090 C   0  0  0  0  0  0  0  0  0  0  0  0
   24.4100   24.6960   18.9480 N   0  0  0  0  0  0  0  0  0  0  0  0
  1  2  1  0  0  0  0
  1  5  1  0  0  0  0
  2  3  2  0  0  0  0
  4  1  1  0  0  0  0
  6  5  1  1  0  0  0
  6 29  1  0  0  0  0
  7 27  1  6  0  0  0
  7  6  1  0  0  0  0
  8  7  1  6  0  0  0
  8 11  1  0  0  0  0
  9 14  1  6  0  0  0
  9 16  1  0  0  0  0
 10  9  1  0  0  0  0
 11  9  1  0  0  0  0
 12 20  1  6  0  0  0
 12 10  1  0  0  0  0
 13 12  1  0  0  0  0
 13 22  1  1  0  0  0
 13  8  1  0  0  0  0
 15 14  1  0  0  0  0
 16 18  1  0  0  0  0
 16 17  2  0  0  0  0
 18 19  1  0  0  0  0
 21 20  1  0  0  0  0
 22 24  1  0  0  0  0
 23 25  1  0  0  0  0
 23 22  1  0  0  0  0
 26 23  2  0  0  0  0
 28 27  1  0  0  0  0
 29 30  1  0  0  0  0
 31  2  1  0  0  0  0
 32 31  1  0  0  0  0
 33 32  1  0  0  0  0
 34 33  2  0  0  0  0
 35 33  1  0  0  0  0
 36 34  1  0  0  0  0
 37 36  1  0  0  0  0
 37 35  2  0  0  0  0
 38 39  1  0  0  0  0
 38 36  1  0  0  0  0
 40 38  2  0  0  0  0
 41 39  2  0  0  0  0
 42 40  1  0  0  0  0
 42 41  1  0  0  0  0
 43 46  2  0  0  0  0
 43 40  1  0  0  0  0
 44 42  1  0  0  0  0
 45 43  1  0  0  0  0
 47 44  1  0  0  0  0
 48 45  1  0  0  0  0
 48 44  2  0  0  0  0
 49 47  2  0  0  0  0
 50 48  1  0  0  0  0
 51 50  2  0  0  0  0
 51 49  1  0  0  0  0
 52 45  1  0  0  0  0
 52 53  1  0  0  0  0
 54 52  1  0  0  0  0
 55 56  1  0  0  0  0
 57 56  1  0  0  0  0
 57 58  1  0  0  0  0
 59 58  1  0  0  0  0
 59 60  1  0  0  0  0
M  END
>  <REMARK>
 VINA RESULT:    -4.750      1.658      3.046
 INTER + INTRA:         -15.608
 INTER:                 -10.364
 INTRA:                  -5.243
 UNBOUND:                -7.109
 SMILES CC(=O)N[C@@H]1[C@@H](O)C[C@](O)(C(=O)O)O[C@H]1C(O)[C@H](O)CNC(=O)OCc1cn(-c2ncn3c2c(=O)n(C(C)C)c2ccccc23)nn1
 SMILES IDX 21 1 22 2 23 3 20 5 18 6 16 7 15 8 9 9 8 10 14 11 6 12 5 13
 SMILES IDX 10 14 11 16 12 17 13 18 7 20 4 22 2 23 1 25 3 26 17 27 19 29
 SMILES IDX 24 31 25 32 26 33 27 34 47 35 28 36 46 37 29 38 30 39 33 40
 SMILES IDX 31 41 32 42 34 43 45 44 36 45 35 46 44 47 40 48 43 49 41 50
 SMILES IDX 42 51 37 52 38 53 39 54
 H PARENT 21 4 10 15 13 19 7 21 4 24 17 28 19 30
 Flexibility Score: inf
  4 active torsions:
  status: ('A' for Active; 'I' for Inactive)
    1  A    between atoms: CA   and  CB  
    2  A    between atoms: CB   and  CG  
    3  A    between atoms: CG   and  CD  
    4  A    between atoms: CD   and  CE  

>  <TORSDO>
F 16

>  <BEGIN_>
RES LYS A 131

$$$$
ligand_89_pose_4_2HRL.pdbqt
 OpenBabel07062320523D

  6  5  0  0  0  0  0  0  0  0999 V2000
   33.1930   34.6630    9.2900 C   0  0  0  0  0  0  0  0  0  0  0  0
   32.0600   35.3600   10.0340 C   0  0  0  0  0  0  0  0  0  0  0  0
   30.7990   35.4980    9.2200 C   0  0  0  0  0  0  0  0  0  0  0  0
   29.9860   34.2130    9.2690 C   0  0  0  0  0  0  0  0  0  0  0  0
   28.6070   34.4330    8.6770 C   0  0  0  0  0  0  0  0  0  0  0  0
   27.5690   33.6920    9.4450 N   0  0  0  0  0  0  0  0  0  0  0  0
  1  2  1  0  0  0  0
  3  4  1  0  0  0  0
  3  2  1  0  0  0  0
  5  4  1  0  0  0  0
  5  6  1  0  0  0  0
M  END
>  <EGIN_R>
ES LYS A 135

>  <REMARK>
  4 active torsions:
  status: ('A' for Active; 'I' for Inactive)
    5  A    between atoms: CA   and  CB  
    6  A    between atoms: CB   and  CG  
    7  A    between atoms: CG   and  CD  
    8  A    between atoms: CD   and  CE  

$$$$
