ligand_18_pose_5_2HRL.pdbqt
 OpenBabel07062320523D

 54 55  0  0  1  0  0  0  0  0999 V2000
   22.8820   35.6530    9.2390 N   0  0  0  0  0  0  0  0  0  0  0  0
   21.8600   36.0170    8.3390 C   0  0  0  0  0  0  0  0  0  0  0  0
   21.7640   37.2200    7.9970 O   0  0  0  0  0  0  0  0  0  0  0  0
   22.9430   34.6470    9.5110 H   0  0  0  0  0  0  0  0  0  0  0  0
   23.8510   36.5670    9.8120 C   0  0  0  0  0  0  0  0  0  0  0  0
   25.2320   36.2820    9.2910 C   0  0  2  0  0  0  0  0  0  0  0  0
   25.6390   37.1080    8.1180 C   0  0  1  0  0  0  0  0  0  0  0  0
   26.8500   36.7040    7.3660 C   0  0  2  0  0  0  0  0  0  0  0  0
   28.9770   35.8670    7.8650 C   0  0  2  0  0  0  0  0  0  0  0  0
   28.9660   35.6540    6.3620 C   0  0  0  0  0  0  0  0  0  0  0  0
   27.7890   36.3020    8.3720 O   0  0  0  0  0  0  0  0  0  0  0  0
   28.6090   36.9480    5.7170 C   0  0  1  0  0  0  0  0  0  0  0  0
   27.5690   37.7100    6.5620 C   0  0  1  0  0  0  0  0  0  0  0  0
   30.0290   36.7730    8.1020 O   0  0  0  0  0  0  0  0  0  0  0  0
   29.7990   37.3160    8.9060 H   0  0  0  0  0  0  0  0  0  0  0  0
   29.3230   34.6020    8.5630 C   0  0  0  0  0  0  0  0  0  0  0  0
   28.4060   33.9130    9.0570 O   0  0  0  0  0  0  0  0  0  0  0  0
   30.6370   34.1600    8.6840 O   0  0  0  0  0  0  0  0  0  0  0  0
   30.8870   33.3400    8.1280 H   0  0  0  0  0  0  0  0  0  0  0  0
   29.6930   37.7510    5.4340 O   0  0  0  0  0  0  0  0  0  0  0  0
   29.4790   38.4080    4.7240 H   0  0  0  0  0  0  0  0  0  0  0  0
   26.8430   38.5030    5.6420 N   0  0  0  0  0  0  0  0  0  0  0  0
   26.7920   39.9050    5.7960 C   0  0  0  0  0  0  0  0  0  0  0  0
   26.3390   38.0890    4.8460 H   0  0  0  0  0  0  0  0  0  0  0  0
   26.0380   40.7850    4.8510 C   0  0  0  0  0  0  0  0  0  0  0  0
   27.3860   40.5100    6.7510 O   0  0  0  0  0  0  0  0  0  0  0  0
   24.5940   37.6260    7.3660 O   0  0  0  0  0  0  0  0  0  0  0  0
   24.3370   38.5270    7.5990 H   0  0  0  0  0  0  0  0  0  0  0  0
   25.5190   34.9320    9.1410 O   0  0  0  0  0  0  0  0  0  0  0  0
   25.4690   34.4280    9.9850 H   0  0  0  0  0  0  0  0  0  0  0  0
   20.9520   35.0860    7.8140 O   0  0  0  0  0  0  0  0  0  0  0  0
   19.5590   35.3320    7.8610 C   0  0  0  0  0  0  0  0  0  0  0  0
   18.9890   34.5440    8.9890 C   0  0  0  0  0  0  0  0  0  0  0  0
   19.2880   34.6380   10.3320 C   0  0  0  0  0  0  0  0  0  0  0  0
   18.0620   33.5750    8.9160 N   0  0  0  0  0  0  0  0  0  0  0  0
   18.5510   33.7460   11.0100 N   0  0  0  0  0  0  0  0  0  0  0  0
   17.8130   33.1120   10.1250 N   0  0  0  0  0  0  0  0  0  0  0  0
   18.5960   33.5590   12.4700 C   0  0  0  0  0  0  0  0  0  0  0  0
   18.9790   32.1470   12.7040 C   0  0  0  0  0  0  0  0  0  0  0  0
   18.3930   31.5080   13.6400 O   0  0  0  0  0  0  0  0  0  0  0  0
   19.9540   31.4340   11.9680 N   0  0  0  0  0  0  0  0  0  0  0  0
   20.4300   31.9540   11.2090 H   0  0  0  0  0  0  0  0  0  0  0  0
   20.2950   30.0550   12.2310 C   0  0  0  0  0  0  0  0  0  0  0  0
   21.6690   30.0670   12.8730 C   0  0  0  0  0  0  0  0  0  0  0  0
   22.8200   29.5830   12.4230 C   0  0  0  0  0  0  0  0  0  0  0  0
   22.0620   30.7480   14.4180 S   0  0  0  0  0  0  0  0  0  0  0  0
   23.9480   29.6940   13.1570 C   0  0  0  0  0  0  0  0  0  0  0  0
   23.8070   30.3420   14.3930 C   0  0  0  0  0  0  0  0  0  0  0  0
   29.8670   25.5550   16.9770 C   0  0  0  0  0  0  0  0  0  0  0  0
   28.3450   25.7220   17.0260 C   0  0  0  0  0  0  0  0  0  0  0  0
   27.6010   24.4040   16.8780 C   0  0  0  0  0  0  0  0  0  0  0  0
   26.5350   24.2340   17.9250 C   0  0  0  0  0  0  0  0  0  0  0  0
   25.2000   23.9400   17.2490 C   0  0  0  0  0  0  0  0  0  0  0  0
   24.8010   22.5310   17.4810 N   0  0  0  0  0  0  0  0  0  0  0  0
  1  4  1  0  0  0  0
  1  5  1  0  0  0  0
  2  1  1  0  0  0  0
  3  2  2  0  0  0  0
  6  5  1  6  0  0  0
  7 27  1  6  0  0  0
  7  6  1  0  0  0  0
  8  7  1  1  0  0  0
  8 11  1  0  0  0  0
  9 14  1  1  0  0  0
  9 11  1  0  0  0  0
  9 16  1  0  0  0  0
 10  9  1  0  0  0  0
 12 20  1  1  0  0  0
 12 10  1  0  0  0  0
 12 13  1  0  0  0  0
 13 22  1  6  0  0  0
 13  8  1  0  0  0  0
 14 15  1  0  0  0  0
 16 18  1  0  0  0  0
 16 17  2  0  0  0  0
 19 18  1  0  0  0  0
 21 20  1  0  0  0  0
 22 23  1  0  0  0  0
 23 26  2  0  0  0  0
 24 22  1  0  0  0  0
 25 23  1  0  0  0  0
 27 28  1  0  0  0  0
 29  6  1  0  0  0  0
 29 30  1  0  0  0  0
 31 32  1  0  0  0  0
 31  2  1  0  0  0  0
 32 33  1  0  0  0  0
 33 34  2  0  0  0  0
 34 36  1  0  0  0  0
 35 33  1  0  0  0  0
 35 37  2  0  0  0  0
 36 38  1  0  0  0  0
 37 36  1  0  0  0  0
 38 39  1  0  0  0  0
 39 40  2  0  0  0  0
 41 43  1  0  0  0  0
 41 39  1  0  0  0  0
 42 41  1  0  0  0  0
 43 44  1  0  0  0  0
 44 46  1  0  0  0  0
 45 44  2  0  0  0  0
 45 47  1  0  0  0  0
 47 48  2  0  0  0  0
 48 46  1  0  0  0  0
 49 50  1  0  0  0  0
 51 50  1  0  0  0  0
 51 52  1  0  0  0  0
 53 54  1  0  0  0  0
 53 52  1  0  0  0  0
M  END
>  <REMARK>
 VINA RESULT:    -4.485      3.828      6.265
 INTER + INTRA:         -15.337
 INTER:                 -10.998
 INTRA:                  -4.339
 UNBOUND:                -6.788
 SMILES CC(=O)N[C@@H]1[C@@H](O)C[C@](O)(C(=O)O)O[C@H]1C(O)[C@H](O)CNC(=O)OCc1cn(CC(=O)NCc2cccs2)nn1
 SMILES IDX 21 1 22 2 23 3 20 5 18 6 16 7 15 8 9 9 8 10 14 11 6 12 5 13
 SMILES IDX 10 14 11 16 12 17 13 18 7 20 4 22 2 23 1 25 3 26 17 27 19 29
 SMILES IDX 24 31 25 32 26 33 27 34 40 35 28 36 39 37 29 38 30 39 31 40
 SMILES IDX 32 41 33 43 34 44 35 45 38 46 36 47 37 48
 H PARENT 21 4 10 15 13 19 7 21 4 24 17 28 19 30 32 42
 Flexibility Score: inf
  4 active torsions:
  status: ('A' for Active; 'I' for Inactive)
    1  A    between atoms: CA   and  CB  
    2  A    between atoms: CB   and  CG  
    3  A    between atoms: CG   and  CD  
    4  A    between atoms: CD   and  CE  

>  <TORSDO>
F 18

>  <BEGIN_>
RES LYS A 131

$$$$
ligand_18_pose_5_2HRL.pdbqt
 OpenBabel07062320523D

  6  5  0  0  0  0  0  0  0  0999 V2000
   33.1930   34.6630    9.2900 C   0  0  0  0  0  0  0  0  0  0  0  0
   32.0600   35.3600   10.0340 C   0  0  0  0  0  0  0  0  0  0  0  0
   32.5020   36.0430   11.3030 C   0  0  0  0  0  0  0  0  0  0  0  0
   31.3220   36.7080   11.9940 C   0  0  0  0  0  0  0  0  0  0  0  0
   31.4780   38.2170   11.9780 C   0  0  0  0  0  0  0  0  0  0  0  0
   30.9080   38.8020   10.7330 N   0  0  0  0  0  0  0  0  0  0  0  0
  1  2  1  0  0  0  0
  2  3  1  0  0  0  0
  3  4  1  0  0  0  0
  5  4  1  0  0  0  0
  6  5  1  0  0  0  0
M  END
>  <EGIN_R>
ES LYS A 135

>  <REMARK>
  4 active torsions:
  status: ('A' for Active; 'I' for Inactive)
    5  A    between atoms: CA   and  CB  
    6  A    between atoms: CB   and  CG  
    7  A    between atoms: CG   and  CD  
    8  A    between atoms: CD   and  CE  

$$$$
