ligand_24_pose_15_2HRL.pdbqt
 OpenBabel07062320523D

 52 53  0  0  1  0  0  0  0  0999 V2000
   23.9510   34.1580   14.4960 N   0  0  0  0  0  0  0  0  0  0  0  0
   23.9500   32.7600   14.2990 C   0  0  0  0  0  0  0  0  0  0  0  0
   23.0780   32.1620   13.6250 O   0  0  0  0  0  0  0  0  0  0  0  0
   24.7240   34.5510   15.0820 H   0  0  0  0  0  0  0  0  0  0  0  0
   22.9780   35.0500   13.9520 C   0  0  0  0  0  0  0  0  0  0  0  0
   23.3510   35.6690   12.6490 C   0  0  2  0  0  0  0  0  0  0  0  0
   22.4260   35.2640   11.5230 C   0  0  1  0  0  0  0  0  0  0  0  0
   22.8230   35.7800   10.1860 C   0  0  2  0  0  0  0  0  0  0  0  0
   23.8230   37.5470    9.0760 C   0  0  2  0  0  0  0  0  0  0  0  0
   22.7980   37.5210    7.9780 C   0  0  0  0  0  0  0  0  0  0  0  0
   23.4270   37.0320   10.2690 O   0  0  0  0  0  0  0  0  0  0  0  0
   21.9720   36.2520    7.9800 C   0  0  1  0  0  0  0  0  0  0  0  0
   21.5370   36.0150    9.3860 C   0  0  1  0  0  0  0  0  0  0  0  0
   24.0750   38.9250    9.3070 O   0  0  0  0  0  0  0  0  0  0  0  0
   23.4370   39.4060    8.7260 H   0  0  0  0  0  0  0  0  0  0  0  0
   25.0820   36.9850    8.5330 C   0  0  0  0  0  0  0  0  0  0  0  0
   25.9040   36.3430    9.2520 O   0  0  0  0  0  0  0  0  0  0  0  0
   25.4340   37.1330    7.1930 O   0  0  0  0  0  0  0  0  0  0  0  0
   26.3850   37.3050    6.9260 H   0  0  0  0  0  0  0  0  0  0  0  0
   20.9250   36.3740    7.0880 O   0  0  0  0  0  0  0  0  0  0  0  0
   20.7500   37.3120    6.9160 H   0  0  0  0  0  0  0  0  0  0  0  0
   20.5660   34.9800    9.5470 N   0  0  0  0  0  0  0  0  0  0  0  0
   19.1760   35.1600    9.5170 C   0  0  0  0  0  0  0  0  0  0  0  0
   20.9210   33.9970    9.6970 H   0  0  0  0  0  0  0  0  0  0  0  0
   18.2720   34.0000    9.6970 C   0  0  0  0  0  0  0  0  0  0  0  0
   18.6980   36.2850    9.3410 O   0  0  0  0  0  0  0  0  0  0  0  0
   22.3000   33.8920   11.5070 O   0  0  0  0  0  0  0  0  0  0  0  0
   22.8820   33.4060   12.1330 H   0  0  0  0  0  0  0  0  0  0  0  0
   24.6640   35.5090   12.3190 O   0  0  0  0  0  0  0  0  0  0  0  0
   25.1450   36.3600   12.5530 H   0  0  0  0  0  0  0  0  0  0  0  0
   24.9680   31.9790   14.8790 O   0  0  0  0  0  0  0  0  0  0  0  0
   25.2090   32.1160   16.2600 C   0  0  0  0  0  0  0  0  0  0  0  0
   26.5010   31.5350   16.6660 C   0  0  0  0  0  0  0  0  0  0  0  0
   27.7250   31.6480   15.9990 C   0  0  0  0  0  0  0  0  0  0  0  0
   26.7650   30.7810   17.7470 N   0  0  0  0  0  0  0  0  0  0  0  0
   28.6560   30.9750   16.6890 N   0  0  0  0  0  0  0  0  0  0  0  0
   28.0500   30.4600   17.7420 N   0  0  0  0  0  0  0  0  0  0  0  0
   30.0520   30.8230   16.3720 C   0  0  0  0  0  0  0  0  0  0  0  0
   30.7700   32.1130   16.4530 C   0  0  0  0  0  0  0  0  0  0  0  0
   31.3970   32.6340   15.3450 C   0  0  0  0  0  0  0  0  0  0  0  0
   30.8120   32.7940   17.6420 C   0  0  0  0  0  0  0  0  0  0  0  0
   32.0710   33.8490   15.4300 C   0  0  0  0  0  0  0  0  0  0  0  0
   31.4830   34.0120   17.7410 C   0  0  0  0  0  0  0  0  0  0  0  0
   32.1070   34.5310   16.6360 C   0  0  0  0  0  0  0  0  0  0  0  0
   32.7880   35.7480   16.7020 O   0  0  0  0  0  0  0  0  0  0  0  0
   34.0580   35.8710   16.0850 C   0  0  0  0  0  0  0  0  0  0  0  0
   29.8670   25.5550   16.9770 C   0  0  0  0  0  0  0  0  0  0  0  0
   28.3450   25.7220   17.0260 C   0  0  0  0  0  0  0  0  0  0  0  0
   27.5990   24.4370   16.7020 C   0  0  0  0  0  0  0  0  0  0  0  0
   26.9990   23.8060   17.9280 C   0  0  0  0  0  0  0  0  0  0  0  0
   25.5910   23.3140   17.6100 C   0  0  0  0  0  0  0  0  0  0  0  0
   24.8130   24.3730   16.9250 N   0  0  0  0  0  0  0  0  0  0  0  0
  1  4  1  0  0  0  0
  2  1  1  0  0  0  0
  2 31  1  0  0  0  0
  3  2  2  0  0  0  0
  5  1  1  0  0  0  0
  6  5  1  1  0  0  0
  7 27  1  6  0  0  0
  7  6  1  0  0  0  0
  8 11  1  0  0  0  0
  8  7  1  1  0  0  0
  9 16  1  6  0  0  0
  9 14  1  0  0  0  0
  9 11  1  0  0  0  0
 10 12  1  0  0  0  0
 10  9  1  0  0  0  0
 12 20  1  6  0  0  0
 12 13  1  0  0  0  0
 13 22  1  6  0  0  0
 13  8  1  0  0  0  0
 15 14  1  0  0  0  0
 16 17  2  0  0  0  0
 18 16  1  0  0  0  0
 19 18  1  0  0  0  0
 21 20  1  0  0  0  0
 22 24  1  0  0  0  0
 23 22  1  0  0  0  0
 23 25  1  0  0  0  0
 26 23  2  0  0  0  0
 27 28  1  0  0  0  0
 29 30  1  0  0  0  0
 29  6  1  0  0  0  0
 31 32  1  0  0  0  0
 32 33  1  0  0  0  0
 33 35  1  0  0  0  0
 34 33  2  0  0  0  0
 34 36  1  0  0  0  0
 36 37  1  0  0  0  0
 37 35  2  0  0  0  0
 38 39  1  0  0  0  0
 38 36  1  0  0  0  0
 39 41  2  0  0  0  0
 40 42  2  0  0  0  0
 40 39  1  0  0  0  0
 41 43  1  0  0  0  0
 42 44  1  0  0  0  0
 44 45  1  0  0  0  0
 44 43  2  0  0  0  0
 46 45  1  0  0  0  0
 47 48  1  0  0  0  0
 49 48  1  0  0  0  0
 49 50  1  0  0  0  0
 51 50  1  0  0  0  0
 52 51  1  0  0  0  0
M  END
>  <REMARK>
 VINA RESULT:    -4.906      5.752     10.080
 INTER + INTRA:         -14.340
 INTER:                  -9.131
 INTRA:                  -5.209
 UNBOUND:                -5.276
 SMILES COc1ccc(Cn2cc(COC(=O)NC[C@@H](O)C(O)[C@@H]3O[C@@](O)(C(=O)O)C[C@H](O)[C@H]3NC(C)=O)nn2)cc1
 SMILES IDX 15 1 13 2 14 3 16 5 17 6 19 7 21 8 23 9 28 10 22 11 29 12
 SMILES IDX 31 13 24 14 25 16 26 17 27 18 30 20 32 22 33 23 34 25 35 26
 SMILES IDX 20 27 18 29 12 31 11 32 10 33 9 34 36 35 8 36 37 37 7 38
 SMILES IDX 6 39 5 40 38 41 4 42 39 43 3 44 2 45 1 46
 H PARENT 15 4 24 15 27 19 30 21 32 24 20 28 18 30
 Flexibility Score: inf
  4 active torsions:
  status: ('A' for Active; 'I' for Inactive)
    1  A    between atoms: CA   and  CB  
    2  A    between atoms: CB   and  CG  
    3  A    between atoms: CG   and  CD  
    4  A    between atoms: CD   and  CE  

>  <TORSDO>
F 17

>  <BEGIN_>
RES LYS A 131

$$$$
ligand_24_pose_15_2HRL.pdbqt
 OpenBabel07062320523D

  6  5  0  0  0  0  0  0  0  0999 V2000
   33.1930   34.6630    9.2900 C   0  0  0  0  0  0  0  0  0  0  0  0
   32.0600   35.3600   10.0340 C   0  0  0  0  0  0  0  0  0  0  0  0
   30.7730   34.5770   10.0420 C   0  0  0  0  0  0  0  0  0  0  0  0
   30.3550   34.2160    8.6250 C   0  0  0  0  0  0  0  0  0  0  0  0
   28.9030   34.5840    8.3870 C   0  0  0  0  0  0  0  0  0  0  0  0
   28.7540   35.4180    7.1630 N   0  0  0  0  0  0  0  0  0  0  0  0
  1  2  1  0  0  0  0
  2  3  1  0  0  0  0
  4  3  1  0  0  0  0
  5  4  1  0  0  0  0
  6  5  1  0  0  0  0
M  END
>  <EGIN_R>
ES LYS A 135

>  <REMARK>
  4 active torsions:
  status: ('A' for Active; 'I' for Inactive)
    5  A    between atoms: CA   and  CB  
    6  A    between atoms: CB   and  CG  
    7  A    between atoms: CG   and  CD  
    8  A    between atoms: CD   and  CE  

$$$$
