ligand_48_pose_1_2HRL.pdbqt
 OpenBabel07062320523D

 49 50  0  0  1  0  0  0  0  0999 V2000
   30.1890   30.9330   19.4600 C   0  0  0  0  0  0  0  0  0  0  0  0
   30.3870   31.5530   18.0850 C   0  0  2  0  0  0  0  0  0  0  0  0
   29.4710   32.7350   17.9980 C   0  0  1  0  0  0  0  0  0  0  0  0
   29.9610   33.8580   17.1090 C   0  0  2  0  0  0  0  0  0  0  0  0
   29.0380   33.6420   14.9540 C   0  0  2  0  0  0  0  0  0  0  0  0
   30.4030   33.8310   14.3140 C   0  0  0  0  0  0  0  0  0  0  0  0
   29.0360   34.2320   16.1730 O   0  0  0  0  0  0  0  0  0  0  0  0
   31.4950   33.2660   15.1840 C   0  0  1  0  0  0  0  0  0  0  0  0
   31.3610   33.7130   16.6260 C   0  0  1  0  0  0  0  0  0  0  0  0
   28.6640   32.2990   14.9330 O   0  0  0  0  0  0  0  0  0  0  0  0
   28.4470   32.0270   15.8800 H   0  0  0  0  0  0  0  0  0  0  0  0
   28.0910   34.3940   14.0850 C   0  0  0  0  0  0  0  0  0  0  0  0
   26.8650   34.3760   14.3330 O   0  0  0  0  0  0  0  0  0  0  0  0
   28.5640   35.1040   13.0200 O   0  0  0  0  0  0  0  0  0  0  0  0
   29.2570   35.8400   13.0790 H   0  0  0  0  0  0  0  0  0  0  0  0
   31.5560   31.8830   15.0760 O   0  0  0  0  0  0  0  0  0  0  0  0
   31.7430   31.6240   14.1410 H   0  0  0  0  0  0  0  0  0  0  0  0
   32.1160   34.9550   16.8090 N   0  0  0  0  0  0  0  0  0  0  0  0
   32.6280   35.2470   18.0910 C   0  0  0  0  0  0  0  0  0  0  0  0
   32.2800   35.6160   16.0260 H   0  0  0  0  0  0  0  0  0  0  0  0
   33.4110   36.4880   18.3780 C   0  0  0  0  0  0  0  0  0  0  0  0
   32.4600   34.4740   19.0870 O   0  0  0  0  0  0  0  0  0  0  0  0
   28.1540   32.3930   17.8390 O   0  0  0  0  0  0  0  0  0  0  0  0
   27.6000   33.1260   17.4220 H   0  0  0  0  0  0  0  0  0  0  0  0
   30.1800   30.5710   17.1460 O   0  0  0  0  0  0  0  0  0  0  0  0
   29.8980   30.9760   16.3110 H   0  0  0  0  0  0  0  0  0  0  0  0
   29.3730   29.7510   19.3090 N   0  0  0  0  0  0  0  0  0  0  0  0
   28.0140   29.6410   19.6940 C   0  0  0  0  0  0  0  0  0  0  0  0
   29.7820   28.8660   18.8770 H   0  0  0  0  0  0  0  0  0  0  0  0
   27.4400   30.6270   20.2150 O   0  0  0  0  0  0  0  0  0  0  0  0
   27.2990   28.4620   19.5090 O   0  0  0  0  0  0  0  0  0  0  0  0
   27.2870   27.8450   18.2470 C   0  0  0  0  0  0  0  0  0  0  0  0
   26.7890   28.8310   17.2520 C   0  0  0  0  0  0  0  0  0  0  0  0
   25.4540   29.0170   16.8690 C   0  0  0  0  0  0  0  0  0  0  0  0
   27.4630   29.7330   16.5150 N   0  0  0  0  0  0  0  0  0  0  0  0
   25.3840   29.9930   15.9470 N   0  0  0  0  0  0  0  0  0  0  0  0
   26.6230   30.4090   15.7510 N   0  0  0  0  0  0  0  0  0  0  0  0
   24.1820   30.4910   15.2940 C   0  0  0  0  0  0  0  0  0  0  0  0
   24.5360   30.9710   13.9040 C   0  0  0  0  0  0  0  0  0  0  0  0
   23.1680   29.3760   15.1610 C   0  0  0  0  0  0  0  0  0  0  0  0
   24.0880   29.9860   12.8410 C   0  0  0  0  0  0  0  0  0  0  0  0
   22.0570   29.8980   14.2660 C   0  0  0  0  0  0  0  0  0  0  0  0
   22.5870   29.8750   12.8460 C   0  0  0  0  0  0  0  0  0  0  0  0
   29.8670   25.5550   16.9770 C   0  0  0  0  0  0  0  0  0  0  0  0
   28.3450   25.7220   17.0260 C   0  0  0  0  0  0  0  0  0  0  0  0
   27.5990   24.4350   16.7110 C   0  0  0  0  0  0  0  0  0  0  0  0
   26.9760   23.8260   17.9360 C   0  0  0  0  0  0  0  0  0  0  0  0
   25.6090   23.2510   17.5810 C   0  0  0  0  0  0  0  0  0  0  0  0
   24.7790   24.2710   16.8980 N   0  0  0  0  0  0  0  0  0  0  0  0
  2  1  1  1  0  0  0
  3 23  1  6  0  0  0
  3  2  1  0  0  0  0
  4  3  1  6  0  0  0
  5 12  1  6  0  0  0
  5  7  1  0  0  0  0
  6  5  1  0  0  0  0
  6  8  1  0  0  0  0
  7  4  1  0  0  0  0
  8 16  1  1  0  0  0
  8  9  1  0  0  0  0
  9 18  1  6  0  0  0
  9  4  1  0  0  0  0
 10  5  1  0  0  0  0
 10 11  1  0  0  0  0
 12 13  2  0  0  0  0
 14 15  1  0  0  0  0
 14 12  1  0  0  0  0
 17 16  1  0  0  0  0
 18 19  1  0  0  0  0
 19 21  1  0  0  0  0
 19 22  2  0  0  0  0
 20 18  1  0  0  0  0
 24 23  1  0  0  0  0
 25  2  1  0  0  0  0
 26 25  1  0  0  0  0
 27  1  1  0  0  0  0
 27 28  1  0  0  0  0
 28 30  2  0  0  0  0
 29 27  1  0  0  0  0
 31 28  1  0  0  0  0
 32 31  1  0  0  0  0
 33 32  1  0  0  0  0
 34 33  2  0  0  0  0
 35 33  1  0  0  0  0
 36 34  1  0  0  0  0
 37 36  1  0  0  0  0
 37 35  2  0  0  0  0
 38 36  1  0  0  0  0
 39 38  1  0  0  0  0
 40 38  1  0  0  0  0
 41 43  1  0  0  0  0
 41 39  1  0  0  0  0
 42 40  1  0  0  0  0
 43 42  1  0  0  0  0
 44 45  1  0  0  0  0
 46 45  1  0  0  0  0
 46 47  1  0  0  0  0
 48 47  1  0  0  0  0
 49 48  1  0  0  0  0
M  END
>  <REMARK>
 VINA RESULT:    -5.746      3.280      6.505
 INTER + INTRA:         -15.741
 INTER:                  -8.706
 INTRA:                  -7.034
 UNBOUND:                -5.796
 SMILES CC(=O)N[C@@H]1[C@@H](O)C[C@](O)(C(=O)O)O[C@H]1C(O)[C@H](O)CNC(=O)OCc1cn(C2CCCCC2)nn1
 SMILES IDX 20 1 18 2 16 3 15 4 9 5 8 6 14 7 6 8 5 9 10 10 11 12 12 13
 SMILES IDX 13 14 7 16 4 18 2 19 1 21 3 22 17 23 19 25 21 27 22 28 23 30
 SMILES IDX 24 31 25 32 26 33 27 34 36 35 28 36 35 37 29 38 30 39 34 40
 SMILES IDX 31 41 33 42 32 43
 H PARENT 10 11 13 15 7 17 4 20 17 24 19 26 21 29
 Flexibility Score: inf
  4 active torsions:
  status: ('A' for Active; 'I' for Inactive)
    1  A    between atoms: CA   and  CB  
    2  A    between atoms: CB   and  CG  
    3  A    between atoms: CG   and  CD  
    4  A    between atoms: CD   and  CE  

>  <TORSDO>
F 15

>  <BEGIN_>
RES LYS A 131

$$$$
ligand_48_pose_1_2HRL.pdbqt
 OpenBabel07062320523D

  6  5  0  0  0  0  0  0  0  0999 V2000
   33.1930   34.6630    9.2900 C   0  0  0  0  0  0  0  0  0  0  0  0
   32.0600   35.3600   10.0340 C   0  0  0  0  0  0  0  0  0  0  0  0
   30.7440   34.6310    9.9470 C   0  0  0  0  0  0  0  0  0  0  0  0
   30.3170   34.4650    8.4960 C   0  0  0  0  0  0  0  0  0  0  0  0
   28.8070   34.5390    8.3740 C   0  0  0  0  0  0  0  0  0  0  0  0
   28.1420   33.8180    9.4940 N   0  0  0  0  0  0  0  0  0  0  0  0
  1  2  1  0  0  0  0
  3  2  1  0  0  0  0
  4  3  1  0  0  0  0
  5  4  1  0  0  0  0
  5  6  1  0  0  0  0
M  END
>  <EGIN_R>
ES LYS A 135

>  <REMARK>
  4 active torsions:
  status: ('A' for Active; 'I' for Inactive)
    5  A    between atoms: CA   and  CB  
    6  A    between atoms: CB   and  CG  
    7  A    between atoms: CG   and  CD  
    8  A    between atoms: CD   and  CE  

$$$$
