ligand_39_pose_14_2HRL.pdbqt
 OpenBabel07062320523D

 51 52  0  0  1  0  0  0  0  0999 V2000
   24.4680   39.9130    6.4770 N   0  0  0  0  0  0  0  0  0  0  0  0
   25.1800   40.8200    5.6850 C   0  0  0  0  0  0  0  0  0  0  0  0
   24.7520   42.0020    5.5680 O   0  0  0  0  0  0  0  0  0  0  0  0
   24.8600   38.9330    6.5510 H   0  0  0  0  0  0  0  0  0  0  0  0
   23.2470   40.2160    7.1920 C   0  0  0  0  0  0  0  0  0  0  0  0
   23.2120   39.4290    8.4840 C   0  0  2  0  0  0  0  0  0  0  0  0
   22.6200   38.0520    8.2750 C   0  0  2  0  0  0  0  0  0  0  0  0
   23.0320   37.0830    9.3660 C   0  0  2  0  0  0  0  0  0  0  0  0
   22.3940   36.4520   11.5180 C   0  0  2  0  0  0  0  0  0  0  0  0
   23.7590   36.6640   12.0540 C   0  0  0  0  0  0  0  0  0  0  0  0
   22.1830   37.2640   10.4150 O   0  0  0  0  0  0  0  0  0  0  0  0
   24.7400   37.3480   11.1840 C   0  0  1  0  0  0  0  0  0  0  0  0
   24.4870   37.2330    9.7090 C   0  0  1  0  0  0  0  0  0  0  0  0
   21.4550   36.9000   12.4830 O   0  0  0  0  0  0  0  0  0  0  0  0
   20.6600   36.3050   12.5100 H   0  0  0  0  0  0  0  0  0  0  0  0
   22.1220   35.0360   11.2640 C   0  0  0  0  0  0  0  0  0  0  0  0
   22.8720   34.1040   11.6660 O   0  0  0  0  0  0  0  0  0  0  0  0
   20.9890   34.6800   10.5460 O   0  0  0  0  0  0  0  0  0  0  0  0
   20.9320   34.7470    9.5370 H   0  0  0  0  0  0  0  0  0  0  0  0
   24.8730   38.6970   11.5630 O   0  0  0  0  0  0  0  0  0  0  0  0
   25.8630   38.8800   11.4910 H   0  0  0  0  0  0  0  0  0  0  0  0
   25.3050   36.2010    9.1100 N   0  0  0  0  0  0  0  0  0  0  0  0
   26.0570   36.4090    7.9270 C   0  0  0  0  0  0  0  0  0  0  0  0
   25.3520   35.2630    9.5560 H   0  0  0  0  0  0  0  0  0  0  0  0
   26.9040   35.3560    7.2980 C   0  0  0  0  0  0  0  0  0  0  0  0
   25.9840   37.5700    7.3990 O   0  0  0  0  0  0  0  0  0  0  0  0
   22.9490   37.5850    7.0070 O   0  0  0  0  0  0  0  0  0  0  0  0
   22.4490   36.7260    6.8440 H   0  0  0  0  0  0  0  0  0  0  0  0
   22.3930   40.1850    9.3570 O   0  0  0  0  0  0  0  0  0  0  0  0
   22.8240   40.3520   10.2100 H   0  0  0  0  0  0  0  0  0  0  0  0
   26.3500   40.5190    5.0030 O   0  0  0  0  0  0  0  0  0  0  0  0
   27.6060   40.8960    5.5400 C   0  0  0  0  0  0  0  0  0  0  0  0
   28.3550   39.7250    6.0430 C   0  0  0  0  0  0  0  0  0  0  0  0
   29.0560   39.6310    7.2540 C   0  0  0  0  0  0  0  0  0  0  0  0
   28.5330   38.5260    5.4780 N   0  0  0  0  0  0  0  0  0  0  0  0
   29.6150   38.4400    7.3850 N   0  0  0  0  0  0  0  0  0  0  0  0
   29.2710   37.7690    6.2610 N   0  0  0  0  0  0  0  0  0  0  0  0
   30.4370   37.8150    8.3940 C   0  0  0  0  0  0  0  0  0  0  0  0
   29.9200   36.5740    8.9560 C   0  0  0  0  0  0  0  0  0  0  0  0
   30.3250   35.3340    8.4540 C   0  0  0  0  0  0  0  0  0  0  0  0
   29.0510   36.5570   10.0080 C   0  0  0  0  0  0  0  0  0  0  0  0
   29.8540   34.1790    9.0150 C   0  0  0  0  0  0  0  0  0  0  0  0
   28.5780   35.3870   10.5720 C   0  0  0  0  0  0  0  0  0  0  0  0
   28.3730   38.1980   10.7650 Br  0  0  0  0  0  0  0  0  0  0  0  0
   28.9810   34.1730   10.0740 C   0  0  0  0  0  0  0  0  0  0  0  0
   29.8670   25.5550   16.9770 C   0  0  0  0  0  0  0  0  0  0  0  0
   28.3450   25.7220   17.0260 C   0  0  0  0  0  0  0  0  0  0  0  0
   27.6000   24.4180   16.7870 C   0  0  0  0  0  0  0  0  0  0  0  0
   26.8710   23.9480   18.0160 C   0  0  0  0  0  0  0  0  0  0  0  0
   25.5170   24.6440   18.1020 C   0  0  0  0  0  0  0  0  0  0  0  0
   24.7170   24.3770   16.8830 N   0  0  0  0  0  0  0  0  0  0  0  0
  1  4  1  0  0  0  0
  1  5  1  0  0  0  0
  2  1  1  0  0  0  0
  3  2  2  0  0  0  0
  6  5  1  6  0  0  0
  6 29  1  0  0  0  0
  7 27  1  6  0  0  0
  7  6  1  0  0  0  0
  8  7  1  6  0  0  0
  8 13  1  0  0  0  0
  8 11  1  0  0  0  0
  9 16  1  6  0  0  0
  9 10  1  0  0  0  0
  9 14  1  0  0  0  0
 11  9  1  0  0  0  0
 12 20  1  1  0  0  0
 12 10  1  0  0  0  0
 13 22  1  1  0  0  0
 13 12  1  0  0  0  0
 14 15  1  0  0  0  0
 16 17  2  0  0  0  0
 18 16  1  0  0  0  0
 19 18  1  0  0  0  0
 21 20  1  0  0  0  0
 22 24  1  0  0  0  0
 23 22  1  0  0  0  0
 25 23  1  0  0  0  0
 26 23  2  0  0  0  0
 28 27  1  0  0  0  0
 29 30  1  0  0  0  0
 31 32  1  0  0  0  0
 31  2  1  0  0  0  0
 32 33  1  0  0  0  0
 33 34  2  0  0  0  0
 34 36  1  0  0  0  0
 35 33  1  0  0  0  0
 35 37  2  0  0  0  0
 36 38  1  0  0  0  0
 37 36  1  0  0  0  0
 38 39  1  0  0  0  0
 39 41  1  0  0  0  0
 40 39  2  0  0  0  0
 40 42  1  0  0  0  0
 41 43  2  0  0  0  0
 41 44  1  0  0  0  0
 42 45  2  0  0  0  0
 45 43  1  0  0  0  0
 46 47  1  0  0  0  0
 48 47  1  0  0  0  0
 48 49  1  0  0  0  0
 49 50  1  0  0  0  0
 51 50  1  0  0  0  0
M  END
>  <REMARK>
 VINA RESULT:    -3.896      7.526     12.538
 INTER + INTRA:         -14.396
 INTER:                  -8.691
 INTRA:                  -5.705
 UNBOUND:                -7.426
 SMILES CC(=O)N[C@@H]1[C@@H](O)C[C@](O)(C(=O)O)O[C@H]1C(O)[C@H](O)CNC(=O)OCc1cn(Cc2ccccc2Br)nn1
 SMILES IDX 21 1 22 2 23 3 20 5 18 6 16 7 15 8 9 9 8 10 14 11 6 12 5 13
 SMILES IDX 10 14 11 16 12 17 13 18 7 20 4 22 2 23 1 25 3 26 17 27 19 29
 SMILES IDX 24 31 25 32 26 33 27 34 38 35 28 36 37 37 29 38 30 39 31 40
 SMILES IDX 35 41 32 42 34 43 36 44 33 45
 H PARENT 21 4 10 15 13 19 7 21 4 24 17 28 19 30
 Flexibility Score: inf
  4 active torsions:
  status: ('A' for Active; 'I' for Inactive)
    1  A    between atoms: CA   and  CB  
    2  A    between atoms: CB   and  CG  
    3  A    between atoms: CG   and  CD  
    4  A    between atoms: CD   and  CE  

>  <TORSDO>
F 16

>  <BEGIN_>
RES LYS A 131

$$$$
ligand_39_pose_14_2HRL.pdbqt
 OpenBabel07062320523D

  6  5  0  0  0  0  0  0  0  0999 V2000
   33.1930   34.6630    9.2900 C   0  0  0  0  0  0  0  0  0  0  0  0
   32.0600   35.3600   10.0340 C   0  0  0  0  0  0  0  0  0  0  0  0
   32.4970   36.0170   11.3180 C   0  0  0  0  0  0  0  0  0  0  0  0
   31.7520   35.4250   12.5040 C   0  0  0  0  0  0  0  0  0  0  0  0
   32.4090   35.8400   13.8070 C   0  0  0  0  0  0  0  0  0  0  0  0
   33.4250   34.8410   14.2380 N   0  0  0  0  0  0  0  0  0  0  0  0
  1  2  1  0  0  0  0
  2  3  1  0  0  0  0
  3  4  1  0  0  0  0
  4  5  1  0  0  0  0
  5  6  1  0  0  0  0
M  END
>  <EGIN_R>
ES LYS A 135

>  <REMARK>
  4 active torsions:
  status: ('A' for Active; 'I' for Inactive)
    5  A    between atoms: CA   and  CB  
    6  A    between atoms: CB   and  CG  
    7  A    between atoms: CG   and  CD  
    8  A    between atoms: CD   and  CE  

$$$$
