ligand_81_pose_3_2HRL.pdbqt
 OpenBabel07062320523D

 63 65  0  0  1  0  0  0  0  0999 V2000
   25.8970   36.5610    9.9450 O   0  0  0  0  0  0  0  0  0  0  0  0
   25.1200   37.0950    8.9410 C   0  0  0  0  0  0  0  0  0  0  0  0
   23.9740   37.9250    9.2290 N   0  0  0  0  0  0  0  0  0  0  0  0
   23.7940   38.0730   10.2420 H   0  0  0  0  0  0  0  0  0  0  0  0
   25.4340   36.8420    7.7510 O   0  0  0  0  0  0  0  0  0  0  0  0
   23.1960   38.4590    8.1370 C   0  0  0  0  0  0  0  0  0  0  0  0
   21.7300   38.1620    8.4250 C   0  0  2  0  0  0  0  0  0  0  0  0
   21.3620   36.9640    7.5830 C   0  0  2  0  0  0  0  0  0  0  0  0
   21.2890   35.6660    8.3270 C   0  0  2  0  0  0  0  0  0  0  0  0
   18.9820   35.3700    8.0420 C   0  0  2  0  0  0  0  0  0  0  0  0
   18.8170   35.9470    9.4380 C   0  0  0  0  0  0  0  0  0  0  0  0
   20.2520   34.9340    7.7970 O   0  0  0  0  0  0  0  0  0  0  0  0
   19.8850   35.3460   10.3280 C   0  0  1  0  0  0  0  0  0  0  0  0
   21.2800   35.7500    9.8090 C   0  0  1  0  0  0  0  0  0  0  0  0
   18.5700   36.3810    7.1640 O   0  0  0  0  0  0  0  0  0  0  0  0
   17.6630   36.7010    7.3650 H   0  0  0  0  0  0  0  0  0  0  0  0
   18.0730   34.2230    7.8450 C   0  0  0  0  0  0  0  0  0  0  0  0
   17.3350   33.8590    8.7810 O   0  0  0  0  0  0  0  0  0  0  0  0
   18.0400   33.5610    6.6460 O   0  0  0  0  0  0  0  0  0  0  0  0
   18.4350   33.9110    5.7820 H   0  0  0  0  0  0  0  0  0  0  0  0
   19.7110   35.7240   11.6390 O   0  0  0  0  0  0  0  0  0  0  0  0
   19.4050   34.9740   12.1930 H   0  0  0  0  0  0  0  0  0  0  0  0
   22.1940   34.7830   10.4320 N   0  0  0  0  0  0  0  0  0  0  0  0
   23.0150   35.1920   11.5100 C   0  0  0  0  0  0  0  0  0  0  0  0
   22.2490   33.7980   10.0950 H   0  0  0  0  0  0  0  0  0  0  0  0
   23.9670   34.2620   12.1900 C   0  0  0  0  0  0  0  0  0  0  0  0
   22.9200   36.3920   11.8910 O   0  0  0  0  0  0  0  0  0  0  0  0
   22.5030   36.8170    6.7280 O   0  0  0  0  0  0  0  0  0  0  0  0
   22.4640   37.4760    6.0070 H   0  0  0  0  0  0  0  0  0  0  0  0
   21.0310   39.3160    8.1090 O   0  0  0  0  0  0  0  0  0  0  0  0
   20.0700   39.1500    8.0060 H   0  0  0  0  0  0  0  0  0  0  0  0
   26.9070   37.2430   10.6550 C   0  0  0  0  0  0  0  0  0  0  0  0
   27.6870   36.2690   11.4810 C   0  0  0  0  0  0  0  0  0  0  0  0
   28.9110   36.4510   12.0750 C   0  0  0  0  0  0  0  0  0  0  0  0
   27.3230   35.0060   11.7950 N   0  0  0  0  0  0  0  0  0  0  0  0
   29.2780   35.3120   12.7370 N   0  0  0  0  0  0  0  0  0  0  0  0
   28.2740   34.4680   12.5340 N   0  0  0  0  0  0  0  0  0  0  0  0
   30.4790   35.1000   13.4570 C   0  0  0  0  0  0  0  0  0  0  0  0
   31.6610   35.0160   12.8300 N   0  0  0  0  0  0  0  0  0  0  0  0
   30.4610   34.9460   14.8480 C   0  0  0  0  0  0  0  0  0  0  0  0
   32.8110   34.7870   13.5130 C   0  0  0  0  0  0  0  0  0  0  0  0
   31.6170   34.7120   15.5380 C   0  0  0  0  0  0  0  0  0  0  0  0
   32.8080   34.6340   14.8410 N   0  0  0  0  0  0  0  0  0  0  0  0
   29.1590   35.0060   15.5430 C   0  0  0  0  0  0  0  0  0  0  0  0
   28.8680   36.3070   16.2370 C   0  0  0  0  0  0  0  0  0  0  0  0
   28.5610   37.3150   15.3650 O   0  0  0  0  0  0  0  0  0  0  0  0
   29.2660   38.4780   15.5740 C   0  0  0  0  0  0  0  0  0  0  0  0
   30.3670   38.2930   16.5960 C   0  0  0  0  0  0  0  0  0  0  0  0
   34.0350   34.7060   12.8100 N   0  0  0  0  0  0  0  0  0  0  0  0
   34.6820   35.5140   12.7950 H   0  0  0  0  0  0  0  0  0  0  0  0
   34.3170   33.8500   12.2970 H   0  0  0  0  0  0  0  0  0  0  0  0
   31.6480   34.4300   16.9600 C   0  0  0  0  0  0  0  0  0  0  0  0
   31.0980   33.3970   17.6250 C   0  0  0  0  0  0  0  0  0  0  0  0
   32.3740   35.3600   17.7370 C   0  0  0  0  0  0  0  0  0  0  0  0
   31.2490   33.2660   19.0190 C   0  0  0  0  0  0  0  0  0  0  0  0
   32.5290   35.2440   19.0900 C   0  0  0  0  0  0  0  0  0  0  0  0
   31.9590   34.1770   19.7630 C   0  0  0  0  0  0  0  0  0  0  0  0
   29.8670   25.5550   16.9770 C   0  0  0  0  0  0  0  0  0  0  0  0
   28.3450   25.7220   17.0260 C   0  0  0  0  0  0  0  0  0  0  0  0
   27.5990   24.4760   16.5740 C   0  0  0  0  0  0  0  0  0  0  0  0
   27.1390   23.6390   17.7360 C   0  0  0  0  0  0  0  0  0  0  0  0
   25.6230   23.4850   17.6830 C   0  0  0  0  0  0  0  0  0  0  0  0
   25.0860   23.1730   19.0290 N   0  0  0  0  0  0  0  0  0  0  0  0
  1 32  1  0  0  0  0
  2  3  1  0  0  0  0
  2  1  1  0  0  0  0
  3  4  1  0  0  0  0
  5  2  2  0  0  0  0
  6  3  1  0  0  0  0
  7  6  1  6  0  0  0
  8 28  1  6  0  0  0
  8  7  1  0  0  0  0
  9  8  1  6  0  0  0
  9 14  1  0  0  0  0
 10 15  1  6  0  0  0
 10 11  1  0  0  0  0
 11 13  1  0  0  0  0
 12 10  1  0  0  0  0
 12  9  1  0  0  0  0
 13 21  1  1  0  0  0
 14 13  1  0  0  0  0
 14 23  1  1  0  0  0
 15 16  1  0  0  0  0
 17 10  1  0  0  0  0
 17 18  2  0  0  0  0
 19 17  1  0  0  0  0
 20 19  1  0  0  0  0
 21 22  1  0  0  0  0
 23 24  1  0  0  0  0
 24 27  2  0  0  0  0
 24 26  1  0  0  0  0
 25 23  1  0  0  0  0
 29 28  1  0  0  0  0
 30  7  1  0  0  0  0
 31 30  1  0  0  0  0
 32 33  1  0  0  0  0
 33 35  1  0  0  0  0
 33 34  2  0  0  0  0
 34 36  1  0  0  0  0
 35 37  2  0  0  0  0
 36 38  1  0  0  0  0
 37 36  1  0  0  0  0
 38 40  2  0  0  0  0
 39 38  1  0  0  0  0
 39 41  2  0  0  0  0
 40 42  1  0  0  0  0
 40 44  1  0  0  0  0
 41 43  1  0  0  0  0
 42 52  1  0  0  0  0
 43 42  2  0  0  0  0
 44 45  1  0  0  0  0
 46 47  1  0  0  0  0
 46 45  1  0  0  0  0
 47 48  1  0  0  0  0
 49 41  1  0  0  0  0
 50 49  1  0  0  0  0
 51 49  1  0  0  0  0
 52 53  2  0  0  0  0
 52 54  1  0  0  0  0
 53 55  1  0  0  0  0
 54 56  2  0  0  0  0
 55 57  2  0  0  0  0
 56 57  1  0  0  0  0
 58 59  1  0  0  0  0
 60 59  1  0  0  0  0
 60 61  1  0  0  0  0
 62 61  1  0  0  0  0
 62 63  1  0  0  0  0
M  END
>  <REMARK>
 VINA RESULT:    -4.913      1.413      2.003
 INTER + INTRA:         -17.254
 INTER:                 -11.246
 INTRA:                  -6.008
 UNBOUND:                -7.171
 SMILES CCOCCc1c(-c2ccccc2)nc(N)nc1-n1cc(COC(=O)NC[C@@H](O)C(O)[C@@H]2O[C@@](O)(C(=O)O)C[C@H](O)[C@H]2NC(C)=O)nn1
 SMILES IDX 23 1 24 2 26 3 25 5 27 6 28 7 30 8 32 9 34 10 39 11 33 12
 SMILES IDX 40 13 42 14 35 15 36 17 37 18 38 19 41 21 43 23 44 24 45 26
 SMILES IDX 46 27 31 28 29 30 22 32 21 33 20 34 47 35 19 36 48 37 18 38
 SMILES IDX 17 39 6 40 15 41 7 42 14 43 5 44 4 45 3 46 2 47 1 48 16 49
 SMILES IDX 8 52 9 53 13 54 10 55 12 56 11 57
 H PARENT 26 4 35 16 38 20 41 22 43 25 31 29 29 31 16 50 16 51
 Flexibility Score: inf
  4 active torsions:
  status: ('A' for Active; 'I' for Inactive)
    1  A    between atoms: CA   and  CB  
    2  A    between atoms: CB   and  CG  
    3  A    between atoms: CG   and  CD  
    4  A    between atoms: CD   and  CE  

>  <TORSDO>
F 21

>  <BEGIN_>
RES LYS A 131

$$$$
ligand_81_pose_3_2HRL.pdbqt
 OpenBabel07062320523D

  6  5  0  0  0  0  0  0  0  0999 V2000
   33.1930   34.6630    9.2900 C   0  0  0  0  0  0  0  0  0  0  0  0
   32.0600   35.3600   10.0340 C   0  0  0  0  0  0  0  0  0  0  0  0
   30.7990   35.4970    9.2200 C   0  0  0  0  0  0  0  0  0  0  0  0
   30.0180   34.1920    9.2170 C   0  0  0  0  0  0  0  0  0  0  0  0
   28.6870   34.3690    8.5110 C   0  0  0  0  0  0  0  0  0  0  0  0
   28.6560   35.6420    7.7380 N   0  0  0  0  0  0  0  0  0  0  0  0
  1  2  1  0  0  0  0
  3  2  1  0  0  0  0
  4  3  1  0  0  0  0
  5  4  1  0  0  0  0
  6  5  1  0  0  0  0
M  END
>  <EGIN_R>
ES LYS A 135

>  <REMARK>
  4 active torsions:
  status: ('A' for Active; 'I' for Inactive)
    5  A    between atoms: CA   and  CB  
    6  A    between atoms: CB   and  CG  
    7  A    between atoms: CG   and  CD  
    8  A    between atoms: CD   and  CE  

$$$$
