ligand_93_pose_12_2HRL.pdbqt
 OpenBabel07062320523D

 50 51  0  0  1  0  0  0  0  0999 V2000
   27.2780   33.8420   14.9060 C   0  0  0  0  0  0  0  0  0  0  0  0
   28.6060   33.5260   15.5560 C   0  0  2  0  0  0  0  0  0  0  0  0
   29.7290   33.7790   14.6140 C   0  0  1  0  0  0  0  0  0  0  0  0
   30.5790   34.9870   14.9110 C   0  0  2  0  0  0  0  0  0  0  0  0
   30.2680   36.6850   13.3070 C   0  0  2  0  0  0  0  0  0  0  0  0
   31.7590   36.7480   13.0460 C   0  0  0  0  0  0  0  0  0  0  0  0
   29.9130   36.0740   14.4550 O   0  0  0  0  0  0  0  0  0  0  0  0
   32.2900   35.3450   13.1860 C   0  0  1  0  0  0  0  0  0  0  0  0
   32.0170   34.8830   14.5950 C   0  0  1  0  0  0  0  0  0  0  0  0
   29.7290   35.9700   12.2370 O   0  0  0  0  0  0  0  0  0  0  0  0
   30.4790   35.8260   11.5850 H   0  0  0  0  0  0  0  0  0  0  0  0
   29.7530   38.0860   13.2060 C   0  0  0  0  0  0  0  0  0  0  0  0
   30.4770   39.0940   13.3600 O   0  0  0  0  0  0  0  0  0  0  0  0
   28.4150   38.2710   12.9320 O   0  0  0  0  0  0  0  0  0  0  0  0
   27.6720   38.0020   13.5810 H   0  0  0  0  0  0  0  0  0  0  0  0
   31.6370   34.5710   12.2250 O   0  0  0  0  0  0  0  0  0  0  0  0
   31.8930   33.6180   12.2750 H   0  0  0  0  0  0  0  0  0  0  0  0
   32.7940   35.7690   15.4810 N   0  0  0  0  0  0  0  0  0  0  0  0
   32.8780   35.5440   16.8770 C   0  0  0  0  0  0  0  0  0  0  0  0
   33.2980   36.5860   15.0850 H   0  0  0  0  0  0  0  0  0  0  0  0
   33.6790   36.4800   17.6990 C   0  0  0  0  0  0  0  0  0  0  0  0
   32.2840   34.5660   17.4210 O   0  0  0  0  0  0  0  0  0  0  0  0
   30.4580   32.6340   14.3220 O   0  0  0  0  0  0  0  0  0  0  0  0
   30.5680   32.5080   13.3380 H   0  0  0  0  0  0  0  0  0  0  0  0
   28.5300   32.1540   15.9140 O   0  0  0  0  0  0  0  0  0  0  0  0
   27.7080   31.7600   15.5120 H   0  0  0  0  0  0  0  0  0  0  0  0
   27.3100   35.0050   14.0490 N   0  0  0  0  0  0  0  0  0  0  0  0
   26.5210   35.0040   12.8550 C   0  0  0  0  0  0  0  0  0  0  0  0
   27.8980   35.8100   14.3240 H   0  0  0  0  0  0  0  0  0  0  0  0
   25.8360   33.9990   12.6000 O   0  0  0  0  0  0  0  0  0  0  0  0
   26.5690   36.1310   12.0520 O   0  0  0  0  0  0  0  0  0  0  0  0
   25.9660   36.0860   10.7850 C   0  0  0  0  0  0  0  0  0  0  0  0
   26.7280   36.9800    9.8800 C   0  0  0  0  0  0  0  0  0  0  0  0
   26.2720   37.4000    8.6250 C   0  0  0  0  0  0  0  0  0  0  0  0
   27.9290   37.5470   10.0390 N   0  0  0  0  0  0  0  0  0  0  0  0
   27.2400   38.1830    8.1380 N   0  0  0  0  0  0  0  0  0  0  0  0
   28.2470   38.2780    8.9850 N   0  0  0  0  0  0  0  0  0  0  0  0
   27.2000   38.8310    6.8790 C   0  0  0  0  0  0  0  0  0  0  0  0
   27.7630   38.1920    5.7750 C   0  0  0  0  0  0  0  0  0  0  0  0
   26.6120   40.0610    6.7740 C   0  0  0  0  0  0  0  0  0  0  0  0
   27.7280   38.8150    4.5450 C   0  0  0  0  0  0  0  0  0  0  0  0
   26.5870   40.6690    5.5320 C   0  0  0  0  0  0  0  0  0  0  0  0
   25.7490   41.0640    8.4130 I   0  0  0  0  0  0  0  0  0  0  0  0
   27.1390   40.0550    4.4230 C   0  0  0  0  0  0  0  0  0  0  0  0
   29.8670   25.5550   16.9770 C   0  0  0  0  0  0  0  0  0  0  0  0
   28.3450   25.7220   17.0260 C   0  0  0  0  0  0  0  0  0  0  0  0
   27.5990   24.4390   16.6940 C   0  0  0  0  0  0  0  0  0  0  0  0
   27.0270   23.7830   17.9200 C   0  0  0  0  0  0  0  0  0  0  0  0
   25.5920   23.3470   17.6420 C   0  0  0  0  0  0  0  0  0  0  0  0
   24.8560   24.4140   16.9240 N   0  0  0  0  0  0  0  0  0  0  0  0
  2  1  1  6  0  0  0
  2 25  1  0  0  0  0
  3 23  1  1  0  0  0
  3  2  1  0  0  0  0
  4  3  1  6  0  0  0
  5 10  1  6  0  0  0
  5  7  1  0  0  0  0
  6  8  1  0  0  0  0
  6  5  1  0  0  0  0
  7  4  1  0  0  0  0
  8 16  1  6  0  0  0
  8  9  1  0  0  0  0
  9  4  1  0  0  0  0
  9 18  1  1  0  0  0
 11 10  1  0  0  0  0
 12  5  1  0  0  0  0
 12 13  2  0  0  0  0
 14 12  1  0  0  0  0
 14 15  1  0  0  0  0
 16 17  1  0  0  0  0
 18 19  1  0  0  0  0
 19 22  2  0  0  0  0
 19 21  1  0  0  0  0
 20 18  1  0  0  0  0
 24 23  1  0  0  0  0
 26 25  1  0  0  0  0
 27 29  1  0  0  0  0
 27  1  1  0  0  0  0
 28 27  1  0  0  0  0
 30 28  2  0  0  0  0
 31 28  1  0  0  0  0
 32 31  1  0  0  0  0
 33 35  1  0  0  0  0
 33 32  1  0  0  0  0
 34 33  2  0  0  0  0
 36 34  1  0  0  0  0
 36 37  1  0  0  0  0
 37 35  2  0  0  0  0
 38 36  1  0  0  0  0
 39 38  2  0  0  0  0
 40 38  1  0  0  0  0
 40 43  1  0  0  0  0
 41 39  1  0  0  0  0
 42 40  2  0  0  0  0
 44 41  2  0  0  0  0
 44 42  1  0  0  0  0
 45 46  1  0  0  0  0
 47 46  1  0  0  0  0
 47 48  1  0  0  0  0
 49 48  1  0  0  0  0
 50 49  1  0  0  0  0
M  END
>  <REMARK>
 VINA RESULT:    -4.335      4.043      7.192
 INTER + INTRA:         -13.789
 INTER:                  -7.901
 INTRA:                  -5.887
 UNBOUND:                -6.285
 SMILES CC(=O)N[C@@H]1[C@@H](O)C[C@](O)(C(=O)O)O[C@H]1C(O)[C@H](O)CNC(=O)OCc1cn(-c2ccccc2I)nn1
 SMILES IDX 20 1 18 2 16 3 15 4 9 5 8 6 14 7 6 8 5 9 10 10 11 12 12 13
 SMILES IDX 13 14 7 16 4 18 2 19 1 21 3 22 17 23 19 25 21 27 22 28 23 30
 SMILES IDX 24 31 25 32 26 33 27 34 37 35 28 36 36 37 29 38 30 39 34 40
 SMILES IDX 31 41 33 42 35 43 32 44
 H PARENT 10 11 13 15 7 17 4 20 17 24 19 26 21 29
 Flexibility Score: inf
  4 active torsions:
  status: ('A' for Active; 'I' for Inactive)
    1  A    between atoms: CA   and  CB  
    2  A    between atoms: CB   and  CG  
    3  A    between atoms: CG   and  CD  
    4  A    between atoms: CD   and  CE  

>  <TORSDO>
F 15

>  <BEGIN_>
RES LYS A 131

$$$$
ligand_93_pose_12_2HRL.pdbqt
 OpenBabel07062320523D

  6  5  0  0  0  0  0  0  0  0999 V2000
   33.1930   34.6630    9.2900 C   0  0  0  0  0  0  0  0  0  0  0  0
   32.0600   35.3600   10.0340 C   0  0  0  0  0  0  0  0  0  0  0  0
   30.8210   35.5550    9.1990 C   0  0  0  0  0  0  0  0  0  0  0  0
   30.0790   34.2390    9.0250 C   0  0  0  0  0  0  0  0  0  0  0  0
   28.7750   34.4570    8.2810 C   0  0  0  0  0  0  0  0  0  0  0  0
   28.9860   35.2830    7.0600 N   0  0  0  0  0  0  0  0  0  0  0  0
  1  2  1  0  0  0  0
  3  2  1  0  0  0  0
  4  3  1  0  0  0  0
  5  4  1  0  0  0  0
  6  5  1  0  0  0  0
M  END
>  <EGIN_R>
ES LYS A 135

>  <REMARK>
  4 active torsions:
  status: ('A' for Active; 'I' for Inactive)
    5  A    between atoms: CA   and  CB  
    6  A    between atoms: CB   and  CG  
    7  A    between atoms: CG   and  CD  
    8  A    between atoms: CD   and  CE  

$$$$
