ligand_63_pose_7_2HRL.pdbqt
 OpenBabel07062320523D

 51 52  0  0  1  0  0  0  0  0999 V2000
   24.2430   37.2940   10.2930 N   0  0  0  0  0  0  0  0  0  0  0  0
   22.8530   37.0460   10.5530 C   0  0  0  0  0  0  0  0  0  0  0  0
   21.9670   37.4930    9.8170 O   0  0  0  0  0  0  0  0  0  0  0  0
   24.8890   36.8190   11.0080 H   0  0  0  0  0  0  0  0  0  0  0  0
   24.7390   38.0170    9.2230 C   0  0  0  0  0  0  0  0  0  0  0  0
   24.7790   37.3310    7.8350 C   0  0  2  0  0  0  0  0  0  0  0  0
   26.1910   36.9130    7.6820 C   0  0  1  0  0  0  0  0  0  0  0  0
   27.2510   37.9400    7.5060 C   0  0  2  0  0  0  0  0  0  0  0  0
   27.5100   38.9410    5.3930 C   0  0  2  0  0  0  0  0  0  0  0  0
   28.9330   39.3750    5.6470 C   0  0  0  0  0  0  0  0  0  0  0  0
   26.7590   38.8910    6.5700 O   0  0  0  0  0  0  0  0  0  0  0  0
   29.4190   38.8340    7.0070 C   0  0  1  0  0  0  0  0  0  0  0  0
   28.6100   37.5240    7.1720 C   0  0  1  0  0  0  0  0  0  0  0  0
   27.4840   37.7680    4.6560 O   0  0  0  0  0  0  0  0  0  0  0  0
   28.0950   37.0800    4.9610 H   0  0  0  0  0  0  0  0  0  0  0  0
   26.8880   40.0350    4.6190 C   0  0  0  0  0  0  0  0  0  0  0  0
   27.2190   40.5960    3.6470 O   0  0  0  0  0  0  0  0  0  0  0  0
   25.6060   40.4690    5.2160 O   0  0  0  0  0  0  0  0  0  0  0  0
   25.6760   40.8740    6.1520 H   0  0  0  0  0  0  0  0  0  0  0  0
   30.7690   38.5970    6.9930 O   0  0  0  0  0  0  0  0  0  0  0  0
   31.1550   38.7430    6.1120 H   0  0  0  0  0  0  0  0  0  0  0  0
   29.2770   36.7510    8.2310 N   0  0  0  0  0  0  0  0  0  0  0  0
   29.6270   35.4180    7.9680 C   0  0  0  0  0  0  0  0  0  0  0  0
   29.4860   37.1870    9.1090 H   0  0  0  0  0  0  0  0  0  0  0  0
   30.2840   34.3840    8.6770 C   0  0  0  0  0  0  0  0  0  0  0  0
   29.2250   35.1030    6.7030 O   0  0  0  0  0  0  0  0  0  0  0  0
   26.4840   35.8320    8.4620 O   0  0  0  0  0  0  0  0  0  0  0  0
   25.6880   35.2710    8.6570 H   0  0  0  0  0  0  0  0  0  0  0  0
   24.2710   38.2530    6.9650 O   0  0  0  0  0  0  0  0  0  0  0  0
   24.7670   39.1050    7.0570 H   0  0  0  0  0  0  0  0  0  0  0  0
   22.5070   36.2740   11.6640 O   0  0  0  0  0  0  0  0  0  0  0  0
   22.9280   34.8970   11.7720 C   0  0  0  0  0  0  0  0  0  0  0  0
   24.1510   34.9930   12.6510 C   0  0  0  0  0  0  0  0  0  0  0  0
   25.3240   34.3170   12.4870 C   0  0  0  0  0  0  0  0  0  0  0  0
   24.2860   35.8320   13.6770 N   0  0  0  0  0  0  0  0  0  0  0  0
   26.1630   34.7970   13.4560 N   0  0  0  0  0  0  0  0  0  0  0  0
   25.4900   35.7190   14.1590 N   0  0  0  0  0  0  0  0  0  0  0  0
   27.4870   34.4330   13.6770 C   0  0  0  0  0  0  0  0  0  0  0  0
   27.8280   33.6410   14.7780 N   0  0  0  0  0  0  0  0  0  0  0  0
   28.5760   34.8640   12.9490 C   0  0  0  0  0  0  0  0  0  0  0  0
   29.0430   33.3850   15.0290 C   0  0  0  0  0  0  0  0  0  0  0  0
   29.8400   34.5900   13.2250 C   0  0  0  0  0  0  0  0  0  0  0  0
   30.2150   33.7870   14.3410 C   0  0  0  0  0  0  0  0  0  0  0  0
   28.3120   35.7880   11.7780 C   0  0  0  0  0  0  0  0  0  0  0  0
   28.1410   36.4180   11.0080 N   0  0  0  0  0  0  0  0  0  0  0  0
   29.8670   25.5550   16.9770 C   0  0  0  0  0  0  0  0  0  0  0  0
   28.3450   25.7220   17.0260 C   0  0  0  0  0  0  0  0  0  0  0  0
   27.6010   24.4030   16.8870 C   0  0  0  0  0  0  0  0  0  0  0  0
   26.6450   24.1690   18.0240 C   0  0  0  0  0  0  0  0  0  0  0  0
   25.5770   23.1700   17.5930 C   0  0  0  0  0  0  0  0  0  0  0  0
   24.4600   23.8650   16.9120 N   0  0  0  0  0  0  0  0  0  0  0  0
  1  2  1  0  0  0  0
  1  4  1  0  0  0  0
  2 31  1  0  0  0  0
  3  2  2  0  0  0  0
  5  1  1  0  0  0  0
  6  5  1  1  0  0  0
  7  6  1  0  0  0  0
  7 27  1  1  0  0  0
  8  7  1  6  0  0  0
  9 16  1  6  0  0  0
  9 10  1  0  0  0  0
  9 11  1  0  0  0  0
 10 12  1  0  0  0  0
 11  8  1  0  0  0  0
 12 20  1  6  0  0  0
 12 13  1  0  0  0  0
 13  8  1  0  0  0  0
 13 22  1  1  0  0  0
 14 15  1  0  0  0  0
 14  9  1  0  0  0  0
 16 18  1  0  0  0  0
 17 16  2  0  0  0  0
 18 19  1  0  0  0  0
 21 20  1  0  0  0  0
 22 24  1  0  0  0  0
 23 22  1  0  0  0  0
 23 25  1  0  0  0  0
 26 23  2  0  0  0  0
 27 28  1  0  0  0  0
 29 30  1  0  0  0  0
 29  6  1  0  0  0  0
 31 32  1  0  0  0  0
 32 33  1  0  0  0  0
 33 35  1  0  0  0  0
 34 33  2  0  0  0  0
 34 36  1  0  0  0  0
 35 37  2  0  0  0  0
 36 38  1  0  0  0  0
 36 37  1  0  0  0  0
 38 39  2  0  0  0  0
 39 41  1  0  0  0  0
 40 42  2  0  0  0  0
 40 38  1  0  0  0  0
 42 43  1  0  0  0  0
 43 41  2  0  0  0  0
 44 40  1  0  0  0  0
 45 44  3  0  0  0  0
 46 47  1  0  0  0  0
 48 47  1  0  0  0  0
 48 49  1  0  0  0  0
 50 49  1  0  0  0  0
 51 50  1  0  0  0  0
M  END
>  <REMARK>
 VINA RESULT:    -4.200      1.796      3.511
 INTER + INTRA:         -14.556
 INTER:                  -9.683
 INTRA:                  -4.873
 UNBOUND:                -7.042
 SMILES CC(=O)N[C@@H]1[C@@H](O)C[C@](O)(C(=O)O)O[C@H]1C(O)[C@H](O)CNC(=O)OCc1cn(-c2ncccc2C#N)nn1
 SMILES IDX 21 1 22 2 23 3 20 5 18 6 16 7 15 8 9 9 8 10 14 11 6 12 5 13
 SMILES IDX 10 14 11 16 12 17 13 18 7 20 4 22 2 23 1 25 3 26 17 27 19 29
 SMILES IDX 24 31 25 32 26 33 27 34 38 35 28 36 37 37 29 38 30 39 34 40
 SMILES IDX 31 41 33 42 32 43 35 44 36 45
 H PARENT 21 4 10 15 13 19 7 21 4 24 17 28 19 30
 Flexibility Score: inf
  4 active torsions:
  status: ('A' for Active; 'I' for Inactive)
    1  A    between atoms: CA   and  CB  
    2  A    between atoms: CB   and  CG  
    3  A    between atoms: CG   and  CD  
    4  A    between atoms: CD   and  CE  

>  <TORSDO>
F 16

>  <BEGIN_>
RES LYS A 131

$$$$
ligand_63_pose_7_2HRL.pdbqt
 OpenBabel07062320523D

  6  5  0  0  0  0  0  0  0  0999 V2000
   33.1930   34.6630    9.2900 C   0  0  0  0  0  0  0  0  0  0  0  0
   32.0600   35.3600   10.0340 C   0  0  0  0  0  0  0  0  0  0  0  0
   32.4790   35.9470   11.3570 C   0  0  0  0  0  0  0  0  0  0  0  0
   31.7830   37.2770   11.5990 C   0  0  0  0  0  0  0  0  0  0  0  0
   31.6730   38.0640   10.3060 C   0  0  0  0  0  0  0  0  0  0  0  0
   31.7380   39.5290   10.5630 N   0  0  0  0  0  0  0  0  0  0  0  0
  1  2  1  0  0  0  0
  2  3  1  0  0  0  0
  3  4  1  0  0  0  0
  5  6  1  0  0  0  0
  5  4  1  0  0  0  0
M  END
>  <EGIN_R>
ES LYS A 135

>  <REMARK>
  4 active torsions:
  status: ('A' for Active; 'I' for Inactive)
    5  A    between atoms: CA   and  CB  
    6  A    between atoms: CB   and  CG  
    7  A    between atoms: CG   and  CD  
    8  A    between atoms: CD   and  CE  

$$$$
