ligand_26_pose_14_2HRL.pdbqt
 OpenBabel07062320523D

 54 55  0  0  1  0  0  0  0  0999 V2000
   28.4830   35.1410    7.3300 N   0  0  0  0  0  0  0  0  0  0  0  0
   29.4130   34.5080    8.2030 C   0  0  0  0  0  0  0  0  0  0  0  0
   30.6240   34.5520    7.9190 O   0  0  0  0  0  0  0  0  0  0  0  0
   27.4670   35.0600    7.6430 H   0  0  0  0  0  0  0  0  0  0  0  0
   28.8450   35.8430    6.1190 C   0  0  0  0  0  0  0  0  0  0  0  0
   28.2970   37.2520    6.0960 C   0  0  2  0  0  0  0  0  0  0  0  0
   28.1060   37.8050    7.4920 C   0  0  1  0  0  0  0  0  0  0  0  0
   28.6490   39.1940    7.6540 C   0  0  2  0  0  0  0  0  0  0  0  0
   30.9060   38.9340    8.1900 C   0  0  2  0  0  0  0  0  0  0  0  0
   30.6910   39.4100    9.6040 C   0  0  0  0  0  0  0  0  0  0  0  0
   29.9620   39.3230    7.2880 O   0  0  0  0  0  0  0  0  0  0  0  0
   29.2870   39.1990   10.0880 C   0  0  1  0  0  0  0  0  0  0  0  0
   28.3620   39.7620    9.0320 C   0  0  1  0  0  0  0  0  0  0  0  0
   31.1460   37.5410    8.1990 O   0  0  0  0  0  0  0  0  0  0  0  0
   31.9670   37.3050    7.7270 H   0  0  0  0  0  0  0  0  0  0  0  0
   32.2070   39.5570    7.7490 C   0  0  0  0  0  0  0  0  0  0  0  0
   32.3210   40.2630    6.7380 O   0  0  0  0  0  0  0  0  0  0  0  0
   33.3040   39.2770    8.5820 O   0  0  0  0  0  0  0  0  0  0  0  0
   33.6000   38.3280    8.7450 H   0  0  0  0  0  0  0  0  0  0  0  0
   29.0120   37.8880   10.3970 O   0  0  0  0  0  0  0  0  0  0  0  0
   29.8500   37.3690   10.4390 H   0  0  0  0  0  0  0  0  0  0  0  0
   28.6920   41.1940    8.9460 N   0  0  0  0  0  0  0  0  0  0  0  0
   27.6660   42.1530    9.1660 C   0  0  0  0  0  0  0  0  0  0  0  0
   29.6510   41.5270    8.7300 H   0  0  0  0  0  0  0  0  0  0  0  0
   28.0160   43.5940    9.0770 C   0  0  0  0  0  0  0  0  0  0  0  0
   26.5100   41.7520    9.4260 O   0  0  0  0  0  0  0  0  0  0  0  0
   26.7350   37.7620    7.7570 O   0  0  0  0  0  0  0  0  0  0  0  0
   26.4800   36.8190    7.9870 H   0  0  0  0  0  0  0  0  0  0  0  0
   27.0690   37.2490    5.4040 O   0  0  0  0  0  0  0  0  0  0  0  0
   27.1130   37.7880    4.5750 H   0  0  0  0  0  0  0  0  0  0  0  0
   29.0300   33.8480    9.3490 O   0  0  0  0  0  0  0  0  0  0  0  0
   27.7060   33.7130    9.8160 C   0  0  0  0  0  0  0  0  0  0  0  0
   27.2220   34.8420   10.6150 C   0  0  0  0  0  0  0  0  0  0  0  0
   27.2250   34.9160   12.0140 C   0  0  0  0  0  0  0  0  0  0  0  0
   26.6870   36.0200   10.2040 N   0  0  0  0  0  0  0  0  0  0  0  0
   26.7170   36.0810   12.3690 N   0  0  0  0  0  0  0  0  0  0  0  0
   26.4020   36.7250   11.2830 N   0  0  0  0  0  0  0  0  0  0  0  0
   26.5470   36.5510   13.7800 C   0  0  1  0  0  0  0  0  0  0  0  0
   25.0640   36.7750   13.9170 C   0  0  0  0  0  0  0  0  0  0  0  0
   27.0510   35.4880   14.6400 C   0  0  0  0  0  0  0  0  0  0  0  0
   28.3540   35.5740   15.2210 C   0  0  2  0  0  0  0  0  0  0  0  0
   28.6110   36.7890   15.7150 O   0  0  0  0  0  0  0  0  0  0  0  0
   29.4360   34.6550   15.3870 C   0  0  0  0  0  0  0  0  0  0  0  0
   30.3670   34.8900   16.4280 C   0  0  0  0  0  0  0  0  0  0  0  0
   29.6540   33.5310   14.6280 C   0  0  0  0  0  0  0  0  0  0  0  0
   31.4200   34.0400   16.6540 C   0  0  0  0  0  0  0  0  0  0  0  0
   30.7290   32.6930   14.8860 C   0  0  0  0  0  0  0  0  0  0  0  0
   31.6200   32.9220   15.8830 C   0  0  0  0  0  0  0  0  0  0  0  0
   29.8670   25.5550   16.9770 C   0  0  0  0  0  0  0  0  0  0  0  0
   28.3450   25.7220   17.0260 C   0  0  0  0  0  0  0  0  0  0  0  0
   27.6010   24.4010   16.9060 C   0  0  0  0  0  0  0  0  0  0  0  0
   26.1550   24.5270   17.2960 C   0  0  0  0  0  0  0  0  0  0  0  0
   25.7930   23.4180   18.2790 C   0  0  0  0  0  0  0  0  0  0  0  0
   24.9510   22.3940   17.6180 N   0  0  0  0  0  0  0  0  0  0  0  0
  1  4  1  0  0  0  0
  1  2  1  0  0  0  0
  2 31  1  0  0  0  0
  3  2  2  0  0  0  0
  5  1  1  0  0  0  0
  6  5  1  1  0  0  0
  6  7  1  0  0  0  0
  7 27  1  6  0  0  0
  8  7  1  1  0  0  0
  8 13  1  0  0  0  0
  9 16  1  6  0  0  0
  9 14  1  0  0  0  0
  9 10  1  0  0  0  0
 10 12  1  0  0  0  0
 11  8  1  0  0  0  0
 11  9  1  0  0  0  0
 12 20  1  6  0  0  0
 13 22  1  6  0  0  0
 13 12  1  0  0  0  0
 15 14  1  0  0  0  0
 16 18  1  0  0  0  0
 17 16  2  0  0  0  0
 18 19  1  0  0  0  0
 20 21  1  0  0  0  0
 22 23  1  0  0  0  0
 23 26  2  0  0  0  0
 24 22  1  0  0  0  0
 25 23  1  0  0  0  0
 27 28  1  0  0  0  0
 29  6  1  0  0  0  0
 30 29  1  0  0  0  0
 31 32  1  0  0  0  0
 32 33  1  0  0  0  0
 33 34  2  0  0  0  0
 34 36  1  0  0  0  0
 35 33  1  0  0  0  0
 35 37  2  0  0  0  0
 36 38  1  0  0  0  0
 37 36  1  0  0  0  0
 38 39  1  1  0  0  0
 38 40  1  0  0  0  0
 40 41  1  0  0  0  0
 41 43  1  0  0  0  0
 41 42  1  6  0  0  0
 43 44  2  0  0  0  0
 44 46  1  0  0  0  0
 45 47  2  0  0  0  0
 45 43  1  0  0  0  0
 47 48  1  0  0  0  0
 48 46  2  0  0  0  0
 49 50  1  0  0  0  0
 51 50  1  0  0  0  0
 51 52  1  0  0  0  0
 52 53  1  0  0  0  0
 54 53  1  0  0  0  0
M  END
>  <REMARK>
 VINA RESULT:    -4.566      5.956     11.705
 INTER + INTRA:         -15.638
 INTER:                 -10.450
 INTRA:                  -5.188
 UNBOUND:                -6.934
 SMILES CC(=O)N[C@@H]1[C@@H](O)C[C@](O)(C(=O)O)O[C@H]1C(O)[C@H](O)CNC(=O)OCc1cn(C(C)CC(=O)c2ccccc2)nn1
 SMILES IDX 21 1 22 2 23 3 20 5 18 6 16 7 15 8 9 9 8 10 14 11 6 12 5 13
 SMILES IDX 10 14 11 16 12 17 13 18 7 20 4 22 2 23 1 25 3 26 17 27 19 29
 SMILES IDX 24 31 25 32 26 33 27 34 41 35 28 36 40 37 29 38 30 39 31 40
 SMILES IDX 32 41 33 42 34 43 35 44 39 45 36 46 38 47 37 48
 H PARENT 21 4 10 15 13 19 7 21 4 24 17 28 19 30
 Flexibility Score: inf
  4 active torsions:
  status: ('A' for Active; 'I' for Inactive)
    1  A    between atoms: CA   and  CB  
    2  A    between atoms: CB   and  CG  
    3  A    between atoms: CG   and  CD  
    4  A    between atoms: CD   and  CE  

>  <TORSDO>
F 18

>  <BEGIN_>
RES LYS A 131

$$$$
ligand_26_pose_14_2HRL.pdbqt
 OpenBabel07062320523D

  6  5  0  0  0  0  0  0  0  0999 V2000
   33.1930   34.6630    9.2900 C   0  0  0  0  0  0  0  0  0  0  0  0
   32.0600   35.3600   10.0340 C   0  0  0  0  0  0  0  0  0  0  0  0
   32.5200   36.1390   11.2390 C   0  0  0  0  0  0  0  0  0  0  0  0
   32.0570   35.4660   12.5220 C   0  0  0  0  0  0  0  0  0  0  0  0
   32.2470   36.3920   13.7080 C   0  0  0  0  0  0  0  0  0  0  0  0
   31.3050   37.5450   13.6450 N   0  0  0  0  0  0  0  0  0  0  0  0
  1  2  1  0  0  0  0
  2  3  1  0  0  0  0
  3  4  1  0  0  0  0
  4  5  1  0  0  0  0
  6  5  1  0  0  0  0
M  END
>  <EGIN_R>
ES LYS A 135

>  <REMARK>
  4 active torsions:
  status: ('A' for Active; 'I' for Inactive)
    5  A    between atoms: CA   and  CB  
    6  A    between atoms: CB   and  CG  
    7  A    between atoms: CG   and  CD  
    8  A    between atoms: CD   and  CE  

$$$$
