ligand_10_pose_12_2HRL.pdbqt
 OpenBabel07062320523D

 53 53  0  0  1  0  0  0  0  0999 V2000
   25.9020   27.9270   19.6470 N   0  0  0  0  0  0  0  0  0  0  0  0
   25.0970   29.0930   19.4810 C   0  0  0  0  0  0  0  0  0  0  0  0
   25.2270   30.0230   20.2850 O   0  0  0  0  0  0  0  0  0  0  0  0
   25.7350   27.1760   18.9260 H   0  0  0  0  0  0  0  0  0  0  0  0
   26.8650   27.7450   20.6870 C   0  0  0  0  0  0  0  0  0  0  0  0
   28.2610   27.6040   20.1140 C   0  0  2  0  0  0  0  0  0  0  0  0
   29.1190   28.8070   20.4590 C   0  0  2  0  0  0  0  0  0  0  0  0
   29.7210   28.7610   21.8170 C   0  0  2  0  0  0  0  0  0  0  0  0
   31.3790   30.3020   21.2960 C   0  0  2  0  0  0  0  0  0  0  0  0
   32.2230   29.2280   20.7520 C   0  0  0  0  0  0  0  0  0  0  0  0
   30.3620   29.9580   22.1490 O   0  0  0  0  0  0  0  0  0  0  0  0
   31.9430   27.8320   21.1490 C   0  0  1  0  0  0  0  0  0  0  0  0
   30.7050   27.6360   21.9770 C   0  0  1  0  0  0  0  0  0  0  0  0
   30.7640   31.0450   20.2550 O   0  0  0  0  0  0  0  0  0  0  0  0
   30.5050   31.9060   20.6790 H   0  0  0  0  0  0  0  0  0  0  0  0
   32.2020   31.3120   22.0180 C   0  0  0  0  0  0  0  0  0  0  0  0
   32.7810   32.2750   21.4660 O   0  0  0  0  0  0  0  0  0  0  0  0
   32.3310   31.1710   23.3910 O   0  0  0  0  0  0  0  0  0  0  0  0
   32.3610   30.2500   23.8470 H   0  0  0  0  0  0  0  0  0  0  0  0
   31.8890   27.0070   20.0290 O   0  0  0  0  0  0  0  0  0  0  0  0
   31.8500   27.4790   19.1800 H   0  0  0  0  0  0  0  0  0  0  0  0
   31.0660   27.5280   23.4120 N   0  0  0  0  0  0  0  0  0  0  0  0
   30.4580   26.5600   24.2430 C   0  0  0  0  0  0  0  0  0  0  0  0
   31.7720   28.1610   23.8440 H   0  0  0  0  0  0  0  0  0  0  0  0
   30.7880   26.4160   25.6910 C   0  0  0  0  0  0  0  0  0  0  0  0
   29.6080   25.7950   23.7390 O   0  0  0  0  0  0  0  0  0  0  0  0
   28.1910   29.8860   20.3880 O   0  0  0  0  0  0  0  0  0  0  0  0
   28.1410   30.2370   19.4680 H   0  0  0  0  0  0  0  0  0  0  0  0
   28.1470   27.3730   18.7490 O   0  0  0  0  0  0  0  0  0  0  0  0
   28.6600   28.0150   18.1980 H   0  0  0  0  0  0  0  0  0  0  0  0
   24.1760   29.2190   18.4540 O   0  0  0  0  0  0  0  0  0  0  0  0
   24.4400   30.0750   17.3710 C   0  0  0  0  0  0  0  0  0  0  0  0
   25.8390   29.9760   16.8910 C   0  0  0  0  0  0  0  0  0  0  0  0
   26.6000   31.0780   16.5840 C   0  0  0  0  0  0  0  0  0  0  0  0
   26.6030   28.9090   16.6700 N   0  0  0  0  0  0  0  0  0  0  0  0
   27.8200   30.6400   16.1810 N   0  0  0  0  0  0  0  0  0  0  0  0
   27.7800   29.3400   16.2460 N   0  0  0  0  0  0  0  0  0  0  0  0
   28.8880   31.5500   15.7760 C   0  0  1  0  0  0  0  0  0  0  0  0
   28.4060   32.9700   15.8850 C   0  0  0  0  0  0  0  0  0  0  0  0
   28.5800   33.7220   14.6330 C   0  0  0  0  0  0  0  0  0  0  0  0
   29.7060   33.7240   14.0780 O   0  0  0  0  0  0  0  0  0  0  0  0
   27.5000   34.4090   14.0980 O   0  0  0  0  0  0  0  0  0  0  0  0
   27.0350   35.1300   14.6700 H   0  0  0  0  0  0  0  0  0  0  0  0
   30.0180   31.3970   16.7330 C   0  0  0  0  0  0  0  0  0  0  0  0
   31.0540   32.1090   16.7140 O   0  0  0  0  0  0  0  0  0  0  0  0
   29.9250   30.4110   17.7000 O   0  0  0  0  0  0  0  0  0  0  0  0
   29.0450   30.1400   18.1230 H   0  0  0  0  0  0  0  0  0  0  0  0
   29.8670   25.5550   16.9770 C   0  0  0  0  0  0  0  0  0  0  0  0
   28.3450   25.7220   17.0260 C   0  0  0  0  0  0  0  0  0  0  0  0
   27.6010   24.4040   16.8750 C   0  0  0  0  0  0  0  0  0  0  0  0
   26.1650   24.5110   17.3080 C   0  0  0  0  0  0  0  0  0  0  0  0
   25.7560   23.2350   18.0360 C   0  0  0  0  0  0  0  0  0  0  0  0
   25.5370   23.5060   19.4760 N   0  0  0  0  0  0  0  0  0  0  0  0
  1  5  1  0  0  0  0
  2  1  1  0  0  0  0
  2  3  2  0  0  0  0
  4  1  1  0  0  0  0
  6  7  1  0  0  0  0
  6  5  1  6  0  0  0
  7 27  1  1  0  0  0
  8  7  1  6  0  0  0
  8 13  1  0  0  0  0
  8 11  1  0  0  0  0
  9 14  1  6  0  0  0
  9 16  1  0  0  0  0
  9 11  1  0  0  0  0
 10 12  1  0  0  0  0
 10  9  1  0  0  0  0
 12 20  1  6  0  0  0
 12 13  1  0  0  0  0
 13 22  1  1  0  0  0
 14 15  1  0  0  0  0
 16 18  1  0  0  0  0
 17 16  2  0  0  0  0
 18 19  1  0  0  0  0
 21 20  1  0  0  0  0
 22 24  1  0  0  0  0
 22 23  1  0  0  0  0
 23 25  1  0  0  0  0
 26 23  2  0  0  0  0
 28 27  1  0  0  0  0
 29  6  1  0  0  0  0
 30 29  1  0  0  0  0
 31  2  1  0  0  0  0
 32 31  1  0  0  0  0
 33 32  1  0  0  0  0
 34 33  2  0  0  0  0
 35 33  1  0  0  0  0
 36 37  1  0  0  0  0
 36 34  1  0  0  0  0
 37 35  2  0  0  0  0
 38 39  1  1  0  0  0
 38 36  1  0  0  0  0
 38 44  1  0  0  0  0
 40 39  1  0  0  0  0
 41 40  2  0  0  0  0
 42 40  1  0  0  0  0
 42 43  1  0  0  0  0
 44 46  1  0  0  0  0
 45 44  2  0  0  0  0
 46 47  1  0  0  0  0
 48 49  1  0  0  0  0
 50 49  1  0  0  0  0
 50 51  1  0  0  0  0
 51 52  1  0  0  0  0
 52 53  1  0  0  0  0
M  END
>  <REMARK>
 VINA RESULT:    -4.601      3.783      6.450
 INTER + INTRA:         -14.783
 INTER:                  -8.007
 INTRA:                  -6.776
 UNBOUND:                -5.744
 SMILES CC(=O)N[C@@H]1[C@@H](O)C[C@](O)(C(=O)O)O[C@H]1C(O)[C@H](O)CNC(=O)OCc1cn([C@@H](CC(=O)O)C(=O)O)nn1
 SMILES IDX 21 1 22 2 23 3 20 5 18 6 16 7 15 8 9 9 8 10 14 11 6 12 5 13
 SMILES IDX 10 14 11 16 12 17 13 18 7 20 4 22 2 23 1 25 3 26 17 27 19 29
 SMILES IDX 24 31 25 32 26 33 27 34 38 35 28 36 37 37 29 38 30 39 31 40
 SMILES IDX 32 41 33 42 34 44 35 45 36 46
 H PARENT 21 4 10 15 13 19 7 21 4 24 17 28 19 30 33 43 36 47
 Flexibility Score: inf
  4 active torsions:
  status: ('A' for Active; 'I' for Inactive)
    1  A    between atoms: CA   and  CB  
    2  A    between atoms: CB   and  CG  
    3  A    between atoms: CG   and  CD  
    4  A    between atoms: CD   and  CE  

>  <TORSDO>
F 20

>  <BEGIN_>
RES LYS A 131

$$$$
ligand_10_pose_12_2HRL.pdbqt
 OpenBabel07062320523D

  6  5  0  0  0  0  0  0  0  0999 V2000
   33.1930   34.6630    9.2900 C   0  0  0  0  0  0  0  0  0  0  0  0
   32.0600   35.3600   10.0340 C   0  0  0  0  0  0  0  0  0  0  0  0
   30.7910   35.4730    9.2290 C   0  0  0  0  0  0  0  0  0  0  0  0
   30.2080   34.0970    8.9500 C   0  0  0  0  0  0  0  0  0  0  0  0
   28.7390   34.0550    9.3240 C   0  0  0  0  0  0  0  0  0  0  0  0
   28.5380   34.4250   10.7520 N   0  0  0  0  0  0  0  0  0  0  0  0
  1  2  1  0  0  0  0
  3  2  1  0  0  0  0
  4  3  1  0  0  0  0
  4  5  1  0  0  0  0
  5  6  1  0  0  0  0
M  END
>  <EGIN_R>
ES LYS A 135

>  <REMARK>
  4 active torsions:
  status: ('A' for Active; 'I' for Inactive)
    5  A    between atoms: CA   and  CB  
    6  A    between atoms: CB   and  CG  
    7  A    between atoms: CG   and  CD  
    8  A    between atoms: CD   and  CE  

$$$$
