ligand_37_pose_13_2HRL.pdbqt
 OpenBabel07062320523D

 55 56  0  0  1  0  0  0  0  0999 V2000
   27.4900   35.0110   12.7420 O   0  0  0  0  0  0  0  0  0  0  0  0
   27.6470   34.5650   11.4090 C   0  0  0  0  0  0  0  0  0  0  0  0
   28.9210   34.5610   10.8020 N   0  0  0  0  0  0  0  0  0  0  0  0
   29.7190   34.9250   11.4110 H   0  0  0  0  0  0  0  0  0  0  0  0
   26.6030   34.1910   10.8410 O   0  0  0  0  0  0  0  0  0  0  0  0
   29.1570   34.1090    9.4680 C   0  0  0  0  0  0  0  0  0  0  0  0
   29.3880   35.2380    8.5210 C   0  0  2  0  0  0  0  0  0  0  0  0
   28.1180   35.5160    7.7190 C   0  0  2  0  0  0  0  0  0  0  0  0
   27.5770   36.8970    7.9190 C   0  0  2  0  0  0  0  0  0  0  0  0
   28.6710   37.9540    6.1370 C   0  0  2  0  0  0  0  0  0  0  0  0
   29.6510   38.5240    7.1120 C   0  0  0  0  0  0  0  0  0  0  0  0
   27.4730   37.5800    6.6940 O   0  0  0  0  0  0  0  0  0  0  0  0
   28.9060   38.9740    8.3520 C   0  0  1  0  0  0  0  0  0  0  0  0
   28.2690   37.7280    8.9490 C   0  0  1  0  0  0  0  0  0  0  0  0
   29.2430   36.9210    5.4310 O   0  0  0  0  0  0  0  0  0  0  0  0
   29.5840   36.1900    6.0170 H   0  0  0  0  0  0  0  0  0  0  0  0
   28.3300   39.0330    5.1400 C   0  0  0  0  0  0  0  0  0  0  0  0
   28.9080   40.1490    5.1780 O   0  0  0  0  0  0  0  0  0  0  0  0
   27.3770   38.8440    4.1490 O   0  0  0  0  0  0  0  0  0  0  0  0
   26.4910   38.3500    4.3350 H   0  0  0  0  0  0  0  0  0  0  0  0
   29.7610   39.5940    9.2410 O   0  0  0  0  0  0  0  0  0  0  0  0
   30.6730   39.2100    9.2360 H   0  0  0  0  0  0  0  0  0  0  0  0
   27.3850   38.1240   10.0500 N   0  0  0  0  0  0  0  0  0  0  0  0
   27.8090   38.1310   11.4120 C   0  0  0  0  0  0  0  0  0  0  0  0
   26.3900   38.4190    9.8650 H   0  0  0  0  0  0  0  0  0  0  0  0
   26.8600   38.5450   12.4910 C   0  0  0  0  0  0  0  0  0  0  0  0
   28.9810   37.7910   11.6960 O   0  0  0  0  0  0  0  0  0  0  0  0
   27.1350   34.5980    8.1050 O   0  0  0  0  0  0  0  0  0  0  0  0
   27.3360   33.7150    7.6910 H   0  0  0  0  0  0  0  0  0  0  0  0
   30.4270   34.9160    7.6480 O   0  0  0  0  0  0  0  0  0  0  0  0
   30.5040   35.5690    6.8920 H   0  0  0  0  0  0  0  0  0  0  0  0
   28.5510   34.8070   13.6520 C   0  0  0  0  0  0  0  0  0  0  0  0
   28.0830   34.2410   14.9320 C   0  0  0  0  0  0  0  0  0  0  0  0
   27.4260   33.0560   15.1640 C   0  0  0  0  0  0  0  0  0  0  0  0
   28.2310   34.8130   16.1380 N   0  0  0  0  0  0  0  0  0  0  0  0
   27.1900   32.9360   16.4920 N   0  0  0  0  0  0  0  0  0  0  0  0
   27.6840   34.0050   17.0520 N   0  0  0  0  0  0  0  0  0  0  0  0
   26.5220   31.8330   17.1300 C   0  0  1  0  0  0  0  0  0  0  0  0
   26.2880   30.7180   16.1350 C   0  0  0  0  0  0  0  0  0  0  0  0
   27.3010   31.4000   18.2980 C   0  0  0  0  0  0  0  0  0  0  0  0
   26.9650   31.7970   19.4540 O   0  0  0  0  0  0  0  0  0  0  0  0
   28.3970   30.5700   18.1970 O   0  0  0  0  0  0  0  0  0  0  0  0
   29.6870   30.8350   18.6490 C   0  0  0  0  0  0  0  0  0  0  0  0
   30.3640   31.7480   17.6860 C   0  0  0  0  0  0  0  0  0  0  0  0
   30.8650   32.9590   18.1100 C   0  0  0  0  0  0  0  0  0  0  0  0
   30.4940   31.3850   16.3730 C   0  0  0  0  0  0  0  0  0  0  0  0
   31.4930   33.8020   17.2270 C   0  0  0  0  0  0  0  0  0  0  0  0
   31.1140   32.2040   15.4720 C   0  0  0  0  0  0  0  0  0  0  0  0
   31.6120   33.4110   15.9000 C   0  0  0  0  0  0  0  0  0  0  0  0
   29.8670   25.5550   16.9770 C   0  0  0  0  0  0  0  0  0  0  0  0
   28.3450   25.7220   17.0260 C   0  0  0  0  0  0  0  0  0  0  0  0
   27.6010   24.4010   16.8990 C   0  0  0  0  0  0  0  0  0  0  0  0
   26.1380   24.5430   17.2130 C   0  0  0  0  0  0  0  0  0  0  0  0
   25.5890   23.2040   17.6960 C   0  0  0  0  0  0  0  0  0  0  0  0
   25.4740   23.1920   19.1730 N   0  0  0  0  0  0  0  0  0  0  0  0
  1 32  1  0  0  0  0
  2  1  1  0  0  0  0
  3  2  1  0  0  0  0
  3  4  1  0  0  0  0
  5  2  2  0  0  0  0
  6  3  1  0  0  0  0
  7  6  1  1  0  0  0
  8 28  1  1  0  0  0
  8  7  1  0  0  0  0
  9  8  1  6  0  0  0
  9 14  1  0  0  0  0
 10 17  1  6  0  0  0
 10 12  1  0  0  0  0
 10 11  1  0  0  0  0
 11 13  1  0  0  0  0
 12  9  1  0  0  0  0
 13 14  1  0  0  0  0
 13 21  1  1  0  0  0
 14 23  1  1  0  0  0
 15 16  1  0  0  0  0
 15 10  1  0  0  0  0
 17 18  2  0  0  0  0
 19 20  1  0  0  0  0
 19 17  1  0  0  0  0
 22 21  1  0  0  0  0
 23 24  1  0  0  0  0
 24 27  2  0  0  0  0
 24 26  1  0  0  0  0
 25 23  1  0  0  0  0
 29 28  1  0  0  0  0
 30  7  1  0  0  0  0
 31 30  1  0  0  0  0
 32 33  1  0  0  0  0
 33 34  2  0  0  0  0
 33 35  1  0  0  0  0
 34 36  1  0  0  0  0
 35 37  2  0  0  0  0
 36 37  1  0  0  0  0
 36 38  1  0  0  0  0
 38 39  1  6  0  0  0
 38 40  1  0  0  0  0
 40 41  2  0  0  0  0
 42 40  1  0  0  0  0
 42 43  1  0  0  0  0
 44 45  1  0  0  0  0
 44 43  1  0  0  0  0
 46 44  2  0  0  0  0
 47 45  2  0  0  0  0
 48 49  2  0  0  0  0
 48 46  1  0  0  0  0
 49 47  1  0  0  0  0
 50 51  1  0  0  0  0
 52 51  1  0  0  0  0
 52 53  1  0  0  0  0
 53 54  1  0  0  0  0
 54 55  1  0  0  0  0
M  END
>  <REMARK>
 VINA RESULT:    -5.514      4.948      8.476
 INTER + INTRA:         -15.942
 INTER:                 -10.928
 INTRA:                  -5.014
 UNBOUND:                -5.110
 SMILES CC(=O)N[C@@H]1[C@@H](O)C[C@](O)(C(=O)O)O[C@H]1C(O)[C@H](O)CNC(=O)OCc1cn([C@@H](C)C(=O)OCc2ccccc2)nn1
 SMILES IDX 24 1 22 2 21 3 23 5 20 6 18 7 16 8 15 9 9 10 8 11 14 12 6 13
 SMILES IDX 5 14 10 15 11 17 12 18 13 19 7 21 4 23 2 24 1 26 3 27 17 28
 SMILES IDX 19 30 25 32 26 33 27 34 42 35 28 36 41 37 29 38 30 39 31 40
 SMILES IDX 32 41 33 42 34 43 35 44 36 45 40 46 37 47 39 48 38 49
 H PARENT 21 4 10 16 13 20 7 22 4 25 17 29 19 31
 Flexibility Score: inf
  4 active torsions:
  status: ('A' for Active; 'I' for Inactive)
    1  A    between atoms: CA   and  CB  
    2  A    between atoms: CB   and  CG  
    3  A    between atoms: CG   and  CD  
    4  A    between atoms: CD   and  CE  

>  <TORSDO>
F 19

>  <BEGIN_>
RES LYS A 131

$$$$
ligand_37_pose_13_2HRL.pdbqt
 OpenBabel07062320523D

  6  5  0  0  0  0  0  0  0  0999 V2000
   33.1930   34.6630    9.2900 C   0  0  0  0  0  0  0  0  0  0  0  0
   32.0600   35.3600   10.0340 C   0  0  0  0  0  0  0  0  0  0  0  0
   32.3970   36.7630   10.4670 C   0  0  0  0  0  0  0  0  0  0  0  0
   32.3960   36.8720   11.9840 C   0  0  0  0  0  0  0  0  0  0  0  0
   32.2090   35.5060   12.6160 C   0  0  0  0  0  0  0  0  0  0  0  0
   33.4450   35.0690   13.3230 N   0  0  0  0  0  0  0  0  0  0  0  0
  1  2  1  0  0  0  0
  2  3  1  0  0  0  0
  3  4  1  0  0  0  0
  4  5  1  0  0  0  0
  5  6  1  0  0  0  0
M  END
>  <EGIN_R>
ES LYS A 135

>  <REMARK>
  4 active torsions:
  status: ('A' for Active; 'I' for Inactive)
    5  A    between atoms: CA   and  CB  
    6  A    between atoms: CB   and  CG  
    7  A    between atoms: CG   and  CD  
    8  A    between atoms: CD   and  CE  

$$$$
