ligand_80_pose_19_2HRL.pdbqt
 OpenBabel07062320523D

 56 54  0  0  1  0  0  0  0  0999 V2000
   21.8070   35.0870   10.8220 O   0  0  0  0  0  0  0  0  0  0  0  0
   22.2130   35.8950    9.7870 C   0  0  0  0  0  0  0  0  0  0  0  0
   23.1040   36.9910   10.0380 N   0  0  0  0  0  0  0  0  0  0  0  0
   23.4090   37.1180   11.0320 H   0  0  0  0  0  0  0  0  0  0  0  0
   21.8290   35.7140    8.6040 O   0  0  0  0  0  0  0  0  0  0  0  0
   23.5560   37.8710    8.9760 C   0  0  0  0  0  0  0  0  0  0  0  0
   24.9400   37.4390    8.5590 C   0  0  2  0  0  0  0  0  0  0  0  0
   26.0280   38.1940    9.2920 C   0  0  2  0  0  0  0  0  0  0  0  0
   27.2670   37.3050    9.4790 C   0  0  2  0  0  0  0  0  0  0  0  0
   28.0230   35.2890    8.5470 C   0  0  2  0  0  0  0  0  0  0  0  0
   28.6310   35.0170    9.8880 C   0  0  0  0  0  0  0  0  0  0  0  0
   27.3090   36.4510    8.4460 O   0  0  0  0  0  0  0  0  0  0  0  0
   27.5300   35.2570   10.9080 C   0  0  1  0  0  0  0  0  0  0  0  0
   27.1690   36.7200   10.8500 C   0  0  1  0  0  0  0  0  0  0  0  0
   27.1100   34.2520    8.2650 O   0  0  0  0  0  0  0  0  0  0  0  0
   27.0570   33.7220    9.1030 H   0  0  0  0  0  0  0  0  0  0  0  0
   29.0320   35.2800    7.4580 C   0  0  0  0  0  0  0  0  0  0  0  0
   28.6980   35.6460    6.3110 O   0  0  0  0  0  0  0  0  0  0  0  0
   30.3480   34.8760    7.6670 O   0  0  0  0  0  0  0  0  0  0  0  0
   30.8380   35.3190    8.4590 H   0  0  0  0  0  0  0  0  0  0  0  0
   26.4280   34.5090   10.5070 O   0  0  0  0  0  0  0  0  0  0  0  0
   26.3900   34.5410    9.5210 H   0  0  0  0  0  0  0  0  0  0  0  0
   28.1160   37.4210   11.7010 N   0  0  0  0  0  0  0  0  0  0  0  0
   27.7720   37.9870   12.9560 C   0  0  0  0  0  0  0  0  0  0  0  0
   29.1240   37.5170   11.3690 H   0  0  0  0  0  0  0  0  0  0  0  0
   28.8270   38.6800   13.7340 C   0  0  0  0  0  0  0  0  0  0  0  0
   26.5830   37.8800   13.3570 O   0  0  0  0  0  0  0  0  0  0  0  0
   25.5170   38.4880   10.5610 O   0  0  0  0  0  0  0  0  0  0  0  0
   25.8890   37.9230   11.2710 H   0  0  0  0  0  0  0  0  0  0  0  0
   25.1100   37.5440    7.1830 O   0  0  0  0  0  0  0  0  0  0  0  0
   24.5750   36.8930    6.6830 H   0  0  0  0  0  0  0  0  0  0  0  0
   22.0900   35.4070   12.1740 C   0  0  0  0  0  0  0  0  0  0  0  0
   23.3000   34.6940   12.6540 C   0  0  0  0  0  0  0  0  0  0  0  0
   23.9060   34.9110   13.8960 C   0  0  0  0  0  0  0  0  0  0  0  0
   24.0490   33.7460   12.0610 N   0  0  0  0  0  0  0  0  0  0  0  0
   24.9750   34.1060   14.0050 N   0  0  0  0  0  0  0  0  0  0  0  0
   25.0300   33.4210   12.8840 N   0  0  0  0  0  0  0  0  0  0  0  0
   25.8870   34.0200   15.1250 *   0  0  0  0  0  0  0  0  0  0  0  0
   26.0580   32.6110   15.5770 C   0  0  0  0  0  0  0  0  0  0  0  0
   27.2080   31.8270   15.8320 N   0  0  0  0  0  0  0  0  0  0  0  0
   24.9570   32.0340   15.7590 O   0  0  0  0  0  0  0  0  0  0  0  0
   27.1100   30.7910   15.8950 H   0  0  0  0  0  0  0  0  0  0  0  0
   28.5560   32.2940   16.0250 C   0  0  0  0  0  0  0  0  0  0  0  0
   28.9890   33.6070   16.0500 C   0  0  0  0  0  0  0  0  0  0  0  0
   29.4220   31.2320   16.1970 C   0  0  0  0  0  0  0  0  0  0  0  0
   30.3130   33.8480   16.2490 C   0  0  0  0  0  0  0  0  0  0  0  0
   30.7620   31.4790   16.3990 C   0  0  0  0  0  0  0  0  0  0  0  0
   31.1920   32.7860   16.4230 C   0  0  0  0  0  0  0  0  0  0  0  0
   28.1500   34.8240   15.8770 C   0  0  0  0  0  0  0  0  0  0  0  0
   27.1700   34.6910   14.7240 *   0  0  0  0  0  0  0  0  0  0  0  0
   29.8670   25.5550   16.9770 C   0  0  0  0  0  0  0  0  0  0  0  0
   28.3450   25.7220   17.0260 C   0  0  0  0  0  0  0  0  0  0  0  0
   27.6160   24.4150   17.2970 C   0  0  0  0  0  0  0  0  0  0  0  0
   26.1300   24.5450   17.1050 C   0  0  0  0  0  0  0  0  0  0  0  0
   25.4280   24.4020   18.4520 C   0  0  0  0  0  0  0  0  0  0  0  0
   25.9790   25.3710   19.4290 N   0  0  0  0  0  0  0  0  0  0  0  0
  1 32  1  0  0  0  0
  2  3  1  0  0  0  0
  2  1  1  0  0  0  0
  3  4  1  0  0  0  0
  5  2  2  0  0  0  0
  6  3  1  0  0  0  0
  7  6  1  6  0  0  0
  7  8  1  0  0  0  0
  8 28  1  1  0  0  0
  9  8  1  6  0  0  0
  9 14  1  0  0  0  0
 10 17  1  6  0  0  0
 10 11  1  0  0  0  0
 11 13  1  0  0  0  0
 12 10  1  0  0  0  0
 12  9  1  0  0  0  0
 13 21  1  6  0  0  0
 14 13  1  0  0  0  0
 14 23  1  1  0  0  0
 15 10  1  0  0  0  0
 15 16  1  0  0  0  0
 17 19  1  0  0  0  0
 18 17  2  0  0  0  0
 19 20  1  0  0  0  0
 22 21  1  0  0  0  0
 23 24  1  0  0  0  0
 24 27  2  0  0  0  0
 24 26  1  0  0  0  0
 25 23  1  0  0  0  0
 28 29  1  0  0  0  0
 30  7  1  0  0  0  0
 31 30  1  0  0  0  0
 32 33  1  0  0  0  0
 33 34  2  0  0  0  0
 34 36  1  0  0  0  0
 35 33  1  0  0  0  0
 35 37  1  0  0  0  0
 37 36  2  0  0  0  0
 39 41  2  0  0  0  0
 39 40  1  0  0  0  0
 40 42  1  0  0  0  0
 40 43  1  0  0  0  0
 43 44  2  0  0  0  0
 43 45  1  0  0  0  0
 44 46  1  0  0  0  0
 45 47  2  0  0  0  0
 46 48  2  0  0  0  0
 47 48  1  0  0  0  0
 49 44  1  0  0  0  0
 51 52  1  0  0  0  0
 52 53  1  0  0  0  0
 54 53  1  0  0  0  0
 54 55  1  0  0  0  0
 55 56  1  0  0  0  0
M  END
>  <REMARK>
 VINA RESULT:    -8.785      3.525      7.052
 INTER + INTRA:         -12.705
 INTER:                  -8.768
 INTRA:                  -3.936
 UNBOUND:                 4.555
 SMILES CC(=O)N[C@@H]1[C@@H](O)C[C@](O)(C(=O)O)O[C@H]1C(O)[C@H](O)CNC(=O)OCc1cn(C2CCc3ccccc3NC2=O)nn1
 SMILES IDX 24 1 22 2 21 3 23 5 20 6 18 7 16 8 15 9 9 10 8 11 14 12 6 13
 SMILES IDX 5 14 10 15 11 17 12 18 13 19 7 21 4 23 2 24 1 26 3 27 17 28
 SMILES IDX 19 30 25 32 26 33 27 34 42 35 28 36 41 37 29 38 39 40 38 41
 SMILES IDX 40 42 37 44 32 45 36 46 33 47 35 48 34 49 31 50 30 51
 H PARENT 21 4 10 16 13 20 7 22 4 25 17 29 19 31 38 43
 Flexibility Score: 80.00
  4 active torsions:
  status: ('A' for Active; 'I' for Inactive)
    1  A    between atoms: CA   and  CB  
    2  A    between atoms: CB   and  CG  
    3  A    between atoms: CG   and  CD  
    4  A    between atoms: CD   and  CE  

>  <TORSDO>
F 15

>  <BEGIN_>
RES LYS A 131

$$$$
ligand_80_pose_19_2HRL.pdbqt
 OpenBabel07062320523D

  6  5  0  0  0  0  0  0  0  0999 V2000
   33.1930   34.6630    9.2900 C   0  0  0  0  0  0  0  0  0  0  0  0
   32.0600   35.3600   10.0340 C   0  0  0  0  0  0  0  0  0  0  0  0
   32.5270   36.4680   10.9420 C   0  0  0  0  0  0  0  0  0  0  0  0
   31.6010   36.6080   12.1400 C   0  0  0  0  0  0  0  0  0  0  0  0
   32.1110   35.7850   13.3070 C   0  0  0  0  0  0  0  0  0  0  0  0
   32.2470   36.6190   14.5330 N   0  0  0  0  0  0  0  0  0  0  0  0
  1  2  1  0  0  0  0
  2  3  1  0  0  0  0
  3  4  1  0  0  0  0
  4  5  1  0  0  0  0
  5  6  1  0  0  0  0
M  END
>  <EGIN_R>
ES LYS A 135

>  <REMARK>
  4 active torsions:
  status: ('A' for Active; 'I' for Inactive)
    5  A    between atoms: CA   and  CB  
    6  A    between atoms: CB   and  CG  
    7  A    between atoms: CG   and  CD  
    8  A    between atoms: CD   and  CE  

$$$$
