ligand_92_pose_12_2HRL.pdbqt
 OpenBabel07062320523D

 59 61  0  0  1  0  0  0  0  0999 V2000
   26.7600   34.4530   14.0970 N   0  0  0  0  0  0  0  0  0  0  0  0
   25.5130   33.9630   14.5420 C   0  0  0  0  0  0  0  0  0  0  0  0
   24.6720   34.7910   15.0340 O   0  0  0  0  0  0  0  0  0  0  0  0
   27.4450   33.7900   13.6970 H   0  0  0  0  0  0  0  0  0  0  0  0
   27.1010   35.8480   14.1840 C   0  0  0  0  0  0  0  0  0  0  0  0
   28.2190   36.1150   15.1600 C   0  0  2  0  0  0  0  0  0  0  0  0
   28.9560   34.8620   15.5360 C   0  0  1  0  0  0  0  0  0  0  0  0
   30.3850   35.1910   16.0040 C   0  0  2  0  0  0  0  0  0  0  0  0
   31.6750   34.9100   14.0490 C   0  0  2  0  0  0  0  0  0  0  0  0
   32.5300   33.8930   14.7800 C   0  0  0  0  0  0  0  0  0  0  0  0
   31.0440   35.7120   14.9330 O   0  0  0  0  0  0  0  0  0  0  0  0
   31.5720   33.0770   15.6150 C   0  0  1  0  0  0  0  0  0  0  0  0
   30.9640   33.9930   16.6480 C   0  0  1  0  0  0  0  0  0  0  0  0
   30.7260   34.1630   13.3380 O   0  0  0  0  0  0  0  0  0  0  0  0
   31.1110   33.6620   12.5950 H   0  0  0  0  0  0  0  0  0  0  0  0
   32.4790   35.6600   13.0500 C   0  0  0  0  0  0  0  0  0  0  0  0
   32.1880   36.8350   12.7870 O   0  0  0  0  0  0  0  0  0  0  0  0
   33.5470   35.0620   12.4080 O   0  0  0  0  0  0  0  0  0  0  0  0
   33.4320   34.6870   11.4550 H   0  0  0  0  0  0  0  0  0  0  0  0
   30.6260   32.4720   14.7960 O   0  0  0  0  0  0  0  0  0  0  0  0
   30.5190   31.5290   15.1140 H   0  0  0  0  0  0  0  0  0  0  0  0
   31.9560   34.2380   17.6450 N   0  0  0  0  0  0  0  0  0  0  0  0
   31.5930   34.3360   19.0060 C   0  0  0  0  0  0  0  0  0  0  0  0
   32.9490   34.3480   17.3790 H   0  0  0  0  0  0  0  0  0  0  0  0
   32.5570   34.5890   20.1060 C   0  0  0  0  0  0  0  0  0  0  0  0
   30.3980   34.2030   19.2970 O   0  0  0  0  0  0  0  0  0  0  0  0
   28.2920   34.1330   16.5490 O   0  0  0  0  0  0  0  0  0  0  0  0
   27.5180   33.7040   16.1390 H   0  0  0  0  0  0  0  0  0  0  0  0
   27.6000   36.7030   16.2850 O   0  0  0  0  0  0  0  0  0  0  0  0
   27.0310   35.9990   16.6830 H   0  0  0  0  0  0  0  0  0  0  0  0
   25.1420   32.6360   14.4790 O   0  0  0  0  0  0  0  0  0  0  0  0
   24.9830   31.8370   15.6600 C   0  0  0  0  0  0  0  0  0  0  0  0
   26.3620   31.4860   16.1120 C   0  0  0  0  0  0  0  0  0  0  0  0
   26.7400   31.0490   17.3840 C   0  0  0  0  0  0  0  0  0  0  0  0
   27.5150   31.5110   15.4120 N   0  0  0  0  0  0  0  0  0  0  0  0
   28.0650   30.8350   17.4050 N   0  0  0  0  0  0  0  0  0  0  0  0
   28.4940   31.1250   16.1940 N   0  0  0  0  0  0  0  0  0  0  0  0
   28.8040   30.3840   18.5330 C   0  0  0  0  0  0  0  0  0  0  0  0
   30.0490   30.8780   18.8500 C   0  0  0  0  0  0  0  0  0  0  0  0
   28.2720   29.4130   19.3540 C   0  0  0  0  0  0  0  0  0  0  0  0
   30.7580   30.4210   19.9600 C   0  0  0  0  0  0  0  0  0  0  0  0
   28.9700   28.9610   20.4510 C   0  0  0  0  0  0  0  0  0  0  0  0
   30.2360   29.4530   20.7860 C   0  0  0  0  0  0  0  0  0  0  0  0
   31.0770   28.8610   22.1880 S   0  0  0  0  0  0  0  0  0  0  0  0
   30.6430   29.7300   23.3610 O   0  0  0  0  0  0  0  0  0  0  0  0
   32.5310   29.1170   21.9900 O   0  0  0  0  0  0  0  0  0  0  0  0
   30.7710   27.2310   22.5580 N   0  0  0  0  0  0  0  0  0  0  0  0
   31.4910   26.5190   22.2560 H   0  0  0  0  0  0  0  0  0  0  0  0
   29.6550   26.7080   23.2300 C   0  0  0  0  0  0  0  0  0  0  0  0
   28.4460   26.8390   23.3360 N   0  0  0  0  0  0  0  0  0  0  0  0
   29.9010   25.2780   24.4410 S   0  0  0  0  0  0  0  0  0  0  0  0
   27.6200   26.1710   24.0750 C   0  0  0  0  0  0  0  0  0  0  0  0
   28.0930   25.1780   24.8620 C   0  0  0  0  0  0  0  0  0  0  0  0
   29.8670   25.5550   16.9770 C   0  0  0  0  0  0  0  0  0  0  0  0
   28.3450   25.7220   17.0260 C   0  0  0  0  0  0  0  0  0  0  0  0
   27.6020   24.3990   16.9200 C   0  0  0  0  0  0  0  0  0  0  0  0
   26.6360   24.1990   18.0550 C   0  0  0  0  0  0  0  0  0  0  0  0
   25.4090   23.4450   17.5530 C   0  0  0  0  0  0  0  0  0  0  0  0
   24.4610   24.3760   16.8970 N   0  0  0  0  0  0  0  0  0  0  0  0
  1  5  1  0  0  0  0
  1  2  1  0  0  0  0
  2  3  2  0  0  0  0
  4  1  1  0  0  0  0
  6  5  1  6  0  0  0
  6  7  1  0  0  0  0
  6 29  1  0  0  0  0
  7 27  1  1  0  0  0
  8  7  1  6  0  0  0
  8 13  1  0  0  0  0
  9 16  1  6  0  0  0
  9 10  1  0  0  0  0
  9 11  1  0  0  0  0
 10 12  1  0  0  0  0
 11  8  1  0  0  0  0
 12 20  1  6  0  0  0
 12 13  1  0  0  0  0
 13 22  1  1  0  0  0
 14  9  1  0  0  0  0
 15 14  1  0  0  0  0
 17 16  2  0  0  0  0
 18 16  1  0  0  0  0
 19 18  1  0  0  0  0
 20 21  1  0  0  0  0
 22 23  1  0  0  0  0
 23 26  2  0  0  0  0
 23 25  1  0  0  0  0
 24 22  1  0  0  0  0
 28 27  1  0  0  0  0
 29 30  1  0  0  0  0
 31  2  1  0  0  0  0
 31 32  1  0  0  0  0
 32 33  1  0  0  0  0
 33 34  2  0  0  0  0
 34 36  1  0  0  0  0
 35 33  1  0  0  0  0
 35 37  2  0  0  0  0
 36 38  1  0  0  0  0
 37 36  1  0  0  0  0
 38 39  2  0  0  0  0
 38 40  1  0  0  0  0
 39 41  1  0  0  0  0
 40 42  2  0  0  0  0
 41 43  2  0  0  0  0
 42 43  1  0  0  0  0
 43 44  1  0  0  0  0
 44 47  1  0  0  0  0
 44 45  2  0  0  0  0
 46 44  2  0  0  0  0
 47 49  1  0  0  0  0
 48 47  1  0  0  0  0
 49 50  2  0  0  0  0
 49 51  1  0  0  0  0
 50 52  1  0  0  0  0
 51 53  1  0  0  0  0
 52 53  2  0  0  0  0
 54 55  1  0  0  0  0
 56 55  1  0  0  0  0
 56 57  1  0  0  0  0
 58 57  1  0  0  0  0
 59 58  1  0  0  0  0
M  END
>  <REMARK>
 VINA RESULT:    -4.952      3.817      8.886
 INTER + INTRA:         -15.846
 INTER:                  -8.800
 INTRA:                  -7.046
 UNBOUND:                -6.408
 SMILES CC(=O)N[C@@H]1[C@@H](O)C[C@](O)(C(=O)O)O[C@H]1C(O)[C@H](O)CNC(=O)OCc1cn(-c2ccc(S(=O)(=O)Nc3nccs3)cc2)nn1
 SMILES IDX 21 1 22 2 23 3 20 5 18 6 16 7 15 8 9 9 8 10 14 11 6 12 5 13
 SMILES IDX 10 14 11 16 12 17 13 18 7 20 4 22 2 23 1 25 3 26 17 27 19 29
 SMILES IDX 24 31 25 32 26 33 27 34 45 35 28 36 44 37 29 38 30 39 43 40
 SMILES IDX 31 41 42 42 32 43 33 44 34 45 35 46 36 47 37 49 38 50 41 51
 SMILES IDX 39 52 40 53
 H PARENT 21 4 10 15 13 19 7 21 4 24 17 28 19 30 36 48
 Flexibility Score: inf
  4 active torsions:
  status: ('A' for Active; 'I' for Inactive)
    1  A    between atoms: CA   and  CB  
    2  A    between atoms: CB   and  CG  
    3  A    between atoms: CG   and  CD  
    4  A    between atoms: CD   and  CE  

>  <TORSDO>
F 18

>  <BEGIN_>
RES LYS A 131

$$$$
ligand_92_pose_12_2HRL.pdbqt
 OpenBabel07062320523D

  6  5  0  0  0  0  0  0  0  0999 V2000
   33.1930   34.6630    9.2900 C   0  0  0  0  0  0  0  0  0  0  0  0
   32.0600   35.3600   10.0340 C   0  0  0  0  0  0  0  0  0  0  0  0
   30.7120   34.7250    9.8110 C   0  0  0  0  0  0  0  0  0  0  0  0
   30.4590   34.5110    8.3260 C   0  0  0  0  0  0  0  0  0  0  0  0
   29.0150   34.8220    7.9820 C   0  0  0  0  0  0  0  0  0  0  0  0
   28.9180   35.5660    6.6960 N   0  0  0  0  0  0  0  0  0  0  0  0
  1  2  1  0  0  0  0
  3  2  1  0  0  0  0
  4  3  1  0  0  0  0
  5  4  1  0  0  0  0
  6  5  1  0  0  0  0
M  END
>  <EGIN_R>
ES LYS A 135

>  <REMARK>
  4 active torsions:
  status: ('A' for Active; 'I' for Inactive)
    5  A    between atoms: CA   and  CB  
    6  A    between atoms: CB   and  CG  
    7  A    between atoms: CG   and  CD  
    8  A    between atoms: CD   and  CE  

$$$$
