ligand_83_pose_6_2HRL.pdbqt
 OpenBabel07062320523D

 56 57  0  0  1  0  0  0  0  0999 V2000
   31.6990   35.7850   14.4100 O   0  0  0  0  0  0  0  0  0  0  0  0
   30.3840   35.4430   14.0530 C   0  0  0  0  0  0  0  0  0  0  0  0
   29.2960   35.5930   14.9190 N   0  0  0  0  0  0  0  0  0  0  0  0
   29.4960   35.9830   15.8890 H   0  0  0  0  0  0  0  0  0  0  0  0
   30.2290   34.9940   12.9090 O   0  0  0  0  0  0  0  0  0  0  0  0
   27.9310   35.2570   14.5900 C   0  0  0  0  0  0  0  0  0  0  0  0
   27.6630   33.8540   15.0640 C   0  0  2  0  0  0  0  0  0  0  0  0
   27.5070   33.8880   16.5660 C   0  0  2  0  0  0  0  0  0  0  0  0
   27.1470   32.5110   17.1090 C   0  0  2  0  0  0  0  0  0  0  0  0
   26.2690   30.4990   16.3290 C   0  0  2  0  0  0  0  0  0  0  0  0
   25.5960   30.4220   17.6860 C   0  0  0  0  0  0  0  0  0  0  0  0
   26.6260   31.7990   16.0630 O   0  0  0  0  0  0  0  0  0  0  0  0
   25.0020   31.7700   18.0300 C   0  0  1  0  0  0  0  0  0  0  0  0
   26.1810   32.7080   18.2620 C   0  0  1  0  0  0  0  0  0  0  0  0
   25.3710   30.1090   15.3160 O   0  0  0  0  0  0  0  0  0  0  0  0
   24.9390   29.2800   15.6270 H   0  0  0  0  0  0  0  0  0  0  0  0
   27.4590   29.6430   16.2460 C   0  0  0  0  0  0  0  0  0  0  0  0
   28.4010   29.9390   15.4930 O   0  0  0  0  0  0  0  0  0  0  0  0
   27.5430   28.4910   17.0080 O   0  0  0  0  0  0  0  0  0  0  0  0
   28.4340   28.0950   17.2440 H   0  0  0  0  0  0  0  0  0  0  0  0
   24.2600   32.3200   16.9970 O   0  0  0  0  0  0  0  0  0  0  0  0
   23.6320   32.9850   17.3440 H   0  0  0  0  0  0  0  0  0  0  0  0
   26.7800   32.3970   19.5280 N   0  0  0  0  0  0  0  0  0  0  0  0
   27.3310   33.4130   20.3350 C   0  0  0  0  0  0  0  0  0  0  0  0
   26.8420   31.4170   19.9140 H   0  0  0  0  0  0  0  0  0  0  0  0
   27.9550   33.0820   21.6520 C   0  0  0  0  0  0  0  0  0  0  0  0
   27.3090   34.6150   19.9650 O   0  0  0  0  0  0  0  0  0  0  0  0
   26.4530   34.7240   16.8760 O   0  0  0  0  0  0  0  0  0  0  0  0
   26.5840   35.2120   17.7220 H   0  0  0  0  0  0  0  0  0  0  0  0
   28.6520   32.9620   14.6610 O   0  0  0  0  0  0  0  0  0  0  0  0
   29.0680   33.3480   13.8500 H   0  0  0  0  0  0  0  0  0  0  0  0
   32.6090   34.7530   14.8220 C   0  0  0  0  0  0  0  0  0  0  0  0
   31.9500   33.7630   15.6690 C   0  0  0  0  0  0  0  0  0  0  0  0
   31.6530   33.9100   17.0010 C   0  0  0  0  0  0  0  0  0  0  0  0
   31.5310   32.5510   15.2770 N   0  0  0  0  0  0  0  0  0  0  0  0
   31.0570   32.7720   17.3820 N   0  0  0  0  0  0  0  0  0  0  0  0
   30.9940   31.9770   16.3410 N   0  0  0  0  0  0  0  0  0  0  0  0
   30.5730   32.5110   18.7490 C   0  0  0  0  0  0  0  0  0  0  0  0
   30.4690   31.0200   18.9830 C   0  0  2  0  0  0  0  0  0  0  0  0
   29.2120   30.6470   18.4580 O   0  0  0  0  0  0  0  0  0  0  0  0
   29.1630   30.7650   17.4910 H   0  0  0  0  0  0  0  0  0  0  0  0
   30.5440   30.7440   20.4510 C   0  0  0  0  0  0  0  0  0  0  0  0
   30.7740   29.3080   20.6330 N   0  0  0  0  0  0  0  0  0  0  0  0
   31.9680   28.6740   20.5650 C   0  0  0  0  0  0  0  0  0  0  0  0
   29.8250   28.4300   20.9060 C   0  0  0  0  0  0  0  0  0  0  0  0
   31.7430   27.3570   20.8040 C   0  0  0  0  0  0  0  0  0  0  0  0
   30.4340   27.2160   21.0120 N   0  0  0  0  0  0  0  0  0  0  0  0
   28.4150   28.6590   21.0660 N   0  0  0  0  0  0  0  0  0  0  0  0
   27.8730   28.8070   22.1730 O   0  0  0  0  0  0  0  0  0  0  0  0
   27.6170   28.7200   19.9420 O   0  0  0  0  0  0  0  0  0  0  0  0
   29.8670   25.5550   16.9770 C   0  0  0  0  0  0  0  0  0  0  0  0
   28.3450   25.7220   17.0260 C   0  0  0  0  0  0  0  0  0  0  0  0
   27.6000   24.4150   16.8040 C   0  0  0  0  0  0  0  0  0  0  0  0
   26.4970   24.2140   17.8060 C   0  0  0  0  0  0  0  0  0  0  0  0
   25.1820   24.7230   17.2260 C   0  0  0  0  0  0  0  0  0  0  0  0
   24.2500   23.5970   16.9850 N   0  0  0  0  0  0  0  0  0  0  0  0
  1 32  1  0  0  0  0
  2  1  1  0  0  0  0
  2  3  1  0  0  0  0
  3  4  1  0  0  0  0
  5  2  2  0  0  0  0
  6  3  1  0  0  0  0
  7  6  1  1  0  0  0
  7  8  1  0  0  0  0
  8 28  1  6  0  0  0
  9  8  1  6  0  0  0
  9 14  1  0  0  0  0
 10 15  1  6  0  0  0
 10 11  1  0  0  0  0
 11 13  1  0  0  0  0
 12 10  1  0  0  0  0
 12  9  1  0  0  0  0
 13 21  1  6  0  0  0
 13 14  1  0  0  0  0
 14 23  1  1  0  0  0
 15 16  1  0  0  0  0
 17 10  1  0  0  0  0
 17 19  1  0  0  0  0
 18 17  2  0  0  0  0
 19 20  1  0  0  0  0
 21 22  1  0  0  0  0
 23 25  1  0  0  0  0
 23 24  1  0  0  0  0
 24 26  1  0  0  0  0
 27 24  2  0  0  0  0
 28 29  1  0  0  0  0
 30  7  1  0  0  0  0
 31 30  1  0  0  0  0
 32 33  1  0  0  0  0
 33 34  2  0  0  0  0
 34 36  1  0  0  0  0
 35 33  1  0  0  0  0
 35 37  2  0  0  0  0
 36 38  1  0  0  0  0
 37 36  1  0  0  0  0
 39 38  1  1  0  0  0
 39 42  1  0  0  0  0
 40 39  1  0  0  0  0
 41 40  1  0  0  0  0
 42 43  1  0  0  0  0
 43 45  1  0  0  0  0
 44 43  1  0  0  0  0
 44 46  2  0  0  0  0
 45 47  2  0  0  0  0
 45 48  1  0  0  0  0
 46 47  1  0  0  0  0
 48 49  2  0  0  0  0
 50 48  2  0  0  0  0
 51 52  1  0  0  0  0
 53 52  1  0  0  0  0
 53 54  1  0  0  0  0
 55 54  1  0  0  0  0
 56 55  1  0  0  0  0
M  END
>  <REMARK>
 VINA RESULT:    -3.714      2.503      6.300
 INTER + INTRA:         -15.852
 INTER:                  -7.611
 INTRA:                  -8.241
 UNBOUND:                -8.446
 SMILES CC(=O)N[C@@H]1[C@@H](O)C[C@](O)(C(=O)O)O[C@H]1C(O)[C@H](O)CNC(=O)OCc1cn(CC(O)Cn2ccnc2[N+](=O)[O-])nn1
 SMILES IDX 24 1 22 2 21 3 23 5 20 6 18 7 16 8 15 9 9 10 8 11 14 12 6 13
 SMILES IDX 5 14 10 15 11 17 12 18 13 19 7 21 4 23 2 24 1 26 3 27 17 28
 SMILES IDX 19 30 25 32 26 33 27 34 42 35 28 36 41 37 29 38 30 39 31 40
 SMILES IDX 32 42 33 43 34 44 37 45 35 46 36 47 38 48 39 49 40 50
 H PARENT 21 4 10 16 13 20 7 22 4 25 17 29 19 31 31 41
 Flexibility Score: inf
  4 active torsions:
  status: ('A' for Active; 'I' for Inactive)
    1  A    between atoms: CA   and  CB  
    2  A    between atoms: CB   and  CG  
    3  A    between atoms: CG   and  CD  
    4  A    between atoms: CD   and  CE  

>  <TORSDO>
F 20

>  <BEGIN_>
RES LYS A 131

$$$$
ligand_83_pose_6_2HRL.pdbqt
 OpenBabel07062320523D

  6  5  0  0  0  0  0  0  0  0999 V2000
   33.1930   34.6630    9.2900 C   0  0  0  0  0  0  0  0  0  0  0  0
   32.0600   35.3600   10.0340 C   0  0  0  0  0  0  0  0  0  0  0  0
   30.8050   35.5130    9.2140 C   0  0  0  0  0  0  0  0  0  0  0  0
   30.2970   34.1560    8.7510 C   0  0  0  0  0  0  0  0  0  0  0  0
   28.9010   33.8990    9.2850 C   0  0  0  0  0  0  0  0  0  0  0  0
   27.8680   34.4890    8.3900 N   0  0  0  0  0  0  0  0  0  0  0  0
  1  2  1  0  0  0  0
  3  2  1  0  0  0  0
  4  3  1  0  0  0  0
  4  5  1  0  0  0  0
  6  5  1  0  0  0  0
M  END
>  <EGIN_R>
ES LYS A 135

>  <REMARK>
  4 active torsions:
  status: ('A' for Active; 'I' for Inactive)
    5  A    between atoms: CA   and  CB  
    6  A    between atoms: CB   and  CG  
    7  A    between atoms: CG   and  CD  
    8  A    between atoms: CD   and  CE  

$$$$
