ligand_84_pose_11_2HRL.pdbqt
 OpenBabel07062320523D

 60 62  0  0  1  0  0  0  0  0999 V2000
   20.8600   35.7150   10.5190 O   0  0  0  0  0  0  0  0  0  0  0  0
   21.5710   36.5160    9.6400 C   0  0  0  0  0  0  0  0  0  0  0  0
   22.8020   36.1390    9.0330 N   0  0  0  0  0  0  0  0  0  0  0  0
   23.1770   35.2050    9.2880 H   0  0  0  0  0  0  0  0  0  0  0  0
   21.0610   37.6400    9.3830 O   0  0  0  0  0  0  0  0  0  0  0  0
   23.3980   37.0770    8.1390 C   0  0  0  0  0  0  0  0  0  0  0  0
   24.8590   36.9810    7.9530 C   0  0  2  0  0  0  0  0  0  0  0  0
   25.6980   37.2500    9.1900 C   0  0  1  0  0  0  0  0  0  0  0  0
   27.0270   37.7660    8.6340 C   0  0  2  0  0  0  0  0  0  0  0  0
   28.7150   37.0270    7.2020 C   0  0  2  0  0  0  0  0  0  0  0  0
   29.7470   37.6360    8.1090 C   0  0  0  0  0  0  0  0  0  0  0  0
   27.5090   36.7910    7.8050 O   0  0  0  0  0  0  0  0  0  0  0  0
   29.2230   38.6460    9.0640 C   0  0  1  0  0  0  0  0  0  0  0  0
   27.9840   38.0280    9.7480 C   0  0  1  0  0  0  0  0  0  0  0  0
   29.2430   35.7560    6.8560 O   0  0  0  0  0  0  0  0  0  0  0  0
   29.5230   35.2620    7.6490 H   0  0  0  0  0  0  0  0  0  0  0  0
   28.5630   37.7680    5.9150 C   0  0  0  0  0  0  0  0  0  0  0  0
   29.4400   38.5930    5.5530 O   0  0  0  0  0  0  0  0  0  0  0  0
   27.4790   37.5930    5.0680 O   0  0  0  0  0  0  0  0  0  0  0  0
   27.4990   37.7600    4.0690 H   0  0  0  0  0  0  0  0  0  0  0  0
   30.1870   38.8790   10.0450 O   0  0  0  0  0  0  0  0  0  0  0  0
   30.0820   39.7870   10.4330 H   0  0  0  0  0  0  0  0  0  0  0  0
   27.4680   38.9340   10.7400 N   0  0  0  0  0  0  0  0  0  0  0  0
   27.7750   38.7760   12.1100 C   0  0  0  0  0  0  0  0  0  0  0  0
   26.8600   39.7150   10.4410 H   0  0  0  0  0  0  0  0  0  0  0  0
   27.1860   39.7720   13.0540 C   0  0  0  0  0  0  0  0  0  0  0  0
   28.5030   37.8620   12.5490 O   0  0  0  0  0  0  0  0  0  0  0  0
   25.0610   38.2400    9.9560 O   0  0  0  0  0  0  0  0  0  0  0  0
   24.4400   38.7050    9.3390 H   0  0  0  0  0  0  0  0  0  0  0  0
   25.2240   38.0330    7.0680 O   0  0  0  0  0  0  0  0  0  0  0  0
   26.1750   38.2290    7.3070 H   0  0  0  0  0  0  0  0  0  0  0  0
   21.1670   35.7050   11.9040 C   0  0  0  0  0  0  0  0  0  0  0  0
   22.1820   34.6690   12.2010 C   0  0  0  0  0  0  0  0  0  0  0  0
   21.8710   33.3680   12.6060 C   0  0  0  0  0  0  0  0  0  0  0  0
   23.5210   34.6870   12.1570 N   0  0  0  0  0  0  0  0  0  0  0  0
   22.9920   32.6560   12.7880 N   0  0  0  0  0  0  0  0  0  0  0  0
   24.0030   33.5070   12.5030 N   0  0  0  0  0  0  0  0  0  0  0  0
   23.1560   31.2690   13.1810 C   0  0  0  0  0  0  0  0  0  0  0  0
   23.3990   31.1970   14.6940 C   0  0  1  0  0  0  0  0  0  0  0  0
   22.1310   31.0940   15.4560 C   0  0  0  0  0  0  0  0  0  0  0  0
   24.5190   30.3040   15.0270 C   0  0  0  0  0  0  0  0  0  0  0  0
   25.7900   30.9580   15.0550 N   0  0  0  0  0  0  0  0  0  0  0  0
   25.6330   32.3410   15.5810 C   0  0  0  0  0  0  0  0  0  0  0  0
   26.6530   30.3190   16.0440 C   0  0  0  0  0  0  0  0  0  0  0  0
   26.9500   33.0020   15.7790 C   0  0  0  0  0  0  0  0  0  0  0  0
   28.0720   30.7470   15.6390 C   0  0  0  0  0  0  0  0  0  0  0  0
   28.1070   32.1810   15.6050 N   0  0  0  0  0  0  0  0  0  0  0  0
   29.3700   32.8020   15.3930 C   0  0  0  0  0  0  0  0  0  0  0  0
   30.4790   32.3220   16.0530 C   0  0  0  0  0  0  0  0  0  0  0  0
   29.4960   33.8880   14.5380 C   0  0  0  0  0  0  0  0  0  0  0  0
   31.6950   32.9320   15.8500 C   0  0  0  0  0  0  0  0  0  0  0  0
   30.7130   34.4880   14.3450 C   0  0  0  0  0  0  0  0  0  0  0  0
   31.8240   33.9990   15.0120 C   0  0  0  0  0  0  0  0  0  0  0  0
   33.3630   34.7790   14.7610 Cl  0  0  0  0  0  0  0  0  0  0  0  0
   29.8670   25.5550   16.9770 C   0  0  0  0  0  0  0  0  0  0  0  0
   28.3450   25.7220   17.0260 C   0  0  0  0  0  0  0  0  0  0  0  0
   27.5990   24.4240   16.7570 C   0  0  0  0  0  0  0  0  0  0  0  0
   27.1090   23.7800   18.0240 C   0  0  0  0  0  0  0  0  0  0  0  0
   25.6070   24.0100   18.1640 C   0  0  0  0  0  0  0  0  0  0  0  0
   25.0320   24.4770   16.8800 N   0  0  0  0  0  0  0  0  0  0  0  0
  1 32  1  0  0  0  0
  2  1  1  0  0  0  0
  3  4  1  0  0  0  0
  3  2  1  0  0  0  0
  5  2  2  0  0  0  0
  6  3  1  0  0  0  0
  7  6  1  1  0  0  0
  7  8  1  0  0  0  0
  8 28  1  1  0  0  0
  9  8  1  1  0  0  0
  9 14  1  0  0  0  0
 10 17  1  6  0  0  0
 10 12  1  0  0  0  0
 10 11  1  0  0  0  0
 11 13  1  0  0  0  0
 12  9  1  0  0  0  0
 13 14  1  0  0  0  0
 13 21  1  1  0  0  0
 14 23  1  1  0  0  0
 15 10  1  0  0  0  0
 15 16  1  0  0  0  0
 18 17  2  0  0  0  0
 19 17  1  0  0  0  0
 20 19  1  0  0  0  0
 21 22  1  0  0  0  0
 23 24  1  0  0  0  0
 24 27  2  0  0  0  0
 24 26  1  0  0  0  0
 25 23  1  0  0  0  0
 29 28  1  0  0  0  0
 30 31  1  0  0  0  0
 30  7  1  0  0  0  0
 32 33  1  0  0  0  0
 33 34  2  0  0  0  0
 34 36  1  0  0  0  0
 35 33  1  0  0  0  0
 35 37  2  0  0  0  0
 36 38  1  0  0  0  0
 37 36  1  0  0  0  0
 38 39  1  0  0  0  0
 39 41  1  0  0  0  0
 39 40  1  1  0  0  0
 41 42  1  0  0  0  0
 42 43  1  0  0  0  0
 42 44  1  0  0  0  0
 43 45  1  0  0  0  0
 46 44  1  0  0  0  0
 47 46  1  0  0  0  0
 47 45  1  0  0  0  0
 48 47  1  0  0  0  0
 48 49  2  0  0  0  0
 50 48  1  0  0  0  0
 51 49  1  0  0  0  0
 52 50  2  0  0  0  0
 52 53  1  0  0  0  0
 53 51  2  0  0  0  0
 54 53  1  0  0  0  0
 55 56  1  0  0  0  0
 57 56  1  0  0  0  0
 57 58  1  0  0  0  0
 58 59  1  0  0  0  0
 60 59  1  0  0  0  0
M  END
>  <REMARK>
 VINA RESULT:    -5.056      1.828      2.672
 INTER + INTRA:         -16.054
 INTER:                 -10.802
 INTRA:                  -5.252
 UNBOUND:                -6.121
 SMILES CC(=O)N[C@@H]1[C@@H](O)C[C@](O)(C(=O)O)O[C@H]1C(O)[C@H](O)CNC(=O)OCc1cn(C[C@@H](C)CN2CCN(c3ccc(Cl)cc3)CC2)nn1
 SMILES IDX 24 1 22 2 21 3 23 5 20 6 18 7 16 8 15 9 9 10 8 11 14 12 6 13
 SMILES IDX 5 14 10 15 11 17 12 18 13 19 7 21 4 23 2 24 1 26 3 27 17 28
 SMILES IDX 19 30 25 32 26 33 27 34 47 35 28 36 46 37 29 38 30 39 31 40
 SMILES IDX 32 41 33 42 34 43 45 44 35 45 44 46 36 47 37 48 38 49 43 50
 SMILES IDX 39 51 42 52 40 53 41 54
 H PARENT 21 4 10 16 13 20 7 22 4 25 17 29 19 31
 Flexibility Score: inf
  4 active torsions:
  status: ('A' for Active; 'I' for Inactive)
    1  A    between atoms: CA   and  CB  
    2  A    between atoms: CB   and  CG  
    3  A    between atoms: CG   and  CD  
    4  A    between atoms: CD   and  CE  

>  <TORSDO>
F 19

>  <BEGIN_>
RES LYS A 131

$$$$
ligand_84_pose_11_2HRL.pdbqt
 OpenBabel07062320523D

  6  5  0  0  0  0  0  0  0  0999 V2000
   33.1930   34.6630    9.2900 C   0  0  0  0  0  0  0  0  0  0  0  0
   32.0600   35.3600   10.0340 C   0  0  0  0  0  0  0  0  0  0  0  0
   30.7080   34.7390    9.7920 C   0  0  0  0  0  0  0  0  0  0  0  0
   29.7820   34.9920   10.9710 C   0  0  0  0  0  0  0  0  0  0  0  0
   28.3490   34.6600   10.6040 C   0  0  0  0  0  0  0  0  0  0  0  0
   28.2950   33.7200    9.4510 N   0  0  0  0  0  0  0  0  0  0  0  0
  1  2  1  0  0  0  0
  3  2  1  0  0  0  0
  3  4  1  0  0  0  0
  5  4  1  0  0  0  0
  6  5  1  0  0  0  0
M  END
>  <EGIN_R>
ES LYS A 135

>  <REMARK>
  4 active torsions:
  status: ('A' for Active; 'I' for Inactive)
    5  A    between atoms: CA   and  CB  
    6  A    between atoms: CB   and  CG  
    7  A    between atoms: CG   and  CD  
    8  A    between atoms: CD   and  CE  

$$$$
