ligand_39_pose_16_2HRL.pdbqt
 OpenBabel07062320523D

 51 52  0  0  1  0  0  0  0  0999 V2000
   25.5590   29.4390   19.4480 N   0  0  0  0  0  0  0  0  0  0  0  0
   24.5330   29.5310   18.5010 C   0  0  0  0  0  0  0  0  0  0  0  0
   23.3810   29.8860   18.8740 O   0  0  0  0  0  0  0  0  0  0  0  0
   26.5100   29.1390   19.0950 H   0  0  0  0  0  0  0  0  0  0  0  0
   25.4120   29.7210   20.8590 C   0  0  0  0  0  0  0  0  0  0  0  0
   26.7480   29.5470   21.5490 C   0  0  2  0  0  0  0  0  0  0  0  0
   27.8870   30.0110   20.6670 C   0  0  2  0  0  0  0  0  0  0  0  0
   29.2390   29.6120   21.2260 C   0  0  2  0  0  0  0  0  0  0  0  0
   30.5980   27.7260   21.4180 C   0  0  2  0  0  0  0  0  0  0  0  0
   30.7400   27.8990   22.8820 C   0  0  0  0  0  0  0  0  0  0  0  0
   29.4040   28.2820   20.9850 O   0  0  0  0  0  0  0  0  0  0  0  0
   29.8650   28.8900   23.5450 C   0  0  1  0  0  0  0  0  0  0  0  0
   29.3710   30.0050   22.6700 C   0  0  1  0  0  0  0  0  0  0  0  0
   30.4780   26.3410   21.1360 O   0  0  0  0  0  0  0  0  0  0  0  0
   31.3610   25.9440   20.9140 H   0  0  0  0  0  0  0  0  0  0  0  0
   31.7710   28.2220   20.6940 C   0  0  0  0  0  0  0  0  0  0  0  0
   32.3740   29.2870   21.0010 O   0  0  0  0  0  0  0  0  0  0  0  0
   32.2570   27.5010   19.6130 O   0  0  0  0  0  0  0  0  0  0  0  0
   32.4480   27.9210   18.7110 H   0  0  0  0  0  0  0  0  0  0  0  0
   28.7900   28.2430   24.1840 O   0  0  0  0  0  0  0  0  0  0  0  0
   28.4940   28.8960   24.8950 H   0  0  0  0  0  0  0  0  0  0  0  0
   30.1590   31.2050   22.8450 N   0  0  0  0  0  0  0  0  0  0  0  0
   29.5800   32.4650   23.1450 C   0  0  0  0  0  0  0  0  0  0  0  0
   31.1920   31.1570   22.7510 H   0  0  0  0  0  0  0  0  0  0  0  0
   30.3780   33.7100   23.3280 C   0  0  0  0  0  0  0  0  0  0  0  0
   28.3080   32.4980   23.2560 O   0  0  0  0  0  0  0  0  0  0  0  0
   27.7920   31.3820   20.4540 O   0  0  0  0  0  0  0  0  0  0  0  0
   27.8890   31.8500   21.3400 H   0  0  0  0  0  0  0  0  0  0  0  0
   26.8590   28.1590   21.8010 O   0  0  0  0  0  0  0  0  0  0  0  0
   27.4070   27.7100   21.1380 H   0  0  0  0  0  0  0  0  0  0  0  0
   24.6850   29.2560   17.1500 O   0  0  0  0  0  0  0  0  0  0  0  0
   25.1790   30.2530   16.2710 C   0  0  0  0  0  0  0  0  0  0  0  0
   26.4320   30.8500   16.7780 C   0  0  0  0  0  0  0  0  0  0  0  0
   27.7250   30.3210   16.6560 C   0  0  0  0  0  0  0  0  0  0  0  0
   26.6170   31.9930   17.4490 N   0  0  0  0  0  0  0  0  0  0  0  0
   28.6160   31.1140   17.2280 N   0  0  0  0  0  0  0  0  0  0  0  0
   27.8950   32.1520   17.7160 N   0  0  0  0  0  0  0  0  0  0  0  0
   30.0470   31.0610   17.4090 C   0  0  0  0  0  0  0  0  0  0  0  0
   30.7950   32.1990   16.8920 C   0  0  0  0  0  0  0  0  0  0  0  0
   31.1100   32.2950   15.5330 C   0  0  0  0  0  0  0  0  0  0  0  0
   31.1940   33.2320   17.6890 C   0  0  0  0  0  0  0  0  0  0  0  0
   31.7840   33.3860   15.0600 C   0  0  0  0  0  0  0  0  0  0  0  0
   31.8770   34.3340   17.2060 C   0  0  0  0  0  0  0  0  0  0  0  0
   30.8690   33.2040   19.5920 Br  0  0  0  0  0  0  0  0  0  0  0  0
   32.1800   34.4210   15.8710 C   0  0  0  0  0  0  0  0  0  0  0  0
   29.8670   25.5550   16.9770 C   0  0  0  0  0  0  0  0  0  0  0  0
   28.3450   25.7220   17.0260 C   0  0  0  0  0  0  0  0  0  0  0  0
   27.6020   24.3970   16.9460 C   0  0  0  0  0  0  0  0  0  0  0  0
   26.4010   24.3650   17.8490 C   0  0  0  0  0  0  0  0  0  0  0  0
   25.9820   25.7920   18.1900 C   0  0  0  0  0  0  0  0  0  0  0  0
   25.4670   25.8640   19.5780 N   0  0  0  0  0  0  0  0  0  0  0  0
  1  5  1  0  0  0  0
  2  3  2  0  0  0  0
  2  1  1  0  0  0  0
  4  1  1  0  0  0  0
  6  5  1  6  0  0  0
  6 29  1  0  0  0  0
  7 27  1  1  0  0  0
  7  6  1  0  0  0  0
  8  7  1  1  0  0  0
  8 13  1  0  0  0  0
  9 16  1  6  0  0  0
  9 10  1  0  0  0  0
 10 12  1  0  0  0  0
 11  8  1  0  0  0  0
 11  9  1  0  0  0  0
 12 20  1  6  0  0  0
 13 22  1  6  0  0  0
 13 12  1  0  0  0  0
 14  9  1  0  0  0  0
 15 14  1  0  0  0  0
 16 17  2  0  0  0  0
 18 16  1  0  0  0  0
 19 18  1  0  0  0  0
 20 21  1  0  0  0  0
 22 23  1  0  0  0  0
 23 26  2  0  0  0  0
 23 25  1  0  0  0  0
 24 22  1  0  0  0  0
 27 28  1  0  0  0  0
 30 29  1  0  0  0  0
 31  2  1  0  0  0  0
 32 33  1  0  0  0  0
 32 31  1  0  0  0  0
 33 35  1  0  0  0  0
 34 33  2  0  0  0  0
 34 36  1  0  0  0  0
 35 37  2  0  0  0  0
 36 38  1  0  0  0  0
 36 37  1  0  0  0  0
 39 38  1  0  0  0  0
 39 41  2  0  0  0  0
 40 39  1  0  0  0  0
 41 44  1  0  0  0  0
 42 40  2  0  0  0  0
 42 45  1  0  0  0  0
 43 41  1  0  0  0  0
 45 43  2  0  0  0  0
 46 47  1  0  0  0  0
 48 47  1  0  0  0  0
 48 49  1  0  0  0  0
 49 50  1  0  0  0  0
 50 51  1  0  0  0  0
M  END
>  <REMARK>
 VINA RESULT:    -3.869      1.946      3.546
 INTER + INTRA:         -14.348
 INTER:                  -7.858
 INTRA:                  -6.490
 UNBOUND:                -7.426
 SMILES CC(=O)N[C@@H]1[C@@H](O)C[C@](O)(C(=O)O)O[C@H]1C(O)[C@H](O)CNC(=O)OCc1cn(Cc2ccccc2Br)nn1
 SMILES IDX 21 1 22 2 23 3 20 5 18 6 16 7 15 8 9 9 8 10 14 11 6 12 5 13
 SMILES IDX 10 14 11 16 12 17 13 18 7 20 4 22 2 23 1 25 3 26 17 27 19 29
 SMILES IDX 24 31 25 32 26 33 27 34 38 35 28 36 37 37 29 38 30 39 31 40
 SMILES IDX 35 41 32 42 34 43 36 44 33 45
 H PARENT 21 4 10 15 13 19 7 21 4 24 17 28 19 30
 Flexibility Score: inf
  4 active torsions:
  status: ('A' for Active; 'I' for Inactive)
    1  A    between atoms: CA   and  CB  
    2  A    between atoms: CB   and  CG  
    3  A    between atoms: CG   and  CD  
    4  A    between atoms: CD   and  CE  

>  <TORSDO>
F 16

>  <BEGIN_>
RES LYS A 131

$$$$
ligand_39_pose_16_2HRL.pdbqt
 OpenBabel07062320523D

  6  5  0  0  0  0  0  0  0  0999 V2000
   33.1930   34.6630    9.2900 C   0  0  0  0  0  0  0  0  0  0  0  0
   32.0600   35.3600   10.0340 C   0  0  0  0  0  0  0  0  0  0  0  0
   30.6990   34.7860    9.7340 C   0  0  0  0  0  0  0  0  0  0  0  0
   30.5690   34.4610    8.2540 C   0  0  0  0  0  0  0  0  0  0  0  0
   29.3040   35.0730    7.6840 C   0  0  0  0  0  0  0  0  0  0  0  0
   29.1070   36.4620    8.1840 N   0  0  0  0  0  0  0  0  0  0  0  0
  1  2  1  0  0  0  0
  3  2  1  0  0  0  0
  4  3  1  0  0  0  0
  5  6  1  0  0  0  0
  5  4  1  0  0  0  0
M  END
>  <EGIN_R>
ES LYS A 135

>  <REMARK>
  4 active torsions:
  status: ('A' for Active; 'I' for Inactive)
    5  A    between atoms: CA   and  CB  
    6  A    between atoms: CB   and  CG  
    7  A    between atoms: CG   and  CD  
    8  A    between atoms: CD   and  CE  

$$$$
