ligand_51_pose_6_2HRL.pdbqt
 OpenBabel07062320523D

 53 56  0  0  1  0  0  0  0  0999 V2000
   31.8900   37.5750   15.5170 C   0  0  0  0  0  0  0  0  0  0  0  0
   32.2730   36.3420   14.7400 C   0  0  2  0  0  0  0  0  0  0  0  0
   31.1040   35.4030   14.5240 C   0  0  1  0  0  0  0  0  0  0  0  0
   30.6420   34.8180   15.8640 C   0  0  2  0  0  0  0  0  0  0  0  0
   30.6320   32.4740   15.8860 C   0  0  2  0  0  0  0  0  0  0  0  0
   29.3420   32.5660   15.1120 C   0  0  0  0  0  0  0  0  0  0  0  0
   31.2490   33.6420   16.1700 O   0  0  0  0  0  0  0  0  0  0  0  0
   28.4480   33.5720   15.7490 C   0  0  1  0  0  0  0  0  0  0  0  0
   29.1690   34.8620   16.0350 C   0  0  1  0  0  0  0  0  0  0  0  0
   31.5030   31.7340   15.0520 O   0  0  0  0  0  0  0  0  0  0  0  0
   32.1600   32.3810   14.6830 H   0  0  0  0  0  0  0  0  0  0  0  0
   30.3650   31.6290   17.0780 C   0  0  0  0  0  0  0  0  0  0  0  0
   30.6240   32.0170   18.2490 O   0  0  0  0  0  0  0  0  0  0  0  0
   29.8150   30.3760   16.9210 O   0  0  0  0  0  0  0  0  0  0  0  0
   29.1570   30.1510   16.1730 H   0  0  0  0  0  0  0  0  0  0  0  0
   27.3450   33.7650   14.8860 O   0  0  0  0  0  0  0  0  0  0  0  0
   26.9140   34.6230   15.0830 H   0  0  0  0  0  0  0  0  0  0  0  0
   28.8730   35.2950   17.3940 N   0  0  0  0  0  0  0  0  0  0  0  0
   27.7460   36.1000   17.7070 C   0  0  0  0  0  0  0  0  0  0  0  0
   29.5160   35.0050   18.1870 H   0  0  0  0  0  0  0  0  0  0  0  0
   27.5230   36.4920   19.1060 C   0  0  0  0  0  0  0  0  0  0  0  0
   26.9780   36.4490   16.7600 O   0  0  0  0  0  0  0  0  0  0  0  0
   30.0830   35.9590   13.8160 O   0  0  0  0  0  0  0  0  0  0  0  0
   30.0550   35.7790   12.8640 H   0  0  0  0  0  0  0  0  0  0  0  0
   33.3200   35.7240   15.4170 O   0  0  0  0  0  0  0  0  0  0  0  0
   34.1800   36.1880   15.1600 H   0  0  0  0  0  0  0  0  0  0  0  0
   31.3040   38.5100   14.5720 N   0  0  0  0  0  0  0  0  0  0  0  0
   30.0040   39.0850   14.7800 C   0  0  0  0  0  0  0  0  0  0  0  0
   31.7860   38.8160   13.6940 H   0  0  0  0  0  0  0  0  0  0  0  0
   29.3840   38.7500   15.8190 O   0  0  0  0  0  0  0  0  0  0  0  0
   29.4370   39.9690   13.8950 O   0  0  0  0  0  0  0  0  0  0  0  0
   28.1140   39.7520   13.4560 C   0  0  0  0  0  0  0  0  0  0  0  0
   28.1910   39.2460   12.0490 C   0  0  0  0  0  0  0  0  0  0  0  0
   28.1880   37.9070   11.7060 C   0  0  0  0  0  0  0  0  0  0  0  0
   28.2770   39.9080   10.8980 N   0  0  0  0  0  0  0  0  0  0  0  0
   28.2710   37.8210   10.3860 N   0  0  0  0  0  0  0  0  0  0  0  0
   28.3240   39.0460    9.9060 N   0  0  0  0  0  0  0  0  0  0  0  0
   28.2960   36.5630    9.6360 C   0  0  2  0  0  0  0  0  0  0  0  0
   26.8500   36.2530    9.2750 C   0  0  0  0  0  0  0  0  0  0  0  0
   28.8750   35.4580   10.4650 C   0  0  0  0  0  0  0  0  0  0  0  0
   29.1350   36.7380    8.3950 C   0  0  0  0  0  0  0  0  0  0  0  0
   26.8030   34.9690    8.4690 C   0  0  1  0  0  0  0  0  0  0  0  0
   28.7720   34.1710    9.6780 C   0  0  1  0  0  0  0  0  0  0  0  0
   29.0760   35.4610    7.5830 C   0  0  2  0  0  0  0  0  0  0  0  0
   27.6310   35.1560    7.2320 C   0  0  0  0  0  0  0  0  0  0  0  0
   27.3430   33.8630    9.3410 C   0  0  0  0  0  0  0  0  0  0  0  0
   29.6140   34.3370    8.4340 C   0  0  0  0  0  0  0  0  0  0  0  0
   29.8670   25.5550   16.9770 C   0  0  0  0  0  0  0  0  0  0  0  0
   28.3450   25.7220   17.0260 C   0  0  0  0  0  0  0  0  0  0  0  0
   27.5990   24.4790   16.5640 C   0  0  0  0  0  0  0  0  0  0  0  0
   27.0180   23.7070   17.7160 C   0  0  0  0  0  0  0  0  0  0  0  0
   25.6780   24.3160   18.1130 C   0  0  0  0  0  0  0  0  0  0  0  0
   24.7600   24.3550   16.9500 N   0  0  0  0  0  0  0  0  0  0  0  0
  2 25  1  0  0  0  0
  2  1  1  1  0  0  0
  3 23  1  1  0  0  0
  3  2  1  0  0  0  0
  4  3  1  6  0  0  0
  4  9  1  0  0  0  0
  4  7  1  0  0  0  0
  5 10  1  6  0  0  0
  5  7  1  0  0  0  0
  5 12  1  0  0  0  0
  6  8  1  0  0  0  0
  6  5  1  0  0  0  0
  8 16  1  6  0  0  0
  8  9  1  0  0  0  0
  9 18  1  1  0  0  0
 11 10  1  0  0  0  0
 12 13  2  0  0  0  0
 14 12  1  0  0  0  0
 15 14  1  0  0  0  0
 16 17  1  0  0  0  0
 18 19  1  0  0  0  0
 18 20  1  0  0  0  0
 19 21  1  0  0  0  0
 22 19  2  0  0  0  0
 24 23  1  0  0  0  0
 26 25  1  0  0  0  0
 27 28  1  0  0  0  0
 27  1  1  0  0  0  0
 28 30  2  0  0  0  0
 29 27  1  0  0  0  0
 31 28  1  0  0  0  0
 32 31  1  0  0  0  0
 33 32  1  0  0  0  0
 34 33  2  0  0  0  0
 35 33  1  0  0  0  0
 36 34  1  0  0  0  0
 37 36  1  0  0  0  0
 37 35  2  0  0  0  0
 38 41  1  6  0  0  0
 38 36  1  0  0  0  0
 38 40  1  0  0  0  0
 39 38  1  0  0  0  0
 42 45  1  6  0  0  0
 42 39  1  0  0  0  0
 42 46  1  0  0  0  0
 43 47  1  6  0  0  0
 43 40  1  0  0  0  0
 44 45  1  1  0  0  0
 44 41  1  0  0  0  0
 44 47  1  0  0  0  0
 46 43  1  0  0  0  0
 48 49  1  0  0  0  0
 50 49  1  0  0  0  0
 50 51  1  0  0  0  0
 51 52  1  0  0  0  0
 53 52  1  0  0  0  0
M  END
>  <REMARK>
 VINA RESULT:    -4.913      4.625      8.181
 INTER + INTRA:         -15.058
 INTER:                 -10.632
 INTRA:                  -4.426
 UNBOUND:                -6.554
 SMILES CC(=O)N[C@@H]1[C@@H](O)C[C@](O)(C(=O)O)O[C@H]1C(O)[C@H](O)CNC(=O)OCc1cn(C23CC4CC(CC(C4)C2)C3)nn1
 SMILES IDX 20 1 18 2 16 3 15 4 9 5 8 6 14 7 6 8 5 9 10 10 11 12 12 13
 SMILES IDX 13 14 7 16 4 18 2 19 1 21 3 22 17 23 19 25 21 27 22 28 23 30
 SMILES IDX 24 31 25 32 26 33 27 34 40 35 28 36 39 37 29 38 38 39 37 40
 SMILES IDX 30 41 33 42 35 43 31 44 32 45 34 46 36 47
 H PARENT 10 11 13 15 7 17 4 20 17 24 19 26 21 29
 Flexibility Score: inf
  4 active torsions:
  status: ('A' for Active; 'I' for Inactive)
    1  A    between atoms: CA   and  CB  
    2  A    between atoms: CB   and  CG  
    3  A    between atoms: CG   and  CD  
    4  A    between atoms: CD   and  CE  

>  <TORSDO>
F 15

>  <BEGIN_>
RES LYS A 131

$$$$
ligand_51_pose_6_2HRL.pdbqt
 OpenBabel07062320523D

  6  5  0  0  0  0  0  0  0  0999 V2000
   33.1930   34.6630    9.2900 C   0  0  0  0  0  0  0  0  0  0  0  0
   32.0600   35.3600   10.0340 C   0  0  0  0  0  0  0  0  0  0  0  0
   32.5320   36.2470   11.1570 C   0  0  0  0  0  0  0  0  0  0  0  0
   31.7100   37.5250   11.2140 C   0  0  0  0  0  0  0  0  0  0  0  0
   31.9290   38.3550    9.9630 C   0  0  0  0  0  0  0  0  0  0  0  0
   31.7890   39.8090   10.2540 N   0  0  0  0  0  0  0  0  0  0  0  0
  1  2  1  0  0  0  0
  2  3  1  0  0  0  0
  3  4  1  0  0  0  0
  5  6  1  0  0  0  0
  5  4  1  0  0  0  0
M  END
>  <EGIN_R>
ES LYS A 135

>  <REMARK>
  4 active torsions:
  status: ('A' for Active; 'I' for Inactive)
    5  A    between atoms: CA   and  CB  
    6  A    between atoms: CB   and  CG  
    7  A    between atoms: CG   and  CD  
    8  A    between atoms: CD   and  CE  

$$$$
