ligand_28_pose_6_2HRL.pdbqt
 OpenBabel07062320523D

 53 55  0  0  1  0  0  0  0  0999 V2000
   26.4950   35.8970   11.6090 N   0  0  0  0  0  0  0  0  0  0  0  0
   27.2260   37.1170   11.6300 C   0  0  0  0  0  0  0  0  0  0  0  0
   26.6360   38.1980   11.9580 O   0  0  0  0  0  0  0  0  0  0  0  0
   26.9990   35.0400   11.3410 H   0  0  0  0  0  0  0  0  0  0  0  0
   25.1000   35.9550   11.9680 C   0  0  0  0  0  0  0  0  0  0  0  0
   24.8200   35.4860   13.3610 C   0  0  2  0  0  0  0  0  0  0  0  0
   24.3440   34.0510   13.4090 C   0  0  2  0  0  0  0  0  0  0  0  0
   24.5900   33.4500   14.7900 C   0  0  2  0  0  0  0  0  0  0  0  0
   26.7330   33.3820   15.6790 C   0  0  2  0  0  0  0  0  0  0  0  0
   26.5200   32.0480   16.3550 C   0  0  0  0  0  0  0  0  0  0  0  0
   25.5860   34.0910   15.4660 O   0  0  0  0  0  0  0  0  0  0  0  0
   25.1320   31.4950   16.1020 C   0  0  1  0  0  0  0  0  0  0  0  0
   24.7270   31.9520   14.7190 C   0  0  1  0  0  0  0  0  0  0  0  0
   27.4600   33.2190   14.4830 O   0  0  0  0  0  0  0  0  0  0  0  0
   28.0440   32.4400   14.5040 H   0  0  0  0  0  0  0  0  0  0  0  0
   27.6050   34.1840   16.5800 C   0  0  0  0  0  0  0  0  0  0  0  0
   27.5510   34.0180   17.8370 O   0  0  0  0  0  0  0  0  0  0  0  0
   28.5060   35.1320   16.1280 O   0  0  0  0  0  0  0  0  0  0  0  0
   28.1340   36.0450   15.8480 H   0  0  0  0  0  0  0  0  0  0  0  0
   25.0990   30.1120   16.2390 O   0  0  0  0  0  0  0  0  0  0  0  0
   24.1600   29.8530   16.4020 H   0  0  0  0  0  0  0  0  0  0  0  0
   23.5250   31.3640   14.2470 N   0  0  0  0  0  0  0  0  0  0  0  0
   23.5020   30.4290   13.1800 C   0  0  0  0  0  0  0  0  0  0  0  0
   22.6210   31.6520   14.7270 H   0  0  0  0  0  0  0  0  0  0  0  0
   22.2150   29.8250   12.7060 C   0  0  0  0  0  0  0  0  0  0  0  0
   24.6100   30.1370   12.6620 O   0  0  0  0  0  0  0  0  0  0  0  0
   25.1120   33.3200   12.5050 O   0  0  0  0  0  0  0  0  0  0  0  0
   25.8610   33.8760   12.1770 H   0  0  0  0  0  0  0  0  0  0  0  0
   23.8480   36.3250   13.9020 O   0  0  0  0  0  0  0  0  0  0  0  0
   22.9900   36.2660   13.4160 H   0  0  0  0  0  0  0  0  0  0  0  0
   28.5760   37.1900   11.3050 O   0  0  0  0  0  0  0  0  0  0  0  0
   29.5130   37.4290   12.3500 C   0  0  0  0  0  0  0  0  0  0  0  0
   29.9360   36.1520   12.9680 C   0  0  0  0  0  0  0  0  0  0  0  0
   31.0640   35.9850   13.7190 C   0  0  0  0  0  0  0  0  0  0  0  0
   29.3380   34.9620   12.9190 N   0  0  0  0  0  0  0  0  0  0  0  0
   31.1160   34.7020   14.1030 N   0  0  0  0  0  0  0  0  0  0  0  0
   30.0630   34.0930   13.6110 N   0  0  0  0  0  0  0  0  0  0  0  0
   32.1590   34.1150   14.9170 C   0  0  0  0  0  0  0  0  0  0  0  0
   31.4880   33.2480   15.9260 C   0  0  0  0  0  0  0  0  0  0  0  0
   30.9720   32.0390   15.5200 C   0  0  0  0  0  0  0  0  0  0  0  0
   31.3700   33.6180   17.2420 C   0  0  0  0  0  0  0  0  0  0  0  0
   30.3410   31.2140   16.4450 C   0  0  0  0  0  0  0  0  0  0  0  0
   30.7430   32.7960   18.1580 C   0  0  0  0  0  0  0  0  0  0  0  0
   30.2250   31.5910   17.7680 C   0  0  0  0  0  0  0  0  0  0  0  0
   30.5140   32.9640   19.5100 O   0  0  0  0  0  0  0  0  0  0  0  0
   29.6570   30.9650   18.8580 O   0  0  0  0  0  0  0  0  0  0  0  0
   30.0350   31.7280   19.9940 C   0  0  0  0  0  0  0  0  0  0  0  0
   29.8670   25.5550   16.9770 C   0  0  0  0  0  0  0  0  0  0  0  0
   28.3450   25.7220   17.0260 C   0  0  0  0  0  0  0  0  0  0  0  0
   27.6010   24.4010   16.9020 C   0  0  0  0  0  0  0  0  0  0  0  0
   26.5180   24.2620   17.9350 C   0  0  0  0  0  0  0  0  0  0  0  0
   25.1570   24.2390   17.2460 C   0  0  0  0  0  0  0  0  0  0  0  0
   24.3050   25.3440   17.7430 N   0  0  0  0  0  0  0  0  0  0  0  0
  1  2  1  0  0  0  0
  1  5  1  0  0  0  0
  2  3  2  0  0  0  0
  4  1  1  0  0  0  0
  6  5  1  6  0  0  0
  6  7  1  0  0  0  0
  6 29  1  0  0  0  0
  7 27  1  6  0  0  0
  8  7  1  6  0  0  0
  8 11  1  0  0  0  0
  9 14  1  6  0  0  0
  9 10  1  0  0  0  0
  9 16  1  0  0  0  0
 11  9  1  0  0  0  0
 12 20  1  6  0  0  0
 12 10  1  0  0  0  0
 13 22  1  1  0  0  0
 13  8  1  0  0  0  0
 13 12  1  0  0  0  0
 14 15  1  0  0  0  0
 16 17  2  0  0  0  0
 18 16  1  0  0  0  0
 19 18  1  0  0  0  0
 20 21  1  0  0  0  0
 22 24  1  0  0  0  0
 23 22  1  0  0  0  0
 25 23  1  0  0  0  0
 26 23  2  0  0  0  0
 28 27  1  0  0  0  0
 30 29  1  0  0  0  0
 31  2  1  0  0  0  0
 31 32  1  0  0  0  0
 32 33  1  0  0  0  0
 33 34  2  0  0  0  0
 34 36  1  0  0  0  0
 35 33  1  0  0  0  0
 35 37  2  0  0  0  0
 36 38  1  0  0  0  0
 37 36  1  0  0  0  0
 38 39  1  0  0  0  0
 39 41  1  0  0  0  0
 40 39  2  0  0  0  0
 40 42  1  0  0  0  0
 41 43  2  0  0  0  0
 42 44  2  0  0  0  0
 43 45  1  0  0  0  0
 44 43  1  0  0  0  0
 44 46  1  0  0  0  0
 45 47  1  0  0  0  0
 46 47  1  0  0  0  0
 48 49  1  0  0  0  0
 50 49  1  0  0  0  0
 50 51  1  0  0  0  0
 52 53  1  0  0  0  0
 52 51  1  0  0  0  0
M  END
>  <REMARK>
 VINA RESULT:    -5.136      3.114      6.336
 INTER + INTRA:         -15.193
 INTER:                  -7.991
 INTRA:                  -7.202
 UNBOUND:                -6.003
 SMILES CC(=O)N[C@@H]1[C@@H](O)C[C@](O)(C(=O)O)O[C@H]1C(O)[C@H](O)CNC(=O)OCc1cn(Cc2ccc3c(c2)OCO3)nn1
 SMILES IDX 21 1 22 2 23 3 20 5 18 6 16 7 15 8 9 9 8 10 14 11 6 12 5 13
 SMILES IDX 10 14 11 16 12 17 13 18 7 20 4 22 2 23 1 25 3 26 17 27 19 29
 SMILES IDX 24 31 25 32 26 33 27 34 40 35 28 36 39 37 29 38 30 39 31 40
 SMILES IDX 35 41 32 42 34 43 33 44 36 45 38 46 37 47
 H PARENT 21 4 10 15 13 19 7 21 4 24 17 28 19 30
 Flexibility Score: inf
  4 active torsions:
  status: ('A' for Active; 'I' for Inactive)
    1  A    between atoms: CA   and  CB  
    2  A    between atoms: CB   and  CG  
    3  A    between atoms: CG   and  CD  
    4  A    between atoms: CD   and  CE  

>  <TORSDO>
F 16

>  <BEGIN_>
RES LYS A 131

$$$$
ligand_28_pose_6_2HRL.pdbqt
 OpenBabel07062320523D

  6  5  0  0  0  0  0  0  0  0999 V2000
   33.1930   34.6630    9.2900 C   0  0  0  0  0  0  0  0  0  0  0  0
   32.0600   35.3600   10.0340 C   0  0  0  0  0  0  0  0  0  0  0  0
   30.7590   35.3750    9.2730 C   0  0  0  0  0  0  0  0  0  0  0  0
   30.1160   33.9970    9.2830 C   0  0  0  0  0  0  0  0  0  0  0  0
   28.6060   34.1130    9.1980 C   0  0  0  0  0  0  0  0  0  0  0  0
   28.1950   34.9020    8.0040 N   0  0  0  0  0  0  0  0  0  0  0  0
  1  2  1  0  0  0  0
  3  4  1  0  0  0  0
  3  2  1  0  0  0  0
  5  4  1  0  0  0  0
  6  5  1  0  0  0  0
M  END
>  <EGIN_R>
ES LYS A 135

>  <REMARK>
  4 active torsions:
  status: ('A' for Active; 'I' for Inactive)
    5  A    between atoms: CA   and  CB  
    6  A    between atoms: CB   and  CG  
    7  A    between atoms: CG   and  CD  
    8  A    between atoms: CD   and  CE  

$$$$
