ligand_49_pose_12_2HRL.pdbqt
 OpenBabel07062320523D

 48 49  0  0  1  0  0  0  0  0999 V2000
   26.0240   35.6100   15.6840 C   0  0  0  0  0  0  0  0  0  0  0  0
   26.7450   34.2910   15.6550 C   0  0  2  0  0  0  0  0  0  0  0  0
   28.1690   34.5910   15.2300 C   0  0  1  0  0  0  0  0  0  0  0  0
   29.1080   33.4690   15.5380 C   0  0  2  0  0  0  0  0  0  0  0  0
   29.1920   31.4580   16.6870 C   0  0  2  0  0  0  0  0  0  0  0  0
   30.6170   31.5130   16.1570 C   0  0  0  0  0  0  0  0  0  0  0  0
   28.6490   32.7420   16.6110 O   0  0  0  0  0  0  0  0  0  0  0  0
   31.2020   32.8380   16.6010 C   0  0  1  0  0  0  0  0  0  0  0  0
   30.5280   33.9110   15.7550 C   0  0  1  0  0  0  0  0  0  0  0  0
   29.2770   31.0330   18.0080 O   0  0  0  0  0  0  0  0  0  0  0  0
   30.2550   30.9080   18.2120 H   0  0  0  0  0  0  0  0  0  0  0  0
   28.3600   30.5120   15.9350 C   0  0  0  0  0  0  0  0  0  0  0  0
   27.1240   30.6910   15.7960 O   0  0  0  0  0  0  0  0  0  0  0  0
   28.9170   29.3850   15.3530 O   0  0  0  0  0  0  0  0  0  0  0  0
   28.3440   28.6040   15.0080 H   0  0  0  0  0  0  0  0  0  0  0  0
   30.8400   33.0100   17.9480 O   0  0  0  0  0  0  0  0  0  0  0  0
   31.2920   33.8350   18.2650 H   0  0  0  0  0  0  0  0  0  0  0  0
   31.2570   34.0450   14.5100 N   0  0  0  0  0  0  0  0  0  0  0  0
   31.8960   35.2580   14.1690 C   0  0  0  0  0  0  0  0  0  0  0  0
   31.3170   33.2450   13.8550 H   0  0  0  0  0  0  0  0  0  0  0  0
   32.6580   35.4630   12.9130 C   0  0  0  0  0  0  0  0  0  0  0  0
   31.8140   36.2140   14.9730 O   0  0  0  0  0  0  0  0  0  0  0  0
   28.1400   34.7570   13.8440 O   0  0  0  0  0  0  0  0  0  0  0  0
   28.6920   35.4990   13.5250 H   0  0  0  0  0  0  0  0  0  0  0  0
   26.1700   33.4060   14.7730 O   0  0  0  0  0  0  0  0  0  0  0  0
   26.6320   32.5280   14.8410 H   0  0  0  0  0  0  0  0  0  0  0  0
   25.8610   36.2590   14.4220 N   0  0  0  0  0  0  0  0  0  0  0  0
   24.7860   36.0960   13.5410 C   0  0  0  0  0  0  0  0  0  0  0  0
   26.6410   36.9320   14.1350 H   0  0  0  0  0  0  0  0  0  0  0  0
   23.8510   35.3140   13.8270 O   0  0  0  0  0  0  0  0  0  0  0  0
   24.7460   36.8090   12.3280 O   0  0  0  0  0  0  0  0  0  0  0  0
   25.6710   37.8690   12.1680 C   0  0  0  0  0  0  0  0  0  0  0  0
   26.1010   37.9000   10.7530 C   0  0  0  0  0  0  0  0  0  0  0  0
   25.9070   36.8490    9.8670 C   0  0  0  0  0  0  0  0  0  0  0  0
   26.7180   38.8500   10.0620 N   0  0  0  0  0  0  0  0  0  0  0  0
   26.4130   37.2140    8.6890 N   0  0  0  0  0  0  0  0  0  0  0  0
   26.9030   38.4310    8.8210 N   0  0  0  0  0  0  0  0  0  0  0  0
   26.3950   36.3650    7.5030 C   0  0  0  0  0  0  0  0  0  0  0  0
   27.1760   37.0680    6.4290 C   0  0  0  0  0  0  0  0  0  0  0  0
   27.1240   35.0770    7.8130 C   0  0  0  0  0  0  0  0  0  0  0  0
   28.2570   36.1290    5.9980 C   0  0  0  0  0  0  0  0  0  0  0  0
   28.5040   35.2770    7.2120 C   0  0  0  0  0  0  0  0  0  0  0  0
   29.8670   25.5550   16.9770 C   0  0  0  0  0  0  0  0  0  0  0  0
   28.3450   25.7220   17.0260 C   0  0  0  0  0  0  0  0  0  0  0  0
   27.6010   24.4030   16.8850 C   0  0  0  0  0  0  0  0  0  0  0  0
   26.6590   24.1580   18.0310 C   0  0  0  0  0  0  0  0  0  0  0  0
   25.3570   23.5650   17.5030 C   0  0  0  0  0  0  0  0  0  0  0  0
   24.5300   24.6150   16.8630 N   0  0  0  0  0  0  0  0  0  0  0  0
  2  1  1  6  0  0  0
  3 23  1  6  0  0  0
  3  2  1  0  0  0  0
  4  3  1  1  0  0  0
  4  9  1  0  0  0  0
  4  7  1  0  0  0  0
  5 12  1  6  0  0  0
  5 10  1  0  0  0  0
  6  8  1  0  0  0  0
  6  5  1  0  0  0  0
  7  5  1  0  0  0  0
  8 16  1  1  0  0  0
  9 18  1  6  0  0  0
  9  8  1  0  0  0  0
 10 11  1  0  0  0  0
 13 12  2  0  0  0  0
 14 12  1  0  0  0  0
 15 14  1  0  0  0  0
 16 17  1  0  0  0  0
 19 18  1  0  0  0  0
 19 22  2  0  0  0  0
 20 18  1  0  0  0  0
 21 19  1  0  0  0  0
 24 23  1  0  0  0  0
 25 26  1  0  0  0  0
 25  2  1  0  0  0  0
 27  1  1  0  0  0  0
 28 30  2  0  0  0  0
 28 27  1  0  0  0  0
 29 27  1  0  0  0  0
 31 28  1  0  0  0  0
 32 31  1  0  0  0  0
 33 32  1  0  0  0  0
 34 33  2  0  0  0  0
 35 33  1  0  0  0  0
 36 37  1  0  0  0  0
 36 34  1  0  0  0  0
 37 35  2  0  0  0  0
 38 40  1  0  0  0  0
 38 36  1  0  0  0  0
 39 38  1  0  0  0  0
 41 39  1  0  0  0  0
 41 42  1  0  0  0  0
 42 40  1  0  0  0  0
 43 44  1  0  0  0  0
 45 44  1  0  0  0  0
 45 46  1  0  0  0  0
 47 46  1  0  0  0  0
 48 47  1  0  0  0  0
M  END
>  <REMARK>
 VINA RESULT:    -4.905      3.259      6.710
 INTER + INTRA:         -13.515
 INTER:                  -9.025
 INTRA:                  -4.490
 UNBOUND:                -5.026
 SMILES CC(=O)N[C@@H]1[C@@H](O)C[C@](O)(C(=O)O)O[C@H]1C(O)[C@H](O)CNC(=O)OCc1cn(C2CCCC2)nn1
 SMILES IDX 20 1 18 2 16 3 15 4 9 5 8 6 14 7 6 8 5 9 10 10 11 12 12 13
 SMILES IDX 13 14 7 16 4 18 2 19 1 21 3 22 17 23 19 25 21 27 22 28 23 30
 SMILES IDX 24 31 25 32 26 33 27 34 35 35 28 36 34 37 29 38 30 39 33 40
 SMILES IDX 31 41 32 42
 H PARENT 10 11 13 15 7 17 4 20 17 24 19 26 21 29
 Flexibility Score: inf
  4 active torsions:
  status: ('A' for Active; 'I' for Inactive)
    1  A    between atoms: CA   and  CB  
    2  A    between atoms: CB   and  CG  
    3  A    between atoms: CG   and  CD  
    4  A    between atoms: CD   and  CE  

>  <TORSDO>
F 15

>  <BEGIN_>
RES LYS A 131

$$$$
ligand_49_pose_12_2HRL.pdbqt
 OpenBabel07062320523D

  6  5  0  0  0  0  0  0  0  0999 V2000
   33.1930   34.6630    9.2900 C   0  0  0  0  0  0  0  0  0  0  0  0
   32.0600   35.3600   10.0340 C   0  0  0  0  0  0  0  0  0  0  0  0
   30.7050   34.7550    9.7710 C   0  0  0  0  0  0  0  0  0  0  0  0
   29.6980   35.2240   10.8100 C   0  0  0  0  0  0  0  0  0  0  0  0
   29.5240   36.7290   10.7430 C   0  0  0  0  0  0  0  0  0  0  0  0
   29.6270   37.3410   12.0970 N   0  0  0  0  0  0  0  0  0  0  0  0
  1  2  1  0  0  0  0
  3  2  1  0  0  0  0
  3  4  1  0  0  0  0
  5  4  1  0  0  0  0
  5  6  1  0  0  0  0
M  END
>  <EGIN_R>
ES LYS A 135

>  <REMARK>
  4 active torsions:
  status: ('A' for Active; 'I' for Inactive)
    5  A    between atoms: CA   and  CB  
    6  A    between atoms: CB   and  CG  
    7  A    between atoms: CG   and  CD  
    8  A    between atoms: CD   and  CE  

$$$$
