ligand_87_pose_8_2HRL.pdbqt
 OpenBabel07062320523D

 52 54  0  0  1  0  0  0  0  0999 V2000
   25.7420   27.0300   20.1670 C   0  0  0  0  0  0  0  0  0  0  0  0
   26.8740   27.1950   21.1380 C   0  0  2  0  0  0  0  0  0  0  0  0
   28.2160   27.0370   20.4340 C   0  0  2  0  0  0  0  0  0  0  0  0
   29.1460   28.1300   20.9590 C   0  0  2  0  0  0  0  0  0  0  0  0
   30.3350   29.9220   20.0410 C   0  0  2  0  0  0  0  0  0  0  0  0
   31.6670   29.4120   20.4930 C   0  0  0  0  0  0  0  0  0  0  0  0
   29.3410   29.0040   19.9660 O   0  0  0  0  0  0  0  0  0  0  0  0
   31.6570   28.0300   21.0510 C   0  0  1  0  0  0  0  0  0  0  0  0
   30.3650   27.5700   21.6380 C   0  0  1  0  0  0  0  0  0  0  0  0
   30.4890   30.4400   18.7510 O   0  0  0  0  0  0  0  0  0  0  0  0
   31.1460   29.9330   18.2150 H   0  0  0  0  0  0  0  0  0  0  0  0
   29.8520   31.0450   20.8730 C   0  0  0  0  0  0  0  0  0  0  0  0
   29.0080   31.8410   20.4110 O   0  0  0  0  0  0  0  0  0  0  0  0
   30.2840   31.2880   22.1730 O   0  0  0  0  0  0  0  0  0  0  0  0
   31.0030   30.6840   22.6010 H   0  0  0  0  0  0  0  0  0  0  0  0
   32.0760   27.1680   20.0270 O   0  0  0  0  0  0  0  0  0  0  0  0
   31.2960   26.8380   19.5210 H   0  0  0  0  0  0  0  0  0  0  0  0
   30.2770   27.6800   23.0690 N   0  0  0  0  0  0  0  0  0  0  0  0
   29.8760   26.6250   23.9210 C   0  0  0  0  0  0  0  0  0  0  0  0
   30.5200   28.5930   23.5380 H   0  0  0  0  0  0  0  0  0  0  0  0
   29.7770   26.7170   25.3940 C   0  0  0  0  0  0  0  0  0  0  0  0
   29.5930   25.5480   23.3450 O   0  0  0  0  0  0  0  0  0  0  0  0
   28.0970   27.1070   19.0560 O   0  0  0  0  0  0  0  0  0  0  0  0
   28.7560   26.4800   18.6620 H   0  0  0  0  0  0  0  0  0  0  0  0
   26.8320   26.3020   22.1710 O   0  0  0  0  0  0  0  0  0  0  0  0
   27.7520   26.1570   22.5410 H   0  0  0  0  0  0  0  0  0  0  0  0
   25.5340   28.1790   19.3540 N   0  0  0  0  0  0  0  0  0  0  0  0
   24.6700   28.2470   18.2480 C   0  0  0  0  0  0  0  0  0  0  0  0
   26.0700   29.0740   19.5880 H   0  0  0  0  0  0  0  0  0  0  0  0
   23.9930   27.2760   17.8620 O   0  0  0  0  0  0  0  0  0  0  0  0
   24.5560   29.4580   17.5400 O   0  0  0  0  0  0  0  0  0  0  0  0
   25.0940   29.5280   16.2350 C   0  0  0  0  0  0  0  0  0  0  0  0
   26.4700   30.0240   16.2690 C   0  0  0  0  0  0  0  0  0  0  0  0
   26.9080   31.2260   15.7260 C   0  0  0  0  0  0  0  0  0  0  0  0
   27.5340   29.4340   16.8110 N   0  0  0  0  0  0  0  0  0  0  0  0
   28.2230   31.3180   15.9590 N   0  0  0  0  0  0  0  0  0  0  0  0
   28.5690   30.2300   16.6120 N   0  0  0  0  0  0  0  0  0  0  0  0
   29.1170   32.3860   15.5870 C   0  0  1  0  0  0  0  0  0  0  0  0
   28.8590   33.5820   16.5030 C   0  0  0  0  0  0  0  0  0  0  0  0
   30.5240   31.8980   15.8510 C   0  0  0  0  0  0  0  0  0  0  0  0
   29.9490   34.5960   16.2840 C   0  0  1  0  0  0  0  0  0  0  0  0
   31.4940   33.0340   15.8140 C   0  0  2  0  0  0  0  0  0  0  0  0
   31.2150   34.0700   16.7580 N   0  0  0  0  0  0  0  0  0  0  0  0
   30.2200   34.7580   14.8000 C   0  0  0  0  0  0  0  0  0  0  0  0
   31.2850   33.7560   14.4770 C   0  0  0  0  0  0  0  0  0  0  0  0
   31.1630   33.6230   18.1200 C   0  0  0  0  0  0  0  0  0  0  0  0
   29.8670   25.5550   16.9770 C   0  0  0  0  0  0  0  0  0  0  0  0
   28.3450   25.7220   17.0260 C   0  0  0  0  0  0  0  0  0  0  0  0
   27.6010   24.4060   16.8630 C   0  0  0  0  0  0  0  0  0  0  0  0
   26.1830   24.4920   17.3560 C   0  0  0  0  0  0  0  0  0  0  0  0
   26.0370   23.6700   18.6320 C   0  0  0  0  0  0  0  0  0  0  0  0
   24.6300   23.2430   18.8170 N   0  0  0  0  0  0  0  0  0  0  0  0
  2  1  1  6  0  0  0
  2 25  1  0  0  0  0
  3 23  1  6  0  0  0
  3  2  1  0  0  0  0
  4  3  1  6  0  0  0
  4  9  1  0  0  0  0
  5 10  1  6  0  0  0
  5  6  1  0  0  0  0
  5 12  1  0  0  0  0
  6  8  1  0  0  0  0
  7  5  1  0  0  0  0
  7  4  1  0  0  0  0
  8 16  1  6  0  0  0
  8  9  1  0  0  0  0
  9 18  1  1  0  0  0
 11 10  1  0  0  0  0
 12 14  1  0  0  0  0
 13 12  2  0  0  0  0
 14 15  1  0  0  0  0
 17 16  1  0  0  0  0
 18 20  1  0  0  0  0
 18 19  1  0  0  0  0
 19 21  1  0  0  0  0
 22 19  2  0  0  0  0
 24 23  1  0  0  0  0
 25 26  1  0  0  0  0
 27 29  1  0  0  0  0
 27  1  1  0  0  0  0
 28 27  1  0  0  0  0
 30 28  2  0  0  0  0
 31 28  1  0  0  0  0
 32 33  1  0  0  0  0
 32 31  1  0  0  0  0
 33 35  1  0  0  0  0
 34 36  1  0  0  0  0
 34 33  2  0  0  0  0
 36 37  1  0  0  0  0
 37 35  2  0  0  0  0
 38 40  1  1  0  0  0
 38 36  1  0  0  0  0
 38 39  1  0  0  0  0
 41 44  1  6  0  0  0
 41 39  1  0  0  0  0
 41 43  1  0  0  0  0
 42 45  1  6  0  0  0
 42 40  1  0  0  0  0
 42 43  1  0  0  0  0
 43 46  1  0  0  0  0
 45 44  1  0  0  0  0
 47 48  1  0  0  0  0
 49 48  1  0  0  0  0
 49 50  1  0  0  0  0
 50 51  1  0  0  0  0
 51 52  1  0  0  0  0
M  END
>  <REMARK>
 VINA RESULT:    -5.358      1.864      2.675
 INTER + INTRA:         -14.775
 INTER:                  -8.761
 INTRA:                  -6.014
 UNBOUND:                -5.502
 SMILES CC(=O)N[C@@H]1[C@@H](O)C[C@](O)(C(=O)O)O[C@H]1C(O)[C@H](O)CNC(=O)OCc1cn([C@@H]2C[C@H]3CC[C@@H](C2)N3C)nn1
 SMILES IDX 20 1 18 2 16 3 15 4 9 5 8 6 14 7 6 8 5 9 10 10 11 12 12 13
 SMILES IDX 13 14 7 16 4 18 2 19 1 21 3 22 17 23 19 25 21 27 22 28 23 30
 SMILES IDX 24 31 25 32 26 33 27 34 39 35 28 36 38 37 29 38 35 39 30 40
 SMILES IDX 34 41 31 42 36 43 33 44 32 45 37 46
 H PARENT 10 11 13 15 7 17 4 20 17 24 19 26 21 29
 Flexibility Score: inf
  4 active torsions:
  status: ('A' for Active; 'I' for Inactive)
    1  A    between atoms: CA   and  CB  
    2  A    between atoms: CB   and  CG  
    3  A    between atoms: CG   and  CD  
    4  A    between atoms: CD   and  CE  

>  <TORSDO>
F 15

>  <BEGIN_>
RES LYS A 131

$$$$
ligand_87_pose_8_2HRL.pdbqt
 OpenBabel07062320523D

  6  5  0  0  0  0  0  0  0  0999 V2000
   33.1930   34.6630    9.2900 C   0  0  0  0  0  0  0  0  0  0  0  0
   32.0600   35.3600   10.0340 C   0  0  0  0  0  0  0  0  0  0  0  0
   30.7080   34.7390    9.7920 C   0  0  0  0  0  0  0  0  0  0  0  0
   30.4880   34.4950    8.3070 C   0  0  0  0  0  0  0  0  0  0  0  0
   29.0940   34.9290    7.8970 C   0  0  0  0  0  0  0  0  0  0  0  0
   28.9870   36.4140    7.8480 N   0  0  0  0  0  0  0  0  0  0  0  0
  1  2  1  0  0  0  0
  3  2  1  0  0  0  0
  4  3  1  0  0  0  0
  5  4  1  0  0  0  0
  6  5  1  0  0  0  0
M  END
>  <EGIN_R>
ES LYS A 135

>  <REMARK>
  4 active torsions:
  status: ('A' for Active; 'I' for Inactive)
    5  A    between atoms: CA   and  CB  
    6  A    between atoms: CB   and  CG  
    7  A    between atoms: CG   and  CD  
    8  A    between atoms: CD   and  CE  

$$$$
