ligand_75_pose_9_2HRL.pdbqt
 OpenBabel07062320523D

 55 56  0  0  1  0  0  0  0  0999 V2000
   21.0450   39.9020    7.9450 N   0  0  0  0  0  0  0  0  0  0  0  0
   20.6510   39.0110    8.9700 C   0  0  0  0  0  0  0  0  0  0  0  0
   20.9470   39.1890   10.1700 O   0  0  0  0  0  0  0  0  0  0  0  0
   20.7350   39.6300    6.9490 H   0  0  0  0  0  0  0  0  0  0  0  0
   21.8020   41.1080    8.1140 C   0  0  0  0  0  0  0  0  0  0  0  0
   23.1470   40.9960    7.4710 C   0  0  2  0  0  0  0  0  0  0  0  0
   24.2490   40.5680    8.4200 C   0  0  2  0  0  0  0  0  0  0  0  0
   25.5470   40.4430    7.7090 C   0  0  2  0  0  0  0  0  0  0  0  0
   26.7520   39.8160    5.8420 C   0  0  2  0  0  0  0  0  0  0  0  0
   27.8780   40.4440    6.6160 C   0  0  0  0  0  0  0  0  0  0  0  0
   25.5130   40.0110    6.4220 O   0  0  0  0  0  0  0  0  0  0  0  0
   27.9260   40.1060    8.0600 C   0  0  1  0  0  0  0  0  0  0  0  0
   26.5650   39.6390    8.5150 C   0  0  1  0  0  0  0  0  0  0  0  0
   27.0420   38.4710    5.6160 O   0  0  0  0  0  0  0  0  0  0  0  0
   27.9970   38.3130    5.4500 H   0  0  0  0  0  0  0  0  0  0  0  0
   26.7160   40.4800    4.5100 C   0  0  0  0  0  0  0  0  0  0  0  0
   27.8010   40.6170    3.8500 O   0  0  0  0  0  0  0  0  0  0  0  0
   25.5390   40.9600    3.9520 O   0  0  0  0  0  0  0  0  0  0  0  0
   24.8800   40.3720    3.4820 H   0  0  0  0  0  0  0  0  0  0  0  0
   28.9220   39.1890    8.3850 O   0  0  0  0  0  0  0  0  0  0  0  0
   28.5210   38.3300    8.5970 H   0  0  0  0  0  0  0  0  0  0  0  0
   26.3770   39.7630    9.9270 N   0  0  0  0  0  0  0  0  0  0  0  0
   26.8660   38.8030   10.8510 C   0  0  0  0  0  0  0  0  0  0  0  0
   25.8560   40.5900   10.3450 H   0  0  0  0  0  0  0  0  0  0  0  0
   26.6480   38.9740   12.3000 C   0  0  0  0  0  0  0  0  0  0  0  0
   27.4940   37.7910   10.4530 O   0  0  0  0  0  0  0  0  0  0  0  0
   23.8880   39.4600    9.1810 O   0  0  0  0  0  0  0  0  0  0  0  0
   23.4910   39.7860   10.0180 H   0  0  0  0  0  0  0  0  0  0  0  0
   23.5310   42.1910    6.8580 O   0  0  0  0  0  0  0  0  0  0  0  0
   23.4890   42.0640    5.8700 H   0  0  0  0  0  0  0  0  0  0  0  0
   19.8930   37.8580    8.6760 O   0  0  0  0  0  0  0  0  0  0  0  0
   20.4490   36.8750    7.8620 C   0  0  0  0  0  0  0  0  0  0  0  0
   21.9100   36.7190    8.0610 C   0  0  0  0  0  0  0  0  0  0  0  0
   22.6090   35.9700    8.9760 C   0  0  0  0  0  0  0  0  0  0  0  0
   22.8470   37.3350    7.3200 N   0  0  0  0  0  0  0  0  0  0  0  0
   23.9400   36.1390    8.7800 N   0  0  0  0  0  0  0  0  0  0  0  0
   24.0520   36.9750    7.7640 N   0  0  0  0  0  0  0  0  0  0  0  0
   24.9720   35.5140    9.5450 C   0  0  0  0  0  0  0  0  0  0  0  0
   26.1230   35.0640    8.9530 C   0  0  0  0  0  0  0  0  0  0  0  0
   24.8240   35.3510   10.9030 C   0  0  0  0  0  0  0  0  0  0  0  0
   27.1550   34.4390    9.7080 C   0  0  0  0  0  0  0  0  0  0  0  0
   25.7740   34.7610   11.6820 C   0  0  0  0  0  0  0  0  0  0  0  0
   26.9480   34.3070   11.0550 C   0  0  0  0  0  0  0  0  0  0  0  0
   28.3420   34.0320    9.0420 C   0  0  0  0  0  0  0  0  0  0  0  0
   29.3050   34.5480    8.3830 C   0  0  0  0  0  0  0  0  0  0  0  0
   29.6790   35.8440    7.9800 C   0  0  0  0  0  0  0  0  0  0  0  0
   28.8710   36.4920    7.1420 O   0  0  0  0  0  0  0  0  0  0  0  0
   30.7650   36.6280    8.2810 O   0  0  0  0  0  0  0  0  0  0  0  0
   31.2650   37.1740    7.5980 H   0  0  0  0  0  0  0  0  0  0  0  0
   29.8670   25.5550   16.9770 C   0  0  0  0  0  0  0  0  0  0  0  0
   28.3450   25.7220   17.0260 C   0  0  0  0  0  0  0  0  0  0  0  0
   27.6020   24.4000   16.9110 C   0  0  0  0  0  0  0  0  0  0  0  0
   26.6200   24.2030   18.0330 C   0  0  0  0  0  0  0  0  0  0  0  0
   26.0180   25.5490   18.4250 C   0  0  0  0  0  0  0  0  0  0  0  0
   24.7120   25.7480   17.7530 N   0  0  0  0  0  0  0  0  0  0  0  0
  1  5  1  0  0  0  0
  1  2  1  0  0  0  0
  2  3  2  0  0  0  0
  4  1  1  0  0  0  0
  6  5  1  1  0  0  0
  6  7  1  0  0  0  0
  7 27  1  6  0  0  0
  8  7  1  1  0  0  0
  8 13  1  0  0  0  0
  9 16  1  6  0  0  0
  9 11  1  0  0  0  0
  9 10  1  0  0  0  0
 10 12  1  0  0  0  0
 11  8  1  0  0  0  0
 12 20  1  6  0  0  0
 12 13  1  0  0  0  0
 13 22  1  1  0  0  0
 14  9  1  0  0  0  0
 15 14  1  0  0  0  0
 17 16  2  0  0  0  0
 18 16  1  0  0  0  0
 19 18  1  0  0  0  0
 20 21  1  0  0  0  0
 22 24  1  0  0  0  0
 22 23  1  0  0  0  0
 23 25  1  0  0  0  0
 26 23  2  0  0  0  0
 27 28  1  0  0  0  0
 29  6  1  0  0  0  0
 30 29  1  0  0  0  0
 31  2  1  0  0  0  0
 32 33  1  0  0  0  0
 32 31  1  0  0  0  0
 33 34  2  0  0  0  0
 35 37  2  0  0  0  0
 35 33  1  0  0  0  0
 36 34  1  0  0  0  0
 36 38  1  0  0  0  0
 37 36  1  0  0  0  0
 38 40  1  0  0  0  0
 39 38  2  0  0  0  0
 39 41  1  0  0  0  0
 40 42  2  0  0  0  0
 41 43  2  0  0  0  0
 43 42  1  0  0  0  0
 44 41  1  0  0  0  0
 45 44  2  0  0  0  0
 46 48  1  0  0  0  0
 46 45  1  0  0  0  0
 47 46  2  0  0  0  0
 49 48  1  0  0  0  0
 50 51  1  0  0  0  0
 52 51  1  0  0  0  0
 52 53  1  0  0  0  0
 53 54  1  0  0  0  0
 55 54  1  0  0  0  0
M  END
>  <REMARK>
 VINA RESULT:    -5.018      2.773      5.093
 INTER + INTRA:         -15.735
 INTER:                  -9.446
 INTRA:                  -6.289
 UNBOUND:                -6.317
 SMILES CC(=O)N[C@@H]1[C@@H](O)C[C@](O)(C(=O)O)O[C@H]1C(O)[C@H](O)CNC(=O)OCc1cn(-c2cccc(C=CC(=O)O)c2)nn1
 SMILES IDX 21 1 22 2 23 3 20 5 18 6 16 7 15 8 9 9 8 10 14 11 6 12 5 13
 SMILES IDX 10 14 11 16 12 17 13 18 7 20 4 22 2 23 1 25 3 26 17 27 19 29
 SMILES IDX 24 31 25 32 26 33 27 34 41 35 28 36 40 37 29 38 39 39 30 40
 SMILES IDX 33 41 31 42 32 43 34 44 35 45 36 46 37 47 38 48
 H PARENT 21 4 10 15 13 19 7 21 4 24 17 28 19 30 38 49
 Flexibility Score: inf
  4 active torsions:
  status: ('A' for Active; 'I' for Inactive)
    1  A    between atoms: CA   and  CB  
    2  A    between atoms: CB   and  CG  
    3  A    between atoms: CG   and  CD  
    4  A    between atoms: CD   and  CE  

>  <TORSDO>
F 18

>  <BEGIN_>
RES LYS A 131

$$$$
ligand_75_pose_9_2HRL.pdbqt
 OpenBabel07062320523D

  6  5  0  0  0  0  0  0  0  0999 V2000
   33.1930   34.6630    9.2900 C   0  0  0  0  0  0  0  0  0  0  0  0
   32.0600   35.3600   10.0340 C   0  0  0  0  0  0  0  0  0  0  0  0
   32.1690   35.2540   11.5330 C   0  0  0  0  0  0  0  0  0  0  0  0
   32.2510   36.6360   12.1640 C   0  0  0  0  0  0  0  0  0  0  0  0
   31.3670   36.7130   13.3940 C   0  0  0  0  0  0  0  0  0  0  0  0
   32.1600   37.0710   14.6030 N   0  0  0  0  0  0  0  0  0  0  0  0
  1  2  1  0  0  0  0
  2  3  1  0  0  0  0
  3  4  1  0  0  0  0
  4  5  1  0  0  0  0
  5  6  1  0  0  0  0
M  END
>  <EGIN_R>
ES LYS A 135

>  <REMARK>
  4 active torsions:
  status: ('A' for Active; 'I' for Inactive)
    5  A    between atoms: CA   and  CB  
    6  A    between atoms: CB   and  CG  
    7  A    between atoms: CG   and  CD  
    8  A    between atoms: CD   and  CE  

$$$$
