ligand_60_pose_5_2HRL.pdbqt
 OpenBabel07062320523D

 55 56  0  0  1  0  0  0  0  0999 V2000
   24.4400   30.0780   18.5590 N   0  0  0  0  0  0  0  0  0  0  0  0
   24.8630   28.7420   18.5910 C   0  0  0  0  0  0  0  0  0  0  0  0
   24.0400   27.8120   18.6050 O   0  0  0  0  0  0  0  0  0  0  0  0
   25.1900   30.8220   18.5460 H   0  0  0  0  0  0  0  0  0  0  0  0
   23.0670   30.4430   18.5440 C   0  0  0  0  0  0  0  0  0  0  0  0
   22.6110   31.0030   17.2020 C   0  0  2  0  0  0  0  0  0  0  0  0
   21.8900   29.9170   16.4570 C   0  0  1  0  0  0  0  0  0  0  0  0
   22.1980   29.8490   15.0100 C   0  0  2  0  0  0  0  0  0  0  0  0
   22.4630   31.2770   13.1870 C   0  0  2  0  0  0  0  0  0  0  0  0
   23.0160   29.9910   12.6240 C   0  0  0  0  0  0  0  0  0  0  0  0
   22.0230   31.1540   14.4760 O   0  0  0  0  0  0  0  0  0  0  0  0
   22.1100   28.8170   12.8310 C   0  0  1  0  0  0  0  0  0  0  0  0
   21.3870   28.9550   14.1480 C   0  0  1  0  0  0  0  0  0  0  0  0
   21.4680   31.8170   12.3370 O   0  0  0  0  0  0  0  0  0  0  0  0
   21.3070   31.2200   11.5640 H   0  0  0  0  0  0  0  0  0  0  0  0
   23.5720   32.2680   13.1740 C   0  0  0  0  0  0  0  0  0  0  0  0
   23.4450   33.2890   12.4520 O   0  0  0  0  0  0  0  0  0  0  0  0
   24.7370   32.1360   13.9070 O   0  0  0  0  0  0  0  0  0  0  0  0
   25.6000   32.5800   13.6010 H   0  0  0  0  0  0  0  0  0  0  0  0
   21.2460   28.7350   11.7460 O   0  0  0  0  0  0  0  0  0  0  0  0
   21.7390   28.2570   11.0310 H   0  0  0  0  0  0  0  0  0  0  0  0
   20.9390   27.7280   14.6870 N   0  0  0  0  0  0  0  0  0  0  0  0
   19.6820   27.1680   14.3630 C   0  0  0  0  0  0  0  0  0  0  0  0
   21.5450   27.1850   15.3330 H   0  0  0  0  0  0  0  0  0  0  0  0
   19.2190   25.8610   14.9460 C   0  0  0  0  0  0  0  0  0  0  0  0
   18.9540   27.7930   13.5710 O   0  0  0  0  0  0  0  0  0  0  0  0
   21.7300   28.7340   17.1270 O   0  0  0  0  0  0  0  0  0  0  0  0
   21.6620   28.9160   18.0910 H   0  0  0  0  0  0  0  0  0  0  0  0
   23.6890   31.5510   16.5600 O   0  0  0  0  0  0  0  0  0  0  0  0
   23.6640   32.5450   16.6290 H   0  0  0  0  0  0  0  0  0  0  0  0
   26.2200   28.3820   18.6100 O   0  0  0  0  0  0  0  0  0  0  0  0
   26.9170   28.1420   17.4280 C   0  0  0  0  0  0  0  0  0  0  0  0
   27.2810   29.3940   16.7290 C   0  0  0  0  0  0  0  0  0  0  0  0
   28.4900   30.0420   16.6450 C   0  0  0  0  0  0  0  0  0  0  0  0
   26.4140   30.1510   16.0100 N   0  0  0  0  0  0  0  0  0  0  0  0
   28.3510   31.1520   15.8970 N   0  0  0  0  0  0  0  0  0  0  0  0
   27.0850   31.1840   15.5320 N   0  0  0  0  0  0  0  0  0  0  0  0
   29.3360   32.1190   15.5470 C   0  0  0  0  0  0  0  0  0  0  0  0
   30.6790   31.8970   15.7600 C   0  0  0  0  0  0  0  0  0  0  0  0
   28.9820   33.3290   14.9790 C   0  0  0  0  0  0  0  0  0  0  0  0
   31.6430   32.8230   15.4270 C   0  0  0  0  0  0  0  0  0  0  0  0
   29.9440   34.2580   14.6440 C   0  0  0  0  0  0  0  0  0  0  0  0
   31.2910   34.0480   14.8520 C   0  0  0  0  0  0  0  0  0  0  0  0
   32.5190   35.2210   14.4330 S   0  0  0  0  0  0  0  0  0  0  0  0
   31.8250   36.5380   14.2330 O   0  0  0  0  0  0  0  0  0  0  0  0
   33.4420   35.3930   15.6170 O   0  0  0  0  0  0  0  0  0  0  0  0
   33.4000   34.7880   13.0300 N   0  0  0  0  0  0  0  0  0  0  0  0
   34.0380   35.5090   12.6750 H   0  0  0  0  0  0  0  0  0  0  0  0
   33.8630   33.8560   13.1240 H   0  0  0  0  0  0  0  0  0  0  0  0
   29.8670   25.5550   16.9770 C   0  0  0  0  0  0  0  0  0  0  0  0
   28.3450   25.7220   17.0260 C   0  0  0  0  0  0  0  0  0  0  0  0
   27.6000   24.4070   16.8530 C   0  0  0  0  0  0  0  0  0  0  0  0
   26.4760   24.2590   17.8400 C   0  0  0  0  0  0  0  0  0  0  0  0
   25.1540   24.6020   17.1600 C   0  0  0  0  0  0  0  0  0  0  0  0
   24.1360   23.5650   17.4530 N   0  0  0  0  0  0  0  0  0  0  0  0
  1  2  1  0  0  0  0
  2  3  2  0  0  0  0
  2 31  1  0  0  0  0
  4  1  1  0  0  0  0
  5  1  1  0  0  0  0
  6  5  1  1  0  0  0
  7 27  1  1  0  0  0
  7  6  1  0  0  0  0
  8  7  1  1  0  0  0
  9 14  1  6  0  0  0
  9 11  1  0  0  0  0
 10 12  1  0  0  0  0
 10  9  1  0  0  0  0
 11  8  1  0  0  0  0
 12 20  1  6  0  0  0
 12 13  1  0  0  0  0
 13 22  1  1  0  0  0
 13  8  1  0  0  0  0
 15 14  1  0  0  0  0
 16  9  1  0  0  0  0
 16 18  1  0  0  0  0
 17 16  2  0  0  0  0
 19 18  1  0  0  0  0
 21 20  1  0  0  0  0
 22 24  1  0  0  0  0
 23 22  1  0  0  0  0
 23 25  1  0  0  0  0
 26 23  2  0  0  0  0
 27 28  1  0  0  0  0
 29 30  1  0  0  0  0
 29  6  1  0  0  0  0
 32 31  1  0  0  0  0
 33 32  1  0  0  0  0
 34 33  2  0  0  0  0
 35 33  1  0  0  0  0
 36 34  1  0  0  0  0
 37 36  1  0  0  0  0
 37 35  2  0  0  0  0
 38 39  1  0  0  0  0
 38 36  1  0  0  0  0
 40 38  2  0  0  0  0
 41 39  2  0  0  0  0
 42 43  2  0  0  0  0
 42 40  1  0  0  0  0
 43 41  1  0  0  0  0
 44 43  1  0  0  0  0
 44 46  2  0  0  0  0
 45 44  2  0  0  0  0
 47 49  1  0  0  0  0
 47 44  1  0  0  0  0
 48 47  1  0  0  0  0
 50 51  1  0  0  0  0
 52 51  1  0  0  0  0
 52 53  1  0  0  0  0
 54 55  1  0  0  0  0
 54 53  1  0  0  0  0
M  END
>  <REMARK>
 VINA RESULT:    -5.016      4.916      9.218
 INTER + INTRA:         -15.084
 INTER:                  -8.680
 INTRA:                  -6.404
 UNBOUND:                -5.964
 SMILES CC(=O)N[C@@H]1[C@@H](O)C[C@](O)(C(=O)O)O[C@H]1C(O)[C@H](O)CNC(=O)OCc1cn(-c2ccc(S(N)(=O)=O)cc2)nn1
 SMILES IDX 21 1 22 2 23 3 20 5 18 6 16 7 15 8 9 9 8 10 14 11 6 12 5 13
 SMILES IDX 10 14 11 16 12 17 13 18 7 20 4 22 2 23 1 25 3 26 17 27 19 29
 SMILES IDX 24 31 25 32 26 33 27 34 40 35 28 36 39 37 29 38 30 39 38 40
 SMILES IDX 31 41 37 42 32 43 33 44 35 45 36 46 34 47
 H PARENT 21 4 10 15 13 19 7 21 4 24 17 28 19 30 34 48 34 49
 Flexibility Score: inf
  4 active torsions:
  status: ('A' for Active; 'I' for Inactive)
    1  A    between atoms: CA   and  CB  
    2  A    between atoms: CB   and  CG  
    3  A    between atoms: CG   and  CD  
    4  A    between atoms: CD   and  CE  

>  <TORSDO>
F 17

>  <BEGIN_>
RES LYS A 131

$$$$
ligand_60_pose_5_2HRL.pdbqt
 OpenBabel07062320523D

  6  5  0  0  0  0  0  0  0  0999 V2000
   33.1930   34.6630    9.2900 C   0  0  0  0  0  0  0  0  0  0  0  0
   32.0600   35.3600   10.0340 C   0  0  0  0  0  0  0  0  0  0  0  0
   30.7080   34.7420    9.7880 C   0  0  0  0  0  0  0  0  0  0  0  0
   30.4870   34.5090    8.3010 C   0  0  0  0  0  0  0  0  0  0  0  0
   29.0640   34.8640    7.9120 C   0  0  0  0  0  0  0  0  0  0  0  0
   28.1830   34.9380    9.1100 N   0  0  0  0  0  0  0  0  0  0  0  0
  1  2  1  0  0  0  0
  3  2  1  0  0  0  0
  4  3  1  0  0  0  0
  5  4  1  0  0  0  0
  5  6  1  0  0  0  0
M  END
>  <EGIN_R>
ES LYS A 135

>  <REMARK>
  4 active torsions:
  status: ('A' for Active; 'I' for Inactive)
    5  A    between atoms: CA   and  CB  
    6  A    between atoms: CB   and  CG  
    7  A    between atoms: CG   and  CD  
    8  A    between atoms: CD   and  CE  

$$$$
