ligand_88_pose_6_2HRL.pdbqt
 OpenBabel07062320523D

 54 55  0  0  1  0  0  0  0  0999 V2000
   25.4620   29.6730   18.2940 N   0  0  0  0  0  0  0  0  0  0  0  0
   25.7880   30.9280   18.8810 C   0  0  0  0  0  0  0  0  0  0  0  0
   26.2650   30.9500   20.0390 O   0  0  0  0  0  0  0  0  0  0  0  0
   25.0690   29.6820   17.3370 H   0  0  0  0  0  0  0  0  0  0  0  0
   25.6590   28.4300   18.9890 C   0  0  0  0  0  0  0  0  0  0  0  0
   26.9830   27.8160   18.6350 C   0  0  2  0  0  0  0  0  0  0  0  0
   27.5450   26.9780   19.7620 C   0  0  1  0  0  0  0  0  0  0  0  0
   28.2460   27.8980   20.7790 C   0  0  2  0  0  0  0  0  0  0  0  0
   30.5780   28.1020   21.0210 C   0  0  2  0  0  0  0  0  0  0  0  0
   30.2840   28.3760   22.5040 C   0  0  0  0  0  0  0  0  0  0  0  0
   29.4500   28.1970   20.2780 O   0  0  0  0  0  0  0  0  0  0  0  0
   29.4050   27.2030   22.9100 C   0  0  1  0  0  0  0  0  0  0  0  0
   28.1270   27.3410   22.1340 C   0  0  1  0  0  0  0  0  0  0  0  0
   31.2000   26.8700   20.9870 O   0  0  0  0  0  0  0  0  0  0  0  0
   30.7680   26.1890   21.5580 H   0  0  0  0  0  0  0  0  0  0  0  0
   31.5360   29.1230   20.5270 C   0  0  0  0  0  0  0  0  0  0  0  0
   31.0890   30.1190   19.9050 O   0  0  0  0  0  0  0  0  0  0  0  0
   32.9090   29.0150   20.7280 O   0  0  0  0  0  0  0  0  0  0  0  0
   33.2520   29.3840   21.6260 H   0  0  0  0  0  0  0  0  0  0  0  0
   30.0490   25.9930   22.6600 O   0  0  0  0  0  0  0  0  0  0  0  0
   30.9400   26.0430   23.0640 H   0  0  0  0  0  0  0  0  0  0  0  0
   27.1960   28.0840   22.9820 N   0  0  0  0  0  0  0  0  0  0  0  0
   25.9770   27.5420   23.4590 C   0  0  0  0  0  0  0  0  0  0  0  0
   27.4060   29.0790   23.2770 H   0  0  0  0  0  0  0  0  0  0  0  0
   25.0560   28.3400   24.3240 C   0  0  0  0  0  0  0  0  0  0  0  0
   25.6590   26.3660   23.1500 O   0  0  0  0  0  0  0  0  0  0  0  0
   26.6280   26.1460   20.3540 O   0  0  0  0  0  0  0  0  0  0  0  0
   26.0810   26.6020   21.0270 H   0  0  0  0  0  0  0  0  0  0  0  0
   27.8470   28.7810   18.1660 O   0  0  0  0  0  0  0  0  0  0  0  0
   27.4160   29.5070   17.6770 H   0  0  0  0  0  0  0  0  0  0  0  0
   25.5870   32.0990   18.1940 O   0  0  0  0  0  0  0  0  0  0  0  0
   25.7500   32.1820   16.7890 C   0  0  0  0  0  0  0  0  0  0  0  0
   27.0470   31.5560   16.4220 C   0  0  0  0  0  0  0  0  0  0  0  0
   28.3170   32.0140   16.7520 C   0  0  0  0  0  0  0  0  0  0  0  0
   27.2800   30.4380   15.7110 N   0  0  0  0  0  0  0  0  0  0  0  0
   29.2360   31.1810   16.2420 N   0  0  0  0  0  0  0  0  0  0  0  0
   28.5690   30.2080   15.5980 N   0  0  0  0  0  0  0  0  0  0  0  0
   30.6650   31.2740   16.3430 C   0  0  0  0  0  0  0  0  0  0  0  0
   31.1570   32.6760   16.3720 C   0  0  0  0  0  0  0  0  0  0  0  0
   31.4500   33.2880   15.1700 C   0  0  0  0  0  0  0  0  0  0  0  0
   31.3340   33.3890   17.5340 C   0  0  0  0  0  0  0  0  0  0  0  0
   31.9130   34.5830   15.0810 C   0  0  0  0  0  0  0  0  0  0  0  0
   31.8030   34.7050   17.4710 C   0  0  0  0  0  0  0  0  0  0  0  0
   32.3070   35.4020   13.4120 Br  0  0  0  0  0  0  0  0  0  0  0  0
   32.0880   35.2910   16.2620 C   0  0  0  0  0  0  0  0  0  0  0  0
   32.0220   35.6280   19.1400 Br  0  0  0  0  0  0  0  0  0  0  0  0
   31.0490   32.8040   18.7530 O   0  0  0  0  0  0  0  0  0  0  0  0
   30.8700   31.8100   18.7940 H   0  0  0  0  0  0  0  0  0  0  0  0
   29.8670   25.5550   16.9770 C   0  0  0  0  0  0  0  0  0  0  0  0
   28.3450   25.7220   17.0260 C   0  0  0  0  0  0  0  0  0  0  0  0
   27.5990   24.4590   16.6250 C   0  0  0  0  0  0  0  0  0  0  0  0
   26.7540   23.9200   17.7460 C   0  0  0  0  0  0  0  0  0  0  0  0
   25.3580   24.5290   17.6700 C   0  0  0  0  0  0  0  0  0  0  0  0
   24.4280   23.6100   16.9720 N   0  0  0  0  0  0  0  0  0  0  0  0
  1  2  1  0  0  0  0
  1  5  1  0  0  0  0
  2  3  2  0  0  0  0
  4  1  1  0  0  0  0
  6  5  1  1  0  0  0
  6  7  1  0  0  0  0
  7 27  1  1  0  0  0
  8  7  1  6  0  0  0
  8 13  1  0  0  0  0
  9 16  1  6  0  0  0
  9 10  1  0  0  0  0
 10 12  1  0  0  0  0
 11  8  1  0  0  0  0
 11  9  1  0  0  0  0
 12 20  1  6  0  0  0
 13 12  1  0  0  0  0
 13 22  1  1  0  0  0
 14  9  1  0  0  0  0
 14 15  1  0  0  0  0
 16 18  1  0  0  0  0
 17 16  2  0  0  0  0
 18 19  1  0  0  0  0
 20 21  1  0  0  0  0
 22 24  1  0  0  0  0
 22 23  1  0  0  0  0
 23 25  1  0  0  0  0
 26 23  2  0  0  0  0
 27 28  1  0  0  0  0
 29  6  1  0  0  0  0
 30 29  1  0  0  0  0
 31  2  1  0  0  0  0
 32 31  1  0  0  0  0
 33 34  2  0  0  0  0
 33 32  1  0  0  0  0
 35 33  1  0  0  0  0
 36 38  1  0  0  0  0
 36 34  1  0  0  0  0
 37 35  2  0  0  0  0
 37 36  1  0  0  0  0
 38 39  1  0  0  0  0
 39 41  2  0  0  0  0
 40 39  1  0  0  0  0
 41 47  1  0  0  0  0
 42 40  2  0  0  0  0
 42 45  1  0  0  0  0
 43 41  1  0  0  0  0
 43 46  1  0  0  0  0
 44 42  1  0  0  0  0
 45 43  2  0  0  0  0
 47 48  1  0  0  0  0
 49 50  1  0  0  0  0
 51 50  1  0  0  0  0
 51 52  1  0  0  0  0
 53 52  1  0  0  0  0
 54 53  1  0  0  0  0
M  END
>  <REMARK>
 VINA RESULT:    -5.192      1.719      2.450
 INTER + INTRA:         -15.235
 INTER:                  -9.269
 INTRA:                  -5.966
 UNBOUND:                -5.794
 SMILES CC(=O)N[C@@H]1[C@@H](O)C[C@](O)(C(=O)O)O[C@H]1C(O)[C@H](O)CNC(=O)OCc1cn(Cc2cc(Br)cc(Br)c2O)nn1
 SMILES IDX 21 1 22 2 23 3 20 5 18 6 16 7 15 8 9 9 8 10 14 11 6 12 5 13
 SMILES IDX 10 14 11 16 12 17 13 18 7 20 4 22 2 23 1 25 3 26 17 27 19 29
 SMILES IDX 24 31 25 32 26 33 27 34 40 35 28 36 39 37 29 38 30 39 31 40
 SMILES IDX 37 41 32 42 35 43 33 44 34 45 36 46 38 47
 H PARENT 21 4 10 15 13 19 7 21 4 24 17 28 19 30 38 48
 Flexibility Score: inf
  4 active torsions:
  status: ('A' for Active; 'I' for Inactive)
    1  A    between atoms: CA   and  CB  
    2  A    between atoms: CB   and  CG  
    3  A    between atoms: CG   and  CD  
    4  A    between atoms: CD   and  CE  

>  <TORSDO>
F 17

>  <BEGIN_>
RES LYS A 131

$$$$
ligand_88_pose_6_2HRL.pdbqt
 OpenBabel07062320523D

  6  5  0  0  0  0  0  0  0  0999 V2000
   33.1930   34.6630    9.2900 C   0  0  0  0  0  0  0  0  0  0  0  0
   32.0600   35.3600   10.0340 C   0  0  0  0  0  0  0  0  0  0  0  0
   30.7890   35.4690    9.2310 C   0  0  0  0  0  0  0  0  0  0  0  0
   29.9850   34.1810    9.3220 C   0  0  0  0  0  0  0  0  0  0  0  0
   28.7210   34.3980   10.1320 C   0  0  0  0  0  0  0  0  0  0  0  0
   27.5560   33.7220    9.4980 N   0  0  0  0  0  0  0  0  0  0  0  0
  1  2  1  0  0  0  0
  3  4  1  0  0  0  0
  3  2  1  0  0  0  0
  4  5  1  0  0  0  0
  6  5  1  0  0  0  0
M  END
>  <EGIN_R>
ES LYS A 135

>  <REMARK>
  4 active torsions:
  status: ('A' for Active; 'I' for Inactive)
    5  A    between atoms: CA   and  CB  
    6  A    between atoms: CB   and  CG  
    7  A    between atoms: CG   and  CD  
    8  A    between atoms: CD   and  CE  

$$$$
