ligand_66_pose_13_2HRL.pdbqt
 OpenBabel07062320523D

 52 53  0  0  1  0  0  0  0  0999 V2000
   28.4340   38.9460   12.3900 N   0  0  0  0  0  0  0  0  0  0  0  0
   28.2800   38.8310   13.7760 C   0  0  0  0  0  0  0  0  0  0  0  0
   27.1860   38.4900   14.2710 O   0  0  0  0  0  0  0  0  0  0  0  0
   29.3970   39.2370   12.0430 H   0  0  0  0  0  0  0  0  0  0  0  0
   27.3830   38.6950   11.4410 C   0  0  0  0  0  0  0  0  0  0  0  0
   27.6680   37.5240   10.5430 C   0  0  2  0  0  0  0  0  0  0  0  0
   26.5500   37.0850    9.6810 C   0  0  2  0  0  0  0  0  0  0  0  0
   26.6050   37.5950    8.2310 C   0  0  2  0  0  0  0  0  0  0  0  0
   27.9850   38.6640    6.7680 C   0  0  2  0  0  0  0  0  0  0  0  0
   27.0380   39.8420    6.6730 C   0  0  0  0  0  0  0  0  0  0  0  0
   27.8220   38.1020    8.0070 O   0  0  0  0  0  0  0  0  0  0  0  0
   25.6050   39.4010    6.7960 C   0  0  1  0  0  0  0  0  0  0  0  0
   25.4010   38.3800    7.8770 C   0  0  1  0  0  0  0  0  0  0  0  0
   29.3050   39.1680    6.6550 O   0  0  0  0  0  0  0  0  0  0  0  0
   29.8830   38.3550    6.7200 H   0  0  0  0  0  0  0  0  0  0  0  0
   27.7830   37.7790    5.6160 C   0  0  0  0  0  0  0  0  0  0  0  0
   27.7770   36.5310    5.7270 O   0  0  0  0  0  0  0  0  0  0  0  0
   27.5820   38.2530    4.3030 O   0  0  0  0  0  0  0  0  0  0  0  0
   26.6340   38.1230    3.9400 H   0  0  0  0  0  0  0  0  0  0  0  0
   24.8350   40.5360    7.0510 O   0  0  0  0  0  0  0  0  0  0  0  0
   25.0910   40.9850    7.8840 H   0  0  0  0  0  0  0  0  0  0  0  0
   24.3050   37.5110    7.4970 N   0  0  0  0  0  0  0  0  0  0  0  0
   22.9500   37.7340    7.9390 C   0  0  0  0  0  0  0  0  0  0  0  0
   24.4090   36.6640    6.8820 H   0  0  0  0  0  0  0  0  0  0  0  0
   21.8520   36.8070    7.5210 C   0  0  0  0  0  0  0  0  0  0  0  0
   22.6850   38.7050    8.6750 O   0  0  0  0  0  0  0  0  0  0  0  0
   25.2960   37.4490   10.1750 O   0  0  0  0  0  0  0  0  0  0  0  0
   24.9530   36.8200   10.8560 H   0  0  0  0  0  0  0  0  0  0  0  0
   28.2640   36.5270   11.3130 O   0  0  0  0  0  0  0  0  0  0  0  0
   28.4630   35.7630   10.7180 H   0  0  0  0  0  0  0  0  0  0  0  0
   29.3160   39.0880   14.6740 O   0  0  0  0  0  0  0  0  0  0  0  0
   30.6330   39.1270   14.1870 C   0  0  0  0  0  0  0  0  0  0  0  0
   31.1310   37.7440   14.0450 C   0  0  0  0  0  0  0  0  0  0  0  0
   31.9560   37.0440   14.8980 C   0  0  0  0  0  0  0  0  0  0  0  0
   30.8540   36.9070   13.0290 N   0  0  0  0  0  0  0  0  0  0  0  0
   32.1530   35.8160   14.3820 N   0  0  0  0  0  0  0  0  0  0  0  0
   31.4650   35.7770   13.2470 N   0  0  0  0  0  0  0  0  0  0  0  0
   32.9180   34.7050   14.8800 C   0  0  0  0  0  0  0  0  0  0  0  0
   32.0690   33.8230   15.7480 C   0  0  0  0  0  0  0  0  0  0  0  0
   31.5170   32.6740   15.2260 C   0  0  0  0  0  0  0  0  0  0  0  0
   31.8260   34.1240   17.0620 C   0  0  0  0  0  0  0  0  0  0  0  0
   30.7300   31.8440   16.0330 C   0  0  0  0  0  0  0  0  0  0  0  0
   31.0570   33.3290   17.8850 C   0  0  0  0  0  0  0  0  0  0  0  0
   30.5060   32.1810   17.3630 C   0  0  0  0  0  0  0  0  0  0  0  0
   30.7900   33.6220   19.2620 C   0  0  0  0  0  0  0  0  0  0  0  0
   30.5820   33.8770   20.3820 N   0  0  0  0  0  0  0  0  0  0  0  0
   29.8670   25.5550   16.9770 C   0  0  0  0  0  0  0  0  0  0  0  0
   28.3450   25.7220   17.0260 C   0  0  0  0  0  0  0  0  0  0  0  0
   27.6010   24.4030   16.8870 C   0  0  0  0  0  0  0  0  0  0  0  0
   26.5270   24.2460   17.9270 C   0  0  0  0  0  0  0  0  0  0  0  0
   25.1610   24.2270   17.2490 C   0  0  0  0  0  0  0  0  0  0  0  0
   24.4610   22.9500   17.5270 N   0  0  0  0  0  0  0  0  0  0  0  0
  1  2  1  0  0  0  0
  2  3  2  0  0  0  0
  2 31  1  0  0  0  0
  4  1  1  0  0  0  0
  5  1  1  0  0  0  0
  6 29  1  0  0  0  0
  6  5  1  1  0  0  0
  7 27  1  1  0  0  0
  7  6  1  0  0  0  0
  8  7  1  1  0  0  0
  9 16  1  6  0  0  0
  9 11  1  0  0  0  0
 10  9  1  0  0  0  0
 10 12  1  0  0  0  0
 11  8  1  0  0  0  0
 12 20  1  1  0  0  0
 12 13  1  0  0  0  0
 13 22  1  6  0  0  0
 13  8  1  0  0  0  0
 14 15  1  0  0  0  0
 14  9  1  0  0  0  0
 16 17  2  0  0  0  0
 18 16  1  0  0  0  0
 19 18  1  0  0  0  0
 20 21  1  0  0  0  0
 22 23  1  0  0  0  0
 23 26  2  0  0  0  0
 24 22  1  0  0  0  0
 25 23  1  0  0  0  0
 27 28  1  0  0  0  0
 30 29  1  0  0  0  0
 32 31  1  0  0  0  0
 33 32  1  0  0  0  0
 33 34  2  0  0  0  0
 35 37  2  0  0  0  0
 35 33  1  0  0  0  0
 36 38  1  0  0  0  0
 36 34  1  0  0  0  0
 37 36  1  0  0  0  0
 38 39  1  0  0  0  0
 39 41  1  0  0  0  0
 40 39  2  0  0  0  0
 40 42  1  0  0  0  0
 41 43  2  0  0  0  0
 42 44  2  0  0  0  0
 43 45  1  0  0  0  0
 44 43  1  0  0  0  0
 45 46  3  0  0  0  0
 47 48  1  0  0  0  0
 49 48  1  0  0  0  0
 49 50  1  0  0  0  0
 51 52  1  0  0  0  0
 51 50  1  0  0  0  0
M  END
>  <REMARK>
 VINA RESULT:    -4.955      5.286      9.756
 INTER + INTRA:         -14.366
 INTER:                  -9.427
 INTRA:                  -4.939
 UNBOUND:                -5.212
 SMILES CC(=O)N[C@@H]1[C@@H](O)C[C@](O)(C(=O)O)O[C@H]1C(O)[C@H](O)CNC(=O)OCc1cn(Cc2cccc(C#N)c2)nn1
 SMILES IDX 21 1 22 2 23 3 20 5 18 6 16 7 15 8 9 9 8 10 14 11 6 12 5 13
 SMILES IDX 10 14 11 16 12 17 13 18 7 20 4 22 2 23 1 25 3 26 17 27 19 29
 SMILES IDX 24 31 25 32 26 33 27 34 39 35 28 36 38 37 29 38 30 39 31 40
 SMILES IDX 37 41 32 42 34 43 33 44 35 45 36 46
 H PARENT 21 4 10 15 13 19 7 21 4 24 17 28 19 30
 Flexibility Score: inf
  4 active torsions:
  status: ('A' for Active; 'I' for Inactive)
    1  A    between atoms: CA   and  CB  
    2  A    between atoms: CB   and  CG  
    3  A    between atoms: CG   and  CD  
    4  A    between atoms: CD   and  CE  

>  <TORSDO>
F 17

>  <BEGIN_>
RES LYS A 131

$$$$
ligand_66_pose_13_2HRL.pdbqt
 OpenBabel07062320523D

  6  5  0  0  0  0  0  0  0  0999 V2000
   33.1930   34.6630    9.2900 C   0  0  0  0  0  0  0  0  0  0  0  0
   32.0600   35.3600   10.0340 C   0  0  0  0  0  0  0  0  0  0  0  0
   30.7320   34.6590    9.9030 C   0  0  0  0  0  0  0  0  0  0  0  0
   30.3230   34.5540    8.4420 C   0  0  0  0  0  0  0  0  0  0  0  0
   28.8130   34.4950    8.3150 C   0  0  0  0  0  0  0  0  0  0  0  0
   28.2070   33.7510    9.4540 N   0  0  0  0  0  0  0  0  0  0  0  0
  1  2  1  0  0  0  0
  3  2  1  0  0  0  0
  4  3  1  0  0  0  0
  5  4  1  0  0  0  0
  5  6  1  0  0  0  0
M  END
>  <EGIN_R>
ES LYS A 135

>  <REMARK>
  4 active torsions:
  status: ('A' for Active; 'I' for Inactive)
    5  A    between atoms: CA   and  CB  
    6  A    between atoms: CB   and  CG  
    7  A    between atoms: CG   and  CD  
    8  A    between atoms: CD   and  CE  

$$$$
