ligand_30_pose_8_2HRL.pdbqt
 OpenBabel07062320523D

 57 57  0  0  1  0  0  0  0  0999 V2000
   34.5260   32.1850   22.2010 C   0  0  0  0  0  0  0  0  0  0  0  0
   33.5520   31.1890   21.8480 N   0  0  0  0  0  0  0  0  0  0  0  0
   31.7470   30.1000   21.2390 C   0  0  0  0  0  0  0  0  0  0  0  0
   32.2530   31.3520   21.4660 C   0  0  0  0  0  0  0  0  0  0  0  0
   32.7360   29.2140   21.4840 N   0  0  0  0  0  0  0  0  0  0  0  0
   33.7920   29.8940   21.8420 N   0  0  0  0  0  0  0  0  0  0  0  0
   30.3640   29.8080   20.8060 C   0  0  0  0  0  0  0  0  0  0  0  0
   29.7200   30.9830   20.3650 O   0  0  0  0  0  0  0  0  0  0  0  0
   29.4390   31.1750   19.0190 C   0  0  0  0  0  0  0  0  0  0  0  0
   30.4030   30.9080   18.0100 N   0  0  0  0  0  0  0  0  0  0  0  0
   31.3520   30.5610   18.2660 H   0  0  0  0  0  0  0  0  0  0  0  0
   28.2760   31.6030   18.7020 O   0  0  0  0  0  0  0  0  0  0  0  0
   30.0720   31.1190   16.6370 C   0  0  0  0  0  0  0  0  0  0  0  0
   30.8500   32.2600   16.0170 C   0  0  2  0  0  0  0  0  0  0  0  0
   29.9360   33.4140   15.7390 C   0  0  2  0  0  0  0  0  0  0  0  0
   30.7320   34.5870   15.2070 C   0  0  2  0  0  0  0  0  0  0  0  0
   31.5400   35.4630   13.2200 C   0  0  2  0  0  0  0  0  0  0  0  0
   32.5290   36.1500   14.1340 C   0  0  0  0  0  0  0  0  0  0  0  0
   30.8610   34.4340   13.8530 O   0  0  0  0  0  0  0  0  0  0  0  0
   33.1530   35.1080   15.0200 C   0  0  1  0  0  0  0  0  0  0  0  0
   32.0390   34.6240   15.9590 C   0  0  1  0  0  0  0  0  0  0  0  0
   32.2800   34.8890   12.1900 O   0  0  0  0  0  0  0  0  0  0  0  0
   31.9720   33.9750   11.9930 H   0  0  0  0  0  0  0  0  0  0  0  0
   30.6570   36.4880   12.6620 C   0  0  0  0  0  0  0  0  0  0  0  0
   31.1050   37.6430   12.4620 O   0  0  0  0  0  0  0  0  0  0  0  0
   29.3270   36.2720   12.3290 O   0  0  0  0  0  0  0  0  0  0  0  0
   28.6330   36.9910   12.5900 H   0  0  0  0  0  0  0  0  0  0  0  0
   33.6880   34.0760   14.2790 O   0  0  0  0  0  0  0  0  0  0  0  0
   34.1460   34.4680   13.4940 H   0  0  0  0  0  0  0  0  0  0  0  0
   31.9950   35.5860   17.0390 N   0  0  0  0  0  0  0  0  0  0  0  0
   31.8900   35.1060   18.3660 C   0  0  0  0  0  0  0  0  0  0  0  0
   32.0400   36.6210   16.8670 H   0  0  0  0  0  0  0  0  0  0  0  0
   31.8430   36.0680   19.5100 C   0  0  0  0  0  0  0  0  0  0  0  0
   31.8370   33.8810   18.5870 O   0  0  0  0  0  0  0  0  0  0  0  0
   29.2660   33.7280   16.9250 O   0  0  0  0  0  0  0  0  0  0  0  0
   29.1170   34.6820   17.0450 H   0  0  0  0  0  0  0  0  0  0  0  0
   31.4430   31.8780   14.8130 O   0  0  0  0  0  0  0  0  0  0  0  0
   30.8660   31.2780   14.3050 H   0  0  0  0  0  0  0  0  0  0  0  0
   35.9050   31.6070   22.0270 C   0  0  0  0  0  0  0  0  0  0  0  0
   36.7610   32.4080   21.0880 C   0  0  0  0  0  0  0  0  0  0  0  0
   38.2180   32.0260   21.1690 C   0  0  0  0  0  0  0  0  0  0  0  0
   39.0380   32.9470   20.2700 C   0  0  0  0  0  0  0  0  0  0  0  0
   38.2360   33.2580   19.0340 C   0  0  0  0  0  0  0  0  0  0  0  0
   39.0660   33.1330   17.7890 C   0  0  0  0  0  0  0  0  0  0  0  0
   38.3280   33.6700   16.6080 C   0  0  0  0  0  0  0  0  0  0  0  0
   38.3290   35.1960   16.6080 C   0  0  0  0  0  0  0  0  0  0  0  0
   36.9840   35.7640   16.2410 C   0  0  0  0  0  0  0  0  0  0  0  0
   36.2930   36.0860   17.5290 C   0  0  0  0  0  0  0  0  0  0  0  0
   35.0600   35.9800   17.6920 O   0  0  0  0  0  0  0  0  0  0  0  0
   37.0530   36.5280   18.6130 O   0  0  0  0  0  0  0  0  0  0  0  0
   37.9940   36.8450   18.4520 H   0  0  0  0  0  0  0  0  0  0  0  0
   29.8670   25.5550   16.9770 C   0  0  0  0  0  0  0  0  0  0  0  0
   28.3450   25.7220   17.0260 C   0  0  0  0  0  0  0  0  0  0  0  0
   27.8330   26.0680   18.4160 C   0  0  0  0  0  0  0  0  0  0  0  0
   26.3330   26.1690   18.4580 C   0  0  0  0  0  0  0  0  0  0  0  0
   25.9260   27.6320   18.6060 C   0  0  0  0  0  0  0  0  0  0  0  0
   27.0680   28.4420   19.0910 N   0  0  0  0  0  0  0  0  0  0  0  0
  2  1  1  0  0  0  0
  3  4  2  0  0  0  0
  3  5  1  0  0  0  0
  4  2  1  0  0  0  0
  5  6  2  0  0  0  0
  6  2  1  0  0  0  0
  7  3  1  0  0  0  0
  8  7  1  0  0  0  0
  9  8  1  0  0  0  0
 10 11  1  0  0  0  0
 10  9  1  0  0  0  0
 12  9  2  0  0  0  0
 13 10  1  0  0  0  0
 14 13  1  6  0  0  0
 15 14  1  0  0  0  0
 15 35  1  1  0  0  0
 16 15  1  1  0  0  0
 16 21  1  0  0  0  0
 17 22  1  6  0  0  0
 17 19  1  0  0  0  0
 17 18  1  0  0  0  0
 18 20  1  0  0  0  0
 19 16  1  0  0  0  0
 20 28  1  6  0  0  0
 20 21  1  0  0  0  0
 21 30  1  1  0  0  0
 23 22  1  0  0  0  0
 24 17  1  0  0  0  0
 25 24  2  0  0  0  0
 26 27  1  0  0  0  0
 26 24  1  0  0  0  0
 29 28  1  0  0  0  0
 30 31  1  0  0  0  0
 31 34  2  0  0  0  0
 31 33  1  0  0  0  0
 32 30  1  0  0  0  0
 35 36  1  0  0  0  0
 37 14  1  0  0  0  0
 38 37  1  0  0  0  0
 39  1  1  0  0  0  0
 40 41  1  0  0  0  0
 40 39  1  0  0  0  0
 42 41  1  0  0  0  0
 43 42  1  0  0  0  0
 44 43  1  0  0  0  0
 45 46  1  0  0  0  0
 45 44  1  0  0  0  0
 47 46  1  0  0  0  0
 47 48  1  0  0  0  0
 48 49  2  0  0  0  0
 48 50  1  0  0  0  0
 51 50  1  0  0  0  0
 52 53  1  0  0  0  0
 53 54  1  0  0  0  0
 54 55  1  0  0  0  0
 55 56  1  0  0  0  0
 56 57  1  0  0  0  0
M  END
>  <REMARK>
 VINA RESULT:    -3.819      4.319      8.283
 INTER + INTRA:         -17.252
 INTER:                 -11.497
 INTRA:                  -5.755
 UNBOUND:                -8.298
 SMILES CC(=O)N[C@@H]1[C@@H](O)C[C@](O)(C(=O)O)O[C@H]1C(O)[C@H](O)CNC(=O)OCc1cn(CCCCCCCCCCC(=O)O)nn1
 SMILES IDX 29 1 28 2 26 3 27 4 43 5 42 6 25 7 24 8 22 9 21 10 23 12
 SMILES IDX 20 13 18 14 16 15 15 16 9 17 8 18 14 19 6 20 5 21 10 22
 SMILES IDX 11 24 12 25 13 26 7 28 4 30 2 31 1 33 3 34 17 35 19 37 30 39
 SMILES IDX 31 40 32 41 33 42 34 43 35 44 36 45 37 46 38 47 39 48 40 49
 SMILES IDX 41 50
 H PARENT 21 11 10 23 13 27 7 29 4 32 17 36 19 38 41 51
 Flexibility Score: inf
  4 active torsions:
  status: ('A' for Active; 'I' for Inactive)
    1  A    between atoms: CA   and  CB  
    2  A    between atoms: CB   and  CG  
    3  A    between atoms: CG   and  CD  
    4  A    between atoms: CD   and  CE  

>  <TORSDO>
F 26

>  <BEGIN_>
RES LYS A 131

$$$$
ligand_30_pose_8_2HRL.pdbqt
 OpenBabel07062320523D

  6  5  0  0  0  0  0  0  0  0999 V2000
   33.1930   34.6630    9.2900 C   0  0  0  0  0  0  0  0  0  0  0  0
   32.0600   35.3600   10.0340 C   0  0  0  0  0  0  0  0  0  0  0  0
   30.8280   35.5730    9.1930 C   0  0  0  0  0  0  0  0  0  0  0  0
   30.1460   34.2470    8.8950 C   0  0  0  0  0  0  0  0  0  0  0  0
   28.6560   34.4480    8.6930 C   0  0  0  0  0  0  0  0  0  0  0  0
   27.8700   33.6770    9.6950 N   0  0  0  0  0  0  0  0  0  0  0  0
  1  2  1  0  0  0  0
  3  2  1  0  0  0  0
  4  3  1  0  0  0  0
  5  4  1  0  0  0  0
  5  6  1  0  0  0  0
M  END
>  <EGIN_R>
ES LYS A 135

>  <REMARK>
  4 active torsions:
  status: ('A' for Active; 'I' for Inactive)
    5  A    between atoms: CA   and  CB  
    6  A    between atoms: CB   and  CG  
    7  A    between atoms: CG   and  CD  
    8  A    between atoms: CD   and  CE  

$$$$
