ligand_52_pose_9_2HRL.pdbqt
 OpenBabel07062320523D

 49 50  0  0  1  0  0  0  0  0999 V2000
   30.1540   31.2580   16.8960 C   0  0  0  0  0  0  0  0  0  0  0  0
   29.2130   31.0480   15.7680 C   0  0  2  0  0  0  0  0  0  0  0  0
   27.8960   31.7010   15.9560 C   0  0  2  0  0  0  0  0  0  0  0  0
   27.5890   32.9200   15.1580 C   0  0  2  0  0  0  0  0  0  0  0  0
   28.2820   34.9460   14.4150 C   0  0  2  0  0  0  0  0  0  0  0  0
   26.9180   35.2540   13.9090 C   0  0  0  0  0  0  0  0  0  0  0  0
   28.3710   33.9990   15.4180 O   0  0  0  0  0  0  0  0  0  0  0  0
   25.9270   34.1430   13.9190 C   0  0  1  0  0  0  0  0  0  0  0  0
   26.1330   33.2900   15.2040 C   0  0  1  0  0  0  0  0  0  0  0  0
   28.7420   36.1630   15.0140 O   0  0  0  0  0  0  0  0  0  0  0  0
   28.4590   36.8630   14.3820 H   0  0  0  0  0  0  0  0  0  0  0  0
   29.2480   34.6510   13.3330 C   0  0  0  0  0  0  0  0  0  0  0  0
   29.1140   35.2030   12.2120 O   0  0  0  0  0  0  0  0  0  0  0  0
   30.3290   33.7870   13.4520 O   0  0  0  0  0  0  0  0  0  0  0  0
   31.2010   34.2080   13.7940 H   0  0  0  0  0  0  0  0  0  0  0  0
   24.6250   34.6360   14.0210 O   0  0  0  0  0  0  0  0  0  0  0  0
   24.0550   34.2040   13.3380 H   0  0  0  0  0  0  0  0  0  0  0  0
   25.3460   32.1050   14.9960 N   0  0  0  0  0  0  0  0  0  0  0  0
   24.0850   31.8800   15.5940 C   0  0  0  0  0  0  0  0  0  0  0  0
   25.7180   31.3510   14.3600 H   0  0  0  0  0  0  0  0  0  0  0  0
   23.3510   30.6240   15.3170 C   0  0  0  0  0  0  0  0  0  0  0  0
   23.6010   32.7470   16.3550 O   0  0  0  0  0  0  0  0  0  0  0  0
   27.4470   31.7270   17.2630 O   0  0  0  0  0  0  0  0  0  0  0  0
   26.5340   31.4370   17.4160 H   0  0  0  0  0  0  0  0  0  0  0  0
   28.9480   29.6640   15.6200 O   0  0  0  0  0  0  0  0  0  0  0  0
   29.0810   29.4480   14.6750 H   0  0  0  0  0  0  0  0  0  0  0  0
   30.5860   32.6030   17.1380 N   0  0  0  0  0  0  0  0  0  0  0  0
   31.5180   33.3140   16.3920 C   0  0  0  0  0  0  0  0  0  0  0  0
   30.1580   33.1180   17.9680 H   0  0  0  0  0  0  0  0  0  0  0  0
   32.0860   32.8140   15.4120 O   0  0  0  0  0  0  0  0  0  0  0  0
   31.8830   34.6390   16.6880 O   0  0  0  0  0  0  0  0  0  0  0  0
   33.0180   35.2240   16.0920 C   0  0  0  0  0  0  0  0  0  0  0  0
   32.7300   35.7130   14.7300 C   0  0  0  0  0  0  0  0  0  0  0  0
   32.0130   36.8720   14.4780 C   0  0  0  0  0  0  0  0  0  0  0  0
   33.0480   35.2230   13.5320 N   0  0  0  0  0  0  0  0  0  0  0  0
   31.9230   37.0420   13.1480 N   0  0  0  0  0  0  0  0  0  0  0  0
   32.5520   36.0400   12.5910 N   0  0  0  0  0  0  0  0  0  0  0  0
   31.2680   38.1090   12.4550 C   0  0  0  0  0  0  0  0  0  0  0  0
   31.6890   38.5200   11.2020 C   0  0  0  0  0  0  0  0  0  0  0  0
   30.1940   38.7510   13.0370 C   0  0  0  0  0  0  0  0  0  0  0  0
   31.0180   39.5670   10.5650 C   0  0  0  0  0  0  0  0  0  0  0  0
   29.5590   39.7690   12.3930 N   0  0  0  0  0  0  0  0  0  0  0  0
   29.9450   40.1900   11.1750 C   0  0  0  0  0  0  0  0  0  0  0  0
   29.8670   25.5550   16.9770 C   0  0  0  0  0  0  0  0  0  0  0  0
   28.3450   25.7220   17.0260 C   0  0  0  0  0  0  0  0  0  0  0  0
   27.6010   24.4010   16.9010 C   0  0  0  0  0  0  0  0  0  0  0  0
   26.1670   24.5150   17.3360 C   0  0  0  0  0  0  0  0  0  0  0  0
   25.8310   23.3710   18.2870 C   0  0  0  0  0  0  0  0  0  0  0  0
   25.0280   22.3370   17.5920 N   0  0  0  0  0  0  0  0  0  0  0  0
  1 27  1  0  0  0  0
  2  3  1  0  0  0  0
  2  1  1  1  0  0  0
  3 23  1  1  0  0  0
  4  9  1  0  0  0  0
  4  7  1  0  0  0  0
  4  3  1  1  0  0  0
  5 12  1  6  0  0  0
  5 10  1  0  0  0  0
  5  7  1  0  0  0  0
  6  8  1  0  0  0  0
  6  5  1  0  0  0  0
  8 16  1  1  0  0  0
  8  9  1  0  0  0  0
  9 18  1  6  0  0  0
 11 10  1  0  0  0  0
 12 14  1  0  0  0  0
 13 12  2  0  0  0  0
 14 15  1  0  0  0  0
 17 16  1  0  0  0  0
 18 19  1  0  0  0  0
 19 22  2  0  0  0  0
 20 18  1  0  0  0  0
 21 19  1  0  0  0  0
 23 24  1  0  0  0  0
 25  2  1  0  0  0  0
 26 25  1  0  0  0  0
 27 29  1  0  0  0  0
 28 31  1  0  0  0  0
 28 27  1  0  0  0  0
 30 28  2  0  0  0  0
 32 31  1  0  0  0  0
 33 32  1  0  0  0  0
 34 33  2  0  0  0  0
 35 33  1  0  0  0  0
 36 34  1  0  0  0  0
 37 36  1  0  0  0  0
 37 35  2  0  0  0  0
 38 40  1  0  0  0  0
 38 36  1  0  0  0  0
 39 38  2  0  0  0  0
 41 43  2  0  0  0  0
 41 39  1  0  0  0  0
 42 40  2  0  0  0  0
 43 42  1  0  0  0  0
 44 45  1  0  0  0  0
 46 45  1  0  0  0  0
 46 47  1  0  0  0  0
 47 48  1  0  0  0  0
 49 48  1  0  0  0  0
M  END
>  <REMARK>
 VINA RESULT:    -4.962      3.999      7.098
 INTER + INTRA:         -13.752
 INTER:                  -7.480
 INTRA:                  -6.272
 UNBOUND:                -5.164
 SMILES CC(=O)N[C@@H]1[C@@H](O)C[C@](O)(C(=O)O)O[C@H]1C(O)[C@H](O)CNC(=O)OCc1cn(-c2cccnc2)nn1
 SMILES IDX 20 1 18 2 16 3 15 4 9 5 8 6 14 7 6 8 5 9 10 10 11 12 12 13
 SMILES IDX 13 14 7 16 4 18 2 19 1 21 3 22 17 23 19 25 21 27 22 28 23 30
 SMILES IDX 24 31 25 32 26 33 27 34 36 35 28 36 35 37 29 38 30 39 34 40
 SMILES IDX 31 41 33 42 32 43
 H PARENT 10 11 13 15 7 17 4 20 17 24 19 26 21 29
 Flexibility Score: inf
  4 active torsions:
  status: ('A' for Active; 'I' for Inactive)
    1  A    between atoms: CA   and  CB  
    2  A    between atoms: CB   and  CG  
    3  A    between atoms: CG   and  CD  
    4  A    between atoms: CD   and  CE  

>  <TORSDO>
F 15

>  <BEGIN_>
RES LYS A 131

$$$$
ligand_52_pose_9_2HRL.pdbqt
 OpenBabel07062320523D

  6  5  0  0  0  0  0  0  0  0999 V2000
   33.1930   34.6630    9.2900 C   0  0  0  0  0  0  0  0  0  0  0  0
   32.0600   35.3600   10.0340 C   0  0  0  0  0  0  0  0  0  0  0  0
   30.8390   35.6010    9.1840 C   0  0  0  0  0  0  0  0  0  0  0  0
   30.2340   34.2820    8.7280 C   0  0  0  0  0  0  0  0  0  0  0  0
   28.7430   34.4320    8.4950 C   0  0  0  0  0  0  0  0  0  0  0  0
   27.9620   33.6770    9.5140 N   0  0  0  0  0  0  0  0  0  0  0  0
  1  2  1  0  0  0  0
  3  2  1  0  0  0  0
  4  3  1  0  0  0  0
  5  4  1  0  0  0  0
  5  6  1  0  0  0  0
M  END
>  <EGIN_R>
ES LYS A 135

>  <REMARK>
  4 active torsions:
  status: ('A' for Active; 'I' for Inactive)
    5  A    between atoms: CA   and  CB  
    6  A    between atoms: CB   and  CG  
    7  A    between atoms: CG   and  CD  
    8  A    between atoms: CD   and  CE  

$$$$
