ligand_6_pose_5_2HRL.pdbqt
 OpenBabel07062320523D

 52 53  0  0  1  0  0  0  0  0999 V2000
   27.3270   27.6510   18.8560 N   0  0  0  0  0  0  0  0  0  0  0  0
   27.8200   27.4280   20.1550 C   0  0  0  0  0  0  0  0  0  0  0  0
   27.1140   27.0110   21.0900 O   0  0  0  0  0  0  0  0  0  0  0  0
   28.0480   27.9870   18.1280 H   0  0  0  0  0  0  0  0  0  0  0  0
   25.9870   27.4710   18.4570 C   0  0  0  0  0  0  0  0  0  0  0  0
   25.4300   28.2460   17.3310 C   0  0  2  0  0  0  0  0  0  0  0  0
   25.7570   29.6480   17.0940 C   0  0  2  0  0  0  0  0  0  0  0  0
   24.7320   30.3450   16.1920 C   0  0  2  0  0  0  0  0  0  0  0  0
   23.8470   30.1040   14.0540 C   0  0  2  0  0  0  0  0  0  0  0  0
   23.0900   31.3520   14.4470 C   0  0  0  0  0  0  0  0  0  0  0  0
   24.4720   29.4790   15.1100 O   0  0  0  0  0  0  0  0  0  0  0  0
   23.9570   32.3710   15.1160 C   0  0  1  0  0  0  0  0  0  0  0  0
   25.2100   31.6280   15.6170 C   0  0  1  0  0  0  0  0  0  0  0  0
   24.7160   30.4520   13.0340 O   0  0  0  0  0  0  0  0  0  0  0  0
   24.4040   30.0540   12.1970 H   0  0  0  0  0  0  0  0  0  0  0  0
   22.8440   29.1530   13.5100 C   0  0  0  0  0  0  0  0  0  0  0  0
   22.4560   28.1670   14.1890 O   0  0  0  0  0  0  0  0  0  0  0  0
   22.3090   29.3260   12.2440 O   0  0  0  0  0  0  0  0  0  0  0  0
   22.8600   29.1790   11.3960 H   0  0  0  0  0  0  0  0  0  0  0  0
   24.2970   33.4430   14.3230 O   0  0  0  0  0  0  0  0  0  0  0  0
   23.4680   33.9300   14.0900 H   0  0  0  0  0  0  0  0  0  0  0  0
   25.8340   32.5320   16.5600 N   0  0  0  0  0  0  0  0  0  0  0  0
   26.8850   33.4130   16.1380 C   0  0  0  0  0  0  0  0  0  0  0  0
   25.5590   32.5870   17.5590 H   0  0  0  0  0  0  0  0  0  0  0  0
   27.5670   34.3610   17.0460 C   0  0  0  0  0  0  0  0  0  0  0  0
   27.2300   33.3620   14.9390 O   0  0  0  0  0  0  0  0  0  0  0  0
   27.0310   29.8040   16.6120 O   0  0  0  0  0  0  0  0  0  0  0  0
   27.6870   30.1960   17.2290 H   0  0  0  0  0  0  0  0  0  0  0  0
   24.0260   28.0050   17.3720 O   0  0  0  0  0  0  0  0  0  0  0  0
   23.8210   27.3450   18.0850 H   0  0  0  0  0  0  0  0  0  0  0  0
   29.1880   27.7000   20.3840 O   0  0  0  0  0  0  0  0  0  0  0  0
   29.4880   28.9660   20.9350 C   0  0  0  0  0  0  0  0  0  0  0  0
   29.3740   30.0270   19.8770 C   0  0  0  0  0  0  0  0  0  0  0  0
   30.3980   30.6320   19.1820 C   0  0  0  0  0  0  0  0  0  0  0  0
   28.2460   30.6040   19.3950 N   0  0  0  0  0  0  0  0  0  0  0  0
   29.8920   31.5400   18.3130 N   0  0  0  0  0  0  0  0  0  0  0  0
   28.5880   31.4820   18.4840 N   0  0  0  0  0  0  0  0  0  0  0  0
   30.6280   32.3700   17.4170 C   0  0  0  0  0  0  0  0  0  0  0  0
   30.8470   32.0180   16.1030 C   0  0  0  0  0  0  0  0  0  0  0  0
   31.1560   33.5780   17.8350 C   0  0  0  0  0  0  0  0  0  0  0  0
   31.5620   32.8380   15.2520 C   0  0  0  0  0  0  0  0  0  0  0  0
   31.8710   34.3990   16.9860 C   0  0  0  0  0  0  0  0  0  0  0  0
   32.0920   34.0500   15.6700 C   0  0  0  0  0  0  0  0  0  0  0  0
   32.8240   34.8960   14.8060 N   0  0  0  0  0  0  0  0  0  0  0  0
   32.4950   36.0920   14.7240 O   0  0  0  0  0  0  0  0  0  0  0  0
   33.8820   34.4770   14.0500 O   0  0  0  0  0  0  0  0  0  0  0  0
   29.8670   25.5550   16.9770 C   0  0  0  0  0  0  0  0  0  0  0  0
   28.3450   25.7220   17.0260 C   0  0  0  0  0  0  0  0  0  0  0  0
   27.5990   24.4220   16.7650 C   0  0  0  0  0  0  0  0  0  0  0  0
   26.8290   23.9600   17.9710 C   0  0  0  0  0  0  0  0  0  0  0  0
   25.5900   23.1940   17.5200 C   0  0  0  0  0  0  0  0  0  0  0  0
   24.5240   24.1330   17.0990 N   0  0  0  0  0  0  0  0  0  0  0  0
  1  2  1  0  0  0  0
  2 31  1  0  0  0  0
  2  3  2  0  0  0  0
  4  1  1  0  0  0  0
  5  1  1  0  0  0  0
  6 29  1  0  0  0  0
  6  5  1  1  0  0  0
  7 27  1  6  0  0  0
  7  6  1  0  0  0  0
  8  7  1  1  0  0  0
  9 14  1  6  0  0  0
  9 10  1  0  0  0  0
  9 11  1  0  0  0  0
 10 12  1  0  0  0  0
 11  8  1  0  0  0  0
 12 20  1  6  0  0  0
 12 13  1  0  0  0  0
 13  8  1  0  0  0  0
 13 22  1  1  0  0  0
 15 14  1  0  0  0  0
 16  9  1  0  0  0  0
 16 17  2  0  0  0  0
 18 16  1  0  0  0  0
 19 18  1  0  0  0  0
 21 20  1  0  0  0  0
 22 24  1  0  0  0  0
 23 22  1  0  0  0  0
 23 25  1  0  0  0  0
 26 23  2  0  0  0  0
 27 28  1  0  0  0  0
 29 30  1  0  0  0  0
 31 32  1  0  0  0  0
 33 32  1  0  0  0  0
 34 33  2  0  0  0  0
 35 33  1  0  0  0  0
 36 37  1  0  0  0  0
 36 34  1  0  0  0  0
 37 35  2  0  0  0  0
 38 40  1  0  0  0  0
 38 36  1  0  0  0  0
 39 38  2  0  0  0  0
 41 43  2  0  0  0  0
 41 39  1  0  0  0  0
 42 40  2  0  0  0  0
 43 42  1  0  0  0  0
 44 43  1  0  0  0  0
 45 44  2  0  0  0  0
 46 44  2  0  0  0  0
 47 48  1  0  0  0  0
 49 48  1  0  0  0  0
 49 50  1  0  0  0  0
 51 50  1  0  0  0  0
 52 51  1  0  0  0  0
M  END
>  <REMARK>
 VINA RESULT:    -5.568      3.714      7.710
 INTER + INTRA:         -14.711
 INTER:                  -8.998
 INTRA:                  -5.713
 UNBOUND:                -4.749
 SMILES CC(=O)N[C@@H]1[C@@H](O)C[C@](O)(C(=O)O)O[C@H]1C(O)[C@H](O)CNC(=O)OCc1cn(-c2ccc([N+](=O)[O-])cc2)nn1
 SMILES IDX 21 1 22 2 23 3 20 5 18 6 16 7 15 8 9 9 8 10 14 11 6 12 5 13
 SMILES IDX 10 14 11 16 12 17 13 18 7 20 4 22 2 23 1 25 3 26 17 27 19 29
 SMILES IDX 24 31 25 32 26 33 27 34 39 35 28 36 38 37 29 38 30 39 37 40
 SMILES IDX 31 41 36 42 32 43 33 44 34 45 35 46
 H PARENT 21 4 10 15 13 19 7 21 4 24 17 28 19 30
 Flexibility Score: inf
  4 active torsions:
  status: ('A' for Active; 'I' for Inactive)
    1  A    between atoms: CA   and  CB  
    2  A    between atoms: CB   and  CG  
    3  A    between atoms: CG   and  CD  
    4  A    between atoms: CD   and  CE  

>  <TORSDO>
F 16

>  <BEGIN_>
RES LYS A 131

$$$$
ligand_6_pose_5_2HRL.pdbqt
 OpenBabel07062320523D

  6  5  0  0  0  0  0  0  0  0999 V2000
   33.1930   34.6630    9.2900 C   0  0  0  0  0  0  0  0  0  0  0  0
   32.0600   35.3600   10.0340 C   0  0  0  0  0  0  0  0  0  0  0  0
   30.7370   35.2940    9.3160 C   0  0  0  0  0  0  0  0  0  0  0  0
   29.6930   34.5990   10.1760 C   0  0  0  0  0  0  0  0  0  0  0  0
   29.3910   35.4210   11.4140 C   0  0  0  0  0  0  0  0  0  0  0  0
   29.6090   34.6250   12.6540 N   0  0  0  0  0  0  0  0  0  0  0  0
  1  2  1  0  0  0  0
  3  2  1  0  0  0  0
  3  4  1  0  0  0  0
  4  5  1  0  0  0  0
  5  6  1  0  0  0  0
M  END
>  <EGIN_R>
ES LYS A 135

>  <REMARK>
  4 active torsions:
  status: ('A' for Active; 'I' for Inactive)
    5  A    between atoms: CA   and  CB  
    6  A    between atoms: CB   and  CG  
    7  A    between atoms: CG   and  CD  
    8  A    between atoms: CD   and  CE  

$$$$
