ligand_67_pose_6_2HRL.pdbqt
 OpenBabel07062320523D

 50 51  0  0  1  0  0  0  0  0999 V2000
   31.6870   35.5900   14.4170 N   0  0  0  0  0  0  0  0  0  0  0  0
   32.0680   36.0620   13.1380 C   0  0  0  0  0  0  0  0  0  0  0  0
   33.1290   35.6010   12.5950 O   0  0  0  0  0  0  0  0  0  0  0  0
   30.8300   35.9560   14.8650 H   0  0  0  0  0  0  0  0  0  0  0  0
   32.4880   34.6120   15.0750 C   0  0  0  0  0  0  0  0  0  0  0  0
   31.8340   34.0090   16.2880 C   0  0  2  0  0  0  0  0  0  0  0  0
   31.3170   32.6230   16.0480 C   0  0  1  0  0  0  0  0  0  0  0  0
   29.9690   32.4370   16.7090 C   0  0  2  0  0  0  0  0  0  0  0  0
   28.8880   30.9960   18.1800 C   0  0  2  0  0  0  0  0  0  0  0  0
   27.6650   31.0910   17.3160 C   0  0  0  0  0  0  0  0  0  0  0  0
   30.0550   31.3740   17.5700 O   0  0  0  0  0  0  0  0  0  0  0  0
   28.1170   30.9980   15.8730 C   0  0  1  0  0  0  0  0  0  0  0  0
   28.9520   32.2400   15.5940 C   0  0  1  0  0  0  0  0  0  0  0  0
   29.0400   29.6340   18.5320 O   0  0  0  0  0  0  0  0  0  0  0  0
   28.3710   29.3500   19.1840 H   0  0  0  0  0  0  0  0  0  0  0  0
   28.6570   31.7070   19.4780 C   0  0  0  0  0  0  0  0  0  0  0  0
   27.5270   32.0280   19.9080 O   0  0  0  0  0  0  0  0  0  0  0  0
   29.7780   32.0200   20.2340 O   0  0  0  0  0  0  0  0  0  0  0  0
   30.1270   31.4480   20.9960 H   0  0  0  0  0  0  0  0  0  0  0  0
   28.9440   29.8720   15.7440 O   0  0  0  0  0  0  0  0  0  0  0  0
   28.4310   29.0600   15.5190 H   0  0  0  0  0  0  0  0  0  0  0  0
   28.0510   33.3770   15.4900 N   0  0  0  0  0  0  0  0  0  0  0  0
   28.2300   34.3060   14.4340 C   0  0  0  0  0  0  0  0  0  0  0  0
   27.2670   33.5170   16.1910 H   0  0  0  0  0  0  0  0  0  0  0  0
   27.3640   35.4970   14.2430 C   0  0  0  0  0  0  0  0  0  0  0  0
   29.1760   34.1000   13.6200 O   0  0  0  0  0  0  0  0  0  0  0  0
   31.2910   32.3210   14.6870 O   0  0  0  0  0  0  0  0  0  0  0  0
   30.8780   33.0190   14.1340 H   0  0  0  0  0  0  0  0  0  0  0  0
   30.7920   34.8310   16.6940 O   0  0  0  0  0  0  0  0  0  0  0  0
   29.9210   34.5680   16.3440 H   0  0  0  0  0  0  0  0  0  0  0  0
   31.3760   36.9950   12.4190 O   0  0  0  0  0  0  0  0  0  0  0  0
   30.0250   37.3660   12.6150 C   0  0  0  0  0  0  0  0  0  0  0  0
   29.3020   37.5620   11.3370 C   0  0  0  0  0  0  0  0  0  0  0  0
   28.0190   37.1600   11.0500 C   0  0  0  0  0  0  0  0  0  0  0  0
   29.7590   38.1610   10.2250 N   0  0  0  0  0  0  0  0  0  0  0  0
   27.7340   37.5230    9.7810 N   0  0  0  0  0  0  0  0  0  0  0  0
   28.8070   38.1270    9.3050 N   0  0  0  0  0  0  0  0  0  0  0  0
   26.5010   37.3200    9.0310 C   0  0  0  0  0  0  0  0  0  0  0  0
   25.7110   36.1660    9.6100 C   0  0  0  0  0  0  0  0  0  0  0  0
   24.2520   36.4720    9.6480 C   0  0  0  0  0  0  0  0  0  0  0  0
   23.4800   35.4880   10.2520 O   0  0  0  0  0  0  0  0  0  0  0  0
   23.6880   36.7140    8.4050 O   0  0  0  0  0  0  0  0  0  0  0  0
   22.1860   35.6530    9.7650 C   0  0  0  0  0  0  0  0  0  0  0  0
   22.3510   36.4060    8.4780 C   0  0  0  0  0  0  0  0  0  0  0  0
   29.8670   25.5550   16.9770 C   0  0  0  0  0  0  0  0  0  0  0  0
   28.3450   25.7220   17.0260 C   0  0  0  0  0  0  0  0  0  0  0  0
   27.6010   24.4020   16.8950 C   0  0  0  0  0  0  0  0  0  0  0  0
   26.1860   24.4970   17.3940 C   0  0  0  0  0  0  0  0  0  0  0  0
   26.1390   25.3990   18.6230 C   0  0  0  0  0  0  0  0  0  0  0  0
   25.4600   24.7120   19.7460 N   0  0  0  0  0  0  0  0  0  0  0  0
  1  4  1  0  0  0  0
  1  5  1  0  0  0  0
  2  1  1  0  0  0  0
  3  2  2  0  0  0  0
  6  5  1  6  0  0  0
  6 29  1  0  0  0  0
  7 27  1  6  0  0  0
  7  6  1  0  0  0  0
  8  7  1  6  0  0  0
  8 11  1  0  0  0  0
  9 14  1  1  0  0  0
  9 16  1  0  0  0  0
 10  9  1  0  0  0  0
 11  9  1  0  0  0  0
 12 20  1  1  0  0  0
 12 10  1  0  0  0  0
 13 22  1  1  0  0  0
 13 12  1  0  0  0  0
 13  8  1  0  0  0  0
 14 15  1  0  0  0  0
 16 17  2  0  0  0  0
 16 18  1  0  0  0  0
 18 19  1  0  0  0  0
 21 20  1  0  0  0  0
 22 24  1  0  0  0  0
 23 22  1  0  0  0  0
 25 23  1  0  0  0  0
 26 23  2  0  0  0  0
 28 27  1  0  0  0  0
 30 29  1  0  0  0  0
 31 32  1  0  0  0  0
 31  2  1  0  0  0  0
 33 32  1  0  0  0  0
 34 33  2  0  0  0  0
 35 33  1  0  0  0  0
 36 34  1  0  0  0  0
 37 36  1  0  0  0  0
 37 35  2  0  0  0  0
 38 39  1  0  0  0  0
 38 36  1  0  0  0  0
 39 40  1  0  0  0  0
 40 41  1  0  0  0  0
 42 44  1  0  0  0  0
 42 40  1  0  0  0  0
 43 41  1  0  0  0  0
 44 43  1  0  0  0  0
 45 46  1  0  0  0  0
 47 46  1  0  0  0  0
 47 48  1  0  0  0  0
 48 49  1  0  0  0  0
 49 50  1  0  0  0  0
M  END
>  <REMARK>
 VINA RESULT:    -4.391      2.311      5.150
 INTER + INTRA:         -14.406
 INTER:                  -8.874
 INTRA:                  -5.532
 UNBOUND:                -6.292
 SMILES CC(=O)N[C@@H]1[C@@H](O)C[C@](O)(C(=O)O)O[C@H]1C(O)[C@H](O)CNC(=O)OCc1cn(CCC2OCCO2)nn1
 SMILES IDX 21 1 22 2 23 3 20 5 18 6 16 7 15 8 9 9 8 10 14 11 6 12 5 13
 SMILES IDX 10 14 11 16 12 17 13 18 7 20 4 22 2 23 1 25 3 26 17 27 19 29
 SMILES IDX 24 31 25 32 26 33 27 34 37 35 28 36 36 37 29 38 30 39 31 40
 SMILES IDX 32 41 35 42 33 43 34 44
 H PARENT 21 4 10 15 13 19 7 21 4 24 17 28 19 30
 Flexibility Score: inf
  4 active torsions:
  status: ('A' for Active; 'I' for Inactive)
    1  A    between atoms: CA   and  CB  
    2  A    between atoms: CB   and  CG  
    3  A    between atoms: CG   and  CD  
    4  A    between atoms: CD   and  CE  

>  <TORSDO>
F 17

>  <BEGIN_>
RES LYS A 131

$$$$
ligand_67_pose_6_2HRL.pdbqt
 OpenBabel07062320523D

  6  5  0  0  0  0  0  0  0  0999 V2000
   33.1930   34.6630    9.2900 C   0  0  0  0  0  0  0  0  0  0  0  0
   32.0600   35.3600   10.0340 C   0  0  0  0  0  0  0  0  0  0  0  0
   30.7220   34.6880    9.8610 C   0  0  0  0  0  0  0  0  0  0  0  0
   30.3020   34.6990    8.3990 C   0  0  0  0  0  0  0  0  0  0  0  0
   28.8100   34.4540    8.2720 C   0  0  0  0  0  0  0  0  0  0  0  0
   28.2710   33.7860    9.4890 N   0  0  0  0  0  0  0  0  0  0  0  0
  1  2  1  0  0  0  0
  3  2  1  0  0  0  0
  4  3  1  0  0  0  0
  5  4  1  0  0  0  0
  5  6  1  0  0  0  0
M  END
>  <EGIN_R>
ES LYS A 135

>  <REMARK>
  4 active torsions:
  status: ('A' for Active; 'I' for Inactive)
    5  A    between atoms: CA   and  CB  
    6  A    between atoms: CB   and  CG  
    7  A    between atoms: CG   and  CD  
    8  A    between atoms: CD   and  CE  

$$$$
