ligand_69_pose_5_2HRL.pdbqt
 OpenBabel07062320523D

 54 51  0  0  1  0  0  0  0  0999 V2000
   26.6300   34.7440   11.2490 N   0  0  0  0  0  0  0  0  0  0  0  0
   27.2420   35.1400   12.4760 C   0  0  0  0  0  0  0  0  0  0  0  0
   26.7040   35.9500   13.2750 O   0  0  0  0  0  0  0  0  0  0  0  0
   27.1000   34.0710   10.6050 H   0  0  0  0  0  0  0  0  0  0  0  0
   25.3240   35.3380   10.9620 C   0  0  0  0  0  0  0  0  0  0  0  0
   25.2220   35.4460    9.4520 C   0  0  2  0  0  0  0  0  0  0  0  0
   25.9090   36.6780    8.9090 C   0  0  2  0  0  0  0  0  0  0  0  0
   27.0840   36.3420    8.0450 C   0  0  2  0  0  0  0  0  0  0  0  0
   29.3080   35.8660    7.8960 C   0  0  2  0  0  0  0  0  0  0  0  0
   28.8910   35.6260    6.4600 C   0  0  0  0  0  0  0  0  0  0  0  0
   28.2160   36.0130    8.7410 O   0  0  0  0  0  0  0  0  0  0  0  0
   28.0940   36.7890    5.9040 C   0  0  1  0  0  0  0  0  0  0  0  0
   27.4260   37.4520    7.0740 C   0  0  1  0  0  0  0  0  0  0  0  0
   30.1930   36.9340    7.9940 O   0  0  0  0  0  0  0  0  0  0  0  0
   31.0020   36.7990    7.4330 H   0  0  0  0  0  0  0  0  0  0  0  0
   30.0260   34.6460    8.3370 C   0  0  0  0  0  0  0  0  0  0  0  0
   29.4830   33.7620    9.0530 O   0  0  0  0  0  0  0  0  0  0  0  0
   31.3360   34.4610    7.9560 O   0  0  0  0  0  0  0  0  0  0  0  0
   31.6260   34.0600    7.0690 H   0  0  0  0  0  0  0  0  0  0  0  0
   28.9680   37.6050    5.2240 O   0  0  0  0  0  0  0  0  0  0  0  0
   29.2190   37.1300    4.3720 H   0  0  0  0  0  0  0  0  0  0  0  0
   26.3310   38.2900    6.7560 N   0  0  0  0  0  0  0  0  0  0  0  0
   26.4120   39.6700    6.4300 C   0  0  0  0  0  0  0  0  0  0  0  0
   25.3760   37.8710    6.7570 H   0  0  0  0  0  0  0  0  0  0  0  0
   25.1920   40.4700    6.1080 C   0  0  0  0  0  0  0  0  0  0  0  0
   27.5430   40.1940    6.4210 O   0  0  0  0  0  0  0  0  0  0  0  0
   26.1680   37.5970    9.8950 O   0  0  0  0  0  0  0  0  0  0  0  0
   26.9790   38.0980    9.6540 H   0  0  0  0  0  0  0  0  0  0  0  0
   23.8610   35.5840    9.0890 O   0  0  0  0  0  0  0  0  0  0  0  0
   23.4660   36.4040    9.4980 H   0  0  0  0  0  0  0  0  0  0  0  0
   28.4690   34.6260   12.8170 O   0  0  0  0  0  0  0  0  0  0  0  0
   29.2940   35.1470   13.8440 C   0  0  0  0  0  0  0  0  0  0  0  0
   29.2380   34.2280   15.0040 C   0  0  0  0  0  0  0  0  0  0  0  0
   29.1820   32.8520   15.0260 C   0  0  0  0  0  0  0  0  0  0  0  0
   29.2340   34.6290   16.2900 N   0  0  0  0  0  0  0  0  0  0  0  0
   29.1450   32.4510   16.3100 N   0  0  0  0  0  0  0  0  0  0  0  0
   29.1790   33.5640   17.0470 N   0  0  0  0  0  0  0  0  0  0  0  0
   29.0820   31.0680   16.7850 C   0  0  2  0  0  0  0  0  0  0  0  0
   27.6470   30.7320   17.0100 C   0  0  0  0  0  0  0  0  0  0  0  0
   27.3800   29.3030   17.3280 *   0  0  0  0  0  0  0  0  0  0  0  0
   26.0760   28.9030   16.9620 O   0  0  0  0  0  0  0  0  0  0  0  0
   26.0430   28.8060   15.9860 H   0  0  0  0  0  0  0  0  0  0  0  0
   29.9390   30.9650   17.9990 C   0  0  0  0  0  0  0  0  0  0  0  0
   29.1850   30.9430   19.2940 C   0  0  1  0  0  0  0  0  0  0  0  0
   28.4860   29.6650   19.5520 C   0  0  0  0  0  0  0  0  0  0  0  0
   27.7290   28.9720   18.7310 *   0  0  0  0  0  0  0  0  0  0  0  0
   29.9740   31.3150   20.3800 O   0  0  0  0  0  0  0  0  0  0  0  0
   30.3290   32.2340   20.2750 H   0  0  0  0  0  0  0  0  0  0  0  0
   29.8670   25.5550   16.9770 C   0  0  0  0  0  0  0  0  0  0  0  0
   28.3450   25.7220   17.0260 C   0  0  0  0  0  0  0  0  0  0  0  0
   27.6020   24.4000   16.9140 C   0  0  0  0  0  0  0  0  0  0  0  0
   26.5460   24.2520   17.9740 C   0  0  0  0  0  0  0  0  0  0  0  0
   25.1710   24.1760   17.3160 C   0  0  0  0  0  0  0  0  0  0  0  0
   24.4430   25.4550   17.4870 N   0  0  0  0  0  0  0  0  0  0  0  0
  1  2  1  0  0  0  0
  2 31  1  0  0  0  0
  2  3  2  0  0  0  0
  4  1  1  0  0  0  0
  5  1  1  0  0  0  0
  6  5  1  1  0  0  0
  7  6  1  0  0  0  0
  7 27  1  1  0  0  0
  8 11  1  0  0  0  0
  8  7  1  1  0  0  0
  9 14  1  1  0  0  0
  9 16  1  0  0  0  0
  9 11  1  0  0  0  0
 10  9  1  0  0  0  0
 12 20  1  1  0  0  0
 12 10  1  0  0  0  0
 12 13  1  0  0  0  0
 13 22  1  6  0  0  0
 13  8  1  0  0  0  0
 15 14  1  0  0  0  0
 16 17  2  0  0  0  0
 18 16  1  0  0  0  0
 19 18  1  0  0  0  0
 21 20  1  0  0  0  0
 22 24  1  0  0  0  0
 23 22  1  0  0  0  0
 25 23  1  0  0  0  0
 26 23  2  0  0  0  0
 28 27  1  0  0  0  0
 29  6  1  0  0  0  0
 29 30  1  0  0  0  0
 31 32  1  0  0  0  0
 32 33  1  0  0  0  0
 33 34  2  0  0  0  0
 33 35  1  0  0  0  0
 34 36  1  0  0  0  0
 35 37  2  0  0  0  0
 36 38  1  0  0  0  0
 36 37  1  0  0  0  0
 38 39  1  1  0  0  0
 38 43  1  0  0  0  0
 42 41  1  0  0  0  0
 43 44  1  0  0  0  0
 44 45  1  1  0  0  0
 44 47  1  0  0  0  0
 48 47  1  0  0  0  0
 49 50  1  0  0  0  0
 51 50  1  0  0  0  0
 51 52  1  0  0  0  0
 53 54  1  0  0  0  0
 53 52  1  0  0  0  0
M  END
>  <REMARK>
 VINA RESULT:    -7.808      3.752      7.647
 INTER + INTRA:         -13.221
 INTER:                 -10.292
 INTRA:                  -2.929
 UNBOUND:                 3.032
 SMILES CC(=O)N[C@@H]1[C@@H](O)C[C@](O)(C(=O)O)O[C@H]1C(O)[C@H](O)CNC(=O)OCc1cn(C2CC(O)C=C[C@@H](O)C2)nn1
 SMILES IDX 21 1 22 2 23 3 20 5 18 6 16 7 15 8 9 9 8 10 14 11 6 12 5 13
 SMILES IDX 10 14 11 16 12 17 13 18 7 20 4 22 2 23 1 25 3 26 17 27 19 29
 SMILES IDX 24 31 25 32 26 33 27 34 39 35 28 36 38 37 29 38 30 39 31 40
 SMILES IDX 32 42 37 44 35 45 34 46 33 47 36 49
 H PARENT 21 4 10 15 13 19 7 21 4 24 17 28 19 30 32 43 36 50
 Flexibility Score: 90.00
  4 active torsions:
  status: ('A' for Active; 'I' for Inactive)
    1  A    between atoms: CA   and  CB  
    2  A    between atoms: CB   and  CG  
    3  A    between atoms: CG   and  CD  
    4  A    between atoms: CD   and  CE  

>  <TORSDO>
F 17

>  <BEGIN_>
RES LYS A 131

$$$$
ligand_69_pose_5_2HRL.pdbqt
 OpenBabel07062320523D

  6  5  0  0  0  0  0  0  0  0999 V2000
   33.1930   34.6630    9.2900 C   0  0  0  0  0  0  0  0  0  0  0  0
   32.0600   35.3600   10.0340 C   0  0  0  0  0  0  0  0  0  0  0  0
   32.5330   36.2550   11.1500 C   0  0  0  0  0  0  0  0  0  0  0  0
   31.8820   37.6260   11.0510 C   0  0  0  0  0  0  0  0  0  0  0  0
   30.5220   37.6200   11.7220 C   0  0  0  0  0  0  0  0  0  0  0  0
   29.5330   38.4090   10.9370 N   0  0  0  0  0  0  0  0  0  0  0  0
  1  2  1  0  0  0  0
  2  3  1  0  0  0  0
  4  3  1  0  0  0  0
  4  5  1  0  0  0  0
  6  5  1  0  0  0  0
M  END
>  <EGIN_R>
ES LYS A 135

>  <REMARK>
  4 active torsions:
  status: ('A' for Active; 'I' for Inactive)
    5  A    between atoms: CA   and  CB  
    6  A    between atoms: CB   and  CG  
    7  A    between atoms: CG   and  CD  
    8  A    between atoms: CD   and  CE  

$$$$
