ligand_6_pose_3_2HRL.pdbqt
 OpenBabel07062320523D

 52 53  0  0  1  0  0  0  0  0999 V2000
   29.5650   27.2310   20.2670 N   0  0  0  0  0  0  0  0  0  0  0  0
   28.1720   27.3820   20.1400 C   0  0  0  0  0  0  0  0  0  0  0  0
   27.3770   27.1980   21.0800 O   0  0  0  0  0  0  0  0  0  0  0  0
   30.1470   27.4460   19.3850 H   0  0  0  0  0  0  0  0  0  0  0  0
   30.2320   26.8230   21.4410 C   0  0  0  0  0  0  0  0  0  0  0  0
   31.1040   27.7630   22.1720 C   0  0  2  0  0  0  0  0  0  0  0  0
   32.1890   28.5000   21.5330 C   0  0  2  0  0  0  0  0  0  0  0  0
   32.6200   29.7280   22.3410 C   0  0  2  0  0  0  0  0  0  0  0  0
   33.3810   31.8910   21.9450 C   0  0  2  0  0  0  0  0  0  0  0  0
   33.4400   31.9290   23.4550 C   0  0  0  0  0  0  0  0  0  0  0  0
   32.6830   30.8160   21.4440 O   0  0  0  0  0  0  0  0  0  0  0  0
   34.0460   30.6930   24.0440 C   0  0  1  0  0  0  0  0  0  0  0  0
   33.9630   29.6000   22.9620 C   0  0  1  0  0  0  0  0  0  0  0  0
   34.6820   31.9620   21.4780 O   0  0  0  0  0  0  0  0  0  0  0  0
   34.9340   32.9010   21.3720 H   0  0  0  0  0  0  0  0  0  0  0  0
   32.6630   33.1200   21.5180 C   0  0  0  0  0  0  0  0  0  0  0  0
   31.4370   33.2650   21.7560 O   0  0  0  0  0  0  0  0  0  0  0  0
   33.3240   34.1380   20.8500 O   0  0  0  0  0  0  0  0  0  0  0  0
   33.8310   33.9760   19.9770 H   0  0  0  0  0  0  0  0  0  0  0  0
   35.3350   30.8490   24.4980 O   0  0  0  0  0  0  0  0  0  0  0  0
   35.6980   31.6870   24.1180 H   0  0  0  0  0  0  0  0  0  0  0  0
   34.2010   28.3560   23.6630 N   0  0  0  0  0  0  0  0  0  0  0  0
   35.4970   27.7410   23.6360 C   0  0  0  0  0  0  0  0  0  0  0  0
   33.4670   27.8630   24.2060 H   0  0  0  0  0  0  0  0  0  0  0  0
   35.8120   26.4720   24.3280 C   0  0  0  0  0  0  0  0  0  0  0  0
   36.3940   28.3200   22.9880 O   0  0  0  0  0  0  0  0  0  0  0  0
   31.8890   28.8360   20.2380 O   0  0  0  0  0  0  0  0  0  0  0  0
   31.0990   28.4040   19.8450 H   0  0  0  0  0  0  0  0  0  0  0  0
   31.5260   27.0530   23.3330 O   0  0  0  0  0  0  0  0  0  0  0  0
   32.5170   27.0580   23.3860 H   0  0  0  0  0  0  0  0  0  0  0  0
   27.6750   27.7610   18.8730 O   0  0  0  0  0  0  0  0  0  0  0  0
   27.2350   29.0990   18.7520 C   0  0  0  0  0  0  0  0  0  0  0  0
   28.4160   30.0280   18.7230 C   0  0  0  0  0  0  0  0  0  0  0  0
   28.8680   30.7760   17.6580 C   0  0  0  0  0  0  0  0  0  0  0  0
   29.2740   30.3150   19.7320 N   0  0  0  0  0  0  0  0  0  0  0  0
   29.9620   31.4870   18.0250 N   0  0  0  0  0  0  0  0  0  0  0  0
   30.1630   31.1700   19.2870 N   0  0  0  0  0  0  0  0  0  0  0  0
   30.7190   32.3770   17.2080 C   0  0  0  0  0  0  0  0  0  0  0  0
   31.2460   33.5530   17.6980 C   0  0  0  0  0  0  0  0  0  0  0  0
   30.9580   32.0930   15.8760 C   0  0  0  0  0  0  0  0  0  0  0  0
   31.9770   34.4000   16.8890 C   0  0  0  0  0  0  0  0  0  0  0  0
   31.6900   32.9400   15.0660 C   0  0  0  0  0  0  0  0  0  0  0  0
   32.2180   34.1170   15.5530 C   0  0  0  0  0  0  0  0  0  0  0  0
   32.9670   34.9780   14.7180 N   0  0  0  0  0  0  0  0  0  0  0  0
   32.6500   36.1790   14.6650 O   0  0  0  0  0  0  0  0  0  0  0  0
   34.0280   34.5690   13.9600 O   0  0  0  0  0  0  0  0  0  0  0  0
   29.8670   25.5550   16.9770 C   0  0  0  0  0  0  0  0  0  0  0  0
   28.3450   25.7220   17.0260 C   0  0  0  0  0  0  0  0  0  0  0  0
   27.6010   24.4000   16.9080 C   0  0  0  0  0  0  0  0  0  0  0  0
   26.5220   24.2630   17.9460 C   0  0  0  0  0  0  0  0  0  0  0  0
   25.1690   24.1180   17.2570 C   0  0  0  0  0  0  0  0  0  0  0  0
   24.4540   22.9220   17.7640 N   0  0  0  0  0  0  0  0  0  0  0  0
  1  5  1  0  0  0  0
  2  1  1  0  0  0  0
  2  3  2  0  0  0  0
  4  1  1  0  0  0  0
  6  5  1  6  0  0  0
  6 29  1  0  0  0  0
  7 27  1  6  0  0  0
  7  6  1  0  0  0  0
  8  7  1  6  0  0  0
  8 13  1  0  0  0  0
  9 14  1  6  0  0  0
  9 10  1  0  0  0  0
 10 12  1  0  0  0  0
 11  9  1  0  0  0  0
 11  8  1  0  0  0  0
 12 20  1  6  0  0  0
 13 22  1  1  0  0  0
 13 12  1  0  0  0  0
 15 14  1  0  0  0  0
 16 17  2  0  0  0  0
 16  9  1  0  0  0  0
 18 16  1  0  0  0  0
 19 18  1  0  0  0  0
 21 20  1  0  0  0  0
 22 24  1  0  0  0  0
 23 22  1  0  0  0  0
 23 25  1  0  0  0  0
 26 23  2  0  0  0  0
 28 27  1  0  0  0  0
 29 30  1  0  0  0  0
 31  2  1  0  0  0  0
 32 31  1  0  0  0  0
 33 32  1  0  0  0  0
 33 35  1  0  0  0  0
 34 36  1  0  0  0  0
 34 33  2  0  0  0  0
 36 37  1  0  0  0  0
 37 35  2  0  0  0  0
 38 39  1  0  0  0  0
 38 36  1  0  0  0  0
 40 38  2  0  0  0  0
 41 39  2  0  0  0  0
 42 43  2  0  0  0  0
 42 40  1  0  0  0  0
 43 41  1  0  0  0  0
 44 43  1  0  0  0  0
 45 44  2  0  0  0  0
 46 44  2  0  0  0  0
 47 48  1  0  0  0  0
 49 48  1  0  0  0  0
 49 50  1  0  0  0  0
 51 52  1  0  0  0  0
 51 50  1  0  0  0  0
M  END
>  <REMARK>
 VINA RESULT:    -5.586      1.568      3.322
 INTER + INTRA:         -14.743
 INTER:                  -9.000
 INTRA:                  -5.743
 UNBOUND:                -4.749
 SMILES CC(=O)N[C@@H]1[C@@H](O)C[C@](O)(C(=O)O)O[C@H]1C(O)[C@H](O)CNC(=O)OCc1cn(-c2ccc([N+](=O)[O-])cc2)nn1
 SMILES IDX 21 1 22 2 23 3 20 5 18 6 16 7 15 8 9 9 8 10 14 11 6 12 5 13
 SMILES IDX 10 14 11 16 12 17 13 18 7 20 4 22 2 23 1 25 3 26 17 27 19 29
 SMILES IDX 24 31 25 32 26 33 27 34 39 35 28 36 38 37 29 38 30 39 37 40
 SMILES IDX 31 41 36 42 32 43 33 44 34 45 35 46
 H PARENT 21 4 10 15 13 19 7 21 4 24 17 28 19 30
 Flexibility Score: inf
  4 active torsions:
  status: ('A' for Active; 'I' for Inactive)
    1  A    between atoms: CA   and  CB  
    2  A    between atoms: CB   and  CG  
    3  A    between atoms: CG   and  CD  
    4  A    between atoms: CD   and  CE  

>  <TORSDO>
F 16

>  <BEGIN_>
RES LYS A 131

$$$$
ligand_6_pose_3_2HRL.pdbqt
 OpenBabel07062320523D

  6  5  0  0  0  0  0  0  0  0999 V2000
   33.1930   34.6630    9.2900 C   0  0  0  0  0  0  0  0  0  0  0  0
   32.0600   35.3600   10.0340 C   0  0  0  0  0  0  0  0  0  0  0  0
   30.7140   34.7170    9.8200 C   0  0  0  0  0  0  0  0  0  0  0  0
   30.3850   34.6410    8.3370 C   0  0  0  0  0  0  0  0  0  0  0  0
   29.4940   35.7990    7.9290 C   0  0  0  0  0  0  0  0  0  0  0  0
   28.7910   35.5100    6.6490 N   0  0  0  0  0  0  0  0  0  0  0  0
  1  2  1  0  0  0  0
  3  2  1  0  0  0  0
  4  3  1  0  0  0  0
  5  4  1  0  0  0  0
  6  5  1  0  0  0  0
M  END
>  <EGIN_R>
ES LYS A 135

>  <REMARK>
  4 active torsions:
  status: ('A' for Active; 'I' for Inactive)
    5  A    between atoms: CA   and  CB  
    6  A    between atoms: CB   and  CG  
    7  A    between atoms: CG   and  CD  
    8  A    between atoms: CD   and  CE  

$$$$
