ligand_48_pose_13_2HRL.pdbqt
 OpenBabel07062320523D

 49 50  0  0  1  0  0  0  0  0999 V2000
   29.6620   41.1750    6.9620 C   0  0  0  0  0  0  0  0  0  0  0  0
   29.9830   40.1700    8.0580 C   0  0  2  0  0  0  0  0  0  0  0  0
   29.6370   38.8120    7.5280 C   0  0  1  0  0  0  0  0  0  0  0  0
   28.8440   37.9400    8.4760 C   0  0  2  0  0  0  0  0  0  0  0  0
   29.1130   35.6730    7.9020 C   0  0  2  0  0  0  0  0  0  0  0  0
   27.6120   35.4440    7.9650 C   0  0  0  0  0  0  0  0  0  0  0  0
   29.4330   36.7240    8.6930 O   0  0  0  0  0  0  0  0  0  0  0  0
   26.8550   36.6780    7.5480 C   0  0  1  0  0  0  0  0  0  0  0  0
   27.3750   37.9230    8.2380 C   0  0  1  0  0  0  0  0  0  0  0  0
   29.5440   35.7590    6.5790 O   0  0  0  0  0  0  0  0  0  0  0  0
   29.3340   36.6890    6.2480 H   0  0  0  0  0  0  0  0  0  0  0  0
   29.7190   34.4520    8.5030 C   0  0  0  0  0  0  0  0  0  0  0  0
   29.0090   33.6600    9.1620 O   0  0  0  0  0  0  0  0  0  0  0  0
   31.0490   34.2000    8.3320 O   0  0  0  0  0  0  0  0  0  0  0  0
   31.7530   34.9060    8.1550 H   0  0  0  0  0  0  0  0  0  0  0  0
   26.8490   36.8170    6.1660 O   0  0  0  0  0  0  0  0  0  0  0  0
   26.6880   35.9420    5.7380 H   0  0  0  0  0  0  0  0  0  0  0  0
   26.6330   38.1190    9.4850 N   0  0  0  0  0  0  0  0  0  0  0  0
   26.2810   39.4330    9.8580 C   0  0  0  0  0  0  0  0  0  0  0  0
   26.3640   37.3210   10.0920 H   0  0  0  0  0  0  0  0  0  0  0  0
   25.5240   39.7350   11.1130 C   0  0  0  0  0  0  0  0  0  0  0  0
   26.5830   40.4480    9.1540 O   0  0  0  0  0  0  0  0  0  0  0  0
   29.1880   38.8310    6.2340 O   0  0  0  0  0  0  0  0  0  0  0  0
   29.2120   39.7500    5.8170 H   0  0  0  0  0  0  0  0  0  0  0  0
   29.3090   40.5530    9.1920 O   0  0  0  0  0  0  0  0  0  0  0  0
   28.5130   41.0490    8.9450 H   0  0  0  0  0  0  0  0  0  0  0  0
   28.2680   41.5370    7.0760 N   0  0  0  0  0  0  0  0  0  0  0  0
   27.3280   41.5140    6.0170 C   0  0  0  0  0  0  0  0  0  0  0  0
   27.8690   41.8530    8.0130 H   0  0  0  0  0  0  0  0  0  0  0  0
   27.6990   41.1580    4.8720 O   0  0  0  0  0  0  0  0  0  0  0  0
   26.0000   41.8770    6.2160 O   0  0  0  0  0  0  0  0  0  0  0  0
   24.9720   41.0780    5.6880 C   0  0  0  0  0  0  0  0  0  0  0  0
   24.1160   40.6180    6.8130 C   0  0  0  0  0  0  0  0  0  0  0  0
   23.9090   39.2890    7.2050 C   0  0  0  0  0  0  0  0  0  0  0  0
   23.3690   41.3280    7.6790 N   0  0  0  0  0  0  0  0  0  0  0  0
   23.0740   39.2570    8.2580 N   0  0  0  0  0  0  0  0  0  0  0  0
   22.7610   40.5130    8.5230 N   0  0  0  0  0  0  0  0  0  0  0  0
   22.6060   38.0720    8.9640 C   0  0  0  0  0  0  0  0  0  0  0  0
   21.1370   37.8660    8.6670 C   0  0  0  0  0  0  0  0  0  0  0  0
   23.3590   36.8530    8.4800 C   0  0  0  0  0  0  0  0  0  0  0  0
   20.9210   36.7360    7.6780 C   0  0  0  0  0  0  0  0  0  0  0  0
   22.6590   35.6420    9.0730 C   0  0  0  0  0  0  0  0  0  0  0  0
   21.3850   35.4360    8.2780 C   0  0  0  0  0  0  0  0  0  0  0  0
   29.8670   25.5550   16.9770 C   0  0  0  0  0  0  0  0  0  0  0  0
   28.3450   25.7220   17.0260 C   0  0  0  0  0  0  0  0  0  0  0  0
   27.6010   24.4020   16.8960 C   0  0  0  0  0  0  0  0  0  0  0  0
   26.1570   24.5230   17.2970 C   0  0  0  0  0  0  0  0  0  0  0  0
   25.8070   23.4120   18.2810 C   0  0  0  0  0  0  0  0  0  0  0  0
   25.0200   22.3520   17.6090 N   0  0  0  0  0  0  0  0  0  0  0  0
  1 27  1  0  0  0  0
  2  1  1  6  0  0  0
  2 25  1  0  0  0  0
  3 23  1  6  0  0  0
  3  2  1  0  0  0  0
  4  3  1  6  0  0  0
  4  7  1  0  0  0  0
  5 10  1  6  0  0  0
  5  6  1  0  0  0  0
  5 12  1  0  0  0  0
  5  7  1  0  0  0  0
  8 16  1  6  0  0  0
  8  6  1  0  0  0  0
  8  9  1  0  0  0  0
  9  4  1  0  0  0  0
  9 18  1  1  0  0  0
 11 10  1  0  0  0  0
 12 13  2  0  0  0  0
 14 12  1  0  0  0  0
 15 14  1  0  0  0  0
 17 16  1  0  0  0  0
 18 19  1  0  0  0  0
 18 20  1  0  0  0  0
 19 21  1  0  0  0  0
 22 19  2  0  0  0  0
 24 23  1  0  0  0  0
 26 25  1  0  0  0  0
 27 29  1  0  0  0  0
 28 31  1  0  0  0  0
 28 27  1  0  0  0  0
 30 28  2  0  0  0  0
 32 31  1  0  0  0  0
 32 33  1  0  0  0  0
 33 34  2  0  0  0  0
 33 35  1  0  0  0  0
 34 36  1  0  0  0  0
 35 37  2  0  0  0  0
 36 37  1  0  0  0  0
 36 38  1  0  0  0  0
 39 38  1  0  0  0  0
 40 38  1  0  0  0  0
 40 42  1  0  0  0  0
 41 43  1  0  0  0  0
 41 39  1  0  0  0  0
 43 42  1  0  0  0  0
 44 45  1  0  0  0  0
 46 45  1  0  0  0  0
 46 47  1  0  0  0  0
 47 48  1  0  0  0  0
 49 48  1  0  0  0  0
M  END
>  <REMARK>
 VINA RESULT:    -4.707      8.314     14.524
 INTER + INTRA:         -13.942
 INTER:                  -8.524
 INTRA:                  -5.418
 UNBOUND:                -5.796
 SMILES CC(=O)N[C@@H]1[C@@H](O)C[C@](O)(C(=O)O)O[C@H]1C(O)[C@H](O)CNC(=O)OCc1cn(C2CCCCC2)nn1
 SMILES IDX 20 1 18 2 16 3 15 4 9 5 8 6 14 7 6 8 5 9 10 10 11 12 12 13
 SMILES IDX 13 14 7 16 4 18 2 19 1 21 3 22 17 23 19 25 21 27 22 28 23 30
 SMILES IDX 24 31 25 32 26 33 27 34 36 35 28 36 35 37 29 38 30 39 34 40
 SMILES IDX 31 41 33 42 32 43
 H PARENT 10 11 13 15 7 17 4 20 17 24 19 26 21 29
 Flexibility Score: inf
  4 active torsions:
  status: ('A' for Active; 'I' for Inactive)
    1  A    between atoms: CA   and  CB  
    2  A    between atoms: CB   and  CG  
    3  A    between atoms: CG   and  CD  
    4  A    between atoms: CD   and  CE  

>  <TORSDO>
F 15

>  <BEGIN_>
RES LYS A 131

$$$$
ligand_48_pose_13_2HRL.pdbqt
 OpenBabel07062320523D

  6  5  0  0  0  0  0  0  0  0999 V2000
   33.1930   34.6630    9.2900 C   0  0  0  0  0  0  0  0  0  0  0  0
   32.0600   35.3600   10.0340 C   0  0  0  0  0  0  0  0  0  0  0  0
   32.5210   36.1460   11.2340 C   0  0  0  0  0  0  0  0  0  0  0  0
   31.5510   35.9740   12.3930 C   0  0  0  0  0  0  0  0  0  0  0  0
   30.6140   34.8100   12.1350 C   0  0  0  0  0  0  0  0  0  0  0  0
   29.1910   35.2290   12.2580 N   0  0  0  0  0  0  0  0  0  0  0  0
  1  2  1  0  0  0  0
  2  3  1  0  0  0  0
  3  4  1  0  0  0  0
  5  6  1  0  0  0  0
  5  4  1  0  0  0  0
M  END
>  <EGIN_R>
ES LYS A 135

>  <REMARK>
  4 active torsions:
  status: ('A' for Active; 'I' for Inactive)
    5  A    between atoms: CA   and  CB  
    6  A    between atoms: CB   and  CG  
    7  A    between atoms: CG   and  CD  
    8  A    between atoms: CD   and  CE  

$$$$
