ligand_27_pose_13_2HRL.pdbqt
 OpenBabel07062320523D

 50 51  0  0  1  0  0  0  0  0999 V2000
   22.5880   34.5180   12.6680 C   0  0  0  0  0  0  0  0  0  0  0  0
   21.5330   34.4930   11.6000 C   0  0  2  0  0  0  0  0  0  0  0  0
   21.7430   35.5340   10.5390 C   0  0  2  0  0  0  0  0  0  0  0  0
   20.4060   36.1240   10.0820 C   0  0  2  0  0  0  0  0  0  0  0  0
   19.5160   34.9950    8.2220 C   0  0  2  0  0  0  0  0  0  0  0  0
   19.2470   36.3440    7.5670 C   0  0  0  0  0  0  0  0  0  0  0  0
   19.6670   35.1410    9.5570 O   0  0  0  0  0  0  0  0  0  0  0  0
   20.5510   37.1130    7.7690 C   0  0  1  0  0  0  0  0  0  0  0  0
   20.6960   37.3240    9.2510 C   0  0  1  0  0  0  0  0  0  0  0  0
   20.6240   34.4700    7.5690 O   0  0  0  0  0  0  0  0  0  0  0  0
   20.8990   33.6430    8.0350 H   0  0  0  0  0  0  0  0  0  0  0  0
   18.3630   34.0970    7.9790 C   0  0  0  0  0  0  0  0  0  0  0  0
   17.7110   33.6670    8.9580 O   0  0  0  0  0  0  0  0  0  0  0  0
   17.9680   33.7080    6.7080 O   0  0  0  0  0  0  0  0  0  0  0  0
   17.0460   34.0090    6.3740 H   0  0  0  0  0  0  0  0  0  0  0  0
   21.6490   36.3810    7.3300 O   0  0  0  0  0  0  0  0  0  0  0  0
   22.0760   36.7870    6.5230 H   0  0  0  0  0  0  0  0  0  0  0  0
   19.8230   38.4230    9.6060 N   0  0  0  0  0  0  0  0  0  0  0  0
   20.3390   39.5170   10.3470 C   0  0  0  0  0  0  0  0  0  0  0  0
   18.8000   38.4290    9.3250 H   0  0  0  0  0  0  0  0  0  0  0  0
   19.4370   40.6410   10.7090 C   0  0  0  0  0  0  0  0  0  0  0  0
   21.5490   39.5270   10.6900 O   0  0  0  0  0  0  0  0  0  0  0  0
   22.3580   34.8730    9.4540 O   0  0  0  0  0  0  0  0  0  0  0  0
   23.3220   34.9100    9.5230 H   0  0  0  0  0  0  0  0  0  0  0  0
   20.2790   34.7070   12.2000 O   0  0  0  0  0  0  0  0  0  0  0  0
   20.0790   33.9540   12.7840 H   0  0  0  0  0  0  0  0  0  0  0  0
   23.8350   35.0400   12.1200 N   0  0  0  0  0  0  0  0  0  0  0  0
   25.0760   34.4350   12.4400 C   0  0  0  0  0  0  0  0  0  0  0  0
   23.7830   35.8660   11.4920 H   0  0  0  0  0  0  0  0  0  0  0  0
   25.0910   33.4380   13.2050 O   0  0  0  0  0  0  0  0  0  0  0  0
   26.2830   34.8990   11.9430 O   0  0  0  0  0  0  0  0  0  0  0  0
   26.4040   36.2750   11.6580 C   0  0  0  0  0  0  0  0  0  0  0  0
   26.1600   36.4990   10.2090 C   0  0  0  0  0  0  0  0  0  0  0  0
   26.9060   37.2960    9.3590 C   0  0  0  0  0  0  0  0  0  0  0  0
   25.1840   35.9880    9.4360 N   0  0  0  0  0  0  0  0  0  0  0  0
   26.3750   37.2480    8.1140 N   0  0  0  0  0  0  0  0  0  0  0  0
   25.3290   36.4430    8.2000 N   0  0  0  0  0  0  0  0  0  0  0  0
   26.8490   37.9270    6.9580 C   0  0  0  0  0  0  0  0  0  0  0  0
   27.6760   37.2600    6.0790 C   0  0  0  0  0  0  0  0  0  0  0  0
   26.5230   39.2330    6.6600 C   0  0  0  0  0  0  0  0  0  0  0  0
   28.1630   37.8790    4.9400 C   0  0  0  0  0  0  0  0  0  0  0  0
   26.9900   39.8790    5.5350 C   0  0  0  0  0  0  0  0  0  0  0  0
   27.8160   39.1850    4.6760 C   0  0  0  0  0  0  0  0  0  0  0  0
   26.5470   41.5580    5.1910 Cl  0  0  0  0  0  0  0  0  0  0  0  0
   29.8670   25.5550   16.9770 C   0  0  0  0  0  0  0  0  0  0  0  0
   28.3450   25.7220   17.0260 C   0  0  0  0  0  0  0  0  0  0  0  0
   27.6020   24.3980   16.9310 C   0  0  0  0  0  0  0  0  0  0  0  0
   26.1880   24.5050   17.4300 C   0  0  0  0  0  0  0  0  0  0  0  0
   25.6270   23.1080   17.6750 C   0  0  0  0  0  0  0  0  0  0  0  0
   25.2680   22.9360   19.1020 N   0  0  0  0  0  0  0  0  0  0  0  0
  2 25  1  0  0  0  0
  2  1  1  1  0  0  0
  3 23  1  6  0  0  0
  3  2  1  0  0  0  0
  4  3  1  6  0  0  0
  5 10  1  6  0  0  0
  5  7  1  0  0  0  0
  6  8  1  0  0  0  0
  6  5  1  0  0  0  0
  7  4  1  0  0  0  0
  8 16  1  1  0  0  0
  8  9  1  0  0  0  0
  9 18  1  1  0  0  0
  9  4  1  0  0  0  0
 10 11  1  0  0  0  0
 12  5  1  0  0  0  0
 12 13  2  0  0  0  0
 14 12  1  0  0  0  0
 15 14  1  0  0  0  0
 17 16  1  0  0  0  0
 18 19  1  0  0  0  0
 19 22  2  0  0  0  0
 19 21  1  0  0  0  0
 20 18  1  0  0  0  0
 23 24  1  0  0  0  0
 25 26  1  0  0  0  0
 27 28  1  0  0  0  0
 27  1  1  0  0  0  0
 28 30  2  0  0  0  0
 29 27  1  0  0  0  0
 31 28  1  0  0  0  0
 32 31  1  0  0  0  0
 33 32  1  0  0  0  0
 34 33  2  0  0  0  0
 35 33  1  0  0  0  0
 36 37  1  0  0  0  0
 36 34  1  0  0  0  0
 37 35  2  0  0  0  0
 38 36  1  0  0  0  0
 39 38  2  0  0  0  0
 40 38  1  0  0  0  0
 41 39  1  0  0  0  0
 42 40  2  0  0  0  0
 43 41  2  0  0  0  0
 43 42  1  0  0  0  0
 44 42  1  0  0  0  0
 45 46  1  0  0  0  0
 47 46  1  0  0  0  0
 47 48  1  0  0  0  0
 48 49  1  0  0  0  0
 49 50  1  0  0  0  0
M  END
>  <REMARK>
 VINA RESULT:    -5.465      7.781     13.467
 INTER + INTRA:         -13.955
 INTER:                  -8.501
 INTRA:                  -5.454
 UNBOUND:                -4.497
 SMILES CC(=O)N[C@@H]1[C@@H](O)C[C@](O)(C(=O)O)O[C@H]1C(O)[C@H](O)CNC(=O)OCc1cn(-c2cccc(Cl)c2)nn1
 SMILES IDX 20 1 18 2 16 3 15 4 9 5 8 6 14 7 6 8 5 9 10 10 11 12 12 13
 SMILES IDX 13 14 7 16 4 18 2 19 1 21 3 22 17 23 19 25 21 27 22 28 23 30
 SMILES IDX 24 31 25 32 26 33 27 34 37 35 28 36 36 37 29 38 30 39 35 40
 SMILES IDX 31 41 33 42 32 43 34 44
 H PARENT 10 11 13 15 7 17 4 20 17 24 19 26 21 29
 Flexibility Score: inf
  4 active torsions:
  status: ('A' for Active; 'I' for Inactive)
    1  A    between atoms: CA   and  CB  
    2  A    between atoms: CB   and  CG  
    3  A    between atoms: CG   and  CD  
    4  A    between atoms: CD   and  CE  

>  <TORSDO>
F 15

>  <BEGIN_>
RES LYS A 131

$$$$
ligand_27_pose_13_2HRL.pdbqt
 OpenBabel07062320523D

  6  5  0  0  0  0  0  0  0  0999 V2000
   33.1930   34.6630    9.2900 C   0  0  0  0  0  0  0  0  0  0  0  0
   32.0600   35.3600   10.0340 C   0  0  0  0  0  0  0  0  0  0  0  0
   30.8890   35.7130    9.1540 C   0  0  0  0  0  0  0  0  0  0  0  0
   30.3980   34.4880    8.3970 C   0  0  0  0  0  0  0  0  0  0  0  0
   28.8840   34.4800    8.3210 C   0  0  0  0  0  0  0  0  0  0  0  0
   28.2930   33.7310    9.4640 N   0  0  0  0  0  0  0  0  0  0  0  0
  1  2  1  0  0  0  0
  3  2  1  0  0  0  0
  4  3  1  0  0  0  0
  5  4  1  0  0  0  0
  5  6  1  0  0  0  0
M  END
>  <EGIN_R>
ES LYS A 135

>  <REMARK>
  4 active torsions:
  status: ('A' for Active; 'I' for Inactive)
    5  A    between atoms: CA   and  CB  
    6  A    between atoms: CB   and  CG  
    7  A    between atoms: CG   and  CD  
    8  A    between atoms: CD   and  CE  

$$$$
