ligand_57_pose_1_2HRL.pdbqt
 OpenBabel07062320523D

 50 51  0  0  1  0  0  0  0  0999 V2000
   29.9740   31.3670   17.9460 C   0  0  0  0  0  0  0  0  0  0  0  0
   30.5920   31.1850   16.6000 C   0  0  2  0  0  0  0  0  0  0  0  0
   31.0380   32.4940   15.9820 C   0  0  2  0  0  0  0  0  0  0  0  0
   29.9070   33.4980   16.0460 C   0  0  2  0  0  0  0  0  0  0  0  0
   27.6960   33.8940   15.4070 C   0  0  2  0  0  0  0  0  0  0  0  0
   28.0450   35.2840   14.9710 C   0  0  0  0  0  0  0  0  0  0  0  0
   28.7400   33.0260   15.5330 O   0  0  0  0  0  0  0  0  0  0  0  0
   29.2600   35.8010   15.6940 C   0  0  1  0  0  0  0  0  0  0  0  0
   30.3780   34.7900   15.4560 C   0  0  1  0  0  0  0  0  0  0  0  0
   26.7270   33.3920   14.4930 O   0  0  0  0  0  0  0  0  0  0  0  0
   26.9000   33.7200   13.5770 H   0  0  0  0  0  0  0  0  0  0  0  0
   27.0280   33.9770   16.7310 C   0  0  0  0  0  0  0  0  0  0  0  0
   26.7660   35.1010   17.2300 O   0  0  0  0  0  0  0  0  0  0  0  0
   26.6560   32.8780   17.4910 O   0  0  0  0  0  0  0  0  0  0  0  0
   26.9360   32.7640   18.4650 H   0  0  0  0  0  0  0  0  0  0  0  0
   29.6550   37.0510   15.2100 O   0  0  0  0  0  0  0  0  0  0  0  0
   29.2310   37.2730   14.3520 H   0  0  0  0  0  0  0  0  0  0  0  0
   31.5150   35.3060   16.2290 N   0  0  0  0  0  0  0  0  0  0  0  0
   32.8080   35.4140   15.6810 C   0  0  0  0  0  0  0  0  0  0  0  0
   31.3210   35.5890   17.1980 H   0  0  0  0  0  0  0  0  0  0  0  0
   33.9630   35.9460   16.4870 C   0  0  0  0  0  0  0  0  0  0  0  0
   32.9850   35.0520   14.4890 O   0  0  0  0  0  0  0  0  0  0  0  0
   31.4640   32.2540   14.6960 O   0  0  0  0  0  0  0  0  0  0  0  0
   31.4820   33.0930   14.1690 H   0  0  0  0  0  0  0  0  0  0  0  0
   29.6160   30.6230   15.7430 O   0  0  0  0  0  0  0  0  0  0  0  0
   29.1740   31.3290   15.2010 H   0  0  0  0  0  0  0  0  0  0  0  0
   28.6420   30.8020   17.9250 N   0  0  0  0  0  0  0  0  0  0  0  0
   28.1600   29.8470   18.8610 C   0  0  0  0  0  0  0  0  0  0  0  0
   27.9290   31.0790   17.1850 H   0  0  0  0  0  0  0  0  0  0  0  0
   28.9100   29.4560   19.7680 O   0  0  0  0  0  0  0  0  0  0  0  0
   26.8720   29.3310   18.7990 O   0  0  0  0  0  0  0  0  0  0  0  0
   26.4570   28.5640   17.6860 C   0  0  0  0  0  0  0  0  0  0  0  0
   25.8320   29.4310   16.6540 C   0  0  0  0  0  0  0  0  0  0  0  0
   24.5150   29.5220   16.3070 C   0  0  0  0  0  0  0  0  0  0  0  0
   26.4800   30.3010   15.8570 N   0  0  0  0  0  0  0  0  0  0  0  0
   24.3820   30.4280   15.3240 N   0  0  0  0  0  0  0  0  0  0  0  0
   25.6120   30.8860   15.0740 N   0  0  0  0  0  0  0  0  0  0  0  0
   23.1460   30.8150   14.6810 C   0  0  0  0  0  0  0  0  0  0  0  0
   22.0010   29.9190   15.0990 C   0  0  0  0  0  0  0  0  0  0  0  0
   23.3010   30.8910   13.1920 C   0  0  0  0  0  0  0  0  0  0  0  0
   21.9380   28.6460   14.2890 C   0  0  0  0  0  0  0  0  0  0  0  0
   23.2560   29.5620   12.5040 C   0  0  0  0  0  0  0  0  0  0  0  0
   22.0590   28.8740   12.8800 N   0  0  0  0  0  0  0  0  0  0  0  0
   20.9180   29.5350   12.3130 C   0  0  0  0  0  0  0  0  0  0  0  0
   29.8670   25.5550   16.9770 C   0  0  0  0  0  0  0  0  0  0  0  0
   28.3450   25.7220   17.0260 C   0  0  0  0  0  0  0  0  0  0  0  0
   27.5990   24.4780   16.5680 C   0  0  0  0  0  0  0  0  0  0  0  0
   26.9730   23.7380   17.7180 C   0  0  0  0  0  0  0  0  0  0  0  0
   26.2150   24.7220   18.6040 C   0  0  0  0  0  0  0  0  0  0  0  0
   25.5290   24.0060   19.7050 N   0  0  0  0  0  0  0  0  0  0  0  0
  2  1  1  1  0  0  0
  3 23  1  6  0  0  0
  3  2  1  0  0  0  0
  4  3  1  6  0  0  0
  5 10  1  6  0  0  0
  5  7  1  0  0  0  0
  5 12  1  0  0  0  0
  6  5  1  0  0  0  0
  6  8  1  0  0  0  0
  7  4  1  0  0  0  0
  8 16  1  6  0  0  0
  9  8  1  0  0  0  0
  9  4  1  0  0  0  0
  9 18  1  1  0  0  0
 11 10  1  0  0  0  0
 12 13  2  0  0  0  0
 12 14  1  0  0  0  0
 14 15  1  0  0  0  0
 17 16  1  0  0  0  0
 18 20  1  0  0  0  0
 19 18  1  0  0  0  0
 19 21  1  0  0  0  0
 22 19  2  0  0  0  0
 24 23  1  0  0  0  0
 25  2  1  0  0  0  0
 26 25  1  0  0  0  0
 27  1  1  0  0  0  0
 27 28  1  0  0  0  0
 28 30  2  0  0  0  0
 29 27  1  0  0  0  0
 31 28  1  0  0  0  0
 32 31  1  0  0  0  0
 33 32  1  0  0  0  0
 34 33  2  0  0  0  0
 35 33  1  0  0  0  0
 36 34  1  0  0  0  0
 37 36  1  0  0  0  0
 37 35  2  0  0  0  0
 38 39  1  0  0  0  0
 38 36  1  0  0  0  0
 40 38  1  0  0  0  0
 41 39  1  0  0  0  0
 42 43  1  0  0  0  0
 42 40  1  0  0  0  0
 43 41  1  0  0  0  0
 44 43  1  0  0  0  0
 45 46  1  0  0  0  0
 47 46  1  0  0  0  0
 47 48  1  0  0  0  0
 48 49  1  0  0  0  0
 49 50  1  0  0  0  0
M  END
>  <REMARK>
 VINA RESULT:    -4.884      3.702      8.243
 INTER + INTRA:         -14.240
 INTER:                  -8.001
 INTRA:                  -6.238
 UNBOUND:                -5.786
 SMILES CC(=O)N[C@@H]1[C@@H](O)C[C@](O)(C(=O)O)O[C@H]1C(O)[C@H](O)CNC(=O)OCc1cn(C2CCN(C)CC2)nn1
 SMILES IDX 20 1 18 2 16 3 15 4 9 5 8 6 14 7 6 8 5 9 10 10 11 12 12 13
 SMILES IDX 13 14 7 16 4 18 2 19 1 21 3 22 17 23 19 25 21 27 22 28 23 30
 SMILES IDX 24 31 25 32 26 33 27 34 37 35 28 36 36 37 29 38 30 39 35 40
 SMILES IDX 31 41 34 42 32 43 33 44
 H PARENT 10 11 13 15 7 17 4 20 17 24 19 26 21 29
 Flexibility Score: inf
  4 active torsions:
  status: ('A' for Active; 'I' for Inactive)
    1  A    between atoms: CA   and  CB  
    2  A    between atoms: CB   and  CG  
    3  A    between atoms: CG   and  CD  
    4  A    between atoms: CD   and  CE  

>  <TORSDO>
F 15

>  <BEGIN_>
RES LYS A 131

$$$$
ligand_57_pose_1_2HRL.pdbqt
 OpenBabel07062320523D

  6  5  0  0  0  0  0  0  0  0999 V2000
   33.1930   34.6630    9.2900 C   0  0  0  0  0  0  0  0  0  0  0  0
   32.0600   35.3600   10.0340 C   0  0  0  0  0  0  0  0  0  0  0  0
   30.7840   35.4540    9.2370 C   0  0  0  0  0  0  0  0  0  0  0  0
   30.2060   34.0710    8.9840 C   0  0  0  0  0  0  0  0  0  0  0  0
   28.6920   34.1030    9.0650 C   0  0  0  0  0  0  0  0  0  0  0  0
   28.1140   34.9270    7.9670 N   0  0  0  0  0  0  0  0  0  0  0  0
  1  2  1  0  0  0  0
  3  2  1  0  0  0  0
  4  5  1  0  0  0  0
  4  3  1  0  0  0  0
  6  5  1  0  0  0  0
M  END
>  <EGIN_R>
ES LYS A 135

>  <REMARK>
  4 active torsions:
  status: ('A' for Active; 'I' for Inactive)
    5  A    between atoms: CA   and  CB  
    6  A    between atoms: CB   and  CG  
    7  A    between atoms: CG   and  CD  
    8  A    between atoms: CD   and  CE  

$$$$
