ligand_76_pose_1_2HRL.pdbqt
 OpenBabel07062320523D

 55 56  0  0  1  0  0  0  0  0999 V2000
   26.2300   35.2320   12.2980 O   0  0  0  0  0  0  0  0  0  0  0  0
   24.9270   34.8650   12.5870 C   0  0  0  0  0  0  0  0  0  0  0  0
   23.8600   35.7590   12.3660 N   0  0  0  0  0  0  0  0  0  0  0  0
   24.0610   36.7010   11.9830 H   0  0  0  0  0  0  0  0  0  0  0  0
   24.6860   33.7270   13.0500 O   0  0  0  0  0  0  0  0  0  0  0  0
   22.4760   35.4120   12.6540 C   0  0  0  0  0  0  0  0  0  0  0  0
   21.5350   36.5070   12.1850 C   0  0  2  0  0  0  0  0  0  0  0  0
   20.7050   35.9570   11.0360 C   0  0  1  0  0  0  0  0  0  0  0  0
   20.8210   36.8750    9.8160 C   0  0  2  0  0  0  0  0  0  0  0  0
   18.7090   37.3220    8.9260 C   0  0  2  0  0  0  0  0  0  0  0  0
   18.7950   35.9870    8.2740 C   0  0  0  0  0  0  0  0  0  0  0  0
   19.7730   37.7100    9.6590 O   0  0  0  0  0  0  0  0  0  0  0  0
   20.1330   35.6760    7.7040 C   0  0  1  0  0  0  0  0  0  0  0  0
   21.2530   36.0740    8.6280 C   0  0  1  0  0  0  0  0  0  0  0  0
   17.5780   37.2920    9.7790 O   0  0  0  0  0  0  0  0  0  0  0  0
   17.6350   36.4970   10.3690 H   0  0  0  0  0  0  0  0  0  0  0  0
   18.3780   38.3300    7.8570 C   0  0  0  0  0  0  0  0  0  0  0  0
   18.4760   39.5670    8.0340 O   0  0  0  0  0  0  0  0  0  0  0  0
   17.9380   37.9230    6.5930 O   0  0  0  0  0  0  0  0  0  0  0  0
   16.9890   37.5420    6.4750 H   0  0  0  0  0  0  0  0  0  0  0  0
   20.1770   34.2970    7.3940 O   0  0  0  0  0  0  0  0  0  0  0  0
   19.3370   33.8440    7.7040 H   0  0  0  0  0  0  0  0  0  0  0  0
   22.3210   36.7670    7.9030 N   0  0  0  0  0  0  0  0  0  0  0  0
   23.6300   36.8320    8.4020 C   0  0  0  0  0  0  0  0  0  0  0  0
   22.0450   37.2160    6.9810 H   0  0  0  0  0  0  0  0  0  0  0  0
   24.6700   37.5420    7.6370 C   0  0  0  0  0  0  0  0  0  0  0  0
   23.9220   36.2950    9.4870 O   0  0  0  0  0  0  0  0  0  0  0  0
   21.3480   34.7680   10.6510 O   0  0  0  0  0  0  0  0  0  0  0  0
   21.5440   34.7570    9.6660 H   0  0  0  0  0  0  0  0  0  0  0  0
   22.2620   37.6130   11.7640 O   0  0  0  0  0  0  0  0  0  0  0  0
   21.8810   38.4030   12.2150 H   0  0  0  0  0  0  0  0  0  0  0  0
   26.5560   36.6160   12.5080 C   0  0  0  0  0  0  0  0  0  0  0  0
   27.3870   37.1170   11.3910 C   0  0  0  0  0  0  0  0  0  0  0  0
   27.0140   37.8380   10.2810 C   0  0  0  0  0  0  0  0  0  0  0  0
   28.7150   36.9320   11.2910 N   0  0  0  0  0  0  0  0  0  0  0  0
   28.1100   38.0690    9.5440 N   0  0  0  0  0  0  0  0  0  0  0  0
   29.1130   37.5250   10.1580 N   0  0  0  0  0  0  0  0  0  0  0  0
   28.2000   38.8040    8.2630 C   0  0  0  0  0  0  0  0  0  0  0  0
   29.0590   38.0100    7.3280 C   0  0  2  0  0  0  0  0  0  0  0  0
   30.3440   38.5560    7.2070 O   0  0  0  0  0  0  0  0  0  0  0  0
   30.4330   38.8930    6.2690 H   0  0  0  0  0  0  0  0  0  0  0  0
   28.4400   37.4750    6.1360 C   0  0  0  0  0  0  0  0  0  0  0  0
   28.2240   36.0280    6.0160 C   0  0  0  0  0  0  0  0  0  0  0  0
   28.1770   35.2960    7.2710 C   0  0  0  0  0  0  0  0  0  0  0  0
   29.3830   34.8320    7.8100 C   0  0  0  0  0  0  0  0  0  0  0  0
   27.0480   34.9530    7.9480 C   0  0  0  0  0  0  0  0  0  0  0  0
   29.4040   34.0750    8.9580 C   0  0  0  0  0  0  0  0  0  0  0  0
   27.0480   34.1930    9.1050 C   0  0  0  0  0  0  0  0  0  0  0  0
   28.2460   33.7440    9.6220 C   0  0  0  0  0  0  0  0  0  0  0  0
   29.8670   25.5550   16.9770 C   0  0  0  0  0  0  0  0  0  0  0  0
   28.3450   25.7220   17.0260 C   0  0  0  0  0  0  0  0  0  0  0  0
   27.6010   24.4020   16.8920 C   0  0  0  0  0  0  0  0  0  0  0  0
   26.5020   24.2650   17.9080 C   0  0  0  0  0  0  0  0  0  0  0  0
   25.1580   24.5530   17.2470 C   0  0  0  0  0  0  0  0  0  0  0  0
   24.6620   25.8920   17.6420 N   0  0  0  0  0  0  0  0  0  0  0  0
  1 32  1  0  0  0  0
  1  2  1  0  0  0  0
  2  5  2  0  0  0  0
  3  2  1  0  0  0  0
  3  6  1  0  0  0  0
  4  3  1  0  0  0  0
  7  6  1  6  0  0  0
  8 28  1  6  0  0  0
  8  7  1  0  0  0  0
  9  8  1  1  0  0  0
 10 17  1  6  0  0  0
 10 12  1  0  0  0  0
 10 15  1  0  0  0  0
 11 10  1  0  0  0  0
 12  9  1  0  0  0  0
 13 21  1  1  0  0  0
 13 11  1  0  0  0  0
 13 14  1  0  0  0  0
 14 23  1  6  0  0  0
 14  9  1  0  0  0  0
 15 16  1  0  0  0  0
 17 18  2  0  0  0  0
 19 17  1  0  0  0  0
 20 19  1  0  0  0  0
 21 22  1  0  0  0  0
 23 24  1  0  0  0  0
 24 27  2  0  0  0  0
 25 23  1  0  0  0  0
 26 24  1  0  0  0  0
 29 28  1  0  0  0  0
 30  7  1  0  0  0  0
 30 31  1  0  0  0  0
 33 32  1  0  0  0  0
 34 33  2  0  0  0  0
 35 33  1  0  0  0  0
 36 37  1  0  0  0  0
 36 34  1  0  0  0  0
 37 35  2  0  0  0  0
 38 36  1  0  0  0  0
 39 42  1  6  0  0  0
 39 38  1  0  0  0  0
 40 39  1  0  0  0  0
 41 40  1  0  0  0  0
 43 42  1  0  0  0  0
 43 44  1  0  0  0  0
 44 45  2  0  0  0  0
 44 46  1  0  0  0  0
 45 47  1  0  0  0  0
 46 48  2  0  0  0  0
 47 49  2  0  0  0  0
 48 49  1  0  0  0  0
 50 51  1  0  0  0  0
 52 51  1  0  0  0  0
 52 53  1  0  0  0  0
 54 55  1  0  0  0  0
 54 53  1  0  0  0  0
M  END
>  <REMARK>
 VINA RESULT:    -5.230      1.923      2.675
 INTER + INTRA:         -17.198
 INTER:                 -11.697
 INTRA:                  -5.501
 UNBOUND:                -6.771
 SMILES CC(=O)N[C@@H]1[C@@H](O)C[C@](O)(C(=O)O)O[C@H]1C(O)[C@H](O)CNC(=O)OCc1cn(CC(O)CCc2ccccc2)nn1
 SMILES IDX 24 1 22 2 21 3 23 5 20 6 18 7 16 8 15 9 9 10 8 11 14 12 6 13
 SMILES IDX 5 14 10 15 11 17 12 18 13 19 7 21 4 23 2 24 1 26 3 27 17 28
 SMILES IDX 19 30 25 32 26 33 27 34 41 35 28 36 40 37 29 38 30 39 31 40
 SMILES IDX 32 42 33 43 34 44 35 45 39 46 36 47 38 48 37 49
 H PARENT 21 4 10 16 13 20 7 22 4 25 17 29 19 31 31 41
 Flexibility Score: inf
  4 active torsions:
  status: ('A' for Active; 'I' for Inactive)
    1  A    between atoms: CA   and  CB  
    2  A    between atoms: CB   and  CG  
    3  A    between atoms: CG   and  CD  
    4  A    between atoms: CD   and  CE  

>  <TORSDO>
F 20

>  <BEGIN_>
RES LYS A 131

$$$$
ligand_76_pose_1_2HRL.pdbqt
 OpenBabel07062320523D

  6  5  0  0  0  0  0  0  0  0999 V2000
   33.1930   34.6630    9.2900 C   0  0  0  0  0  0  0  0  0  0  0  0
   32.0600   35.3600   10.0340 C   0  0  0  0  0  0  0  0  0  0  0  0
   32.2090   35.3200   11.5330 C   0  0  0  0  0  0  0  0  0  0  0  0
   32.2840   36.7280   12.1030 C   0  0  0  0  0  0  0  0  0  0  0  0
   31.5430   36.8080   13.4240 C   0  0  0  0  0  0  0  0  0  0  0  0
   32.4660   36.5780   14.5710 N   0  0  0  0  0  0  0  0  0  0  0  0
  1  2  1  0  0  0  0
  2  3  1  0  0  0  0
  3  4  1  0  0  0  0
  4  5  1  0  0  0  0
  5  6  1  0  0  0  0
M  END
>  <EGIN_R>
ES LYS A 135

>  <REMARK>
  4 active torsions:
  status: ('A' for Active; 'I' for Inactive)
    5  A    between atoms: CA   and  CB  
    6  A    between atoms: CB   and  CG  
    7  A    between atoms: CG   and  CD  
    8  A    between atoms: CD   and  CE  

$$$$
