ligand_49_pose_11_2HRL.pdbqt
 OpenBabel07062320523D

 48 49  0  0  1  0  0  0  0  0999 V2000
   28.5950   28.0320   20.6060 C   0  0  0  0  0  0  0  0  0  0  0  0
   29.9970   27.8470   21.1160 C   0  0  2  0  0  0  0  0  0  0  0  0
   30.8310   28.9450   20.4840 C   0  0  1  0  0  0  0  0  0  0  0  0
   30.7310   30.2400   21.2260 C   0  0  2  0  0  0  0  0  0  0  0  0
   29.6890   32.3070   21.1040 C   0  0  2  0  0  0  0  0  0  0  0  0
   30.4990   32.4990   22.3780 C   0  0  0  0  0  0  0  0  0  0  0  0
   30.2260   31.2220   20.4070 O   0  0  0  0  0  0  0  0  0  0  0  0
   31.9410   32.1870   22.0350 C   0  0  1  0  0  0  0  0  0  0  0  0
   32.0240   30.6770   21.8550 C   0  0  1  0  0  0  0  0  0  0  0  0
   29.8190   33.4800   20.3710 O   0  0  0  0  0  0  0  0  0  0  0  0
   30.5820   33.9960   20.7790 H   0  0  0  0  0  0  0  0  0  0  0  0
   28.2670   32.0740   21.3830 C   0  0  0  0  0  0  0  0  0  0  0  0
   27.7670   32.3320   22.5070 O   0  0  0  0  0  0  0  0  0  0  0  0
   27.4290   31.5600   20.4080 O   0  0  0  0  0  0  0  0  0  0  0  0
   27.3020   30.5490   20.2700 H   0  0  0  0  0  0  0  0  0  0  0  0
   32.2120   32.8190   20.8100 O   0  0  0  0  0  0  0  0  0  0  0  0
   32.0530   33.7900   20.9450 H   0  0  0  0  0  0  0  0  0  0  0  0
   32.2360   30.0670   23.1530 N   0  0  0  0  0  0  0  0  0  0  0  0
   33.4400   29.3920   23.4500 C   0  0  0  0  0  0  0  0  0  0  0  0
   31.4990   30.1220   23.8790 H   0  0  0  0  0  0  0  0  0  0  0  0
   33.7230   28.7460   24.7560 C   0  0  0  0  0  0  0  0  0  0  0  0
   34.3200   29.3350   22.5610 O   0  0  0  0  0  0  0  0  0  0  0  0
   32.1580   28.5170   20.5440 O   0  0  0  0  0  0  0  0  0  0  0  0
   32.5420   28.5500   21.4420 H   0  0  0  0  0  0  0  0  0  0  0  0
   30.5130   26.6170   20.7810 O   0  0  0  0  0  0  0  0  0  0  0  0
   31.2920   26.4170   21.3660 H   0  0  0  0  0  0  0  0  0  0  0  0
   28.4600   28.1730   19.1910 N   0  0  0  0  0  0  0  0  0  0  0  0
   27.3330   28.6480   18.5110 C   0  0  0  0  0  0  0  0  0  0  0  0
   29.3080   27.8830   18.6060 H   0  0  0  0  0  0  0  0  0  0  0  0
   26.3120   28.9920   19.1490 O   0  0  0  0  0  0  0  0  0  0  0  0
   27.3370   28.7440   17.1070 O   0  0  0  0  0  0  0  0  0  0  0  0
   26.8560   29.9470   16.5380 C   0  0  0  0  0  0  0  0  0  0  0  0
   27.7780   31.0410   16.9170 C   0  0  0  0  0  0  0  0  0  0  0  0
   29.1290   31.0530   16.5990 C   0  0  0  0  0  0  0  0  0  0  0  0
   27.5510   32.1640   17.5890 N   0  0  0  0  0  0  0  0  0  0  0  0
   29.6510   32.1770   17.0910 N   0  0  0  0  0  0  0  0  0  0  0  0
   28.6820   32.8420   17.6900 N   0  0  0  0  0  0  0  0  0  0  0  0
   31.0560   32.5430   16.9550 C   0  0  0  0  0  0  0  0  0  0  0  0
   31.4060   32.4730   15.4960 C   0  0  0  0  0  0  0  0  0  0  0  0
   31.2290   33.9830   17.3860 C   0  0  0  0  0  0  0  0  0  0  0  0
   31.9340   33.8180   15.1140 C   0  0  0  0  0  0  0  0  0  0  0  0
   31.2690   34.7590   16.0810 C   0  0  0  0  0  0  0  0  0  0  0  0
   29.8670   25.5550   16.9770 C   0  0  0  0  0  0  0  0  0  0  0  0
   28.3450   25.7220   17.0260 C   0  0  0  0  0  0  0  0  0  0  0  0
   27.6020   24.3990   16.9210 C   0  0  0  0  0  0  0  0  0  0  0  0
   26.1400   24.5430   17.2440 C   0  0  0  0  0  0  0  0  0  0  0  0
   25.9830   25.2810   18.5700 C   0  0  0  0  0  0  0  0  0  0  0  0
   25.5650   24.3440   19.6390 N   0  0  0  0  0  0  0  0  0  0  0  0
  2  1  1  6  0  0  0
  3 23  1  1  0  0  0
  3  2  1  0  0  0  0
  4  3  1  6  0  0  0
  4  9  1  0  0  0  0
  5 10  1  6  0  0  0
  5 12  1  0  0  0  0
  5  6  1  0  0  0  0
  7  5  1  0  0  0  0
  7  4  1  0  0  0  0
  8 16  1  6  0  0  0
  8  6  1  0  0  0  0
  9  8  1  0  0  0  0
  9 18  1  1  0  0  0
 10 11  1  0  0  0  0
 12 13  2  0  0  0  0
 14 12  1  0  0  0  0
 15 14  1  0  0  0  0
 16 17  1  0  0  0  0
 18 19  1  0  0  0  0
 18 20  1  0  0  0  0
 19 21  1  0  0  0  0
 22 19  2  0  0  0  0
 23 24  1  0  0  0  0
 25  2  1  0  0  0  0
 25 26  1  0  0  0  0
 27  1  1  0  0  0  0
 28 30  2  0  0  0  0
 28 27  1  0  0  0  0
 29 27  1  0  0  0  0
 31 28  1  0  0  0  0
 32 33  1  0  0  0  0
 32 31  1  0  0  0  0
 33 35  1  0  0  0  0
 34 33  2  0  0  0  0
 34 36  1  0  0  0  0
 35 37  2  0  0  0  0
 36 37  1  0  0  0  0
 38 36  1  0  0  0  0
 38 40  1  0  0  0  0
 39 38  1  0  0  0  0
 41 39  1  0  0  0  0
 41 42  1  0  0  0  0
 42 40  1  0  0  0  0
 43 44  1  0  0  0  0
 45 44  1  0  0  0  0
 45 46  1  0  0  0  0
 46 47  1  0  0  0  0
 47 48  1  0  0  0  0
M  END
>  <REMARK>
 VINA RESULT:    -4.946      3.613      6.454
 INTER + INTRA:         -13.587
 INTER:                  -6.988
 INTRA:                  -6.599
 UNBOUND:                -5.026
 SMILES CC(=O)N[C@@H]1[C@@H](O)C[C@](O)(C(=O)O)O[C@H]1C(O)[C@H](O)CNC(=O)OCc1cn(C2CCCC2)nn1
 SMILES IDX 20 1 18 2 16 3 15 4 9 5 8 6 14 7 6 8 5 9 10 10 11 12 12 13
 SMILES IDX 13 14 7 16 4 18 2 19 1 21 3 22 17 23 19 25 21 27 22 28 23 30
 SMILES IDX 24 31 25 32 26 33 27 34 35 35 28 36 34 37 29 38 30 39 33 40
 SMILES IDX 31 41 32 42
 H PARENT 10 11 13 15 7 17 4 20 17 24 19 26 21 29
 Flexibility Score: inf
  4 active torsions:
  status: ('A' for Active; 'I' for Inactive)
    1  A    between atoms: CA   and  CB  
    2  A    between atoms: CB   and  CG  
    3  A    between atoms: CG   and  CD  
    4  A    between atoms: CD   and  CE  

>  <TORSDO>
F 15

>  <BEGIN_>
RES LYS A 131

$$$$
ligand_49_pose_11_2HRL.pdbqt
 OpenBabel07062320523D

  6  5  0  0  0  0  0  0  0  0999 V2000
   33.1930   34.6630    9.2900 C   0  0  0  0  0  0  0  0  0  0  0  0
   32.0600   35.3600   10.0340 C   0  0  0  0  0  0  0  0  0  0  0  0
   30.7090   34.7370    9.7950 C   0  0  0  0  0  0  0  0  0  0  0  0
   30.5160   34.4240    8.3190 C   0  0  0  0  0  0  0  0  0  0  0  0
   29.3300   35.1890    7.7630 C   0  0  0  0  0  0  0  0  0  0  0  0
   28.0450   34.6190    8.2560 N   0  0  0  0  0  0  0  0  0  0  0  0
  1  2  1  0  0  0  0
  3  2  1  0  0  0  0
  4  3  1  0  0  0  0
  5  6  1  0  0  0  0
  5  4  1  0  0  0  0
M  END
>  <EGIN_R>
ES LYS A 135

>  <REMARK>
  4 active torsions:
  status: ('A' for Active; 'I' for Inactive)
    5  A    between atoms: CA   and  CB  
    6  A    between atoms: CB   and  CG  
    7  A    between atoms: CG   and  CD  
    8  A    between atoms: CD   and  CE  

$$$$
