ligand_4_pose_4_2HRL.pdbqt
 OpenBabel07062320523D

 52 53  0  0  1  0  0  0  0  0999 V2000
   29.3110   34.5380   15.4090 N   0  0  0  0  0  0  0  0  0  0  0  0
   28.2160   34.9710   16.1820 C   0  0  0  0  0  0  0  0  0  0  0  0
   28.1520   34.7330   17.4050 O   0  0  0  0  0  0  0  0  0  0  0  0
   29.3170   34.7800   14.3810 H   0  0  0  0  0  0  0  0  0  0  0  0
   30.3930   33.8010   15.9640 C   0  0  0  0  0  0  0  0  0  0  0  0
   30.3840   32.3110   15.6260 C   0  0  2  0  0  0  0  0  0  0  0  0
   30.2210   31.6450   16.9950 C   0  0  2  0  0  0  0  0  0  0  0  0
   29.0180   30.7610   17.0750 C   0  0  2  0  0  0  0  0  0  0  0  0
   26.7900   31.3240   17.3880 C   0  0  2  0  0  0  0  0  0  0  0  0
   26.5340   30.0780   18.1590 C   0  0  0  0  0  0  0  0  0  0  0  0
   27.9110   31.3910   16.6160 O   0  0  0  0  0  0  0  0  0  0  0  0
   27.7600   29.3990   18.7310 C   0  0  1  0  0  0  0  0  0  0  0  0
   28.9020   30.3520   18.5360 C   0  0  1  0  0  0  0  0  0  0  0  0
   26.6850   32.4460   18.2500 O   0  0  0  0  0  0  0  0  0  0  0  0
   25.8230   32.8970   18.1960 H   0  0  0  0  0  0  0  0  0  0  0  0
   25.6380   31.4640   16.4240 C   0  0  0  0  0  0  0  0  0  0  0  0
   24.5450   31.8780   16.8660 O   0  0  0  0  0  0  0  0  0  0  0  0
   25.7420   31.1630   15.0720 O   0  0  0  0  0  0  0  0  0  0  0  0
   26.3670   31.6370   14.4240 H   0  0  0  0  0  0  0  0  0  0  0  0
   27.5450   29.2150   20.1330 O   0  0  0  0  0  0  0  0  0  0  0  0
   27.8030   28.3040   20.4100 H   0  0  0  0  0  0  0  0  0  0  0  0
   30.1650   30.0140   19.0630 N   0  0  0  0  0  0  0  0  0  0  0  0
   30.6190   30.3320   20.3670 C   0  0  0  0  0  0  0  0  0  0  0  0
   30.8600   29.4730   18.4450 H   0  0  0  0  0  0  0  0  0  0  0  0
   31.9400   29.9700   20.8960 C   0  0  0  0  0  0  0  0  0  0  0  0
   29.7730   30.9970   21.1030 O   0  0  0  0  0  0  0  0  0  0  0  0
   30.1910   32.7040   17.9060 O   0  0  0  0  0  0  0  0  0  0  0  0
   29.8380   33.4950   17.4210 H   0  0  0  0  0  0  0  0  0  0  0  0
   31.5160   31.8690   15.0250 O   0  0  0  0  0  0  0  0  0  0  0  0
   31.3790   31.1570   14.4040 H   0  0  0  0  0  0  0  0  0  0  0  0
   27.1670   35.6830   15.5980 O   0  0  0  0  0  0  0  0  0  0  0  0
   25.8730   35.1010   15.6430 C   0  0  0  0  0  0  0  0  0  0  0  0
   25.5660   34.7080   14.2450 C   0  0  0  0  0  0  0  0  0  0  0  0
   26.1900   35.2710   13.1240 C   0  0  0  0  0  0  0  0  0  0  0  0
   24.7720   33.7230   13.7980 N   0  0  0  0  0  0  0  0  0  0  0  0
   25.7290   34.5720   12.0700 N   0  0  0  0  0  0  0  0  0  0  0  0
   24.9190   33.6920   12.5000 N   0  0  0  0  0  0  0  0  0  0  0  0
   26.2110   34.7350   10.7500 C   0  0  0  0  0  0  0  0  0  0  0  0
   25.4720   35.3700    9.8270 C   0  0  0  0  0  0  0  0  0  0  0  0
   27.3910   34.0730   10.3790 C   0  0  0  0  0  0  0  0  0  0  0  0
   25.8930   35.3620    8.4980 C   0  0  0  0  0  0  0  0  0  0  0  0
   27.8120   34.0550    9.1010 C   0  0  0  0  0  0  0  0  0  0  0  0
   27.0710   34.7020    8.1220 C   0  0  0  0  0  0  0  0  0  0  0  0
   24.3260   36.1730   10.2020 C   0  0  0  0  0  0  0  0  0  0  0  0
   23.0050   35.5300    9.8090 C   0  0  0  0  0  0  0  0  0  0  0  0
   24.3300   37.3940    9.1770 C   0  0  0  0  0  0  0  0  0  0  0  0
   29.8670   25.5550   16.9770 C   0  0  0  0  0  0  0  0  0  0  0  0
   28.3450   25.7220   17.0260 C   0  0  0  0  0  0  0  0  0  0  0  0
   27.6030   24.3950   16.9720 C   0  0  0  0  0  0  0  0  0  0  0  0
   26.4470   24.3540   17.9320 C   0  0  0  0  0  0  0  0  0  0  0  0
   26.4660   25.6040   18.8070 C   0  0  0  0  0  0  0  0  0  0  0  0
   25.1460   26.2760   18.7790 N   0  0  0  0  0  0  0  0  0  0  0  0
  1  5  1  0  0  0  0
  1  2  1  0  0  0  0
  2  3  2  0  0  0  0
  4  1  1  0  0  0  0
  6  5  1  1  0  0  0
  6  7  1  0  0  0  0
  7 27  1  1  0  0  0
  8  7  1  1  0  0  0
  8 13  1  0  0  0  0
  9 16  1  6  0  0  0
  9 10  1  0  0  0  0
  9 14  1  0  0  0  0
 10 12  1  0  0  0  0
 11  8  1  0  0  0  0
 11  9  1  0  0  0  0
 12 20  1  1  0  0  0
 13 12  1  0  0  0  0
 13 22  1  6  0  0  0
 15 14  1  0  0  0  0
 16 17  2  0  0  0  0
 18 16  1  0  0  0  0
 19 18  1  0  0  0  0
 20 21  1  0  0  0  0
 22 23  1  0  0  0  0
 23 25  1  0  0  0  0
 23 26  2  0  0  0  0
 24 22  1  0  0  0  0
 28 27  1  0  0  0  0
 29  6  1  0  0  0  0
 30 29  1  0  0  0  0
 31 32  1  0  0  0  0
 31  2  1  0  0  0  0
 33 32  1  0  0  0  0
 34 33  2  0  0  0  0
 35 33  1  0  0  0  0
 36 37  1  0  0  0  0
 36 34  1  0  0  0  0
 37 35  2  0  0  0  0
 38 36  1  0  0  0  0
 39 44  1  0  0  0  0
 39 38  2  0  0  0  0
 40 38  1  0  0  0  0
 41 39  1  0  0  0  0
 42 40  2  0  0  0  0
 43 41  2  0  0  0  0
 43 42  1  0  0  0  0
 45 44  1  0  0  0  0
 46 44  1  0  0  0  0
 47 48  1  0  0  0  0
 49 48  1  0  0  0  0
 49 50  1  0  0  0  0
 50 51  1  0  0  0  0
 52 51  1  0  0  0  0
M  END
>  <REMARK>
 VINA RESULT:    -4.318      4.527      9.122
 INTER + INTRA:         -14.962
 INTER:                  -9.367
 INTRA:                  -5.595
 UNBOUND:                -7.237
 SMILES CC(=O)N[C@@H]1[C@@H](O)C[C@](O)(C(=O)O)O[C@H]1C(O)[C@H](O)CNC(=O)OCc1cn(-c2ccccc2C(C)C)nn1
 SMILES IDX 21 1 22 2 23 3 20 5 18 6 16 7 15 8 9 9 8 10 14 11 6 12 5 13
 SMILES IDX 10 14 11 16 12 17 13 18 7 20 4 22 2 23 1 25 3 26 17 27 19 29
 SMILES IDX 24 31 25 32 26 33 27 34 39 35 28 36 38 37 29 38 34 39 30 40
 SMILES IDX 33 41 31 42 32 43 35 44 36 45 37 46
 H PARENT 21 4 10 15 13 19 7 21 4 24 17 28 19 30
 Flexibility Score: inf
  4 active torsions:
  status: ('A' for Active; 'I' for Inactive)
    1  A    between atoms: CA   and  CB  
    2  A    between atoms: CB   and  CG  
    3  A    between atoms: CG   and  CD  
    4  A    between atoms: CD   and  CE  

>  <TORSDO>
F 16

>  <BEGIN_>
RES LYS A 131

$$$$
ligand_4_pose_4_2HRL.pdbqt
 OpenBabel07062320523D

  6  5  0  0  0  0  0  0  0  0999 V2000
   33.1930   34.6630    9.2900 C   0  0  0  0  0  0  0  0  0  0  0  0
   32.0600   35.3600   10.0340 C   0  0  0  0  0  0  0  0  0  0  0  0
   30.8280   35.5730    9.1930 C   0  0  0  0  0  0  0  0  0  0  0  0
   30.2240   36.9430    9.4630 C   0  0  0  0  0  0  0  0  0  0  0  0
   31.2680   37.8820   10.0360 C   0  0  0  0  0  0  0  0  0  0  0  0
   30.7560   38.5780   11.2490 N   0  0  0  0  0  0  0  0  0  0  0  0
  1  2  1  0  0  0  0
  3  4  1  0  0  0  0
  3  2  1  0  0  0  0
  4  5  1  0  0  0  0
  5  6  1  0  0  0  0
M  END
>  <EGIN_R>
ES LYS A 135

>  <REMARK>
  4 active torsions:
  status: ('A' for Active; 'I' for Inactive)
    5  A    between atoms: CA   and  CB  
    6  A    between atoms: CB   and  CG  
    7  A    between atoms: CG   and  CD  
    8  A    between atoms: CD   and  CE  

$$$$
