ligand_19_pose_2_2HRL.pdbqt
 OpenBabel07062320523D

 49 49  0  0  1  0  0  0  0  0999 V2000
   29.0750   30.6770   17.4340 N   0  0  0  0  0  0  0  0  0  0  0  0
   28.3100   30.1740   16.3580 C   0  0  0  0  0  0  0  0  0  0  0  0
   28.8140   30.0460   15.2330 O   0  0  0  0  0  0  0  0  0  0  0  0
   28.5670   30.7590   18.3580 H   0  0  0  0  0  0  0  0  0  0  0  0
   30.4650   31.0710   17.3500 C   0  0  0  0  0  0  0  0  0  0  0  0
   30.6200   32.5400   17.2350 C   0  0  2  0  0  0  0  0  0  0  0  0
   31.1930   33.0520   15.9320 C   0  0  2  0  0  0  0  0  0  0  0  0
   30.2920   33.9670   15.1580 C   0  0  2  0  0  0  0  0  0  0  0  0
   32.0920   35.0520   14.1610 C   0  0  2  0  0  0  0  0  0  0  0  0
   32.1940   35.9490   15.3340 C   0  0  0  0  0  0  0  0  0  0  0  0
   30.8940   34.4120   13.9830 O   0  0  0  0  0  0  0  0  0  0  0  0
   30.9730   36.1100   16.1650 C   0  0  1  0  0  0  0  0  0  0  0  0
   29.8300   35.2050   15.8580 C   0  0  1  0  0  0  0  0  0  0  0  0
   33.0800   34.0370   14.1890 O   0  0  0  0  0  0  0  0  0  0  0  0
   33.9130   34.3340   13.7530 H   0  0  0  0  0  0  0  0  0  0  0  0
   32.3650   35.8030   12.9030 C   0  0  0  0  0  0  0  0  0  0  0  0
   31.6300   36.7870   12.5510 O   0  0  0  0  0  0  0  0  0  0  0  0
   33.4070   35.5050   12.0380 O   0  0  0  0  0  0  0  0  0  0  0  0
   33.8090   36.2830   11.5040 H   0  0  0  0  0  0  0  0  0  0  0  0
   31.3310   35.9160   17.5020 O   0  0  0  0  0  0  0  0  0  0  0  0
   32.1250   36.4860   17.7440 H   0  0  0  0  0  0  0  0  0  0  0  0
   28.8100   35.7990   15.0260 N   0  0  0  0  0  0  0  0  0  0  0  0
   27.6710   36.4260   15.5400 C   0  0  0  0  0  0  0  0  0  0  0  0
   28.9510   35.7440   14.0000 H   0  0  0  0  0  0  0  0  0  0  0  0
   26.6080   37.0460   14.7090 C   0  0  0  0  0  0  0  0  0  0  0  0
   27.5500   36.4600   16.7800 O   0  0  0  0  0  0  0  0  0  0  0  0
   31.2130   31.8570   15.1160 O   0  0  0  0  0  0  0  0  0  0  0  0
   31.7390   31.2200   15.6910 H   0  0  0  0  0  0  0  0  0  0  0  0
   31.0440   33.2330   18.3280 O   0  0  0  0  0  0  0  0  0  0  0  0
   31.0010   34.1950   18.2220 H   0  0  0  0  0  0  0  0  0  0  0  0
   26.9590   29.8090   16.5540 O   0  0  0  0  0  0  0  0  0  0  0  0
   26.0000   30.8050   16.9100 C   0  0  0  0  0  0  0  0  0  0  0  0
   25.4380   31.3590   15.6620 C   0  0  0  0  0  0  0  0  0  0  0  0
   25.1330   32.6890   15.4290 C   0  0  0  0  0  0  0  0  0  0  0  0
   25.1130   30.7000   14.5420 N   0  0  0  0  0  0  0  0  0  0  0  0
   24.6400   32.7810   14.1850 N   0  0  0  0  0  0  0  0  0  0  0  0
   24.6390   31.5720   13.6730 N   0  0  0  0  0  0  0  0  0  0  0  0
   24.2030   34.0090   13.5600 C   0  0  0  0  0  0  0  0  0  0  0  0
   25.0030   34.2110   12.2950 C   0  0  0  0  0  0  0  0  0  0  0  0
   26.3520   34.3960   12.6120 O   0  0  0  0  0  0  0  0  0  0  0  0
   27.2460   34.8660   11.6960 C   0  0  0  0  0  0  0  0  0  0  0  0
   28.3380   35.3530   12.0440 O   0  0  0  0  0  0  0  0  0  0  0  0
   26.9320   34.8080   10.2260 C   0  0  0  0  0  0  0  0  0  0  0  0
   29.8670   25.5550   16.9770 C   0  0  0  0  0  0  0  0  0  0  0  0
   28.3450   25.7220   17.0260 C   0  0  0  0  0  0  0  0  0  0  0  0
   27.5990   24.4230   16.7600 C   0  0  0  0  0  0  0  0  0  0  0  0
   26.6480   24.0780   17.8730 C   0  0  0  0  0  0  0  0  0  0  0  0
   25.3060   24.7600   17.6250 C   0  0  0  0  0  0  0  0  0  0  0  0
   24.3790   23.8400   16.9250 N   0  0  0  0  0  0  0  0  0  0  0  0
  1  4  1  0  0  0  0
  2 31  1  0  0  0  0
  2  1  1  0  0  0  0
  3  2  2  0  0  0  0
  5  1  1  0  0  0  0
  6  5  1  1  0  0  0
  6 29  1  0  0  0  0
  7 27  1  6  0  0  0
  7  6  1  0  0  0  0
  8 13  1  0  0  0  0
  8  7  1  1  0  0  0
  9 16  1  6  0  0  0
  9 14  1  0  0  0  0
  9 10  1  0  0  0  0
 10 12  1  0  0  0  0
 11  9  1  0  0  0  0
 11  8  1  0  0  0  0
 12 20  1  1  0  0  0
 13 22  1  6  0  0  0
 13 12  1  0  0  0  0
 15 14  1  0  0  0  0
 17 16  2  0  0  0  0
 18 16  1  0  0  0  0
 19 18  1  0  0  0  0
 20 21  1  0  0  0  0
 22 23  1  0  0  0  0
 23 26  2  0  0  0  0
 24 22  1  0  0  0  0
 25 23  1  0  0  0  0
 27 28  1  0  0  0  0
 30 29  1  0  0  0  0
 31 32  1  0  0  0  0
 33 32  1  0  0  0  0
 34 33  2  0  0  0  0
 35 33  1  0  0  0  0
 36 34  1  0  0  0  0
 37 36  1  0  0  0  0
 37 35  2  0  0  0  0
 38 36  1  0  0  0  0
 39 40  1  0  0  0  0
 39 38  1  0  0  0  0
 41 42  2  0  0  0  0
 41 40  1  0  0  0  0
 43 41  1  0  0  0  0
 44 45  1  0  0  0  0
 46 45  1  0  0  0  0
 46 47  1  0  0  0  0
 48 47  1  0  0  0  0
 49 48  1  0  0  0  0
M  END
>  <REMARK>
 VINA RESULT:    -4.358      2.303      5.932
 INTER + INTRA:         -14.366
 INTER:                  -8.204
 INTRA:                  -6.162
 UNBOUND:                -6.059
 SMILES CC(=O)N[C@@H]1[C@@H](O)C[C@](O)(C(=O)O)O[C@H]1C(O)[C@H](O)CNC(=O)OCc1cn(CCOC(C)=O)nn1
 SMILES IDX 21 1 22 2 23 3 20 5 18 6 16 7 15 8 9 9 8 10 14 11 6 12 5 13
 SMILES IDX 10 14 11 16 12 17 13 18 7 20 4 22 2 23 1 25 3 26 17 27 19 29
 SMILES IDX 24 31 25 32 26 33 27 34 36 35 28 36 35 37 29 38 30 39 31 40
 SMILES IDX 32 41 34 42 33 43
 H PARENT 21 4 10 15 13 19 7 21 4 24 17 28 19 30
 Flexibility Score: inf
  4 active torsions:
  status: ('A' for Active; 'I' for Inactive)
    1  A    between atoms: CA   and  CB  
    2  A    between atoms: CB   and  CG  
    3  A    between atoms: CG   and  CD  
    4  A    between atoms: CD   and  CE  

>  <TORSDO>
F 18

>  <BEGIN_>
RES LYS A 131

$$$$
ligand_19_pose_2_2HRL.pdbqt
 OpenBabel07062320523D

  6  5  0  0  0  0  0  0  0  0999 V2000
   33.1930   34.6630    9.2900 C   0  0  0  0  0  0  0  0  0  0  0  0
   32.0600   35.3600   10.0340 C   0  0  0  0  0  0  0  0  0  0  0  0
   30.6910   34.8600    9.6520 C   0  0  0  0  0  0  0  0  0  0  0  0
   30.0800   35.7410    8.5720 C   0  0  0  0  0  0  0  0  0  0  0  0
   29.3750   34.8940    7.5300 C   0  0  0  0  0  0  0  0  0  0  0  0
   28.7020   35.7470    6.5120 N   0  0  0  0  0  0  0  0  0  0  0  0
  1  2  1  0  0  0  0
  3  2  1  0  0  0  0
  4  3  1  0  0  0  0
  5  4  1  0  0  0  0
  6  5  1  0  0  0  0
M  END
>  <EGIN_R>
ES LYS A 135

>  <REMARK>
  4 active torsions:
  status: ('A' for Active; 'I' for Inactive)
    5  A    between atoms: CA   and  CB  
    6  A    between atoms: CB   and  CG  
    7  A    between atoms: CG   and  CD  
    8  A    between atoms: CD   and  CE  

$$$$
