ligand_50_pose_10_2HRL.pdbqt
 OpenBabel07062320523D

 50 50  0  0  1  0  0  0  0  0999 V2000
   28.0440   30.9620   17.4030 N   0  0  0  0  0  0  0  0  0  0  0  0
   29.0040   30.7990   16.3730 C   0  0  0  0  0  0  0  0  0  0  0  0
   28.8020   30.0310   15.4170 O   0  0  0  0  0  0  0  0  0  0  0  0
   28.3120   31.6400   18.1780 H   0  0  0  0  0  0  0  0  0  0  0  0
   26.8070   30.2590   17.3900 C   0  0  0  0  0  0  0  0  0  0  0  0
   26.4740   29.5910   18.7060 C   0  0  2  0  0  0  0  0  0  0  0  0
   27.6430   28.6660   19.0250 C   0  0  1  0  0  0  0  0  0  0  0  0
   28.1510   28.9300   20.4470 C   0  0  2  0  0  0  0  0  0  0  0  0
   30.1700   27.9110   20.9770 C   0  0  2  0  0  0  0  0  0  0  0  0
   29.8620   27.9840   22.4600 C   0  0  0  0  0  0  0  0  0  0  0  0
   29.5150   28.9630   20.3850 O   0  0  0  0  0  0  0  0  0  0  0  0
   28.4090   27.7040   22.6280 C   0  0  1  0  0  0  0  0  0  0  0  0
   27.5750   27.9240   21.3930 C   0  0  1  0  0  0  0  0  0  0  0  0
   29.7350   26.6620   20.5390 O   0  0  0  0  0  0  0  0  0  0  0  0
   29.1340   26.2230   21.1820 H   0  0  0  0  0  0  0  0  0  0  0  0
   31.6260   28.0520   20.7190 C   0  0  0  0  0  0  0  0  0  0  0  0
   32.2760   28.8970   21.3860 O   0  0  0  0  0  0  0  0  0  0  0  0
   32.2360   27.2680   19.7690 O   0  0  0  0  0  0  0  0  0  0  0  0
   32.6580   27.6850   18.9460 H   0  0  0  0  0  0  0  0  0  0  0  0
   28.2710   26.3570   22.9860 O   0  0  0  0  0  0  0  0  0  0  0  0
   28.7120   26.2010   23.8410 H   0  0  0  0  0  0  0  0  0  0  0  0
   26.2690   28.3460   21.8520 N   0  0  0  0  0  0  0  0  0  0  0  0
   25.1330   27.5580   21.5330 C   0  0  0  0  0  0  0  0  0  0  0  0
   26.1210   29.2150   22.4140 H   0  0  0  0  0  0  0  0  0  0  0  0
   23.7510   27.9490   21.9820 C   0  0  0  0  0  0  0  0  0  0  0  0
   25.2010   26.4970   20.8620 O   0  0  0  0  0  0  0  0  0  0  0  0
   27.2570   27.3620   18.8350 O   0  0  0  0  0  0  0  0  0  0  0  0
   26.2710   27.2510   18.9390 H   0  0  0  0  0  0  0  0  0  0  0  0
   25.2830   28.8720   18.6020 O   0  0  0  0  0  0  0  0  0  0  0  0
   24.9560   28.9840   17.6890 H   0  0  0  0  0  0  0  0  0  0  0  0
   30.2190   31.5030   16.4000 O   0  0  0  0  0  0  0  0  0  0  0  0
   30.5180   32.2630   17.5350 C   0  0  0  0  0  0  0  0  0  0  0  0
   31.3880   33.4230   17.2130 C   0  0  0  0  0  0  0  0  0  0  0  0
   31.8760   33.7680   15.9870 C   0  0  0  0  0  0  0  0  0  0  0  0
   31.8480   34.3320   18.0770 N   0  0  0  0  0  0  0  0  0  0  0  0
   32.6220   34.8910   16.1630 N   0  0  0  0  0  0  0  0  0  0  0  0
   32.5950   35.2240   17.4460 N   0  0  0  0  0  0  0  0  0  0  0  0
   33.3270   35.5970   15.0950 C   0  0  0  0  0  0  0  0  0  0  0  0
   32.2630   36.0480   14.1140 C   0  0  1  0  0  0  0  0  0  0  0  0
   32.0810   37.4200   14.2310 O   0  0  0  0  0  0  0  0  0  0  0  0
   31.8310   37.7730   13.3350 H   0  0  0  0  0  0  0  0  0  0  0  0
   32.6900   35.7050   12.6820 C   0  0  0  0  0  0  0  0  0  0  0  0
   33.6540   34.6970   12.7180 O   0  0  0  0  0  0  0  0  0  0  0  0
   33.4960   34.0630   11.9560 H   0  0  0  0  0  0  0  0  0  0  0  0
   29.8670   25.5550   16.9770 C   0  0  0  0  0  0  0  0  0  0  0  0
   28.3450   25.7220   17.0260 C   0  0  0  0  0  0  0  0  0  0  0  0
   27.6020   24.4000   16.9110 C   0  0  0  0  0  0  0  0  0  0  0  0
   26.1350   24.5480   17.2070 C   0  0  0  0  0  0  0  0  0  0  0  0
   25.5800   23.2180   17.7090 C   0  0  0  0  0  0  0  0  0  0  0  0
   25.5500   23.1950   19.1900 N   0  0  0  0  0  0  0  0  0  0  0  0
  1  4  1  0  0  0  0
  2 31  1  0  0  0  0
  2  1  1  0  0  0  0
  3  2  2  0  0  0  0
  5  1  1  0  0  0  0
  6  5  1  6  0  0  0
  6  7  1  0  0  0  0
  7 27  1  1  0  0  0
  8  7  1  6  0  0  0
  8 13  1  0  0  0  0
  9 14  1  6  0  0  0
  9 10  1  0  0  0  0
 10 12  1  0  0  0  0
 11  8  1  0  0  0  0
 11  9  1  0  0  0  0
 12 20  1  6  0  0  0
 13 22  1  1  0  0  0
 13 12  1  0  0  0  0
 14 15  1  0  0  0  0
 16  9  1  0  0  0  0
 16 17  2  0  0  0  0
 18 16  1  0  0  0  0
 19 18  1  0  0  0  0
 20 21  1  0  0  0  0
 22 24  1  0  0  0  0
 23 22  1  0  0  0  0
 23 25  1  0  0  0  0
 26 23  2  0  0  0  0
 27 28  1  0  0  0  0
 29  6  1  0  0  0  0
 30 29  1  0  0  0  0
 31 32  1  0  0  0  0
 33 32  1  0  0  0  0
 33 35  1  0  0  0  0
 34 36  1  0  0  0  0
 34 33  2  0  0  0  0
 36 37  1  0  0  0  0
 37 35  2  0  0  0  0
 38 36  1  0  0  0  0
 39 42  1  6  0  0  0
 39 40  1  0  0  0  0
 39 38  1  0  0  0  0
 41 40  1  0  0  0  0
 42 43  1  0  0  0  0
 44 43  1  0  0  0  0
 45 46  1  0  0  0  0
 47 46  1  0  0  0  0
 47 48  1  0  0  0  0
 48 49  1  0  0  0  0
 49 50  1  0  0  0  0
M  END
>  <REMARK>
 VINA RESULT:    -4.628      2.339      4.257
 INTER + INTRA:         -14.299
 INTER:                  -9.194
 INTRA:                  -5.106
 UNBOUND:                -5.477
 SMILES CC(=O)N[C@@H]1[C@@H](O)C[C@](O)(C(=O)O)O[C@H]1C(O)[C@H](O)CNC(=O)OCc1cn(CC(O)CO)nn1
 SMILES IDX 21 1 22 2 23 3 20 5 18 6 16 7 15 8 9 9 8 10 14 11 6 12 5 13
 SMILES IDX 10 14 11 16 12 17 13 18 7 20 4 22 2 23 1 25 3 26 17 27 19 29
 SMILES IDX 24 31 25 32 26 33 27 34 35 35 28 36 34 37 29 38 30 39 31 40
 SMILES IDX 32 42 33 43
 H PARENT 21 4 10 15 13 19 7 21 4 24 17 28 19 30 31 41 33 44
 Flexibility Score: inf
  4 active torsions:
  status: ('A' for Active; 'I' for Inactive)
    1  A    between atoms: CA   and  CB  
    2  A    between atoms: CB   and  CG  
    3  A    between atoms: CG   and  CD  
    4  A    between atoms: CD   and  CE  

>  <TORSDO>
F 19

>  <BEGIN_>
RES LYS A 131

$$$$
ligand_50_pose_10_2HRL.pdbqt
 OpenBabel07062320523D

  6  5  0  0  0  0  0  0  0  0999 V2000
   33.1930   34.6630    9.2900 C   0  0  0  0  0  0  0  0  0  0  0  0
   32.0600   35.3600   10.0340 C   0  0  0  0  0  0  0  0  0  0  0  0
   30.8500   35.6260    9.1760 C   0  0  0  0  0  0  0  0  0  0  0  0
   30.3150   34.3310    8.5860 C   0  0  0  0  0  0  0  0  0  0  0  0
   28.9310   34.0300    9.1280 C   0  0  0  0  0  0  0  0  0  0  0  0
   28.4310   35.1490    9.9730 N   0  0  0  0  0  0  0  0  0  0  0  0
  1  2  1  0  0  0  0
  3  2  1  0  0  0  0
  4  5  1  0  0  0  0
  4  3  1  0  0  0  0
  5  6  1  0  0  0  0
M  END
>  <EGIN_R>
ES LYS A 135

>  <REMARK>
  4 active torsions:
  status: ('A' for Active; 'I' for Inactive)
    5  A    between atoms: CA   and  CB  
    6  A    between atoms: CB   and  CG  
    7  A    between atoms: CG   and  CD  
    8  A    between atoms: CD   and  CE  

$$$$
