ligand_27_pose_2_2HRL.pdbqt
 OpenBabel07062320523D

 50 51  0  0  1  0  0  0  0  0999 V2000
   27.5200   28.7260   19.1720 C   0  0  0  0  0  0  0  0  0  0  0  0
   27.6520   28.6830   20.6670 C   0  0  2  0  0  0  0  0  0  0  0  0
   28.5500   27.5820   21.1490 C   0  0  2  0  0  0  0  0  0  0  0  0
   29.6080   28.1240   22.1130 C   0  0  2  0  0  0  0  0  0  0  0  0
   31.2050   29.4660   21.0280 C   0  0  2  0  0  0  0  0  0  0  0  0
   32.3020   28.7050   21.7600 C   0  0  0  0  0  0  0  0  0  0  0  0
   30.0210   29.3130   21.6620 O   0  0  0  0  0  0  0  0  0  0  0  0
   31.9090   27.2400   21.5850 C   0  0  1  0  0  0  0  0  0  0  0  0
   30.6180   27.0540   22.3340 C   0  0  1  0  0  0  0  0  0  0  0  0
   31.2260   28.9970   19.7210 O   0  0  0  0  0  0  0  0  0  0  0  0
   31.0480   29.7570   19.1130 H   0  0  0  0  0  0  0  0  0  0  0  0
   31.5410   30.9090   21.0110 C   0  0  0  0  0  0  0  0  0  0  0  0
   32.5690   31.3020   21.6090 O   0  0  0  0  0  0  0  0  0  0  0  0
   30.7640   31.8540   20.3560 O   0  0  0  0  0  0  0  0  0  0  0  0
   31.2200   32.4650   19.6700 H   0  0  0  0  0  0  0  0  0  0  0  0
   31.6790   26.9300   20.2490 O   0  0  0  0  0  0  0  0  0  0  0  0
   32.5280   26.8190   19.7350 H   0  0  0  0  0  0  0  0  0  0  0  0
   30.9580   26.9450   23.7370 N   0  0  0  0  0  0  0  0  0  0  0  0
   30.3970   25.9010   24.5160 C   0  0  0  0  0  0  0  0  0  0  0  0
   31.6210   27.6330   24.2000 H   0  0  0  0  0  0  0  0  0  0  0  0
   30.7500   25.7960   25.9550 C   0  0  0  0  0  0  0  0  0  0  0  0
   29.6090   25.0770   23.9850 O   0  0  0  0  0  0  0  0  0  0  0  0
   29.1850   27.0590   20.0020 O   0  0  0  0  0  0  0  0  0  0  0  0
   29.7580   26.3130   20.2290 H   0  0  0  0  0  0  0  0  0  0  0  0
   26.3750   28.5030   21.2280 O   0  0  0  0  0  0  0  0  0  0  0  0
   25.7080   28.8360   20.6010 H   0  0  0  0  0  0  0  0  0  0  0  0
   28.6610   29.4270   18.5940 N   0  0  0  0  0  0  0  0  0  0  0  0
   28.5200   30.7420   18.0840 C   0  0  0  0  0  0  0  0  0  0  0  0
   29.5750   28.9330   18.5680 H   0  0  0  0  0  0  0  0  0  0  0  0
   27.3950   31.3010   18.1350 O   0  0  0  0  0  0  0  0  0  0  0  0
   29.5770   31.4440   17.5260 O   0  0  0  0  0  0  0  0  0  0  0  0
   29.8940   31.2090   16.1720 C   0  0  0  0  0  0  0  0  0  0  0  0
   29.6460   32.4480   15.3890 C   0  0  0  0  0  0  0  0  0  0  0  0
   30.5980   33.2410   14.7730 C   0  0  0  0  0  0  0  0  0  0  0  0
   28.4710   33.0460   15.1190 N   0  0  0  0  0  0  0  0  0  0  0  0
   29.9880   34.2810   14.1560 N   0  0  0  0  0  0  0  0  0  0  0  0
   28.6950   34.1290   14.3900 N   0  0  0  0  0  0  0  0  0  0  0  0
   30.6150   35.3190   13.4140 C   0  0  0  0  0  0  0  0  0  0  0  0
   31.9440   35.1920   13.0710 C   0  0  0  0  0  0  0  0  0  0  0  0
   29.9590   36.4640   13.0110 C   0  0  0  0  0  0  0  0  0  0  0  0
   32.5980   36.1770   12.3500 C   0  0  0  0  0  0  0  0  0  0  0  0
   30.5790   37.4640   12.2920 C   0  0  0  0  0  0  0  0  0  0  0  0
   31.9110   37.3060   11.9650 C   0  0  0  0  0  0  0  0  0  0  0  0
   29.7000   38.9180   11.7960 Cl  0  0  0  0  0  0  0  0  0  0  0  0
   29.8670   25.5550   16.9770 C   0  0  0  0  0  0  0  0  0  0  0  0
   28.3450   25.7220   17.0260 C   0  0  0  0  0  0  0  0  0  0  0  0
   27.6020   24.3980   16.9350 C   0  0  0  0  0  0  0  0  0  0  0  0
   26.1540   24.5340   17.3150 C   0  0  0  0  0  0  0  0  0  0  0  0
   25.6390   23.2000   17.8460 C   0  0  0  0  0  0  0  0  0  0  0  0
   25.5160   23.2410   19.3220 N   0  0  0  0  0  0  0  0  0  0  0  0
  2  1  1  6  0  0  0
  2  3  1  0  0  0  0
  2 25  1  0  0  0  0
  3 23  1  6  0  0  0
  4  3  1  6  0  0  0
  4  9  1  0  0  0  0
  5 10  1  6  0  0  0
  5  7  1  0  0  0  0
  5  6  1  0  0  0  0
  7  4  1  0  0  0  0
  8 16  1  6  0  0  0
  8  6  1  0  0  0  0
  8  9  1  0  0  0  0
  9 18  1  1  0  0  0
 11 10  1  0  0  0  0
 12  5  1  0  0  0  0
 12 13  2  0  0  0  0
 14 12  1  0  0  0  0
 15 14  1  0  0  0  0
 17 16  1  0  0  0  0
 18 20  1  0  0  0  0
 18 19  1  0  0  0  0
 19 21  1  0  0  0  0
 22 19  2  0  0  0  0
 23 24  1  0  0  0  0
 26 25  1  0  0  0  0
 27  1  1  0  0  0  0
 28 30  2  0  0  0  0
 28 27  1  0  0  0  0
 29 27  1  0  0  0  0
 31 28  1  0  0  0  0
 32 31  1  0  0  0  0
 33 32  1  0  0  0  0
 34 33  2  0  0  0  0
 35 33  1  0  0  0  0
 36 37  1  0  0  0  0
 36 34  1  0  0  0  0
 37 35  2  0  0  0  0
 38 36  1  0  0  0  0
 39 38  1  0  0  0  0
 40 38  2  0  0  0  0
 41 39  2  0  0  0  0
 42 40  1  0  0  0  0
 43 42  2  0  0  0  0
 43 41  1  0  0  0  0
 44 42  1  0  0  0  0
 45 46  1  0  0  0  0
 47 46  1  0  0  0  0
 47 48  1  0  0  0  0
 48 49  1  0  0  0  0
 49 50  1  0  0  0  0
M  END
>  <REMARK>
 VINA RESULT:    -5.783      1.812      2.247
 INTER + INTRA:         -14.505
 INTER:                  -9.375
 INTRA:                  -5.130
 UNBOUND:                -4.497
 SMILES CC(=O)N[C@@H]1[C@@H](O)C[C@](O)(C(=O)O)O[C@H]1C(O)[C@H](O)CNC(=O)OCc1cn(-c2cccc(Cl)c2)nn1
 SMILES IDX 20 1 18 2 16 3 15 4 9 5 8 6 14 7 6 8 5 9 10 10 11 12 12 13
 SMILES IDX 13 14 7 16 4 18 2 19 1 21 3 22 17 23 19 25 21 27 22 28 23 30
 SMILES IDX 24 31 25 32 26 33 27 34 37 35 28 36 36 37 29 38 30 39 35 40
 SMILES IDX 31 41 33 42 32 43 34 44
 H PARENT 10 11 13 15 7 17 4 20 17 24 19 26 21 29
 Flexibility Score: inf
  4 active torsions:
  status: ('A' for Active; 'I' for Inactive)
    1  A    between atoms: CA   and  CB  
    2  A    between atoms: CB   and  CG  
    3  A    between atoms: CG   and  CD  
    4  A    between atoms: CD   and  CE  

>  <TORSDO>
F 15

>  <BEGIN_>
RES LYS A 131

$$$$
ligand_27_pose_2_2HRL.pdbqt
 OpenBabel07062320523D

  6  5  0  0  0  0  0  0  0  0999 V2000
   33.1930   34.6630    9.2900 C   0  0  0  0  0  0  0  0  0  0  0  0
   32.0600   35.3600   10.0340 C   0  0  0  0  0  0  0  0  0  0  0  0
   30.7940   35.4810    9.2260 C   0  0  0  0  0  0  0  0  0  0  0  0
   30.1330   34.1220    9.0580 C   0  0  0  0  0  0  0  0  0  0  0  0
   28.7500   34.1210    9.6820 C   0  0  0  0  0  0  0  0  0  0  0  0
   27.7030   34.4190    8.6660 N   0  0  0  0  0  0  0  0  0  0  0  0
  1  2  1  0  0  0  0
  3  2  1  0  0  0  0
  4  3  1  0  0  0  0
  4  5  1  0  0  0  0
  6  5  1  0  0  0  0
M  END
>  <EGIN_R>
ES LYS A 135

>  <REMARK>
  4 active torsions:
  status: ('A' for Active; 'I' for Inactive)
    5  A    between atoms: CA   and  CB  
    6  A    between atoms: CB   and  CG  
    7  A    between atoms: CG   and  CD  
    8  A    between atoms: CD   and  CE  

$$$$
