ligand_14_pose_11_2HRL.pdbqt
 OpenBabel07062320523D

 50 51  0  0  1  0  0  0  0  0999 V2000
   24.6860   39.2830    6.8570 N   0  0  0  0  0  0  0  0  0  0  0  0
   25.6140   40.3170    7.0740 C   0  0  0  0  0  0  0  0  0  0  0  0
   26.0650   40.5310    8.2070 O   0  0  0  0  0  0  0  0  0  0  0  0
   24.3540   39.1960    5.8370 H   0  0  0  0  0  0  0  0  0  0  0  0
   24.1670   38.3760    7.8310 C   0  0  0  0  0  0  0  0  0  0  0  0
   24.9920   37.1240    7.8950 C   0  0  2  0  0  0  0  0  0  0  0  0
   25.8100   37.0630    9.1820 C   0  0  1  0  0  0  0  0  0  0  0  0
   27.2860   37.1840    8.7620 C   0  0  2  0  0  0  0  0  0  0  0  0
   28.5800   35.2770    9.2020 C   0  0  2  0  0  0  0  0  0  0  0  0
   28.6080   35.7690   10.6360 C   0  0  0  0  0  0  0  0  0  0  0  0
   27.7690   35.9840    8.3700 O   0  0  0  0  0  0  0  0  0  0  0  0
   28.9300   37.2220   10.6820 C   0  0  1  0  0  0  0  0  0  0  0  0
   28.0770   37.9910    9.7260 C   0  0  1  0  0  0  0  0  0  0  0  0
   28.0180   33.9790    9.2850 O   0  0  0  0  0  0  0  0  0  0  0  0
   28.7100   33.3690    9.6840 H   0  0  0  0  0  0  0  0  0  0  0  0
   29.9500   35.1110    8.6620 C   0  0  0  0  0  0  0  0  0  0  0  0
   30.5380   34.0170    8.7980 O   0  0  0  0  0  0  0  0  0  0  0  0
   30.5880   36.1490    8.0100 O   0  0  0  0  0  0  0  0  0  0  0  0
   30.4250   37.0950    8.3230 H   0  0  0  0  0  0  0  0  0  0  0  0
   28.7470   37.6630   11.9870 O   0  0  0  0  0  0  0  0  0  0  0  0
   27.8480   37.3940   12.3190 H   0  0  0  0  0  0  0  0  0  0  0  0
   28.8330   39.0420    9.0480 N   0  0  0  0  0  0  0  0  0  0  0  0
   29.1220   40.2740    9.6470 C   0  0  0  0  0  0  0  0  0  0  0  0
   29.1530   38.8340    8.0830 H   0  0  0  0  0  0  0  0  0  0  0  0
   29.8970   41.2850    8.8830 C   0  0  0  0  0  0  0  0  0  0  0  0
   28.7250   40.5240   10.8320 O   0  0  0  0  0  0  0  0  0  0  0  0
   25.4450   38.1550    9.9620 O   0  0  0  0  0  0  0  0  0  0  0  0
   25.5840   38.0320   10.9170 H   0  0  0  0  0  0  0  0  0  0  0  0
   25.7780   36.8920    6.7890 O   0  0  0  0  0  0  0  0  0  0  0  0
   26.6610   36.4980    6.9790 H   0  0  0  0  0  0  0  0  0  0  0  0
   26.0680   41.1460    6.0450 O   0  0  0  0  0  0  0  0  0  0  0  0
   26.7660   40.6050    4.9420 C   0  0  0  0  0  0  0  0  0  0  0  0
   28.0310   39.9390    5.3430 C   0  0  0  0  0  0  0  0  0  0  0  0
   29.3120   40.4940    5.3440 C   0  0  0  0  0  0  0  0  0  0  0  0
   28.2170   38.6820    5.7840 N   0  0  0  0  0  0  0  0  0  0  0  0
   30.2100   39.5890    5.7700 N   0  0  0  0  0  0  0  0  0  0  0  0
   29.4890   38.4870    6.0300 N   0  0  0  0  0  0  0  0  0  0  0  0
   31.6430   39.7250    5.9260 C   0  0  0  0  0  0  0  0  0  0  0  0
   32.2870   40.4500    4.7920 C   0  0  0  0  0  0  0  0  0  0  0  0
   33.7240   40.3510    4.7570 N   0  0  0  0  0  0  0  0  0  0  0  0
   34.1410   39.4840    5.8450 C   0  0  0  0  0  0  0  0  0  0  0  0
   34.1990   39.7160    3.5430 C   0  0  0  0  0  0  0  0  0  0  0  0
   35.1920   38.5610    5.3200 C   0  0  0  0  0  0  0  0  0  0  0  0
   35.5470   39.1840    3.9860 C   0  0  0  0  0  0  0  0  0  0  0  0
   29.8670   25.5550   16.9770 C   0  0  0  0  0  0  0  0  0  0  0  0
   28.3450   25.7220   17.0260 C   0  0  0  0  0  0  0  0  0  0  0  0
   27.6020   24.4000   16.9170 C   0  0  0  0  0  0  0  0  0  0  0  0
   26.5250   24.2670   17.9570 C   0  0  0  0  0  0  0  0  0  0  0  0
   25.1950   24.7390   17.3770 C   0  0  0  0  0  0  0  0  0  0  0  0
   24.0900   24.4710   18.3270 N   0  0  0  0  0  0  0  0  0  0  0  0
  1  2  1  0  0  0  0
  1  5  1  0  0  0  0
  2  3  2  0  0  0  0
  4  1  1  0  0  0  0
  6  5  1  6  0  0  0
  6  7  1  0  0  0  0
  7 27  1  1  0  0  0
  8  7  1  1  0  0  0
  8 13  1  0  0  0  0
  9 16  1  6  0  0  0
  9 14  1  0  0  0  0
  9 10  1  0  0  0  0
 10 12  1  0  0  0  0
 11  8  1  0  0  0  0
 11  9  1  0  0  0  0
 12 20  1  1  0  0  0
 13 22  1  6  0  0  0
 13 12  1  0  0  0  0
 14 15  1  0  0  0  0
 16 17  2  0  0  0  0
 18 19  1  0  0  0  0
 18 16  1  0  0  0  0
 20 21  1  0  0  0  0
 22 23  1  0  0  0  0
 23 26  2  0  0  0  0
 24 22  1  0  0  0  0
 25 23  1  0  0  0  0
 27 28  1  0  0  0  0
 29 30  1  0  0  0  0
 29  6  1  0  0  0  0
 31  2  1  0  0  0  0
 32 33  1  0  0  0  0
 32 31  1  0  0  0  0
 33 34  2  0  0  0  0
 33 35  1  0  0  0  0
 34 36  1  0  0  0  0
 35 37  2  0  0  0  0
 36 38  1  0  0  0  0
 36 37  1  0  0  0  0
 39 38  1  0  0  0  0
 40 39  1  0  0  0  0
 40 41  1  0  0  0  0
 42 44  1  0  0  0  0
 42 40  1  0  0  0  0
 43 41  1  0  0  0  0
 44 43  1  0  0  0  0
 45 46  1  0  0  0  0
 47 46  1  0  0  0  0
 47 48  1  0  0  0  0
 49 48  1  0  0  0  0
 49 50  1  0  0  0  0
M  END
>  <REMARK>
 VINA RESULT:    -4.329      2.636      7.144
 INTER + INTRA:         -13.993
 INTER:                  -8.291
 INTRA:                  -5.701
 UNBOUND:                -5.994
 SMILES CC(=O)N[C@@H]1[C@@H](O)C[C@](O)(C(=O)O)O[C@H]1C(O)[C@H](O)CNC(=O)OCc1cn(CCN2CCCC2)nn1
 SMILES IDX 21 1 22 2 23 3 20 5 18 6 16 7 15 8 9 9 8 10 14 11 6 12 5 13
 SMILES IDX 10 14 11 16 12 17 13 18 7 20 4 22 2 23 1 25 3 26 17 27 19 29
 SMILES IDX 24 31 25 32 26 33 27 34 37 35 28 36 36 37 29 38 30 39 31 40
 SMILES IDX 32 41 35 42 33 43 34 44
 H PARENT 21 4 10 15 13 19 7 21 4 24 17 28 19 30
 Flexibility Score: inf
  4 active torsions:
  status: ('A' for Active; 'I' for Inactive)
    1  A    between atoms: CA   and  CB  
    2  A    between atoms: CB   and  CG  
    3  A    between atoms: CG   and  CD  
    4  A    between atoms: CD   and  CE  

>  <TORSDO>
F 17

>  <BEGIN_>
RES LYS A 131

$$$$
ligand_14_pose_11_2HRL.pdbqt
 OpenBabel07062320523D

  6  5  0  0  0  0  0  0  0  0999 V2000
   33.1930   34.6630    9.2900 C   0  0  0  0  0  0  0  0  0  0  0  0
   32.0600   35.3600   10.0340 C   0  0  0  0  0  0  0  0  0  0  0  0
   32.5360   36.3270   11.0880 C   0  0  0  0  0  0  0  0  0  0  0  0
   32.6740   35.6300   12.4320 C   0  0  0  0  0  0  0  0  0  0  0  0
   31.4050   35.7900   13.2480 C   0  0  0  0  0  0  0  0  0  0  0  0
   30.6700   34.4990   13.3540 N   0  0  0  0  0  0  0  0  0  0  0  0
  1  2  1  0  0  0  0
  2  3  1  0  0  0  0
  3  4  1  0  0  0  0
  4  5  1  0  0  0  0
  5  6  1  0  0  0  0
M  END
>  <EGIN_R>
ES LYS A 135

>  <REMARK>
  4 active torsions:
  status: ('A' for Active; 'I' for Inactive)
    5  A    between atoms: CA   and  CB  
    6  A    between atoms: CB   and  CG  
    7  A    between atoms: CG   and  CD  
    8  A    between atoms: CD   and  CE  

$$$$
