ligand_80_pose_3_2HRL.pdbqt
 OpenBabel07062320523D

 56 54  0  0  1  0  0  0  0  0999 V2000
   23.9190   33.7770   14.0590 O   0  0  0  0  0  0  0  0  0  0  0  0
   24.7030   33.9340   15.1770 C   0  0  0  0  0  0  0  0  0  0  0  0
   25.6640   32.9290   15.5280 N   0  0  0  0  0  0  0  0  0  0  0  0
   25.7190   32.1010   14.8890 H   0  0  0  0  0  0  0  0  0  0  0  0
   24.6130   34.9420   15.9220 O   0  0  0  0  0  0  0  0  0  0  0  0
   26.5100   33.0540   16.7010 C   0  0  0  0  0  0  0  0  0  0  0  0
   27.9270   33.2970   16.2400 C   0  0  2  0  0  0  0  0  0  0  0  0
   28.4780   34.6190   16.7310 C   0  0  2  0  0  0  0  0  0  0  0  0
   29.9550   34.7660   16.3340 C   0  0  2  0  0  0  0  0  0  0  0  0
   31.1330   34.8330   14.3060 C   0  0  2  0  0  0  0  0  0  0  0  0
   32.2430   34.1570   15.0490 C   0  0  0  0  0  0  0  0  0  0  0  0
   29.9920   35.0600   15.0260 O   0  0  0  0  0  0  0  0  0  0  0  0
   31.6140   32.9710   15.7620 C   0  0  1  0  0  0  0  0  0  0  0  0
   30.6430   33.5170   16.7780 C   0  0  1  0  0  0  0  0  0  0  0  0
   30.7520   33.9960   13.2370 O   0  0  0  0  0  0  0  0  0  0  0  0
   29.7640   34.0730   13.1900 H   0  0  0  0  0  0  0  0  0  0  0  0
   31.5570   36.1250   13.7090 C   0  0  0  0  0  0  0  0  0  0  0  0
   32.5900   36.1650   13.0080 O   0  0  0  0  0  0  0  0  0  0  0  0
   30.8400   37.3030   13.9020 O   0  0  0  0  0  0  0  0  0  0  0  0
   30.2280   37.5930   13.1260 H   0  0  0  0  0  0  0  0  0  0  0  0
   30.9060   32.2470   14.8090 O   0  0  0  0  0  0  0  0  0  0  0  0
   31.1230   31.2930   14.9380 H   0  0  0  0  0  0  0  0  0  0  0  0
   31.4110   33.8320   17.9690 N   0  0  0  0  0  0  0  0  0  0  0  0
   31.1650   33.2470   19.2390 C   0  0  0  0  0  0  0  0  0  0  0  0
   32.2050   34.5390   17.8900 H   0  0  0  0  0  0  0  0  0  0  0  0
   32.0180   33.6500   20.3820 C   0  0  0  0  0  0  0  0  0  0  0  0
   30.2300   32.4100   19.3420 O   0  0  0  0  0  0  0  0  0  0  0  0
   28.4130   34.5790   18.1280 O   0  0  0  0  0  0  0  0  0  0  0  0
   28.6260   35.4370   18.5530 H   0  0  0  0  0  0  0  0  0  0  0  0
   28.0320   33.2030   14.8580 O   0  0  0  0  0  0  0  0  0  0  0  0
   28.8500   33.6150   14.5100 H   0  0  0  0  0  0  0  0  0  0  0  0
   23.6050   34.8660   13.2080 C   0  0  0  0  0  0  0  0  0  0  0  0
   24.7610   35.2290   12.3500 C   0  0  0  0  0  0  0  0  0  0  0  0
   25.1260   36.5410   12.0290 C   0  0  0  0  0  0  0  0  0  0  0  0
   25.6620   34.4520   11.7230 N   0  0  0  0  0  0  0  0  0  0  0  0
   26.2090   36.5080   11.2350 N   0  0  0  0  0  0  0  0  0  0  0  0
   26.5030   35.2370   11.0730 N   0  0  0  0  0  0  0  0  0  0  0  0
   26.9040   37.6430   10.6660 *   0  0  0  0  0  0  0  0  0  0  0  0
   28.2980   37.7390   11.1810 C   0  0  0  0  0  0  0  0  0  0  0  0
   29.5370   37.9630   10.5350 N   0  0  0  0  0  0  0  0  0  0  0  0
   28.3550   37.5880   12.4270 O   0  0  0  0  0  0  0  0  0  0  0  0
   30.4190   37.7400   11.0430 H   0  0  0  0  0  0  0  0  0  0  0  0
   29.7470   38.4810    9.2080 C   0  0  0  0  0  0  0  0  0  0  0  0
   28.7800   38.8900    8.3090 C   0  0  0  0  0  0  0  0  0  0  0  0
   31.0950   38.5330    8.9120 C   0  0  0  0  0  0  0  0  0  0  0  0
   29.1810   39.3560    7.0950 C   0  0  0  0  0  0  0  0  0  0  0  0
   31.4980   39.0060    7.6820 C   0  0  0  0  0  0  0  0  0  0  0  0
   30.5340   39.4120    6.7870 C   0  0  0  0  0  0  0  0  0  0  0  0
   27.3070   38.8790    8.5200 C   0  0  0  0  0  0  0  0  0  0  0  0
   26.8240   37.5850    9.1520 *   0  0  0  0  0  0  0  0  0  0  0  0
   29.8670   25.5550   16.9770 C   0  0  0  0  0  0  0  0  0  0  0  0
   28.3450   25.7220   17.0260 C   0  0  0  0  0  0  0  0  0  0  0  0
   27.6000   24.4160   16.7960 C   0  0  0  0  0  0  0  0  0  0  0  0
   26.1910   24.4690   17.3190 C   0  0  0  0  0  0  0  0  0  0  0  0
   26.0230   23.4440   18.4350 C   0  0  0  0  0  0  0  0  0  0  0  0
   25.4070   24.0720   19.6280 N   0  0  0  0  0  0  0  0  0  0  0  0
  1  2  1  0  0  0  0
  2  3  1  0  0  0  0
  2  5  2  0  0  0  0
  3  6  1  0  0  0  0
  4  3  1  0  0  0  0
  7  6  1  6  0  0  0
  7  8  1  0  0  0  0
  8 28  1  1  0  0  0
  9  8  1  6  0  0  0
  9 14  1  0  0  0  0
 10 15  1  6  0  0  0
 10 12  1  0  0  0  0
 10 11  1  0  0  0  0
 11 13  1  0  0  0  0
 12  9  1  0  0  0  0
 13 21  1  6  0  0  0
 13 14  1  0  0  0  0
 14 23  1  1  0  0  0
 16 15  1  0  0  0  0
 17 19  1  0  0  0  0
 17 10  1  0  0  0  0
 18 17  2  0  0  0  0
 20 19  1  0  0  0  0
 21 22  1  0  0  0  0
 23 24  1  0  0  0  0
 24 27  2  0  0  0  0
 24 26  1  0  0  0  0
 25 23  1  0  0  0  0
 28 29  1  0  0  0  0
 30  7  1  0  0  0  0
 31 30  1  0  0  0  0
 32  1  1  0  0  0  0
 33 32  1  0  0  0  0
 34 33  2  0  0  0  0
 35 33  1  0  0  0  0
 36 34  1  0  0  0  0
 37 36  2  0  0  0  0
 37 35  1  0  0  0  0
 39 41  2  0  0  0  0
 40 42  1  0  0  0  0
 40 39  1  0  0  0  0
 43 40  1  0  0  0  0
 44 49  1  0  0  0  0
 44 43  2  0  0  0  0
 45 43  1  0  0  0  0
 46 44  1  0  0  0  0
 47 45  2  0  0  0  0
 48 46  2  0  0  0  0
 48 47  1  0  0  0  0
 51 52  1  0  0  0  0
 53 52  1  0  0  0  0
 53 54  1  0  0  0  0
 54 55  1  0  0  0  0
 55 56  1  0  0  0  0
M  END
>  <REMARK>
 VINA RESULT:    -9.277      2.872      6.390
 INTER + INTRA:         -13.671
 INTER:                  -8.042
 INTRA:                  -5.629
 UNBOUND:                 4.555
 SMILES CC(=O)N[C@@H]1[C@@H](O)C[C@](O)(C(=O)O)O[C@H]1C(O)[C@H](O)CNC(=O)OCc1cn(C2CCc3ccccc3NC2=O)nn1
 SMILES IDX 24 1 22 2 21 3 23 5 20 6 18 7 16 8 15 9 9 10 8 11 14 12 6 13
 SMILES IDX 5 14 10 15 11 17 12 18 13 19 7 21 4 23 2 24 1 26 3 27 17 28
 SMILES IDX 19 30 25 32 26 33 27 34 42 35 28 36 41 37 29 38 39 40 38 41
 SMILES IDX 40 42 37 44 32 45 36 46 33 47 35 48 34 49 31 50 30 51
 H PARENT 21 4 10 16 13 20 7 22 4 25 17 29 19 31 38 43
 Flexibility Score: 80.00
  4 active torsions:
  status: ('A' for Active; 'I' for Inactive)
    1  A    between atoms: CA   and  CB  
    2  A    between atoms: CB   and  CG  
    3  A    between atoms: CG   and  CD  
    4  A    between atoms: CD   and  CE  

>  <TORSDO>
F 15

>  <BEGIN_>
RES LYS A 131

$$$$
ligand_80_pose_3_2HRL.pdbqt
 OpenBabel07062320523D

  6  5  0  0  0  0  0  0  0  0999 V2000
   33.1930   34.6630    9.2900 C   0  0  0  0  0  0  0  0  0  0  0  0
   32.0600   35.3600   10.0340 C   0  0  0  0  0  0  0  0  0  0  0  0
   30.7060   34.7490    9.7800 C   0  0  0  0  0  0  0  0  0  0  0  0
   30.4330   34.6510    8.2870 C   0  0  0  0  0  0  0  0  0  0  0  0
   28.9780   34.9570    7.9910 C   0  0  0  0  0  0  0  0  0  0  0  0
   28.8250   35.6010    6.6560 N   0  0  0  0  0  0  0  0  0  0  0  0
  1  2  1  0  0  0  0
  3  2  1  0  0  0  0
  4  3  1  0  0  0  0
  5  4  1  0  0  0  0
  6  5  1  0  0  0  0
M  END
>  <EGIN_R>
ES LYS A 135

>  <REMARK>
  4 active torsions:
  status: ('A' for Active; 'I' for Inactive)
    5  A    between atoms: CA   and  CB  
    6  A    between atoms: CB   and  CG  
    7  A    between atoms: CG   and  CD  
    8  A    between atoms: CD   and  CE  

$$$$
