ligand_45_pose_1_2HRL.pdbqt
 OpenBabel07062320523D

 52 52  0  0  1  0  0  0  0  0999 V2000
   25.1580   31.0240   16.3960 O   0  0  0  0  0  0  0  0  0  0  0  0
   25.2530   29.9100   17.2070 C   0  0  0  0  0  0  0  0  0  0  0  0
   26.1250   28.8170   16.9010 N   0  0  0  0  0  0  0  0  0  0  0  0
   26.6850   28.9130   16.0470 H   0  0  0  0  0  0  0  0  0  0  0  0
   24.5490   29.8580   18.2420 O   0  0  0  0  0  0  0  0  0  0  0  0
   26.1660   27.7090   17.7820 C   0  0  0  0  0  0  0  0  0  0  0  0
   27.2980   27.6620   18.7530 C   0  0  2  0  0  0  0  0  0  0  0  0
   26.9130   27.6650   20.2000 C   0  0  1  0  0  0  0  0  0  0  0  0
   28.0550   27.8080   21.1600 C   0  0  2  0  0  0  0  0  0  0  0  0
   30.3150   27.4400   21.3630 C   0  0  2  0  0  0  0  0  0  0  0  0
   30.0590   28.3040   22.5830 C   0  0  0  0  0  0  0  0  0  0  0  0
   29.1960   27.3120   20.5770 O   0  0  0  0  0  0  0  0  0  0  0  0
   28.9660   27.7210   23.4250 C   0  0  1  0  0  0  0  0  0  0  0  0
   27.8510   27.2110   22.5090 C   0  0  1  0  0  0  0  0  0  0  0  0
   30.6740   26.1630   21.8320 O   0  0  0  0  0  0  0  0  0  0  0  0
   29.8580   25.7960   22.2610 H   0  0  0  0  0  0  0  0  0  0  0  0
   31.4410   27.9880   20.5910 C   0  0  0  0  0  0  0  0  0  0  0  0
   31.7370   29.2130   20.6760 O   0  0  0  0  0  0  0  0  0  0  0  0
   32.2040   27.1940   19.7600 O   0  0  0  0  0  0  0  0  0  0  0  0
   31.8180   26.3840   19.3140 H   0  0  0  0  0  0  0  0  0  0  0  0
   29.4960   26.6670   24.1810 O   0  0  0  0  0  0  0  0  0  0  0  0
   30.1860   26.2040   23.6580 H   0  0  0  0  0  0  0  0  0  0  0  0
   26.6190   27.6980   23.1390 N   0  0  0  0  0  0  0  0  0  0  0  0
   25.7810   26.8110   23.8560 C   0  0  0  0  0  0  0  0  0  0  0  0
   26.3690   28.7090   23.0490 H   0  0  0  0  0  0  0  0  0  0  0  0
   24.5240   27.3220   24.4900 C   0  0  0  0  0  0  0  0  0  0  0  0
   26.0380   25.5760   23.9990 O   0  0  0  0  0  0  0  0  0  0  0  0
   25.9640   28.6760   20.4140 O   0  0  0  0  0  0  0  0  0  0  0  0
   26.0640   28.9750   21.3600 H   0  0  0  0  0  0  0  0  0  0  0  0
   28.1170   28.7770   18.4720 O   0  0  0  0  0  0  0  0  0  0  0  0
   28.0970   29.0260   17.5260 H   0  0  0  0  0  0  0  0  0  0  0  0
   26.1440   31.2300   15.3940 C   0  0  0  0  0  0  0  0  0  0  0  0
   27.4850   31.3180   16.0170 C   0  0  0  0  0  0  0  0  0  0  0  0
   27.9870   32.2420   16.9070 C   0  0  0  0  0  0  0  0  0  0  0  0
   28.5060   30.4610   15.8040 N   0  0  0  0  0  0  0  0  0  0  0  0
   29.2650   31.9410   17.2120 N   0  0  0  0  0  0  0  0  0  0  0  0
   29.5400   30.8540   16.5220 N   0  0  0  0  0  0  0  0  0  0  0  0
   30.1700   32.6190   18.0810 C   0  0  0  0  0  0  0  0  0  0  0  0
   31.1960   33.4260   17.3820 C   0  0  0  0  0  0  0  0  0  0  0  0
   30.7670   34.6080   16.6170 C   0  0  0  0  0  0  0  0  0  0  0  0
   31.0520   34.7260   15.2460 N   0  0  0  0  0  0  0  0  0  0  0  0
   31.2980   36.0500   14.7400 C   0  0  0  0  0  0  0  0  0  0  0  0
   32.3250   34.0080   15.0360 C   0  0  0  0  0  0  0  0  0  0  0  0
   33.4540   34.8710   14.6240 C   0  0  0  0  0  0  0  0  0  0  0  0
   30.0910   34.0870   14.3910 C   0  0  0  0  0  0  0  0  0  0  0  0
   30.1220   34.5210   12.9700 C   0  0  0  0  0  0  0  0  0  0  0  0
   29.8670   25.5550   16.9770 C   0  0  0  0  0  0  0  0  0  0  0  0
   28.3450   25.7220   17.0260 C   0  0  0  0  0  0  0  0  0  0  0  0
   27.5990   24.4270   16.7450 C   0  0  0  0  0  0  0  0  0  0  0  0
   26.9920   23.8410   17.9890 C   0  0  0  0  0  0  0  0  0  0  0  0
   25.5780   23.3560   17.6870 C   0  0  0  0  0  0  0  0  0  0  0  0
   24.8310   24.3810   16.9200 N   0  0  0  0  0  0  0  0  0  0  0  0
  1  2  1  0  0  0  0
  2  5  2  0  0  0  0
  3  2  1  0  0  0  0
  3  6  1  0  0  0  0
  4  3  1  0  0  0  0
  7  6  1  6  0  0  0
  7  8  1  0  0  0  0
  8 28  1  6  0  0  0
  9  8  1  6  0  0  0
  9 14  1  0  0  0  0
 10 17  1  6  0  0  0
 10 15  1  0  0  0  0
 10 11  1  0  0  0  0
 11 13  1  0  0  0  0
 12  9  1  0  0  0  0
 12 10  1  0  0  0  0
 13 21  1  6  0  0  0
 14 23  1  1  0  0  0
 14 13  1  0  0  0  0
 15 16  1  0  0  0  0
 17 18  2  0  0  0  0
 19 17  1  0  0  0  0
 20 19  1  0  0  0  0
 22 21  1  0  0  0  0
 23 24  1  0  0  0  0
 24 27  2  0  0  0  0
 24 26  1  0  0  0  0
 25 23  1  0  0  0  0
 28 29  1  0  0  0  0
 30  7  1  0  0  0  0
 31 30  1  0  0  0  0
 32 33  1  0  0  0  0
 32  1  1  0  0  0  0
 33 34  2  0  0  0  0
 34 36  1  0  0  0  0
 35 33  1  0  0  0  0
 35 37  2  0  0  0  0
 36 38  1  0  0  0  0
 37 36  1  0  0  0  0
 39 38  1  0  0  0  0
 40 39  1  0  0  0  0
 41 40  1  0  0  0  0
 42 41  1  0  0  0  0
 43 41  1  0  0  0  0
 44 43  1  0  0  0  0
 45 41  1  0  0  0  0
 46 45  1  0  0  0  0
 47 48  1  0  0  0  0
 49 48  1  0  0  0  0
 49 50  1  0  0  0  0
 51 50  1  0  0  0  0
 52 51  1  0  0  0  0
M  END
>  <REMARK>
 VINA RESULT:    -4.507      2.646      4.542
 INTER + INTRA:         -14.992
 INTER:                  -8.819
 INTRA:                  -6.173
 UNBOUND:                -5.875
 SMILES CC[N+](C)(CC)CCCn1cc(COC(=O)NC[C@@H](O)C(O)[C@@H]2O[C@@](O)(C(=O)O)C[C@H](O)[C@H]2NC(C)=O)nn1
 SMILES IDX 14 1 15 2 17 3 16 5 18 6 19 7 21 8 23 9 25 10 30 11 24 12
 SMILES IDX 31 13 33 14 26 15 27 17 28 18 29 19 32 21 34 23 35 24 36 26
 SMILES IDX 37 27 22 28 20 30 13 32 12 33 11 34 38 35 10 36 39 37 9 38
 SMILES IDX 8 39 7 40 3 41 4 42 2 43 1 44 5 45 6 46
 H PARENT 17 4 26 16 29 20 32 22 34 25 22 29 20 31
 Flexibility Score: inf
  4 active torsions:
  status: ('A' for Active; 'I' for Inactive)
    1  A    between atoms: CA   and  CB  
    2  A    between atoms: CB   and  CG  
    3  A    between atoms: CG   and  CD  
    4  A    between atoms: CD   and  CE  

>  <TORSDO>
F 20

>  <BEGIN_>
RES LYS A 131

$$$$
ligand_45_pose_1_2HRL.pdbqt
 OpenBabel07062320523D

  6  5  0  0  0  0  0  0  0  0999 V2000
   33.1930   34.6630    9.2900 C   0  0  0  0  0  0  0  0  0  0  0  0
   32.0600   35.3600   10.0340 C   0  0  0  0  0  0  0  0  0  0  0  0
   30.8990   35.7340    9.1500 C   0  0  0  0  0  0  0  0  0  0  0  0
   30.4450   34.5390    8.3250 C   0  0  0  0  0  0  0  0  0  0  0  0
   29.1510   34.8530    7.5990 C   0  0  0  0  0  0  0  0  0  0  0  0
   27.9760   34.6710    8.4940 N   0  0  0  0  0  0  0  0  0  0  0  0
  1  2  1  0  0  0  0
  3  2  1  0  0  0  0
  4  3  1  0  0  0  0
  5  4  1  0  0  0  0
  5  6  1  0  0  0  0
M  END
>  <EGIN_R>
ES LYS A 135

>  <REMARK>
  4 active torsions:
  status: ('A' for Active; 'I' for Inactive)
    5  A    between atoms: CA   and  CB  
    6  A    between atoms: CB   and  CG  
    7  A    between atoms: CG   and  CD  
    8  A    between atoms: CD   and  CE  

$$$$
