ligand_2_pose_7_2HRL.pdbqt
 OpenBabel07062320523D

 50 51  0  0  1  0  0  0  0  0999 V2000
   28.3290   29.0970   19.9650 C   0  0  0  0  0  0  0  0  0  0  0  0
   29.0930   28.0580   20.7230 C   0  0  2  0  0  0  0  0  0  0  0  0
   30.4710   28.6450   21.0670 C   0  0  2  0  0  0  0  0  0  0  0  0
   31.3510   27.6050   21.7580 C   0  0  2  0  0  0  0  0  0  0  0  0
   30.4040   26.7750   23.7390 C   0  0  2  0  0  0  0  0  0  0  0  0
   31.7130   26.6180   24.4820 C   0  0  0  0  0  0  0  0  0  0  0  0
   30.4910   26.7310   22.3910 O   0  0  0  0  0  0  0  0  0  0  0  0
   32.8230   27.0950   23.6150 C   0  0  1  0  0  0  0  0  0  0  0  0
   32.2950   28.2000   22.7200 C   0  0  1  0  0  0  0  0  0  0  0  0
   29.8050   27.9260   24.2460 O   0  0  0  0  0  0  0  0  0  0  0  0
   29.2560   27.6340   25.0170 H   0  0  0  0  0  0  0  0  0  0  0  0
   29.5620   25.6280   24.1660 C   0  0  0  0  0  0  0  0  0  0  0  0
   30.0300   24.8400   25.0190 O   0  0  0  0  0  0  0  0  0  0  0  0
   28.3110   25.4150   23.6570 O   0  0  0  0  0  0  0  0  0  0  0  0
   28.1990   25.2000   22.6630 H   0  0  0  0  0  0  0  0  0  0  0  0
   33.9500   27.4900   24.3240 O   0  0  0  0  0  0  0  0  0  0  0  0
   34.3810   26.7220   24.7500 H   0  0  0  0  0  0  0  0  0  0  0  0
   33.4170   28.9050   22.2030 N   0  0  0  0  0  0  0  0  0  0  0  0
   33.6480   30.2820   22.4350 C   0  0  0  0  0  0  0  0  0  0  0  0
   34.0870   28.3330   21.6220 H   0  0  0  0  0  0  0  0  0  0  0  0
   34.8260   30.9800   21.8820 C   0  0  0  0  0  0  0  0  0  0  0  0
   32.7720   30.8480   23.1460 O   0  0  0  0  0  0  0  0  0  0  0  0
   30.3140   29.7610   21.8960 O   0  0  0  0  0  0  0  0  0  0  0  0
   30.8810   30.5250   21.5920 H   0  0  0  0  0  0  0  0  0  0  0  0
   29.2150   26.8670   20.0440 O   0  0  0  0  0  0  0  0  0  0  0  0
   29.9900   26.3200   20.2570 H   0  0  0  0  0  0  0  0  0  0  0  0
   29.0920   29.9600   19.1280 N   0  0  0  0  0  0  0  0  0  0  0  0
   28.6590   30.4790   17.8820 C   0  0  0  0  0  0  0  0  0  0  0  0
   30.0610   30.2500   19.4400 H   0  0  0  0  0  0  0  0  0  0  0  0
   27.5380   30.2150   17.4170 O   0  0  0  0  0  0  0  0  0  0  0  0
   29.5080   31.3190   17.1340 O   0  0  0  0  0  0  0  0  0  0  0  0
   29.3110   31.4880   15.7330 C   0  0  0  0  0  0  0  0  0  0  0  0
   30.2750   32.5240   15.2880 C   0  0  0  0  0  0  0  0  0  0  0  0
   30.0160   33.5390   14.4150 C   0  0  0  0  0  0  0  0  0  0  0  0
   31.5420   32.6390   15.6590 N   0  0  0  0  0  0  0  0  0  0  0  0
   31.1560   34.2480   14.2830 N   0  0  0  0  0  0  0  0  0  0  0  0
   32.0760   33.6880   15.0470 N   0  0  0  0  0  0  0  0  0  0  0  0
   31.2690   35.3990   13.4400 C   0  0  0  0  0  0  0  0  0  0  0  0
   30.1960   36.2470   13.3080 C   0  0  0  0  0  0  0  0  0  0  0  0
   32.4610   35.6050   12.7940 C   0  0  0  0  0  0  0  0  0  0  0  0
   30.3470   37.3460   12.4840 C   0  0  0  0  0  0  0  0  0  0  0  0
   32.5800   36.7130   11.9780 C   0  0  0  0  0  0  0  0  0  0  0  0
   31.5360   37.5900   11.8130 C   0  0  0  0  0  0  0  0  0  0  0  0
   31.7500   38.9690   10.7690 Cl  0  0  0  0  0  0  0  0  0  0  0  0
   29.8670   25.5550   16.9770 C   0  0  0  0  0  0  0  0  0  0  0  0
   28.3450   25.7220   17.0260 C   0  0  0  0  0  0  0  0  0  0  0  0
   27.6010   24.4020   16.8970 C   0  0  0  0  0  0  0  0  0  0  0  0
   26.2020   24.4840   17.4410 C   0  0  0  0  0  0  0  0  0  0  0  0
   26.2120   25.2550   18.7570 C   0  0  0  0  0  0  0  0  0  0  0  0
   24.9080   25.9240   18.9760 N   0  0  0  0  0  0  0  0  0  0  0  0
  2  1  1  6  0  0  0
  2  3  1  0  0  0  0
  3 23  1  1  0  0  0
  4  3  1  1  0  0  0
  4  7  1  0  0  0  0
  4  9  1  0  0  0  0
  5 12  1  1  0  0  0
  5 10  1  0  0  0  0
  5  6  1  0  0  0  0
  7  5  1  0  0  0  0
  8 16  1  1  0  0  0
  8  6  1  0  0  0  0
  9 18  1  6  0  0  0
  9  8  1  0  0  0  0
 10 11  1  0  0  0  0
 12 13  2  0  0  0  0
 14 12  1  0  0  0  0
 15 14  1  0  0  0  0
 16 17  1  0  0  0  0
 18 19  1  0  0  0  0
 19 22  2  0  0  0  0
 20 18  1  0  0  0  0
 21 19  1  0  0  0  0
 24 23  1  0  0  0  0
 25 26  1  0  0  0  0
 25  2  1  0  0  0  0
 27 29  1  0  0  0  0
 27  1  1  0  0  0  0
 28 27  1  0  0  0  0
 30 28  2  0  0  0  0
 31 28  1  0  0  0  0
 32 31  1  0  0  0  0
 33 35  1  0  0  0  0
 33 32  1  0  0  0  0
 34 33  2  0  0  0  0
 36 34  1  0  0  0  0
 36 37  1  0  0  0  0
 37 35  2  0  0  0  0
 38 36  1  0  0  0  0
 39 38  1  0  0  0  0
 40 38  2  0  0  0  0
 41 39  2  0  0  0  0
 42 40  1  0  0  0  0
 43 42  2  0  0  0  0
 43 41  1  0  0  0  0
 44 43  1  0  0  0  0
 45 46  1  0  0  0  0
 47 46  1  0  0  0  0
 47 48  1  0  0  0  0
 48 49  1  0  0  0  0
 49 50  1  0  0  0  0
M  END
>  <REMARK>
 VINA RESULT:    -4.235      2.593      3.767
 INTER + INTRA:         -14.337
 INTER:                  -9.414
 INTRA:                  -4.923
 UNBOUND:                -7.007
 SMILES CC(=O)N[C@@H]1[C@@H](O)C[C@](O)(C(=O)O)O[C@H]1C(O)[C@H](O)CNC(=O)OCc1cn(-c2ccc(Cl)cc2)nn1
 SMILES IDX 20 1 18 2 16 3 15 4 9 5 8 6 14 7 6 8 5 9 10 10 11 12 12 13
 SMILES IDX 13 14 7 16 4 18 2 19 1 21 3 22 17 23 19 25 21 27 22 28 23 30
 SMILES IDX 24 31 25 32 26 33 27 34 37 35 28 36 36 37 29 38 30 39 35 40
 SMILES IDX 31 41 34 42 32 43 33 44
 H PARENT 10 11 13 15 7 17 4 20 17 24 19 26 21 29
 Flexibility Score: inf
  4 active torsions:
  status: ('A' for Active; 'I' for Inactive)
    1  A    between atoms: CA   and  CB  
    2  A    between atoms: CB   and  CG  
    3  A    between atoms: CG   and  CD  
    4  A    between atoms: CD   and  CE  

>  <TORSDO>
F 15

>  <BEGIN_>
RES LYS A 131

$$$$
ligand_2_pose_7_2HRL.pdbqt
 OpenBabel07062320523D

  6  5  0  0  0  0  0  0  0  0999 V2000
   33.1930   34.6630    9.2900 C   0  0  0  0  0  0  0  0  0  0  0  0
   32.0600   35.3600   10.0340 C   0  0  0  0  0  0  0  0  0  0  0  0
   30.6920   34.8440    9.6690 C   0  0  0  0  0  0  0  0  0  0  0  0
   30.6190   34.5220    8.1840 C   0  0  0  0  0  0  0  0  0  0  0  0
   29.3030   35.0010    7.6000 C   0  0  0  0  0  0  0  0  0  0  0  0
   28.6920   36.0590    8.4510 N   0  0  0  0  0  0  0  0  0  0  0  0
  1  2  1  0  0  0  0
  3  2  1  0  0  0  0
  4  3  1  0  0  0  0
  5  4  1  0  0  0  0
  5  6  1  0  0  0  0
M  END
>  <EGIN_R>
ES LYS A 135

>  <REMARK>
  4 active torsions:
  status: ('A' for Active; 'I' for Inactive)
    5  A    between atoms: CA   and  CB  
    6  A    between atoms: CB   and  CG  
    7  A    between atoms: CG   and  CD  
    8  A    between atoms: CD   and  CE  

$$$$
