ligand_39_pose_5_2HRL.pdbqt
 OpenBabel07062320523D

 51 52  0  0  1  0  0  0  0  0999 V2000
   26.2660   41.3890    7.1670 N   0  0  0  0  0  0  0  0  0  0  0  0
   27.4950   41.5630    7.8100 C   0  0  0  0  0  0  0  0  0  0  0  0
   27.5520   41.4620    9.0670 O   0  0  0  0  0  0  0  0  0  0  0  0
   26.2610   41.4800    6.1130 H   0  0  0  0  0  0  0  0  0  0  0  0
   25.0150   41.0980    7.8330 C   0  0  0  0  0  0  0  0  0  0  0  0
   24.5280   39.7280    7.4130 C   0  0  2  0  0  0  0  0  0  0  0  0
   24.9140   38.6710    8.4260 C   0  0  2  0  0  0  0  0  0  0  0  0
   23.7010   38.0000    9.0400 C   0  0  2  0  0  0  0  0  0  0  0  0
   21.3830   37.9460    8.7920 C   0  0  2  0  0  0  0  0  0  0  0  0
   21.1580   38.2580   10.2230 C   0  0  0  0  0  0  0  0  0  0  0  0
   22.6030   38.4570    8.3770 O   0  0  0  0  0  0  0  0  0  0  0  0
   22.3270   38.6790   11.0260 C   0  0  1  0  0  0  0  0  0  0  0  0
   23.6610   38.2010   10.5280 C   0  0  1  0  0  0  0  0  0  0  0  0
   20.4160   38.6420    8.0210 O   0  0  0  0  0  0  0  0  0  0  0  0
   20.7490   38.8110    7.1010 H   0  0  0  0  0  0  0  0  0  0  0  0
   21.2220   36.5170    8.5130 C   0  0  0  0  0  0  0  0  0  0  0  0
   21.1740   35.6370    9.4160 O   0  0  0  0  0  0  0  0  0  0  0  0
   21.1160   36.0900    7.1980 O   0  0  0  0  0  0  0  0  0  0  0  0
   20.5410   36.5610    6.5090 H   0  0  0  0  0  0  0  0  0  0  0  0
   22.3280   40.0770   11.1900 O   0  0  0  0  0  0  0  0  0  0  0  0
   21.8580   40.4250   10.3670 H   0  0  0  0  0  0  0  0  0  0  0  0
   24.1100   37.0340   11.2550 N   0  0  0  0  0  0  0  0  0  0  0  0
   25.3000   37.0230   12.0260 C   0  0  0  0  0  0  0  0  0  0  0  0
   23.5470   36.1620   11.2200 H   0  0  0  0  0  0  0  0  0  0  0  0
   25.7770   35.8300   12.7810 C   0  0  0  0  0  0  0  0  0  0  0  0
   25.9740   38.1080   12.0530 O   0  0  0  0  0  0  0  0  0  0  0  0
   25.7510   39.2250    9.3890 O   0  0  0  0  0  0  0  0  0  0  0  0
   25.1840   39.7180   10.0590 H   0  0  0  0  0  0  0  0  0  0  0  0
   25.1630   39.4710    6.1740 O   0  0  0  0  0  0  0  0  0  0  0  0
   24.9050   38.6130    5.8020 H   0  0  0  0  0  0  0  0  0  0  0  0
   28.6890   41.8430    7.1620 O   0  0  0  0  0  0  0  0  0  0  0  0
   29.5940   40.7970    6.8510 C   0  0  0  0  0  0  0  0  0  0  0  0
   28.8860   39.5920    6.3740 C   0  0  0  0  0  0  0  0  0  0  0  0
   28.8120   38.3480    7.0190 C   0  0  0  0  0  0  0  0  0  0  0  0
   28.1770   39.4110    5.2540 N   0  0  0  0  0  0  0  0  0  0  0  0
   28.0990   37.4890    6.3100 N   0  0  0  0  0  0  0  0  0  0  0  0
   27.7140   38.1810    5.2110 N   0  0  0  0  0  0  0  0  0  0  0  0
   27.7190   36.1070    6.4820 C   0  0  0  0  0  0  0  0  0  0  0  0
   28.4970   35.3500    7.4540 C   0  0  0  0  0  0  0  0  0  0  0  0
   29.8740   35.1730    7.2920 C   0  0  0  0  0  0  0  0  0  0  0  0
   27.9350   34.8100    8.5740 C   0  0  0  0  0  0  0  0  0  0  0  0
   30.5930   34.4870    8.2310 C   0  0  0  0  0  0  0  0  0  0  0  0
   28.6670   34.1170    9.5210 C   0  0  0  0  0  0  0  0  0  0  0  0
   26.0370   34.9380    8.8970 Br  0  0  0  0  0  0  0  0  0  0  0  0
   30.0190   33.9480    9.3550 C   0  0  0  0  0  0  0  0  0  0  0  0
   29.8670   25.5550   16.9770 C   0  0  0  0  0  0  0  0  0  0  0  0
   28.3450   25.7220   17.0260 C   0  0  0  0  0  0  0  0  0  0  0  0
   27.6010   24.4060   16.8630 C   0  0  0  0  0  0  0  0  0  0  0  0
   26.1640   24.5100   17.2930 C   0  0  0  0  0  0  0  0  0  0  0  0
   25.5860   23.1120   17.4820 C   0  0  0  0  0  0  0  0  0  0  0  0
   24.1800   23.0630   17.0150 N   0  0  0  0  0  0  0  0  0  0  0  0
  1  2  1  0  0  0  0
  1  5  1  0  0  0  0
  2  3  2  0  0  0  0
  4  1  1  0  0  0  0
  6  5  1  1  0  0  0
  6  7  1  0  0  0  0
  7 27  1  1  0  0  0
  8  7  1  6  0  0  0
  8 13  1  0  0  0  0
  9 14  1  6  0  0  0
  9 10  1  0  0  0  0
 10 12  1  0  0  0  0
 11  9  1  0  0  0  0
 11  8  1  0  0  0  0
 12 20  1  6  0  0  0
 13 12  1  0  0  0  0
 13 22  1  1  0  0  0
 15 14  1  0  0  0  0
 16  9  1  0  0  0  0
 16 17  2  0  0  0  0
 18 16  1  0  0  0  0
 19 18  1  0  0  0  0
 21 20  1  0  0  0  0
 22 23  1  0  0  0  0
 23 26  2  0  0  0  0
 23 25  1  0  0  0  0
 24 22  1  0  0  0  0
 27 28  1  0  0  0  0
 29  6  1  0  0  0  0
 30 29  1  0  0  0  0
 31  2  1  0  0  0  0
 32 31  1  0  0  0  0
 33 32  1  0  0  0  0
 33 34  2  0  0  0  0
 35 33  1  0  0  0  0
 36 38  1  0  0  0  0
 36 34  1  0  0  0  0
 37 35  2  0  0  0  0
 37 36  1  0  0  0  0
 38 39  1  0  0  0  0
 39 41  1  0  0  0  0
 40 39  2  0  0  0  0
 40 42  1  0  0  0  0
 41 44  1  0  0  0  0
 41 43  2  0  0  0  0
 42 45  2  0  0  0  0
 45 43  1  0  0  0  0
 46 47  1  0  0  0  0
 48 47  1  0  0  0  0
 48 49  1  0  0  0  0
 49 50  1  0  0  0  0
 51 50  1  0  0  0  0
M  END
>  <REMARK>
 VINA RESULT:    -4.190      7.842     12.889
 INTER + INTRA:         -14.923
 INTER:                  -9.529
 INTRA:                  -5.394
 UNBOUND:                -7.426
 SMILES CC(=O)N[C@@H]1[C@@H](O)C[C@](O)(C(=O)O)O[C@H]1C(O)[C@H](O)CNC(=O)OCc1cn(Cc2ccccc2Br)nn1
 SMILES IDX 21 1 22 2 23 3 20 5 18 6 16 7 15 8 9 9 8 10 14 11 6 12 5 13
 SMILES IDX 10 14 11 16 12 17 13 18 7 20 4 22 2 23 1 25 3 26 17 27 19 29
 SMILES IDX 24 31 25 32 26 33 27 34 38 35 28 36 37 37 29 38 30 39 31 40
 SMILES IDX 35 41 32 42 34 43 36 44 33 45
 H PARENT 21 4 10 15 13 19 7 21 4 24 17 28 19 30
 Flexibility Score: inf
  4 active torsions:
  status: ('A' for Active; 'I' for Inactive)
    1  A    between atoms: CA   and  CB  
    2  A    between atoms: CB   and  CG  
    3  A    between atoms: CG   and  CD  
    4  A    between atoms: CD   and  CE  

>  <TORSDO>
F 16

>  <BEGIN_>
RES LYS A 131

$$$$
ligand_39_pose_5_2HRL.pdbqt
 OpenBabel07062320523D

  6  5  0  0  0  0  0  0  0  0999 V2000
   33.1930   34.6630    9.2900 C   0  0  0  0  0  0  0  0  0  0  0  0
   32.0600   35.3600   10.0340 C   0  0  0  0  0  0  0  0  0  0  0  0
   32.5090   36.0760   11.2810 C   0  0  0  0  0  0  0  0  0  0  0  0
   31.8640   37.4500   11.3730 C   0  0  0  0  0  0  0  0  0  0  0  0
   30.4840   37.4340   10.7430 C   0  0  0  0  0  0  0  0  0  0  0  0
   29.4460   37.0420   11.7350 N   0  0  0  0  0  0  0  0  0  0  0  0
  1  2  1  0  0  0  0
  2  3  1  0  0  0  0
  3  4  1  0  0  0  0
  5  4  1  0  0  0  0
  5  6  1  0  0  0  0
M  END
>  <EGIN_R>
ES LYS A 135

>  <REMARK>
  4 active torsions:
  status: ('A' for Active; 'I' for Inactive)
    5  A    between atoms: CA   and  CB  
    6  A    between atoms: CB   and  CG  
    7  A    between atoms: CG   and  CD  
    8  A    between atoms: CD   and  CE  

$$$$
