ligand_56_pose_18_2HRL.pdbqt
 OpenBabel07062320523D

 49 50  0  0  1  0  0  0  0  0999 V2000
   26.7620   31.2960   20.8420 C   0  0  0  0  0  0  0  0  0  0  0  0
   27.4470   30.9330   22.1120 C   0  0  2  0  0  0  0  0  0  0  0  0
   27.1750   29.4990   22.5350 C   0  0  2  0  0  0  0  0  0  0  0  0
   28.3980   28.6570   22.6030 C   0  0  2  0  0  0  0  0  0  0  0  0
   30.0200   27.5850   21.3610 C   0  0  2  0  0  0  0  0  0  0  0  0
   30.4840   27.0770   22.7030 C   0  0  0  0  0  0  0  0  0  0  0  0
   29.1190   28.6110   21.4430 O   0  0  0  0  0  0  0  0  0  0  0  0
   29.3460   26.6470   23.5870 C   0  0  1  0  0  0  0  0  0  0  0  0
   28.0720   27.2270   23.0050 C   0  0  1  0  0  0  0  0  0  0  0  0
   29.5500   26.5530   20.5490 O   0  0  0  0  0  0  0  0  0  0  0  0
   29.3710   25.7250   21.0700 H   0  0  0  0  0  0  0  0  0  0  0  0
   31.2430   28.1290   20.6720 C   0  0  0  0  0  0  0  0  0  0  0  0
   31.6040   29.3130   20.7580 O   0  0  0  0  0  0  0  0  0  0  0  0
   31.9670   27.2130   19.9140 O   0  0  0  0  0  0  0  0  0  0  0  0
   31.6100   26.2720   19.7690 H   0  0  0  0  0  0  0  0  0  0  0  0
   29.2490   25.2590   23.6770 O   0  0  0  0  0  0  0  0  0  0  0  0
   30.0470   24.9020   24.1370 H   0  0  0  0  0  0  0  0  0  0  0  0
   26.9760   27.1620   23.9420 N   0  0  0  0  0  0  0  0  0  0  0  0
   26.0440   26.0890   23.9000 C   0  0  0  0  0  0  0  0  0  0  0  0
   26.8360   27.8890   24.6670 H   0  0  0  0  0  0  0  0  0  0  0  0
   24.8970   25.9900   24.8570 C   0  0  0  0  0  0  0  0  0  0  0  0
   26.1910   25.1930   23.0310 O   0  0  0  0  0  0  0  0  0  0  0  0
   26.1120   28.9720   21.8480 O   0  0  0  0  0  0  0  0  0  0  0  0
   25.4830   29.7050   21.6080 H   0  0  0  0  0  0  0  0  0  0  0  0
   27.0600   31.7200   23.1820 O   0  0  0  0  0  0  0  0  0  0  0  0
   27.0920   31.2570   24.0490 H   0  0  0  0  0  0  0  0  0  0  0  0
   27.5840   31.0020   19.7030 N   0  0  0  0  0  0  0  0  0  0  0  0
   27.4530   29.9470   18.7920 C   0  0  0  0  0  0  0  0  0  0  0  0
   28.4120   31.6650   19.5080 H   0  0  0  0  0  0  0  0  0  0  0  0
   26.5530   29.1150   18.9110 O   0  0  0  0  0  0  0  0  0  0  0  0
   28.3270   29.7750   17.7010 O   0  0  0  0  0  0  0  0  0  0  0  0
   27.8430   30.0130   16.3750 C   0  0  0  0  0  0  0  0  0  0  0  0
   28.3330   31.2940   15.8560 C   0  0  0  0  0  0  0  0  0  0  0  0
   29.5980   31.6470   15.4450 C   0  0  0  0  0  0  0  0  0  0  0  0
   27.5720   32.3960   15.6880 N   0  0  0  0  0  0  0  0  0  0  0  0
   29.5420   32.9390   15.0510 N   0  0  0  0  0  0  0  0  0  0  0  0
   28.3190   33.3810   15.2020 N   0  0  0  0  0  0  0  0  0  0  0  0
   30.6240   33.7250   14.5470 C   0  0  0  0  0  0  0  0  0  0  0  0
   31.8040   33.7520   15.2510 C   0  0  0  0  0  0  0  0  0  0  0  0
   30.4800   34.4460   13.3680 C   0  0  0  0  0  0  0  0  0  0  0  0
   32.8370   34.5150   14.7510 C   0  0  0  0  0  0  0  0  0  0  0  0
   31.5330   35.1860   12.9140 C   0  0  0  0  0  0  0  0  0  0  0  0
   32.6860   35.2050   13.6130 N   0  0  0  0  0  0  0  0  0  0  0  0
   29.8670   25.5550   16.9770 C   0  0  0  0  0  0  0  0  0  0  0  0
   28.3450   25.7220   17.0260 C   0  0  0  0  0  0  0  0  0  0  0  0
   27.6010   24.4060   16.8590 C   0  0  0  0  0  0  0  0  0  0  0  0
   26.1580   24.5160   17.2670 C   0  0  0  0  0  0  0  0  0  0  0  0
   26.0550   25.3040   18.5690 C   0  0  0  0  0  0  0  0  0  0  0  0
   25.5270   24.4460   19.6550 N   0  0  0  0  0  0  0  0  0  0  0  0
  2  1  1  6  0  0  0
  2  3  1  0  0  0  0
  2 25  1  0  0  0  0
  3 23  1  6  0  0  0
  4  3  1  6  0  0  0
  4  9  1  0  0  0  0
  5 10  1  6  0  0  0
  5  7  1  0  0  0  0
  5  6  1  0  0  0  0
  6  8  1  0  0  0  0
  7  4  1  0  0  0  0
  8 16  1  6  0  0  0
  9  8  1  0  0  0  0
  9 18  1  1  0  0  0
 10 11  1  0  0  0  0
 12 13  2  0  0  0  0
 12  5  1  0  0  0  0
 14 12  1  0  0  0  0
 15 14  1  0  0  0  0
 16 17  1  0  0  0  0
 18 20  1  0  0  0  0
 19 18  1  0  0  0  0
 19 21  1  0  0  0  0
 22 19  2  0  0  0  0
 24 23  1  0  0  0  0
 25 26  1  0  0  0  0
 27  1  1  0  0  0  0
 28 30  2  0  0  0  0
 28 27  1  0  0  0  0
 29 27  1  0  0  0  0
 31 28  1  0  0  0  0
 32 31  1  0  0  0  0
 33 32  1  0  0  0  0
 34 33  2  0  0  0  0
 35 33  1  0  0  0  0
 36 37  1  0  0  0  0
 36 34  1  0  0  0  0
 37 35  2  0  0  0  0
 38 36  1  0  0  0  0
 38 39  2  0  0  0  0
 40 38  1  0  0  0  0
 41 39  1  0  0  0  0
 42 40  2  0  0  0  0
 42 43  1  0  0  0  0
 43 41  2  0  0  0  0
 44 45  1  0  0  0  0
 46 45  1  0  0  0  0
 46 47  1  0  0  0  0
 47 48  1  0  0  0  0
 48 49  1  0  0  0  0
M  END
>  <REMARK>
 VINA RESULT:    -4.723      3.077      4.979
 INTER + INTRA:         -13.447
 INTER:                  -8.175
 INTRA:                  -5.272
 UNBOUND:                -5.272
 SMILES CC(=O)N[C@@H]1[C@@H](O)C[C@](O)(C(=O)O)O[C@H]1C(O)[C@H](O)CNC(=O)OCc1cn(-c2ccncc2)nn1
 SMILES IDX 20 1 18 2 16 3 15 4 9 5 8 6 14 7 6 8 5 9 10 10 11 12 12 13
 SMILES IDX 13 14 7 16 4 18 2 19 1 21 3 22 17 23 19 25 21 27 22 28 23 30
 SMILES IDX 24 31 25 32 26 33 27 34 36 35 28 36 35 37 29 38 30 39 34 40
 SMILES IDX 31 41 33 42 32 43
 H PARENT 10 11 13 15 7 17 4 20 17 24 19 26 21 29
 Flexibility Score: inf
  4 active torsions:
  status: ('A' for Active; 'I' for Inactive)
    1  A    between atoms: CA   and  CB  
    2  A    between atoms: CB   and  CG  
    3  A    between atoms: CG   and  CD  
    4  A    between atoms: CD   and  CE  

>  <TORSDO>
F 15

>  <BEGIN_>
RES LYS A 131

$$$$
ligand_56_pose_18_2HRL.pdbqt
 OpenBabel07062320523D

  6  5  0  0  0  0  0  0  0  0999 V2000
   33.1930   34.6630    9.2900 C   0  0  0  0  0  0  0  0  0  0  0  0
   32.0600   35.3600   10.0340 C   0  0  0  0  0  0  0  0  0  0  0  0
   30.7970   35.4910    9.2220 C   0  0  0  0  0  0  0  0  0  0  0  0
   30.0090   34.1900    9.2430 C   0  0  0  0  0  0  0  0  0  0  0  0
   28.6700   34.3680    8.5530 C   0  0  0  0  0  0  0  0  0  0  0  0
   28.7720   35.3350    7.4250 N   0  0  0  0  0  0  0  0  0  0  0  0
  1  2  1  0  0  0  0
  3  4  1  0  0  0  0
  3  2  1  0  0  0  0
  5  4  1  0  0  0  0
  6  5  1  0  0  0  0
M  END
>  <EGIN_R>
ES LYS A 135

>  <REMARK>
  4 active torsions:
  status: ('A' for Active; 'I' for Inactive)
    5  A    between atoms: CA   and  CB  
    6  A    between atoms: CB   and  CG  
    7  A    between atoms: CG   and  CD  
    8  A    between atoms: CD   and  CE  

$$$$
