ligand_59_pose_16_2HRL.pdbqt
 OpenBabel07062320523D

 52 53  0  0  1  0  0  0  0  0999 V2000
   29.6510   30.7270   17.3420 N   0  0  0  0  0  0  0  0  0  0  0  0
   28.7130   30.9500   18.4060 C   0  0  0  0  0  0  0  0  0  0  0  0
   28.8570   32.0080   19.0590 O   0  0  0  0  0  0  0  0  0  0  0  0
   29.4870   29.8420   16.8160 H   0  0  0  0  0  0  0  0  0  0  0  0
   30.6850   31.6820   17.0500 C   0  0  0  0  0  0  0  0  0  0  0  0
   30.5530   32.1500   15.6100 C   0  0  2  0  0  0  0  0  0  0  0  0
   29.8820   33.4920   15.6690 C   0  0  2  0  0  0  0  0  0  0  0  0
   30.4850   34.5950   14.8480 C   0  0  2  0  0  0  0  0  0  0  0  0
   32.5930   35.6560   14.8630 C   0  0  2  0  0  0  0  0  0  0  0  0
   31.9870   37.0200   14.6420 C   0  0  0  0  0  0  0  0  0  0  0  0
   31.7210   34.7790   15.4100 O   0  0  0  0  0  0  0  0  0  0  0  0
   30.6630   36.9820   15.3800 C   0  0  1  0  0  0  0  0  0  0  0  0
   29.7690   35.8750   14.7680 C   0  0  1  0  0  0  0  0  0  0  0  0
   33.6710   35.8710   15.7770 O   0  0  0  0  0  0  0  0  0  0  0  0
   33.6870   36.8270   16.0390 H   0  0  0  0  0  0  0  0  0  0  0  0
   33.2130   35.0800   13.6520 C   0  0  0  0  0  0  0  0  0  0  0  0
   32.9390   35.5590   12.5340 O   0  0  0  0  0  0  0  0  0  0  0  0
   34.0950   34.0200   13.7350 O   0  0  0  0  0  0  0  0  0  0  0  0
   33.9070   33.1830   13.1970 H   0  0  0  0  0  0  0  0  0  0  0  0
   30.8110   36.8250   16.7360 O   0  0  0  0  0  0  0  0  0  0  0  0
   30.2670   37.5160   17.2120 H   0  0  0  0  0  0  0  0  0  0  0  0
   29.4680   36.3530   13.4580 N   0  0  0  0  0  0  0  0  0  0  0  0
   28.2820   36.0140   12.7870 C   0  0  0  0  0  0  0  0  0  0  0  0
   30.1520   36.9670   12.9830 H   0  0  0  0  0  0  0  0  0  0  0  0
   27.9700   36.5110   11.4260 C   0  0  0  0  0  0  0  0  0  0  0  0
   27.4560   35.2680   13.3500 O   0  0  0  0  0  0  0  0  0  0  0  0
   29.9430   33.9390   17.0020 O   0  0  0  0  0  0  0  0  0  0  0  0
   30.3090   34.8620   17.0620 H   0  0  0  0  0  0  0  0  0  0  0  0
   29.6550   31.2010   15.0480 O   0  0  0  0  0  0  0  0  0  0  0  0
   30.0990   30.3380   15.0200 H   0  0  0  0  0  0  0  0  0  0  0  0
   27.7080   30.0760   18.7150 O   0  0  0  0  0  0  0  0  0  0  0  0
   27.1490   29.1650   17.8190 C   0  0  0  0  0  0  0  0  0  0  0  0
   26.4480   29.8030   16.6760 C   0  0  0  0  0  0  0  0  0  0  0  0
   25.2220   29.3660   16.1690 C   0  0  0  0  0  0  0  0  0  0  0  0
   26.7710   30.8430   15.9180 N   0  0  0  0  0  0  0  0  0  0  0  0
   24.8730   30.1480   15.1470 N   0  0  0  0  0  0  0  0  0  0  0  0
   25.8220   31.0420   15.0020 N   0  0  0  0  0  0  0  0  0  0  0  0
   23.6840   30.0220   14.3530 C   0  0  0  0  0  0  0  0  0  0  0  0
   23.6540   29.3530   13.1480 C   0  0  0  0  0  0  0  0  0  0  0  0
   22.5390   30.5830   14.7740 N   0  0  0  0  0  0  0  0  0  0  0  0
   22.5260   29.2390   12.3800 C   0  0  0  0  0  0  0  0  0  0  0  0
   21.4090   30.4970   14.0560 C   0  0  0  0  0  0  0  0  0  0  0  0
   21.3630   29.8260   12.8390 C   0  0  0  0  0  0  0  0  0  0  0  0
   20.0790   29.7610   12.0830 C   0  0  0  0  0  0  0  0  0  0  0  0
   19.4160   28.5890   12.4230 O   0  0  0  0  0  0  0  0  0  0  0  0
   19.8160   28.2000   13.2420 H   0  0  0  0  0  0  0  0  0  0  0  0
   29.8670   25.5550   16.9770 C   0  0  0  0  0  0  0  0  0  0  0  0
   28.3450   25.7220   17.0260 C   0  0  0  0  0  0  0  0  0  0  0  0
   27.6010   24.4010   16.9060 C   0  0  0  0  0  0  0  0  0  0  0  0
   26.1530   24.5290   17.2870 C   0  0  0  0  0  0  0  0  0  0  0  0
   25.6360   23.1840   17.7870 C   0  0  0  0  0  0  0  0  0  0  0  0
   25.5150   23.1920   19.2640 N   0  0  0  0  0  0  0  0  0  0  0  0
  1  2  1  0  0  0  0
  2 31  1  0  0  0  0
  2  3  2  0  0  0  0
  4  1  1  0  0  0  0
  5  1  1  0  0  0  0
  6  7  1  0  0  0  0
  6  5  1  1  0  0  0
  7 27  1  1  0  0  0
  8 11  1  0  0  0  0
  8  7  1  1  0  0  0
  9 16  1  6  0  0  0
  9 11  1  0  0  0  0
  9 14  1  0  0  0  0
 10  9  1  0  0  0  0
 10 12  1  0  0  0  0
 12 20  1  1  0  0  0
 13 22  1  6  0  0  0
 13  8  1  0  0  0  0
 13 12  1  0  0  0  0
 14 15  1  0  0  0  0
 16 18  1  0  0  0  0
 17 16  2  0  0  0  0
 19 18  1  0  0  0  0
 20 21  1  0  0  0  0
 23 26  2  0  0  0  0
 23 22  1  0  0  0  0
 24 22  1  0  0  0  0
 25 23  1  0  0  0  0
 27 28  1  0  0  0  0
 29  6  1  0  0  0  0
 30 29  1  0  0  0  0
 32 31  1  0  0  0  0
 33 32  1  0  0  0  0
 34 33  2  0  0  0  0
 35 33  1  0  0  0  0
 36 34  1  0  0  0  0
 37 36  1  0  0  0  0
 37 35  2  0  0  0  0
 38 40  1  0  0  0  0
 38 36  1  0  0  0  0
 39 38  2  0  0  0  0
 41 43  2  0  0  0  0
 41 39  1  0  0  0  0
 42 40  2  0  0  0  0
 43 42  1  0  0  0  0
 44 45  1  0  0  0  0
 44 43  1  0  0  0  0
 45 46  1  0  0  0  0
 47 48  1  0  0  0  0
 49 48  1  0  0  0  0
 49 50  1  0  0  0  0
 50 51  1  0  0  0  0
 51 52  1  0  0  0  0
M  END
>  <REMARK>
 VINA RESULT:    -4.815      3.330      7.956
 INTER + INTRA:         -14.490
 INTER:                  -9.096
 INTRA:                  -5.394
 UNBOUND:                -5.735
 SMILES CC(=O)N[C@@H]1[C@@H](O)C[C@](O)(C(=O)O)O[C@H]1C(O)[C@H](O)CNC(=O)OCc1cn(-c2ccc(CO)cn2)nn1
 SMILES IDX 21 1 22 2 23 3 20 5 18 6 16 7 15 8 9 9 8 10 14 11 6 12 5 13
 SMILES IDX 10 14 11 16 12 17 13 18 7 20 4 22 2 23 1 25 3 26 17 27 19 29
 SMILES IDX 24 31 25 32 26 33 27 34 38 35 28 36 37 37 29 38 30 39 36 40
 SMILES IDX 31 41 35 42 32 43 33 44 34 45
 H PARENT 21 4 10 15 13 19 7 21 4 24 17 28 19 30 34 46
 Flexibility Score: inf
  4 active torsions:
  status: ('A' for Active; 'I' for Inactive)
    1  A    between atoms: CA   and  CB  
    2  A    between atoms: CB   and  CG  
    3  A    between atoms: CG   and  CD  
    4  A    between atoms: CD   and  CE  

>  <TORSDO>
F 17

>  <BEGIN_>
RES LYS A 131

$$$$
ligand_59_pose_16_2HRL.pdbqt
 OpenBabel07062320523D

  6  5  0  0  0  0  0  0  0  0999 V2000
   33.1930   34.6630    9.2900 C   0  0  0  0  0  0  0  0  0  0  0  0
   32.0600   35.3600   10.0340 C   0  0  0  0  0  0  0  0  0  0  0  0
   30.7380   34.6460    9.9240 C   0  0  0  0  0  0  0  0  0  0  0  0
   30.5060   34.1620    8.5010 C   0  0  0  0  0  0  0  0  0  0  0  0
   29.5650   35.0980    7.7670 C   0  0  0  0  0  0  0  0  0  0  0  0
   28.1460   34.8230    8.1280 N   0  0  0  0  0  0  0  0  0  0  0  0
  1  2  1  0  0  0  0
  3  2  1  0  0  0  0
  4  3  1  0  0  0  0
  5  6  1  0  0  0  0
  5  4  1  0  0  0  0
M  END
>  <EGIN_R>
ES LYS A 135

>  <REMARK>
  4 active torsions:
  status: ('A' for Active; 'I' for Inactive)
    5  A    between atoms: CA   and  CB  
    6  A    between atoms: CB   and  CG  
    7  A    between atoms: CG   and  CD  
    8  A    between atoms: CD   and  CE  

$$$$
