ligand_65_pose_18_2HRL.pdbqt
 OpenBabel07062320523D

 53 54  0  0  1  0  0  0  0  0999 V2000
   31.4300   37.4820   13.1870 N   0  0  0  0  0  0  0  0  0  0  0  0
   30.9050   38.6330   12.5660 C   0  0  0  0  0  0  0  0  0  0  0  0
   31.1540   38.9690   11.3870 O   0  0  0  0  0  0  0  0  0  0  0  0
   31.1910   37.2240   14.1910 H   0  0  0  0  0  0  0  0  0  0  0  0
   32.3240   36.6140   12.4500 C   0  0  0  0  0  0  0  0  0  0  0  0
   31.9480   35.1910   12.7210 C   0  0  2  0  0  0  0  0  0  0  0  0
   30.7880   35.1320   13.6940 C   0  0  2  0  0  0  0  0  0  0  0  0
   31.0440   33.9830   14.6560 C   0  0  2  0  0  0  0  0  0  0  0  0
   29.0760   32.9690   15.4640 C   0  0  2  0  0  0  0  0  0  0  0  0
   29.1950   33.6900   16.7710 C   0  0  0  0  0  0  0  0  0  0  0  0
   30.0420   33.1100   14.5620 O   0  0  0  0  0  0  0  0  0  0  0  0
   30.6760   33.7560   17.1220 C   0  0  1  0  0  0  0  0  0  0  0  0
   31.2750   34.6100   16.0050 C   0  0  1  0  0  0  0  0  0  0  0  0
   27.8620   33.4100   14.8860 O   0  0  0  0  0  0  0  0  0  0  0  0
   27.8180   34.3930   14.8460 H   0  0  0  0  0  0  0  0  0  0  0  0
   28.8890   31.5290   15.7720 C   0  0  0  0  0  0  0  0  0  0  0  0
   29.8690   30.8080   16.0920 O   0  0  0  0  0  0  0  0  0  0  0  0
   27.6470   30.9200   15.7210 O   0  0  0  0  0  0  0  0  0  0  0  0
   27.0560   30.8000   16.5470 H   0  0  0  0  0  0  0  0  0  0  0  0
   30.8900   34.4040   18.3220 O   0  0  0  0  0  0  0  0  0  0  0  0
   31.8090   34.7960   18.2870 H   0  0  0  0  0  0  0  0  0  0  0  0
   32.6820   34.8510   16.2360 N   0  0  0  0  0  0  0  0  0  0  0  0
   33.2100   36.1670   16.2370 C   0  0  0  0  0  0  0  0  0  0  0  0
   33.2720   34.0030   16.3990 H   0  0  0  0  0  0  0  0  0  0  0  0
   34.6580   36.3450   16.4800 C   0  0  0  0  0  0  0  0  0  0  0  0
   32.4930   37.1730   16.0410 O   0  0  0  0  0  0  0  0  0  0  0  0
   29.6050   34.8550   12.9570 O   0  0  0  0  0  0  0  0  0  0  0  0
   29.6590   35.4770   12.1760 H   0  0  0  0  0  0  0  0  0  0  0  0
   33.0670   34.5140   13.2290 O   0  0  0  0  0  0  0  0  0  0  0  0
   33.6700   34.2450   12.5140 H   0  0  0  0  0  0  0  0  0  0  0  0
   30.0450   39.4610   13.3070 O   0  0  0  0  0  0  0  0  0  0  0  0
   28.6920   39.5190   12.9110 C   0  0  0  0  0  0  0  0  0  0  0  0
   28.0200   38.2420   13.3160 C   0  0  0  0  0  0  0  0  0  0  0  0
   26.9850   37.5950   12.6670 C   0  0  0  0  0  0  0  0  0  0  0  0
   28.2820   37.4640   14.3910 N   0  0  0  0  0  0  0  0  0  0  0  0
   26.6520   36.4750   13.3390 N   0  0  0  0  0  0  0  0  0  0  0  0
   27.4560   36.4240   14.3770 N   0  0  0  0  0  0  0  0  0  0  0  0
   25.6300   35.5380   12.9810 C   0  0  0  0  0  0  0  0  0  0  0  0
   25.5430   34.3270   13.5620 N   0  0  0  0  0  0  0  0  0  0  0  0
   24.7120   35.8420   12.0430 N   0  0  0  0  0  0  0  0  0  0  0  0
   24.6010   33.4210   13.2560 C   0  0  0  0  0  0  0  0  0  0  0  0
   23.7350   34.9690   11.6890 C   0  0  0  0  0  0  0  0  0  0  0  0
   23.7000   33.7810   12.3010 N   0  0  0  0  0  0  0  0  0  0  0  0
   22.7170   35.2930   10.6540 C   0  0  0  0  0  0  0  0  0  0  0  0
   24.5070   32.1520   13.8620 N   0  0  0  0  0  0  0  0  0  0  0  0
   25.0700   31.3680   13.5060 H   0  0  0  0  0  0  0  0  0  0  0  0
   23.8720   32.0120   14.6610 H   0  0  0  0  0  0  0  0  0  0  0  0
   29.8670   25.5550   16.9770 C   0  0  0  0  0  0  0  0  0  0  0  0
   28.3450   25.7220   17.0260 C   0  0  0  0  0  0  0  0  0  0  0  0
   27.6000   24.4170   16.7940 C   0  0  0  0  0  0  0  0  0  0  0  0
   26.5560   24.1660   17.8470 C   0  0  0  0  0  0  0  0  0  0  0  0
   25.1730   24.1680   17.2030 C   0  0  0  0  0  0  0  0  0  0  0  0
   24.5150   22.8520   17.3820 N   0  0  0  0  0  0  0  0  0  0  0  0
  1  4  1  0  0  0  0
  2  1  1  0  0  0  0
  2 31  1  0  0  0  0
  3  2  2  0  0  0  0
  5  1  1  0  0  0  0
  6  5  1  1  0  0  0
  6 29  1  0  0  0  0
  6  7  1  0  0  0  0
  7 27  1  6  0  0  0
  8  7  1  6  0  0  0
  8 13  1  0  0  0  0
  9 14  1  6  0  0  0
  9 16  1  0  0  0  0
  9 10  1  0  0  0  0
 10 12  1  0  0  0  0
 11  8  1  0  0  0  0
 11  9  1  0  0  0  0
 12 20  1  1  0  0  0
 13 22  1  1  0  0  0
 13 12  1  0  0  0  0
 15 14  1  0  0  0  0
 16 17  2  0  0  0  0
 18 16  1  0  0  0  0
 18 19  1  0  0  0  0
 21 20  1  0  0  0  0
 22 23  1  0  0  0  0
 22 24  1  0  0  0  0
 23 25  1  0  0  0  0
 26 23  2  0  0  0  0
 28 27  1  0  0  0  0
 30 29  1  0  0  0  0
 32 31  1  0  0  0  0
 32 33  1  0  0  0  0
 33 35  1  0  0  0  0
 34 33  2  0  0  0  0
 34 36  1  0  0  0  0
 36 37  1  0  0  0  0
 37 35  2  0  0  0  0
 38 36  1  0  0  0  0
 38 39  2  0  0  0  0
 40 38  1  0  0  0  0
 41 39  2  0  0  0  0
 41 45  1  0  0  0  0
 42 40  2  0  0  0  0
 42 43  1  0  0  0  0
 43 41  1  0  0  0  0
 44 42  1  0  0  0  0
 45 47  1  0  0  0  0
 46 45  1  0  0  0  0
 48 49  1  0  0  0  0
 50 49  1  0  0  0  0
 50 51  1  0  0  0  0
 52 53  1  0  0  0  0
 52 51  1  0  0  0  0
M  END
>  <REMARK>
 VINA RESULT:    -4.940      4.506      8.459
 INTER + INTRA:         -13.829
 INTER:                  -6.766
 INTRA:                  -7.063
 UNBOUND:                -5.134
 SMILES CC(=O)N[C@@H]1[C@@H](O)C[C@](O)(C(=O)O)O[C@H]1C(O)[C@H](O)CNC(=O)OCc1cn(-c2nc(C)nc(N)n2)nn1
 SMILES IDX 21 1 22 2 23 3 20 5 18 6 16 7 15 8 9 9 8 10 14 11 6 12 5 13
 SMILES IDX 10 14 11 16 12 17 13 18 7 20 4 22 2 23 1 25 3 26 17 27 19 29
 SMILES IDX 24 31 25 32 26 33 27 34 38 35 28 36 37 37 29 38 36 39 30 40
 SMILES IDX 34 41 31 42 33 43 32 44 35 45
 H PARENT 21 4 10 15 13 19 7 21 4 24 17 28 19 30 35 46 35 47
 Flexibility Score: inf
  4 active torsions:
  status: ('A' for Active; 'I' for Inactive)
    1  A    between atoms: CA   and  CB  
    2  A    between atoms: CB   and  CG  
    3  A    between atoms: CG   and  CD  
    4  A    between atoms: CD   and  CE  

>  <TORSDO>
F 16

>  <BEGIN_>
RES LYS A 131

$$$$
ligand_65_pose_18_2HRL.pdbqt
 OpenBabel07062320523D

  6  5  0  0  0  0  0  0  0  0999 V2000
   33.1930   34.6630    9.2900 C   0  0  0  0  0  0  0  0  0  0  0  0
   32.0600   35.3600   10.0340 C   0  0  0  0  0  0  0  0  0  0  0  0
   30.7890   35.4670    9.2320 C   0  0  0  0  0  0  0  0  0  0  0  0
   30.1590   34.0960    9.0390 C   0  0  0  0  0  0  0  0  0  0  0  0
   28.7140   34.1030    9.4990 C   0  0  0  0  0  0  0  0  0  0  0  0
   27.8070   34.5640    8.4120 N   0  0  0  0  0  0  0  0  0  0  0  0
  1  2  1  0  0  0  0
  3  2  1  0  0  0  0
  4  3  1  0  0  0  0
  4  5  1  0  0  0  0
  6  5  1  0  0  0  0
M  END
>  <EGIN_R>
ES LYS A 135

>  <REMARK>
  4 active torsions:
  status: ('A' for Active; 'I' for Inactive)
    5  A    between atoms: CA   and  CB  
    6  A    between atoms: CB   and  CG  
    7  A    between atoms: CG   and  CD  
    8  A    between atoms: CD   and  CE  

$$$$
