ligand_73_pose_7_2HRL.pdbqt
 OpenBabel07062320523D

 54 55  0  0  1  0  0  0  0  0999 V2000
   28.7900   33.0030   18.7600 N   0  0  0  0  0  0  0  0  0  0  0  0
   29.1590   31.6850   19.1410 C   0  0  0  0  0  0  0  0  0  0  0  0
   30.3610   31.3870   19.4480 O   0  0  0  0  0  0  0  0  0  0  0  0
   27.8050   33.2040   18.5260 H   0  0  0  0  0  0  0  0  0  0  0  0
   29.7920   34.0270   18.7210 C   0  0  0  0  0  0  0  0  0  0  0  0
   30.4460   34.2690   17.4080 C   0  0  2  0  0  0  0  0  0  0  0  0
   29.5330   34.2260   16.2100 C   0  0  1  0  0  0  0  0  0  0  0  0
   30.1390   34.7530   14.9470 C   0  0  2  0  0  0  0  0  0  0  0  0
   32.0030   35.7050   14.0020 C   0  0  2  0  0  0  0  0  0  0  0  0
   31.2690   35.2510   12.7610 C   0  0  0  0  0  0  0  0  0  0  0  0
   31.3520   35.3780   15.1790 O   0  0  0  0  0  0  0  0  0  0  0  0
   29.8960   35.8340   12.7580 C   0  0  1  0  0  0  0  0  0  0  0  0
   29.1900   35.4880   14.0740 C   0  0  1  0  0  0  0  0  0  0  0  0
   32.1230   37.0850   13.9190 O   0  0  0  0  0  0  0  0  0  0  0  0
   32.8210   37.3540   14.5770 H   0  0  0  0  0  0  0  0  0  0  0  0
   33.3630   35.1130   13.9530 C   0  0  0  0  0  0  0  0  0  0  0  0
   34.0970   35.0770   14.9750 O   0  0  0  0  0  0  0  0  0  0  0  0
   33.8520   34.5840   12.7750 O   0  0  0  0  0  0  0  0  0  0  0  0
   34.1640   33.6360   12.6760 H   0  0  0  0  0  0  0  0  0  0  0  0
   30.0380   37.2260   12.6080 O   0  0  0  0  0  0  0  0  0  0  0  0
   30.9520   37.3660   12.2140 H   0  0  0  0  0  0  0  0  0  0  0  0
   28.1040   34.5520   13.7430 N   0  0  0  0  0  0  0  0  0  0  0  0
   26.7790   34.9730   13.5050 C   0  0  0  0  0  0  0  0  0  0  0  0
   28.3300   33.5310   13.6820 H   0  0  0  0  0  0  0  0  0  0  0  0
   25.7130   33.9960   13.1750 C   0  0  0  0  0  0  0  0  0  0  0  0
   26.4970   36.1760   13.5720 O   0  0  0  0  0  0  0  0  0  0  0  0
   29.0850   32.9280   15.9630 O   0  0  0  0  0  0  0  0  0  0  0  0
   29.3150   32.2940   16.6620 H   0  0  0  0  0  0  0  0  0  0  0  0
   31.4490   33.2970   17.2750 O   0  0  0  0  0  0  0  0  0  0  0  0
   32.1870   33.5480   17.9020 H   0  0  0  0  0  0  0  0  0  0  0  0
   28.1800   30.7200   19.1700 O   0  0  0  0  0  0  0  0  0  0  0  0
   28.0230   29.8580   18.0850 C   0  0  0  0  0  0  0  0  0  0  0  0
   26.9730   30.2980   17.1280 C   0  0  0  0  0  0  0  0  0  0  0  0
   26.0920   29.5110   16.4000 C   0  0  0  0  0  0  0  0  0  0  0  0
   26.6670   31.5590   16.7730 N   0  0  0  0  0  0  0  0  0  0  0  0
   25.2980   30.2860   15.6460 N   0  0  0  0  0  0  0  0  0  0  0  0
   25.6670   31.5310   15.8900 N   0  0  0  0  0  0  0  0  0  0  0  0
   24.2590   29.9020   14.7530 C   0  0  0  0  0  0  0  0  0  0  0  0
   24.2610   30.3600   13.4520 C   0  0  0  0  0  0  0  0  0  0  0  0
   23.2210   29.0730   15.1250 C   0  0  0  0  0  0  0  0  0  0  0  0
   23.2590   29.9990   12.5650 C   0  0  0  0  0  0  0  0  0  0  0  0
   22.1990   28.6850   14.2750 C   0  0  0  0  0  0  0  0  0  0  0  0
   22.2400   29.1710   12.9710 C   0  0  0  0  0  0  0  0  0  0  0  0
   21.1450   27.8380   14.6720 N   0  0  0  0  0  0  0  0  0  0  0  0
   19.9870   28.2560   14.6510 O   0  0  0  0  0  0  0  0  0  0  0  0
   21.4100   26.5670   15.0760 O   0  0  0  0  0  0  0  0  0  0  0  0
   21.2110   28.7800   12.1180 O   0  0  0  0  0  0  0  0  0  0  0  0
   21.4240   28.6890   11.1140 H   0  0  0  0  0  0  0  0  0  0  0  0
   29.8670   25.5550   16.9770 C   0  0  0  0  0  0  0  0  0  0  0  0
   28.3450   25.7220   17.0260 C   0  0  0  0  0  0  0  0  0  0  0  0
   27.6010   24.4020   16.8910 C   0  0  0  0  0  0  0  0  0  0  0  0
   26.1560   24.5230   17.2890 C   0  0  0  0  0  0  0  0  0  0  0  0
   26.0630   25.0850   18.7040 C   0  0  0  0  0  0  0  0  0  0  0  0
   24.6530   25.3720   19.0560 N   0  0  0  0  0  0  0  0  0  0  0  0
  1  2  1  0  0  0  0
  2 31  1  0  0  0  0
  2  3  2  0  0  0  0
  4  1  1  0  0  0  0
  5  1  1  0  0  0  0
  6  5  1  1  0  0  0
  7 27  1  6  0  0  0
  7  6  1  0  0  0  0
  8 11  1  0  0  0  0
  8  7  1  1  0  0  0
  9 14  1  6  0  0  0
  9 11  1  0  0  0  0
 10  9  1  0  0  0  0
 12 20  1  1  0  0  0
 12 10  1  0  0  0  0
 12 13  1  0  0  0  0
 13 22  1  6  0  0  0
 13  8  1  0  0  0  0
 14 15  1  0  0  0  0
 16  9  1  0  0  0  0
 16 17  2  0  0  0  0
 18 16  1  0  0  0  0
 19 18  1  0  0  0  0
 21 20  1  0  0  0  0
 23 26  2  0  0  0  0
 23 22  1  0  0  0  0
 24 22  1  0  0  0  0
 25 23  1  0  0  0  0
 27 28  1  0  0  0  0
 29  6  1  0  0  0  0
 29 30  1  0  0  0  0
 32 31  1  0  0  0  0
 33 32  1  0  0  0  0
 34 33  2  0  0  0  0
 35 33  1  0  0  0  0
 36 37  1  0  0  0  0
 36 34  1  0  0  0  0
 37 35  2  0  0  0  0
 38 40  1  0  0  0  0
 38 36  1  0  0  0  0
 39 38  2  0  0  0  0
 41 43  2  0  0  0  0
 41 39  1  0  0  0  0
 42 44  1  0  0  0  0
 42 40  2  0  0  0  0
 43 42  1  0  0  0  0
 44 46  2  0  0  0  0
 45 44  2  0  0  0  0
 47 43  1  0  0  0  0
 48 47  1  0  0  0  0
 49 50  1  0  0  0  0
 51 50  1  0  0  0  0
 51 52  1  0  0  0  0
 52 53  1  0  0  0  0
 53 54  1  0  0  0  0
M  END
>  <REMARK>
 VINA RESULT:    -4.116      2.361      6.998
 INTER + INTRA:         -14.796
 INTER:                  -8.638
 INTRA:                  -6.158
 UNBOUND:                -7.311
 SMILES CC(=O)N[C@@H]1[C@@H](O)C[C@](O)(C(=O)O)O[C@H]1C(O)[C@H](O)CNC(=O)OCc1cn(-c2ccc(O)c([N+](=O)[O-])c2)nn1
 SMILES IDX 21 1 22 2 23 3 20 5 18 6 16 7 15 8 9 9 8 10 14 11 6 12 5 13
 SMILES IDX 10 14 11 16 12 17 13 18 7 20 4 22 2 23 1 25 3 26 17 27 19 29
 SMILES IDX 24 31 25 32 26 33 27 34 40 35 28 36 39 37 29 38 30 39 38 40
 SMILES IDX 31 41 34 42 32 43 35 44 36 45 37 46 33 47
 H PARENT 21 4 10 15 13 19 7 21 4 24 17 28 19 30 33 48
 Flexibility Score: inf
  4 active torsions:
  status: ('A' for Active; 'I' for Inactive)
    1  A    between atoms: CA   and  CB  
    2  A    between atoms: CB   and  CG  
    3  A    between atoms: CG   and  CD  
    4  A    between atoms: CD   and  CE  

>  <TORSDO>
F 17

>  <BEGIN_>
RES LYS A 131

$$$$
ligand_73_pose_7_2HRL.pdbqt
 OpenBabel07062320523D

  6  5  0  0  0  0  0  0  0  0999 V2000
   33.1930   34.6630    9.2900 C   0  0  0  0  0  0  0  0  0  0  0  0
   32.0600   35.3600   10.0340 C   0  0  0  0  0  0  0  0  0  0  0  0
   30.8010   35.5010    9.2180 C   0  0  0  0  0  0  0  0  0  0  0  0
   30.1400   34.1470    9.0130 C   0  0  0  0  0  0  0  0  0  0  0  0
   28.6600   34.3140    8.7240 C   0  0  0  0  0  0  0  0  0  0  0  0
   27.8380   33.9400    9.9080 N   0  0  0  0  0  0  0  0  0  0  0  0
  1  2  1  0  0  0  0
  3  2  1  0  0  0  0
  4  3  1  0  0  0  0
  5  4  1  0  0  0  0
  5  6  1  0  0  0  0
M  END
>  <EGIN_R>
ES LYS A 135

>  <REMARK>
  4 active torsions:
  status: ('A' for Active; 'I' for Inactive)
    5  A    between atoms: CA   and  CB  
    6  A    between atoms: CB   and  CG  
    7  A    between atoms: CG   and  CD  
    8  A    between atoms: CD   and  CE  

$$$$
