ligand_18_pose_18_2HRL.pdbqt
 OpenBabel07062320523D

 54 55  0  0  1  0  0  0  0  0999 V2000
   29.4090   32.8320   16.5280 N   0  0  0  0  0  0  0  0  0  0  0  0
   30.6080   33.1180   17.2140 C   0  0  0  0  0  0  0  0  0  0  0  0
   30.6710   32.8610   18.4410 O   0  0  0  0  0  0  0  0  0  0  0  0
   29.3780   33.0550   15.5090 H   0  0  0  0  0  0  0  0  0  0  0  0
   28.2240   32.2540   17.1290 C   0  0  0  0  0  0  0  0  0  0  0  0
   28.2710   30.7520   17.0740 C   0  0  2  0  0  0  0  0  0  0  0  0
   28.4370   30.0840   18.3960 C   0  0  1  0  0  0  0  0  0  0  0  0
   27.5760   28.9170   18.7020 C   0  0  2  0  0  0  0  0  0  0  0  0
   25.3540   28.5440   19.3300 C   0  0  2  0  0  0  0  0  0  0  0  0
   25.7650   27.1220   18.9910 C   0  0  0  0  0  0  0  0  0  0  0  0
   26.3000   29.4800   19.0370 O   0  0  0  0  0  0  0  0  0  0  0  0
   27.0050   26.8090   19.7530 C   0  0  1  0  0  0  0  0  0  0  0  0
   27.9170   28.0490   19.8450 C   0  0  1  0  0  0  0  0  0  0  0  0
   25.0270   28.5190   20.6990 O   0  0  0  0  0  0  0  0  0  0  0  0
   25.3770   29.3510   21.1210 H   0  0  0  0  0  0  0  0  0  0  0  0
   24.1190   28.9150   18.5910 C   0  0  0  0  0  0  0  0  0  0  0  0
   23.0320   28.9410   19.2050 O   0  0  0  0  0  0  0  0  0  0  0  0
   24.1360   29.2330   17.2360 O   0  0  0  0  0  0  0  0  0  0  0  0
   24.7600   29.9940   16.9630 H   0  0  0  0  0  0  0  0  0  0  0  0
   26.7770   26.2750   21.0020 O   0  0  0  0  0  0  0  0  0  0  0  0
   26.5710   25.3080   20.9490 H   0  0  0  0  0  0  0  0  0  0  0  0
   29.2330   27.5430   19.9580 N   0  0  0  0  0  0  0  0  0  0  0  0
   29.8420   27.4220   21.2250 C   0  0  0  0  0  0  0  0  0  0  0  0
   29.7770   27.2530   19.1340 H   0  0  0  0  0  0  0  0  0  0  0  0
   31.2320   26.8940   21.3950 C   0  0  0  0  0  0  0  0  0  0  0  0
   29.2480   27.7550   22.3040 O   0  0  0  0  0  0  0  0  0  0  0  0
   29.7380   30.0290   18.8740 O   0  0  0  0  0  0  0  0  0  0  0  0
   30.3030   29.3820   18.4330 H   0  0  0  0  0  0  0  0  0  0  0  0
   29.1080   30.2430   16.0900 O   0  0  0  0  0  0  0  0  0  0  0  0
   28.6560   30.1130   15.2240 H   0  0  0  0  0  0  0  0  0  0  0  0
   31.7250   33.6760   16.5770 O   0  0  0  0  0  0  0  0  0  0  0  0
   31.9840   33.4070   15.2110 C   0  0  0  0  0  0  0  0  0  0  0  0
   31.3770   34.5010   14.4030 C   0  0  0  0  0  0  0  0  0  0  0  0
   31.9690   35.6690   13.9680 C   0  0  0  0  0  0  0  0  0  0  0  0
   30.1200   34.5640   13.9360 N   0  0  0  0  0  0  0  0  0  0  0  0
   31.0720   36.3820   13.2700 N   0  0  0  0  0  0  0  0  0  0  0  0
   29.9560   35.6870   13.2650 N   0  0  0  0  0  0  0  0  0  0  0  0
   31.3430   37.6870   12.6440 C   0  0  0  0  0  0  0  0  0  0  0  0
   30.0390   38.2120   12.1780 C   0  0  0  0  0  0  0  0  0  0  0  0
   29.4570   39.1010   12.8830 O   0  0  0  0  0  0  0  0  0  0  0  0
   29.3710   37.8050   10.9990 N   0  0  0  0  0  0  0  0  0  0  0  0
   29.8440   37.0820   10.4270 H   0  0  0  0  0  0  0  0  0  0  0  0
   28.0980   38.3460   10.5810 C   0  0  0  0  0  0  0  0  0  0  0  0
   27.2060   37.1580   10.2780 C   0  0  0  0  0  0  0  0  0  0  0  0
   27.2720   35.9110   10.7280 C   0  0  0  0  0  0  0  0  0  0  0  0
   25.8320   37.1630    9.2220 S   0  0  0  0  0  0  0  0  0  0  0  0
   26.3700   34.9880   10.3320 C   0  0  0  0  0  0  0  0  0  0  0  0
   25.3900   35.4400    9.4350 C   0  0  0  0  0  0  0  0  0  0  0  0
   29.8670   25.5550   16.9770 C   0  0  0  0  0  0  0  0  0  0  0  0
   28.3450   25.7220   17.0260 C   0  0  0  0  0  0  0  0  0  0  0  0
   27.5990   24.4490   16.6590 C   0  0  0  0  0  0  0  0  0  0  0  0
   27.0510   23.7440   17.8680 C   0  0  0  0  0  0  0  0  0  0  0  0
   25.6820   23.1570   17.5400 C   0  0  0  0  0  0  0  0  0  0  0  0
   24.7470   24.2260   17.1170 N   0  0  0  0  0  0  0  0  0  0  0  0
  1  5  1  0  0  0  0
  1  2  1  0  0  0  0
  2  3  2  0  0  0  0
  4  1  1  0  0  0  0
  6  5  1  1  0  0  0
  6  7  1  0  0  0  0
  7 27  1  6  0  0  0
  8  7  1  1  0  0  0
  8 11  1  0  0  0  0
  8 13  1  0  0  0  0
  9 16  1  6  0  0  0
  9 14  1  0  0  0  0
 10  9  1  0  0  0  0
 10 12  1  0  0  0  0
 11  9  1  0  0  0  0
 12 13  1  0  0  0  0
 12 20  1  1  0  0  0
 13 22  1  6  0  0  0
 14 15  1  0  0  0  0
 16 17  2  0  0  0  0
 18 16  1  0  0  0  0
 19 18  1  0  0  0  0
 21 20  1  0  0  0  0
 22 23  1  0  0  0  0
 23 25  1  0  0  0  0
 23 26  2  0  0  0  0
 24 22  1  0  0  0  0
 28 27  1  0  0  0  0
 29  6  1  0  0  0  0
 30 29  1  0  0  0  0
 31  2  1  0  0  0  0
 32 31  1  0  0  0  0
 33 32  1  0  0  0  0
 34 33  2  0  0  0  0
 35 33  1  0  0  0  0
 36 34  1  0  0  0  0
 37 36  1  0  0  0  0
 37 35  2  0  0  0  0
 38 36  1  0  0  0  0
 39 38  1  0  0  0  0
 39 40  2  0  0  0  0
 41 39  1  0  0  0  0
 42 41  1  0  0  0  0
 43 41  1  0  0  0  0
 44 43  1  0  0  0  0
 44 45  2  0  0  0  0
 46 48  1  0  0  0  0
 46 44  1  0  0  0  0
 47 45  1  0  0  0  0
 48 47  2  0  0  0  0
 49 50  1  0  0  0  0
 51 50  1  0  0  0  0
 51 52  1  0  0  0  0
 53 52  1  0  0  0  0
 54 53  1  0  0  0  0
M  END
>  <REMARK>
 VINA RESULT:    -4.077      4.332     10.804
 INTER + INTRA:         -14.560
 INTER:                  -9.216
 INTRA:                  -5.344
 UNBOUND:                -6.788
 SMILES CC(=O)N[C@@H]1[C@@H](O)C[C@](O)(C(=O)O)O[C@H]1C(O)[C@H](O)CNC(=O)OCc1cn(CC(=O)NCc2cccs2)nn1
 SMILES IDX 21 1 22 2 23 3 20 5 18 6 16 7 15 8 9 9 8 10 14 11 6 12 5 13
 SMILES IDX 10 14 11 16 12 17 13 18 7 20 4 22 2 23 1 25 3 26 17 27 19 29
 SMILES IDX 24 31 25 32 26 33 27 34 40 35 28 36 39 37 29 38 30 39 31 40
 SMILES IDX 32 41 33 43 34 44 35 45 38 46 36 47 37 48
 H PARENT 21 4 10 15 13 19 7 21 4 24 17 28 19 30 32 42
 Flexibility Score: inf
  4 active torsions:
  status: ('A' for Active; 'I' for Inactive)
    1  A    between atoms: CA   and  CB  
    2  A    between atoms: CB   and  CG  
    3  A    between atoms: CG   and  CD  
    4  A    between atoms: CD   and  CE  

>  <TORSDO>
F 18

>  <BEGIN_>
RES LYS A 131

$$$$
ligand_18_pose_18_2HRL.pdbqt
 OpenBabel07062320523D

  6  5  0  0  0  0  0  0  0  0999 V2000
   33.1930   34.6630    9.2900 C   0  0  0  0  0  0  0  0  0  0  0  0
   32.0600   35.3600   10.0340 C   0  0  0  0  0  0  0  0  0  0  0  0
   30.7210   34.6910    9.8560 C   0  0  0  0  0  0  0  0  0  0  0  0
   30.4040   34.5100    8.3800 C   0  0  0  0  0  0  0  0  0  0  0  0
   29.6030   35.6880    7.8580 C   0  0  0  0  0  0  0  0  0  0  0  0
   28.3360   35.2350    7.2210 N   0  0  0  0  0  0  0  0  0  0  0  0
  1  2  1  0  0  0  0
  3  2  1  0  0  0  0
  4  3  1  0  0  0  0
  5  4  1  0  0  0  0
  6  5  1  0  0  0  0
M  END
>  <EGIN_R>
ES LYS A 135

>  <REMARK>
  4 active torsions:
  status: ('A' for Active; 'I' for Inactive)
    5  A    between atoms: CA   and  CB  
    6  A    between atoms: CB   and  CG  
    7  A    between atoms: CG   and  CD  
    8  A    between atoms: CD   and  CE  

$$$$
