ligand_25_pose_18_2HRL.pdbqt
 OpenBabel07062320523D

 56 59  0  0  1  0  0  0  0  0999 V2000
   29.1550   31.2970   16.7340 C   0  0  0  0  0  0  0  0  0  0  0  0
   28.2490   30.5750   15.8070 C   0  0  2  0  0  0  0  0  0  0  0  0
   26.7990   30.8210   16.0750 C   0  0  1  0  0  0  0  0  0  0  0  0
   25.8840   29.6430   15.8850 C   0  0  2  0  0  0  0  0  0  0  0  0
   23.6820   30.3250   15.4710 C   0  0  2  0  0  0  0  0  0  0  0  0
   23.0480   29.0320   15.9380 C   0  0  0  0  0  0  0  0  0  0  0  0
   24.9160   30.0600   14.9690 O   0  0  0  0  0  0  0  0  0  0  0  0
   24.0030   28.3120   16.8180 C   0  0  1  0  0  0  0  0  0  0  0  0
   25.2600   29.1310   17.1540 C   0  0  1  0  0  0  0  0  0  0  0  0
   23.6000   31.2160   16.5070 O   0  0  0  0  0  0  0  0  0  0  0  0
   22.6720   31.4620   16.7170 H   0  0  0  0  0  0  0  0  0  0  0  0
   22.8340   30.8130   14.3400 C   0  0  0  0  0  0  0  0  0  0  0  0
   22.2510   29.9810   13.6070 O   0  0  0  0  0  0  0  0  0  0  0  0
   22.6640   32.1610   14.0600 O   0  0  0  0  0  0  0  0  0  0  0  0
   23.3890   32.8430   14.3210 H   0  0  0  0  0  0  0  0  0  0  0  0
   23.4570   27.8940   18.0210 O   0  0  0  0  0  0  0  0  0  0  0  0
   22.8550   28.5560   18.4310 H   0  0  0  0  0  0  0  0  0  0  0  0
   26.1420   28.1720   17.7810 N   0  0  0  0  0  0  0  0  0  0  0  0
   26.9440   28.4330   18.9220 C   0  0  0  0  0  0  0  0  0  0  0  0
   26.1910   27.2180   17.3660 H   0  0  0  0  0  0  0  0  0  0  0  0
   27.8360   27.3830   19.5140 C   0  0  0  0  0  0  0  0  0  0  0  0
   26.8830   29.5830   19.4250 O   0  0  0  0  0  0  0  0  0  0  0  0
   26.5320   31.4620   17.2790 O   0  0  0  0  0  0  0  0  0  0  0  0
   27.3030   31.8590   17.7150 H   0  0  0  0  0  0  0  0  0  0  0  0
   28.4540   29.2030   15.9290 O   0  0  0  0  0  0  0  0  0  0  0  0
   29.2270   28.9760   16.4810 H   0  0  0  0  0  0  0  0  0  0  0  0
   29.2840   32.6900   16.5210 N   0  0  0  0  0  0  0  0  0  0  0  0
   30.3620   33.2920   15.8480 C   0  0  0  0  0  0  0  0  0  0  0  0
   28.5210   33.3480   16.8880 H   0  0  0  0  0  0  0  0  0  0  0  0
   31.2880   32.6410   15.3750 O   0  0  0  0  0  0  0  0  0  0  0  0
   30.4290   34.6870   15.6850 O   0  0  0  0  0  0  0  0  0  0  0  0
   29.3030   35.5020   15.5670 C   0  0  0  0  0  0  0  0  0  0  0  0
   28.7330   35.5410   14.1980 C   0  0  0  0  0  0  0  0  0  0  0  0
   28.3900   34.5050   13.3650 C   0  0  0  0  0  0  0  0  0  0  0  0
   28.4600   36.6750   13.5500 N   0  0  0  0  0  0  0  0  0  0  0  0
   27.9230   35.0450   12.2450 N   0  0  0  0  0  0  0  0  0  0  0  0
   27.9720   36.3550   12.3730 N   0  0  0  0  0  0  0  0  0  0  0  0
   27.4340   34.3470   11.0650 C   0  0  0  0  0  0  0  0  0  0  0  0
   28.3490   34.4990    9.9210 C   0  0  0  0  0  0  0  0  0  0  0  0
   26.1420   34.8400   10.6140 C   0  0  0  0  0  0  0  0  0  0  0  0
   29.7140   34.1810    9.8040 C   0  0  0  0  0  0  0  0  0  0  0  0
   27.6380   35.0390    8.8880 C   0  0  0  0  0  0  0  0  0  0  0  0
   26.2570   35.2560    9.3140 C   0  0  0  0  0  0  0  0  0  0  0  0
   24.8840   34.9560   11.2390 C   0  0  0  0  0  0  0  0  0  0  0  0
   30.3360   34.4280    8.6060 C   0  0  0  0  0  0  0  0  0  0  0  0
   28.3060   35.2770    7.6870 C   0  0  0  0  0  0  0  0  0  0  0  0
   25.1890   35.7860    8.5820 C   0  0  0  0  0  0  0  0  0  0  0  0
   23.8240   35.4730   10.5420 C   0  0  0  0  0  0  0  0  0  0  0  0
   29.6420   34.9740    7.5450 C   0  0  0  0  0  0  0  0  0  0  0  0
   23.9780   35.8830    9.2280 C   0  0  0  0  0  0  0  0  0  0  0  0
   29.8670   25.5550   16.9770 C   0  0  0  0  0  0  0  0  0  0  0  0
   28.3450   25.7220   17.0260 C   0  0  0  0  0  0  0  0  0  0  0  0
   27.6010   24.4010   16.9050 C   0  0  0  0  0  0  0  0  0  0  0  0
   26.1540   24.5280   17.2910 C   0  0  0  0  0  0  0  0  0  0  0  0
   25.7200   23.2810   18.0560 C   0  0  0  0  0  0  0  0  0  0  0  0
   24.5240   22.6760   17.4250 N   0  0  0  0  0  0  0  0  0  0  0  0
  2 25  1  0  0  0  0
  2  3  1  0  0  0  0
  2  1  1  1  0  0  0
  3 23  1  1  0  0  0
  4  3  1  1  0  0  0
  4  9  1  0  0  0  0
  5 12  1  6  0  0  0
  5  6  1  0  0  0  0
  5 10  1  0  0  0  0
  6  8  1  0  0  0  0
  7  5  1  0  0  0  0
  7  4  1  0  0  0  0
  8  9  1  0  0  0  0
  8 16  1  1  0  0  0
  9 18  1  6  0  0  0
 10 11  1  0  0  0  0
 13 12  2  0  0  0  0
 14 15  1  0  0  0  0
 14 12  1  0  0  0  0
 16 17  1  0  0  0  0
 18 19  1  0  0  0  0
 19 22  2  0  0  0  0
 19 21  1  0  0  0  0
 20 18  1  0  0  0  0
 23 24  1  0  0  0  0
 25 26  1  0  0  0  0
 27  1  1  0  0  0  0
 27 29  1  0  0  0  0
 28 27  1  0  0  0  0
 30 28  2  0  0  0  0
 31 28  1  0  0  0  0
 32 31  1  0  0  0  0
 33 32  1  0  0  0  0
 34 33  2  0  0  0  0
 35 33  1  0  0  0  0
 36 37  1  0  0  0  0
 36 34  1  0  0  0  0
 37 35  2  0  0  0  0
 38 36  1  0  0  0  0
 39 38  1  0  0  0  0
 40 38  1  0  0  0  0
 40 44  1  0  0  0  0
 41 39  1  0  0  0  0
 42 43  1  0  0  0  0
 42 39  2  0  0  0  0
 43 40  2  0  0  0  0
 45 41  2  0  0  0  0
 46 42  1  0  0  0  0
 47 50  2  0  0  0  0
 47 43  1  0  0  0  0
 48 44  2  0  0  0  0
 49 46  2  0  0  0  0
 49 45  1  0  0  0  0
 50 48  1  0  0  0  0
 51 52  1  0  0  0  0
 53 52  1  0  0  0  0
 53 54  1  0  0  0  0
 54 55  1  0  0  0  0
 56 55  1  0  0  0  0
M  END
>  <REMARK>
 VINA RESULT:    -6.270      2.021      4.436
 INTER + INTRA:         -15.430
 INTER:                 -10.852
 INTRA:                  -4.578
 UNBOUND:                -4.578
 SMILES CC(=O)N[C@@H]1[C@@H](O)C[C@](O)(C(=O)O)O[C@H]1C(O)[C@H](O)CNC(=O)OCc1cn(C2c3ccccc3-c3ccccc32)nn1
 SMILES IDX 20 1 18 2 16 3 15 4 9 5 8 6 14 7 6 8 5 9 10 10 11 12 12 13
 SMILES IDX 13 14 7 16 4 18 2 19 1 21 3 22 17 23 19 25 21 27 22 28 23 30
 SMILES IDX 24 31 25 32 26 33 27 34 43 35 28 36 42 37 29 38 30 39 41 40
 SMILES IDX 31 41 35 42 36 43 40 44 32 45 34 46 37 47 39 48 33 49 38 50
 H PARENT 10 11 13 15 7 17 4 20 17 24 19 26 21 29
 Flexibility Score: inf
  4 active torsions:
  status: ('A' for Active; 'I' for Inactive)
    1  A    between atoms: CA   and  CB  
    2  A    between atoms: CB   and  CG  
    3  A    between atoms: CG   and  CD  
    4  A    between atoms: CD   and  CE  

>  <TORSDO>
F 15

>  <BEGIN_>
RES LYS A 131

$$$$
ligand_25_pose_18_2HRL.pdbqt
 OpenBabel07062320523D

  6  5  0  0  0  0  0  0  0  0999 V2000
   33.1930   34.6630    9.2900 C   0  0  0  0  0  0  0  0  0  0  0  0
   32.0600   35.3600   10.0340 C   0  0  0  0  0  0  0  0  0  0  0  0
   32.5350   36.3720   11.0440 C   0  0  0  0  0  0  0  0  0  0  0  0
   32.5570   35.7690   12.4400 C   0  0  0  0  0  0  0  0  0  0  0  0
   32.0730   36.7780   13.4640 C   0  0  0  0  0  0  0  0  0  0  0  0
   31.5210   37.9920   12.8010 N   0  0  0  0  0  0  0  0  0  0  0  0
  1  2  1  0  0  0  0
  2  3  1  0  0  0  0
  3  4  1  0  0  0  0
  4  5  1  0  0  0  0
  6  5  1  0  0  0  0
M  END
>  <EGIN_R>
ES LYS A 135

>  <REMARK>
  4 active torsions:
  status: ('A' for Active; 'I' for Inactive)
    5  A    between atoms: CA   and  CB  
    6  A    between atoms: CB   and  CG  
    7  A    between atoms: CG   and  CD  
    8  A    between atoms: CD   and  CE  

$$$$
