ligand_77_pose_19_2HRL.pdbqt
 OpenBabel07062320523D

 61 63  0  0  1  0  0  0  0  0999 V2000
   24.2360   38.0630    7.2440 N   0  0  0  0  0  0  0  0  0  0  0  0
   23.0570   37.9050    8.0090 C   0  0  0  0  0  0  0  0  0  0  0  0
   22.6440   38.8360    8.7100 O   0  0  0  0  0  0  0  0  0  0  0  0
   24.5150   37.2090    6.6680 H   0  0  0  0  0  0  0  0  0  0  0  0
   25.0490   39.2570    7.1990 C   0  0  0  0  0  0  0  0  0  0  0  0
   26.3930   38.9600    7.7680 C   0  0  2  0  0  0  0  0  0  0  0  0
   27.4140   38.5930    6.7110 C   0  0  1  0  0  0  0  0  0  0  0  0
   28.6890   38.0360    7.2460 C   0  0  2  0  0  0  0  0  0  0  0  0
   29.3670   36.3730    8.7100 C   0  0  2  0  0  0  0  0  0  0  0  0
   30.7450   36.9560    8.7030 C   0  0  0  0  0  0  0  0  0  0  0  0
   28.6200   36.7070    7.5940 O   0  0  0  0  0  0  0  0  0  0  0  0
   30.8070   38.4000    8.3550 C   0  0  1  0  0  0  0  0  0  0  0  0
   29.3620   38.9210    8.2670 C   0  0  1  0  0  0  0  0  0  0  0  0
   28.6800   36.6860    9.9050 O   0  0  0  0  0  0  0  0  0  0  0  0
   29.3000   36.5920   10.6490 H   0  0  0  0  0  0  0  0  0  0  0  0
   29.5090   34.8870    8.7090 C   0  0  0  0  0  0  0  0  0  0  0  0
   30.6060   34.3830    8.3170 O   0  0  0  0  0  0  0  0  0  0  0  0
   28.5230   34.0210    9.1100 O   0  0  0  0  0  0  0  0  0  0  0  0
   28.7570   33.0830    9.4290 H   0  0  0  0  0  0  0  0  0  0  0  0
   31.5470   39.1600    9.2470 O   0  0  0  0  0  0  0  0  0  0  0  0
   32.1060   38.5450    9.8190 H   0  0  0  0  0  0  0  0  0  0  0  0
   29.3980   40.2730    7.7240 N   0  0  0  0  0  0  0  0  0  0  0  0
   29.3290   41.3900    8.5930 C   0  0  0  0  0  0  0  0  0  0  0  0
   29.4730   40.4610    6.7020 H   0  0  0  0  0  0  0  0  0  0  0  0
   29.3600   42.7990    8.0640 C   0  0  0  0  0  0  0  0  0  0  0  0
   29.2380   41.2760    9.8340 O   0  0  0  0  0  0  0  0  0  0  0  0
   26.7640   37.6960    5.8550 O   0  0  0  0  0  0  0  0  0  0  0  0
   27.4440   37.2760    5.2870 H   0  0  0  0  0  0  0  0  0  0  0  0
   26.3100   38.0280    8.7920 O   0  0  0  0  0  0  0  0  0  0  0  0
   27.2280   37.7480    9.0380 H   0  0  0  0  0  0  0  0  0  0  0  0
   22.3150   36.7290    8.0170 O   0  0  0  0  0  0  0  0  0  0  0  0
   22.3290   35.8370    9.1220 C   0  0  0  0  0  0  0  0  0  0  0  0
   23.7180   35.5360    9.5720 C   0  0  0  0  0  0  0  0  0  0  0  0
   24.0640   35.2670   10.8680 C   0  0  0  0  0  0  0  0  0  0  0  0
   24.8390   35.4730    8.8400 N   0  0  0  0  0  0  0  0  0  0  0  0
   25.3980   35.0430   10.8990 N   0  0  0  0  0  0  0  0  0  0  0  0
   25.8170   35.1760    9.6720 N   0  0  0  0  0  0  0  0  0  0  0  0
   26.1080   34.7320   12.0870 C   0  0  0  0  0  0  0  0  0  0  0  0
   25.4830   34.0540   13.1110 C   0  0  0  0  0  0  0  0  0  0  0  0
   27.4270   35.0840   12.2720 C   0  0  0  0  0  0  0  0  0  0  0  0
   26.1390   33.7300   14.2870 C   0  0  0  0  0  0  0  0  0  0  0  0
   28.0990   34.7610   13.4560 C   0  0  0  0  0  0  0  0  0  0  0  0
   27.4540   34.0840   14.4630 C   0  0  0  0  0  0  0  0  0  0  0  0
   28.2720   33.6790   15.9310 S   0  0  0  0  0  0  0  0  0  0  0  0
   28.1790   32.2110   16.1760 O   0  0  0  0  0  0  0  0  0  0  0  0
   27.6980   34.3830   17.1240 O   0  0  0  0  0  0  0  0  0  0  0  0
   29.9470   34.1960   15.7690 C   0  0  0  0  0  0  0  0  0  0  0  0
   30.8590   33.3240   15.2390 C   0  0  0  0  0  0  0  0  0  0  0  0
   30.3570   35.4650   16.1650 C   0  0  0  0  0  0  0  0  0  0  0  0
   32.1910   33.6900   15.0930 C   0  0  0  0  0  0  0  0  0  0  0  0
   31.6780   35.8630   16.0340 C   0  0  0  0  0  0  0  0  0  0  0  0
   32.5630   34.9570   15.4980 C   0  0  0  0  0  0  0  0  0  0  0  0
   33.9150   35.3430   15.3550 N   0  0  0  0  0  0  0  0  0  0  0  0
   34.2020   35.9700   14.5860 H   0  0  0  0  0  0  0  0  0  0  0  0
   34.6170   34.9900   16.0270 H   0  0  0  0  0  0  0  0  0  0  0  0
   29.8670   25.5550   16.9770 C   0  0  0  0  0  0  0  0  0  0  0  0
   28.3450   25.7220   17.0260 C   0  0  0  0  0  0  0  0  0  0  0  0
   27.6020   24.3990   16.9220 C   0  0  0  0  0  0  0  0  0  0  0  0
   26.5130   24.2790   17.9510 C   0  0  0  0  0  0  0  0  0  0  0  0
   25.2390   23.7650   17.2880 C   0  0  0  0  0  0  0  0  0  0  0  0
   24.2430   24.8560   17.1620 N   0  0  0  0  0  0  0  0  0  0  0  0
  1  2  1  0  0  0  0
  2 31  1  0  0  0  0
  2  3  2  0  0  0  0
  4  1  1  0  0  0  0
  5  1  1  0  0  0  0
  6  5  1  6  0  0  0
  6 29  1  0  0  0  0
  7 27  1  6  0  0  0
  7  6  1  0  0  0  0
  8  7  1  1  0  0  0
  8 11  1  0  0  0  0
  8 13  1  0  0  0  0
  9 16  1  6  0  0  0
  9 14  1  0  0  0  0
 10  9  1  0  0  0  0
 11  9  1  0  0  0  0
 12 10  1  0  0  0  0
 12 20  1  1  0  0  0
 13 22  1  6  0  0  0
 13 12  1  0  0  0  0
 14 15  1  0  0  0  0
 16 18  1  0  0  0  0
 17 16  2  0  0  0  0
 18 19  1  0  0  0  0
 20 21  1  0  0  0  0
 22 23  1  0  0  0  0
 23 26  2  0  0  0  0
 24 22  1  0  0  0  0
 25 23  1  0  0  0  0
 28 27  1  0  0  0  0
 29 30  1  0  0  0  0
 31 32  1  0  0  0  0
 32 33  1  0  0  0  0
 33 34  2  0  0  0  0
 34 36  1  0  0  0  0
 35 33  1  0  0  0  0
 35 37  2  0  0  0  0
 36 38  1  0  0  0  0
 37 36  1  0  0  0  0
 38 40  2  0  0  0  0
 38 39  1  0  0  0  0
 39 41  2  0  0  0  0
 40 42  1  0  0  0  0
 41 43  1  0  0  0  0
 42 43  2  0  0  0  0
 43 44  1  0  0  0  0
 44 45  2  0  0  0  0
 44 46  2  0  0  0  0
 47 44  1  0  0  0  0
 47 49  2  0  0  0  0
 48 47  1  0  0  0  0
 50 48  2  0  0  0  0
 50 52  1  0  0  0  0
 51 49  1  0  0  0  0
 52 51  2  0  0  0  0
 53 52  1  0  0  0  0
 53 55  1  0  0  0  0
 54 53  1  0  0  0  0
 56 57  1  0  0  0  0
 58 57  1  0  0  0  0
 58 59  1  0  0  0  0
 60 59  1  0  0  0  0
 61 60  1  0  0  0  0
M  END
>  <REMARK>
 VINA RESULT:    -4.988      5.730     11.937
 INTER + INTRA:         -15.890
 INTER:                 -10.629
 INTRA:                  -5.261
 UNBOUND:                -6.527
 SMILES CC(=O)N[C@@H]1[C@@H](O)C[C@](O)(C(=O)O)O[C@H]1C(O)[C@H](O)CNC(=O)OCc1cn(-c2ccc(S(=O)(=O)c3ccc(N)cc3)cc2)nn1
 SMILES IDX 21 1 22 2 23 3 20 5 18 6 16 7 15 8 9 9 8 10 14 11 6 12 5 13
 SMILES IDX 10 14 11 16 12 17 13 18 7 20 4 22 2 23 1 25 3 26 17 27 19 29
 SMILES IDX 24 31 25 32 26 33 27 34 46 35 28 36 45 37 29 38 30 39 44 40
 SMILES IDX 31 41 43 42 32 43 33 44 34 45 35 46 36 47 37 48 42 49 38 50
 SMILES IDX 41 51 39 52 40 53
 H PARENT 21 4 10 15 13 19 7 21 4 24 17 28 19 30 40 54 40 55
 Flexibility Score: inf
  4 active torsions:
  status: ('A' for Active; 'I' for Inactive)
    1  A    between atoms: CA   and  CB  
    2  A    between atoms: CB   and  CG  
    3  A    between atoms: CG   and  CD  
    4  A    between atoms: CD   and  CE  

>  <TORSDO>
F 18

>  <BEGIN_>
RES LYS A 131

$$$$
ligand_77_pose_19_2HRL.pdbqt
 OpenBabel07062320523D

  6  5  0  0  0  0  0  0  0  0999 V2000
   33.1930   34.6630    9.2900 C   0  0  0  0  0  0  0  0  0  0  0  0
   32.0600   35.3600   10.0340 C   0  0  0  0  0  0  0  0  0  0  0  0
   32.2060   35.3140   11.5330 C   0  0  0  0  0  0  0  0  0  0  0  0
   32.2420   36.7200   12.1120 C   0  0  0  0  0  0  0  0  0  0  0  0
   30.8760   37.1130   12.6420 C   0  0  0  0  0  0  0  0  0  0  0  0
   30.6190   38.5660   12.4380 N   0  0  0  0  0  0  0  0  0  0  0  0
  1  2  1  0  0  0  0
  2  3  1  0  0  0  0
  3  4  1  0  0  0  0
  4  5  1  0  0  0  0
  6  5  1  0  0  0  0
M  END
>  <EGIN_R>
ES LYS A 135

>  <REMARK>
  4 active torsions:
  status: ('A' for Active; 'I' for Inactive)
    5  A    between atoms: CA   and  CB  
    6  A    between atoms: CB   and  CG  
    7  A    between atoms: CG   and  CD  
    8  A    between atoms: CD   and  CE  

$$$$
