ligand_54_pose_5_2HRL.pdbqt
 OpenBabel07062320523D

 52 52  0  0  1  0  0  0  0  0999 V2000
   32.8380   34.5880   14.3210 O   0  0  0  0  0  0  0  0  0  0  0  0
   32.1680   33.9120   15.3510 C   0  0  0  0  0  0  0  0  0  0  0  0
   31.4230   32.7390   15.1080 N   0  0  0  0  0  0  0  0  0  0  0  0
   31.4210   32.4040   14.0930 H   0  0  0  0  0  0  0  0  0  0  0  0
   32.2500   34.3800   16.4890 O   0  0  0  0  0  0  0  0  0  0  0  0
   30.6860   31.9630   16.0540 C   0  0  0  0  0  0  0  0  0  0  0  0
   29.2580   32.4210   16.1480 C   0  0  2  0  0  0  0  0  0  0  0  0
   28.4030   31.2140   15.7720 C   0  0  2  0  0  0  0  0  0  0  0  0
   27.5710   30.7380   16.9220 C   0  0  2  0  0  0  0  0  0  0  0  0
   27.2880   28.8340   18.2160 C   0  0  2  0  0  0  0  0  0  0  0  0
   25.9650   29.3820   18.6410 C   0  0  0  0  0  0  0  0  0  0  0  0
   28.1610   29.7700   17.6810 O   0  0  0  0  0  0  0  0  0  0  0  0
   25.3080   30.2930   17.6460 C   0  0  1  0  0  0  0  0  0  0  0  0
   26.1900   30.3350   16.4180 C   0  0  1  0  0  0  0  0  0  0  0  0
   27.1150   27.7400   17.3640 O   0  0  0  0  0  0  0  0  0  0  0  0
   27.9220   27.1550   17.4830 H   0  0  0  0  0  0  0  0  0  0  0  0
   27.9500   28.3220   19.4500 C   0  0  0  0  0  0  0  0  0  0  0  0
   28.0800   29.0450   20.4600 O   0  0  0  0  0  0  0  0  0  0  0  0
   28.4330   27.0000   19.4580 O   0  0  0  0  0  0  0  0  0  0  0  0
   29.1320   26.7950   20.1700 H   0  0  0  0  0  0  0  0  0  0  0  0
   23.9980   29.9360   17.3510 O   0  0  0  0  0  0  0  0  0  0  0  0
   23.4920   30.0060   18.2000 H   0  0  0  0  0  0  0  0  0  0  0  0
   25.7600   31.3430   15.4700 N   0  0  0  0  0  0  0  0  0  0  0  0
   24.8690   30.9810   14.4250 C   0  0  0  0  0  0  0  0  0  0  0  0
   26.0630   32.3310   15.5030 H   0  0  0  0  0  0  0  0  0  0  0  0
   24.3790   31.9410   13.4150 C   0  0  0  0  0  0  0  0  0  0  0  0
   24.4780   29.7830   14.3550 O   0  0  0  0  0  0  0  0  0  0  0  0
   29.2360   30.2230   15.2760 O   0  0  0  0  0  0  0  0  0  0  0  0
   29.7390   30.5120   14.4670 H   0  0  0  0  0  0  0  0  0  0  0  0
   28.9960   33.3990   15.2240 O   0  0  0  0  0  0  0  0  0  0  0  0
   28.4690   34.1540   15.5920 H   0  0  0  0  0  0  0  0  0  0  0  0
   32.2850   35.7770   13.7640 C   0  0  0  0  0  0  0  0  0  0  0  0
   30.9660   35.4740   13.1800 C   0  0  0  0  0  0  0  0  0  0  0  0
   29.9910   36.4600   12.9980 C   0  0  0  0  0  0  0  0  0  0  0  0
   30.4150   34.3560   12.7310 N   0  0  0  0  0  0  0  0  0  0  0  0
   28.9000   35.8870   12.4490 N   0  0  0  0  0  0  0  0  0  0  0  0
   29.1770   34.6240   12.2960 N   0  0  0  0  0  0  0  0  0  0  0  0
   27.6980   36.6020   12.1260 C   0  0  0  0  0  0  0  0  0  0  0  0
   26.5600   35.6940   11.7210 C   0  0  0  0  0  0  0  0  0  0  0  0
   25.6390   36.3200   10.7200 C   0  0  0  0  0  0  0  0  0  0  0  0
   24.3670   36.3830   11.2780 O   0  0  0  0  0  0  0  0  0  0  0  0
   23.6080   35.2770   10.8770 C   0  0  0  0  0  0  0  0  0  0  0  0
   22.1470   35.4640   11.1940 C   0  0  0  0  0  0  0  0  0  0  0  0
   25.5760   35.6200    9.5430 O   0  0  0  0  0  0  0  0  0  0  0  0
   26.5180   36.0600    8.6130 C   0  0  0  0  0  0  0  0  0  0  0  0
   27.1900   34.8440    7.9860 C   0  0  0  0  0  0  0  0  0  0  0  0
   29.8670   25.5550   16.9770 C   0  0  0  0  0  0  0  0  0  0  0  0
   28.3450   25.7220   17.0260 C   0  0  0  0  0  0  0  0  0  0  0  0
   27.6010   24.4010   16.9020 C   0  0  0  0  0  0  0  0  0  0  0  0
   26.1460   24.5350   17.2540 C   0  0  0  0  0  0  0  0  0  0  0  0
   25.9580   24.2840   18.7470 C   0  0  0  0  0  0  0  0  0  0  0  0
   25.3820   25.4800   19.4060 N   0  0  0  0  0  0  0  0  0  0  0  0
  1  2  1  0  0  0  0
  2  5  2  0  0  0  0
  3  2  1  0  0  0  0
  3  6  1  0  0  0  0
  4  3  1  0  0  0  0
  7  6  1  6  0  0  0
  8 28  1  1  0  0  0
  8  7  1  0  0  0  0
  9  8  1  6  0  0  0
  9 12  1  0  0  0  0
 10 15  1  6  0  0  0
 10 11  1  0  0  0  0
 10 17  1  0  0  0  0
 12 10  1  0  0  0  0
 13 21  1  6  0  0  0
 13 11  1  0  0  0  0
 14 23  1  6  0  0  0
 14  9  1  0  0  0  0
 14 13  1  0  0  0  0
 15 16  1  0  0  0  0
 17 19  1  0  0  0  0
 17 18  2  0  0  0  0
 19 20  1  0  0  0  0
 21 22  1  0  0  0  0
 23 25  1  0  0  0  0
 24 23  1  0  0  0  0
 26 24  1  0  0  0  0
 27 24  2  0  0  0  0
 29 28  1  0  0  0  0
 30 31  1  0  0  0  0
 30  7  1  0  0  0  0
 32  1  1  0  0  0  0
 33 32  1  0  0  0  0
 34 33  2  0  0  0  0
 35 33  1  0  0  0  0
 36 34  1  0  0  0  0
 37 36  1  0  0  0  0
 37 35  2  0  0  0  0
 38 36  1  0  0  0  0
 39 38  1  0  0  0  0
 40 41  1  0  0  0  0
 40 39  1  0  0  0  0
 42 43  1  0  0  0  0
 42 41  1  0  0  0  0
 44 40  1  0  0  0  0
 45 44  1  0  0  0  0
 46 45  1  0  0  0  0
 47 48  1  0  0  0  0
 49 48  1  0  0  0  0
 49 50  1  0  0  0  0
 50 51  1  0  0  0  0
 51 52  1  0  0  0  0
M  END
>  <REMARK>
 VINA RESULT:    -4.297      3.358      6.896
 INTER + INTRA:         -14.882
 INTER:                 -10.338
 INTRA:                  -4.544
 UNBOUND:                -5.938
 SMILES CCOC(CCn1cc(COC(=O)NC[C@@H](O)C(O)[C@@H]2O[C@@](O)(C(=O)O)C[C@H](O)[C@H]2NC(C)=O)nn1)OCC
 SMILES IDX 11 1 12 2 14 3 13 5 15 6 16 7 18 8 20 9 22 10 27 11 21 12
 SMILES IDX 28 13 30 14 23 15 24 17 25 18 26 19 29 21 31 23 32 24 33 26
 SMILES IDX 34 27 19 28 17 30 10 32 9 33 8 34 35 35 7 36 36 37 6 38 5 39
 SMILES IDX 4 40 3 41 2 42 1 43 37 44 38 45 39 46
 H PARENT 14 4 23 16 26 20 29 22 31 25 19 29 17 31
 Flexibility Score: inf
  4 active torsions:
  status: ('A' for Active; 'I' for Inactive)
    1  A    between atoms: CA   and  CB  
    2  A    between atoms: CB   and  CG  
    3  A    between atoms: CG   and  CD  
    4  A    between atoms: CD   and  CE  

>  <TORSDO>
F 21

>  <BEGIN_>
RES LYS A 131

$$$$
ligand_54_pose_5_2HRL.pdbqt
 OpenBabel07062320523D

  6  5  0  0  0  0  0  0  0  0999 V2000
   33.1930   34.6630    9.2900 C   0  0  0  0  0  0  0  0  0  0  0  0
   32.0600   35.3600   10.0340 C   0  0  0  0  0  0  0  0  0  0  0  0
   30.7530   35.3540    9.2840 C   0  0  0  0  0  0  0  0  0  0  0  0
   30.2650   36.7750    9.0450 C   0  0  0  0  0  0  0  0  0  0  0  0
   31.1200   37.7670    9.8100 C   0  0  0  0  0  0  0  0  0  0  0  0
   30.3030   38.9110   10.3030 N   0  0  0  0  0  0  0  0  0  0  0  0
  1  2  1  0  0  0  0
  3  2  1  0  0  0  0
  4  3  1  0  0  0  0
  4  5  1  0  0  0  0
  5  6  1  0  0  0  0
M  END
>  <EGIN_R>
ES LYS A 135

>  <REMARK>
  4 active torsions:
  status: ('A' for Active; 'I' for Inactive)
    5  A    between atoms: CA   and  CB  
    6  A    between atoms: CB   and  CG  
    7  A    between atoms: CG   and  CD  
    8  A    between atoms: CD   and  CE  

$$$$
