ligand_26_pose_15_2HRL.pdbqt
 OpenBabel07062320523D

 54 55  0  0  1  0  0  0  0  0999 V2000
   24.1710   35.3100   13.6560 N   0  0  0  0  0  0  0  0  0  0  0  0
   25.1500   34.3650   13.2340 C   0  0  0  0  0  0  0  0  0  0  0  0
   24.7660   33.2850   12.7470 O   0  0  0  0  0  0  0  0  0  0  0  0
   24.5790   36.2080   14.0600 H   0  0  0  0  0  0  0  0  0  0  0  0
   22.7430   35.1060   13.5620 C   0  0  0  0  0  0  0  0  0  0  0  0
   22.0720   36.1810   12.7360 C   0  0  2  0  0  0  0  0  0  0  0  0
   21.8690   35.7460   11.3000 C   0  0  1  0  0  0  0  0  0  0  0  0
   22.5110   36.6700   10.3090 C   0  0  2  0  0  0  0  0  0  0  0  0
   20.7550   37.7990    9.2650 C   0  0  2  0  0  0  0  0  0  0  0  0
   20.9830   37.0770    7.9600 C   0  0  0  0  0  0  0  0  0  0  0  0
   21.8220   37.8370   10.1100 O   0  0  0  0  0  0  0  0  0  0  0  0
   21.6480   35.7450    8.1340 C   0  0  1  0  0  0  0  0  0  0  0  0
   22.8600   35.9620    9.0130 C   0  0  1  0  0  0  0  0  0  0  0  0
   19.5700   37.3150    9.8630 O   0  0  0  0  0  0  0  0  0  0  0  0
   19.7280   36.9490   10.7540 H   0  0  0  0  0  0  0  0  0  0  0  0
   20.4520   39.2280    8.8870 C   0  0  0  0  0  0  0  0  0  0  0  0
   19.5440   39.8950    9.4000 O   0  0  0  0  0  0  0  0  0  0  0  0
   21.2900   39.7620    7.8930 O   0  0  0  0  0  0  0  0  0  0  0  0
   22.0160   39.2030    7.4740 H   0  0  0  0  0  0  0  0  0  0  0  0
   20.8030   34.7760    8.6200 O   0  0  0  0  0  0  0  0  0  0  0  0
   20.6890   34.0620    7.9480 H   0  0  0  0  0  0  0  0  0  0  0  0
   23.7180   36.9000    8.2700 N   0  0  0  0  0  0  0  0  0  0  0  0
   25.1280   36.7130    8.2950 C   0  0  0  0  0  0  0  0  0  0  0  0
   23.3290   37.6940    7.7270 H   0  0  0  0  0  0  0  0  0  0  0  0
   25.9790   37.6660    7.5380 C   0  0  0  0  0  0  0  0  0  0  0  0
   25.5990   35.7560    8.9480 O   0  0  0  0  0  0  0  0  0  0  0  0
   22.3840   34.4520   11.1970 O   0  0  0  0  0  0  0  0  0  0  0  0
   22.9590   34.2680   11.9990 H   0  0  0  0  0  0  0  0  0  0  0  0
   22.8640   37.3470   12.7820 O   0  0  0  0  0  0  0  0  0  0  0  0
   23.3600   37.4210   13.6350 H   0  0  0  0  0  0  0  0  0  0  0  0
   26.5020   34.5940   13.3420 O   0  0  0  0  0  0  0  0  0  0  0  0
   27.2450   35.5080   12.5660 C   0  0  0  0  0  0  0  0  0  0  0  0
   28.6970   35.4230   12.7440 C   0  0  0  0  0  0  0  0  0  0  0  0
   29.4880   36.3250   13.4690 C   0  0  0  0  0  0  0  0  0  0  0  0
   29.5690   34.4940   12.2740 N   0  0  0  0  0  0  0  0  0  0  0  0
   30.7410   35.9200   13.4070 N   0  0  0  0  0  0  0  0  0  0  0  0
   30.7730   34.8310   12.6940 N   0  0  0  0  0  0  0  0  0  0  0  0
   31.9010   36.6100   14.0550 C   0  0  1  0  0  0  0  0  0  0  0  0
   31.2840   37.3720   15.1980 C   0  0  0  0  0  0  0  0  0  0  0  0
   32.8220   35.5680   14.4870 C   0  0  0  0  0  0  0  0  0  0  0  0
   32.6470   34.9140   15.7450 C   0  0  2  0  0  0  0  0  0  0  0  0
   33.3810   35.4710   16.7140 O   0  0  0  0  0  0  0  0  0  0  0  0
   31.8700   33.8010   16.1940 C   0  0  0  0  0  0  0  0  0  0  0  0
   31.4260   33.7860   17.5390 C   0  0  0  0  0  0  0  0  0  0  0  0
   31.4870   32.7310   15.4220 C   0  0  0  0  0  0  0  0  0  0  0  0
   30.6620   32.7580   18.0310 C   0  0  0  0  0  0  0  0  0  0  0  0
   30.7130   31.7090   15.9540 C   0  0  0  0  0  0  0  0  0  0  0  0
   30.2920   31.6970   17.2430 C   0  0  0  0  0  0  0  0  0  0  0  0
   29.8670   25.5550   16.9770 C   0  0  0  0  0  0  0  0  0  0  0  0
   28.3450   25.7220   17.0260 C   0  0  0  0  0  0  0  0  0  0  0  0
   27.6010   24.4010   16.9040 C   0  0  0  0  0  0  0  0  0  0  0  0
   26.5000   24.2740   17.9200 C   0  0  0  0  0  0  0  0  0  0  0  0
   25.1600   24.5780   17.2580 C   0  0  0  0  0  0  0  0  0  0  0  0
   24.6040   25.8520   17.7730 N   0  0  0  0  0  0  0  0  0  0  0  0
  1  4  1  0  0  0  0
  2 31  1  0  0  0  0
  2  1  1  0  0  0  0
  3  2  2  0  0  0  0
  5  1  1  0  0  0  0
  6 29  1  0  0  0  0
  6  5  1  1  0  0  0
  7 27  1  1  0  0  0
  7  6  1  0  0  0  0
  8  7  1  1  0  0  0
  9 16  1  6  0  0  0
  9 14  1  0  0  0  0
  9 11  1  0  0  0  0
 10 12  1  0  0  0  0
 10  9  1  0  0  0  0
 11  8  1  0  0  0  0
 12 20  1  1  0  0  0
 12 13  1  0  0  0  0
 13 22  1  6  0  0  0
 13  8  1  0  0  0  0
 14 15  1  0  0  0  0
 16 17  2  0  0  0  0
 18 16  1  0  0  0  0
 19 18  1  0  0  0  0
 21 20  1  0  0  0  0
 22 23  1  0  0  0  0
 23 26  2  0  0  0  0
 24 22  1  0  0  0  0
 25 23  1  0  0  0  0
 27 28  1  0  0  0  0
 29 30  1  0  0  0  0
 32 33  1  0  0  0  0
 32 31  1  0  0  0  0
 33 34  2  0  0  0  0
 35 37  2  0  0  0  0
 35 33  1  0  0  0  0
 36 34  1  0  0  0  0
 36 38  1  0  0  0  0
 37 36  1  0  0  0  0
 38 40  1  0  0  0  0
 38 39  1  1  0  0  0
 40 41  1  0  0  0  0
 41 43  1  0  0  0  0
 41 42  1  6  0  0  0
 43 44  2  0  0  0  0
 44 46  1  0  0  0  0
 45 47  2  0  0  0  0
 45 43  1  0  0  0  0
 47 48  1  0  0  0  0
 48 46  2  0  0  0  0
 49 50  1  0  0  0  0
 51 50  1  0  0  0  0
 51 52  1  0  0  0  0
 53 54  1  0  0  0  0
 53 52  1  0  0  0  0
M  END
>  <REMARK>
 VINA RESULT:    -4.545      6.333     10.829
 INTER + INTRA:         -15.598
 INTER:                  -9.925
 INTRA:                  -5.673
 UNBOUND:                -6.934
 SMILES CC(=O)N[C@@H]1[C@@H](O)C[C@](O)(C(=O)O)O[C@H]1C(O)[C@H](O)CNC(=O)OCc1cn(C(C)CC(=O)c2ccccc2)nn1
 SMILES IDX 21 1 22 2 23 3 20 5 18 6 16 7 15 8 9 9 8 10 14 11 6 12 5 13
 SMILES IDX 10 14 11 16 12 17 13 18 7 20 4 22 2 23 1 25 3 26 17 27 19 29
 SMILES IDX 24 31 25 32 26 33 27 34 41 35 28 36 40 37 29 38 30 39 31 40
 SMILES IDX 32 41 33 42 34 43 35 44 39 45 36 46 38 47 37 48
 H PARENT 21 4 10 15 13 19 7 21 4 24 17 28 19 30
 Flexibility Score: inf
  4 active torsions:
  status: ('A' for Active; 'I' for Inactive)
    1  A    between atoms: CA   and  CB  
    2  A    between atoms: CB   and  CG  
    3  A    between atoms: CG   and  CD  
    4  A    between atoms: CD   and  CE  

>  <TORSDO>
F 18

>  <BEGIN_>
RES LYS A 131

$$$$
ligand_26_pose_15_2HRL.pdbqt
 OpenBabel07062320523D

  6  5  0  0  0  0  0  0  0  0999 V2000
   33.1930   34.6630    9.2900 C   0  0  0  0  0  0  0  0  0  0  0  0
   32.0600   35.3600   10.0340 C   0  0  0  0  0  0  0  0  0  0  0  0
   30.8740   35.6810    9.1610 C   0  0  0  0  0  0  0  0  0  0  0  0
   30.3620   34.4280    8.4690 C   0  0  0  0  0  0  0  0  0  0  0  0
   28.8530   34.4760    8.3270 C   0  0  0  0  0  0  0  0  0  0  0  0
   28.1870   33.6920    9.4040 N   0  0  0  0  0  0  0  0  0  0  0  0
  1  2  1  0  0  0  0
  3  2  1  0  0  0  0
  4  3  1  0  0  0  0
  5  4  1  0  0  0  0
  5  6  1  0  0  0  0
M  END
>  <EGIN_R>
ES LYS A 135

>  <REMARK>
  4 active torsions:
  status: ('A' for Active; 'I' for Inactive)
    5  A    between atoms: CA   and  CB  
    6  A    between atoms: CB   and  CG  
    7  A    between atoms: CG   and  CD  
    8  A    between atoms: CD   and  CE  

$$$$
