ligand_69_pose_1_2HRL.pdbqt
 OpenBabel07062320523D

 54 51  0  0  1  0  0  0  0  0999 V2000
   28.3610   31.3180   15.8120 N   0  0  0  0  0  0  0  0  0  0  0  0
   27.2290   30.4910   16.0760 C   0  0  0  0  0  0  0  0  0  0  0  0
   27.2990   29.4380   16.7610 O   0  0  0  0  0  0  0  0  0  0  0  0
   28.2740   32.1860   15.2400 H   0  0  0  0  0  0  0  0  0  0  0  0
   29.6300   30.8710   16.3870 C   0  0  0  0  0  0  0  0  0  0  0  0
   30.5980   32.0320   16.2510 C   0  0  2  0  0  0  0  0  0  0  0  0
   29.8940   33.3630   16.1110 C   0  0  2  0  0  0  0  0  0  0  0  0
   30.5720   34.2660   15.1300 C   0  0  2  0  0  0  0  0  0  0  0  0
   32.4310   35.4510   14.5490 C   0  0  2  0  0  0  0  0  0  0  0  0
   31.5980   35.6370   13.2980 C   0  0  0  0  0  0  0  0  0  0  0  0
   31.8970   34.4870   15.3940 O   0  0  0  0  0  0  0  0  0  0  0  0
   30.1940   36.1070   13.6220 C   0  0  1  0  0  0  0  0  0  0  0  0
   29.8820   35.6070   15.0030 C   0  0  1  0  0  0  0  0  0  0  0  0
   32.6420   36.6610   15.2010 O   0  0  0  0  0  0  0  0  0  0  0  0
   31.8230   37.2230   15.2160 H   0  0  0  0  0  0  0  0  0  0  0  0
   33.7520   34.9440   14.1050 C   0  0  0  0  0  0  0  0  0  0  0  0
   34.7530   34.8990   14.8700 O   0  0  0  0  0  0  0  0  0  0  0  0
   33.9020   34.5010   12.8100 O   0  0  0  0  0  0  0  0  0  0  0  0
   33.7870   33.5360   12.5150 H   0  0  0  0  0  0  0  0  0  0  0  0
   30.1760   37.4770   13.5060 O   0  0  0  0  0  0  0  0  0  0  0  0
   30.6570   37.7110   12.6520 H   0  0  0  0  0  0  0  0  0  0  0  0
   28.5080   35.5760   15.3430 N   0  0  0  0  0  0  0  0  0  0  0  0
   27.7630   36.6600   15.8800 C   0  0  0  0  0  0  0  0  0  0  0  0
   27.9850   34.6870   15.1910 H   0  0  0  0  0  0  0  0  0  0  0  0
   26.3120   36.5250   16.2070 C   0  0  0  0  0  0  0  0  0  0  0  0
   28.3660   37.7340   16.0700 O   0  0  0  0  0  0  0  0  0  0  0  0
   29.6330   33.9350   17.3320 O   0  0  0  0  0  0  0  0  0  0  0  0
   28.6650   34.0890   17.4060 H   0  0  0  0  0  0  0  0  0  0  0  0
   31.3450   31.8750   15.0600 O   0  0  0  0  0  0  0  0  0  0  0  0
   30.9280   31.1870   14.4680 H   0  0  0  0  0  0  0  0  0  0  0  0
   26.0010   30.8440   15.5710 O   0  0  0  0  0  0  0  0  0  0  0  0
   25.2610   31.9760   15.9910 C   0  0  0  0  0  0  0  0  0  0  0  0
   25.3060   32.9940   14.9160 C   0  0  0  0  0  0  0  0  0  0  0  0
   24.2680   33.6390   14.2810 C   0  0  0  0  0  0  0  0  0  0  0  0
   26.4420   33.4680   14.3680 N   0  0  0  0  0  0  0  0  0  0  0  0
   24.7890   34.4820   13.3700 N   0  0  0  0  0  0  0  0  0  0  0  0
   26.1150   34.3470   13.4560 N   0  0  0  0  0  0  0  0  0  0  0  0
   24.0370   35.3620   12.4750 C   0  0  2  0  0  0  0  0  0  0  0  0
   23.1000   34.5120   11.6860 C   0  0  0  0  0  0  0  0  0  0  0  0
   22.1020   35.2630   10.8780 *   0  0  0  0  0  0  0  0  0  0  0  0
   20.9420   34.5020   10.6090 O   0  0  0  0  0  0  0  0  0  0  0  0
   20.7880   34.5020    9.6410 H   0  0  0  0  0  0  0  0  0  0  0  0
   25.0210   36.1220   11.6540 C   0  0  0  0  0  0  0  0  0  0  0  0
   25.1380   35.6580   10.2340 C   0  0  1  0  0  0  0  0  0  0  0  0
   23.9740   36.0170    9.3940 C   0  0  0  0  0  0  0  0  0  0  0  0
   22.6970   35.8500    9.6590 *   0  0  0  0  0  0  0  0  0  0  0  0
   26.3330   36.0560    9.6370 O   0  0  0  0  0  0  0  0  0  0  0  0
   26.1730   36.6540    8.8640 H   0  0  0  0  0  0  0  0  0  0  0  0
   29.8670   25.5550   16.9770 C   0  0  0  0  0  0  0  0  0  0  0  0
   28.3450   25.7220   17.0260 C   0  0  0  0  0  0  0  0  0  0  0  0
   27.6020   24.3980   16.9350 C   0  0  0  0  0  0  0  0  0  0  0  0
   26.5970   24.2350   18.0410 C   0  0  0  0  0  0  0  0  0  0  0  0
   26.0750   25.6050   18.4600 C   0  0  0  0  0  0  0  0  0  0  0  0
   25.8600   25.6520   19.9260 N   0  0  0  0  0  0  0  0  0  0  0  0
  1  2  1  0  0  0  0
  1  5  1  0  0  0  0
  2  3  2  0  0  0  0
  4  1  1  0  0  0  0
  6  5  1  6  0  0  0
  7  6  1  0  0  0  0
  7 27  1  1  0  0  0
  8 11  1  0  0  0  0
  8  7  1  1  0  0  0
  9 16  1  6  0  0  0
  9 14  1  0  0  0  0
  9 11  1  0  0  0  0
 10 12  1  0  0  0  0
 10  9  1  0  0  0  0
 12 20  1  1  0  0  0
 12 13  1  0  0  0  0
 13  8  1  0  0  0  0
 13 22  1  6  0  0  0
 14 15  1  0  0  0  0
 16 17  2  0  0  0  0
 18 16  1  0  0  0  0
 19 18  1  0  0  0  0
 21 20  1  0  0  0  0
 22 23  1  0  0  0  0
 23 26  2  0  0  0  0
 23 25  1  0  0  0  0
 24 22  1  0  0  0  0
 27 28  1  0  0  0  0
 29  6  1  0  0  0  0
 30 29  1  0  0  0  0
 31 32  1  0  0  0  0
 31  2  1  0  0  0  0
 33 32  1  0  0  0  0
 34 33  2  0  0  0  0
 35 33  1  0  0  0  0
 36 37  1  0  0  0  0
 36 34  1  0  0  0  0
 37 35  2  0  0  0  0
 38 39  1  6  0  0  0
 38 36  1  0  0  0  0
 42 41  1  0  0  0  0
 43 38  1  0  0  0  0
 44 45  1  6  0  0  0
 44 43  1  0  0  0  0
 47 44  1  0  0  0  0
 48 47  1  0  0  0  0
 49 50  1  0  0  0  0
 51 50  1  0  0  0  0
 51 52  1  0  0  0  0
 52 53  1  0  0  0  0
 53 54  1  0  0  0  0
M  END
>  <REMARK>
 VINA RESULT:    -8.012      1.793      2.397
 INTER + INTRA:         -13.645
 INTER:                  -7.968
 INTRA:                  -5.678
 UNBOUND:                 3.032
 SMILES CC(=O)N[C@@H]1[C@@H](O)C[C@](O)(C(=O)O)O[C@H]1C(O)[C@H](O)CNC(=O)OCc1cn(C2CC(O)C=C[C@@H](O)C2)nn1
 SMILES IDX 21 1 22 2 23 3 20 5 18 6 16 7 15 8 9 9 8 10 14 11 6 12 5 13
 SMILES IDX 10 14 11 16 12 17 13 18 7 20 4 22 2 23 1 25 3 26 17 27 19 29
 SMILES IDX 24 31 25 32 26 33 27 34 39 35 28 36 38 37 29 38 30 39 31 40
 SMILES IDX 32 42 37 44 35 45 34 46 33 47 36 49
 H PARENT 21 4 10 15 13 19 7 21 4 24 17 28 19 30 32 43 36 50
 Flexibility Score: 90.00
  4 active torsions:
  status: ('A' for Active; 'I' for Inactive)
    1  A    between atoms: CA   and  CB  
    2  A    between atoms: CB   and  CG  
    3  A    between atoms: CG   and  CD  
    4  A    between atoms: CD   and  CE  

>  <TORSDO>
F 17

>  <BEGIN_>
RES LYS A 131

$$$$
ligand_69_pose_1_2HRL.pdbqt
 OpenBabel07062320523D

  6  5  0  0  0  0  0  0  0  0999 V2000
   33.1930   34.6630    9.2900 C   0  0  0  0  0  0  0  0  0  0  0  0
   32.0600   35.3600   10.0340 C   0  0  0  0  0  0  0  0  0  0  0  0
   30.7090   34.7380    9.7940 C   0  0  0  0  0  0  0  0  0  0  0  0
   30.4830   34.5010    8.3080 C   0  0  0  0  0  0  0  0  0  0  0  0
   29.0260   34.7240    7.9490 C   0  0  0  0  0  0  0  0  0  0  0  0
   28.8730   35.8770    7.0190 N   0  0  0  0  0  0  0  0  0  0  0  0
  1  2  1  0  0  0  0
  3  2  1  0  0  0  0
  4  3  1  0  0  0  0
  5  4  1  0  0  0  0
  6  5  1  0  0  0  0
M  END
>  <EGIN_R>
ES LYS A 135

>  <REMARK>
  4 active torsions:
  status: ('A' for Active; 'I' for Inactive)
    5  A    between atoms: CA   and  CB  
    6  A    between atoms: CB   and  CG  
    7  A    between atoms: CG   and  CD  
    8  A    between atoms: CD   and  CE  

$$$$
