ligand_86_pose_16_2HRL.pdbqt
 OpenBabel07062320523D

 52 54  0  0  1  0  0  0  0  0999 V2000
   30.3120   31.3280   18.1970 C   0  0  0  0  0  0  0  0  0  0  0  0
   30.5220   32.0700   16.9220 C   0  0  2  0  0  0  0  0  0  0  0  0
   29.3460   32.8920   16.4950 C   0  0  2  0  0  0  0  0  0  0  0  0
   29.6280   33.7210   15.2640 C   0  0  2  0  0  0  0  0  0  0  0  0
   31.0120   35.4020   14.4870 C   0  0  2  0  0  0  0  0  0  0  0  0
   30.0800   35.2620   13.3140 C   0  0  0  0  0  0  0  0  0  0  0  0
   30.7830   34.4600   15.4770 O   0  0  0  0  0  0  0  0  0  0  0  0
   28.6310   35.2780   13.6940 C   0  0  1  0  0  0  0  0  0  0  0  0
   28.4950   34.7100   15.0810 C   0  0  1  0  0  0  0  0  0  0  0  0
   31.0120   36.6900   15.0190 O   0  0  0  0  0  0  0  0  0  0  0  0
   30.9160   36.6580   16.0000 H   0  0  0  0  0  0  0  0  0  0  0  0
   32.3970   35.1550   13.9740 C   0  0  0  0  0  0  0  0  0  0  0  0
   33.3890   35.1050   14.7770 O   0  0  0  0  0  0  0  0  0  0  0  0
   32.6810   34.9690   12.6410 O   0  0  0  0  0  0  0  0  0  0  0  0
   33.6320   34.6710   12.3920 H   0  0  0  0  0  0  0  0  0  0  0  0
   28.0250   36.5010   13.5290 O   0  0  0  0  0  0  0  0  0  0  0  0
   27.0480   36.3770   13.6640 H   0  0  0  0  0  0  0  0  0  0  0  0
   27.2040   34.1210   15.3320 N   0  0  0  0  0  0  0  0  0  0  0  0
   26.1110   34.8690   15.8640 C   0  0  0  0  0  0  0  0  0  0  0  0
   27.0280   33.1110   15.1290 H   0  0  0  0  0  0  0  0  0  0  0  0
   24.8130   34.2050   16.0980 C   0  0  0  0  0  0  0  0  0  0  0  0
   26.3020   36.0810   16.1140 O   0  0  0  0  0  0  0  0  0  0  0  0
   29.0030   33.7640   17.5280 O   0  0  0  0  0  0  0  0  0  0  0  0
   28.1420   33.5430   17.9260 H   0  0  0  0  0  0  0  0  0  0  0  0
   30.8380   31.1840   15.8660 O   0  0  0  0  0  0  0  0  0  0  0  0
   31.6870   31.5370   15.4780 H   0  0  0  0  0  0  0  0  0  0  0  0
   29.2480   30.3570   18.1000 N   0  0  0  0  0  0  0  0  0  0  0  0
   28.0150   30.5950   18.7620 C   0  0  0  0  0  0  0  0  0  0  0  0
   29.3380   29.4660   17.5550 H   0  0  0  0  0  0  0  0  0  0  0  0
   27.7890   31.6290   19.4470 O   0  0  0  0  0  0  0  0  0  0  0  0
   26.9540   29.6920   18.7010 O   0  0  0  0  0  0  0  0  0  0  0  0
   26.6760   28.9180   17.5510 C   0  0  0  0  0  0  0  0  0  0  0  0
   26.2380   29.8020   16.4370 C   0  0  0  0  0  0  0  0  0  0  0  0
   24.9650   29.8410   15.9090 C   0  0  0  0  0  0  0  0  0  0  0  0
   26.9400   30.7090   15.7350 N   0  0  0  0  0  0  0  0  0  0  0  0
   24.9240   30.7640   14.9070 N   0  0  0  0  0  0  0  0  0  0  0  0
   26.1480   31.2580   14.8450 N   0  0  0  0  0  0  0  0  0  0  0  0
   23.7720   31.1210   14.0850 C   0  0  2  0  0  0  0  0  0  0  0  0
   22.5560   31.0300   14.9310 C   0  0  0  0  0  0  0  0  0  0  0  0
   23.7830   30.2460   12.8820 C   0  0  0  0  0  0  0  0  0  0  0  0
   21.3150   30.6110   14.2280 C   0  0  1  0  0  0  0  0  0  0  0  0
   22.4400   29.6610   12.5310 C   0  0  2  0  0  0  0  0  0  0  0  0
   21.4450   30.6860   12.7910 N   0  0  0  0  0  0  0  0  0  0  0  0
   21.1270   29.1190   14.4520 C   0  0  0  0  0  0  0  0  0  0  0  0
   22.1510   28.5400   13.4970 C   0  0  0  0  0  0  0  0  0  0  0  0
   20.1820   30.3900   12.1610 C   0  0  0  0  0  0  0  0  0  0  0  0
   29.8670   25.5550   16.9770 C   0  0  0  0  0  0  0  0  0  0  0  0
   28.3450   25.7220   17.0260 C   0  0  0  0  0  0  0  0  0  0  0  0
   27.6000   24.4070   16.8540 C   0  0  0  0  0  0  0  0  0  0  0  0
   26.1460   24.5280   17.2140 C   0  0  0  0  0  0  0  0  0  0  0  0
   25.6450   23.1970   17.7640 C   0  0  0  0  0  0  0  0  0  0  0  0
   25.5370   23.2520   19.2410 N   0  0  0  0  0  0  0  0  0  0  0  0
  2  1  1  1  0  0  0
  3  2  1  0  0  0  0
  3 23  1  1  0  0  0
  4  7  1  0  0  0  0
  4  3  1  1  0  0  0
  5 12  1  6  0  0  0
  5 10  1  0  0  0  0
  5  7  1  0  0  0  0
  6  8  1  0  0  0  0
  6  5  1  0  0  0  0
  8 16  1  1  0  0  0
  8  9  1  0  0  0  0
  9  4  1  0  0  0  0
  9 18  1  6  0  0  0
 10 11  1  0  0  0  0
 12 13  2  0  0  0  0
 14 12  1  0  0  0  0
 15 14  1  0  0  0  0
 16 17  1  0  0  0  0
 18 19  1  0  0  0  0
 19 21  1  0  0  0  0
 19 22  2  0  0  0  0
 20 18  1  0  0  0  0
 23 24  1  0  0  0  0
 25  2  1  0  0  0  0
 26 25  1  0  0  0  0
 27  1  1  0  0  0  0
 27 28  1  0  0  0  0
 28 30  2  0  0  0  0
 29 27  1  0  0  0  0
 31 28  1  0  0  0  0
 32 31  1  0  0  0  0
 33 32  1  0  0  0  0
 34 33  2  0  0  0  0
 35 33  1  0  0  0  0
 36 34  1  0  0  0  0
 37 36  1  0  0  0  0
 37 35  2  0  0  0  0
 38 40  1  6  0  0  0
 38 36  1  0  0  0  0
 38 39  1  0  0  0  0
 41 44  1  6  0  0  0
 41 39  1  0  0  0  0
 42 43  1  0  0  0  0
 42 40  1  1  0  0  0
 42 45  1  0  0  0  0
 43 41  1  0  0  0  0
 45 44  1  0  0  0  0
 46 43  1  0  0  0  0
 47 48  1  0  0  0  0
 49 48  1  0  0  0  0
 49 50  1  0  0  0  0
 50 51  1  0  0  0  0
 51 52  1  0  0  0  0
M  END
>  <REMARK>
 VINA RESULT:    -4.198      3.648      7.181
 INTER + INTRA:         -13.821
 INTER:                  -7.812
 INTRA:                  -6.009
 UNBOUND:                -6.555
 SMILES CC(=O)N[C@@H]1[C@@H](O)C[C@](O)(C(=O)O)O[C@H]1C(O)[C@H](O)CNC(=O)OCc1cn([C@H]2C[C@H]3CC[C@@H](C2)N3C)nn1
 SMILES IDX 20 1 18 2 16 3 15 4 9 5 8 6 14 7 6 8 5 9 10 10 11 12 12 13
 SMILES IDX 13 14 7 16 4 18 2 19 1 21 3 22 17 23 19 25 21 27 22 28 23 30
 SMILES IDX 24 31 25 32 26 33 27 34 39 35 28 36 38 37 29 38 35 39 30 40
 SMILES IDX 34 41 31 42 36 43 33 44 32 45 37 46
 H PARENT 10 11 13 15 7 17 4 20 17 24 19 26 21 29
 Flexibility Score: inf
  4 active torsions:
  status: ('A' for Active; 'I' for Inactive)
    1  A    between atoms: CA   and  CB  
    2  A    between atoms: CB   and  CG  
    3  A    between atoms: CG   and  CD  
    4  A    between atoms: CD   and  CE  

>  <TORSDO>
F 15

>  <BEGIN_>
RES LYS A 131

$$$$
ligand_86_pose_16_2HRL.pdbqt
 OpenBabel07062320523D

  6  5  0  0  0  0  0  0  0  0999 V2000
   33.1930   34.6630    9.2900 C   0  0  0  0  0  0  0  0  0  0  0  0
   32.0600   35.3600   10.0340 C   0  0  0  0  0  0  0  0  0  0  0  0
   30.6980   34.7960    9.7230 C   0  0  0  0  0  0  0  0  0  0  0  0
   30.2870   35.1400    8.3000 C   0  0  0  0  0  0  0  0  0  0  0  0
   28.8770   34.6560    8.0210 C   0  0  0  0  0  0  0  0  0  0  0  0
   28.3170   33.9280    9.1940 N   0  0  0  0  0  0  0  0  0  0  0  0
  1  2  1  0  0  0  0
  3  2  1  0  0  0  0
  4  3  1  0  0  0  0
  5  4  1  0  0  0  0
  5  6  1  0  0  0  0
M  END
>  <EGIN_R>
ES LYS A 135

>  <REMARK>
  4 active torsions:
  status: ('A' for Active; 'I' for Inactive)
    5  A    between atoms: CA   and  CB  
    6  A    between atoms: CB   and  CG  
    7  A    between atoms: CG   and  CD  
    8  A    between atoms: CD   and  CE  

$$$$
