ligand_69_pose_13_2HRL.pdbqt
 OpenBabel07062320523D

 54 51  0  0  1  0  0  0  0  0999 V2000
   27.2220   37.1950    6.6720 N   0  0  0  0  0  0  0  0  0  0  0  0
   27.7010   36.0930    7.4410 C   0  0  0  0  0  0  0  0  0  0  0  0
   28.5300   35.2580    6.9940 O   0  0  0  0  0  0  0  0  0  0  0  0
   26.5340   37.8710    7.0680 H   0  0  0  0  0  0  0  0  0  0  0  0
   27.7550   37.3090    5.3130 C   0  0  0  0  0  0  0  0  0  0  0  0
   27.7020   38.7820    4.9510 C   0  0  2  0  0  0  0  0  0  0  0  0
   28.9600   39.5230    5.3430 C   0  0  2  0  0  0  0  0  0  0  0  0
   29.3630   39.2560    6.7590 C   0  0  2  0  0  0  0  0  0  0  0  0
   29.1690   39.7990    8.9650 C   0  0  2  0  0  0  0  0  0  0  0  0
   30.0260   38.5560    9.0740 C   0  0  0  0  0  0  0  0  0  0  0  0
   28.6490   39.9660    7.6870 O   0  0  0  0  0  0  0  0  0  0  0  0
   31.2240   38.6160    8.1470 C   0  0  1  0  0  0  0  0  0  0  0  0
   30.8360   39.5020    7.0000 C   0  0  1  0  0  0  0  0  0  0  0  0
   29.8540   40.9270    9.4030 O   0  0  0  0  0  0  0  0  0  0  0  0
   30.7940   40.7180    9.6490 H   0  0  0  0  0  0  0  0  0  0  0  0
   28.0120   39.5950    9.8700 C   0  0  0  0  0  0  0  0  0  0  0  0
   27.9250   40.1580   10.9950 O   0  0  0  0  0  0  0  0  0  0  0  0
   26.9890   38.7620    9.4780 O   0  0  0  0  0  0  0  0  0  0  0  0
   26.3200   38.3350   10.1110 H   0  0  0  0  0  0  0  0  0  0  0  0
   32.2920   39.0830    8.8780 O   0  0  0  0  0  0  0  0  0  0  0  0
   33.1090   39.0090    8.2930 H   0  0  0  0  0  0  0  0  0  0  0  0
   31.6330   39.3770    5.8370 N   0  0  0  0  0  0  0  0  0  0  0  0
   32.7190   40.2210    5.4820 C   0  0  0  0  0  0  0  0  0  0  0  0
   31.4150   38.6020    5.1740 H   0  0  0  0  0  0  0  0  0  0  0  0
   33.5010   40.0040    4.2270 C   0  0  0  0  0  0  0  0  0  0  0  0
   33.0000   41.1550    6.2580 O   0  0  0  0  0  0  0  0  0  0  0  0
   28.8970   40.8520    5.0050 O   0  0  0  0  0  0  0  0  0  0  0  0
   28.3830   40.9410    4.1720 H   0  0  0  0  0  0  0  0  0  0  0  0
   26.6590   39.4000    5.6810 O   0  0  0  0  0  0  0  0  0  0  0  0
   25.9060   38.7630    5.8340 H   0  0  0  0  0  0  0  0  0  0  0  0
   27.2480   35.9170    8.7260 O   0  0  0  0  0  0  0  0  0  0  0  0
   26.2210   35.0140    9.0930 C   0  0  0  0  0  0  0  0  0  0  0  0
   24.9310   35.7430    9.0900 C   0  0  0  0  0  0  0  0  0  0  0  0
   23.6510   35.2510    9.2230 C   0  0  0  0  0  0  0  0  0  0  0  0
   24.8130   37.0770    8.9490 N   0  0  0  0  0  0  0  0  0  0  0  0
   22.7930   36.2860    9.1600 N   0  0  0  0  0  0  0  0  0  0  0  0
   23.5420   37.3790    8.9930 N   0  0  0  0  0  0  0  0  0  0  0  0
   21.3340   36.2090    9.2580 C   0  0  2  0  0  0  0  0  0  0  0  0
   20.8140   35.7750    7.9290 C   0  0  0  0  0  0  0  0  0  0  0  0
   19.4030   35.3030    7.9320 *   0  0  0  0  0  0  0  0  0  0  0  0
   19.1000   34.5020    6.8090 O   0  0  0  0  0  0  0  0  0  0  0  0
   18.9970   33.5730    7.1090 H   0  0  0  0  0  0  0  0  0  0  0  0
   20.8390   37.5400    9.7100 C   0  0  0  0  0  0  0  0  0  0  0  0
   20.0210   38.2780    8.6950 C   0  0  1  0  0  0  0  0  0  0  0  0
   18.7030   37.6610    8.4310 C   0  0  0  0  0  0  0  0  0  0  0  0
   18.4390   36.4140    8.1110 *   0  0  0  0  0  0  0  0  0  0  0  0
   19.8930   39.6330    8.9940 O   0  0  0  0  0  0  0  0  0  0  0  0
   19.0750   39.8150    9.5210 H   0  0  0  0  0  0  0  0  0  0  0  0
   29.8670   25.5550   16.9770 C   0  0  0  0  0  0  0  0  0  0  0  0
   28.3450   25.7220   17.0260 C   0  0  0  0  0  0  0  0  0  0  0  0
   27.6020   24.3980   16.9340 C   0  0  0  0  0  0  0  0  0  0  0  0
   26.5890   24.2400   18.0340 C   0  0  0  0  0  0  0  0  0  0  0  0
   25.1940   24.5260   17.4860 C   0  0  0  0  0  0  0  0  0  0  0  0
   24.8410   25.9520   17.6850 N   0  0  0  0  0  0  0  0  0  0  0  0
  1  4  1  0  0  0  0
  1  2  1  0  0  0  0
  2 31  1  0  0  0  0
  3  2  2  0  0  0  0
  5  1  1  0  0  0  0
  6  5  1  1  0  0  0
  6  7  1  0  0  0  0
  6 29  1  0  0  0  0
  7 27  1  1  0  0  0
  8  7  1  6  0  0  0
  8 13  1  0  0  0  0
  8 11  1  0  0  0  0
  9 10  1  0  0  0  0
  9 14  1  1  0  0  0
  9 16  1  0  0  0  0
 11  9  1  0  0  0  0
 12 20  1  1  0  0  0
 12 10  1  0  0  0  0
 13 22  1  6  0  0  0
 13 12  1  0  0  0  0
 14 15  1  0  0  0  0
 16 17  2  0  0  0  0
 18 16  1  0  0  0  0
 18 19  1  0  0  0  0
 21 20  1  0  0  0  0
 23 22  1  0  0  0  0
 23 26  2  0  0  0  0
 24 22  1  0  0  0  0
 25 23  1  0  0  0  0
 28 27  1  0  0  0  0
 29 30  1  0  0  0  0
 31 32  1  0  0  0  0
 33 32  1  0  0  0  0
 33 34  2  0  0  0  0
 35 37  2  0  0  0  0
 35 33  1  0  0  0  0
 36 34  1  0  0  0  0
 36 38  1  0  0  0  0
 37 36  1  0  0  0  0
 38 39  1  6  0  0  0
 38 43  1  0  0  0  0
 41 42  1  0  0  0  0
 44 45  1  1  0  0  0
 44 47  1  0  0  0  0
 44 43  1  0  0  0  0
 47 48  1  0  0  0  0
 49 50  1  0  0  0  0
 51 50  1  0  0  0  0
 51 52  1  0  0  0  0
 53 54  1  0  0  0  0
 53 52  1  0  0  0  0
M  END
>  <REMARK>
 VINA RESULT:    -7.730      5.220      8.435
 INTER + INTRA:         -13.057
 INTER:                  -8.912
 INTRA:                  -4.145
 UNBOUND:                 3.032
 SMILES CC(=O)N[C@@H]1[C@@H](O)C[C@](O)(C(=O)O)O[C@H]1C(O)[C@H](O)CNC(=O)OCc1cn(C2CC(O)C=C[C@@H](O)C2)nn1
 SMILES IDX 21 1 22 2 23 3 20 5 18 6 16 7 15 8 9 9 8 10 14 11 6 12 5 13
 SMILES IDX 10 14 11 16 12 17 13 18 7 20 4 22 2 23 1 25 3 26 17 27 19 29
 SMILES IDX 24 31 25 32 26 33 27 34 39 35 28 36 38 37 29 38 30 39 31 40
 SMILES IDX 32 42 37 44 35 45 34 46 33 47 36 49
 H PARENT 21 4 10 15 13 19 7 21 4 24 17 28 19 30 32 43 36 50
 Flexibility Score: 90.00
  4 active torsions:
  status: ('A' for Active; 'I' for Inactive)
    1  A    between atoms: CA   and  CB  
    2  A    between atoms: CB   and  CG  
    3  A    between atoms: CG   and  CD  
    4  A    between atoms: CD   and  CE  

>  <TORSDO>
F 17

>  <BEGIN_>
RES LYS A 131

$$$$
ligand_69_pose_13_2HRL.pdbqt
 OpenBabel07062320523D

  6  5  0  0  0  0  0  0  0  0999 V2000
   33.1930   34.6630    9.2900 C   0  0  0  0  0  0  0  0  0  0  0  0
   32.0600   35.3600   10.0340 C   0  0  0  0  0  0  0  0  0  0  0  0
   30.6890   34.9710    9.5450 C   0  0  0  0  0  0  0  0  0  0  0  0
   29.8000   34.5600   10.7080 C   0  0  0  0  0  0  0  0  0  0  0  0
   29.5190   35.7470   11.6090 C   0  0  0  0  0  0  0  0  0  0  0  0
   28.1260   35.7050   12.1330 N   0  0  0  0  0  0  0  0  0  0  0  0
  1  2  1  0  0  0  0
  3  2  1  0  0  0  0
  3  4  1  0  0  0  0
  4  5  1  0  0  0  0
  5  6  1  0  0  0  0
M  END
>  <EGIN_R>
ES LYS A 135

>  <REMARK>
  4 active torsions:
  status: ('A' for Active; 'I' for Inactive)
    5  A    between atoms: CA   and  CB  
    6  A    between atoms: CB   and  CG  
    7  A    between atoms: CG   and  CD  
    8  A    between atoms: CD   and  CE  

$$$$
