ligand_45_pose_7_2HRL.pdbqt
 OpenBabel07062320523D

 52 52  0  0  1  0  0  0  0  0999 V2000
   30.5820   38.3790   14.6820 O   0  0  0  0  0  0  0  0  0  0  0  0
   29.9360   39.1630   13.7480 C   0  0  0  0  0  0  0  0  0  0  0  0
   30.2630   39.1140   12.3550 N   0  0  0  0  0  0  0  0  0  0  0  0
   31.0010   38.4530   12.0890 H   0  0  0  0  0  0  0  0  0  0  0  0
   29.0360   39.9430   14.1350 O   0  0  0  0  0  0  0  0  0  0  0  0
   29.5550   39.9490   11.4570 C   0  0  0  0  0  0  0  0  0  0  0  0
   29.0490   39.3150   10.2040 C   0  0  2  0  0  0  0  0  0  0  0  0
   27.9910   38.2720   10.3860 C   0  0  1  0  0  0  0  0  0  0  0  0
   27.3880   37.7520    9.1160 C   0  0  2  0  0  0  0  0  0  0  0  0
   27.2730   38.1640    6.8570 C   0  0  2  0  0  0  0  0  0  0  0  0
   26.6780   36.7700    6.9210 C   0  0  0  0  0  0  0  0  0  0  0  0
   27.7420   38.5810    8.0790 O   0  0  0  0  0  0  0  0  0  0  0  0
   25.5400   36.7240    7.8930 C   0  0  1  0  0  0  0  0  0  0  0  0
   25.9150   37.5330    9.1360 C   0  0  1  0  0  0  0  0  0  0  0  0
   26.2420   39.0330    6.4580 O   0  0  0  0  0  0  0  0  0  0  0  0
   25.6940   38.5190    5.8090 H   0  0  0  0  0  0  0  0  0  0  0  0
   28.3390   38.2050    5.8430 C   0  0  0  0  0  0  0  0  0  0  0  0
   28.0490   38.2480    4.6140 O   0  0  0  0  0  0  0  0  0  0  0  0
   29.6730   38.2000    6.1940 O   0  0  0  0  0  0  0  0  0  0  0  0
   29.9610   38.3150    7.1470 H   0  0  0  0  0  0  0  0  0  0  0  0
   24.4050   37.2700    7.2790 O   0  0  0  0  0  0  0  0  0  0  0  0
   23.8460   36.5460    6.9230 H   0  0  0  0  0  0  0  0  0  0  0  0
   25.5070   36.6790   10.2570 N   0  0  0  0  0  0  0  0  0  0  0  0
   24.1710   36.6990   10.7240 C   0  0  0  0  0  0  0  0  0  0  0  0
   26.2180   36.0570   10.7050 H   0  0  0  0  0  0  0  0  0  0  0  0
   23.7700   35.8240   11.8710 C   0  0  0  0  0  0  0  0  0  0  0  0
   23.2680   37.4320   10.2160 O   0  0  0  0  0  0  0  0  0  0  0  0
   28.5210   37.2160   11.1430 O   0  0  0  0  0  0  0  0  0  0  0  0
   29.5100   37.2320   11.0150 H   0  0  0  0  0  0  0  0  0  0  0  0
   30.1700   38.7550    9.5540 O   0  0  0  0  0  0  0  0  0  0  0  0
   29.9180   38.0960    8.8760 H   0  0  0  0  0  0  0  0  0  0  0  0
   31.6180   37.5080   14.2510 C   0  0  0  0  0  0  0  0  0  0  0  0
   31.0730   36.1500   14.0230 C   0  0  0  0  0  0  0  0  0  0  0  0
   31.0850   35.0440   14.8440 C   0  0  0  0  0  0  0  0  0  0  0  0
   30.4360   35.7370   12.9070 N   0  0  0  0  0  0  0  0  0  0  0  0
   30.4750   34.0100   14.2330 N   0  0  0  0  0  0  0  0  0  0  0  0
   30.0970   34.4730   13.0600 N   0  0  0  0  0  0  0  0  0  0  0  0
   30.2630   32.6800   14.7040 C   0  0  0  0  0  0  0  0  0  0  0  0
   30.8530   32.4030   16.0330 C   0  0  0  0  0  0  0  0  0  0  0  0
   30.2600   31.3430   16.8650 C   0  0  0  0  0  0  0  0  0  0  0  0
   29.5990   31.6500   18.0660 N   0  0  0  0  0  0  0  0  0  0  0  0
   28.7710   32.8260   18.0760 C   0  0  0  0  0  0  0  0  0  0  0  0
   28.6600   30.5360   18.3050 C   0  0  0  0  0  0  0  0  0  0  0  0
   27.9210   30.0900   17.1040 C   0  0  0  0  0  0  0  0  0  0  0  0
   30.4610   31.6960   19.2140 C   0  0  0  0  0  0  0  0  0  0  0  0
   30.7420   30.3810   19.8460 C   0  0  0  0  0  0  0  0  0  0  0  0
   29.8670   25.5550   16.9770 C   0  0  0  0  0  0  0  0  0  0  0  0
   28.3450   25.7220   17.0260 C   0  0  0  0  0  0  0  0  0  0  0  0
   27.6020   24.3990   16.9190 C   0  0  0  0  0  0  0  0  0  0  0  0
   26.1480   24.5360   17.2790 C   0  0  0  0  0  0  0  0  0  0  0  0
   26.0150   24.7540   18.7820 C   0  0  0  0  0  0  0  0  0  0  0  0
   25.0330   25.8270   19.0660 N   0  0  0  0  0  0  0  0  0  0  0  0
  2  5  2  0  0  0  0
  2  1  1  0  0  0  0
  3  2  1  0  0  0  0
  4  3  1  0  0  0  0
  6  3  1  0  0  0  0
  7  8  1  0  0  0  0
  7  6  1  1  0  0  0
  8 28  1  6  0  0  0
  9 14  1  0  0  0  0
  9  8  1  1  0  0  0
 10 17  1  6  0  0  0
 10 11  1  0  0  0  0
 10 12  1  0  0  0  0
 11 13  1  0  0  0  0
 12  9  1  0  0  0  0
 13 21  1  6  0  0  0
 13 14  1  0  0  0  0
 14 23  1  1  0  0  0
 15 10  1  0  0  0  0
 16 15  1  0  0  0  0
 17 19  1  0  0  0  0
 18 17  2  0  0  0  0
 19 20  1  0  0  0  0
 22 21  1  0  0  0  0
 23 25  1  0  0  0  0
 23 24  1  0  0  0  0
 24 26  1  0  0  0  0
 27 24  2  0  0  0  0
 29 28  1  0  0  0  0
 30  7  1  0  0  0  0
 31 30  1  0  0  0  0
 32  1  1  0  0  0  0
 33 32  1  0  0  0  0
 33 34  2  0  0  0  0
 35 37  2  0  0  0  0
 35 33  1  0  0  0  0
 36 38  1  0  0  0  0
 36 34  1  0  0  0  0
 37 36  1  0  0  0  0
 38 39  1  0  0  0  0
 39 40  1  0  0  0  0
 40 41  1  0  0  0  0
 41 42  1  0  0  0  0
 41 43  1  0  0  0  0
 41 45  1  0  0  0  0
 44 43  1  0  0  0  0
 45 46  1  0  0  0  0
 47 48  1  0  0  0  0
 49 48  1  0  0  0  0
 49 50  1  0  0  0  0
 50 51  1  0  0  0  0
 51 52  1  0  0  0  0
M  END
>  <REMARK>
 VINA RESULT:    -4.218      6.984     12.258
 INTER + INTRA:         -14.409
 INTER:                  -8.660
 INTRA:                  -5.749
 UNBOUND:                -5.875
 SMILES CC[N+](C)(CC)CCCn1cc(COC(=O)NC[C@@H](O)C(O)[C@@H]2O[C@@](O)(C(=O)O)C[C@H](O)[C@H]2NC(C)=O)nn1
 SMILES IDX 14 1 15 2 17 3 16 5 18 6 19 7 21 8 23 9 25 10 30 11 24 12
 SMILES IDX 31 13 33 14 26 15 27 17 28 18 29 19 32 21 34 23 35 24 36 26
 SMILES IDX 37 27 22 28 20 30 13 32 12 33 11 34 38 35 10 36 39 37 9 38
 SMILES IDX 8 39 7 40 3 41 4 42 2 43 1 44 5 45 6 46
 H PARENT 17 4 26 16 29 20 32 22 34 25 22 29 20 31
 Flexibility Score: inf
  4 active torsions:
  status: ('A' for Active; 'I' for Inactive)
    1  A    between atoms: CA   and  CB  
    2  A    between atoms: CB   and  CG  
    3  A    between atoms: CG   and  CD  
    4  A    between atoms: CD   and  CE  

>  <TORSDO>
F 20

>  <BEGIN_>
RES LYS A 131

$$$$
ligand_45_pose_7_2HRL.pdbqt
 OpenBabel07062320523D

  6  5  0  0  0  0  0  0  0  0999 V2000
   33.1930   34.6630    9.2900 C   0  0  0  0  0  0  0  0  0  0  0  0
   32.0600   35.3600   10.0340 C   0  0  0  0  0  0  0  0  0  0  0  0
   30.7970   35.4900    9.2230 C   0  0  0  0  0  0  0  0  0  0  0  0
   30.1150   34.1390    9.0720 C   0  0  0  0  0  0  0  0  0  0  0  0
   28.6550   34.3170    8.7000 C   0  0  0  0  0  0  0  0  0  0  0  0
   27.7620   33.8380    9.7910 N   0  0  0  0  0  0  0  0  0  0  0  0
  1  2  1  0  0  0  0
  3  2  1  0  0  0  0
  4  3  1  0  0  0  0
  5  4  1  0  0  0  0
  5  6  1  0  0  0  0
M  END
>  <EGIN_R>
ES LYS A 135

>  <REMARK>
  4 active torsions:
  status: ('A' for Active; 'I' for Inactive)
    5  A    between atoms: CA   and  CB  
    6  A    between atoms: CB   and  CG  
    7  A    between atoms: CG   and  CD  
    8  A    between atoms: CD   and  CE  

$$$$
