ligand_3_pose_17_2HRL.pdbqt
 OpenBabel07062320523D

 49 50  0  0  1  0  0  0  0  0999 V2000
   30.5330   35.2250   18.9760 C   0  0  0  0  0  0  0  0  0  0  0  0
   30.7300   34.2650   20.1320 C   0  0  2  0  0  0  0  0  0  0  0  0
   29.6610   33.1950   20.1640 C   0  0  1  0  0  0  0  0  0  0  0  0
   30.1450   31.8800   19.6530 C   0  0  2  0  0  0  0  0  0  0  0  0
   29.1700   31.5070   17.5490 C   0  0  2  0  0  0  0  0  0  0  0  0
   28.1040   30.6310   18.1050 C   0  0  0  0  0  0  0  0  0  0  0  0
   30.2420   31.7630   18.3160 O   0  0  0  0  0  0  0  0  0  0  0  0
   28.0660   30.5570   19.6030 C   0  0  1  0  0  0  0  0  0  0  0  0
   29.4130   30.7050   20.2350 C   0  0  1  0  0  0  0  0  0  0  0  0
   28.5520   32.7370   17.2350 O   0  0  0  0  0  0  0  0  0  0  0  0
   28.2190   33.1190   18.0950 H   0  0  0  0  0  0  0  0  0  0  0  0
   29.6430   30.9620   16.2480 C   0  0  0  0  0  0  0  0  0  0  0  0
   29.0010   30.1050   15.6010 O   0  0  0  0  0  0  0  0  0  0  0  0
   30.8340   31.4040   15.7140 O   0  0  0  0  0  0  0  0  0  0  0  0
   30.9090   32.0480   14.9370 H   0  0  0  0  0  0  0  0  0  0  0  0
   27.1890   31.5300   20.1150 O   0  0  0  0  0  0  0  0  0  0  0  0
   26.6960   31.2140   20.8970 H   0  0  0  0  0  0  0  0  0  0  0  0
   30.1870   29.5060   19.9030 N   0  0  0  0  0  0  0  0  0  0  0  0
   30.9190   28.7910   20.8910 C   0  0  0  0  0  0  0  0  0  0  0  0
   30.2250   29.1410   18.9280 H   0  0  0  0  0  0  0  0  0  0  0  0
   31.7090   27.5730   20.5740 C   0  0  0  0  0  0  0  0  0  0  0  0
   30.9220   29.1730   22.0930 O   0  0  0  0  0  0  0  0  0  0  0  0
   29.2740   33.1010   21.5110 O   0  0  0  0  0  0  0  0  0  0  0  0
   29.9920   33.5900   22.0140 H   0  0  0  0  0  0  0  0  0  0  0  0
   30.8750   34.9390   21.3320 O   0  0  0  0  0  0  0  0  0  0  0  0
   31.2200   34.3750   22.0540 H   0  0  0  0  0  0  0  0  0  0  0  0
   30.7630   34.6350   17.6950 N   0  0  0  0  0  0  0  0  0  0  0  0
   32.0160   34.6680   17.0250 C   0  0  0  0  0  0  0  0  0  0  0  0
   29.9860   34.1430   17.1950 H   0  0  0  0  0  0  0  0  0  0  0  0
   33.0010   35.2220   17.5270 O   0  0  0  0  0  0  0  0  0  0  0  0
   32.1840   34.0780   15.7770 O   0  0  0  0  0  0  0  0  0  0  0  0
   32.0970   34.8700   14.6020 C   0  0  0  0  0  0  0  0  0  0  0  0
   30.7030   34.7830   14.1130 C   0  0  0  0  0  0  0  0  0  0  0  0
   30.1560   35.4390   13.0320 C   0  0  0  0  0  0  0  0  0  0  0  0
   29.7250   34.0330   14.6590 N   0  0  0  0  0  0  0  0  0  0  0  0
   28.8710   35.0550   12.9740 N   0  0  0  0  0  0  0  0  0  0  0  0
   28.6260   34.2110   13.9550 N   0  0  0  0  0  0  0  0  0  0  0  0
   27.9350   35.5000   11.9980 C   0  0  0  0  0  0  0  0  0  0  0  0
   26.9500   34.6310   11.5610 C   0  0  0  0  0  0  0  0  0  0  0  0
   28.0030   36.7830   11.4890 C   0  0  0  0  0  0  0  0  0  0  0  0
   26.0560   35.0960   10.6120 C   0  0  0  0  0  0  0  0  0  0  0  0
   27.1080   37.2270   10.5480 C   0  0  0  0  0  0  0  0  0  0  0  0
   26.1250   36.3680   10.1090 C   0  0  0  0  0  0  0  0  0  0  0  0
   29.8670   25.5550   16.9770 C   0  0  0  0  0  0  0  0  0  0  0  0
   28.3450   25.7220   17.0260 C   0  0  0  0  0  0  0  0  0  0  0  0
   27.6010   24.4030   16.8870 C   0  0  0  0  0  0  0  0  0  0  0  0
   26.7120   24.1260   18.0680 C   0  0  0  0  0  0  0  0  0  0  0  0
   25.4690   23.3750   17.6040 C   0  0  0  0  0  0  0  0  0  0  0  0
   24.5570   24.2840   16.8700 N   0  0  0  0  0  0  0  0  0  0  0  0
  2  1  1  6  0  0  0
  2  3  1  0  0  0  0
  2 25  1  0  0  0  0
  3 23  1  1  0  0  0
  4  3  1  6  0  0  0
  4  9  1  0  0  0  0
  5 12  1  6  0  0  0
  5  6  1  0  0  0  0
  5  7  1  0  0  0  0
  6  8  1  0  0  0  0
  7  4  1  0  0  0  0
  8 16  1  1  0  0  0
  8  9  1  0  0  0  0
  9 18  1  6  0  0  0
 10  5  1  0  0  0  0
 10 11  1  0  0  0  0
 13 12  2  0  0  0  0
 14 12  1  0  0  0  0
 15 14  1  0  0  0  0
 16 17  1  0  0  0  0
 18 19  1  0  0  0  0
 19 22  2  0  0  0  0
 20 18  1  0  0  0  0
 21 19  1  0  0  0  0
 23 24  1  0  0  0  0
 25 26  1  0  0  0  0
 27  1  1  0  0  0  0
 28 30  2  0  0  0  0
 28 27  1  0  0  0  0
 29 27  1  0  0  0  0
 31 28  1  0  0  0  0
 32 31  1  0  0  0  0
 33 32  1  0  0  0  0
 33 35  1  0  0  0  0
 34 33  2  0  0  0  0
 36 34  1  0  0  0  0
 36 37  1  0  0  0  0
 37 35  2  0  0  0  0
 38 36  1  0  0  0  0
 39 38  1  0  0  0  0
 40 38  2  0  0  0  0
 41 39  2  0  0  0  0
 42 40  1  0  0  0  0
 43 42  2  0  0  0  0
 43 41  1  0  0  0  0
 44 45  1  0  0  0  0
 46 45  1  0  0  0  0
 46 47  1  0  0  0  0
 48 47  1  0  0  0  0
 49 48  1  0  0  0  0
M  END
>  <REMARK>
 VINA RESULT:    -5.202      8.124     12.164
 INTER + INTRA:         -13.488
 INTER:                  -7.294
 INTRA:                  -6.194
 UNBOUND:                -4.485
 SMILES CC(=O)N[C@@H]1[C@@H](O)C[C@](O)(C(=O)O)O[C@H]1C(O)[C@H](O)CNC(=O)OCc1cn(-c2ccccc2)nn1
 SMILES IDX 20 1 18 2 16 3 15 4 9 5 8 6 14 7 6 8 5 9 10 10 11 12 12 13
 SMILES IDX 13 14 7 16 4 18 2 19 1 21 3 22 17 23 19 25 21 27 22 28 23 30
 SMILES IDX 24 31 25 32 26 33 27 34 36 35 28 36 35 37 29 38 30 39 34 40
 SMILES IDX 31 41 33 42 32 43
 H PARENT 10 11 13 15 7 17 4 20 17 24 19 26 21 29
 Flexibility Score: inf
  4 active torsions:
  status: ('A' for Active; 'I' for Inactive)
    1  A    between atoms: CA   and  CB  
    2  A    between atoms: CB   and  CG  
    3  A    between atoms: CG   and  CD  
    4  A    between atoms: CD   and  CE  

>  <TORSDO>
F 15

>  <BEGIN_>
RES LYS A 131

$$$$
ligand_3_pose_17_2HRL.pdbqt
 OpenBabel07062320523D

  6  5  0  0  0  0  0  0  0  0999 V2000
   33.1930   34.6630    9.2900 C   0  0  0  0  0  0  0  0  0  0  0  0
   32.0600   35.3600   10.0340 C   0  0  0  0  0  0  0  0  0  0  0  0
   30.6980   34.7950    9.7240 C   0  0  0  0  0  0  0  0  0  0  0  0
   30.4860   34.7000    8.2210 C   0  0  0  0  0  0  0  0  0  0  0  0
   29.3810   35.6410    7.7790 C   0  0  0  0  0  0  0  0  0  0  0  0
   28.0970   34.9100    7.5920 N   0  0  0  0  0  0  0  0  0  0  0  0
  1  2  1  0  0  0  0
  3  2  1  0  0  0  0
  4  3  1  0  0  0  0
  5  4  1  0  0  0  0
  6  5  1  0  0  0  0
M  END
>  <EGIN_R>
ES LYS A 135

>  <REMARK>
  4 active torsions:
  status: ('A' for Active; 'I' for Inactive)
    5  A    between atoms: CA   and  CB  
    6  A    between atoms: CB   and  CG  
    7  A    between atoms: CG   and  CD  
    8  A    between atoms: CD   and  CE  

$$$$
