ligand_40_pose_14_2HRL.pdbqt
 OpenBabel07062320523D

 50 51  0  0  1  0  0  0  0  0999 V2000
   30.8520   31.2020   20.0480 C   0  0  0  0  0  0  0  0  0  0  0  0
   30.6710   32.4790   19.3390 C   0  0  2  0  0  0  0  0  0  0  0  0
   30.1490   32.4770   17.9380 C   0  0  2  0  0  0  0  0  0  0  0  0
   30.2920   33.7470   17.1620 C   0  0  2  0  0  0  0  0  0  0  0  0
   28.9390   33.3140   15.2980 C   0  0  2  0  0  0  0  0  0  0  0  0
   30.0730   33.5350   14.3120 C   0  0  0  0  0  0  0  0  0  0  0  0
   29.0900   33.9770   16.4740 O   0  0  0  0  0  0  0  0  0  0  0  0
   31.3960   33.2780   15.0160 C   0  0  1  0  0  0  0  0  0  0  0  0
   31.4830   33.9860   16.3290 C   0  0  1  0  0  0  0  0  0  0  0  0
   28.7650   31.9560   15.4060 O   0  0  0  0  0  0  0  0  0  0  0  0
   28.0150   31.6820   15.9940 H   0  0  0  0  0  0  0  0  0  0  0  0
   27.7260   33.8850   14.6320 C   0  0  0  0  0  0  0  0  0  0  0  0
   27.7850   34.9250   13.9100 O   0  0  0  0  0  0  0  0  0  0  0  0
   26.4980   33.2770   14.7960 O   0  0  0  0  0  0  0  0  0  0  0  0
   25.7550   33.4640   14.1180 H   0  0  0  0  0  0  0  0  0  0  0  0
   31.3870   31.9070   15.2730 O   0  0  0  0  0  0  0  0  0  0  0  0
   30.4640   31.5590   15.3750 H   0  0  0  0  0  0  0  0  0  0  0  0
   31.6260   35.4250   16.2080 N   0  0  0  0  0  0  0  0  0  0  0  0
   32.4690   36.1920   17.0300 C   0  0  0  0  0  0  0  0  0  0  0  0
   31.0560   35.8690   15.4590 H   0  0  0  0  0  0  0  0  0  0  0  0
   32.6350   37.6540   16.9320 C   0  0  0  0  0  0  0  0  0  0  0  0
   33.1070   35.5640   17.8960 O   0  0  0  0  0  0  0  0  0  0  0  0
   28.6880   32.4550   18.1180 O   0  0  0  0  0  0  0  0  0  0  0  0
   28.5080   31.7890   18.8340 H   0  0  0  0  0  0  0  0  0  0  0  0
   31.7310   33.3500   19.5410 O   0  0  0  0  0  0  0  0  0  0  0  0
   32.6130   32.8660   19.5410 H   0  0  0  0  0  0  0  0  0  0  0  0
   30.1500   30.0610   19.4550 N   0  0  0  0  0  0  0  0  0  0  0  0
   28.9240   29.5890   19.9740 C   0  0  0  0  0  0  0  0  0  0  0  0
   30.5320   29.5390   18.6240 H   0  0  0  0  0  0  0  0  0  0  0  0
   28.4180   30.1430   20.9560 O   0  0  0  0  0  0  0  0  0  0  0  0
   28.2380   28.5050   19.4250 O   0  0  0  0  0  0  0  0  0  0  0  0
   26.8440   28.5930   19.2370 C   0  0  0  0  0  0  0  0  0  0  0  0
   26.4710   29.1830   17.9480 C   0  0  0  0  0  0  0  0  0  0  0  0
   25.3080   28.8750   17.2730 C   0  0  0  0  0  0  0  0  0  0  0  0
   27.0980   30.0840   17.1650 N   0  0  0  0  0  0  0  0  0  0  0  0
   25.2490   29.5760   16.1210 N   0  0  0  0  0  0  0  0  0  0  0  0
   26.3490   30.2970   16.0890 N   0  0  0  0  0  0  0  0  0  0  0  0
   24.2360   29.5740   15.1170 C   0  0  0  0  0  0  0  0  0  0  0  0
   23.0730   28.8480   15.2810 C   0  0  0  0  0  0  0  0  0  0  0  0
   24.3650   30.2880   13.9440 C   0  0  0  0  0  0  0  0  0  0  0  0
   22.0840   28.8360   14.3170 C   0  0  0  0  0  0  0  0  0  0  0  0
   23.3810   30.2810   12.9770 C   0  0  0  0  0  0  0  0  0  0  0  0
   22.2220   29.5550   13.1480 C   0  0  0  0  0  0  0  0  0  0  0  0
   21.1860   29.5720   12.0820 C   0  0  0  0  0  0  0  0  0  0  0  0
   29.8670   25.5550   16.9770 C   0  0  0  0  0  0  0  0  0  0  0  0
   28.3450   25.7220   17.0260 C   0  0  0  0  0  0  0  0  0  0  0  0
   27.6030   24.3960   16.9580 C   0  0  0  0  0  0  0  0  0  0  0  0
   26.1980   24.5060   17.4840 C   0  0  0  0  0  0  0  0  0  0  0  0
   25.5430   23.1280   17.4770 C   0  0  0  0  0  0  0  0  0  0  0  0
   24.1380   23.2250   17.0170 N   0  0  0  0  0  0  0  0  0  0  0  0
  2 25  1  0  0  0  0
  2  1  1  6  0  0  0
  3 23  1  1  0  0  0
  3  2  1  0  0  0  0
  4  3  1  6  0  0  0
  5 12  1  6  0  0  0
  5 10  1  0  0  0  0
  5  7  1  0  0  0  0
  6  8  1  0  0  0  0
  6  5  1  0  0  0  0
  7  4  1  0  0  0  0
  8 16  1  1  0  0  0
  8  9  1  0  0  0  0
  9 18  1  6  0  0  0
  9  4  1  0  0  0  0
 10 11  1  0  0  0  0
 12 14  1  0  0  0  0
 13 12  2  0  0  0  0
 15 14  1  0  0  0  0
 16 17  1  0  0  0  0
 18 19  1  0  0  0  0
 19 22  2  0  0  0  0
 20 18  1  0  0  0  0
 21 19  1  0  0  0  0
 23 24  1  0  0  0  0
 26 25  1  0  0  0  0
 27 28  1  0  0  0  0
 27  1  1  0  0  0  0
 28 30  2  0  0  0  0
 29 27  1  0  0  0  0
 31 28  1  0  0  0  0
 32 31  1  0  0  0  0
 33 32  1  0  0  0  0
 34 33  2  0  0  0  0
 35 33  1  0  0  0  0
 36 34  1  0  0  0  0
 37 36  1  0  0  0  0
 37 35  2  0  0  0  0
 38 39  1  0  0  0  0
 38 36  1  0  0  0  0
 40 38  2  0  0  0  0
 41 39  2  0  0  0  0
 42 43  2  0  0  0  0
 42 40  1  0  0  0  0
 43 41  1  0  0  0  0
 44 43  1  0  0  0  0
 45 46  1  0  0  0  0
 47 46  1  0  0  0  0
 47 48  1  0  0  0  0
 49 48  1  0  0  0  0
 50 49  1  0  0  0  0
M  END
>  <REMARK>
 VINA RESULT:    -5.138      2.008      4.683
 INTER + INTRA:         -13.906
 INTER:                  -8.149
 INTRA:                  -5.757
 UNBOUND:                -5.012
 SMILES CC(=O)N[C@@H]1[C@@H](O)C[C@](O)(C(=O)O)O[C@H]1C(O)[C@H](O)CNC(=O)OCc1cn(-c2ccc(C)cc2)nn1
 SMILES IDX 20 1 18 2 16 3 15 4 9 5 8 6 14 7 6 8 5 9 10 10 11 12 12 13
 SMILES IDX 13 14 7 16 4 18 2 19 1 21 3 22 17 23 19 25 21 27 22 28 23 30
 SMILES IDX 24 31 25 32 26 33 27 34 37 35 28 36 36 37 29 38 30 39 35 40
 SMILES IDX 31 41 34 42 32 43 33 44
 H PARENT 10 11 13 15 7 17 4 20 17 24 19 26 21 29
 Flexibility Score: inf
  4 active torsions:
  status: ('A' for Active; 'I' for Inactive)
    1  A    between atoms: CA   and  CB  
    2  A    between atoms: CB   and  CG  
    3  A    between atoms: CG   and  CD  
    4  A    between atoms: CD   and  CE  

>  <TORSDO>
F 15

>  <BEGIN_>
RES LYS A 131

$$$$
ligand_40_pose_14_2HRL.pdbqt
 OpenBabel07062320523D

  6  5  0  0  0  0  0  0  0  0999 V2000
   33.1930   34.6630    9.2900 C   0  0  0  0  0  0  0  0  0  0  0  0
   32.0600   35.3600   10.0340 C   0  0  0  0  0  0  0  0  0  0  0  0
   30.7090   34.7380    9.7930 C   0  0  0  0  0  0  0  0  0  0  0  0
   30.4830   34.5050    8.3070 C   0  0  0  0  0  0  0  0  0  0  0  0
   29.0670   34.8860    7.9170 C   0  0  0  0  0  0  0  0  0  0  0  0
   28.8200   36.3370    8.1440 N   0  0  0  0  0  0  0  0  0  0  0  0
  1  2  1  0  0  0  0
  3  2  1  0  0  0  0
  4  3  1  0  0  0  0
  5  6  1  0  0  0  0
  5  4  1  0  0  0  0
M  END
>  <EGIN_R>
ES LYS A 135

>  <REMARK>
  4 active torsions:
  status: ('A' for Active; 'I' for Inactive)
    5  A    between atoms: CA   and  CB  
    6  A    between atoms: CB   and  CG  
    7  A    between atoms: CG   and  CD  
    8  A    between atoms: CD   and  CE  

$$$$
