ligand_71_pose_5_2HRL.pdbqt
 OpenBabel07062320523D

 54 55  0  0  1  0  0  0  0  0999 V2000
   26.2410   30.8030   22.2970 N   0  0  0  0  0  0  0  0  0  0  0  0
   25.3970   29.6690   22.5590 C   0  0  0  0  0  0  0  0  0  0  0  0
   25.4730   29.0430   23.6450 O   0  0  0  0  0  0  0  0  0  0  0  0
   26.1620   31.3060   21.3980 H   0  0  0  0  0  0  0  0  0  0  0  0
   27.1730   31.1920   23.3190 C   0  0  0  0  0  0  0  0  0  0  0  0
   28.6110   30.9210   22.9540 C   0  0  2  0  0  0  0  0  0  0  0  0
   28.9960   29.6090   23.5930 C   0  0  1  0  0  0  0  0  0  0  0  0
   30.1330   28.9320   22.8230 C   0  0  2  0  0  0  0  0  0  0  0  0
   31.3680   29.0600   20.9370 C   0  0  2  0  0  0  0  0  0  0  0  0
   31.5860   27.5920   20.9930 C   0  0  0  0  0  0  0  0  0  0  0  0
   30.1990   29.4230   21.5410 O   0  0  0  0  0  0  0  0  0  0  0  0
   30.4570   26.7840   21.5860 C   0  0  1  0  0  0  0  0  0  0  0  0
   29.8480   27.4400   22.7930 C   0  0  1  0  0  0  0  0  0  0  0  0
   31.1980   29.4450   19.5640 O   0  0  0  0  0  0  0  0  0  0  0  0
   31.9900   29.1260   19.0500 H   0  0  0  0  0  0  0  0  0  0  0  0
   32.5640   29.8270   21.3910 C   0  0  0  0  0  0  0  0  0  0  0  0
   32.5560   31.0590   21.4160 O   0  0  0  0  0  0  0  0  0  0  0  0
   33.7340   29.1820   21.8020 O   0  0  0  0  0  0  0  0  0  0  0  0
   34.1690   29.3780   22.6860 H   0  0  0  0  0  0  0  0  0  0  0  0
   29.5120   26.6080   20.5720 O   0  0  0  0  0  0  0  0  0  0  0  0
   29.2030   25.6600   20.5160 H   0  0  0  0  0  0  0  0  0  0  0  0
   30.2250   26.8730   24.0410 N   0  0  0  0  0  0  0  0  0  0  0  0
   29.5800   25.7750   24.6640 C   0  0  0  0  0  0  0  0  0  0  0  0
   31.0390   27.2780   24.5650 H   0  0  0  0  0  0  0  0  0  0  0  0
   30.0290   25.2320   25.9830 C   0  0  0  0  0  0  0  0  0  0  0  0
   28.6120   25.2650   24.0740 O   0  0  0  0  0  0  0  0  0  0  0  0
   29.3300   29.7590   24.9250 O   0  0  0  0  0  0  0  0  0  0  0  0
   29.9410   29.0010   25.1790 H   0  0  0  0  0  0  0  0  0  0  0  0
   29.3780   31.9760   23.4450 O   0  0  0  0  0  0  0  0  0  0  0  0
   29.5200   31.8060   24.4150 H   0  0  0  0  0  0  0  0  0  0  0  0
   24.4800   29.2330   21.6310 O   0  0  0  0  0  0  0  0  0  0  0  0
   24.6120   28.1180   20.7990 C   0  0  0  0  0  0  0  0  0  0  0  0
   25.7450   28.3070   19.8690 C   0  0  0  0  0  0  0  0  0  0  0  0
   25.7180   28.5880   18.5190 C   0  0  0  0  0  0  0  0  0  0  0  0
   27.0390   28.2360   20.2210 N   0  0  0  0  0  0  0  0  0  0  0  0
   26.9810   28.6760   18.1080 N   0  0  0  0  0  0  0  0  0  0  0  0
   27.7540   28.4590   19.1570 N   0  0  0  0  0  0  0  0  0  0  0  0
   27.3890   28.9750   16.7310 C   0  0  0  0  0  0  0  0  0  0  0  0
   28.0990   30.2880   16.6890 C   0  0  0  0  0  0  0  0  0  0  0  0
   27.5890   31.3470   16.2860 O   0  0  0  0  0  0  0  0  0  0  0  0
   29.4570   30.3260   17.1430 N   0  0  0  0  0  0  0  0  0  0  0  0
   29.9130   29.4510   17.4870 H   0  0  0  0  0  0  0  0  0  0  0  0
   30.2110   31.5230   17.1480 C   0  0  0  0  0  0  0  0  0  0  0  0
   30.8410   32.0080   16.0600 N   0  0  0  0  0  0  0  0  0  0  0  0
   30.3260   32.2430   18.2800 N   0  0  0  0  0  0  0  0  0  0  0  0
   31.5510   33.1520   16.0940 C   0  0  0  0  0  0  0  0  0  0  0  0
   31.0110   33.3790   18.3780 C   0  0  0  0  0  0  0  0  0  0  0  0
   31.6570   33.8760   17.2640 C   0  0  0  0  0  0  0  0  0  0  0  0
   29.8670   25.5550   16.9770 C   0  0  0  0  0  0  0  0  0  0  0  0
   28.3450   25.7220   17.0260 C   0  0  0  0  0  0  0  0  0  0  0  0
   27.5990   24.4510   16.6510 C   0  0  0  0  0  0  0  0  0  0  0  0
   26.8870   23.8440   17.8290 C   0  0  0  0  0  0  0  0  0  0  0  0
   26.3610   24.9540   18.7330 C   0  0  0  0  0  0  0  0  0  0  0  0
   25.2220   24.4650   19.5450 N   0  0  0  0  0  0  0  0  0  0  0  0
  1  2  1  0  0  0  0
  1  5  1  0  0  0  0
  2  3  2  0  0  0  0
  4  1  1  0  0  0  0
  6  5  1  1  0  0  0
  6 29  1  0  0  0  0
  6  7  1  0  0  0  0
  7 27  1  1  0  0  0
  8  7  1  1  0  0  0
  9 14  1  6  0  0  0
  9 10  1  0  0  0  0
  9 16  1  0  0  0  0
  9 11  1  0  0  0  0
 10 12  1  0  0  0  0
 11  8  1  0  0  0  0
 12 20  1  6  0  0  0
 12 13  1  0  0  0  0
 13  8  1  0  0  0  0
 13 22  1  1  0  0  0
 15 14  1  0  0  0  0
 16 17  2  0  0  0  0
 16 18  1  0  0  0  0
 18 19  1  0  0  0  0
 21 20  1  0  0  0  0
 22 24  1  0  0  0  0
 22 23  1  0  0  0  0
 23 25  1  0  0  0  0
 26 23  2  0  0  0  0
 27 28  1  0  0  0  0
 29 30  1  0  0  0  0
 31  2  1  0  0  0  0
 32 31  1  0  0  0  0
 33 35  1  0  0  0  0
 33 32  1  0  0  0  0
 34 33  2  0  0  0  0
 36 34  1  0  0  0  0
 36 37  1  0  0  0  0
 37 35  2  0  0  0  0
 38 36  1  0  0  0  0
 39 38  1  0  0  0  0
 39 41  1  0  0  0  0
 40 39  2  0  0  0  0
 41 43  1  0  0  0  0
 41 42  1  0  0  0  0
 43 45  1  0  0  0  0
 44 46  1  0  0  0  0
 44 43  2  0  0  0  0
 45 47  2  0  0  0  0
 46 48  2  0  0  0  0
 48 47  1  0  0  0  0
 49 50  1  0  0  0  0
 51 50  1  0  0  0  0
 51 52  1  0  0  0  0
 52 53  1  0  0  0  0
 53 54  1  0  0  0  0
M  END
>  <REMARK>
 VINA RESULT:    -4.061      4.095      8.253
 INTER + INTRA:         -15.068
 INTER:                  -8.067
 INTRA:                  -7.001
 UNBOUND:                -7.565
 SMILES CC(=O)N[C@@H]1[C@@H](O)C[C@](O)(C(=O)O)O[C@H]1C(O)[C@H](O)CNC(=O)OCc1cn(CC(=O)Nc2ncccn2)nn1
 SMILES IDX 21 1 22 2 23 3 20 5 18 6 16 7 15 8 9 9 8 10 14 11 6 12 5 13
 SMILES IDX 10 14 11 16 12 17 13 18 7 20 4 22 2 23 1 25 3 26 17 27 19 29
 SMILES IDX 24 31 25 32 26 33 27 34 40 35 28 36 39 37 29 38 30 39 31 40
 SMILES IDX 32 41 33 43 34 44 38 45 35 46 37 47 36 48
 H PARENT 21 4 10 15 13 19 7 21 4 24 17 28 19 30 32 42
 Flexibility Score: inf
  4 active torsions:
  status: ('A' for Active; 'I' for Inactive)
    1  A    between atoms: CA   and  CB  
    2  A    between atoms: CB   and  CG  
    3  A    between atoms: CG   and  CD  
    4  A    between atoms: CD   and  CE  

>  <TORSDO>
F 17

>  <BEGIN_>
RES LYS A 131

$$$$
ligand_71_pose_5_2HRL.pdbqt
 OpenBabel07062320523D

  6  5  0  0  0  0  0  0  0  0999 V2000
   33.1930   34.6630    9.2900 C   0  0  0  0  0  0  0  0  0  0  0  0
   32.0600   35.3600   10.0340 C   0  0  0  0  0  0  0  0  0  0  0  0
   30.7190   34.6990    9.8460 C   0  0  0  0  0  0  0  0  0  0  0  0
   30.2530   34.8300    8.4040 C   0  0  0  0  0  0  0  0  0  0  0  0
   28.7770   34.5020    8.2890 C   0  0  0  0  0  0  0  0  0  0  0  0
   28.2770   33.8410    9.5260 N   0  0  0  0  0  0  0  0  0  0  0  0
  1  2  1  0  0  0  0
  3  2  1  0  0  0  0
  4  3  1  0  0  0  0
  5  4  1  0  0  0  0
  5  6  1  0  0  0  0
M  END
>  <EGIN_R>
ES LYS A 135

>  <REMARK>
  4 active torsions:
  status: ('A' for Active; 'I' for Inactive)
    5  A    between atoms: CA   and  CB  
    6  A    between atoms: CB   and  CG  
    7  A    between atoms: CG   and  CD  
    8  A    between atoms: CD   and  CE  

$$$$
