ligand_42_pose_19_2HRL.pdbqt
 OpenBabel07062320523D

 52 54  0  0  1  0  0  0  0  0999 V2000
   25.8200   36.1860   16.8750 C   0  0  0  0  0  0  0  0  0  0  0  0
   26.5930   34.9130   16.9670 C   0  0  2  0  0  0  0  0  0  0  0  0
   28.0070   35.0840   16.3870 C   0  0  1  0  0  0  0  0  0  0  0  0
   28.5230   33.7260   16.0740 C   0  0  2  0  0  0  0  0  0  0  0  0
   28.9070   31.6240   16.8700 C   0  0  2  0  0  0  0  0  0  0  0  0
   29.2780   31.4370   15.4150 C   0  0  0  0  0  0  0  0  0  0  0  0
   28.3750   32.8580   17.1510 O   0  0  0  0  0  0  0  0  0  0  0  0
   30.2570   32.4920   14.9330 C   0  0  1  0  0  0  0  0  0  0  0  0
   30.0130   33.7270   15.7320 C   0  0  1  0  0  0  0  0  0  0  0  0
   30.0620   31.3520   17.6060 O   0  0  0  0  0  0  0  0  0  0  0  0
   30.2660   32.1860   18.1090 H   0  0  0  0  0  0  0  0  0  0  0  0
   27.8710   30.6120   17.1780 C   0  0  0  0  0  0  0  0  0  0  0  0
   26.6610   30.9270   17.0940 O   0  0  0  0  0  0  0  0  0  0  0  0
   28.1800   29.3170   17.5600 O   0  0  0  0  0  0  0  0  0  0  0  0
   27.4810   28.6080   17.7540 H   0  0  0  0  0  0  0  0  0  0  0  0
   31.5420   31.9580   15.1720 O   0  0  0  0  0  0  0  0  0  0  0  0
   31.8960   31.5290   14.3720 H   0  0  0  0  0  0  0  0  0  0  0  0
   30.4580   34.9400   15.1490 N   0  0  0  0  0  0  0  0  0  0  0  0
   31.7800   35.4590   15.1710 C   0  0  0  0  0  0  0  0  0  0  0  0
   29.7520   35.5220   14.6480 H   0  0  0  0  0  0  0  0  0  0  0  0
   32.1450   36.7530   14.5220 C   0  0  0  0  0  0  0  0  0  0  0  0
   32.6500   34.7820   15.7650 O   0  0  0  0  0  0  0  0  0  0  0  0
   27.9070   35.8810   15.2800 O   0  0  0  0  0  0  0  0  0  0  0  0
   27.0830   36.3540   15.1240 H   0  0  0  0  0  0  0  0  0  0  0  0
   25.9820   33.8910   16.2910 O   0  0  0  0  0  0  0  0  0  0  0  0
   26.3550   32.9930   16.4180 H   0  0  0  0  0  0  0  0  0  0  0  0
   24.8450   36.1500   15.8420 N   0  0  0  0  0  0  0  0  0  0  0  0
   24.8940   36.9620   14.6980 C   0  0  0  0  0  0  0  0  0  0  0  0
   24.0170   35.4830   15.9060 H   0  0  0  0  0  0  0  0  0  0  0  0
   25.7720   37.8070   14.4540 O   0  0  0  0  0  0  0  0  0  0  0  0
   23.8800   36.8300   13.7320 O   0  0  0  0  0  0  0  0  0  0  0  0
   23.5330   35.5590   13.2740 C   0  0  0  0  0  0  0  0  0  0  0  0
   23.7510   35.4940   11.8050 C   0  0  0  0  0  0  0  0  0  0  0  0
   24.9450   35.7420   11.1370 C   0  0  0  0  0  0  0  0  0  0  0  0
   22.8670   35.1910   10.8390 N   0  0  0  0  0  0  0  0  0  0  0  0
   24.7600   35.5870    9.8140 N   0  0  0  0  0  0  0  0  0  0  0  0
   23.4890   35.2530    9.6770 N   0  0  0  0  0  0  0  0  0  0  0  0
   25.7490   35.7550    8.8050 C   0  0  0  0  0  0  0  0  0  0  0  0
   26.6090   34.7230    8.4880 C   0  0  0  0  0  0  0  0  0  0  0  0
   25.9030   36.9330    8.1030 C   0  0  0  0  0  0  0  0  0  0  0  0
   27.5850   34.8660    7.5030 C   0  0  0  0  0  0  0  0  0  0  0  0
   26.8720   37.0990    7.1140 C   0  0  0  0  0  0  0  0  0  0  0  0
   27.7170   36.0530    6.8160 C   0  0  0  0  0  0  0  0  0  0  0  0
   27.2200   38.1600    6.2830 O   0  0  0  0  0  0  0  0  0  0  0  0
   28.5720   36.5090    5.7970 O   0  0  0  0  0  0  0  0  0  0  0  0
   28.5230   37.9390    5.7770 C   0  0  0  0  0  0  0  0  0  0  0  0
   29.8670   25.5550   16.9770 C   0  0  0  0  0  0  0  0  0  0  0  0
   28.3450   25.7220   17.0260 C   0  0  0  0  0  0  0  0  0  0  0  0
   27.6010   24.4020   16.8880 C   0  0  0  0  0  0  0  0  0  0  0  0
   26.5690   24.2190   17.9660 C   0  0  0  0  0  0  0  0  0  0  0  0
   25.2210   23.8940   17.3310 C   0  0  0  0  0  0  0  0  0  0  0  0
   24.8870   22.4640   17.5260 N   0  0  0  0  0  0  0  0  0  0  0  0
  2  1  1  6  0  0  0
  3 23  1  6  0  0  0
  3  2  1  0  0  0  0
  4  3  1  1  0  0  0
  4  7  1  0  0  0  0
  5  7  1  0  0  0  0
  5 12  1  1  0  0  0
  5 10  1  0  0  0  0
  6  5  1  0  0  0  0
  8 16  1  1  0  0  0
  8  6  1  0  0  0  0
  8  9  1  0  0  0  0
  9 18  1  6  0  0  0
  9  4  1  0  0  0  0
 10 11  1  0  0  0  0
 12 14  1  0  0  0  0
 13 12  2  0  0  0  0
 14 15  1  0  0  0  0
 17 16  1  0  0  0  0
 18 19  1  0  0  0  0
 19 22  2  0  0  0  0
 20 18  1  0  0  0  0
 21 19  1  0  0  0  0
 24 23  1  0  0  0  0
 25 26  1  0  0  0  0
 25  2  1  0  0  0  0
 27 29  1  0  0  0  0
 27  1  1  0  0  0  0
 28 27  1  0  0  0  0
 30 28  2  0  0  0  0
 31 28  1  0  0  0  0
 32 31  1  0  0  0  0
 33 32  1  0  0  0  0
 34 33  2  0  0  0  0
 35 33  1  0  0  0  0
 36 34  1  0  0  0  0
 37 36  1  0  0  0  0
 37 35  2  0  0  0  0
 38 36  1  0  0  0  0
 39 38  1  0  0  0  0
 40 38  2  0  0  0  0
 41 39  2  0  0  0  0
 42 40  1  0  0  0  0
 43 42  2  0  0  0  0
 43 41  1  0  0  0  0
 44 42  1  0  0  0  0
 45 43  1  0  0  0  0
 46 45  1  0  0  0  0
 46 44  1  0  0  0  0
 47 48  1  0  0  0  0
 49 48  1  0  0  0  0
 49 50  1  0  0  0  0
 51 52  1  0  0  0  0
 51 50  1  0  0  0  0
M  END
>  <REMARK>
 VINA RESULT:    -5.312      4.964      8.889
 INTER + INTRA:         -13.742
 INTER:                  -9.194
 INTRA:                  -4.548
 UNBOUND:                -4.548
 SMILES CC(=O)N[C@@H]1[C@@H](O)C[C@](O)(C(=O)O)O[C@H]1C(O)[C@H](O)CNC(=O)OCc1cn(-c2ccc3c(c2)OCO3)nn1
 SMILES IDX 20 1 18 2 16 3 15 4 9 5 8 6 14 7 6 8 5 9 10 10 11 12 12 13
 SMILES IDX 13 14 7 16 4 18 2 19 1 21 3 22 17 23 19 25 21 27 22 28 23 30
 SMILES IDX 24 31 25 32 26 33 27 34 39 35 28 36 38 37 29 38 30 39 34 40
 SMILES IDX 31 41 33 42 32 43 35 44 37 45 36 46
 H PARENT 10 11 13 15 7 17 4 20 17 24 19 26 21 29
 Flexibility Score: inf
  4 active torsions:
  status: ('A' for Active; 'I' for Inactive)
    1  A    between atoms: CA   and  CB  
    2  A    between atoms: CB   and  CG  
    3  A    between atoms: CG   and  CD  
    4  A    between atoms: CD   and  CE  

>  <TORSDO>
F 15

>  <BEGIN_>
RES LYS A 131

$$$$
ligand_42_pose_19_2HRL.pdbqt
 OpenBabel07062320523D

  6  5  0  0  0  0  0  0  0  0999 V2000
   33.1930   34.6630    9.2900 C   0  0  0  0  0  0  0  0  0  0  0  0
   32.0600   35.3600   10.0340 C   0  0  0  0  0  0  0  0  0  0  0  0
   30.7960   35.4890    9.2230 C   0  0  0  0  0  0  0  0  0  0  0  0
   29.8760   36.5380    9.8270 C   0  0  0  0  0  0  0  0  0  0  0  0
   29.0620   35.9440   10.9610 C   0  0  0  0  0  0  0  0  0  0  0  0
   29.3320   36.6510   12.2430 N   0  0  0  0  0  0  0  0  0  0  0  0
  1  2  1  0  0  0  0
  3  4  1  0  0  0  0
  3  2  1  0  0  0  0
  4  5  1  0  0  0  0
  5  6  1  0  0  0  0
M  END
>  <EGIN_R>
ES LYS A 135

>  <REMARK>
  4 active torsions:
  status: ('A' for Active; 'I' for Inactive)
    5  A    between atoms: CA   and  CB  
    6  A    between atoms: CB   and  CG  
    7  A    between atoms: CG   and  CD  
    8  A    between atoms: CD   and  CE  

$$$$
