ligand_16_pose_5_2HRL.pdbqt
 OpenBabel07062320523D

 54 55  0  0  1  0  0  0  0  0999 V2000
   26.3270   28.0250   18.3250 N   0  0  0  0  0  0  0  0  0  0  0  0
   25.4330   28.8800   17.6580 C   0  0  0  0  0  0  0  0  0  0  0  0
   24.5530   29.4780   18.2990 O   0  0  0  0  0  0  0  0  0  0  0  0
   27.0480   27.5470   17.7030 H   0  0  0  0  0  0  0  0  0  0  0  0
   26.3030   27.7860   19.7440 C   0  0  0  0  0  0  0  0  0  0  0  0
   27.7140   27.6830   20.2600 C   0  0  2  0  0  0  0  0  0  0  0  0
   28.4540   28.9830   20.2780 C   0  0  1  0  0  0  0  0  0  0  0  0
   29.8060   28.8170   20.9950 C   0  0  2  0  0  0  0  0  0  0  0  0
   30.7000   27.6600   22.7860 C   0  0  2  0  0  0  0  0  0  0  0  0
   30.8680   28.9010   23.6490 C   0  0  0  0  0  0  0  0  0  0  0  0
   29.6060   27.8780   21.9850 O   0  0  0  0  0  0  0  0  0  0  0  0
   31.0350   30.1130   22.7900 C   0  0  1  0  0  0  0  0  0  0  0  0
   30.1300   30.1400   21.5900 C   0  0  1  0  0  0  0  0  0  0  0  0
   30.3380   26.6440   23.7170 O   0  0  0  0  0  0  0  0  0  0  0  0
   29.4410   26.2820   23.4350 H   0  0  0  0  0  0  0  0  0  0  0  0
   31.9440   27.2900   22.1050 C   0  0  0  0  0  0  0  0  0  0  0  0
   31.8760   26.6770   20.9850 O   0  0  0  0  0  0  0  0  0  0  0  0
   33.2290   27.5330   22.5480 O   0  0  0  0  0  0  0  0  0  0  0  0
   33.3550   27.6720   23.5420 H   0  0  0  0  0  0  0  0  0  0  0  0
   30.6890   31.2280   23.5900 O   0  0  0  0  0  0  0  0  0  0  0  0
   30.8330   30.9410   24.5250 H   0  0  0  0  0  0  0  0  0  0  0  0
   30.6400   31.0940   20.6270 N   0  0  0  0  0  0  0  0  0  0  0  0
   30.1650   32.4280   20.5660 C   0  0  0  0  0  0  0  0  0  0  0  0
   31.3800   30.8240   19.9440 H   0  0  0  0  0  0  0  0  0  0  0  0
   30.7100   33.4050   19.5550 C   0  0  0  0  0  0  0  0  0  0  0  0
   29.2820   32.7860   21.3680 O   0  0  0  0  0  0  0  0  0  0  0  0
   28.6020   29.5830   19.0510 O   0  0  0  0  0  0  0  0  0  0  0  0
   29.4810   30.0390   19.0010 H   0  0  0  0  0  0  0  0  0  0  0  0
   28.4620   26.7210   19.5700 O   0  0  0  0  0  0  0  0  0  0  0  0
   29.3930   27.0630   19.4440 H   0  0  0  0  0  0  0  0  0  0  0  0
   25.4720   29.1060   16.2880 O   0  0  0  0  0  0  0  0  0  0  0  0
   25.6510   30.3730   15.7060 C   0  0  0  0  0  0  0  0  0  0  0  0
   26.9130   30.9730   16.1870 C   0  0  0  0  0  0  0  0  0  0  0  0
   28.1900   30.6490   15.7270 C   0  0  0  0  0  0  0  0  0  0  0  0
   27.1250   31.9120   17.1300 N   0  0  0  0  0  0  0  0  0  0  0  0
   29.0890   31.3850   16.3910 N   0  0  0  0  0  0  0  0  0  0  0  0
   28.4220   32.1380   17.2320 N   0  0  0  0  0  0  0  0  0  0  0  0
   30.5490   31.3450   16.2190 C   0  0  0  0  0  0  0  0  0  0  0  0
   30.9070   32.6480   15.5730 C   0  0  0  0  0  0  0  0  0  0  0  0
   30.2630   33.0290   14.4300 C   0  0  0  0  0  0  0  0  0  0  0  0
   31.8720   33.4710   16.0980 C   0  0  0  0  0  0  0  0  0  0  0  0
   30.5780   34.2380   13.8000 C   0  0  0  0  0  0  0  0  0  0  0  0
   32.1860   34.6730   15.4720 C   0  0  0  0  0  0  0  0  0  0  0  0
   31.5430   35.0690   14.3170 C   0  0  0  0  0  0  0  0  0  0  0  0
   31.8780   36.3310   13.6720 C   0  0  0  0  0  0  0  0  0  0  0  0
   31.6960   37.4430   14.2140 O   0  0  0  0  0  0  0  0  0  0  0  0
   32.4270   36.3160   12.3940 O   0  0  0  0  0  0  0  0  0  0  0  0
   32.9340   35.5190   12.0520 H   0  0  0  0  0  0  0  0  0  0  0  0
   29.8670   25.5550   16.9770 C   0  0  0  0  0  0  0  0  0  0  0  0
   28.3450   25.7220   17.0260 C   0  0  0  0  0  0  0  0  0  0  0  0
   27.6000   24.4080   16.8470 C   0  0  0  0  0  0  0  0  0  0  0  0
   26.5360   24.2130   17.8910 C   0  0  0  0  0  0  0  0  0  0  0  0
   25.1640   24.4540   17.2700 C   0  0  0  0  0  0  0  0  0  0  0  0
   24.3850   23.1940   17.2290 N   0  0  0  0  0  0  0  0  0  0  0  0
  1  5  1  0  0  0  0
  2  3  2  0  0  0  0
  2  1  1  0  0  0  0
  4  1  1  0  0  0  0
  6  5  1  6  0  0  0
  6  7  1  0  0  0  0
  7 27  1  6  0  0  0
  8  7  1  1  0  0  0
  8 13  1  0  0  0  0
  8 11  1  0  0  0  0
  9 16  1  6  0  0  0
  9 10  1  0  0  0  0
  9 14  1  0  0  0  0
 11  9  1  0  0  0  0
 12 20  1  1  0  0  0
 12 10  1  0  0  0  0
 13 22  1  6  0  0  0
 13 12  1  0  0  0  0
 15 14  1  0  0  0  0
 16 18  1  0  0  0  0
 17 16  2  0  0  0  0
 18 19  1  0  0  0  0
 20 21  1  0  0  0  0
 23 22  1  0  0  0  0
 23 26  2  0  0  0  0
 24 22  1  0  0  0  0
 25 23  1  0  0  0  0
 28 27  1  0  0  0  0
 29  6  1  0  0  0  0
 30 29  1  0  0  0  0
 31  2  1  0  0  0  0
 32 33  1  0  0  0  0
 32 31  1  0  0  0  0
 33 35  1  0  0  0  0
 34 33  2  0  0  0  0
 34 36  1  0  0  0  0
 35 37  2  0  0  0  0
 36 37  1  0  0  0  0
 38 36  1  0  0  0  0
 39 41  1  0  0  0  0
 39 38  1  0  0  0  0
 40 39  2  0  0  0  0
 42 44  2  0  0  0  0
 42 40  1  0  0  0  0
 43 41  2  0  0  0  0
 44 43  1  0  0  0  0
 45 46  2  0  0  0  0
 45 44  1  0  0  0  0
 47 45  1  0  0  0  0
 48 47  1  0  0  0  0
 49 50  1  0  0  0  0
 51 50  1  0  0  0  0
 51 52  1  0  0  0  0
 53 52  1  0  0  0  0
 54 53  1  0  0  0  0
M  END
>  <REMARK>
 VINA RESULT:    -6.016      1.669      2.660
 INTER + INTRA:         -15.285
 INTER:                  -9.356
 INTRA:                  -5.929
 UNBOUND:                -3.993
 SMILES CC(=O)N[C@@H]1[C@@H](O)C[C@](O)(C(=O)O)O[C@H]1C(O)[C@H](O)CNC(=O)OCc1cn(Cc2ccc(C(=O)O)cc2)nn1
 SMILES IDX 21 1 22 2 23 3 20 5 18 6 16 7 15 8 9 9 8 10 14 11 6 12 5 13
 SMILES IDX 10 14 11 16 12 17 13 18 7 20 4 22 2 23 1 25 3 26 17 27 19 29
 SMILES IDX 24 31 25 32 26 33 27 34 40 35 28 36 39 37 29 38 30 39 31 40
 SMILES IDX 38 41 32 42 37 43 33 44 34 45 35 46 36 47
 H PARENT 21 4 10 15 13 19 7 21 4 24 17 28 19 30 36 48
 Flexibility Score: inf
  4 active torsions:
  status: ('A' for Active; 'I' for Inactive)
    1  A    between atoms: CA   and  CB  
    2  A    between atoms: CB   and  CG  
    3  A    between atoms: CG   and  CD  
    4  A    between atoms: CD   and  CE  

>  <TORSDO>
F 18

>  <BEGIN_>
RES LYS A 131

$$$$
ligand_16_pose_5_2HRL.pdbqt
 OpenBabel07062320523D

  6  5  0  0  0  0  0  0  0  0999 V2000
   33.1930   34.6630    9.2900 C   0  0  0  0  0  0  0  0  0  0  0  0
   32.0600   35.3600   10.0340 C   0  0  0  0  0  0  0  0  0  0  0  0
   30.7790   35.4380    9.2440 C   0  0  0  0  0  0  0  0  0  0  0  0
   30.2120   34.0470    9.0030 C   0  0  0  0  0  0  0  0  0  0  0  0
   28.7150   34.0330    9.2420 C   0  0  0  0  0  0  0  0  0  0  0  0
   28.3930   34.3960   10.6500 N   0  0  0  0  0  0  0  0  0  0  0  0
  1  2  1  0  0  0  0
  3  2  1  0  0  0  0
  4  5  1  0  0  0  0
  4  3  1  0  0  0  0
  5  6  1  0  0  0  0
M  END
>  <EGIN_R>
ES LYS A 135

>  <REMARK>
  4 active torsions:
  status: ('A' for Active; 'I' for Inactive)
    5  A    between atoms: CA   and  CB  
    6  A    between atoms: CB   and  CG  
    7  A    between atoms: CG   and  CD  
    8  A    between atoms: CD   and  CE  

$$$$
