ligand_37_pose_17_2HRL.pdbqt
 OpenBabel07062320523D

 55 56  0  0  1  0  0  0  0  0999 V2000
   27.2270   30.5480   17.4250 O   0  0  0  0  0  0  0  0  0  0  0  0
   28.5190   30.8110   16.9130 C   0  0  0  0  0  0  0  0  0  0  0  0
   29.2570   31.9220   17.3730 N   0  0  0  0  0  0  0  0  0  0  0  0
   28.7640   32.5290   18.1010 H   0  0  0  0  0  0  0  0  0  0  0  0
   28.9310   30.0070   16.0550 O   0  0  0  0  0  0  0  0  0  0  0  0
   30.5720   32.2390   16.9150 C   0  0  0  0  0  0  0  0  0  0  0  0
   30.5550   33.0510   15.6630 C   0  0  2  0  0  0  0  0  0  0  0  0
   29.9380   34.4200   15.9370 C   0  0  2  0  0  0  0  0  0  0  0  0
   30.6720   35.5470   15.2800 C   0  0  2  0  0  0  0  0  0  0  0  0
   29.5170   35.5630   13.2420 C   0  0  2  0  0  0  0  0  0  0  0  0
   30.6700   34.8480   12.6140 C   0  0  0  0  0  0  0  0  0  0  0  0
   29.8340   36.2430   14.3920 O   0  0  0  0  0  0  0  0  0  0  0  0
   31.9610   35.4410   13.1380 C   0  0  1  0  0  0  0  0  0  0  0  0
   31.9730   35.1940   14.6380 C   0  0  1  0  0  0  0  0  0  0  0  0
   28.4670   34.6970   13.4410 O   0  0  0  0  0  0  0  0  0  0  0  0
   28.0060   34.8370   14.3140 H   0  0  0  0  0  0  0  0  0  0  0  0
   29.0410   36.6150   12.2710 C   0  0  0  0  0  0  0  0  0  0  0  0
   28.1390   36.3550   11.4350 O   0  0  0  0  0  0  0  0  0  0  0  0
   29.5710   37.8980   12.2590 O   0  0  0  0  0  0  0  0  0  0  0  0
   28.9670   38.7340   12.2220 H   0  0  0  0  0  0  0  0  0  0  0  0
   33.0530   34.8730   12.5110 O   0  0  0  0  0  0  0  0  0  0  0  0
   33.0500   35.0030   11.5300 H   0  0  0  0  0  0  0  0  0  0  0  0
   33.1110   35.9040   15.2300 N   0  0  0  0  0  0  0  0  0  0  0  0
   33.5070   35.7230   16.5890 C   0  0  0  0  0  0  0  0  0  0  0  0
   33.6810   36.5820   14.6600 H   0  0  0  0  0  0  0  0  0  0  0  0
   34.6770   36.4760   17.1360 C   0  0  0  0  0  0  0  0  0  0  0  0
   32.8690   34.9300   17.3190 O   0  0  0  0  0  0  0  0  0  0  0  0
   29.9380   34.6430   17.3200 O   0  0  0  0  0  0  0  0  0  0  0  0
   30.2320   33.8110   17.7810 H   0  0  0  0  0  0  0  0  0  0  0  0
   29.8100   32.3930   14.6850 O   0  0  0  0  0  0  0  0  0  0  0  0
   29.3380   33.0310   14.0740 H   0  0  0  0  0  0  0  0  0  0  0  0
   26.3020   31.6120   17.5050 C   0  0  0  0  0  0  0  0  0  0  0  0
   26.0190   32.2030   16.1830 C   0  0  0  0  0  0  0  0  0  0  0  0
   25.0460   31.8620   15.2740 C   0  0  0  0  0  0  0  0  0  0  0  0
   26.6950   33.2210   15.6240 N   0  0  0  0  0  0  0  0  0  0  0  0
   25.1510   32.6700   14.1930 N   0  0  0  0  0  0  0  0  0  0  0  0
   26.1490   33.4770   14.4300 N   0  0  0  0  0  0  0  0  0  0  0  0
   24.3110   32.6260   13.0250 C   0  0  1  0  0  0  0  0  0  0  0  0
   23.4210   31.4030   13.0690 C   0  0  0  0  0  0  0  0  0  0  0  0
   23.5520   33.8790   12.9210 C   0  0  0  0  0  0  0  0  0  0  0  0
   22.4490   33.9940   13.5330 O   0  0  0  0  0  0  0  0  0  0  0  0
   23.9890   34.9540   12.1760 O   0  0  0  0  0  0  0  0  0  0  0  0
   24.9540   34.9350   11.1720 C   0  0  0  0  0  0  0  0  0  0  0  0
   24.4620   35.7240   10.0080 C   0  0  0  0  0  0  0  0  0  0  0  0
   25.3360   36.4890    9.2670 C   0  0  0  0  0  0  0  0  0  0  0  0
   23.1380   35.6880    9.6660 C   0  0  0  0  0  0  0  0  0  0  0  0
   24.8880   37.2150    8.1910 C   0  0  0  0  0  0  0  0  0  0  0  0
   22.6640   36.4010    8.6000 C   0  0  0  0  0  0  0  0  0  0  0  0
   23.5400   37.1630    7.8650 C   0  0  0  0  0  0  0  0  0  0  0  0
   29.8670   25.5550   16.9770 C   0  0  0  0  0  0  0  0  0  0  0  0
   28.3450   25.7220   17.0260 C   0  0  0  0  0  0  0  0  0  0  0  0
   27.6010   24.4020   16.8940 C   0  0  0  0  0  0  0  0  0  0  0  0
   26.1490   24.5310   17.2610 C   0  0  0  0  0  0  0  0  0  0  0  0
   25.6430   23.2010   17.8110 C   0  0  0  0  0  0  0  0  0  0  0  0
   24.3480   22.8410   17.1880 N   0  0  0  0  0  0  0  0  0  0  0  0
  1 32  1  0  0  0  0
  2  3  1  0  0  0  0
  2  1  1  0  0  0  0
  3  4  1  0  0  0  0
  5  2  2  0  0  0  0
  6  3  1  0  0  0  0
  7  8  1  0  0  0  0
  7  6  1  1  0  0  0
  8 28  1  1  0  0  0
  9  8  1  6  0  0  0
 10 17  1  6  0  0  0
 10 15  1  0  0  0  0
 10 12  1  0  0  0  0
 11 13  1  0  0  0  0
 11 10  1  0  0  0  0
 12  9  1  0  0  0  0
 13 21  1  6  0  0  0
 13 14  1  0  0  0  0
 14 23  1  1  0  0  0
 14  9  1  0  0  0  0
 15 16  1  0  0  0  0
 18 17  2  0  0  0  0
 19 17  1  0  0  0  0
 20 19  1  0  0  0  0
 22 21  1  0  0  0  0
 23 24  1  0  0  0  0
 24 26  1  0  0  0  0
 24 27  2  0  0  0  0
 25 23  1  0  0  0  0
 28 29  1  0  0  0  0
 30  7  1  0  0  0  0
 31 30  1  0  0  0  0
 33 32  1  0  0  0  0
 34 33  2  0  0  0  0
 35 33  1  0  0  0  0
 36 37  1  0  0  0  0
 36 34  1  0  0  0  0
 37 35  2  0  0  0  0
 38 39  1  1  0  0  0
 38 36  1  0  0  0  0
 40 38  1  0  0  0  0
 40 41  2  0  0  0  0
 42 40  1  0  0  0  0
 43 42  1  0  0  0  0
 44 43  1  0  0  0  0
 45 44  2  0  0  0  0
 46 44  1  0  0  0  0
 47 45  1  0  0  0  0
 48 46  2  0  0  0  0
 49 47  2  0  0  0  0
 49 48  1  0  0  0  0
 50 51  1  0  0  0  0
 52 51  1  0  0  0  0
 52 53  1  0  0  0  0
 53 54  1  0  0  0  0
 55 54  1  0  0  0  0
M  END
>  <REMARK>
 VINA RESULT:    -5.369      4.755      9.747
 INTER + INTRA:         -15.657
 INTER:                  -9.170
 INTRA:                  -6.487
 UNBOUND:                -5.110
 SMILES CC(=O)N[C@@H]1[C@@H](O)C[C@](O)(C(=O)O)O[C@H]1C(O)[C@H](O)CNC(=O)OCc1cn([C@@H](C)C(=O)OCc2ccccc2)nn1
 SMILES IDX 24 1 22 2 21 3 23 5 20 6 18 7 16 8 15 9 9 10 8 11 14 12 6 13
 SMILES IDX 5 14 10 15 11 17 12 18 13 19 7 21 4 23 2 24 1 26 3 27 17 28
 SMILES IDX 19 30 25 32 26 33 27 34 42 35 28 36 41 37 29 38 30 39 31 40
 SMILES IDX 32 41 33 42 34 43 35 44 36 45 40 46 37 47 39 48 38 49
 H PARENT 21 4 10 16 13 20 7 22 4 25 17 29 19 31
 Flexibility Score: inf
  4 active torsions:
  status: ('A' for Active; 'I' for Inactive)
    1  A    between atoms: CA   and  CB  
    2  A    between atoms: CB   and  CG  
    3  A    between atoms: CG   and  CD  
    4  A    between atoms: CD   and  CE  

>  <TORSDO>
F 19

>  <BEGIN_>
RES LYS A 131

$$$$
ligand_37_pose_17_2HRL.pdbqt
 OpenBabel07062320523D

  6  5  0  0  0  0  0  0  0  0999 V2000
   33.1930   34.6630    9.2900 C   0  0  0  0  0  0  0  0  0  0  0  0
   32.0600   35.3600   10.0340 C   0  0  0  0  0  0  0  0  0  0  0  0
   30.8440   35.6120    9.1800 C   0  0  0  0  0  0  0  0  0  0  0  0
   30.2190   34.2990    8.7350 C   0  0  0  0  0  0  0  0  0  0  0  0
   28.7370   34.4780    8.4690 C   0  0  0  0  0  0  0  0  0  0  0  0
   27.9200   33.6860    9.4300 N   0  0  0  0  0  0  0  0  0  0  0  0
  1  2  1  0  0  0  0
  3  2  1  0  0  0  0
  4  3  1  0  0  0  0
  5  4  1  0  0  0  0
  5  6  1  0  0  0  0
M  END
>  <EGIN_R>
ES LYS A 135

>  <REMARK>
  4 active torsions:
  status: ('A' for Active; 'I' for Inactive)
    5  A    between atoms: CA   and  CB  
    6  A    between atoms: CB   and  CG  
    7  A    between atoms: CG   and  CD  
    8  A    between atoms: CD   and  CE  

$$$$
