ligand_8_pose_7_2HRL.pdbqt
 OpenBabel07062320523D

 50 51  0  0  1  0  0  0  0  0999 V2000
   30.8210   32.1880   17.0740 C   0  0  0  0  0  0  0  0  0  0  0  0
   30.9870   32.9770   15.8010 C   0  0  2  0  0  0  0  0  0  0  0  0
   29.8320   33.9230   15.6890 C   0  0  1  0  0  0  0  0  0  0  0  0
   30.1500   35.2790   15.1030 C   0  0  2  0  0  0  0  0  0  0  0  0
   29.6170   35.2720   12.8200 C   0  0  2  0  0  0  0  0  0  0  0  0
   30.6520   36.3630   12.5450 C   0  0  0  0  0  0  0  0  0  0  0  0
   29.2110   35.4700   14.0970 O   0  0  0  0  0  0  0  0  0  0  0  0
   31.8570   35.9840   13.3560 C   0  0  1  0  0  0  0  0  0  0  0  0
   31.5540   35.5210   14.7570 C   0  0  1  0  0  0  0  0  0  0  0  0
   30.2150   34.0720   12.5290 O   0  0  0  0  0  0  0  0  0  0  0  0
   29.6330   33.5930   11.8890 H   0  0  0  0  0  0  0  0  0  0  0  0
   28.4620   35.4580   11.8980 C   0  0  0  0  0  0  0  0  0  0  0  0
   27.7010   34.4850   11.6710 O   0  0  0  0  0  0  0  0  0  0  0  0
   28.2090   36.6800   11.2860 O   0  0  0  0  0  0  0  0  0  0  0  0
   27.8120   36.7640   10.3540 H   0  0  0  0  0  0  0  0  0  0  0  0
   32.4980   34.9610   12.6560 O   0  0  0  0  0  0  0  0  0  0  0  0
   32.2160   34.9310   11.7250 H   0  0  0  0  0  0  0  0  0  0  0  0
   32.0970   36.5230   15.6990 N   0  0  0  0  0  0  0  0  0  0  0  0
   33.4170   36.4300   16.1910 C   0  0  0  0  0  0  0  0  0  0  0  0
   31.4940   37.3340   16.0190 H   0  0  0  0  0  0  0  0  0  0  0  0
   33.9720   37.4390   17.1560 C   0  0  0  0  0  0  0  0  0  0  0  0
   34.1290   35.4700   15.8010 O   0  0  0  0  0  0  0  0  0  0  0  0
   28.7390   33.2950   15.1500 O   0  0  0  0  0  0  0  0  0  0  0  0
   28.2800   32.6850   15.8030 H   0  0  0  0  0  0  0  0  0  0  0  0
   31.0370   32.1320   14.7220 O   0  0  0  0  0  0  0  0  0  0  0  0
   31.3730   32.5770   13.8970 H   0  0  0  0  0  0  0  0  0  0  0  0
   29.8660   31.1330   17.0550 N   0  0  0  0  0  0  0  0  0  0  0  0
   29.0710   30.7590   18.1600 C   0  0  0  0  0  0  0  0  0  0  0  0
   29.7140   30.5600   16.1600 H   0  0  0  0  0  0  0  0  0  0  0  0
   29.1380   31.3180   19.2800 O   0  0  0  0  0  0  0  0  0  0  0  0
   28.1570   29.7070   18.0010 O   0  0  0  0  0  0  0  0  0  0  0  0
   26.7880   30.0120   18.1370 C   0  0  0  0  0  0  0  0  0  0  0  0
   26.2880   30.4700   16.8180 C   0  0  0  0  0  0  0  0  0  0  0  0
   25.1040   30.0200   16.2190 C   0  0  0  0  0  0  0  0  0  0  0  0
   26.7830   31.3430   15.9330 N   0  0  0  0  0  0  0  0  0  0  0  0
   24.9350   30.6210   15.0290 N   0  0  0  0  0  0  0  0  0  0  0  0
   25.9750   31.4230   14.8800 N   0  0  0  0  0  0  0  0  0  0  0  0
   23.8470   30.4190   14.1270 C   0  0  0  0  0  0  0  0  0  0  0  0
   23.7780   29.3110   13.3110 C   0  0  0  0  0  0  0  0  0  0  0  0
   22.8170   31.3310   14.0390 C   0  0  0  0  0  0  0  0  0  0  0  0
   22.7060   29.1290   12.4350 C   0  0  0  0  0  0  0  0  0  0  0  0
   21.7520   31.1540   13.1710 C   0  0  0  0  0  0  0  0  0  0  0  0
   22.9040   32.8790   15.1710 Br  0  0  0  0  0  0  0  0  0  0  0  0
   21.6790   30.0460   12.3530 C   0  0  0  0  0  0  0  0  0  0  0  0
   29.8670   25.5550   16.9770 C   0  0  0  0  0  0  0  0  0  0  0  0
   28.3450   25.7220   17.0260 C   0  0  0  0  0  0  0  0  0  0  0  0
   27.6010   24.4030   16.8870 C   0  0  0  0  0  0  0  0  0  0  0  0
   26.1570   24.5220   17.2880 C   0  0  0  0  0  0  0  0  0  0  0  0
   25.7980   23.3850   18.2400 C   0  0  0  0  0  0  0  0  0  0  0  0
   24.8970   22.4150   17.5730 N   0  0  0  0  0  0  0  0  0  0  0  0
  2  1  1  1  0  0  0
  3 23  1  6  0  0  0
  3  2  1  0  0  0  0
  4  3  1  6  0  0  0
  5 12  1  6  0  0  0
  5  7  1  0  0  0  0
  6  5  1  0  0  0  0
  6  8  1  0  0  0  0
  7  4  1  0  0  0  0
  8 16  1  6  0  0  0
  8  9  1  0  0  0  0
  9  4  1  0  0  0  0
  9 18  1  1  0  0  0
 10  5  1  0  0  0  0
 11 10  1  0  0  0  0
 13 12  2  0  0  0  0
 14 12  1  0  0  0  0
 15 14  1  0  0  0  0
 17 16  1  0  0  0  0
 18 20  1  0  0  0  0
 18 19  1  0  0  0  0
 19 21  1  0  0  0  0
 22 19  2  0  0  0  0
 23 24  1  0  0  0  0
 25  2  1  0  0  0  0
 26 25  1  0  0  0  0
 27  1  1  0  0  0  0
 27 28  1  0  0  0  0
 28 30  2  0  0  0  0
 29 27  1  0  0  0  0
 31 32  1  0  0  0  0
 31 28  1  0  0  0  0
 33 32  1  0  0  0  0
 34 33  2  0  0  0  0
 35 33  1  0  0  0  0
 36 34  1  0  0  0  0
 37 36  1  0  0  0  0
 37 35  2  0  0  0  0
 38 36  1  0  0  0  0
 39 38  2  0  0  0  0
 40 38  1  0  0  0  0
 40 43  1  0  0  0  0
 41 39  1  0  0  0  0
 42 40  2  0  0  0  0
 44 41  2  0  0  0  0
 44 42  1  0  0  0  0
 45 46  1  0  0  0  0
 47 46  1  0  0  0  0
 47 48  1  0  0  0  0
 48 49  1  0  0  0  0
 50 49  1  0  0  0  0
M  END
>  <REMARK>
 VINA RESULT:    -5.684      3.831      7.771
 INTER + INTRA:         -14.234
 INTER:                  -8.786
 INTRA:                  -5.448
 UNBOUND:                -4.396
 SMILES CC(=O)N[C@@H]1[C@@H](O)C[C@](O)(C(=O)O)O[C@H]1C(O)[C@H](O)CNC(=O)OCc1cn(-c2ccccc2Br)nn1
 SMILES IDX 20 1 18 2 16 3 15 4 9 5 8 6 14 7 6 8 5 9 10 10 11 12 12 13
 SMILES IDX 13 14 7 16 4 18 2 19 1 21 3 22 17 23 19 25 21 27 22 28 23 30
 SMILES IDX 24 31 25 32 26 33 27 34 37 35 28 36 36 37 29 38 30 39 34 40
 SMILES IDX 31 41 33 42 35 43 32 44
 H PARENT 10 11 13 15 7 17 4 20 17 24 19 26 21 29
 Flexibility Score: inf
  4 active torsions:
  status: ('A' for Active; 'I' for Inactive)
    1  A    between atoms: CA   and  CB  
    2  A    between atoms: CB   and  CG  
    3  A    between atoms: CG   and  CD  
    4  A    between atoms: CD   and  CE  

>  <TORSDO>
F 15

>  <BEGIN_>
RES LYS A 131

$$$$
ligand_8_pose_7_2HRL.pdbqt
 OpenBabel07062320523D

  6  5  0  0  0  0  0  0  0  0999 V2000
   33.1930   34.6630    9.2900 C   0  0  0  0  0  0  0  0  0  0  0  0
   32.0600   35.3600   10.0340 C   0  0  0  0  0  0  0  0  0  0  0  0
   30.8910   35.7170    9.1530 C   0  0  0  0  0  0  0  0  0  0  0  0
   30.3810   34.4900    8.4140 C   0  0  0  0  0  0  0  0  0  0  0  0
   28.8670   34.5150    8.3210 C   0  0  0  0  0  0  0  0  0  0  0  0
   28.4150   35.3030    7.1410 N   0  0  0  0  0  0  0  0  0  0  0  0
  1  2  1  0  0  0  0
  3  2  1  0  0  0  0
  4  3  1  0  0  0  0
  5  4  1  0  0  0  0
  6  5  1  0  0  0  0
M  END
>  <EGIN_R>
ES LYS A 135

>  <REMARK>
  4 active torsions:
  status: ('A' for Active; 'I' for Inactive)
    5  A    between atoms: CA   and  CB  
    6  A    between atoms: CB   and  CG  
    7  A    between atoms: CG   and  CD  
    8  A    between atoms: CD   and  CE  

$$$$
