ligand_69_pose_17_2HRL.pdbqt
 OpenBabel07062320523D

 54 51  0  0  1  0  0  0  0  0999 V2000
   30.4450   33.4380   14.5680 N   0  0  0  0  0  0  0  0  0  0  0  0
   30.1370   34.6730   13.9220 C   0  0  0  0  0  0  0  0  0  0  0  0
   30.8220   35.7160   14.0830 O   0  0  0  0  0  0  0  0  0  0  0  0
   29.8590   32.5890   14.4160 H   0  0  0  0  0  0  0  0  0  0  0  0
   31.6190   33.4480   15.4420 C   0  0  0  0  0  0  0  0  0  0  0  0
   31.1190   33.1220   16.8370 C   0  0  2  0  0  0  0  0  0  0  0  0
   30.1290   31.9790   16.8490 C   0  0  2  0  0  0  0  0  0  0  0  0
   29.7980   31.5250   18.2350 C   0  0  2  0  0  0  0  0  0  0  0  0
   30.3280   30.2170   20.0260 C   0  0  2  0  0  0  0  0  0  0  0  0
   29.1790   31.0100   20.6100 C   0  0  0  0  0  0  0  0  0  0  0  0
   30.7570   30.7350   18.8100 O   0  0  0  0  0  0  0  0  0  0  0  0
   27.9640   30.9920   19.7050 C   0  0  1  0  0  0  0  0  0  0  0  0
   28.4740   30.7950   18.3060 C   0  0  1  0  0  0  0  0  0  0  0  0
   30.0170   28.8650   19.9380 O   0  0  0  0  0  0  0  0  0  0  0  0
   30.1460   28.3960   20.8050 H   0  0  0  0  0  0  0  0  0  0  0  0
   31.4620   30.3560   20.9710 C   0  0  0  0  0  0  0  0  0  0  0  0
   32.4820   29.6160   20.9210 O   0  0  0  0  0  0  0  0  0  0  0  0
   31.4110   31.3280   21.9450 O   0  0  0  0  0  0  0  0  0  0  0  0
   30.6010   31.9100   22.1350 H   0  0  0  0  0  0  0  0  0  0  0  0
   27.1330   29.9880   20.1430 O   0  0  0  0  0  0  0  0  0  0  0  0
   27.4590   29.7070   21.0540 H   0  0  0  0  0  0  0  0  0  0  0  0
   27.5720   31.1480   17.2740 N   0  0  0  0  0  0  0  0  0  0  0  0
   26.8830   30.2370   16.4290 C   0  0  0  0  0  0  0  0  0  0  0  0
   27.3880   32.1610   17.1080 H   0  0  0  0  0  0  0  0  0  0  0  0
   25.9490   30.7110   15.3640 C   0  0  0  0  0  0  0  0  0  0  0  0
   27.0870   29.0200   16.6070 O   0  0  0  0  0  0  0  0  0  0  0  0
   30.4970   30.9740   15.9890 O   0  0  0  0  0  0  0  0  0  0  0  0
   31.3410   30.5820   16.3060 H   0  0  0  0  0  0  0  0  0  0  0  0
   30.4120   34.2360   17.3470 O   0  0  0  0  0  0  0  0  0  0  0  0
   30.4260   34.2390   18.3460 H   0  0  0  0  0  0  0  0  0  0  0  0
   29.0510   34.7450   13.0840 O   0  0  0  0  0  0  0  0  0  0  0  0
   27.7520   35.1350   13.4950 C   0  0  0  0  0  0  0  0  0  0  0  0
   26.8960   35.2620   12.2930 C   0  0  0  0  0  0  0  0  0  0  0  0
   25.8410   36.1150   12.0600 C   0  0  0  0  0  0  0  0  0  0  0  0
   27.0340   34.5140   11.1810 N   0  0  0  0  0  0  0  0  0  0  0  0
   25.3650   35.8700   10.8250 N   0  0  0  0  0  0  0  0  0  0  0  0
   26.1190   34.8890   10.3250 N   0  0  0  0  0  0  0  0  0  0  0  0
   24.2440   36.5540   10.1770 C   0  0  2  0  0  0  0  0  0  0  0  0
   23.5190   35.5480    9.3480 C   0  0  0  0  0  0  0  0  0  0  0  0
   22.1710   35.9740    8.8850 *   0  0  0  0  0  0  0  0  0  0  0  0
   21.3490   34.8780    8.5370 O   0  0  0  0  0  0  0  0  0  0  0  0
   20.4680   35.0080    8.9480 H   0  0  0  0  0  0  0  0  0  0  0  0
   24.7980   37.7040    9.4090 C   0  0  0  0  0  0  0  0  0  0  0  0
   24.6820   37.5720    7.9200 C   0  0  1  0  0  0  0  0  0  0  0  0
   23.2930   37.6700    7.4210 C   0  0  0  0  0  0  0  0  0  0  0  0
   22.2360   37.0010    7.8230 *   0  0  0  0  0  0  0  0  0  0  0  0
   25.5270   38.4460    7.2380 O   0  0  0  0  0  0  0  0  0  0  0  0
   26.4790   38.2590    7.4330 H   0  0  0  0  0  0  0  0  0  0  0  0
   29.8670   25.5550   16.9770 C   0  0  0  0  0  0  0  0  0  0  0  0
   28.3450   25.7220   17.0260 C   0  0  0  0  0  0  0  0  0  0  0  0
   27.6020   24.3980   16.9340 C   0  0  0  0  0  0  0  0  0  0  0  0
   26.5160   24.2850   17.9680 C   0  0  0  0  0  0  0  0  0  0  0  0
   25.1540   24.3670   17.2850 C   0  0  0  0  0  0  0  0  0  0  0  0
   24.3650   23.1410   17.5520 N   0  0  0  0  0  0  0  0  0  0  0  0
  1  5  1  0  0  0  0
  2  3  2  0  0  0  0
  2  1  1  0  0  0  0
  4  1  1  0  0  0  0
  6  5  1  6  0  0  0
  6  7  1  0  0  0  0
  6 29  1  0  0  0  0
  7 27  1  6  0  0  0
  8  7  1  6  0  0  0
  8 13  1  0  0  0  0
  8 11  1  0  0  0  0
  9 14  1  6  0  0  0
  9 10  1  0  0  0  0
  9 16  1  0  0  0  0
 11  9  1  0  0  0  0
 12 20  1  1  0  0  0
 12 10  1  0  0  0  0
 13 22  1  6  0  0  0
 13 12  1  0  0  0  0
 14 15  1  0  0  0  0
 16 18  1  0  0  0  0
 17 16  2  0  0  0  0
 18 19  1  0  0  0  0
 20 21  1  0  0  0  0
 23 26  2  0  0  0  0
 23 22  1  0  0  0  0
 24 22  1  0  0  0  0
 25 23  1  0  0  0  0
 27 28  1  0  0  0  0
 29 30  1  0  0  0  0
 31 32  1  0  0  0  0
 31  2  1  0  0  0  0
 33 32  1  0  0  0  0
 34 33  2  0  0  0  0
 35 33  1  0  0  0  0
 36 34  1  0  0  0  0
 37 36  1  0  0  0  0
 37 35  2  0  0  0  0
 38 39  1  6  0  0  0
 38 36  1  0  0  0  0
 41 42  1  0  0  0  0
 43 38  1  0  0  0  0
 44 45  1  6  0  0  0
 44 43  1  0  0  0  0
 47 48  1  0  0  0  0
 47 44  1  0  0  0  0
 49 50  1  0  0  0  0
 51 50  1  0  0  0  0
 51 52  1  0  0  0  0
 53 54  1  0  0  0  0
 53 52  1  0  0  0  0
M  END
>  <REMARK>
 VINA RESULT:    -7.536      3.045      5.768
 INTER + INTRA:         -12.655
 INTER:                  -8.718
 INTRA:                  -3.937
 UNBOUND:                 3.032
 SMILES CC(=O)N[C@@H]1[C@@H](O)C[C@](O)(C(=O)O)O[C@H]1C(O)[C@H](O)CNC(=O)OCc1cn(C2CC(O)C=C[C@@H](O)C2)nn1
 SMILES IDX 21 1 22 2 23 3 20 5 18 6 16 7 15 8 9 9 8 10 14 11 6 12 5 13
 SMILES IDX 10 14 11 16 12 17 13 18 7 20 4 22 2 23 1 25 3 26 17 27 19 29
 SMILES IDX 24 31 25 32 26 33 27 34 39 35 28 36 38 37 29 38 30 39 31 40
 SMILES IDX 32 42 37 44 35 45 34 46 33 47 36 49
 H PARENT 21 4 10 15 13 19 7 21 4 24 17 28 19 30 32 43 36 50
 Flexibility Score: 90.00
  4 active torsions:
  status: ('A' for Active; 'I' for Inactive)
    1  A    between atoms: CA   and  CB  
    2  A    between atoms: CB   and  CG  
    3  A    between atoms: CG   and  CD  
    4  A    between atoms: CD   and  CE  

>  <TORSDO>
F 17

>  <BEGIN_>
RES LYS A 131

$$$$
ligand_69_pose_17_2HRL.pdbqt
 OpenBabel07062320523D

  6  5  0  0  0  0  0  0  0  0999 V2000
   33.1930   34.6630    9.2900 C   0  0  0  0  0  0  0  0  0  0  0  0
   32.0600   35.3600   10.0340 C   0  0  0  0  0  0  0  0  0  0  0  0
   30.6980   34.7940    9.7240 C   0  0  0  0  0  0  0  0  0  0  0  0
   30.4210   34.8510    8.2300 C   0  0  0  0  0  0  0  0  0  0  0  0
   29.1650   35.6550    7.9510 C   0  0  0  0  0  0  0  0  0  0  0  0
   28.8210   35.6270    6.5030 N   0  0  0  0  0  0  0  0  0  0  0  0
  1  2  1  0  0  0  0
  3  2  1  0  0  0  0
  4  3  1  0  0  0  0
  5  4  1  0  0  0  0
  6  5  1  0  0  0  0
M  END
>  <EGIN_R>
ES LYS A 135

>  <REMARK>
  4 active torsions:
  status: ('A' for Active; 'I' for Inactive)
    5  A    between atoms: CA   and  CB  
    6  A    between atoms: CB   and  CG  
    7  A    between atoms: CG   and  CD  
    8  A    between atoms: CD   and  CE  

$$$$
