ligand_27_pose_1_2HRL.pdbqt
 OpenBabel07062320523D

 50 50  0  0  1  0  0  0  0  0999 V2000
   30.9150   28.0630   22.3170 C   0  0  0  0  0  0  0  0  0  0  0  0
   30.3510   27.8300   20.9460 C   0  0  2  0  0  0  0  0  0  0  0  0
   29.4020   28.9070   20.5070 C   0  0  2  0  0  0  0  0  0  0  0  0
   28.1540   28.3030   19.8580 C   0  0  2  0  0  0  0  0  0  0  0  0
   27.3460   29.6110   18.0790 C   0  0  1  0  0  0  0  0  0  0  0  0
   25.9430   29.4810   18.6570 C   0  0  0  0  0  0  0  0  0  0  0  0
   28.1480   28.6360   18.5630 O   0  0  0  0  0  0  0  0  0  0  0  0
   26.1320   29.7810   20.1430 C   0  0  1  0  0  0  0  0  0  0  0  0
   26.9800   28.6690   20.6960 C   0  0  1  0  0  0  0  0  0  0  0  0
   27.7620   30.9020   18.3760 O   0  0  0  0  0  0  0  0  0  0  0  0
   27.7730   31.4280   17.5400 H   0  0  0  0  0  0  0  0  0  0  0  0
   27.2810   29.4700   16.6050 C   0  0  0  0  0  0  0  0  0  0  0  0
   26.1700   29.5620   16.0340 O   0  0  0  0  0  0  0  0  0  0  0  0
   28.4030   29.2410   15.8220 O   0  0  0  0  0  0  0  0  0  0  0  0
   28.5930   28.2790   15.5200 H   0  0  0  0  0  0  0  0  0  0  0  0
   26.8120   30.9780   20.3390 O   0  0  0  0  0  0  0  0  0  0  0  0
   27.4900   31.1490   19.6250 H   0  0  0  0  0  0  0  0  0  0  0  0
   26.1070   27.5310   20.8890 N   0  0  0  0  0  0  0  0  0  0  0  0
   26.3320   26.6490   21.9770 C   0  0  0  0  0  0  0  0  0  0  0  0
   25.2970   27.3370   20.2300 H   0  0  0  0  0  0  0  0  0  0  0  0
   25.4320   25.4830   22.1680 C   0  0  0  0  0  0  0  0  0  0  0  0
   27.2870   26.8610   22.7680 O   0  0  0  0  0  0  0  0  0  0  0  0
   30.0980   29.6810   19.5530 O   0  0  0  0  0  0  0  0  0  0  0  0
   30.6560   30.3450   19.9810 H   0  0  0  0  0  0  0  0  0  0  0  0
   29.6700   26.6000   20.9420 O   0  0  0  0  0  0  0  0  0  0  0  0
   30.2700   25.9090   21.2720 H   0  0  0  0  0  0  0  0  0  0  0  0
   30.9920   29.4950   22.5840 N   0  0  0  0  0  0  0  0  0  0  0  0
   32.2080   30.2010   22.4090 C   0  0  0  0  0  0  0  0  0  0  0  0
   30.1290   29.9770   22.9070 H   0  0  0  0  0  0  0  0  0  0  0  0
   33.2260   29.5770   22.0180 O   0  0  0  0  0  0  0  0  0  0  0  0
   32.3240   31.5600   22.6510 O   0  0  0  0  0  0  0  0  0  0  0  0
   31.1500   32.3410   22.6570 C   0  0  0  0  0  0  0  0  0  0  0  0
   30.7000   32.5610   21.2580 C   0  0  0  0  0  0  0  0  0  0  0  0
   31.5030   32.8470   20.1670 C   0  0  0  0  0  0  0  0  0  0  0  0
   29.4480   32.5320   20.7670 N   0  0  0  0  0  0  0  0  0  0  0  0
   30.7310   32.9800   19.0620 N   0  0  0  0  0  0  0  0  0  0  0  0
   29.4870   32.7820   19.4660 N   0  0  0  0  0  0  0  0  0  0  0  0
   31.1730   33.2730   17.7430 C   0  0  0  0  0  0  0  0  0  0  0  0
   30.8890   32.3870   16.7260 C   0  0  0  0  0  0  0  0  0  0  0  0
   31.8810   34.4110   17.4170 C   0  0  0  0  0  0  0  0  0  0  0  0
   31.2990   32.6290   15.4250 C   0  0  0  0  0  0  0  0  0  0  0  0
   32.3040   34.6830   16.1340 C   0  0  0  0  0  0  0  0  0  0  0  0
   32.0040   33.7760   15.1380 C   0  0  0  0  0  0  0  0  0  0  0  0
   33.2110   36.1570   15.7590 Cl  0  0  0  0  0  0  0  0  0  0  0  0
   29.8670   25.5550   16.9770 C   0  0  0  0  0  0  0  0  0  0  0  0
   28.3450   25.7220   17.0260 C   0  0  0  0  0  0  0  0  0  0  0  0
   27.6020   24.3970   16.9520 C   0  0  0  0  0  0  0  0  0  0  0  0
   26.1630   24.5300   17.3640 C   0  0  0  0  0  0  0  0  0  0  0  0
   25.9080   23.6860   18.6080 C   0  0  0  0  0  0  0  0  0  0  0  0
   24.7000   22.8480   18.4280 N   0  0  0  0  0  0  0  0  0  0  0  0
  1 27  1  0  0  0  0
  2  1  1  1  0  0  0
  3 23  1  6  0  0  0
  3  2  1  0  0  0  0
  4  3  1  1  0  0  0
  4  9  1  0  0  0  0
  5 12  1  6  0  0  0
  5  7  1  0  0  0  0
  5  6  1  0  0  0  0
  6  8  1  0  0  0  0
  7  4  1  0  0  0  0
  8 16  1  6  0  0  0
  8  9  1  0  0  0  0
  9 18  1  6  0  0  0
 11 10  1  0  0  0  0
 13 12  2  0  0  0  0
 14 12  1  0  0  0  0
 15 14  1  0  0  0  0
 17 16  1  0  0  0  0
 18 19  1  0  0  0  0
 19 21  1  0  0  0  0
 19 22  2  0  0  0  0
 20 18  1  0  0  0  0
 23 24  1  0  0  0  0
 25  2  1  0  0  0  0
 25 26  1  0  0  0  0
 27 29  1  0  0  0  0
 28 27  1  0  0  0  0
 28 31  1  0  0  0  0
 30 28  2  0  0  0  0
 31 32  1  0  0  0  0
 33 32  1  0  0  0  0
 34 33  2  0  0  0  0
 35 33  1  0  0  0  0
 36 37  1  0  0  0  0
 36 34  1  0  0  0  0
 37 35  2  0  0  0  0
 38 36  1  0  0  0  0
 39 38  2  0  0  0  0
 40 38  1  0  0  0  0
 41 39  1  0  0  0  0
 42 40  2  0  0  0  0
 43 41  2  0  0  0  0
 43 42  1  0  0  0  0
 44 42  1  0  0  0  0
 45 46  1  0  0  0  0
 47 46  1  0  0  0  0
 47 48  1  0  0  0  0
 48 49  1  0  0  0  0
 50 49  1  0  0  0  0
M  END
>  <REMARK>
 VINA RESULT:    -5.884      1.970      4.640
 INTER + INTRA:         -14.681
 INTER:                  -7.960
 INTRA:                  -6.721
 UNBOUND:                -4.497
 SMILES CC(=O)N[C@@H]1[C@@H](O)C[C@](O)(C(=O)O)O[C@H]1C(O)[C@H](O)CNC(=O)OCc1cn(-c2cccc(Cl)c2)nn1
 SMILES IDX 20 1 18 2 16 3 15 4 9 5 8 6 14 7 6 8 5 9 10 10 11 12 12 13
 SMILES IDX 13 14 7 16 4 18 2 19 1 21 3 22 17 23 19 25 21 27 22 28 23 30
 SMILES IDX 24 31 25 32 26 33 27 34 37 35 28 36 36 37 29 38 30 39 35 40
 SMILES IDX 31 41 33 42 32 43 34 44
 H PARENT 10 11 13 15 7 17 4 20 17 24 19 26 21 29
 Flexibility Score: inf
  4 active torsions:
  status: ('A' for Active; 'I' for Inactive)
    1  A    between atoms: CA   and  CB  
    2  A    between atoms: CB   and  CG  
    3  A    between atoms: CG   and  CD  
    4  A    between atoms: CD   and  CE  

>  <TORSDO>
F 15

>  <BEGIN_>
RES LYS A 131

$$$$
ligand_27_pose_1_2HRL.pdbqt
 OpenBabel07062320523D

  6  5  0  0  0  0  0  0  0  0999 V2000
   33.1930   34.6630    9.2900 C   0  0  0  0  0  0  0  0  0  0  0  0
   32.0600   35.3600   10.0340 C   0  0  0  0  0  0  0  0  0  0  0  0
   30.8040   35.5110    9.2150 C   0  0  0  0  0  0  0  0  0  0  0  0
   30.1260   34.1640    9.0190 C   0  0  0  0  0  0  0  0  0  0  0  0
   28.6710   34.3510    8.6340 C   0  0  0  0  0  0  0  0  0  0  0  0
   27.7670   33.7100    9.6290 N   0  0  0  0  0  0  0  0  0  0  0  0
  1  2  1  0  0  0  0
  3  2  1  0  0  0  0
  4  3  1  0  0  0  0
  5  4  1  0  0  0  0
  5  6  1  0  0  0  0
M  END
>  <EGIN_R>
ES LYS A 135

>  <REMARK>
  4 active torsions:
  status: ('A' for Active; 'I' for Inactive)
    5  A    between atoms: CA   and  CB  
    6  A    between atoms: CB   and  CG  
    7  A    between atoms: CG   and  CD  
    8  A    between atoms: CD   and  CE  

$$$$
