ligand_69_pose_18_2HRL.pdbqt
 OpenBabel07062320523D

 54 51  0  0  1  0  0  0  0  0999 V2000
   32.3460   41.4660    7.6720 N   0  0  0  0  0  0  0  0  0  0  0  0
   33.1210   41.9850    8.7520 C   0  0  0  0  0  0  0  0  0  0  0  0
   34.2500   41.5230    9.0640 O   0  0  0  0  0  0  0  0  0  0  0  0
   31.4130   41.8680    7.4370 H   0  0  0  0  0  0  0  0  0  0  0  0
   32.9400   40.3520    6.9330 C   0  0  0  0  0  0  0  0  0  0  0  0
   31.8120   39.3790    6.6410 C   0  0  2  0  0  0  0  0  0  0  0  0
   30.5430   40.0740    6.2040 C   0  0  2  0  0  0  0  0  0  0  0  0
   29.3180   39.2700    6.5080 C   0  0  2  0  0  0  0  0  0  0  0  0
   28.0650   37.4130    6.0890 C   0  0  2  0  0  0  0  0  0  0  0  0
   27.3050   37.9830    7.2690 C   0  0  0  0  0  0  0  0  0  0  0  0
   29.2870   38.0450    5.8990 O   0  0  0  0  0  0  0  0  0  0  0  0
   26.9840   39.4510    7.0750 C   0  0  1  0  0  0  0  0  0  0  0  0
   28.0410   40.0060    6.1650 C   0  0  1  0  0  0  0  0  0  0  0  0
   27.2880   37.4190    4.9360 O   0  0  0  0  0  0  0  0  0  0  0  0
   26.6600   38.1900    4.9140 H   0  0  0  0  0  0  0  0  0  0  0  0
   28.3640   35.9990    6.4220 C   0  0  0  0  0  0  0  0  0  0  0  0
   27.5030   35.2230    6.9180 O   0  0  0  0  0  0  0  0  0  0  0  0
   29.6270   35.5050    6.1850 O   0  0  0  0  0  0  0  0  0  0  0  0
   29.9510   35.1630    5.2850 H   0  0  0  0  0  0  0  0  0  0  0  0
   25.7080   39.5340    6.5660 O   0  0  0  0  0  0  0  0  0  0  0  0
   25.0720   39.4820    7.3450 H   0  0  0  0  0  0  0  0  0  0  0  0
   28.1740   41.4150    6.1740 N   0  0  0  0  0  0  0  0  0  0  0  0
   27.6780   42.3000    5.1800 C   0  0  0  0  0  0  0  0  0  0  0  0
   28.6780   41.8550    6.9740 H   0  0  0  0  0  0  0  0  0  0  0  0
   27.8710   43.7780    5.2820 C   0  0  0  0  0  0  0  0  0  0  0  0
   27.0720   41.7980    4.2130 O   0  0  0  0  0  0  0  0  0  0  0  0
   30.6250   40.5260    4.9100 O   0  0  0  0  0  0  0  0  0  0  0  0
   31.0510   39.8310    4.3610 H   0  0  0  0  0  0  0  0  0  0  0  0
   31.4740   38.6910    7.8300 O   0  0  0  0  0  0  0  0  0  0  0  0
   32.2950   38.4200    8.3290 H   0  0  0  0  0  0  0  0  0  0  0  0
   32.6320   43.0320    9.4950 O   0  0  0  0  0  0  0  0  0  0  0  0
   31.3660   43.0360   10.1290 C   0  0  0  0  0  0  0  0  0  0  0  0
   31.0600   41.6590   10.5810 C   0  0  0  0  0  0  0  0  0  0  0  0
   31.4570   41.0090   11.7290 C   0  0  0  0  0  0  0  0  0  0  0  0
   30.3000   40.7860    9.8930 N   0  0  0  0  0  0  0  0  0  0  0  0
   30.9360   39.7690   11.7130 N   0  0  0  0  0  0  0  0  0  0  0  0
   30.2390   39.6740   10.5790 N   0  0  0  0  0  0  0  0  0  0  0  0
   31.1100   38.7430   12.7430 C   0  0  2  0  0  0  0  0  0  0  0  0
   31.4310   37.4600   12.0540 C   0  0  0  0  0  0  0  0  0  0  0  0
   32.0980   36.4400   12.9080 *   0  0  0  0  0  0  0  0  0  0  0  0
   32.6940   35.4080   12.1500 O   0  0  0  0  0  0  0  0  0  0  0  0
   33.2260   35.8160   11.4330 H   0  0  0  0  0  0  0  0  0  0  0  0
   29.8670   38.7100   13.5640 C   0  0  0  0  0  0  0  0  0  0  0  0
   29.1900   37.3740   13.6150 C   0  0  1  0  0  0  0  0  0  0  0  0
   29.9990   36.3230   14.2710 C   0  0  0  0  0  0  0  0  0  0  0  0
   31.2160   35.9280   13.9720 *   0  0  0  0  0  0  0  0  0  0  0  0
   27.9110   37.4430   14.1640 O   0  0  0  0  0  0  0  0  0  0  0  0
   27.6260   36.5700   14.5340 H   0  0  0  0  0  0  0  0  0  0  0  0
   29.8670   25.5550   16.9770 C   0  0  0  0  0  0  0  0  0  0  0  0
   28.3450   25.7220   17.0260 C   0  0  0  0  0  0  0  0  0  0  0  0
   27.6010   24.4030   16.8830 C   0  0  0  0  0  0  0  0  0  0  0  0
   26.6990   24.1310   18.0540 C   0  0  0  0  0  0  0  0  0  0  0  0
   25.3180   24.7180   17.7810 C   0  0  0  0  0  0  0  0  0  0  0  0
   24.2600   23.7480   18.1490 N   0  0  0  0  0  0  0  0  0  0  0  0
  1  2  1  0  0  0  0
  2  3  2  0  0  0  0
  2 31  1  0  0  0  0
  4  1  1  0  0  0  0
  5  1  1  0  0  0  0
  6  5  1  1  0  0  0
  6 29  1  0  0  0  0
  7 27  1  6  0  0  0
  7  6  1  0  0  0  0
  8  7  1  6  0  0  0
  9 14  1  6  0  0  0
  9 16  1  0  0  0  0
  9 10  1  0  0  0  0
 11  9  1  0  0  0  0
 11  8  1  0  0  0  0
 12 20  1  6  0  0  0
 12 10  1  0  0  0  0
 13 22  1  1  0  0  0
 13  8  1  0  0  0  0
 13 12  1  0  0  0  0
 15 14  1  0  0  0  0
 16 17  2  0  0  0  0
 18 16  1  0  0  0  0
 19 18  1  0  0  0  0
 20 21  1  0  0  0  0
 22 24  1  0  0  0  0
 23 25  1  0  0  0  0
 23 22  1  0  0  0  0
 26 23  2  0  0  0  0
 28 27  1  0  0  0  0
 29 30  1  0  0  0  0
 31 32  1  0  0  0  0
 32 33  1  0  0  0  0
 33 34  2  0  0  0  0
 35 37  2  0  0  0  0
 35 33  1  0  0  0  0
 36 34  1  0  0  0  0
 36 38  1  0  0  0  0
 37 36  1  0  0  0  0
 38 39  1  6  0  0  0
 38 43  1  0  0  0  0
 42 41  1  0  0  0  0
 43 44  1  0  0  0  0
 44 47  1  0  0  0  0
 44 45  1  1  0  0  0
 47 48  1  0  0  0  0
 49 50  1  0  0  0  0
 51 50  1  0  0  0  0
 51 52  1  0  0  0  0
 53 52  1  0  0  0  0
 53 54  1  0  0  0  0
M  END
>  <REMARK>
 VINA RESULT:    -7.535      5.603     10.002
 INTER + INTRA:         -12.652
 INTER:                  -7.858
 INTRA:                  -4.795
 UNBOUND:                 3.032
 SMILES CC(=O)N[C@@H]1[C@@H](O)C[C@](O)(C(=O)O)O[C@H]1C(O)[C@H](O)CNC(=O)OCc1cn(C2CC(O)C=C[C@@H](O)C2)nn1
 SMILES IDX 21 1 22 2 23 3 20 5 18 6 16 7 15 8 9 9 8 10 14 11 6 12 5 13
 SMILES IDX 10 14 11 16 12 17 13 18 7 20 4 22 2 23 1 25 3 26 17 27 19 29
 SMILES IDX 24 31 25 32 26 33 27 34 39 35 28 36 38 37 29 38 30 39 31 40
 SMILES IDX 32 42 37 44 35 45 34 46 33 47 36 49
 H PARENT 21 4 10 15 13 19 7 21 4 24 17 28 19 30 32 43 36 50
 Flexibility Score: 90.00
  4 active torsions:
  status: ('A' for Active; 'I' for Inactive)
    1  A    between atoms: CA   and  CB  
    2  A    between atoms: CB   and  CG  
    3  A    between atoms: CG   and  CD  
    4  A    between atoms: CD   and  CE  

>  <TORSDO>
F 17

>  <BEGIN_>
RES LYS A 131

$$$$
ligand_69_pose_18_2HRL.pdbqt
 OpenBabel07062320523D

  6  5  0  0  0  0  0  0  0  0999 V2000
   33.1930   34.6630    9.2900 C   0  0  0  0  0  0  0  0  0  0  0  0
   32.0600   35.3600   10.0340 C   0  0  0  0  0  0  0  0  0  0  0  0
   30.7580   35.3710    9.2750 C   0  0  0  0  0  0  0  0  0  0  0  0
   30.0550   34.0280    9.3950 C   0  0  0  0  0  0  0  0  0  0  0  0
   28.6880   34.1970   10.0280 C   0  0  0  0  0  0  0  0  0  0  0  0
   28.8040   34.5300   11.4750 N   0  0  0  0  0  0  0  0  0  0  0  0
  1  2  1  0  0  0  0
  3  4  1  0  0  0  0
  3  2  1  0  0  0  0
  4  5  1  0  0  0  0
  5  6  1  0  0  0  0
M  END
>  <EGIN_R>
ES LYS A 135

>  <REMARK>
  4 active torsions:
  status: ('A' for Active; 'I' for Inactive)
    5  A    between atoms: CA   and  CB  
    6  A    between atoms: CB   and  CG  
    7  A    between atoms: CG   and  CD  
    8  A    between atoms: CD   and  CE  

$$$$
