ligand_79_pose_1_2HRL.pdbqt
 OpenBabel07062320523D

 58 60  0  0  1  0  0  0  0  0999 V2000
   29.1050   27.4160   20.1620 N   0  0  0  0  0  0  0  0  0  0  0  0
   27.7430   27.6290   20.4800 C   0  0  0  0  0  0  0  0  0  0  0  0
   27.3170   27.4460   21.6220 O   0  0  0  0  0  0  0  0  0  0  0  0
   29.3680   27.6130   19.1370 H   0  0  0  0  0  0  0  0  0  0  0  0
   30.1260   26.9710   21.0700 C   0  0  0  0  0  0  0  0  0  0  0  0
   31.4390   27.6510   20.9550 C   0  0  2  0  0  0  0  0  0  0  0  0
   31.3550   29.1650   21.0810 C   0  0  1  0  0  0  0  0  0  0  0  0
   32.6870   29.7680   21.4450 C   0  0  2  0  0  0  0  0  0  0  0  0
   33.6750   28.9380   23.3700 C   0  0  2  0  0  0  0  0  0  0  0  0
   34.1700   30.2880   23.8410 C   0  0  0  0  0  0  0  0  0  0  0  0
   33.5700   28.8780   21.9860 O   0  0  0  0  0  0  0  0  0  0  0  0
   33.9040   31.3680   22.8130 C   0  0  1  0  0  0  0  0  0  0  0  0
   32.5240   31.0490   22.2340 C   0  0  1  0  0  0  0  0  0  0  0  0
   32.4760   28.5660   23.9760 O   0  0  0  0  0  0  0  0  0  0  0  0
   31.8420   28.1850   23.3040 H   0  0  0  0  0  0  0  0  0  0  0  0
   34.6950   27.9340   23.7750 C   0  0  0  0  0  0  0  0  0  0  0  0
   34.8470   27.6620   25.0080 O   0  0  0  0  0  0  0  0  0  0  0  0
   35.5000   27.2680   22.8800 O   0  0  0  0  0  0  0  0  0  0  0  0
   36.4030   27.6140   22.5810 H   0  0  0  0  0  0  0  0  0  0  0  0
   33.9460   32.6320   23.3530 O   0  0  0  0  0  0  0  0  0  0  0  0
   34.8600   32.7620   23.7620 H   0  0  0  0  0  0  0  0  0  0  0  0
   32.0610   32.0990   21.3680 N   0  0  0  0  0  0  0  0  0  0  0  0
   31.2160   33.1630   21.8440 C   0  0  0  0  0  0  0  0  0  0  0  0
   32.3030   32.1560   20.3480 H   0  0  0  0  0  0  0  0  0  0  0  0
   30.7220   34.2490   20.9960 C   0  0  0  0  0  0  0  0  0  0  0  0
   30.9050   33.1190   23.0770 O   0  0  0  0  0  0  0  0  0  0  0  0
   30.9620   29.6220   19.8200 O   0  0  0  0  0  0  0  0  0  0  0  0
   30.0900   30.0620   19.8290 H   0  0  0  0  0  0  0  0  0  0  0  0
   32.0230   27.3930   19.7300 O   0  0  0  0  0  0  0  0  0  0  0  0
   31.4300   26.7660   19.2400 H   0  0  0  0  0  0  0  0  0  0  0  0
   26.8180   28.0550   19.5220 O   0  0  0  0  0  0  0  0  0  0  0  0
   27.0490   27.8480   18.1600 C   0  0  0  0  0  0  0  0  0  0  0  0
   27.5310   29.0990   17.5190 C   0  0  0  0  0  0  0  0  0  0  0  0
   27.8890   30.2670   18.1750 C   0  0  0  0  0  0  0  0  0  0  0  0
   27.7240   29.3700   16.2120 N   0  0  0  0  0  0  0  0  0  0  0  0
   28.2770   31.1850   17.2680 N   0  0  0  0  0  0  0  0  0  0  0  0
   28.1650   30.6080   16.0840 N   0  0  0  0  0  0  0  0  0  0  0  0
   28.7340   32.5570   17.5620 C   0  0  0  0  0  0  0  0  0  0  0  0
   28.1000   33.5010   16.5990 C   0  0  0  0  0  0  0  0  0  0  0  0
   28.2180   32.8090   18.9920 C   0  0  0  0  0  0  0  0  0  0  0  0
   30.1940   32.5330   17.5940 C   0  0  0  0  0  0  0  0  0  0  0  0
   30.8230   31.9950   18.5720 O   0  0  0  0  0  0  0  0  0  0  0  0
   31.0660   33.0970   16.5700 C   0  0  0  0  0  0  0  0  0  0  0  0
   31.2230   32.5810   15.2840 C   0  0  0  0  0  0  0  0  0  0  0  0
   31.8730   34.1940   16.7280 C   0  0  0  0  0  0  0  0  0  0  0  0
   32.1160   33.3590   14.6770 N   0  0  0  0  0  0  0  0  0  0  0  0
   32.5340   34.3400   15.5050 C   0  0  0  0  0  0  0  0  0  0  0  0
   32.1200   35.0920   17.7620 C   0  0  0  0  0  0  0  0  0  0  0  0
   32.4520   33.2430   13.7100 H   0  0  0  0  0  0  0  0  0  0  0  0
   33.4240   35.3870   15.3670 C   0  0  0  0  0  0  0  0  0  0  0  0
   33.0070   36.1140   17.5910 C   0  0  0  0  0  0  0  0  0  0  0  0
   33.6560   36.2620   16.4010 C   0  0  0  0  0  0  0  0  0  0  0  0
   29.8670   25.5550   16.9770 C   0  0  0  0  0  0  0  0  0  0  0  0
   28.3450   25.7220   17.0260 C   0  0  0  0  0  0  0  0  0  0  0  0
   27.6000   24.4140   16.8090 C   0  0  0  0  0  0  0  0  0  0  0  0
   26.5170   24.2030   17.8310 C   0  0  0  0  0  0  0  0  0  0  0  0
   25.1540   24.3890   17.1740 C   0  0  0  0  0  0  0  0  0  0  0  0
   24.1580   23.4700   17.7740 N   0  0  0  0  0  0  0  0  0  0  0  0
  1  2  1  0  0  0  0
  1  5  1  0  0  0  0
  2  3  2  0  0  0  0
  4  1  1  0  0  0  0
  6  5  1  6  0  0  0
  6  7  1  0  0  0  0
  7 27  1  6  0  0  0
  8  7  1  1  0  0  0
  8 11  1  0  0  0  0
  8 13  1  0  0  0  0
  9 16  1  1  0  0  0
  9 10  1  0  0  0  0
  9 14  1  0  0  0  0
 11  9  1  0  0  0  0
 12 20  1  1  0  0  0
 12 10  1  0  0  0  0
 13 22  1  6  0  0  0
 13 12  1  0  0  0  0
 15 14  1  0  0  0  0
 16 17  2  0  0  0  0
 18 16  1  0  0  0  0
 19 18  1  0  0  0  0
 20 21  1  0  0  0  0
 22 23  1  0  0  0  0
 23 26  2  0  0  0  0
 24 22  1  0  0  0  0
 25 23  1  0  0  0  0
 27 28  1  0  0  0  0
 29  6  1  0  0  0  0
 30 29  1  0  0  0  0
 31  2  1  0  0  0  0
 32 31  1  0  0  0  0
 33 32  1  0  0  0  0
 33 34  2  0  0  0  0
 35 33  1  0  0  0  0
 36 38  1  0  0  0  0
 36 34  1  0  0  0  0
 37 35  2  0  0  0  0
 37 36  1  0  0  0  0
 38 41  1  0  0  0  0
 38 40  1  0  0  0  0
 39 38  1  0  0  0  0
 41 42  2  0  0  0  0
 43 45  1  0  0  0  0
 43 41  1  0  0  0  0
 44 43  2  0  0  0  0
 45 48  2  0  0  0  0
 46 44  1  0  0  0  0
 46 47  1  0  0  0  0
 47 45  1  0  0  0  0
 49 46  1  0  0  0  0
 50 47  2  0  0  0  0
 50 52  1  0  0  0  0
 51 48  1  0  0  0  0
 52 51  2  0  0  0  0
 53 54  1  0  0  0  0
 55 54  1  0  0  0  0
 55 56  1  0  0  0  0
 57 58  1  0  0  0  0
 57 56  1  0  0  0  0
M  END
>  <REMARK>
 VINA RESULT:    -6.576      5.967     11.872
 INTER + INTRA:         -16.927
 INTER:                 -10.391
 INTRA:                  -6.536
 UNBOUND:                -4.777
 SMILES CC(=O)N[C@@H]1[C@@H](O)C[C@](O)(C(=O)O)O[C@H]1C(O)[C@H](O)CNC(=O)OCc1cn(C(C)(C)C(=O)c2c[nH]c3ccccc23)nn1
 SMILES IDX 21 1 22 2 23 3 20 5 18 6 16 7 15 8 9 9 8 10 14 11 6 12 5 13
 SMILES IDX 10 14 11 16 12 17 13 18 7 20 4 22 2 23 1 25 3 26 17 27 19 29
 SMILES IDX 24 31 25 32 26 33 27 34 44 35 28 36 43 37 29 38 30 39 31 40
 SMILES IDX 32 41 33 42 34 43 35 44 42 45 36 46 37 47 41 48 38 50 40 51
 SMILES IDX 39 52
 H PARENT 21 4 10 15 13 19 7 21 4 24 17 28 19 30 36 49
 Flexibility Score: inf
  4 active torsions:
  status: ('A' for Active; 'I' for Inactive)
    1  A    between atoms: CA   and  CB  
    2  A    between atoms: CB   and  CG  
    3  A    between atoms: CG   and  CD  
    4  A    between atoms: CD   and  CE  

>  <TORSDO>
F 17

>  <BEGIN_>
RES LYS A 131

$$$$
ligand_79_pose_1_2HRL.pdbqt
 OpenBabel07062320523D

  6  5  0  0  0  0  0  0  0  0999 V2000
   33.1930   34.6630    9.2900 C   0  0  0  0  0  0  0  0  0  0  0  0
   32.0600   35.3600   10.0340 C   0  0  0  0  0  0  0  0  0  0  0  0
   30.7000   34.7810    9.7400 C   0  0  0  0  0  0  0  0  0  0  0  0
   30.4270   34.7850    8.2440 C   0  0  0  0  0  0  0  0  0  0  0  0
   29.2690   35.7080    7.9170 C   0  0  0  0  0  0  0  0  0  0  0  0
   28.7920   35.4980    6.5220 N   0  0  0  0  0  0  0  0  0  0  0  0
  1  2  1  0  0  0  0
  3  2  1  0  0  0  0
  4  3  1  0  0  0  0
  5  4  1  0  0  0  0
  6  5  1  0  0  0  0
M  END
>  <EGIN_R>
ES LYS A 135

>  <REMARK>
  4 active torsions:
  status: ('A' for Active; 'I' for Inactive)
    5  A    between atoms: CA   and  CB  
    6  A    between atoms: CB   and  CG  
    7  A    between atoms: CG   and  CD  
    8  A    between atoms: CD   and  CE  

$$$$
