ligand_1_pose_1_2HRL.pdbqt
 OpenBabel07062320523D

 47 47  0  0  1  0  0  0  0  0999 V2000
   27.9260   28.8790   16.8840 N   0  0  0  0  0  0  0  0  0  0  0  0
   27.8810   30.1070   16.2140 C   0  0  0  0  0  0  0  0  0  0  0  0
   26.8420   30.7610   16.1940 O   0  0  0  0  0  0  0  0  0  0  0  0
   28.8780   28.3830   16.8410 H   0  0  0  0  0  0  0  0  0  0  0  0
   26.9140   28.2020   17.5990 C   0  0  0  0  0  0  0  0  0  0  0  0
   27.2200   27.7710   18.9990 C   0  0  2  0  0  0  0  0  0  0  0  0
   27.4080   28.9340   19.9260 C   0  0  1  0  0  0  0  0  0  0  0  0
   28.7710   29.3530   20.2790 C   0  0  2  0  0  0  0  0  0  0  0  0
   30.7980   28.7390   21.1880 C   0  0  2  0  0  0  0  0  0  0  0  0
   31.2760   29.9360   20.3940 C   0  0  0  0  0  0  0  0  0  0  0  0
   29.4950   28.3530   20.8780 O   0  0  0  0  0  0  0  0  0  0  0  0
   30.3760   31.1360   20.6530 C   0  0  1  0  0  0  0  0  0  0  0  0
   28.9630   30.6350   21.0150 C   0  0  1  0  0  0  0  0  0  0  0  0
   30.8140   29.0190   22.5520 O   0  0  0  0  0  0  0  0  0  0  0  0
   30.7180   28.2140   23.1090 H   0  0  0  0  0  0  0  0  0  0  0  0
   31.6500   27.5550   20.9350 C   0  0  0  0  0  0  0  0  0  0  0  0
   32.0110   26.7660   21.8450 O   0  0  0  0  0  0  0  0  0  0  0  0
   32.0750   27.2960   19.6450 O   0  0  0  0  0  0  0  0  0  0  0  0
   31.5340   26.6500   19.0500 H   0  0  0  0  0  0  0  0  0  0  0  0
   30.9090   31.8880   21.6910 O   0  0  0  0  0  0  0  0  0  0  0  0
   31.3150   32.6970   21.2820 H   0  0  0  0  0  0  0  0  0  0  0  0
   28.0090   31.6710   20.6770 N   0  0  0  0  0  0  0  0  0  0  0  0
   27.5880   32.5660   21.6930 C   0  0  0  0  0  0  0  0  0  0  0  0
   27.6240   31.7750   19.7060 H   0  0  0  0  0  0  0  0  0  0  0  0
   26.6100   33.6590   21.4390 C   0  0  0  0  0  0  0  0  0  0  0  0
   28.0470   32.4430   22.8510 O   0  0  0  0  0  0  0  0  0  0  0  0
   26.7280   30.0110   19.2450 O   0  0  0  0  0  0  0  0  0  0  0  0
   26.1320   30.4440   19.8790 H   0  0  0  0  0  0  0  0  0  0  0  0
   28.2280   26.8670   19.0450 O   0  0  0  0  0  0  0  0  0  0  0  0
   27.9790   25.9520   19.2800 H   0  0  0  0  0  0  0  0  0  0  0  0
   28.9970   30.6210   15.5570 O   0  0  0  0  0  0  0  0  0  0  0  0
   30.1020   31.1420   16.2640 C   0  0  0  0  0  0  0  0  0  0  0  0
   30.6100   32.3490   15.5690 C   0  0  0  0  0  0  0  0  0  0  0  0
   31.7010   33.1100   15.9080 C   0  0  0  0  0  0  0  0  0  0  0  0
   30.0830   32.9010   14.4850 N   0  0  0  0  0  0  0  0  0  0  0  0
   31.7670   34.0920   14.9910 N   0  0  0  0  0  0  0  0  0  0  0  0
   30.7810   33.9720   14.1180 N   0  0  0  0  0  0  0  0  0  0  0  0
   32.7810   35.1270   14.9790 C   0  0  0  0  0  0  0  0  0  0  0  0
   33.9030   34.6990   14.0360 C   0  0  0  0  0  0  0  0  0  0  0  0
   33.3990   34.6800   12.7200 O   0  0  0  0  0  0  0  0  0  0  0  0
   33.7850   33.8980   12.2210 H   0  0  0  0  0  0  0  0  0  0  0  0
   29.8670   25.5550   16.9770 C   0  0  0  0  0  0  0  0  0  0  0  0
   28.3450   25.7220   17.0260 C   0  0  0  0  0  0  0  0  0  0  0  0
   27.5990   24.4420   16.6810 C   0  0  0  0  0  0  0  0  0  0  0  0
   27.0100   23.7850   17.8980 C   0  0  0  0  0  0  0  0  0  0  0  0
   25.6070   23.2810   17.5760 C   0  0  0  0  0  0  0  0  0  0  0  0
   24.8060   24.3510   16.9350 N   0  0  0  0  0  0  0  0  0  0  0  0
  1  5  1  0  0  0  0
  2  1  1  0  0  0  0
  3  2  2  0  0  0  0
  4  1  1  0  0  0  0
  6  5  1  6  0  0  0
  6 29  1  0  0  0  0
  6  7  1  0  0  0  0
  7 27  1  6  0  0  0
  8  7  1  1  0  0  0
  8 11  1  0  0  0  0
  8 13  1  0  0  0  0
  9 16  1  6  0  0  0
  9 14  1  0  0  0  0
 10 12  1  0  0  0  0
 10  9  1  0  0  0  0
 11  9  1  0  0  0  0
 12 13  1  0  0  0  0
 12 20  1  1  0  0  0
 13 22  1  6  0  0  0
 14 15  1  0  0  0  0
 16 17  2  0  0  0  0
 18 16  1  0  0  0  0
 19 18  1  0  0  0  0
 21 20  1  0  0  0  0
 22 23  1  0  0  0  0
 23 26  2  0  0  0  0
 24 22  1  0  0  0  0
 25 23  1  0  0  0  0
 27 28  1  0  0  0  0
 29 30  1  0  0  0  0
 31  2  1  0  0  0  0
 31 32  1  0  0  0  0
 33 34  2  0  0  0  0
 33 32  1  0  0  0  0
 35 33  1  0  0  0  0
 36 34  1  0  0  0  0
 37 35  2  0  0  0  0
 37 36  1  0  0  0  0
 38 36  1  0  0  0  0
 39 38  1  0  0  0  0
 40 39  1  0  0  0  0
 41 40  1  0  0  0  0
 42 43  1  0  0  0  0
 44 43  1  0  0  0  0
 44 45  1  0  0  0  0
 46 45  1  0  0  0  0
 47 46  1  0  0  0  0
M  END
>  <REMARK>
 VINA RESULT:    -3.449      7.988     12.572
 INTER + INTRA:         -13.844
 INTER:                  -8.857
 INTRA:                  -4.988
 UNBOUND:                -7.572
 SMILES CC(=O)N[C@@H]1[C@@H](O)C[C@](O)(C(=O)O)O[C@H]1C(O)[C@H](O)CNC(=O)OCc1cn(CCO)nn1
 SMILES IDX 21 1 22 2 23 3 20 5 18 6 16 7 15 8 9 9 8 10 14 11 6 12 5 13
 SMILES IDX 10 14 11 16 12 17 13 18 7 20 4 22 2 23 1 25 3 26 17 27 19 29
 SMILES IDX 24 31 25 32 26 33 27 34 33 35 28 36 32 37 29 38 30 39 31 40
 H PARENT 21 4 10 15 13 19 7 21 4 24 17 28 19 30 31 41
 Flexibility Score: inf
  4 active torsions:
  status: ('A' for Active; 'I' for Inactive)
    1  A    between atoms: CA   and  CB  
    2  A    between atoms: CB   and  CG  
    3  A    between atoms: CG   and  CD  
    4  A    between atoms: CD   and  CE  

>  <TORSDO>
F 17

>  <BEGIN_>
RES LYS A 131

$$$$
ligand_1_pose_1_2HRL.pdbqt
 OpenBabel07062320523D

  6  5  0  0  0  0  0  0  0  0999 V2000
   33.1930   34.6630    9.2900 C   0  0  0  0  0  0  0  0  0  0  0  0
   32.0600   35.3600   10.0340 C   0  0  0  0  0  0  0  0  0  0  0  0
   30.7430   34.6320    9.9450 C   0  0  0  0  0  0  0  0  0  0  0  0
   30.3580   34.3960    8.4930 C   0  0  0  0  0  0  0  0  0  0  0  0
   29.0030   35.0080    8.1940 C   0  0  0  0  0  0  0  0  0  0  0  0
   28.2200   35.2130    9.4440 N   0  0  0  0  0  0  0  0  0  0  0  0
  1  2  1  0  0  0  0
  3  2  1  0  0  0  0
  4  3  1  0  0  0  0
  5  4  1  0  0  0  0
  5  6  1  0  0  0  0
M  END
>  <EGIN_R>
ES LYS A 135

>  <REMARK>
  4 active torsions:
  status: ('A' for Active; 'I' for Inactive)
    5  A    between atoms: CA   and  CB  
    6  A    between atoms: CB   and  CG  
    7  A    between atoms: CG   and  CD  
    8  A    between atoms: CD   and  CE  

$$$$
