ligand_59_pose_1_2HRL.pdbqt
 OpenBabel07062320523D

 52 53  0  0  1  0  0  0  0  0999 V2000
   26.2240   30.1470   19.2330 N   0  0  0  0  0  0  0  0  0  0  0  0
   24.9780   30.6030   18.6860 C   0  0  0  0  0  0  0  0  0  0  0  0
   23.9400   30.1720   19.2350 O   0  0  0  0  0  0  0  0  0  0  0  0
   27.0630   30.5400   18.7550 H   0  0  0  0  0  0  0  0  0  0  0  0
   26.2580   29.2530   20.3580 C   0  0  0  0  0  0  0  0  0  0  0  0
   26.6810   27.8680   19.8950 C   0  0  2  0  0  0  0  0  0  0  0  0
   27.8860   27.5060   20.7140 C   0  0  2  0  0  0  0  0  0  0  0  0
   28.8400   28.6140   21.0560 C   0  0  2  0  0  0  0  0  0  0  0  0
   30.0410   30.1720   19.7530 C   0  0  2  0  0  0  0  0  0  0  0  0
   31.2800   30.0360   20.6040 C   0  0  0  0  0  0  0  0  0  0  0  0
   29.2300   29.0930   19.8330 O   0  0  0  0  0  0  0  0  0  0  0  0
   31.2910   28.5850   21.0450 C   0  0  1  0  0  0  0  0  0  0  0  0
   30.0160   28.2920   21.8740 C   0  0  1  0  0  0  0  0  0  0  0  0
   30.5230   30.2930   18.4120 O   0  0  0  0  0  0  0  0  0  0  0  0
   29.9430   29.7600   17.8110 H   0  0  0  0  0  0  0  0  0  0  0  0
   29.2780   31.4110   20.0110 C   0  0  0  0  0  0  0  0  0  0  0  0
   29.3900   31.9830   21.1120 O   0  0  0  0  0  0  0  0  0  0  0  0
   28.4450   31.9500   19.0500 O   0  0  0  0  0  0  0  0  0  0  0  0
   27.4750   32.1240   19.2850 H   0  0  0  0  0  0  0  0  0  0  0  0
   31.4290   27.7090   19.9970 O   0  0  0  0  0  0  0  0  0  0  0  0
   30.7940   27.9620   19.2670 H   0  0  0  0  0  0  0  0  0  0  0  0
   30.1890   29.0600   23.0640 N   0  0  0  0  0  0  0  0  0  0  0  0
   30.6660   28.4980   24.2590 C   0  0  0  0  0  0  0  0  0  0  0  0
   29.9490   30.0670   23.0470 H   0  0  0  0  0  0  0  0  0  0  0  0
   30.8470   29.2970   25.4950 C   0  0  0  0  0  0  0  0  0  0  0  0
   30.9520   27.2850   24.2890 O   0  0  0  0  0  0  0  0  0  0  0  0
   28.6380   26.5760   19.9740 O   0  0  0  0  0  0  0  0  0  0  0  0
   29.5890   26.5570   20.2690 H   0  0  0  0  0  0  0  0  0  0  0  0
   27.0780   28.0920   18.5480 O   0  0  0  0  0  0  0  0  0  0  0  0
   27.9040   28.6020   18.5520 H   0  0  0  0  0  0  0  0  0  0  0  0
   24.8950   31.4610   17.6240 O   0  0  0  0  0  0  0  0  0  0  0  0
   25.3300   31.1630   16.3320 C   0  0  0  0  0  0  0  0  0  0  0  0
   26.8060   31.1840   16.1790 C   0  0  0  0  0  0  0  0  0  0  0  0
   27.5250   32.2670   15.6660 C   0  0  0  0  0  0  0  0  0  0  0  0
   27.7310   30.2730   16.4570 N   0  0  0  0  0  0  0  0  0  0  0  0
   28.8220   31.9610   15.6590 N   0  0  0  0  0  0  0  0  0  0  0  0
   28.9370   30.7470   16.1400 N   0  0  0  0  0  0  0  0  0  0  0  0
   29.8870   32.8060   15.1980 C   0  0  0  0  0  0  0  0  0  0  0  0
   31.1420   32.8110   15.7720 C   0  0  0  0  0  0  0  0  0  0  0  0
   29.6770   33.6470   14.1730 N   0  0  0  0  0  0  0  0  0  0  0  0
   32.1590   33.6230   15.3450 C   0  0  0  0  0  0  0  0  0  0  0  0
   30.6420   34.4600   13.7200 C   0  0  0  0  0  0  0  0  0  0  0  0
   31.9120   34.4770   14.2880 C   0  0  0  0  0  0  0  0  0  0  0  0
   32.9480   35.4010   13.7440 C   0  0  0  0  0  0  0  0  0  0  0  0
   33.2580   35.0150   12.4460 O   0  0  0  0  0  0  0  0  0  0  0  0
   32.7520   35.5710   11.7990 H   0  0  0  0  0  0  0  0  0  0  0  0
   29.8670   25.5550   16.9770 C   0  0  0  0  0  0  0  0  0  0  0  0
   28.3450   25.7220   17.0260 C   0  0  0  0  0  0  0  0  0  0  0  0
   27.6020   24.3980   16.9300 C   0  0  0  0  0  0  0  0  0  0  0  0
   26.1470   24.5390   17.2830 C   0  0  0  0  0  0  0  0  0  0  0  0
   25.9800   24.4590   18.7970 C   0  0  0  0  0  0  0  0  0  0  0  0
   25.4980   23.1150   19.1950 N   0  0  0  0  0  0  0  0  0  0  0  0
  1  5  1  0  0  0  0
  2  1  1  0  0  0  0
  2  3  2  0  0  0  0
  4  1  1  0  0  0  0
  6  5  1  1  0  0  0
  6  7  1  0  0  0  0
  7 27  1  6  0  0  0
  8  7  1  6  0  0  0
  8 13  1  0  0  0  0
  9 14  1  6  0  0  0
  9 11  1  0  0  0  0
  9 16  1  0  0  0  0
  9 10  1  0  0  0  0
 10 12  1  0  0  0  0
 11  8  1  0  0  0  0
 12 20  1  6  0  0  0
 12 13  1  0  0  0  0
 13 22  1  1  0  0  0
 15 14  1  0  0  0  0
 16 17  2  0  0  0  0
 18 19  1  0  0  0  0
 18 16  1  0  0  0  0
 21 20  1  0  0  0  0
 22 23  1  0  0  0  0
 23 26  2  0  0  0  0
 23 25  1  0  0  0  0
 24 22  1  0  0  0  0
 27 28  1  0  0  0  0
 29 30  1  0  0  0  0
 29  6  1  0  0  0  0
 31  2  1  0  0  0  0
 32 31  1  0  0  0  0
 33 32  1  0  0  0  0
 33 35  1  0  0  0  0
 34 33  2  0  0  0  0
 36 34  1  0  0  0  0
 36 37  1  0  0  0  0
 37 35  2  0  0  0  0
 38 36  1  0  0  0  0
 38 39  2  0  0  0  0
 40 38  1  0  0  0  0
 41 39  1  0  0  0  0
 42 40  2  0  0  0  0
 42 43  1  0  0  0  0
 43 41  2  0  0  0  0
 44 43  1  0  0  0  0
 45 44  1  0  0  0  0
 46 45  1  0  0  0  0
 47 48  1  0  0  0  0
 49 48  1  0  0  0  0
 49 50  1  0  0  0  0
 50 51  1  0  0  0  0
 51 52  1  0  0  0  0
M  END
>  <REMARK>
 VINA RESULT:    -5.341      1.714      2.224
 INTER + INTRA:         -15.448
 INTER:                  -8.886
 INTRA:                  -6.561
 UNBOUND:                -5.735
 SMILES CC(=O)N[C@@H]1[C@@H](O)C[C@](O)(C(=O)O)O[C@H]1C(O)[C@H](O)CNC(=O)OCc1cn(-c2ccc(CO)cn2)nn1
 SMILES IDX 21 1 22 2 23 3 20 5 18 6 16 7 15 8 9 9 8 10 14 11 6 12 5 13
 SMILES IDX 10 14 11 16 12 17 13 18 7 20 4 22 2 23 1 25 3 26 17 27 19 29
 SMILES IDX 24 31 25 32 26 33 27 34 38 35 28 36 37 37 29 38 30 39 36 40
 SMILES IDX 31 41 35 42 32 43 33 44 34 45
 H PARENT 21 4 10 15 13 19 7 21 4 24 17 28 19 30 34 46
 Flexibility Score: inf
  4 active torsions:
  status: ('A' for Active; 'I' for Inactive)
    1  A    between atoms: CA   and  CB  
    2  A    between atoms: CB   and  CG  
    3  A    between atoms: CG   and  CD  
    4  A    between atoms: CD   and  CE  

>  <TORSDO>
F 17

>  <BEGIN_>
RES LYS A 131

$$$$
ligand_59_pose_1_2HRL.pdbqt
 OpenBabel07062320523D

  6  5  0  0  0  0  0  0  0  0999 V2000
   33.1930   34.6630    9.2900 C   0  0  0  0  0  0  0  0  0  0  0  0
   32.0600   35.3600   10.0340 C   0  0  0  0  0  0  0  0  0  0  0  0
   30.7800   35.4400    9.2430 C   0  0  0  0  0  0  0  0  0  0  0  0
   30.1770   34.0570    9.0550 C   0  0  0  0  0  0  0  0  0  0  0  0
   28.6630   34.1240    9.0980 C   0  0  0  0  0  0  0  0  0  0  0  0
   28.1750   34.3300   10.4900 N   0  0  0  0  0  0  0  0  0  0  0  0
  1  2  1  0  0  0  0
  3  2  1  0  0  0  0
  4  5  1  0  0  0  0
  4  3  1  0  0  0  0
  5  6  1  0  0  0  0
M  END
>  <EGIN_R>
ES LYS A 135

>  <REMARK>
  4 active torsions:
  status: ('A' for Active; 'I' for Inactive)
    5  A    between atoms: CA   and  CB  
    6  A    between atoms: CB   and  CG  
    7  A    between atoms: CG   and  CD  
    8  A    between atoms: CD   and  CE  

$$$$
