ligand_71_pose_12_2HRL.pdbqt
 OpenBabel07062320523D

 54 55  0  0  1  0  0  0  0  0999 V2000
   26.2430   35.5450   12.2930 N   0  0  0  0  0  0  0  0  0  0  0  0
   24.9920   35.5390   11.5850 C   0  0  0  0  0  0  0  0  0  0  0  0
   24.1220   34.6630   11.8170 O   0  0  0  0  0  0  0  0  0  0  0  0
   26.9450   36.2750   12.0890 H   0  0  0  0  0  0  0  0  0  0  0  0
   26.4620   34.5160   13.2710 C   0  0  0  0  0  0  0  0  0  0  0  0
   27.6850   34.7490   14.1230 C   0  0  2  0  0  0  0  0  0  0  0  0
   28.8780   34.7790   13.1990 C   0  0  1  0  0  0  0  0  0  0  0  0
   29.5630   36.1470   13.2240 C   0  0  2  0  0  0  0  0  0  0  0  0
   29.8650   38.0410   12.0330 C   0  0  2  0  0  0  0  0  0  0  0  0
   31.1640   38.2540   12.7210 C   0  0  0  0  0  0  0  0  0  0  0  0
   29.5320   36.7190   11.9750 O   0  0  0  0  0  0  0  0  0  0  0  0
   31.9100   37.0010   13.1150 C   0  0  1  0  0  0  0  0  0  0  0  0
   31.0020   35.9360   13.6640 C   0  0  1  0  0  0  0  0  0  0  0  0
   30.0060   38.4370   10.6600 O   0  0  0  0  0  0  0  0  0  0  0  0
   29.2970   39.1070   10.4550 H   0  0  0  0  0  0  0  0  0  0  0  0
   28.7910   38.9280   12.5660 C   0  0  0  0  0  0  0  0  0  0  0  0
   28.9750   39.6130   13.5730 O   0  0  0  0  0  0  0  0  0  0  0  0
   27.5410   39.0160   11.9470 O   0  0  0  0  0  0  0  0  0  0  0  0
   27.0550   38.2060   11.6060 H   0  0  0  0  0  0  0  0  0  0  0  0
   32.5840   36.5580   11.9750 O   0  0  0  0  0  0  0  0  0  0  0  0
   33.5630   36.7460   12.0290 H   0  0  0  0  0  0  0  0  0  0  0  0
   31.0360   35.7850   15.0770 N   0  0  0  0  0  0  0  0  0  0  0  0
   31.7050   34.7440   15.7680 C   0  0  0  0  0  0  0  0  0  0  0  0
   30.5340   36.4820   15.6810 H   0  0  0  0  0  0  0  0  0  0  0  0
   31.6940   34.6440   17.2600 C   0  0  0  0  0  0  0  0  0  0  0  0
   32.3130   33.8980   15.0880 O   0  0  0  0  0  0  0  0  0  0  0  0
   29.7810   33.7740   13.4860 O   0  0  0  0  0  0  0  0  0  0  0  0
   29.3310   33.1190   14.1030 H   0  0  0  0  0  0  0  0  0  0  0  0
   27.7690   33.7020   15.0380 O   0  0  0  0  0  0  0  0  0  0  0  0
   28.5620   33.1570   14.7840 H   0  0  0  0  0  0  0  0  0  0  0  0
   24.7050   36.4900   10.6340 O   0  0  0  0  0  0  0  0  0  0  0  0
   24.8100   36.3320    9.2490 C   0  0  0  0  0  0  0  0  0  0  0  0
   26.0820   36.9070    8.7640 C   0  0  0  0  0  0  0  0  0  0  0  0
   26.5430   37.0150    7.4680 C   0  0  0  0  0  0  0  0  0  0  0  0
   27.0250   37.4450    9.5540 N   0  0  0  0  0  0  0  0  0  0  0  0
   27.7340   37.6090    7.5210 N   0  0  0  0  0  0  0  0  0  0  0  0
   27.9960   37.8540    8.7920 N   0  0  0  0  0  0  0  0  0  0  0  0
   28.5590   37.9210    6.3500 C   0  0  0  0  0  0  0  0  0  0  0  0
   29.5750   38.9550    6.7090 C   0  0  0  0  0  0  0  0  0  0  0  0
   29.5030   40.1500    6.3780 O   0  0  0  0  0  0  0  0  0  0  0  0
   30.7030   38.5400    7.4870 N   0  0  0  0  0  0  0  0  0  0  0  0
   30.7900   37.5400    7.7790 H   0  0  0  0  0  0  0  0  0  0  0  0
   31.7140   39.4460    7.8820 C   0  0  0  0  0  0  0  0  0  0  0  0
   31.6650   40.1620    9.0220 N   0  0  0  0  0  0  0  0  0  0  0  0
   32.7980   39.6300    7.1030 N   0  0  0  0  0  0  0  0  0  0  0  0
   32.6440   41.0190    9.3740 C   0  0  0  0  0  0  0  0  0  0  0  0
   33.7970   40.4580    7.3940 C   0  0  0  0  0  0  0  0  0  0  0  0
   33.7470   41.1920    8.5620 C   0  0  0  0  0  0  0  0  0  0  0  0
   29.8670   25.5550   16.9770 C   0  0  0  0  0  0  0  0  0  0  0  0
   28.3450   25.7220   17.0260 C   0  0  0  0  0  0  0  0  0  0  0  0
   27.6170   24.4190   17.3160 C   0  0  0  0  0  0  0  0  0  0  0  0
   26.6200   24.5630   18.4330 C   0  0  0  0  0  0  0  0  0  0  0  0
   25.4800   23.5710   18.2290 C   0  0  0  0  0  0  0  0  0  0  0  0
   25.9090   22.4620   17.3440 N   0  0  0  0  0  0  0  0  0  0  0  0
  1  5  1  0  0  0  0
  2  3  2  0  0  0  0
  2  1  1  0  0  0  0
  4  1  1  0  0  0  0
  6  5  1  6  0  0  0
  6 29  1  0  0  0  0
  7 27  1  1  0  0  0
  7  6  1  0  0  0  0
  8  7  1  6  0  0  0
  8 13  1  0  0  0  0
  9 14  1  6  0  0  0
  9 16  1  0  0  0  0
  9 10  1  0  0  0  0
 10 12  1  0  0  0  0
 11  9  1  0  0  0  0
 11  8  1  0  0  0  0
 12 20  1  6  0  0  0
 12 13  1  0  0  0  0
 13 22  1  1  0  0  0
 15 14  1  0  0  0  0
 16 17  2  0  0  0  0
 18 16  1  0  0  0  0
 19 18  1  0  0  0  0
 20 21  1  0  0  0  0
 22 24  1  0  0  0  0
 22 23  1  0  0  0  0
 23 25  1  0  0  0  0
 26 23  2  0  0  0  0
 27 28  1  0  0  0  0
 30 29  1  0  0  0  0
 31  2  1  0  0  0  0
 32 31  1  0  0  0  0
 33 32  1  0  0  0  0
 33 35  1  0  0  0  0
 34 36  1  0  0  0  0
 34 33  2  0  0  0  0
 36 37  1  0  0  0  0
 37 35  2  0  0  0  0
 38 39  1  0  0  0  0
 38 36  1  0  0  0  0
 39 41  1  0  0  0  0
 40 39  2  0  0  0  0
 41 42  1  0  0  0  0
 41 43  1  0  0  0  0
 43 44  2  0  0  0  0
 44 46  1  0  0  0  0
 45 47  2  0  0  0  0
 45 43  1  0  0  0  0
 47 48  1  0  0  0  0
 48 46  2  0  0  0  0
 49 50  1  0  0  0  0
 50 51  1  0  0  0  0
 51 52  1  0  0  0  0
 53 52  1  0  0  0  0
 54 53  1  0  0  0  0
M  END
>  <REMARK>
 VINA RESULT:    -3.869      3.220      6.897
 INTER + INTRA:         -14.713
 INTER:                  -7.998
 INTRA:                  -6.716
 UNBOUND:                -7.565
 SMILES CC(=O)N[C@@H]1[C@@H](O)C[C@](O)(C(=O)O)O[C@H]1C(O)[C@H](O)CNC(=O)OCc1cn(CC(=O)Nc2ncccn2)nn1
 SMILES IDX 21 1 22 2 23 3 20 5 18 6 16 7 15 8 9 9 8 10 14 11 6 12 5 13
 SMILES IDX 10 14 11 16 12 17 13 18 7 20 4 22 2 23 1 25 3 26 17 27 19 29
 SMILES IDX 24 31 25 32 26 33 27 34 40 35 28 36 39 37 29 38 30 39 31 40
 SMILES IDX 32 41 33 43 34 44 38 45 35 46 37 47 36 48
 H PARENT 21 4 10 15 13 19 7 21 4 24 17 28 19 30 32 42
 Flexibility Score: inf
  4 active torsions:
  status: ('A' for Active; 'I' for Inactive)
    1  A    between atoms: CA   and  CB  
    2  A    between atoms: CB   and  CG  
    3  A    between atoms: CG   and  CD  
    4  A    between atoms: CD   and  CE  

>  <TORSDO>
F 17

>  <BEGIN_>
RES LYS A 131

$$$$
ligand_71_pose_12_2HRL.pdbqt
 OpenBabel07062320523D

  6  5  0  0  0  0  0  0  0  0999 V2000
   33.1930   34.6630    9.2900 C   0  0  0  0  0  0  0  0  0  0  0  0
   32.0600   35.3600   10.0340 C   0  0  0  0  0  0  0  0  0  0  0  0
   30.7910   35.4750    9.2290 C   0  0  0  0  0  0  0  0  0  0  0  0
   30.1500   34.1080    9.0400 C   0  0  0  0  0  0  0  0  0  0  0  0
   28.6970   34.2540    8.6320 C   0  0  0  0  0  0  0  0  0  0  0  0
   27.7870   33.7470    9.6960 N   0  0  0  0  0  0  0  0  0  0  0  0
  1  2  1  0  0  0  0
  3  2  1  0  0  0  0
  4  3  1  0  0  0  0
  5  4  1  0  0  0  0
  5  6  1  0  0  0  0
M  END
>  <EGIN_R>
ES LYS A 135

>  <REMARK>
  4 active torsions:
  status: ('A' for Active; 'I' for Inactive)
    5  A    between atoms: CA   and  CB  
    6  A    between atoms: CB   and  CG  
    7  A    between atoms: CG   and  CD  
    8  A    between atoms: CD   and  CE  

$$$$
