ligand_2_pose_16_2HRL.pdbqt
 OpenBabel07062320523D

 50 51  0  0  1  0  0  0  0  0999 V2000
   17.1130   34.8590    8.5600 C   0  0  0  0  0  0  0  0  0  0  0  0
   18.5100   34.8740    9.0950 C   0  0  2  0  0  0  0  0  0  0  0  0
   19.4570   34.4820    7.9500 C   0  0  2  0  0  0  0  0  0  0  0  0
   20.5430   35.5370    7.7520 C   0  0  2  0  0  0  0  0  0  0  0  0
   21.8800   35.8430    9.6580 C   0  0  2  0  0  0  0  0  0  0  0  0
   22.0830   37.3310    9.4670 C   0  0  0  0  0  0  0  0  0  0  0  0
   21.6100   35.1430    8.5330 O   0  0  0  0  0  0  0  0  0  0  0  0
   21.3250   37.7730    8.2670 C   0  0  1  0  0  0  0  0  0  0  0  0
   20.0980   36.8940    8.1190 C   0  0  1  0  0  0  0  0  0  0  0  0
   20.9310   35.7060   10.6690 O   0  0  0  0  0  0  0  0  0  0  0  0
   20.3750   36.5250   10.6370 H   0  0  0  0  0  0  0  0  0  0  0  0
   23.1640   35.3300   10.2000 C   0  0  0  0  0  0  0  0  0  0  0  0
   24.1710   35.3610    9.4570 O   0  0  0  0  0  0  0  0  0  0  0  0
   23.2710   34.8340   11.4700 O   0  0  0  0  0  0  0  0  0  0  0  0
   23.1590   35.4630   12.2700 H   0  0  0  0  0  0  0  0  0  0  0  0
   21.0010   39.1240    8.2820 O   0  0  0  0  0  0  0  0  0  0  0  0
   20.5920   39.3940    7.4340 H   0  0  0  0  0  0  0  0  0  0  0  0
   19.1980   37.5590    7.2410 N   0  0  0  0  0  0  0  0  0  0  0  0
   18.0950   38.3240    7.6900 C   0  0  0  0  0  0  0  0  0  0  0  0
   19.4000   37.4500    6.2120 H   0  0  0  0  0  0  0  0  0  0  0  0
   17.1800   39.0010    6.7480 C   0  0  0  0  0  0  0  0  0  0  0  0
   17.9660   38.3730    8.9440 O   0  0  0  0  0  0  0  0  0  0  0  0
   18.7250   34.3260    6.7670 O   0  0  0  0  0  0  0  0  0  0  0  0
   17.7440   34.4040    6.9310 H   0  0  0  0  0  0  0  0  0  0  0  0
   18.6840   34.0530   10.1860 O   0  0  0  0  0  0  0  0  0  0  0  0
   19.4530   34.2340   10.7520 H   0  0  0  0  0  0  0  0  0  0  0  0
   16.2460   33.8550    9.0770 N   0  0  0  0  0  0  0  0  0  0  0  0
   16.0760   32.5610    8.5230 C   0  0  0  0  0  0  0  0  0  0  0  0
   15.6750   34.0680    9.9420 H   0  0  0  0  0  0  0  0  0  0  0  0
   16.6990   32.1950    7.5130 O   0  0  0  0  0  0  0  0  0  0  0  0
   15.1800   31.6510    9.1170 O   0  0  0  0  0  0  0  0  0  0  0  0
   15.6610   30.4860    9.7800 C   0  0  0  0  0  0  0  0  0  0  0  0
   16.7330   30.9310   10.7040 C   0  0  0  0  0  0  0  0  0  0  0  0
   18.0010   30.4320   10.7640 C   0  0  0  0  0  0  0  0  0  0  0  0
   16.6420   31.8830   11.6220 N   0  0  0  0  0  0  0  0  0  0  0  0
   18.6470   31.1100   11.7340 N   0  0  0  0  0  0  0  0  0  0  0  0
   17.8070   31.9900   12.2480 N   0  0  0  0  0  0  0  0  0  0  0  0
   20.0110   30.8590   12.0880 C   0  0  0  0  0  0  0  0  0  0  0  0
   20.8230   31.9110   12.4360 C   0  0  0  0  0  0  0  0  0  0  0  0
   20.4500   29.5600   12.0630 C   0  0  0  0  0  0  0  0  0  0  0  0
   22.1320   31.6250   12.7710 C   0  0  0  0  0  0  0  0  0  0  0  0
   21.7650   29.3070   12.4030 C   0  0  0  0  0  0  0  0  0  0  0  0
   22.6160   30.3250   12.7580 C   0  0  0  0  0  0  0  0  0  0  0  0
   24.2630   29.9400   13.1750 Cl  0  0  0  0  0  0  0  0  0  0  0  0
   29.8670   25.5550   16.9770 C   0  0  0  0  0  0  0  0  0  0  0  0
   28.3450   25.7220   17.0260 C   0  0  0  0  0  0  0  0  0  0  0  0
   27.6000   24.4110   16.8250 C   0  0  0  0  0  0  0  0  0  0  0  0
   26.8350   24.0000   18.0520 C   0  0  0  0  0  0  0  0  0  0  0  0
   25.9920   25.1730   18.5420 C   0  0  0  0  0  0  0  0  0  0  0  0
   24.7780   25.3260   17.7060 N   0  0  0  0  0  0  0  0  0  0  0  0
  1 27  1  0  0  0  0
  2  1  1  6  0  0  0
  2 25  1  0  0  0  0
  3 23  1  6  0  0  0
  3  2  1  0  0  0  0
  4  3  1  1  0  0  0
  4  9  1  0  0  0  0
  4  7  1  0  0  0  0
  5 12  1  1  0  0  0
  5 10  1  0  0  0  0
  6  5  1  0  0  0  0
  7  5  1  0  0  0  0
  8 16  1  1  0  0  0
  8  6  1  0  0  0  0
  9 18  1  6  0  0  0
  9  8  1  0  0  0  0
 11 10  1  0  0  0  0
 12 14  1  0  0  0  0
 13 12  2  0  0  0  0
 14 15  1  0  0  0  0
 17 16  1  0  0  0  0
 18 19  1  0  0  0  0
 19 22  2  0  0  0  0
 20 18  1  0  0  0  0
 21 19  1  0  0  0  0
 23 24  1  0  0  0  0
 25 26  1  0  0  0  0
 27 29  1  0  0  0  0
 28 27  1  0  0  0  0
 28 31  1  0  0  0  0
 30 28  2  0  0  0  0
 31 32  1  0  0  0  0
 32 33  1  0  0  0  0
 33 34  2  0  0  0  0
 33 35  1  0  0  0  0
 34 36  1  0  0  0  0
 35 37  2  0  0  0  0
 36 38  1  0  0  0  0
 36 37  1  0  0  0  0
 38 39  1  0  0  0  0
 39 41  2  0  0  0  0
 40 38  2  0  0  0  0
 40 42  1  0  0  0  0
 42 43  2  0  0  0  0
 43 41  1  0  0  0  0
 43 44  1  0  0  0  0
 45 46  1  0  0  0  0
 47 46  1  0  0  0  0
 47 48  1  0  0  0  0
 48 49  1  0  0  0  0
 50 49  1  0  0  0  0
M  END
>  <REMARK>
 VINA RESULT:    -3.999     10.452     15.752
 INTER + INTRA:         -13.929
 INTER:                  -8.167
 INTRA:                  -5.762
 UNBOUND:                -7.007
 SMILES CC(=O)N[C@@H]1[C@@H](O)C[C@](O)(C(=O)O)O[C@H]1C(O)[C@H](O)CNC(=O)OCc1cn(-c2ccc(Cl)cc2)nn1
 SMILES IDX 20 1 18 2 16 3 15 4 9 5 8 6 14 7 6 8 5 9 10 10 11 12 12 13
 SMILES IDX 13 14 7 16 4 18 2 19 1 21 3 22 17 23 19 25 21 27 22 28 23 30
 SMILES IDX 24 31 25 32 26 33 27 34 37 35 28 36 36 37 29 38 30 39 35 40
 SMILES IDX 31 41 34 42 32 43 33 44
 H PARENT 10 11 13 15 7 17 4 20 17 24 19 26 21 29
 Flexibility Score: inf
  4 active torsions:
  status: ('A' for Active; 'I' for Inactive)
    1  A    between atoms: CA   and  CB  
    2  A    between atoms: CB   and  CG  
    3  A    between atoms: CG   and  CD  
    4  A    between atoms: CD   and  CE  

>  <TORSDO>
F 15

>  <BEGIN_>
RES LYS A 131

$$$$
ligand_2_pose_16_2HRL.pdbqt
 OpenBabel07062320523D

  6  5  0  0  0  0  0  0  0  0999 V2000
   33.1930   34.6630    9.2900 C   0  0  0  0  0  0  0  0  0  0  0  0
   32.0600   35.3600   10.0340 C   0  0  0  0  0  0  0  0  0  0  0  0
   30.7090   34.7380    9.7940 C   0  0  0  0  0  0  0  0  0  0  0  0
   30.4810   34.5070    8.3080 C   0  0  0  0  0  0  0  0  0  0  0  0
   29.0770   34.9250    7.9140 C   0  0  0  0  0  0  0  0  0  0  0  0
   29.0150   36.3830    7.6140 N   0  0  0  0  0  0  0  0  0  0  0  0
  1  2  1  0  0  0  0
  3  2  1  0  0  0  0
  4  3  1  0  0  0  0
  5  4  1  0  0  0  0
  6  5  1  0  0  0  0
M  END
>  <EGIN_R>
ES LYS A 135

>  <REMARK>
  4 active torsions:
  status: ('A' for Active; 'I' for Inactive)
    5  A    between atoms: CA   and  CB  
    6  A    between atoms: CB   and  CG  
    7  A    between atoms: CG   and  CD  
    8  A    between atoms: CD   and  CE  

$$$$
