ligand_13_pose_16_2HRL.pdbqt
 OpenBabel07062320523D

 49 49  0  0  1  0  0  0  0  0999 V2000
   29.0740   29.4420   20.5450 N   0  0  0  0  0  0  0  0  0  0  0  0
   28.8880   28.6860   21.7250 C   0  0  0  0  0  0  0  0  0  0  0  0
   28.1790   29.0740   22.6590 O   0  0  0  0  0  0  0  0  0  0  0  0
   29.7130   28.9630   19.8270 H   0  0  0  0  0  0  0  0  0  0  0  0
   28.5090   30.7200   20.2580 C   0  0  0  0  0  0  0  0  0  0  0  0
   29.3780   31.9110   20.4700 C   0  0  2  0  0  0  0  0  0  0  0  0
   29.5020   32.8010   19.2850 C   0  0  1  0  0  0  0  0  0  0  0  0
   30.5260   32.3980   18.2590 C   0  0  2  0  0  0  0  0  0  0  0  0
   31.4490   34.2650   17.1970 C   0  0  2  0  0  0  0  0  0  0  0  0
   31.8560   33.5210   15.9430 C   0  0  0  0  0  0  0  0  0  0  0  0
   31.4830   33.4090   18.2530 O   0  0  0  0  0  0  0  0  0  0  0  0
   31.0790   32.2610   15.8410 C   0  0  1  0  0  0  0  0  0  0  0  0
   29.9590   32.1510   16.8890 C   0  0  1  0  0  0  0  0  0  0  0  0
   30.2320   34.8650   16.9290 O   0  0  0  0  0  0  0  0  0  0  0  0
   30.3730   35.8400   16.9200 H   0  0  0  0  0  0  0  0  0  0  0  0
   32.4720   35.3140   17.4120 C   0  0  0  0  0  0  0  0  0  0  0  0
   32.3500   36.0750   18.3950 O   0  0  0  0  0  0  0  0  0  0  0  0
   33.5400   35.4660   16.5650 O   0  0  0  0  0  0  0  0  0  0  0  0
   33.8920   36.3840   16.2930 H   0  0  0  0  0  0  0  0  0  0  0  0
   30.5260   32.0460   14.5820 O   0  0  0  0  0  0  0  0  0  0  0  0
   30.7140   32.7590   13.9390 H   0  0  0  0  0  0  0  0  0  0  0  0
   29.4810   30.7920   16.7440 N   0  0  0  0  0  0  0  0  0  0  0  0
   28.1350   30.4150   16.5890 C   0  0  0  0  0  0  0  0  0  0  0  0
   30.1980   30.0340   16.7560 H   0  0  0  0  0  0  0  0  0  0  0  0
   27.6670   29.0150   16.4420 C   0  0  0  0  0  0  0  0  0  0  0  0
   27.2730   31.3480   16.5760 O   0  0  0  0  0  0  0  0  0  0  0  0
   28.2750   33.0810   18.7340 O   0  0  0  0  0  0  0  0  0  0  0  0
   27.6340   32.3270   18.7540 H   0  0  0  0  0  0  0  0  0  0  0  0
   30.6820   31.4510   20.7500 O   0  0  0  0  0  0  0  0  0  0  0  0
   30.8270   31.4070   21.7410 H   0  0  0  0  0  0  0  0  0  0  0  0
   29.5190   27.4300   21.8830 O   0  0  0  0  0  0  0  0  0  0  0  0
   30.6480   27.0800   21.1070 C   0  0  0  0  0  0  0  0  0  0  0  0
   31.7440   28.0040   21.5030 C   0  0  0  0  0  0  0  0  0  0  0  0
   32.4510   28.0260   22.6820 C   0  0  0  0  0  0  0  0  0  0  0  0
   32.2690   29.0220   20.7660 N   0  0  0  0  0  0  0  0  0  0  0  0
   33.3550   29.0420   22.6000 N   0  0  0  0  0  0  0  0  0  0  0  0
   33.2170   29.6260   21.4230 N   0  0  0  0  0  0  0  0  0  0  0  0
   34.3170   29.4490   23.5970 C   0  0  0  0  0  0  0  0  0  0  0  0
   35.6810   29.0610   23.2050 C   0  0  0  0  0  0  0  0  0  0  0  0
   36.0130   27.8580   23.2580 O   0  0  0  0  0  0  0  0  0  0  0  0
   36.5600   30.0600   22.7840 O   0  0  0  0  0  0  0  0  0  0  0  0
   36.0740   31.4010   22.9010 C   0  0  0  0  0  0  0  0  0  0  0  0
   36.1040   32.0240   21.5280 C   0  0  0  0  0  0  0  0  0  0  0  0
   29.8670   25.5550   16.9770 C   0  0  0  0  0  0  0  0  0  0  0  0
   28.3450   25.7220   17.0260 C   0  0  0  0  0  0  0  0  0  0  0  0
   27.6010   24.4020   16.8950 C   0  0  0  0  0  0  0  0  0  0  0  0
   26.1530   24.5270   17.2780 C   0  0  0  0  0  0  0  0  0  0  0  0
   25.9520   25.7950   18.1020 C   0  0  0  0  0  0  0  0  0  0  0  0
   25.7950   25.4620   19.5370 N   0  0  0  0  0  0  0  0  0  0  0  0
  1  2  1  0  0  0  0
  2 31  1  0  0  0  0
  2  3  2  0  0  0  0
  4  1  1  0  0  0  0
  5  1  1  0  0  0  0
  6  5  1  6  0  0  0
  6 29  1  0  0  0  0
  7 27  1  6  0  0  0
  7  6  1  0  0  0  0
  8  7  1  1  0  0  0
  9 14  1  6  0  0  0
  9 16  1  0  0  0  0
  9 11  1  0  0  0  0
 10  9  1  0  0  0  0
 11  8  1  0  0  0  0
 12 20  1  6  0  0  0
 12 10  1  0  0  0  0
 12 13  1  0  0  0  0
 13 22  1  1  0  0  0
 13  8  1  0  0  0  0
 15 14  1  0  0  0  0
 16 17  2  0  0  0  0
 18 16  1  0  0  0  0
 19 18  1  0  0  0  0
 21 20  1  0  0  0  0
 22 24  1  0  0  0  0
 23 22  1  0  0  0  0
 25 23  1  0  0  0  0
 26 23  2  0  0  0  0
 27 28  1  0  0  0  0
 29 30  1  0  0  0  0
 32 33  1  0  0  0  0
 32 31  1  0  0  0  0
 33 34  2  0  0  0  0
 35 37  2  0  0  0  0
 35 33  1  0  0  0  0
 36 34  1  0  0  0  0
 36 38  1  0  0  0  0
 37 36  1  0  0  0  0
 39 40  2  0  0  0  0
 39 38  1  0  0  0  0
 41 42  1  0  0  0  0
 41 39  1  0  0  0  0
 43 42  1  0  0  0  0
 44 45  1  0  0  0  0
 46 45  1  0  0  0  0
 46 47  1  0  0  0  0
 47 48  1  0  0  0  0
 48 49  1  0  0  0  0
M  END
>  <REMARK>
 VINA RESULT:    -4.056      1.984      3.289
 INTER + INTRA:         -13.680
 INTER:                  -7.731
 INTRA:                  -5.949
 UNBOUND:                -5.949
 SMILES CCOC(=O)Cn1cc(COC(=O)NC[C@@H](O)C(O)[C@@H]2O[C@@](O)(C(=O)O)C[C@H](O)[C@H]2NC(C)=O)nn1
 SMILES IDX 14 1 12 2 13 3 15 5 16 6 18 7 20 8 22 9 27 10 21 11 28 12
 SMILES IDX 30 13 23 14 24 16 25 17 26 18 29 20 31 22 32 23 33 25 34 26
 SMILES IDX 19 27 17 29 11 31 10 32 9 33 8 34 35 35 7 36 36 37 6 38 4 39
 SMILES IDX 5 40 3 41 2 42 1 43
 H PARENT 14 4 23 15 26 19 29 21 31 24 19 28 17 30
 Flexibility Score: inf
  4 active torsions:
  status: ('A' for Active; 'I' for Inactive)
    1  A    between atoms: CA   and  CB  
    2  A    between atoms: CB   and  CG  
    3  A    between atoms: CG   and  CD  
    4  A    between atoms: CD   and  CE  

>  <TORSDO>
F 18

>  <BEGIN_>
RES LYS A 131

$$$$
ligand_13_pose_16_2HRL.pdbqt
 OpenBabel07062320523D

  6  5  0  0  0  0  0  0  0  0999 V2000
   33.1930   34.6630    9.2900 C   0  0  0  0  0  0  0  0  0  0  0  0
   32.0600   35.3600   10.0340 C   0  0  0  0  0  0  0  0  0  0  0  0
   30.7410   34.6390    9.9350 C   0  0  0  0  0  0  0  0  0  0  0  0
   30.3190   34.4900    8.4810 C   0  0  0  0  0  0  0  0  0  0  0  0
   29.5800   35.7280    8.0110 C   0  0  0  0  0  0  0  0  0  0  0  0
   28.5120   35.3770    7.0340 N   0  0  0  0  0  0  0  0  0  0  0  0
  1  2  1  0  0  0  0
  3  2  1  0  0  0  0
  4  3  1  0  0  0  0
  5  4  1  0  0  0  0
  6  5  1  0  0  0  0
M  END
>  <EGIN_R>
ES LYS A 135

>  <REMARK>
  4 active torsions:
  status: ('A' for Active; 'I' for Inactive)
    5  A    between atoms: CA   and  CB  
    6  A    between atoms: CB   and  CG  
    7  A    between atoms: CG   and  CD  
    8  A    between atoms: CD   and  CE  

$$$$
