ligand_29_pose_5_2HRL.pdbqt
 OpenBabel07062320523D

 54 55  0  0  1  0  0  0  0  0999 V2000
   29.9250   32.3870   15.6220 N   0  0  0  0  0  0  0  0  0  0  0  0
   30.7220   33.3420   14.9770 C   0  0  0  0  0  0  0  0  0  0  0  0
   30.3270   33.9340   13.9490 O   0  0  0  0  0  0  0  0  0  0  0  0
   30.3410   31.9220   16.4850 H   0  0  0  0  0  0  0  0  0  0  0  0
   28.5910   31.9780   15.2200 C   0  0  0  0  0  0  0  0  0  0  0  0
   28.2090   30.6990   15.8740 C   0  0  2  0  0  0  0  0  0  0  0  0
   27.9660   30.8060   17.3600 C   0  0  2  0  0  0  0  0  0  0  0  0
   26.6080   30.3800   17.8040 C   0  0  2  0  0  0  0  0  0  0  0  0
   26.8140   28.1500   18.4590 C   0  0  2  0  0  0  0  0  0  0  0  0
   25.3920   27.7610   18.0820 C   0  0  0  0  0  0  0  0  0  0  0  0
   26.7790   29.4590   18.8580 O   0  0  0  0  0  0  0  0  0  0  0  0
   24.6560   28.9830   17.6130 C   0  0  1  0  0  0  0  0  0  0  0  0
   25.6230   29.9310   16.8120 C   0  0  1  0  0  0  0  0  0  0  0  0
   27.7040   27.8710   17.4270 O   0  0  0  0  0  0  0  0  0  0  0  0
   27.4150   27.1000   16.8730 H   0  0  0  0  0  0  0  0  0  0  0  0
   27.2470   27.3280   19.6260 C   0  0  0  0  0  0  0  0  0  0  0  0
   26.4990   27.2600   20.6290 O   0  0  0  0  0  0  0  0  0  0  0  0
   28.4470   26.6340   19.6470 O   0  0  0  0  0  0  0  0  0  0  0  0
   29.1010   26.6480   18.8550 H   0  0  0  0  0  0  0  0  0  0  0  0
   23.5770   28.6690   16.7930 O   0  0  0  0  0  0  0  0  0  0  0  0
   23.6640   27.7690   16.4130 H   0  0  0  0  0  0  0  0  0  0  0  0
   24.7200   31.0180   16.4070 N   0  0  0  0  0  0  0  0  0  0  0  0
   24.5110   31.4150   15.0650 C   0  0  0  0  0  0  0  0  0  0  0  0
   24.1740   31.5590   17.1410 H   0  0  0  0  0  0  0  0  0  0  0  0
   23.5940   32.5200   14.6870 C   0  0  0  0  0  0  0  0  0  0  0  0
   25.1190   30.8180   14.1420 O   0  0  0  0  0  0  0  0  0  0  0  0
   28.0300   32.2210   17.6870 O   0  0  0  0  0  0  0  0  0  0  0  0
   27.8870   32.2930   18.6610 H   0  0  0  0  0  0  0  0  0  0  0  0
   28.9010   29.5840   15.4800 O   0  0  0  0  0  0  0  0  0  0  0  0
   28.7620   28.8020   16.0480 H   0  0  0  0  0  0  0  0  0  0  0  0
   32.0040   33.6690   15.4690 O   0  0  0  0  0  0  0  0  0  0  0  0
   32.0970   34.7360   16.4250 C   0  0  0  0  0  0  0  0  0  0  0  0
   31.2900   34.4630   17.6120 C   0  0  0  0  0  0  0  0  0  0  0  0
   31.7230   33.8980   18.7840 C   0  0  0  0  0  0  0  0  0  0  0  0
   29.9820   34.7310   17.7530 N   0  0  0  0  0  0  0  0  0  0  0  0
   30.6820   33.8320   19.6080 N   0  0  0  0  0  0  0  0  0  0  0  0
   29.6450   34.3360   18.9740 N   0  0  0  0  0  0  0  0  0  0  0  0
   30.6620   33.2970   20.9650 C   0  0  0  0  0  0  0  0  0  0  0  0
   30.9590   31.8330   20.8950 C   0  0  0  0  0  0  0  0  0  0  0  0
   32.1760   31.3600   21.3850 C   0  0  0  0  0  0  0  0  0  0  0  0
   30.0720   30.9180   20.3710 C   0  0  0  0  0  0  0  0  0  0  0  0
   32.4850   30.0230   21.3470 C   0  0  0  0  0  0  0  0  0  0  0  0
   30.3530   29.5670   20.3190 C   0  0  0  0  0  0  0  0  0  0  0  0
   31.5630   29.1410   20.8120 C   0  0  0  0  0  0  0  0  0  0  0  0
   33.6960   29.5360   21.8310 O   0  0  0  0  0  0  0  0  0  0  0  0
   34.6330   30.4630   22.3510 C   0  0  0  0  0  0  0  0  0  0  0  0
   31.8840   27.7930   20.7790 O   0  0  0  0  0  0  0  0  0  0  0  0
   31.2320   26.8460   21.6040 C   0  0  0  0  0  0  0  0  0  0  0  0
   29.8670   25.5550   16.9770 C   0  0  0  0  0  0  0  0  0  0  0  0
   28.3450   25.7220   17.0260 C   0  0  0  0  0  0  0  0  0  0  0  0
   27.5990   24.4260   16.7460 C   0  0  0  0  0  0  0  0  0  0  0  0
   26.9420   23.8730   17.9800 C   0  0  0  0  0  0  0  0  0  0  0  0
   25.5770   23.2990   17.6160 C   0  0  0  0  0  0  0  0  0  0  0  0
   24.7680   24.3060   16.8900 N   0  0  0  0  0  0  0  0  0  0  0  0
  1  4  1  0  0  0  0
  2 31  1  0  0  0  0
  2  1  1  0  0  0  0
  3  2  2  0  0  0  0
  5  1  1  0  0  0  0
  6  5  1  1  0  0  0
  6  7  1  0  0  0  0
  7 27  1  6  0  0  0
  8  7  1  6  0  0  0
  8 11  1  0  0  0  0
  9 14  1  6  0  0  0
  9 11  1  0  0  0  0
  9 16  1  0  0  0  0
 10  9  1  0  0  0  0
 12 20  1  6  0  0  0
 12 10  1  0  0  0  0
 13 22  1  1  0  0  0
 13 12  1  0  0  0  0
 13  8  1  0  0  0  0
 15 14  1  0  0  0  0
 16 18  1  0  0  0  0
 16 17  2  0  0  0  0
 19 18  1  0  0  0  0
 21 20  1  0  0  0  0
 22 24  1  0  0  0  0
 23 22  1  0  0  0  0
 25 23  1  0  0  0  0
 26 23  2  0  0  0  0
 27 28  1  0  0  0  0
 29  6  1  0  0  0  0
 29 30  1  0  0  0  0
 31 32  1  0  0  0  0
 32 33  1  0  0  0  0
 33 35  1  0  0  0  0
 33 34  2  0  0  0  0
 34 36  1  0  0  0  0
 35 37  2  0  0  0  0
 36 38  1  0  0  0  0
 37 36  1  0  0  0  0
 39 38  1  0  0  0  0
 39 40  2  0  0  0  0
 41 39  1  0  0  0  0
 42 40  1  0  0  0  0
 42 45  1  0  0  0  0
 43 41  2  0  0  0  0
 43 44  1  0  0  0  0
 44 42  2  0  0  0  0
 45 46  1  0  0  0  0
 47 44  1  0  0  0  0
 47 48  1  0  0  0  0
 49 50  1  0  0  0  0
 51 50  1  0  0  0  0
 51 52  1  0  0  0  0
 53 52  1  0  0  0  0
 54 53  1  0  0  0  0
M  END
>  <REMARK>
 VINA RESULT:    -5.218      2.751      6.142
 INTER + INTRA:         -15.065
 INTER:                  -8.657
 INTRA:                  -6.408
 UNBOUND:                -5.118
 SMILES COc1ccc(Cn2cc(COC(=O)NC[C@@H](O)C(O)[C@@H]3O[C@@](O)(C(=O)O)C[C@H](O)[C@H]3NC(C)=O)nn2)cc1OC
 SMILES IDX 15 1 13 2 14 3 16 5 17 6 19 7 21 8 23 9 28 10 22 11 29 12
 SMILES IDX 31 13 24 14 25 16 26 17 27 18 30 20 32 22 33 23 34 25 35 26
 SMILES IDX 20 27 18 29 12 31 11 32 10 33 9 34 36 35 8 36 37 37 7 38
 SMILES IDX 6 39 38 40 5 41 39 42 4 43 3 44 40 45 41 46 2 47 1 48
 H PARENT 15 4 24 15 27 19 30 21 32 24 20 28 18 30
 Flexibility Score: inf
  4 active torsions:
  status: ('A' for Active; 'I' for Inactive)
    1  A    between atoms: CA   and  CB  
    2  A    between atoms: CB   and  CG  
    3  A    between atoms: CG   and  CD  
    4  A    between atoms: CD   and  CE  

>  <TORSDO>
F 18

>  <BEGIN_>
RES LYS A 131

$$$$
ligand_29_pose_5_2HRL.pdbqt
 OpenBabel07062320523D

  6  5  0  0  0  0  0  0  0  0999 V2000
   33.1930   34.6630    9.2900 C   0  0  0  0  0  0  0  0  0  0  0  0
   32.0600   35.3600   10.0340 C   0  0  0  0  0  0  0  0  0  0  0  0
   30.7940   35.4810    9.2260 C   0  0  0  0  0  0  0  0  0  0  0  0
   30.2130   34.1070    8.9290 C   0  0  0  0  0  0  0  0  0  0  0  0
   28.7060   34.1170    9.1010 C   0  0  0  0  0  0  0  0  0  0  0  0
   28.1960   35.5040    9.2810 N   0  0  0  0  0  0  0  0  0  0  0  0
  1  2  1  0  0  0  0
  3  2  1  0  0  0  0
  4  5  1  0  0  0  0
  4  3  1  0  0  0  0
  5  6  1  0  0  0  0
M  END
>  <EGIN_R>
ES LYS A 135

>  <REMARK>
  4 active torsions:
  status: ('A' for Active; 'I' for Inactive)
    5  A    between atoms: CA   and  CB  
    6  A    between atoms: CB   and  CG  
    7  A    between atoms: CG   and  CD  
    8  A    between atoms: CD   and  CE  

$$$$
