ligand_86_pose_7_2HRL.pdbqt
 OpenBabel07062320523D

 52 54  0  0  1  0  0  0  0  0999 V2000
   24.2140   37.3910   10.4200 C   0  0  0  0  0  0  0  0  0  0  0  0
   25.0260   36.8410    9.2980 C   0  0  2  0  0  0  0  0  0  0  0  0
   26.3860   37.4540    9.1740 C   0  0  2  0  0  0  0  0  0  0  0  0
   27.3040   36.6620    8.2720 C   0  0  2  0  0  0  0  0  0  0  0  0
   29.4200   35.7330    8.2040 C   0  0  2  0  0  0  0  0  0  0  0  0
   28.9700   35.4740    6.7920 C   0  0  0  0  0  0  0  0  0  0  0  0
   28.4270   36.2870    8.9960 O   0  0  0  0  0  0  0  0  0  0  0  0
   28.4040   36.6830    6.1120 C   0  0  1  0  0  0  0  0  0  0  0  0
   27.7780   37.5680    7.1540 C   0  0  1  0  0  0  0  0  0  0  0  0
   30.5850   36.4960    8.2630 O   0  0  0  0  0  0  0  0  0  0  0  0
   30.5630   37.2120    7.5860 H   0  0  0  0  0  0  0  0  0  0  0  0
   29.7530   34.4030    8.8060 C   0  0  0  0  0  0  0  0  0  0  0  0
   28.8470   33.6940    9.3600 O   0  0  0  0  0  0  0  0  0  0  0  0
   31.0230   33.8730    8.7980 O   0  0  0  0  0  0  0  0  0  0  0  0
   31.1400   32.9170    8.4400 H   0  0  0  0  0  0  0  0  0  0  0  0
   29.2980   37.3310    5.2920 O   0  0  0  0  0  0  0  0  0  0  0  0
   28.7850   37.7460    4.5500 H   0  0  0  0  0  0  0  0  0  0  0  0
   26.7210   38.4000    6.6360 N   0  0  0  0  0  0  0  0  0  0  0  0
   26.9590   39.7150    6.1330 C   0  0  0  0  0  0  0  0  0  0  0  0
   25.7340   38.0600    6.6130 H   0  0  0  0  0  0  0  0  0  0  0  0
   25.8330   40.5170    5.6160 C   0  0  0  0  0  0  0  0  0  0  0  0
   28.1370   40.1410    6.1520 O   0  0  0  0  0  0  0  0  0  0  0  0
   26.9740   37.5140   10.4370 O   0  0  0  0  0  0  0  0  0  0  0  0
   27.2880   38.4090   10.6560 H   0  0  0  0  0  0  0  0  0  0  0  0
   24.3600   37.0080    8.0620 O   0  0  0  0  0  0  0  0  0  0  0  0
   24.6640   37.8970    7.7230 H   0  0  0  0  0  0  0  0  0  0  0  0
   24.3840   36.6420   11.6420 N   0  0  0  0  0  0  0  0  0  0  0  0
   23.6420   35.4500   11.8470 C   0  0  0  0  0  0  0  0  0  0  0  0
   25.0410   36.9370   12.4040 H   0  0  0  0  0  0  0  0  0  0  0  0
   22.8210   34.9950   11.0050 O   0  0  0  0  0  0  0  0  0  0  0  0
   23.7690   34.6870   13.0080 O   0  0  0  0  0  0  0  0  0  0  0  0
   24.5630   33.5190   13.0700 C   0  0  0  0  0  0  0  0  0  0  0  0
   25.7720   33.7700   13.9010 C   0  0  0  0  0  0  0  0  0  0  0  0
   26.9090   34.4200   13.4700 C   0  0  0  0  0  0  0  0  0  0  0  0
   26.0140   33.4420   15.1820 N   0  0  0  0  0  0  0  0  0  0  0  0
   27.8090   34.4710   14.4920 N   0  0  0  0  0  0  0  0  0  0  0  0
   27.2150   33.8630   15.5040 N   0  0  0  0  0  0  0  0  0  0  0  0
   29.1400   35.0690   14.4640 C   0  0  2  0  0  0  0  0  0  0  0  0
   30.0720   34.0930   13.8470 C   0  0  0  0  0  0  0  0  0  0  0  0
   29.4780   35.4880   15.8510 C   0  0  0  0  0  0  0  0  0  0  0  0
   31.4650   34.1210   14.3620 C   0  0  1  0  0  0  0  0  0  0  0  0
   30.8730   35.1220   16.2850 C   0  0  2  0  0  0  0  0  0  0  0  0
   31.7420   35.3090   15.1370 N   0  0  0  0  0  0  0  0  0  0  0  0
   31.6030   33.0230   15.4060 C   0  0  0  0  0  0  0  0  0  0  0  0
   30.8950   33.6460   16.5920 C   0  0  0  0  0  0  0  0  0  0  0  0
   33.1340   35.3470   15.5080 C   0  0  0  0  0  0  0  0  0  0  0  0
   29.8670   25.5550   16.9770 C   0  0  0  0  0  0  0  0  0  0  0  0
   28.3450   25.7220   17.0260 C   0  0  0  0  0  0  0  0  0  0  0  0
   27.5990   24.4510   16.6520 C   0  0  0  0  0  0  0  0  0  0  0  0
   27.0390   23.7470   17.8570 C   0  0  0  0  0  0  0  0  0  0  0  0
   26.2580   24.7410   18.7100 C   0  0  0  0  0  0  0  0  0  0  0  0
   25.4380   24.0280   19.7180 N   0  0  0  0  0  0  0  0  0  0  0  0
  1 27  1  0  0  0  0
  2  1  1  1  0  0  0
  3  2  1  0  0  0  0
  3 23  1  1  0  0  0
  4  7  1  0  0  0  0
  4  3  1  1  0  0  0
  5 10  1  1  0  0  0
  5 12  1  0  0  0  0
  5  7  1  0  0  0  0
  6  5  1  0  0  0  0
  8 16  1  1  0  0  0
  8  6  1  0  0  0  0
  8  9  1  0  0  0  0
  9 18  1  6  0  0  0
  9  4  1  0  0  0  0
 11 10  1  0  0  0  0
 12 13  2  0  0  0  0
 14 12  1  0  0  0  0
 15 14  1  0  0  0  0
 17 16  1  0  0  0  0
 19 22  2  0  0  0  0
 19 18  1  0  0  0  0
 20 18  1  0  0  0  0
 21 19  1  0  0  0  0
 23 24  1  0  0  0  0
 25  2  1  0  0  0  0
 26 25  1  0  0  0  0
 27 28  1  0  0  0  0
 27 29  1  0  0  0  0
 28 31  1  0  0  0  0
 30 28  2  0  0  0  0
 31 32  1  0  0  0  0
 32 33  1  0  0  0  0
 33 35  1  0  0  0  0
 34 33  2  0  0  0  0
 34 36  1  0  0  0  0
 35 37  2  0  0  0  0
 36 37  1  0  0  0  0
 38 39  1  1  0  0  0
 38 36  1  0  0  0  0
 38 40  1  0  0  0  0
 41 39  1  1  0  0  0
 41 43  1  0  0  0  0
 41 44  1  0  0  0  0
 42 40  1  6  0  0  0
 42 45  1  0  0  0  0
 43 46  1  0  0  0  0
 43 42  1  0  0  0  0
 44 45  1  0  0  0  0
 47 48  1  0  0  0  0
 49 48  1  0  0  0  0
 49 50  1  0  0  0  0
 50 51  1  0  0  0  0
 51 52  1  0  0  0  0
M  END
>  <REMARK>
 VINA RESULT:    -4.510      6.069     10.416
 INTER + INTRA:         -14.361
 INTER:                 -10.610
 INTRA:                  -3.751
 UNBOUND:                -6.555
 SMILES CC(=O)N[C@@H]1[C@@H](O)C[C@](O)(C(=O)O)O[C@H]1C(O)[C@H](O)CNC(=O)OCc1cn([C@H]2C[C@H]3CC[C@@H](C2)N3C)nn1
 SMILES IDX 20 1 18 2 16 3 15 4 9 5 8 6 14 7 6 8 5 9 10 10 11 12 12 13
 SMILES IDX 13 14 7 16 4 18 2 19 1 21 3 22 17 23 19 25 21 27 22 28 23 30
 SMILES IDX 24 31 25 32 26 33 27 34 39 35 28 36 38 37 29 38 35 39 30 40
 SMILES IDX 34 41 31 42 36 43 33 44 32 45 37 46
 H PARENT 10 11 13 15 7 17 4 20 17 24 19 26 21 29
 Flexibility Score: inf
  4 active torsions:
  status: ('A' for Active; 'I' for Inactive)
    1  A    between atoms: CA   and  CB  
    2  A    between atoms: CB   and  CG  
    3  A    between atoms: CG   and  CD  
    4  A    between atoms: CD   and  CE  

>  <TORSDO>
F 15

>  <BEGIN_>
RES LYS A 131

$$$$
ligand_86_pose_7_2HRL.pdbqt
 OpenBabel07062320523D

  6  5  0  0  0  0  0  0  0  0999 V2000
   33.1930   34.6630    9.2900 C   0  0  0  0  0  0  0  0  0  0  0  0
   32.0600   35.3600   10.0340 C   0  0  0  0  0  0  0  0  0  0  0  0
   32.4940   36.0060   11.3250 C   0  0  0  0  0  0  0  0  0  0  0  0
   31.4140   36.9410   11.8470 C   0  0  0  0  0  0  0  0  0  0  0  0
   31.5060   38.2930   11.1660 C   0  0  0  0  0  0  0  0  0  0  0  0
   30.1560   38.8010   10.7970 N   0  0  0  0  0  0  0  0  0  0  0  0
  1  2  1  0  0  0  0
  2  3  1  0  0  0  0
  3  4  1  0  0  0  0
  5  4  1  0  0  0  0
  6  5  1  0  0  0  0
M  END
>  <EGIN_R>
ES LYS A 135

>  <REMARK>
  4 active torsions:
  status: ('A' for Active; 'I' for Inactive)
    5  A    between atoms: CA   and  CB  
    6  A    between atoms: CB   and  CG  
    7  A    between atoms: CG   and  CD  
    8  A    between atoms: CD   and  CE  

$$$$
