ligand_12_pose_0_2HRL.pdbqt
 OpenBabel07062320523D

 52 53  0  0  1  0  0  0  0  0999 V2000
   22.1470   38.4680    7.8740 N   0  0  0  0  0  0  0  0  0  0  0  0
   21.4690   38.1490    9.0870 C   0  0  0  0  0  0  0  0  0  0  0  0
   21.5640   38.8950   10.1090 O   0  0  0  0  0  0  0  0  0  0  0  0
   22.0460   37.8380    7.0620 H   0  0  0  0  0  0  0  0  0  0  0  0
   22.9450   39.6770    7.8610 C   0  0  0  0  0  0  0  0  0  0  0  0
   24.3280   39.4390    7.3170 C   0  0  2  0  0  0  0  0  0  0  0  0
   25.3060   39.2520    8.4570 C   0  0  2  0  0  0  0  0  0  0  0  0
   26.5790   38.6030    8.0260 C   0  0  2  0  0  0  0  0  0  0  0  0
   27.5610   37.6250    6.1530 C   0  0  2  0  0  0  0  0  0  0  0  0
   28.4790   36.9380    7.1550 C   0  0  0  0  0  0  0  0  0  0  0  0
   26.3990   38.1180    6.7350 O   0  0  0  0  0  0  0  0  0  0  0  0
   27.5890   36.3340    8.2190 C   0  0  1  0  0  0  0  0  0  0  0  0
   27.0040   37.5110    8.9830 C   0  0  1  0  0  0  0  0  0  0  0  0
   27.1550   36.6240    5.2730 O   0  0  0  0  0  0  0  0  0  0  0  0
   27.8140   36.4740    4.5490 H   0  0  0  0  0  0  0  0  0  0  0  0
   28.2930   38.6490    5.3980 C   0  0  0  0  0  0  0  0  0  0  0  0
   29.5040   38.8610    5.6580 O   0  0  0  0  0  0  0  0  0  0  0  0
   27.7200   39.4180    4.3920 O   0  0  0  0  0  0  0  0  0  0  0  0
   28.3400   39.9640    3.8020 H   0  0  0  0  0  0  0  0  0  0  0  0
   26.5740   35.5630    7.6600 O   0  0  0  0  0  0  0  0  0  0  0  0
   26.0270   36.1510    7.0540 H   0  0  0  0  0  0  0  0  0  0  0  0
   28.0530   38.0170    9.8430 N   0  0  0  0  0  0  0  0  0  0  0  0
   27.7980   38.2380   11.2230 C   0  0  0  0  0  0  0  0  0  0  0  0
   29.0220   38.2370    9.5050 H   0  0  0  0  0  0  0  0  0  0  0  0
   28.8400   38.7550   12.1520 C   0  0  0  0  0  0  0  0  0  0  0  0
   26.6640   37.9990   11.7120 O   0  0  0  0  0  0  0  0  0  0  0  0
   24.6750   38.6450    9.5150 O   0  0  0  0  0  0  0  0  0  0  0  0
   25.3320   38.0240    9.9400 H   0  0  0  0  0  0  0  0  0  0  0  0
   24.6860   40.5100    6.5080 O   0  0  0  0  0  0  0  0  0  0  0  0
   23.9700   41.1990    6.5250 H   0  0  0  0  0  0  0  0  0  0  0  0
   20.6760   37.0160    9.2160 O   0  0  0  0  0  0  0  0  0  0  0  0
   21.1670   35.6960    9.1060 C   0  0  0  0  0  0  0  0  0  0  0  0
   22.4780   35.5140    9.7670 C   0  0  0  0  0  0  0  0  0  0  0  0
   22.7930   35.1640   11.0630 C   0  0  0  0  0  0  0  0  0  0  0  0
   23.6630   35.6760    9.1530 N   0  0  0  0  0  0  0  0  0  0  0  0
   24.1410   35.1240   11.2010 N   0  0  0  0  0  0  0  0  0  0  0  0
   24.6280   35.4410   10.0160 N   0  0  0  0  0  0  0  0  0  0  0  0
   24.9060   34.7960   12.4140 C   0  0  0  0  0  0  0  0  0  0  0  0
   25.1020   33.4200   12.4750 O   0  0  0  0  0  0  0  0  0  0  0  0
   24.4180   32.8330   13.5140 C   0  0  0  0  0  0  0  0  0  0  0  0
   23.6670   31.6160   13.1450 C   0  0  0  0  0  0  0  0  0  0  0  0
   22.3250   31.7070   12.8350 C   0  0  0  0  0  0  0  0  0  0  0  0
   24.2790   30.3890   13.0970 C   0  0  0  0  0  0  0  0  0  0  0  0
   21.5960   30.5700   12.4770 C   0  0  0  0  0  0  0  0  0  0  0  0
   23.5510   29.2650   12.7410 C   0  0  0  0  0  0  0  0  0  0  0  0
   22.2290   29.3430   12.4350 C   0  0  0  0  0  0  0  0  0  0  0  0
   29.8670   25.5550   16.9770 C   0  0  0  0  0  0  0  0  0  0  0  0
   28.3450   25.7220   17.0260 C   0  0  0  0  0  0  0  0  0  0  0  0
   27.5990   24.4320   16.7210 C   0  0  0  0  0  0  0  0  0  0  0  0
   26.9820   23.8300   17.9530 C   0  0  0  0  0  0  0  0  0  0  0  0
   25.5950   23.2920   17.6170 C   0  0  0  0  0  0  0  0  0  0  0  0
   24.7470   24.3640   17.0460 N   0  0  0  0  0  0  0  0  0  0  0  0
  1  2  1  0  0  0  0
  2 31  1  0  0  0  0
  2  3  2  0  0  0  0
  4  1  1  0  0  0  0
  5  1  1  0  0  0  0
  6  5  1  1  0  0  0
  6  7  1  0  0  0  0
  7 27  1  1  0  0  0
  8  7  1  1  0  0  0
  8 13  1  0  0  0  0
  9 14  1  6  0  0  0
  9 11  1  0  0  0  0
  9 10  1  0  0  0  0
 10 12  1  0  0  0  0
 11  8  1  0  0  0  0
 12 20  1  6  0  0  0
 12 13  1  0  0  0  0
 13 22  1  1  0  0  0
 15 14  1  0  0  0  0
 16 17  2  0  0  0  0
 16  9  1  0  0  0  0
 18 16  1  0  0  0  0
 19 18  1  0  0  0  0
 21 20  1  0  0  0  0
 22 23  1  0  0  0  0
 23 26  2  0  0  0  0
 23 25  1  0  0  0  0
 24 22  1  0  0  0  0
 27 28  1  0  0  0  0
 29 30  1  0  0  0  0
 29  6  1  0  0  0  0
 32 31  1  0  0  0  0
 32 33  1  0  0  0  0
 33 34  2  0  0  0  0
 34 36  1  0  0  0  0
 35 33  1  0  0  0  0
 35 37  2  0  0  0  0
 36 38  1  0  0  0  0
 37 36  1  0  0  0  0
 38 39  1  0  0  0  0
 39 40  1  0  0  0  0
 41 40  1  0  0  0  0
 42 41  2  0  0  0  0
 43 41  1  0  0  0  0
 44 42  1  0  0  0  0
 45 43  2  0  0  0  0
 46 44  2  0  0  0  0
 46 45  1  0  0  0  0
 47 48  1  0  0  0  0
 49 48  1  0  0  0  0
 49 50  1  0  0  0  0
 51 50  1  0  0  0  0
 52 51  1  0  0  0  0
M  END
>  <REMARK>
 VINA RESULT:    -6.674      0.000      0.000
 INTER + INTRA:         -16.495
 INTER:                 -10.086
 INTRA:                  -6.409
 UNBOUND:                -3.774
 SMILES CC(=O)N[C@@H]1[C@@H](O)C[C@](O)(C(=O)O)O[C@H]1C(O)[C@H](O)CNC(=O)OCc1cn(COCc2ccccc2)nn1
 SMILES IDX 21 1 22 2 23 3 20 5 18 6 16 7 15 8 9 9 8 10 14 11 6 12 5 13
 SMILES IDX 10 14 11 16 12 17 13 18 7 20 4 22 2 23 1 25 3 26 17 27 19 29
 SMILES IDX 24 31 25 32 26 33 27 34 39 35 28 36 38 37 29 38 30 39 31 40
 SMILES IDX 32 41 33 42 37 43 34 44 36 45 35 46
 H PARENT 21 4 10 15 13 19 7 21 4 24 17 28 19 30
 Flexibility Score: inf
  4 active torsions:
  status: ('A' for Active; 'I' for Inactive)
    1  A    between atoms: CA   and  CB  
    2  A    between atoms: CB   and  CG  
    3  A    between atoms: CG   and  CD  
    4  A    between atoms: CD   and  CE  

>  <TORSDO>
F 18

>  <BEGIN_>
RES LYS A 131

$$$$
ligand_12_pose_0_2HRL.pdbqt
 OpenBabel07062320523D

  6  5  0  0  0  0  0  0  0  0999 V2000
   33.1930   34.6630    9.2900 C   0  0  0  0  0  0  0  0  0  0  0  0
   32.0600   35.3600   10.0340 C   0  0  0  0  0  0  0  0  0  0  0  0
   30.6890   34.9780    9.5390 C   0  0  0  0  0  0  0  0  0  0  0  0
   29.7440   34.7380   10.7060 C   0  0  0  0  0  0  0  0  0  0  0  0
   30.3140   35.3280   11.9820 C   0  0  0  0  0  0  0  0  0  0  0  0
   29.9800   34.4810   13.1600 N   0  0  0  0  0  0  0  0  0  0  0  0
  1  2  1  0  0  0  0
  3  2  1  0  0  0  0
  3  4  1  0  0  0  0
  4  5  1  0  0  0  0
  5  6  1  0  0  0  0
M  END
>  <EGIN_R>
ES LYS A 135

>  <REMARK>
  4 active torsions:
  status: ('A' for Active; 'I' for Inactive)
    5  A    between atoms: CA   and  CB  
    6  A    between atoms: CB   and  CG  
    7  A    between atoms: CG   and  CD  
    8  A    between atoms: CD   and  CE  

$$$$
