ligand_65_pose_12_2HRL.pdbqt
 OpenBabel07062320523D

 53 54  0  0  1  0  0  0  0  0999 V2000
   29.4930   37.9410   14.2940 N   0  0  0  0  0  0  0  0  0  0  0  0
   29.5460   39.3380   14.1220 C   0  0  0  0  0  0  0  0  0  0  0  0
   28.6750   40.1310   14.5430 O   0  0  0  0  0  0  0  0  0  0  0  0
   30.2560   37.2970   13.9260 H   0  0  0  0  0  0  0  0  0  0  0  0
   28.3710   37.3460   14.9890 C   0  0  0  0  0  0  0  0  0  0  0  0
   28.7260   35.9420   15.3670 C   0  0  2  0  0  0  0  0  0  0  0  0
   28.2570   34.9780   14.2960 C   0  0  2  0  0  0  0  0  0  0  0  0
   29.2420   33.8200   14.2480 C   0  0  2  0  0  0  0  0  0  0  0  0
   29.3200   32.5620   16.2390 C   0  0  2  0  0  0  0  0  0  0  0  0
   30.5910   33.2300   16.6580 C   0  0  0  0  0  0  0  0  0  0  0  0
   28.8040   32.8490   15.0480 O   0  0  0  0  0  0  0  0  0  0  0  0
   31.4300   33.4410   15.4040 C   0  0  1  0  0  0  0  0  0  0  0  0
   30.5920   34.4060   14.5660 C   0  0  1  0  0  0  0  0  0  0  0  0
   28.3620   32.8940   17.2270 O   0  0  0  0  0  0  0  0  0  0  0  0
   28.6460   33.6760   17.7550 H   0  0  0  0  0  0  0  0  0  0  0  0
   29.5360   31.0970   16.3480 C   0  0  0  0  0  0  0  0  0  0  0  0
   28.9440   30.3020   15.5750 O   0  0  0  0  0  0  0  0  0  0  0  0
   30.3860   30.5460   17.2920 O   0  0  0  0  0  0  0  0  0  0  0  0
   30.8160   31.0980   18.0370 H   0  0  0  0  0  0  0  0  0  0  0  0
   32.6350   34.0530   15.6890 O   0  0  0  0  0  0  0  0  0  0  0  0
   33.1050   34.2000   14.8190 H   0  0  0  0  0  0  0  0  0  0  0  0
   31.2930   34.7880   13.3600 N   0  0  0  0  0  0  0  0  0  0  0  0
   32.0440   35.9890   13.2990 C   0  0  0  0  0  0  0  0  0  0  0  0
   31.2100   34.1290   12.5530 H   0  0  0  0  0  0  0  0  0  0  0  0
   32.7380   36.3220   12.0350 C   0  0  0  0  0  0  0  0  0  0  0  0
   32.1360   36.7690   14.2720 O   0  0  0  0  0  0  0  0  0  0  0  0
   28.2850   35.6530   13.0470 O   0  0  0  0  0  0  0  0  0  0  0  0
   28.5870   36.5770   13.2820 H   0  0  0  0  0  0  0  0  0  0  0  0
   28.1430   35.6430   16.6060 O   0  0  0  0  0  0  0  0  0  0  0  0
   28.4130   36.2840   17.2870 H   0  0  0  0  0  0  0  0  0  0  0  0
   30.6430   39.8880   13.4360 O   0  0  0  0  0  0  0  0  0  0  0  0
   30.3740   40.6550   12.2830 C   0  0  0  0  0  0  0  0  0  0  0  0
   30.1380   39.7240   11.1320 C   0  0  0  0  0  0  0  0  0  0  0  0
   28.9230   39.3610   10.5810 C   0  0  0  0  0  0  0  0  0  0  0  0
   31.0550   39.0500   10.4010 N   0  0  0  0  0  0  0  0  0  0  0  0
   29.1220   38.5040    9.5590 N   0  0  0  0  0  0  0  0  0  0  0  0
   30.4220   38.3360    9.4760 N   0  0  0  0  0  0  0  0  0  0  0  0
   28.1120   37.9060    8.7390 C   0  0  0  0  0  0  0  0  0  0  0  0
   28.1980   37.9030    7.3970 N   0  0  0  0  0  0  0  0  0  0  0  0
   27.0310   37.3210    9.2910 N   0  0  0  0  0  0  0  0  0  0  0  0
   27.2740   37.3530    6.5930 C   0  0  0  0  0  0  0  0  0  0  0  0
   26.0610   36.7490    8.5320 C   0  0  0  0  0  0  0  0  0  0  0  0
   26.2030   36.7770    7.2040 N   0  0  0  0  0  0  0  0  0  0  0  0
   24.8630   36.1010    9.1300 C   0  0  0  0  0  0  0  0  0  0  0  0
   27.3620   37.3480    5.1850 N   0  0  0  0  0  0  0  0  0  0  0  0
   26.6460   37.8270    4.6230 H   0  0  0  0  0  0  0  0  0  0  0  0
   28.1440   36.8640    4.7230 H   0  0  0  0  0  0  0  0  0  0  0  0
   29.8670   25.5550   16.9770 C   0  0  0  0  0  0  0  0  0  0  0  0
   28.3450   25.7220   17.0260 C   0  0  0  0  0  0  0  0  0  0  0  0
   27.6030   24.3960   16.9700 C   0  0  0  0  0  0  0  0  0  0  0  0
   26.2200   24.4950   17.5510 C   0  0  0  0  0  0  0  0  0  0  0  0
   25.5570   23.1220   17.5250 C   0  0  0  0  0  0  0  0  0  0  0  0
   24.5140   23.0300   18.5740 N   0  0  0  0  0  0  0  0  0  0  0  0
  1  5  1  0  0  0  0
  2  1  1  0  0  0  0
  2  3  2  0  0  0  0
  4  1  1  0  0  0  0
  6  5  1  6  0  0  0
  6 29  1  0  0  0  0
  7 27  1  6  0  0  0
  7  6  1  0  0  0  0
  8  7  1  1  0  0  0
  8 13  1  0  0  0  0
  8 11  1  0  0  0  0
  9 16  1  1  0  0  0
  9 10  1  0  0  0  0
  9 14  1  0  0  0  0
 11  9  1  0  0  0  0
 12 20  1  1  0  0  0
 12 10  1  0  0  0  0
 13 22  1  6  0  0  0
 13 12  1  0  0  0  0
 14 15  1  0  0  0  0
 16 18  1  0  0  0  0
 17 16  2  0  0  0  0
 18 19  1  0  0  0  0
 21 20  1  0  0  0  0
 23 22  1  0  0  0  0
 23 26  2  0  0  0  0
 24 22  1  0  0  0  0
 25 23  1  0  0  0  0
 27 28  1  0  0  0  0
 29 30  1  0  0  0  0
 31  2  1  0  0  0  0
 32 31  1  0  0  0  0
 33 32  1  0  0  0  0
 34 33  2  0  0  0  0
 35 33  1  0  0  0  0
 36 34  1  0  0  0  0
 37 36  1  0  0  0  0
 37 35  2  0  0  0  0
 38 40  1  0  0  0  0
 38 36  1  0  0  0  0
 39 38  2  0  0  0  0
 41 43  1  0  0  0  0
 41 39  2  0  0  0  0
 42 44  1  0  0  0  0
 42 40  2  0  0  0  0
 43 42  1  0  0  0  0
 45 41  1  0  0  0  0
 46 45  1  0  0  0  0
 47 45  1  0  0  0  0
 48 49  1  0  0  0  0
 50 49  1  0  0  0  0
 50 51  1  0  0  0  0
 52 51  1  0  0  0  0
 52 53  1  0  0  0  0
M  END
>  <REMARK>
 VINA RESULT:    -5.093      4.483      9.058
 INTER + INTRA:         -14.098
 INTER:                  -8.511
 INTRA:                  -5.587
 UNBOUND:                -5.134
 SMILES CC(=O)N[C@@H]1[C@@H](O)C[C@](O)(C(=O)O)O[C@H]1C(O)[C@H](O)CNC(=O)OCc1cn(-c2nc(C)nc(N)n2)nn1
 SMILES IDX 21 1 22 2 23 3 20 5 18 6 16 7 15 8 9 9 8 10 14 11 6 12 5 13
 SMILES IDX 10 14 11 16 12 17 13 18 7 20 4 22 2 23 1 25 3 26 17 27 19 29
 SMILES IDX 24 31 25 32 26 33 27 34 38 35 28 36 37 37 29 38 36 39 30 40
 SMILES IDX 34 41 31 42 33 43 32 44 35 45
 H PARENT 21 4 10 15 13 19 7 21 4 24 17 28 19 30 35 46 35 47
 Flexibility Score: inf
  4 active torsions:
  status: ('A' for Active; 'I' for Inactive)
    1  A    between atoms: CA   and  CB  
    2  A    between atoms: CB   and  CG  
    3  A    between atoms: CG   and  CD  
    4  A    between atoms: CD   and  CE  

>  <TORSDO>
F 16

>  <BEGIN_>
RES LYS A 131

$$$$
ligand_65_pose_12_2HRL.pdbqt
 OpenBabel07062320523D

  6  5  0  0  0  0  0  0  0  0999 V2000
   33.1930   34.6630    9.2900 C   0  0  0  0  0  0  0  0  0  0  0  0
   32.0600   35.3600   10.0340 C   0  0  0  0  0  0  0  0  0  0  0  0
   30.7170   34.7070    9.8350 C   0  0  0  0  0  0  0  0  0  0  0  0
   30.3030   34.7650    8.3730 C   0  0  0  0  0  0  0  0  0  0  0  0
   28.8400   34.3950    8.2180 C   0  0  0  0  0  0  0  0  0  0  0  0
   28.2570   33.9580    9.5160 N   0  0  0  0  0  0  0  0  0  0  0  0
  1  2  1  0  0  0  0
  3  2  1  0  0  0  0
  4  3  1  0  0  0  0
  5  4  1  0  0  0  0
  5  6  1  0  0  0  0
M  END
>  <EGIN_R>
ES LYS A 135

>  <REMARK>
  4 active torsions:
  status: ('A' for Active; 'I' for Inactive)
    5  A    between atoms: CA   and  CB  
    6  A    between atoms: CB   and  CG  
    7  A    between atoms: CG   and  CD  
    8  A    between atoms: CD   and  CE  

$$$$
