ligand_87_pose_5_2HRL.pdbqt
 OpenBabel07062320523D

 52 54  0  0  1  0  0  0  0  0999 V2000
   27.6050   39.1020   10.9090 C   0  0  0  0  0  0  0  0  0  0  0  0
   29.0460   38.7090   10.7740 C   0  0  2  0  0  0  0  0  0  0  0  0
   29.4640   38.6820    9.3090 C   0  0  2  0  0  0  0  0  0  0  0  0
   28.7030   37.5440    8.6310 C   0  0  2  0  0  0  0  0  0  0  0  0
   29.2330   35.4350    7.7690 C   0  0  2  0  0  0  0  0  0  0  0  0
   28.7690   35.7630    6.3850 C   0  0  0  0  0  0  0  0  0  0  0  0
   29.5280   36.4930    8.5640 O   0  0  0  0  0  0  0  0  0  0  0  0
   28.4400   37.1990    6.1540 C   0  0  1  0  0  0  0  0  0  0  0  0
   28.0320   37.9790    7.3590 C   0  0  1  0  0  0  0  0  0  0  0  0
   30.4090   34.6860    7.6600 O   0  0  0  0  0  0  0  0  0  0  0  0
   30.9380   34.9240    6.8610 H   0  0  0  0  0  0  0  0  0  0  0  0
   28.2730   34.5770    8.4950 C   0  0  0  0  0  0  0  0  0  0  0  0
   27.0790   34.5340    8.1280 O   0  0  0  0  0  0  0  0  0  0  0  0
   28.6100   33.7910    9.5920 O   0  0  0  0  0  0  0  0  0  0  0  0
   28.4140   32.7780    9.5820 H   0  0  0  0  0  0  0  0  0  0  0  0
   29.5520   37.7830    5.5320 O   0  0  0  0  0  0  0  0  0  0  0  0
   29.6660   38.7120    5.8440 H   0  0  0  0  0  0  0  0  0  0  0  0
   26.6130   38.1320    7.5290 N   0  0  0  0  0  0  0  0  0  0  0  0
   25.8950   39.3010    7.1860 C   0  0  0  0  0  0  0  0  0  0  0  0
   26.0470   37.3390    7.9340 H   0  0  0  0  0  0  0  0  0  0  0  0
   24.4370   39.4800    7.3540 C   0  0  0  0  0  0  0  0  0  0  0  0
   26.5840   40.2320    6.7050 O   0  0  0  0  0  0  0  0  0  0  0  0
   30.8310   38.5260    9.1560 O   0  0  0  0  0  0  0  0  0  0  0  0
   31.2660   39.3790    9.4140 H   0  0  0  0  0  0  0  0  0  0  0  0
   29.3230   37.4840   11.3130 O   0  0  0  0  0  0  0  0  0  0  0  0
   28.5730   37.1910   11.9090 H   0  0  0  0  0  0  0  0  0  0  0  0
   26.8550   38.2010   11.7150 N   0  0  0  0  0  0  0  0  0  0  0  0
   25.8150   37.3740   11.2570 C   0  0  0  0  0  0  0  0  0  0  0  0
   27.0850   38.1330   12.7570 H   0  0  0  0  0  0  0  0  0  0  0  0
   25.4390   37.3600   10.0700 O   0  0  0  0  0  0  0  0  0  0  0  0
   25.1640   36.5210   12.1690 O   0  0  0  0  0  0  0  0  0  0  0  0
   25.4690   35.1420   12.1350 C   0  0  0  0  0  0  0  0  0  0  0  0
   26.8120   34.8960   12.6610 C   0  0  0  0  0  0  0  0  0  0  0  0
   27.1060   34.4150   13.9310 C   0  0  0  0  0  0  0  0  0  0  0  0
   27.9750   35.0810   12.0380 N   0  0  0  0  0  0  0  0  0  0  0  0
   28.4380   34.3290   14.0310 N   0  0  0  0  0  0  0  0  0  0  0  0
   28.9310   34.7340   12.8810 N   0  0  0  0  0  0  0  0  0  0  0  0
   29.2150   33.8810   15.1590 C   0  0  1  0  0  0  0  0  0  0  0  0
   28.2770   33.2170   16.1670 C   0  0  0  0  0  0  0  0  0  0  0  0
   30.1670   32.8220   14.6490 C   0  0  0  0  0  0  0  0  0  0  0  0
   29.1100   32.5330   17.2170 C   0  0  1  0  0  0  0  0  0  0  0  0
   30.7760   32.0660   15.7840 C   0  0  2  0  0  0  0  0  0  0  0  0
   29.8250   31.4160   16.6300 N   0  0  0  0  0  0  0  0  0  0  0  0
   30.2510   33.4360   17.6480 C   0  0  0  0  0  0  0  0  0  0  0  0
   31.3890   33.1030   16.7330 C   0  0  0  0  0  0  0  0  0  0  0  0
   28.9630   30.4970   15.9440 C   0  0  0  0  0  0  0  0  0  0  0  0
   29.8670   25.5550   16.9770 C   0  0  0  0  0  0  0  0  0  0  0  0
   28.3450   25.7220   17.0260 C   0  0  0  0  0  0  0  0  0  0  0  0
   27.6020   24.3990   16.9250 C   0  0  0  0  0  0  0  0  0  0  0  0
   26.5160   24.2790   17.9580 C   0  0  0  0  0  0  0  0  0  0  0  0
   26.4670   25.5520   18.7960 C   0  0  0  0  0  0  0  0  0  0  0  0
   25.3290   25.5070   19.7440 N   0  0  0  0  0  0  0  0  0  0  0  0
  1 27  1  0  0  0  0
  2  1  1  6  0  0  0
  2 25  1  0  0  0  0
  3 23  1  1  0  0  0
  3  2  1  0  0  0  0
  4  3  1  6  0  0  0
  5 10  1  6  0  0  0
  5 12  1  0  0  0  0
  5  7  1  0  0  0  0
  6  5  1  0  0  0  0
  7  4  1  0  0  0  0
  8 16  1  1  0  0  0
  8  6  1  0  0  0  0
  8  9  1  0  0  0  0
  9 18  1  1  0  0  0
  9  4  1  0  0  0  0
 11 10  1  0  0  0  0
 12 14  1  0  0  0  0
 13 12  2  0  0  0  0
 15 14  1  0  0  0  0
 16 17  1  0  0  0  0
 18 20  1  0  0  0  0
 19 21  1  0  0  0  0
 19 18  1  0  0  0  0
 22 19  2  0  0  0  0
 23 24  1  0  0  0  0
 25 26  1  0  0  0  0
 27 29  1  0  0  0  0
 28 27  1  0  0  0  0
 28 31  1  0  0  0  0
 30 28  2  0  0  0  0
 32 31  1  0  0  0  0
 32 33  1  0  0  0  0
 33 34  2  0  0  0  0
 34 36  1  0  0  0  0
 35 33  1  0  0  0  0
 35 37  2  0  0  0  0
 37 36  1  0  0  0  0
 38 36  1  6  0  0  0
 38 39  1  0  0  0  0
 40 38  1  0  0  0  0
 41 39  1  6  0  0  0
 41 44  1  0  0  0  0
 42 40  1  6  0  0  0
 42 43  1  0  0  0  0
 42 45  1  0  0  0  0
 43 41  1  0  0  0  0
 45 44  1  0  0  0  0
 46 43  1  0  0  0  0
 47 48  1  0  0  0  0
 49 48  1  0  0  0  0
 49 50  1  0  0  0  0
 50 51  1  0  0  0  0
 51 52  1  0  0  0  0
M  END
>  <REMARK>
 VINA RESULT:    -5.428      6.171     11.521
 INTER + INTRA:         -14.896
 INTER:                  -9.997
 INTRA:                  -4.899
 UNBOUND:                -5.502
 SMILES CC(=O)N[C@@H]1[C@@H](O)C[C@](O)(C(=O)O)O[C@H]1C(O)[C@H](O)CNC(=O)OCc1cn([C@@H]2C[C@H]3CC[C@@H](C2)N3C)nn1
 SMILES IDX 20 1 18 2 16 3 15 4 9 5 8 6 14 7 6 8 5 9 10 10 11 12 12 13
 SMILES IDX 13 14 7 16 4 18 2 19 1 21 3 22 17 23 19 25 21 27 22 28 23 30
 SMILES IDX 24 31 25 32 26 33 27 34 39 35 28 36 38 37 29 38 35 39 30 40
 SMILES IDX 34 41 31 42 36 43 33 44 32 45 37 46
 H PARENT 10 11 13 15 7 17 4 20 17 24 19 26 21 29
 Flexibility Score: inf
  4 active torsions:
  status: ('A' for Active; 'I' for Inactive)
    1  A    between atoms: CA   and  CB  
    2  A    between atoms: CB   and  CG  
    3  A    between atoms: CG   and  CD  
    4  A    between atoms: CD   and  CE  

>  <TORSDO>
F 15

>  <BEGIN_>
RES LYS A 131

$$$$
ligand_87_pose_5_2HRL.pdbqt
 OpenBabel07062320523D

  6  5  0  0  0  0  0  0  0  0999 V2000
   33.1930   34.6630    9.2900 C   0  0  0  0  0  0  0  0  0  0  0  0
   32.0600   35.3600   10.0340 C   0  0  0  0  0  0  0  0  0  0  0  0
   32.0400   35.0670   11.5120 C   0  0  0  0  0  0  0  0  0  0  0  0
   32.4570   36.2940   12.3080 C   0  0  0  0  0  0  0  0  0  0  0  0
   32.2890   36.0460   13.7950 C   0  0  0  0  0  0  0  0  0  0  0  0
   33.1630   34.9320   14.2550 N   0  0  0  0  0  0  0  0  0  0  0  0
  1  2  1  0  0  0  0
  2  3  1  0  0  0  0
  3  4  1  0  0  0  0
  4  5  1  0  0  0  0
  5  6  1  0  0  0  0
M  END
>  <EGIN_R>
ES LYS A 135

>  <REMARK>
  4 active torsions:
  status: ('A' for Active; 'I' for Inactive)
    5  A    between atoms: CA   and  CB  
    6  A    between atoms: CB   and  CG  
    7  A    between atoms: CG   and  CD  
    8  A    between atoms: CD   and  CE  

$$$$
