ligand_59_pose_17_2HRL.pdbqt
 OpenBabel07062320523D

 52 53  0  0  1  0  0  0  0  0999 V2000
   30.6980   32.5860   14.5590 N   0  0  0  0  0  0  0  0  0  0  0  0
   30.7290   34.0010   14.3210 C   0  0  0  0  0  0  0  0  0  0  0  0
   31.1270   34.7150   15.2690 O   0  0  0  0  0  0  0  0  0  0  0  0
   30.3740   32.0290   13.7400 H   0  0  0  0  0  0  0  0  0  0  0  0
   31.1150   32.0360   15.8200 C   0  0  0  0  0  0  0  0  0  0  0  0
   29.8920   31.6390   16.6320 C   0  0  2  0  0  0  0  0  0  0  0  0
   28.7990   31.3800   15.6360 C   0  0  2  0  0  0  0  0  0  0  0  0
   27.3870   31.6040   16.0950 C   0  0  2  0  0  0  0  0  0  0  0  0
   26.2840   31.2690   18.1540 C   0  0  2  0  0  0  0  0  0  0  0  0
   25.0450   30.7290   17.4830 C   0  0  0  0  0  0  0  0  0  0  0  0
   27.3900   31.1450   17.3860 O   0  0  0  0  0  0  0  0  0  0  0  0
   25.5550   29.9840   16.2640 C   0  0  1  0  0  0  0  0  0  0  0  0
   26.3000   30.9740   15.3350 C   0  0  1  0  0  0  0  0  0  0  0  0
   26.4450   30.4740   19.3320 O   0  0  0  0  0  0  0  0  0  0  0  0
   26.7970   31.0450   20.0610 H   0  0  0  0  0  0  0  0  0  0  0  0
   26.1410   32.6590   18.6330 C   0  0  0  0  0  0  0  0  0  0  0  0
   25.0360   33.2280   18.5450 O   0  0  0  0  0  0  0  0  0  0  0  0
   27.2110   33.3400   19.1810 O   0  0  0  0  0  0  0  0  0  0  0  0
   27.2280   34.3510   19.1260 H   0  0  0  0  0  0  0  0  0  0  0  0
   26.3360   28.9030   16.5880 O   0  0  0  0  0  0  0  0  0  0  0  0
   27.3000   29.1680   16.5570 H   0  0  0  0  0  0  0  0  0  0  0  0
   25.2750   31.8430   14.8570 N   0  0  0  0  0  0  0  0  0  0  0  0
   24.5330   31.5650   13.6970 C   0  0  0  0  0  0  0  0  0  0  0  0
   25.0740   32.7130   15.3810 H   0  0  0  0  0  0  0  0  0  0  0  0
   23.4670   32.4680   13.2010 C   0  0  0  0  0  0  0  0  0  0  0  0
   24.7740   30.5230   13.0570 O   0  0  0  0  0  0  0  0  0  0  0  0
   28.8670   30.0220   15.2740 O   0  0  0  0  0  0  0  0  0  0  0  0
   29.8030   29.7410   15.0860 H   0  0  0  0  0  0  0  0  0  0  0  0
   29.5950   32.8250   17.3580 O   0  0  0  0  0  0  0  0  0  0  0  0
   28.7030   32.7430   17.7300 H   0  0  0  0  0  0  0  0  0  0  0  0
   30.3520   34.5700   13.1360 O   0  0  0  0  0  0  0  0  0  0  0  0
   29.6070   35.7440   13.0250 C   0  0  0  0  0  0  0  0  0  0  0  0
   28.1970   35.5220   12.6180 C   0  0  0  0  0  0  0  0  0  0  0  0
   27.5900   36.1490   11.5260 C   0  0  0  0  0  0  0  0  0  0  0  0
   27.2460   34.7520   13.1310 N   0  0  0  0  0  0  0  0  0  0  0  0
   26.3260   35.7360   11.4390 N   0  0  0  0  0  0  0  0  0  0  0  0
   26.1260   34.8880   12.4180 N   0  0  0  0  0  0  0  0  0  0  0  0
   25.3660   36.1540   10.4570 C   0  0  0  0  0  0  0  0  0  0  0  0
   24.2500   35.4110   10.1340 C   0  0  0  0  0  0  0  0  0  0  0  0
   25.5440   37.3110    9.8000 N   0  0  0  0  0  0  0  0  0  0  0  0
   23.3370   35.7980    9.1900 C   0  0  0  0  0  0  0  0  0  0  0  0
   24.6770   37.7330    8.8680 C   0  0  0  0  0  0  0  0  0  0  0  0
   23.5470   36.9940    8.5310 C   0  0  0  0  0  0  0  0  0  0  0  0
   22.6150   37.5100    7.4880 C   0  0  0  0  0  0  0  0  0  0  0  0
   21.7200   36.5040    7.1480 O   0  0  0  0  0  0  0  0  0  0  0  0
   22.1870   35.6300    7.1250 H   0  0  0  0  0  0  0  0  0  0  0  0
   29.8670   25.5550   16.9770 C   0  0  0  0  0  0  0  0  0  0  0  0
   28.3450   25.7220   17.0260 C   0  0  0  0  0  0  0  0  0  0  0  0
   27.6010   24.4040   16.8770 C   0  0  0  0  0  0  0  0  0  0  0  0
   26.3250   24.3810   17.6720 C   0  0  0  0  0  0  0  0  0  0  0  0
   26.1280   25.7290   18.3580 C   0  0  0  0  0  0  0  0  0  0  0  0
   25.7210   25.5390   19.7700 N   0  0  0  0  0  0  0  0  0  0  0  0
  1  5  1  0  0  0  0
  2  1  1  0  0  0  0
  2  3  2  0  0  0  0
  4  1  1  0  0  0  0
  6  5  1  6  0  0  0
  6 29  1  0  0  0  0
  7 27  1  1  0  0  0
  7  6  1  0  0  0  0
  8  7  1  6  0  0  0
  8 11  1  0  0  0  0
  9 16  1  1  0  0  0
  9 14  1  0  0  0  0
 10  9  1  0  0  0  0
 11  9  1  0  0  0  0
 12 20  1  1  0  0  0
 12 10  1  0  0  0  0
 13 22  1  1  0  0  0
 13  8  1  0  0  0  0
 13 12  1  0  0  0  0
 14 15  1  0  0  0  0
 16 18  1  0  0  0  0
 17 16  2  0  0  0  0
 19 18  1  0  0  0  0
 21 20  1  0  0  0  0
 22 24  1  0  0  0  0
 23 22  1  0  0  0  0
 25 23  1  0  0  0  0
 26 23  2  0  0  0  0
 28 27  1  0  0  0  0
 29 30  1  0  0  0  0
 31  2  1  0  0  0  0
 32 31  1  0  0  0  0
 33 32  1  0  0  0  0
 33 35  1  0  0  0  0
 34 33  2  0  0  0  0
 36 34  1  0  0  0  0
 36 37  1  0  0  0  0
 37 35  2  0  0  0  0
 38 36  1  0  0  0  0
 39 38  1  0  0  0  0
 40 38  2  0  0  0  0
 41 39  2  0  0  0  0
 42 40  1  0  0  0  0
 43 42  2  0  0  0  0
 43 41  1  0  0  0  0
 44 43  1  0  0  0  0
 45 44  1  0  0  0  0
 46 45  1  0  0  0  0
 47 48  1  0  0  0  0
 49 48  1  0  0  0  0
 49 50  1  0  0  0  0
 50 51  1  0  0  0  0
 51 52  1  0  0  0  0
M  END
>  <REMARK>
 VINA RESULT:    -4.776      3.539      7.282
 INTER + INTRA:         -14.420
 INTER:                  -8.686
 INTRA:                  -5.735
 UNBOUND:                -5.735
 SMILES CC(=O)N[C@@H]1[C@@H](O)C[C@](O)(C(=O)O)O[C@H]1C(O)[C@H](O)CNC(=O)OCc1cn(-c2ccc(CO)cn2)nn1
 SMILES IDX 21 1 22 2 23 3 20 5 18 6 16 7 15 8 9 9 8 10 14 11 6 12 5 13
 SMILES IDX 10 14 11 16 12 17 13 18 7 20 4 22 2 23 1 25 3 26 17 27 19 29
 SMILES IDX 24 31 25 32 26 33 27 34 38 35 28 36 37 37 29 38 30 39 36 40
 SMILES IDX 31 41 35 42 32 43 33 44 34 45
 H PARENT 21 4 10 15 13 19 7 21 4 24 17 28 19 30 34 46
 Flexibility Score: inf
  4 active torsions:
  status: ('A' for Active; 'I' for Inactive)
    1  A    between atoms: CA   and  CB  
    2  A    between atoms: CB   and  CG  
    3  A    between atoms: CG   and  CD  
    4  A    between atoms: CD   and  CE  

>  <TORSDO>
F 17

>  <BEGIN_>
RES LYS A 131

$$$$
ligand_59_pose_17_2HRL.pdbqt
 OpenBabel07062320523D

  6  5  0  0  0  0  0  0  0  0999 V2000
   33.1930   34.6630    9.2900 C   0  0  0  0  0  0  0  0  0  0  0  0
   32.0600   35.3600   10.0340 C   0  0  0  0  0  0  0  0  0  0  0  0
   30.8190   35.5500    9.2010 C   0  0  0  0  0  0  0  0  0  0  0  0
   30.1460   34.2130    8.9280 C   0  0  0  0  0  0  0  0  0  0  0  0
   28.7170   34.4210    8.4640 C   0  0  0  0  0  0  0  0  0  0  0  0
   27.7660   33.6130    9.2770 N   0  0  0  0  0  0  0  0  0  0  0  0
  1  2  1  0  0  0  0
  3  2  1  0  0  0  0
  4  3  1  0  0  0  0
  5  4  1  0  0  0  0
  5  6  1  0  0  0  0
M  END
>  <EGIN_R>
ES LYS A 135

>  <REMARK>
  4 active torsions:
  status: ('A' for Active; 'I' for Inactive)
    5  A    between atoms: CA   and  CB  
    6  A    between atoms: CB   and  CG  
    7  A    between atoms: CG   and  CD  
    8  A    between atoms: CD   and  CE  

$$$$
