ligand_77_pose_10_2HRL.pdbqt
 OpenBabel07062320523D

 61 63  0  0  1  0  0  0  0  0999 V2000
   28.6570   37.3110   12.2060 N   0  0  0  0  0  0  0  0  0  0  0  0
   28.9830   37.8800   13.4600 C   0  0  0  0  0  0  0  0  0  0  0  0
   28.1220   37.9680   14.3420 O   0  0  0  0  0  0  0  0  0  0  0  0
   29.4630   37.2730   11.5070 H   0  0  0  0  0  0  0  0  0  0  0  0
   27.3580   36.8020   11.8320 C   0  0  0  0  0  0  0  0  0  0  0  0
   26.8730   37.5260   10.6240 C   0  0  2  0  0  0  0  0  0  0  0  0
   26.1400   36.6270    9.6510 C   0  0  1  0  0  0  0  0  0  0  0  0
   26.9660   36.1440    8.5080 C   0  0  2  0  0  0  0  0  0  0  0  0
   29.1940   35.6940    8.0570 C   0  0  2  0  0  0  0  0  0  0  0  0
   28.8620   35.6170    6.5990 C   0  0  0  0  0  0  0  0  0  0  0  0
   28.1060   35.4710    8.8830 O   0  0  0  0  0  0  0  0  0  0  0  0
   27.6450   36.3710    6.1980 C   0  0  1  0  0  0  0  0  0  0  0  0
   27.1690   37.1720    7.4220 C   0  0  1  0  0  0  0  0  0  0  0  0
   29.8460   36.9080    8.3740 O   0  0  0  0  0  0  0  0  0  0  0  0
   29.7290   37.0800    9.3240 H   0  0  0  0  0  0  0  0  0  0  0  0
   30.1880   34.6190    8.3480 C   0  0  0  0  0  0  0  0  0  0  0  0
   29.8630   33.6950    9.1550 O   0  0  0  0  0  0  0  0  0  0  0  0
   31.4420   34.5630    7.7940 O   0  0  0  0  0  0  0  0  0  0  0  0
   32.1630   33.9750    8.2080 H   0  0  0  0  0  0  0  0  0  0  0  0
   27.8370   37.2080    5.1110 O   0  0  0  0  0  0  0  0  0  0  0  0
   27.1230   37.0230    4.4210 H   0  0  0  0  0  0  0  0  0  0  0  0
   25.8660   37.7470    7.1100 N   0  0  0  0  0  0  0  0  0  0  0  0
   25.6210   39.1220    7.3500 C   0  0  0  0  0  0  0  0  0  0  0  0
   25.0880   37.1800    6.7110 H   0  0  0  0  0  0  0  0  0  0  0  0
   24.2850   39.7460    7.0420 C   0  0  0  0  0  0  0  0  0  0  0  0
   26.4840   39.8890    7.8250 O   0  0  0  0  0  0  0  0  0  0  0  0
   25.6340   35.5720   10.4200 O   0  0  0  0  0  0  0  0  0  0  0  0
   26.2800   34.8350   10.3820 H   0  0  0  0  0  0  0  0  0  0  0  0
   27.8960   38.2510   10.0300 O   0  0  0  0  0  0  0  0  0  0  0  0
   27.7790   38.2150    9.0470 H   0  0  0  0  0  0  0  0  0  0  0  0
   30.2530   38.3580   13.7640 O   0  0  0  0  0  0  0  0  0  0  0  0
   30.6310   39.7030   13.5120 C   0  0  0  0  0  0  0  0  0  0  0  0
   30.3090   40.1160   12.1160 C   0  0  0  0  0  0  0  0  0  0  0  0
   31.2020   40.0840   11.0800 C   0  0  0  0  0  0  0  0  0  0  0  0
   29.1490   40.5750   11.6270 N   0  0  0  0  0  0  0  0  0  0  0  0
   30.5620   40.5270    9.9720 N   0  0  0  0  0  0  0  0  0  0  0  0
   29.3440   40.8070   10.3450 N   0  0  0  0  0  0  0  0  0  0  0  0
   31.1850   40.6290    8.7020 C   0  0  0  0  0  0  0  0  0  0  0  0
   32.2700   41.4590    8.5250 C   0  0  0  0  0  0  0  0  0  0  0  0
   30.7450   39.9190    7.6060 C   0  0  0  0  0  0  0  0  0  0  0  0
   32.9080   41.5880    7.3030 C   0  0  0  0  0  0  0  0  0  0  0  0
   31.3820   40.0420    6.3670 C   0  0  0  0  0  0  0  0  0  0  0  0
   32.4630   40.8770    6.2160 C   0  0  0  0  0  0  0  0  0  0  0  0
   33.2590   41.0380    4.6900 S   0  0  0  0  0  0  0  0  0  0  0  0
   33.8010   42.4190    4.5430 O   0  0  0  0  0  0  0  0  0  0  0  0
   32.3430   40.7760    3.5310 O   0  0  0  0  0  0  0  0  0  0  0  0
   34.5440   39.8360    4.6290 C   0  0  0  0  0  0  0  0  0  0  0  0
   35.0540   39.3540    5.8050 C   0  0  0  0  0  0  0  0  0  0  0  0
   35.0450   39.3690    3.4180 C   0  0  0  0  0  0  0  0  0  0  0  0
   36.0680   38.4040    5.8040 C   0  0  0  0  0  0  0  0  0  0  0  0
   36.0560   38.4220    3.3810 C   0  0  0  0  0  0  0  0  0  0  0  0
   36.5420   37.9650    4.5830 C   0  0  0  0  0  0  0  0  0  0  0  0
   37.5730   36.9990    4.5680 N   0  0  0  0  0  0  0  0  0  0  0  0
   37.3750   36.0170    4.8210 H   0  0  0  0  0  0  0  0  0  0  0  0
   38.5310   37.2830    4.3010 H   0  0  0  0  0  0  0  0  0  0  0  0
   29.8670   25.5550   16.9770 C   0  0  0  0  0  0  0  0  0  0  0  0
   28.3450   25.7220   17.0260 C   0  0  0  0  0  0  0  0  0  0  0  0
   27.5990   24.4770   16.5710 C   0  0  0  0  0  0  0  0  0  0  0  0
   27.0120   23.7140   17.7260 C   0  0  0  0  0  0  0  0  0  0  0  0
   25.8600   24.5100   18.3290 C   0  0  0  0  0  0  0  0  0  0  0  0
   24.7800   24.6970   17.3310 N   0  0  0  0  0  0  0  0  0  0  0  0
  1  2  1  0  0  0  0
  2 31  1  0  0  0  0
  2  3  2  0  0  0  0
  4  1  1  0  0  0  0
  5  1  1  0  0  0  0
  6  5  1  1  0  0  0
  7 27  1  1  0  0  0
  7  6  1  0  0  0  0
  8 11  1  0  0  0  0
  8  7  1  1  0  0  0
  9 16  1  1  0  0  0
  9 14  1  0  0  0  0
  9 11  1  0  0  0  0
 10  9  1  0  0  0  0
 12 20  1  6  0  0  0
 12 10  1  0  0  0  0
 12 13  1  0  0  0  0
 13 22  1  6  0  0  0
 13  8  1  0  0  0  0
 14 15  1  0  0  0  0
 16 17  2  0  0  0  0
 18 19  1  0  0  0  0
 18 16  1  0  0  0  0
 21 20  1  0  0  0  0
 22 23  1  0  0  0  0
 23 26  2  0  0  0  0
 24 22  1  0  0  0  0
 25 23  1  0  0  0  0
 28 27  1  0  0  0  0
 29  6  1  0  0  0  0
 30 29  1  0  0  0  0
 32 31  1  0  0  0  0
 33 32  1  0  0  0  0
 34 33  2  0  0  0  0
 35 33  1  0  0  0  0
 36 37  1  0  0  0  0
 36 34  1  0  0  0  0
 37 35  2  0  0  0  0
 38 36  1  0  0  0  0
 39 38  1  0  0  0  0
 40 38  2  0  0  0  0
 41 39  2  0  0  0  0
 42 40  1  0  0  0  0
 43 42  2  0  0  0  0
 43 41  1  0  0  0  0
 44 43  1  0  0  0  0
 45 44  2  0  0  0  0
 46 44  2  0  0  0  0
 47 44  1  0  0  0  0
 47 48  2  0  0  0  0
 49 47  1  0  0  0  0
 50 48  1  0  0  0  0
 51 49  2  0  0  0  0
 51 52  1  0  0  0  0
 52 50  2  0  0  0  0
 53 52  1  0  0  0  0
 53 54  1  0  0  0  0
 55 53  1  0  0  0  0
 56 57  1  0  0  0  0
 58 57  1  0  0  0  0
 58 59  1  0  0  0  0
 59 60  1  0  0  0  0
 61 60  1  0  0  0  0
M  END
>  <REMARK>
 VINA RESULT:    -5.193      7.915     13.342
 INTER + INTRA:         -16.274
 INTER:                 -11.124
 INTRA:                  -5.150
 UNBOUND:                -6.527
 SMILES CC(=O)N[C@@H]1[C@@H](O)C[C@](O)(C(=O)O)O[C@H]1C(O)[C@H](O)CNC(=O)OCc1cn(-c2ccc(S(=O)(=O)c3ccc(N)cc3)cc2)nn1
 SMILES IDX 21 1 22 2 23 3 20 5 18 6 16 7 15 8 9 9 8 10 14 11 6 12 5 13
 SMILES IDX 10 14 11 16 12 17 13 18 7 20 4 22 2 23 1 25 3 26 17 27 19 29
 SMILES IDX 24 31 25 32 26 33 27 34 46 35 28 36 45 37 29 38 30 39 44 40
 SMILES IDX 31 41 43 42 32 43 33 44 34 45 35 46 36 47 37 48 42 49 38 50
 SMILES IDX 41 51 39 52 40 53
 H PARENT 21 4 10 15 13 19 7 21 4 24 17 28 19 30 40 54 40 55
 Flexibility Score: inf
  4 active torsions:
  status: ('A' for Active; 'I' for Inactive)
    1  A    between atoms: CA   and  CB  
    2  A    between atoms: CB   and  CG  
    3  A    between atoms: CG   and  CD  
    4  A    between atoms: CD   and  CE  

>  <TORSDO>
F 18

>  <BEGIN_>
RES LYS A 131

$$$$
ligand_77_pose_10_2HRL.pdbqt
 OpenBabel07062320523D

  6  5  0  0  0  0  0  0  0  0999 V2000
   33.1930   34.6630    9.2900 C   0  0  0  0  0  0  0  0  0  0  0  0
   32.0600   35.3600   10.0340 C   0  0  0  0  0  0  0  0  0  0  0  0
   32.5360   36.3510   11.0650 C   0  0  0  0  0  0  0  0  0  0  0  0
   32.3190   35.8100   12.4690 C   0  0  0  0  0  0  0  0  0  0  0  0
   31.1290   34.8700   12.5000 C   0  0  0  0  0  0  0  0  0  0  0  0
   30.6440   34.6650   13.8930 N   0  0  0  0  0  0  0  0  0  0  0  0
  1  2  1  0  0  0  0
  2  3  1  0  0  0  0
  3  4  1  0  0  0  0
  4  5  1  0  0  0  0
  5  6  1  0  0  0  0
M  END
>  <EGIN_R>
ES LYS A 135

>  <REMARK>
  4 active torsions:
  status: ('A' for Active; 'I' for Inactive)
    5  A    between atoms: CA   and  CB  
    6  A    between atoms: CB   and  CG  
    7  A    between atoms: CG   and  CD  
    8  A    between atoms: CD   and  CE  

$$$$
