ligand_89_pose_3_2HRL.pdbqt
 OpenBabel07062320523D

 60 63  0  0  1  0  0  0  0  0999 V2000
   27.1970   40.0730    8.6600 N   0  0  0  0  0  0  0  0  0  0  0  0
   28.3800   40.7690    8.9120 C   0  0  0  0  0  0  0  0  0  0  0  0
   28.4470   41.9930    9.0270 O   0  0  0  0  0  0  0  0  0  0  0  0
   27.2920   38.9820    8.6160 H   0  0  0  0  0  0  0  0  0  0  0  0
   25.9150   40.6290    8.4590 C   0  0  0  0  0  0  0  0  0  0  0  0
   24.8380   40.1440    9.3240 C   0  0  2  0  0  0  0  0  0  0  0  0
   24.8650   38.8270    9.9840 C   0  0  1  0  0  0  0  0  0  0  0  0
   24.7960   37.7780    8.8360 C   0  0  2  0  0  0  0  0  0  0  0  0
   22.8750   36.5130    9.3150 C   0  0  2  0  0  0  0  0  0  0  0  0
   23.7020   35.2730    9.3860 C   0  0  0  0  0  0  0  0  0  0  0  0
   23.5030   37.4880    8.6100 O   0  0  0  0  0  0  0  0  0  0  0  0
   25.1290   35.5010    9.8160 C   0  0  1  0  0  0  0  0  0  0  0  0
   25.7480   36.6670    9.0790 C   0  0  1  0  0  0  0  0  0  0  0  0
   22.6250   37.0020   10.6220 O   0  0  0  0  0  0  0  0  0  0  0  0
   21.7820   36.5560   10.9040 H   0  0  0  0  0  0  0  0  0  0  0  0
   21.5680   36.1140    8.6930 C   0  0  0  0  0  0  0  0  0  0  0  0
   21.0840   36.8050    7.7870 O   0  0  0  0  0  0  0  0  0  0  0  0
   20.9170   34.9850    9.1290 O   0  0  0  0  0  0  0  0  0  0  0  0
   20.7090   34.2190    8.4820 H   0  0  0  0  0  0  0  0  0  0  0  0
   25.2500   35.6790   11.1950 O   0  0  0  0  0  0  0  0  0  0  0  0
   25.3620   36.6410   11.3920 H   0  0  0  0  0  0  0  0  0  0  0  0
   26.2950   36.1320    7.8250 N   0  0  0  0  0  0  0  0  0  0  0  0
   27.5520   36.5200    7.3180 C   0  0  0  0  0  0  0  0  0  0  0  0
   25.7470   35.4260    7.2560 H   0  0  0  0  0  0  0  0  0  0  0  0
   28.1010   35.9760    6.0480 C   0  0  0  0  0  0  0  0  0  0  0  0
   28.2570   37.3620    7.9510 O   0  0  0  0  0  0  0  0  0  0  0  0
   26.0080   38.5640   10.7430 O   0  0  0  0  0  0  0  0  0  0  0  0
   25.8520   38.8150   11.7070 H   0  0  0  0  0  0  0  0  0  0  0  0
   23.6330   40.2370    8.5290 O   0  0  0  0  0  0  0  0  0  0  0  0
   23.4500   41.1620    8.2920 H   0  0  0  0  0  0  0  0  0  0  0  0
   29.6070   40.0810    9.0510 O   0  0  0  0  0  0  0  0  0  0  0  0
   30.4320   40.2690   10.1640 C   0  0  0  0  0  0  0  0  0  0  0  0
   29.8180   39.6310   11.3560 C   0  0  0  0  0  0  0  0  0  0  0  0
   29.6310   38.2690   11.5720 C   0  0  0  0  0  0  0  0  0  0  0  0
   29.3250   40.2160   12.4620 N   0  0  0  0  0  0  0  0  0  0  0  0
   29.0390   38.0670   12.7840 N   0  0  0  0  0  0  0  0  0  0  0  0
   28.8810   39.2720   13.2690 N   0  0  0  0  0  0  0  0  0  0  0  0
   28.7170   36.7790   13.2990 C   0  0  0  0  0  0  0  0  0  0  0  0
   27.4760   36.2080   13.2970 N   0  0  0  0  0  0  0  0  0  0  0  0
   29.5410   35.8550   13.8860 C   0  0  0  0  0  0  0  0  0  0  0  0
   27.5600   34.9960   13.8600 C   0  0  0  0  0  0  0  0  0  0  0  0
   28.8260   34.7420   14.2390 N   0  0  0  0  0  0  0  0  0  0  0  0
   30.8720   35.8560   14.1620 C   0  0  0  0  0  0  0  0  0  0  0  0
   29.3990   33.6810   14.8350 C   0  0  0  0  0  0  0  0  0  0  0  0
   31.4800   34.8290   14.7500 N   0  0  0  0  0  0  0  0  0  0  0  0
   31.5930   36.8430   13.8680 O   0  0  0  0  0  0  0  0  0  0  0  0
   28.6460   32.5770   15.1760 C   0  0  0  0  0  0  0  0  0  0  0  0
   30.7540   33.7430   15.0880 C   0  0  0  0  0  0  0  0  0  0  0  0
   29.2090   31.4700   15.7900 C   0  0  0  0  0  0  0  0  0  0  0  0
   31.2940   32.6230   15.7040 C   0  0  0  0  0  0  0  0  0  0  0  0
   30.5510   31.5110   16.0510 C   0  0  0  0  0  0  0  0  0  0  0  0
   32.8890   34.7650   15.0670 C   0  0  0  0  0  0  0  0  0  0  0  0
   33.2070   35.9700   15.9280 C   0  0  0  0  0  0  0  0  0  0  0  0
   33.7990   34.8000   13.8820 C   0  0  0  0  0  0  0  0  0  0  0  0
   29.8670   25.5550   16.9770 C   0  0  0  0  0  0  0  0  0  0  0  0
   28.3450   25.7220   17.0260 C   0  0  0  0  0  0  0  0  0  0  0  0
   27.6020   24.3990   16.9240 C   0  0  0  0  0  0  0  0  0  0  0  0
   26.1550   24.5310   17.3100 C   0  0  0  0  0  0  0  0  0  0  0  0
   25.9460   23.9550   18.7070 C   0  0  0  0  0  0  0  0  0  0  0  0
   25.0700   22.7620   18.6510 N   0  0  0  0  0  0  0  0  0  0  0  0
  1  2  1  0  0  0  0
  2  3  2  0  0  0  0
  2 31  1  0  0  0  0
  4  1  1  0  0  0  0
  5  1  1  0  0  0  0
  6  5  1  6  0  0  0
  6  7  1  0  0  0  0
  7 27  1  6  0  0  0
  8 13  1  0  0  0  0
  8  7  1  1  0  0  0
  9 16  1  6  0  0  0
  9 10  1  0  0  0  0
  9 14  1  0  0  0  0
 10 12  1  0  0  0  0
 11  8  1  0  0  0  0
 11  9  1  0  0  0  0
 12 20  1  1  0  0  0
 13 22  1  6  0  0  0
 13 12  1  0  0  0  0
 14 15  1  0  0  0  0
 16 18  1  0  0  0  0
 17 16  2  0  0  0  0
 19 18  1  0  0  0  0
 20 21  1  0  0  0  0
 23 22  1  0  0  0  0
 23 26  2  0  0  0  0
 24 22  1  0  0  0  0
 25 23  1  0  0  0  0
 27 28  1  0  0  0  0
 29  6  1  0  0  0  0
 30 29  1  0  0  0  0
 31 32  1  0  0  0  0
 32 33  1  0  0  0  0
 33 34  2  0  0  0  0
 33 35  1  0  0  0  0
 34 36  1  0  0  0  0
 35 37  2  0  0  0  0
 36 37  1  0  0  0  0
 36 38  1  0  0  0  0
 38 40  2  0  0  0  0
 39 38  1  0  0  0  0
 39 41  2  0  0  0  0
 40 43  1  0  0  0  0
 40 42  1  0  0  0  0
 41 42  1  0  0  0  0
 42 44  1  0  0  0  0
 43 45  1  0  0  0  0
 44 48  2  0  0  0  0
 44 47  1  0  0  0  0
 45 52  1  0  0  0  0
 45 48  1  0  0  0  0
 46 43  2  0  0  0  0
 47 49  2  0  0  0  0
 48 50  1  0  0  0  0
 49 51  1  0  0  0  0
 50 51  2  0  0  0  0
 52 53  1  0  0  0  0
 54 52  1  0  0  0  0
 55 56  1  0  0  0  0
 57 56  1  0  0  0  0
 57 58  1  0  0  0  0
 58 59  1  0  0  0  0
 60 59  1  0  0  0  0
M  END
>  <REMARK>
 VINA RESULT:    -4.752      5.974     11.988
 INTER + INTRA:         -15.612
 INTER:                  -9.917
 INTRA:                  -5.695
 UNBOUND:                -7.109
 SMILES CC(=O)N[C@@H]1[C@@H](O)C[C@](O)(C(=O)O)O[C@H]1C(O)[C@H](O)CNC(=O)OCc1cn(-c2ncn3c2c(=O)n(C(C)C)c2ccccc23)nn1
 SMILES IDX 21 1 22 2 23 3 20 5 18 6 16 7 15 8 9 9 8 10 14 11 6 12 5 13
 SMILES IDX 10 14 11 16 12 17 13 18 7 20 4 22 2 23 1 25 3 26 17 27 19 29
 SMILES IDX 24 31 25 32 26 33 27 34 47 35 28 36 46 37 29 38 30 39 33 40
 SMILES IDX 31 41 32 42 34 43 45 44 36 45 35 46 44 47 40 48 43 49 41 50
 SMILES IDX 42 51 37 52 38 53 39 54
 H PARENT 21 4 10 15 13 19 7 21 4 24 17 28 19 30
 Flexibility Score: inf
  4 active torsions:
  status: ('A' for Active; 'I' for Inactive)
    1  A    between atoms: CA   and  CB  
    2  A    between atoms: CB   and  CG  
    3  A    between atoms: CG   and  CD  
    4  A    between atoms: CD   and  CE  

>  <TORSDO>
F 16

>  <BEGIN_>
RES LYS A 131

$$$$
ligand_89_pose_3_2HRL.pdbqt
 OpenBabel07062320523D

  6  5  0  0  0  0  0  0  0  0999 V2000
   33.1930   34.6630    9.2900 C   0  0  0  0  0  0  0  0  0  0  0  0
   32.0600   35.3600   10.0340 C   0  0  0  0  0  0  0  0  0  0  0  0
   30.8050   35.5120    9.2140 C   0  0  0  0  0  0  0  0  0  0  0  0
   30.3440   34.1640    8.6830 C   0  0  0  0  0  0  0  0  0  0  0  0
   28.9350   33.8590    9.1560 C   0  0  0  0  0  0  0  0  0  0  0  0
   28.6110   34.6130   10.3980 N   0  0  0  0  0  0  0  0  0  0  0  0
  1  2  1  0  0  0  0
  3  2  1  0  0  0  0
  4  5  1  0  0  0  0
  4  3  1  0  0  0  0
  5  6  1  0  0  0  0
M  END
>  <EGIN_R>
ES LYS A 135

>  <REMARK>
  4 active torsions:
  status: ('A' for Active; 'I' for Inactive)
    5  A    between atoms: CA   and  CB  
    6  A    between atoms: CB   and  CG  
    7  A    between atoms: CG   and  CD  
    8  A    between atoms: CD   and  CE  

$$$$
