ligand_49_pose_0_2HRL.pdbqt
 OpenBabel07062320523D

 48 49  0  0  1  0  0  0  0  0999 V2000
   30.3770   31.3920   17.8060 C   0  0  0  0  0  0  0  0  0  0  0  0
   30.5550   31.9370   16.4170 C   0  0  2  0  0  0  0  0  0  0  0  0
   29.7690   33.2320   16.3610 C   0  0  1  0  0  0  0  0  0  0  0  0
   30.4220   34.2640   15.4990 C   0  0  2  0  0  0  0  0  0  0  0  0
   30.7440   34.8030   13.2680 C   0  0  2  0  0  0  0  0  0  0  0  0
   31.5140   35.9400   13.9220 C   0  0  0  0  0  0  0  0  0  0  0  0
   30.5690   33.7930   14.2160 O   0  0  0  0  0  0  0  0  0  0  0  0
   32.5230   35.3070   14.8580 C   0  0  1  0  0  0  0  0  0  0  0  0
   31.7320   34.7640   16.0420 C   0  0  1  0  0  0  0  0  0  0  0  0
   31.5210   34.3570   12.2060 O   0  0  0  0  0  0  0  0  0  0  0  0
   31.0530   33.5540   11.8190 H   0  0  0  0  0  0  0  0  0  0  0  0
   29.4420   35.2430   12.7530 C   0  0  0  0  0  0  0  0  0  0  0  0
   28.4080   34.5430   12.8950 O   0  0  0  0  0  0  0  0  0  0  0  0
   29.3150   36.4520   12.0890 O   0  0  0  0  0  0  0  0  0  0  0  0
   29.9770   37.2270   12.2260 H   0  0  0  0  0  0  0  0  0  0  0  0
   33.1100   34.2380   14.1590 O   0  0  0  0  0  0  0  0  0  0  0  0
   33.9640   34.5760   13.7800 H   0  0  0  0  0  0  0  0  0  0  0  0
   31.5540   35.8300   17.0070 N   0  0  0  0  0  0  0  0  0  0  0  0
   31.8220   35.6200   18.3780 C   0  0  0  0  0  0  0  0  0  0  0  0
   31.2280   36.7630   16.6970 H   0  0  0  0  0  0  0  0  0  0  0  0
   31.6620   36.6650   19.4190 C   0  0  0  0  0  0  0  0  0  0  0  0
   32.2170   34.4870   18.7360 O   0  0  0  0  0  0  0  0  0  0  0  0
   28.5320   32.9200   15.7930 O   0  0  0  0  0  0  0  0  0  0  0  0
   27.8290   33.5660   16.0020 H   0  0  0  0  0  0  0  0  0  0  0  0
   30.0930   31.0690   15.4560 O   0  0  0  0  0  0  0  0  0  0  0  0
   29.8090   31.5850   14.6550 H   0  0  0  0  0  0  0  0  0  0  0  0
   29.3680   30.3930   17.9600 N   0  0  0  0  0  0  0  0  0  0  0  0
   28.2630   30.4600   18.8160 C   0  0  0  0  0  0  0  0  0  0  0  0
   29.4790   29.5160   17.3580 H   0  0  0  0  0  0  0  0  0  0  0  0
   28.0910   31.4610   19.5470 O   0  0  0  0  0  0  0  0  0  0  0  0
   27.3350   29.4030   18.8620 O   0  0  0  0  0  0  0  0  0  0  0  0
   27.1840   28.6210   17.6920 C   0  0  0  0  0  0  0  0  0  0  0  0
   26.5430   29.4570   16.6540 C   0  0  0  0  0  0  0  0  0  0  0  0
   25.1900   29.3980   16.3450 C   0  0  0  0  0  0  0  0  0  0  0  0
   27.0620   30.3750   15.8470 N   0  0  0  0  0  0  0  0  0  0  0  0
   24.9590   30.2800   15.3720 N   0  0  0  0  0  0  0  0  0  0  0  0
   26.1030   30.8660   15.0780 N   0  0  0  0  0  0  0  0  0  0  0  0
   23.6450   30.5050   14.7800 C   0  0  0  0  0  0  0  0  0  0  0  0
   23.8520   30.8750   13.3390 C   0  0  0  0  0  0  0  0  0  0  0  0
   22.8720   29.2050   14.7990 C   0  0  0  0  0  0  0  0  0  0  0  0
   23.0700   29.8940   12.5260 C   0  0  0  0  0  0  0  0  0  0  0  0
   23.0200   28.6630   13.3890 C   0  0  0  0  0  0  0  0  0  0  0  0
   29.8670   25.5550   16.9770 C   0  0  0  0  0  0  0  0  0  0  0  0
   28.3450   25.7220   17.0260 C   0  0  0  0  0  0  0  0  0  0  0  0
   27.6020   24.3980   16.9350 C   0  0  0  0  0  0  0  0  0  0  0  0
   26.1430   24.5430   17.2660 C   0  0  0  0  0  0  0  0  0  0  0  0
   25.9910   24.9550   18.7270 C   0  0  0  0  0  0  0  0  0  0  0  0
   24.8600   25.9000   18.8850 N   0  0  0  0  0  0  0  0  0  0  0  0
  1 27  1  0  0  0  0
  2  1  1  1  0  0  0
  3 23  1  6  0  0  0
  3  2  1  0  0  0  0
  4  9  1  0  0  0  0
  4  3  1  1  0  0  0
  5 10  1  6  0  0  0
  5  6  1  0  0  0  0
  5  7  1  0  0  0  0
  6  8  1  0  0  0  0
  7  4  1  0  0  0  0
  8 16  1  6  0  0  0
  8  9  1  0  0  0  0
  9 18  1  1  0  0  0
 11 10  1  0  0  0  0
 12 13  2  0  0  0  0
 12  5  1  0  0  0  0
 14 15  1  0  0  0  0
 14 12  1  0  0  0  0
 17 16  1  0  0  0  0
 18 19  1  0  0  0  0
 19 22  2  0  0  0  0
 19 21  1  0  0  0  0
 20 18  1  0  0  0  0
 23 24  1  0  0  0  0
 25  2  1  0  0  0  0
 26 25  1  0  0  0  0
 27 28  1  0  0  0  0
 28 31  1  0  0  0  0
 28 30  2  0  0  0  0
 29 27  1  0  0  0  0
 32 31  1  0  0  0  0
 33 32  1  0  0  0  0
 34 33  2  0  0  0  0
 35 33  1  0  0  0  0
 36 34  1  0  0  0  0
 37 36  1  0  0  0  0
 37 35  2  0  0  0  0
 38 40  1  0  0  0  0
 38 36  1  0  0  0  0
 39 38  1  0  0  0  0
 41 39  1  0  0  0  0
 41 42  1  0  0  0  0
 42 40  1  0  0  0  0
 43 44  1  0  0  0  0
 45 44  1  0  0  0  0
 45 46  1  0  0  0  0
 46 47  1  0  0  0  0
 47 48  1  0  0  0  0
M  END
>  <REMARK>
 VINA RESULT:    -5.546      0.000      0.000
 INTER + INTRA:         -14.625
 INTER:                  -9.027
 INTRA:                  -5.597
 UNBOUND:                -5.026
 SMILES CC(=O)N[C@@H]1[C@@H](O)C[C@](O)(C(=O)O)O[C@H]1C(O)[C@H](O)CNC(=O)OCc1cn(C2CCCC2)nn1
 SMILES IDX 20 1 18 2 16 3 15 4 9 5 8 6 14 7 6 8 5 9 10 10 11 12 12 13
 SMILES IDX 13 14 7 16 4 18 2 19 1 21 3 22 17 23 19 25 21 27 22 28 23 30
 SMILES IDX 24 31 25 32 26 33 27 34 35 35 28 36 34 37 29 38 30 39 33 40
 SMILES IDX 31 41 32 42
 H PARENT 10 11 13 15 7 17 4 20 17 24 19 26 21 29
 Flexibility Score: inf
  4 active torsions:
  status: ('A' for Active; 'I' for Inactive)
    1  A    between atoms: CA   and  CB  
    2  A    between atoms: CB   and  CG  
    3  A    between atoms: CG   and  CD  
    4  A    between atoms: CD   and  CE  

>  <TORSDO>
F 15

>  <BEGIN_>
RES LYS A 131

$$$$
ligand_49_pose_0_2HRL.pdbqt
 OpenBabel07062320523D

  6  5  0  0  0  0  0  0  0  0999 V2000
   33.1930   34.6630    9.2900 C   0  0  0  0  0  0  0  0  0  0  0  0
   32.0600   35.3600   10.0340 C   0  0  0  0  0  0  0  0  0  0  0  0
   30.8170   35.5450    9.2020 C   0  0  0  0  0  0  0  0  0  0  0  0
   30.0820   34.2240    9.0340 C   0  0  0  0  0  0  0  0  0  0  0  0
   28.6190   34.4660    8.7150 C   0  0  0  0  0  0  0  0  0  0  0  0
   27.7360   33.6610    9.6040 N   0  0  0  0  0  0  0  0  0  0  0  0
  1  2  1  0  0  0  0
  3  2  1  0  0  0  0
  4  3  1  0  0  0  0
  5  4  1  0  0  0  0
  5  6  1  0  0  0  0
M  END
>  <EGIN_R>
ES LYS A 135

>  <REMARK>
  4 active torsions:
  status: ('A' for Active; 'I' for Inactive)
    5  A    between atoms: CA   and  CB  
    6  A    between atoms: CB   and  CG  
    7  A    between atoms: CG   and  CD  
    8  A    between atoms: CD   and  CE  

$$$$
