ligand_51_pose_13_2HRL.pdbqt
 OpenBabel07062320523D

 53 56  0  0  1  0  0  0  0  0999 V2000
   30.7050   27.0520   21.5470 C   0  0  0  0  0  0  0  0  0  0  0  0
   31.8110   28.0490   21.3140 C   0  0  2  0  0  0  0  0  0  0  0  0
   31.4590   29.4370   21.8060 C   0  0  1  0  0  0  0  0  0  0  0  0
   32.6530   30.3800   21.6240 C   0  0  2  0  0  0  0  0  0  0  0  0
   34.5670   29.6690   22.7770 C   0  0  2  0  0  0  0  0  0  0  0  0
   33.9080   30.2170   24.0180 C   0  0  0  0  0  0  0  0  0  0  0  0
   33.8480   29.7350   21.6350 O   0  0  0  0  0  0  0  0  0  0  0  0
   33.3610   31.5720   23.7360 C   0  0  1  0  0  0  0  0  0  0  0  0
   32.5570   31.6000   22.4640 C   0  0  1  0  0  0  0  0  0  0  0  0
   34.7810   28.2980   23.0560 O   0  0  0  0  0  0  0  0  0  0  0  0
   35.7620   28.1780   23.1520 H   0  0  0  0  0  0  0  0  0  0  0  0
   35.9080   30.2990   22.6830 C   0  0  0  0  0  0  0  0  0  0  0  0
   36.9080   29.8490   23.3050 O   0  0  0  0  0  0  0  0  0  0  0  0
   36.0880   31.4140   21.8930 O   0  0  0  0  0  0  0  0  0  0  0  0
   35.4980   31.6200   21.0860 H   0  0  0  0  0  0  0  0  0  0  0  0
   32.5900   31.9600   24.8560 O   0  0  0  0  0  0  0  0  0  0  0  0
   31.6560   31.6920   24.7260 H   0  0  0  0  0  0  0  0  0  0  0  0
   32.9550   32.7480   21.6600 N   0  0  0  0  0  0  0  0  0  0  0  0
   32.0540   33.4150   20.7890 C   0  0  0  0  0  0  0  0  0  0  0  0
   33.9520   33.1080   21.7200 H   0  0  0  0  0  0  0  0  0  0  0  0
   32.5400   34.5660   20.0150 C   0  0  0  0  0  0  0  0  0  0  0  0
   30.8630   32.9860   20.7150 O   0  0  0  0  0  0  0  0  0  0  0  0
   30.3120   29.9320   21.2640 O   0  0  0  0  0  0  0  0  0  0  0  0
   30.2360   29.9140   20.2980 H   0  0  0  0  0  0  0  0  0  0  0  0
   32.1100   28.0380   19.9540 O   0  0  0  0  0  0  0  0  0  0  0  0
   32.2430   27.0790   19.6670 H   0  0  0  0  0  0  0  0  0  0  0  0
   29.9160   26.9990   20.3290 N   0  0  0  0  0  0  0  0  0  0  0  0
   28.5500   27.4420   20.2880 C   0  0  0  0  0  0  0  0  0  0  0  0
   30.2890   26.6390   19.4190 H   0  0  0  0  0  0  0  0  0  0  0  0
   28.0540   27.8840   21.3540 O   0  0  0  0  0  0  0  0  0  0  0  0
   27.7910   27.3980   19.1440 O   0  0  0  0  0  0  0  0  0  0  0  0
   26.7470   28.3310   18.9730 C   0  0  0  0  0  0  0  0  0  0  0  0
   27.1240   29.2120   17.8220 C   0  0  0  0  0  0  0  0  0  0  0  0
   28.0260   30.2550   17.9070 C   0  0  0  0  0  0  0  0  0  0  0  0
   26.7110   29.2010   16.5570 N   0  0  0  0  0  0  0  0  0  0  0  0
   28.1160   30.8190   16.7110 N   0  0  0  0  0  0  0  0  0  0  0  0
   27.3120   30.1680   15.8980 N   0  0  0  0  0  0  0  0  0  0  0  0
   28.9750   31.9640   16.3960 C   0  0  2  0  0  0  0  0  0  0  0  0
   30.2940   31.3840   15.9010 C   0  0  0  0  0  0  0  0  0  0  0  0
   29.2000   32.8130   17.6080 C   0  0  0  0  0  0  0  0  0  0  0  0
   28.3200   32.7990   15.3240 C   0  0  0  0  0  0  0  0  0  0  0  0
   31.2270   32.5200   15.5290 C   0  0  1  0  0  0  0  0  0  0  0  0
   30.1760   33.9090   17.2450 C   0  0  1  0  0  0  0  0  0  0  0  0
   29.2570   33.9240   14.9420 C   0  0  2  0  0  0  0  0  0  0  0  0
   30.5720   33.3390   14.4560 C   0  0  0  0  0  0  0  0  0  0  0  0
   31.4780   33.3320   16.7760 C   0  0  0  0  0  0  0  0  0  0  0  0
   29.5240   34.7540   16.1740 C   0  0  0  0  0  0  0  0  0  0  0  0
   29.8670   25.5550   16.9770 C   0  0  0  0  0  0  0  0  0  0  0  0
   28.3450   25.7220   17.0260 C   0  0  0  0  0  0  0  0  0  0  0  0
   27.6000   24.4070   16.8540 C   0  0  0  0  0  0  0  0  0  0  0  0
   26.5830   24.1860   17.9390 C   0  0  0  0  0  0  0  0  0  0  0  0
   25.1800   24.3180   17.3550 C   0  0  0  0  0  0  0  0  0  0  0  0
   24.1580   24.0600   18.3960 N   0  0  0  0  0  0  0  0  0  0  0  0
  2  1  1  6  0  0  0
  2  3  1  0  0  0  0
  3 23  1  6  0  0  0
  4  7  1  0  0  0  0
  4  3  1  1  0  0  0
  4  9  1  0  0  0  0
  5 12  1  6  0  0  0
  5 10  1  0  0  0  0
  5  6  1  0  0  0  0
  7  5  1  0  0  0  0
  8  6  1  0  0  0  0
  8 16  1  1  0  0  0
  9 18  1  6  0  0  0
  9  8  1  0  0  0  0
 10 11  1  0  0  0  0
 12 13  2  0  0  0  0
 14 12  1  0  0  0  0
 15 14  1  0  0  0  0
 17 16  1  0  0  0  0
 18 20  1  0  0  0  0
 19 18  1  0  0  0  0
 21 19  1  0  0  0  0
 22 19  2  0  0  0  0
 24 23  1  0  0  0  0
 25  2  1  0  0  0  0
 26 25  1  0  0  0  0
 27  1  1  0  0  0  0
 28 27  1  0  0  0  0
 28 30  2  0  0  0  0
 29 27  1  0  0  0  0
 31 28  1  0  0  0  0
 32 31  1  0  0  0  0
 33 34  2  0  0  0  0
 33 32  1  0  0  0  0
 35 33  1  0  0  0  0
 36 34  1  0  0  0  0
 37 35  2  0  0  0  0
 37 36  1  0  0  0  0
 38 41  1  6  0  0  0
 38 36  1  0  0  0  0
 38 40  1  0  0  0  0
 39 38  1  0  0  0  0
 42 45  1  6  0  0  0
 42 39  1  0  0  0  0
 42 46  1  0  0  0  0
 43 47  1  6  0  0  0
 43 40  1  0  0  0  0
 44 45  1  1  0  0  0
 44 41  1  0  0  0  0
 44 47  1  0  0  0  0
 46 43  1  0  0  0  0
 48 49  1  0  0  0  0
 50 49  1  0  0  0  0
 50 51  1  0  0  0  0
 52 51  1  0  0  0  0
 52 53  1  0  0  0  0
M  END
>  <REMARK>
 VINA RESULT:    -4.673      2.368      4.090
 INTER + INTRA:         -14.642
 INTER:                  -9.638
 INTRA:                  -5.004
 UNBOUND:                -6.554
 SMILES CC(=O)N[C@@H]1[C@@H](O)C[C@](O)(C(=O)O)O[C@H]1C(O)[C@H](O)CNC(=O)OCc1cn(C23CC4CC(CC(C4)C2)C3)nn1
 SMILES IDX 20 1 18 2 16 3 15 4 9 5 8 6 14 7 6 8 5 9 10 10 11 12 12 13
 SMILES IDX 13 14 7 16 4 18 2 19 1 21 3 22 17 23 19 25 21 27 22 28 23 30
 SMILES IDX 24 31 25 32 26 33 27 34 40 35 28 36 39 37 29 38 38 39 37 40
 SMILES IDX 30 41 33 42 35 43 31 44 32 45 34 46 36 47
 H PARENT 10 11 13 15 7 17 4 20 17 24 19 26 21 29
 Flexibility Score: inf
  4 active torsions:
  status: ('A' for Active; 'I' for Inactive)
    1  A    between atoms: CA   and  CB  
    2  A    between atoms: CB   and  CG  
    3  A    between atoms: CG   and  CD  
    4  A    between atoms: CD   and  CE  

>  <TORSDO>
F 15

>  <BEGIN_>
RES LYS A 131

$$$$
ligand_51_pose_13_2HRL.pdbqt
 OpenBabel07062320523D

  6  5  0  0  0  0  0  0  0  0999 V2000
   33.1930   34.6630    9.2900 C   0  0  0  0  0  0  0  0  0  0  0  0
   32.0600   35.3600   10.0340 C   0  0  0  0  0  0  0  0  0  0  0  0
   30.6890   34.9010    9.6100 C   0  0  0  0  0  0  0  0  0  0  0  0
   29.7300   34.9140   10.7900 C   0  0  0  0  0  0  0  0  0  0  0  0
   30.2120   35.8770   11.8580 C   0  0  0  0  0  0  0  0  0  0  0  0
   29.1070   36.7610   12.3220 N   0  0  0  0  0  0  0  0  0  0  0  0
  1  2  1  0  0  0  0
  3  2  1  0  0  0  0
  3  4  1  0  0  0  0
  4  5  1  0  0  0  0
  5  6  1  0  0  0  0
M  END
>  <EGIN_R>
ES LYS A 135

>  <REMARK>
  4 active torsions:
  status: ('A' for Active; 'I' for Inactive)
    5  A    between atoms: CA   and  CB  
    6  A    between atoms: CB   and  CG  
    7  A    between atoms: CG   and  CD  
    8  A    between atoms: CD   and  CE  

$$$$
