ligand_3_pose_18_2HRL.pdbqt
 OpenBabel07062320523D

 49 50  0  0  1  0  0  0  0  0999 V2000
   27.9400   29.0340   20.2440 C   0  0  0  0  0  0  0  0  0  0  0  0
   28.8850   27.9660   20.7580 C   0  0  2  0  0  0  0  0  0  0  0  0
   30.2340   28.5400   21.1310 C   0  0  1  0  0  0  0  0  0  0  0  0
   31.0980   27.5610   21.8530 C   0  0  2  0  0  0  0  0  0  0  0  0
   30.1000   27.0930   23.9270 C   0  0  2  0  0  0  0  0  0  0  0  0
   30.9770   28.0470   24.6580 C   0  0  0  0  0  0  0  0  0  0  0  0
   30.4670   26.7190   22.6910 O   0  0  0  0  0  0  0  0  0  0  0  0
   31.8630   28.8860   23.7850 C   0  0  1  0  0  0  0  0  0  0  0  0
   32.2810   28.1900   22.5290 C   0  0  1  0  0  0  0  0  0  0  0  0
   28.8300   27.7040   23.8410 O   0  0  0  0  0  0  0  0  0  0  0  0
   28.2820   27.3350   24.5910 H   0  0  0  0  0  0  0  0  0  0  0  0
   29.8930   25.8690   24.7470 C   0  0  0  0  0  0  0  0  0  0  0  0
   29.5070   24.7850   24.2560 O   0  0  0  0  0  0  0  0  0  0  0  0
   30.1300   25.9070   26.1030 O   0  0  0  0  0  0  0  0  0  0  0  0
   30.3420   25.0950   26.6700 H   0  0  0  0  0  0  0  0  0  0  0  0
   31.2250   30.0990   23.4700 O   0  0  0  0  0  0  0  0  0  0  0  0
   31.8540   30.7870   23.1760 H   0  0  0  0  0  0  0  0  0  0  0  0
   33.1900   27.1060   22.9100 N   0  0  0  0  0  0  0  0  0  0  0  0
   34.5440   27.3550   23.2650 C   0  0  0  0  0  0  0  0  0  0  0  0
   32.8680   26.1150   22.9320 H   0  0  0  0  0  0  0  0  0  0  0  0
   35.4810   26.2680   23.6550 C   0  0  0  0  0  0  0  0  0  0  0  0
   35.0060   28.5290   23.2620 O   0  0  0  0  0  0  0  0  0  0  0  0
   30.8190   28.9260   19.9130 O   0  0  0  0  0  0  0  0  0  0  0  0
   31.6380   28.3500   19.8330 H   0  0  0  0  0  0  0  0  0  0  0  0
   28.9600   26.8940   19.8860 O   0  0  0  0  0  0  0  0  0  0  0  0
   28.3990   27.0010   19.0920 H   0  0  0  0  0  0  0  0  0  0  0  0
   28.1880   29.4170   18.8900 N   0  0  0  0  0  0  0  0  0  0  0  0
   27.5480   28.8180   17.7720 C   0  0  0  0  0  0  0  0  0  0  0  0
   28.8730   30.1790   18.6750 H   0  0  0  0  0  0  0  0  0  0  0  0
   26.7200   27.9090   17.9130 O   0  0  0  0  0  0  0  0  0  0  0  0
   27.8280   29.2280   16.4730 O   0  0  0  0  0  0  0  0  0  0  0  0
   27.5420   30.5600   16.0740 C   0  0  0  0  0  0  0  0  0  0  0  0
   28.8350   31.2690   15.9460 C   0  0  0  0  0  0  0  0  0  0  0  0
   29.1130   32.3610   15.1550 C   0  0  0  0  0  0  0  0  0  0  0  0
   29.9720   30.9510   16.5970 N   0  0  0  0  0  0  0  0  0  0  0  0
   30.4060   32.6550   15.3630 N   0  0  0  0  0  0  0  0  0  0  0  0
   30.9090   31.8020   16.2310 N   0  0  0  0  0  0  0  0  0  0  0  0
   31.1070   33.7240   14.7380 C   0  0  0  0  0  0  0  0  0  0  0  0
   30.4610   34.4880   13.7810 C   0  0  0  0  0  0  0  0  0  0  0  0
   32.4180   34.0010   15.0760 C   0  0  0  0  0  0  0  0  0  0  0  0
   31.1720   35.5190   13.1920 C   0  0  0  0  0  0  0  0  0  0  0  0
   33.1080   35.0280   14.4820 C   0  0  0  0  0  0  0  0  0  0  0  0
   32.4710   35.7920   13.5290 C   0  0  0  0  0  0  0  0  0  0  0  0
   29.8670   25.5550   16.9770 C   0  0  0  0  0  0  0  0  0  0  0  0
   28.3450   25.7220   17.0260 C   0  0  0  0  0  0  0  0  0  0  0  0
   27.6010   24.4040   16.8730 C   0  0  0  0  0  0  0  0  0  0  0  0
   26.5500   24.2220   17.9330 C   0  0  0  0  0  0  0  0  0  0  0  0
   25.1660   24.3680   17.3070 C   0  0  0  0  0  0  0  0  0  0  0  0
   24.4930   23.0500   17.2230 N   0  0  0  0  0  0  0  0  0  0  0  0
  2  1  1  6  0  0  0
  2  3  1  0  0  0  0
  3 23  1  6  0  0  0
  4  3  1  1  0  0  0
  4  9  1  0  0  0  0
  4  7  1  0  0  0  0
  5 10  1  6  0  0  0
  5  6  1  0  0  0  0
  5 12  1  0  0  0  0
  7  5  1  0  0  0  0
  8 16  1  6  0  0  0
  8  6  1  0  0  0  0
  9 18  1  1  0  0  0
  9  8  1  0  0  0  0
 10 11  1  0  0  0  0
 12 14  1  0  0  0  0
 13 12  2  0  0  0  0
 14 15  1  0  0  0  0
 17 16  1  0  0  0  0
 18 20  1  0  0  0  0
 18 19  1  0  0  0  0
 19 21  1  0  0  0  0
 22 19  2  0  0  0  0
 24 23  1  0  0  0  0
 25  2  1  0  0  0  0
 26 25  1  0  0  0  0
 27  1  1  0  0  0  0
 28 30  2  0  0  0  0
 28 27  1  0  0  0  0
 29 27  1  0  0  0  0
 31 28  1  0  0  0  0
 32 31  1  0  0  0  0
 33 32  1  0  0  0  0
 33 35  1  0  0  0  0
 34 36  1  0  0  0  0
 34 33  2  0  0  0  0
 36 37  1  0  0  0  0
 37 35  2  0  0  0  0
 38 40  1  0  0  0  0
 38 36  1  0  0  0  0
 39 38  2  0  0  0  0
 41 43  2  0  0  0  0
 41 39  1  0  0  0  0
 42 40  2  0  0  0  0
 43 42  1  0  0  0  0
 44 45  1  0  0  0  0
 46 45  1  0  0  0  0
 46 47  1  0  0  0  0
 48 47  1  0  0  0  0
 49 48  1  0  0  0  0
M  END
>  <REMARK>
 VINA RESULT:    -5.100      9.306     15.610
 INTER + INTRA:         -13.312
 INTER:                  -8.827
 INTRA:                  -4.485
 UNBOUND:                -4.485
 SMILES CC(=O)N[C@@H]1[C@@H](O)C[C@](O)(C(=O)O)O[C@H]1C(O)[C@H](O)CNC(=O)OCc1cn(-c2ccccc2)nn1
 SMILES IDX 20 1 18 2 16 3 15 4 9 5 8 6 14 7 6 8 5 9 10 10 11 12 12 13
 SMILES IDX 13 14 7 16 4 18 2 19 1 21 3 22 17 23 19 25 21 27 22 28 23 30
 SMILES IDX 24 31 25 32 26 33 27 34 36 35 28 36 35 37 29 38 30 39 34 40
 SMILES IDX 31 41 33 42 32 43
 H PARENT 10 11 13 15 7 17 4 20 17 24 19 26 21 29
 Flexibility Score: inf
  4 active torsions:
  status: ('A' for Active; 'I' for Inactive)
    1  A    between atoms: CA   and  CB  
    2  A    between atoms: CB   and  CG  
    3  A    between atoms: CG   and  CD  
    4  A    between atoms: CD   and  CE  

>  <TORSDO>
F 15

>  <BEGIN_>
RES LYS A 131

$$$$
ligand_3_pose_18_2HRL.pdbqt
 OpenBabel07062320523D

  6  5  0  0  0  0  0  0  0  0999 V2000
   33.1930   34.6630    9.2900 C   0  0  0  0  0  0  0  0  0  0  0  0
   32.0600   35.3600   10.0340 C   0  0  0  0  0  0  0  0  0  0  0  0
   30.7070   34.7470    9.7820 C   0  0  0  0  0  0  0  0  0  0  0  0
   30.4880   34.5240    8.2930 C   0  0  0  0  0  0  0  0  0  0  0  0
   29.0450   34.8040    7.9190 C   0  0  0  0  0  0  0  0  0  0  0  0
   28.9570   35.5070    6.6090 N   0  0  0  0  0  0  0  0  0  0  0  0
  1  2  1  0  0  0  0
  3  2  1  0  0  0  0
  4  3  1  0  0  0  0
  5  4  1  0  0  0  0
  6  5  1  0  0  0  0
M  END
>  <EGIN_R>
ES LYS A 135

>  <REMARK>
  4 active torsions:
  status: ('A' for Active; 'I' for Inactive)
    5  A    between atoms: CA   and  CB  
    6  A    between atoms: CB   and  CG  
    7  A    between atoms: CG   and  CD  
    8  A    between atoms: CD   and  CE  

$$$$
