ligand_34_pose_19_2HRL.pdbqt
 OpenBabel07062320523D

 69 73  0  0  1  0  0  0  0  0999 V2000
   26.4840   40.1960    7.7990 N   0  0  0  0  0  0  0  0  0  0  0  0
   27.2630   39.1830    7.1410 C   0  0  0  0  0  0  0  0  0  0  0  0
   26.8410   38.7820    6.0210 O   0  0  0  0  0  0  0  0  0  0  0  0
   26.7830   40.5610    8.7220 H   0  0  0  0  0  0  0  0  0  0  0  0
   25.2810   40.7200    7.1990 C   0  0  0  0  0  0  0  0  0  0  0  0
   24.1970   40.7580    8.2250 C   0  0  2  0  0  0  0  0  0  0  0  0
   23.3150   39.5110    8.1700 C   0  0  2  0  0  0  0  0  0  0  0  0
   23.3420   38.7840    9.5050 C   0  0  2  0  0  0  0  0  0  0  0  0
   25.3860   38.0110   10.3100 C   0  0  2  0  0  0  0  0  0  0  0  0
   24.7190   36.9570   11.1670 C   0  0  0  0  0  0  0  0  0  0  0  0
   24.5320   39.0660   10.1120 O   0  0  0  0  0  0  0  0  0  0  0  0
   23.4360   36.5160   10.5630 C   0  0  1  0  0  0  0  0  0  0  0  0
   23.0080   37.3390    9.3730 C   0  0  1  0  0  0  0  0  0  0  0  0
   25.8190   37.4020    9.1600 O   0  0  0  0  0  0  0  0  0  0  0  0
   25.6490   37.9050    8.3440 H   0  0  0  0  0  0  0  0  0  0  0  0
   26.5530   38.5100   11.0770 C   0  0  0  0  0  0  0  0  0  0  0  0
   26.8480   37.9890   12.1810 O   0  0  0  0  0  0  0  0  0  0  0  0
   27.3600   39.5460   10.6350 O   0  0  0  0  0  0  0  0  0  0  0  0
   27.5940   40.3460   11.2430 H   0  0  0  0  0  0  0  0  0  0  0  0
   23.4750   35.1810   10.1690 O   0  0  0  0  0  0  0  0  0  0  0  0
   23.3840   34.5470   10.9140 H   0  0  0  0  0  0  0  0  0  0  0  0
   21.5520   37.1630    9.2670 N   0  0  0  0  0  0  0  0  0  0  0  0
   20.9060   36.7130    8.1020 C   0  0  0  0  0  0  0  0  0  0  0  0
   20.9880   37.3910   10.1170 H   0  0  0  0  0  0  0  0  0  0  0  0
   19.4340   36.5620    8.0730 C   0  0  0  0  0  0  0  0  0  0  0  0
   21.6500   36.4510    7.1000 O   0  0  0  0  0  0  0  0  0  0  0  0
   23.8490   38.7110    7.1540 O   0  0  0  0  0  0  0  0  0  0  0  0
   23.9250   37.7930    7.5310 H   0  0  0  0  0  0  0  0  0  0  0  0
   23.4250   41.9130    8.1260 O   0  0  0  0  0  0  0  0  0  0  0  0
   23.7360   42.6280    8.7300 H   0  0  0  0  0  0  0  0  0  0  0  0
   28.4050   38.6580    7.6660 O   0  0  0  0  0  0  0  0  0  0  0  0
   29.6680   39.2230    7.4030 C   0  0  0  0  0  0  0  0  0  0  0  0
   30.5770   38.9010    8.5210 C   0  0  0  0  0  0  0  0  0  0  0  0
   30.2540   38.2280    9.7010 C   0  0  0  0  0  0  0  0  0  0  0  0
   31.8800   39.1970    8.6300 N   0  0  0  0  0  0  0  0  0  0  0  0
   31.3570   38.1410   10.4660 N   0  0  0  0  0  0  0  0  0  0  0  0
   32.3200   38.7340    9.7930 N   0  0  0  0  0  0  0  0  0  0  0  0
   31.3850   37.5190   11.7410 C   0  0  0  0  0  0  0  0  0  0  0  0
   30.4420   37.6840   12.7120 C   0  0  0  0  0  0  0  0  0  0  0  0
   32.4610   36.6750   12.0290 C   0  0  0  0  0  0  0  0  0  0  0  0
   30.5130   37.0540   13.9510 C   0  0  0  0  0  0  0  0  0  0  0  0
   32.5510   36.0440   13.2400 C   0  0  0  0  0  0  0  0  0  0  0  0
   31.5680   36.2360   14.2090 C   0  0  0  0  0  0  0  0  0  0  0  0
   29.4820   37.2540   14.9670 C   0  0  0  0  0  0  0  0  0  0  0  0
   28.4580   36.5030   15.0230 O   0  0  0  0  0  0  0  0  0  0  0  0
   29.6000   38.2620   15.8860 O   0  0  0  0  0  0  0  0  0  0  0  0
   31.7560   35.5220   15.4630 C   0  0  0  0  0  0  0  0  0  0  0  0
   31.2410   34.2730   15.7320 C   0  0  0  0  0  0  0  0  0  0  0  0
   32.5030   36.1290   16.4580 C   0  0  0  0  0  0  0  0  0  0  0  0
   30.4900   33.6350   14.7640 C   0  0  0  0  0  0  0  0  0  0  0  0
   31.4590   33.6410   16.9510 C   0  0  0  0  0  0  0  0  0  0  0  0
   32.7030   35.4270   17.7160 C   0  0  0  0  0  0  0  0  0  0  0  0
   33.0620   37.3760   16.2910 C   0  0  0  0  0  0  0  0  0  0  0  0
   29.9510   32.3770   14.9890 C   0  0  0  0  0  0  0  0  0  0  0  0
   30.9370   32.3930   17.2040 C   0  0  0  0  0  0  0  0  0  0  0  0
   32.1670   34.2210   17.8900 O   0  0  0  0  0  0  0  0  0  0  0  0
   33.4380   36.0160   18.7020 C   0  0  0  0  0  0  0  0  0  0  0  0
   33.7900   37.9240   17.3090 C   0  0  0  0  0  0  0  0  0  0  0  0
   30.1840   31.7740   16.2090 C   0  0  0  0  0  0  0  0  0  0  0  0
   33.9880   37.2650   18.5120 C   0  0  0  0  0  0  0  0  0  0  0  0
   34.6680   37.8130   19.4200 O   0  0  0  0  0  0  0  0  0  0  0  0
   29.6490   30.5190   16.4420 O   0  0  0  0  0  0  0  0  0  0  0  0
   29.6440   30.0650   17.3360 H   0  0  0  0  0  0  0  0  0  0  0  0
   29.8670   25.5550   16.9770 C   0  0  0  0  0  0  0  0  0  0  0  0
   28.3450   25.7220   17.0260 C   0  0  0  0  0  0  0  0  0  0  0  0
   27.6010   24.4010   16.9040 C   0  0  0  0  0  0  0  0  0  0  0  0
   26.2300   24.4640   17.5170 C   0  0  0  0  0  0  0  0  0  0  0  0
   25.6490   23.0570   17.6100 C   0  0  0  0  0  0  0  0  0  0  0  0
   24.2530   23.0380   17.1130 N   0  0  0  0  0  0  0  0  0  0  0  0
  1  4  1  0  0  0  0
  2 31  1  0  0  0  0
  2  1  1  0  0  0  0
  3  2  2  0  0  0  0
  5  1  1  0  0  0  0
  6  5  1  6  0  0  0
  7 27  1  6  0  0  0
  7  6  1  0  0  0  0
  8  7  1  6  0  0  0
  8 11  1  0  0  0  0
  9 14  1  6  0  0  0
  9 16  1  0  0  0  0
  9 10  1  0  0  0  0
 11  9  1  0  0  0  0
 12 20  1  6  0  0  0
 12 10  1  0  0  0  0
 13 22  1  1  0  0  0
 13  8  1  0  0  0  0
 13 12  1  0  0  0  0
 15 14  1  0  0  0  0
 16 17  2  0  0  0  0
 18 16  1  0  0  0  0
 18 19  1  0  0  0  0
 20 21  1  0  0  0  0
 22 24  1  0  0  0  0
 23 22  1  0  0  0  0
 25 23  1  0  0  0  0
 26 23  2  0  0  0  0
 27 28  1  0  0  0  0
 29  6  1  0  0  0  0
 29 30  1  0  0  0  0
 32 31  1  0  0  0  0
 32 33  1  0  0  0  0
 33 35  1  0  0  0  0
 33 34  2  0  0  0  0
 34 36  1  0  0  0  0
 35 37  2  0  0  0  0
 36 38  1  0  0  0  0
 37 36  1  0  0  0  0
 38 40  2  0  0  0  0
 38 39  1  0  0  0  0
 39 41  2  0  0  0  0
 40 42  1  0  0  0  0
 41 43  1  0  0  0  0
 41 44  1  0  0  0  0
 42 43  2  0  0  0  0
 43 47  1  0  0  0  0
 44 45  2  0  0  0  0
 44 46  1  0  0  0  0
 47 48  1  0  0  0  0
 47 49  2  0  0  0  0
 48 51  1  0  0  0  0
 49 52  1  0  0  0  0
 50 54  1  0  0  0  0
 50 48  2  0  0  0  0
 51 55  2  0  0  0  0
 51 56  1  0  0  0  0
 52 56  1  0  0  0  0
 52 57  2  0  0  0  0
 53 49  1  0  0  0  0
 53 58  2  0  0  0  0
 54 59  2  0  0  0  0
 58 60  1  0  0  0  0
 59 62  1  0  0  0  0
 59 55  1  0  0  0  0
 60 57  1  0  0  0  0
 60 61  2  0  0  0  0
 62 63  1  0  0  0  0
 64 65  1  0  0  0  0
 66 65  1  0  0  0  0
 66 67  1  0  0  0  0
 67 68  1  0  0  0  0
 69 68  1  0  0  0  0
M  END
>  <REMARK>
 VINA RESULT:    -5.280      3.988      9.880
 INTER + INTRA:         -17.627
 INTER:                  -9.910
 INTRA:                  -7.717
 UNBOUND:                -7.717
 SMILES CC(=O)N[C@@H]1[C@@H](O)C[C@](O)(C(=O)O)O[C@H]1C(O)[C@H](O)CNC(=O)OCc1cn(-c2ccc(-c3c4ccc(=O)cc-4oc4cc(O)ccc34)c(C(=O)[O-])c2)nn1
 SMILES IDX 21 1 22 2 23 3 20 5 18 6 16 7 15 8 9 9 8 10 14 11 6 12 5 13
 SMILES IDX 10 14 11 16 12 17 13 18 7 20 4 22 2 23 1 25 3 26 17 27 19 29
 SMILES IDX 24 31 25 32 26 33 27 34 55 35 28 36 54 37 29 38 53 39 30 40
 SMILES IDX 49 41 31 42 32 43 50 44 51 45 52 46 33 47 48 48 34 49 47 50
 SMILES IDX 42 51 40 52 35 53 46 54 43 55 41 56 39 57 36 58 44 59 37 60
 SMILES IDX 38 61 45 62
 H PARENT 21 4 10 15 13 19 7 21 4 24 17 28 19 30 45 63
 Flexibility Score: inf
  4 active torsions:
  status: ('A' for Active; 'I' for Inactive)
    1  A    between atoms: CA   and  CB  
    2  A    between atoms: CB   and  CG  
    3  A    between atoms: CG   and  CD  
    4  A    between atoms: CD   and  CE  

>  <TORSDO>
F 18

>  <BEGIN_>
RES LYS A 131

$$$$
ligand_34_pose_19_2HRL.pdbqt
 OpenBabel07062320523D

  6  5  0  0  0  0  0  0  0  0999 V2000
   33.1930   34.6630    9.2900 C   0  0  0  0  0  0  0  0  0  0  0  0
   32.0600   35.3600   10.0340 C   0  0  0  0  0  0  0  0  0  0  0  0
   30.7310   34.6630    9.8970 C   0  0  0  0  0  0  0  0  0  0  0  0
   30.3220   34.5700    8.4360 C   0  0  0  0  0  0  0  0  0  0  0  0
   28.8110   34.5650    8.3050 C   0  0  0  0  0  0  0  0  0  0  0  0
   28.1770   33.8340    9.4370 N   0  0  0  0  0  0  0  0  0  0  0  0
  1  2  1  0  0  0  0
  3  2  1  0  0  0  0
  4  3  1  0  0  0  0
  5  4  1  0  0  0  0
  5  6  1  0  0  0  0
M  END
>  <EGIN_R>
ES LYS A 135

>  <REMARK>
  4 active torsions:
  status: ('A' for Active; 'I' for Inactive)
    5  A    between atoms: CA   and  CB  
    6  A    between atoms: CB   and  CG  
    7  A    between atoms: CG   and  CD  
    8  A    between atoms: CD   and  CE  

$$$$
