ligand_65_pose_9_2HRL.pdbqt
 OpenBabel07062320523D

 53 54  0  0  1  0  0  0  0  0999 V2000
   31.5020   34.6800   13.9890 N   0  0  0  0  0  0  0  0  0  0  0  0
   31.7210   36.0430   13.7110 C   0  0  0  0  0  0  0  0  0  0  0  0
   32.3050   36.8320   14.4870 O   0  0  0  0  0  0  0  0  0  0  0  0
   31.0060   34.0360   13.3020 H   0  0  0  0  0  0  0  0  0  0  0  0
   31.9570   34.1210   15.2440 C   0  0  0  0  0  0  0  0  0  0  0  0
   31.0370   33.0090   15.6400 C   0  0  2  0  0  0  0  0  0  0  0  0
   31.1240   32.7650   17.1330 C   0  0  2  0  0  0  0  0  0  0  0  0
   29.7130   32.5240   17.6480 C   0  0  2  0  0  0  0  0  0  0  0  0
   28.6160   30.7250   16.5940 C   0  0  2  0  0  0  0  0  0  0  0  0
   27.8190   31.6590   15.7400 C   0  0  0  0  0  0  0  0  0  0  0  0
   29.4230   31.2300   17.5220 O   0  0  0  0  0  0  0  0  0  0  0  0
   27.4690   32.8710   16.5940 C   0  0  1  0  0  0  0  0  0  0  0  0
   28.8270   33.4940   16.9120 C   0  0  1  0  0  0  0  0  0  0  0  0
   29.3970   29.9510   15.7020 O   0  0  0  0  0  0  0  0  0  0  0  0
   30.3330   29.8900   16.0040 H   0  0  0  0  0  0  0  0  0  0  0  0
   27.6580   29.7830   17.2280 C   0  0  0  0  0  0  0  0  0  0  0  0
   26.5230   29.5880   16.7250 O   0  0  0  0  0  0  0  0  0  0  0  0
   27.9660   29.0880   18.3860 O   0  0  0  0  0  0  0  0  0  0  0  0
   28.8510   29.2060   18.8820 H   0  0  0  0  0  0  0  0  0  0  0  0
   26.7250   33.7970   15.8890 O   0  0  0  0  0  0  0  0  0  0  0  0
   25.7610   33.5680   16.0270 H   0  0  0  0  0  0  0  0  0  0  0  0
   28.6710   34.7260   17.6540 N   0  0  0  0  0  0  0  0  0  0  0  0
   28.8040   35.9860   17.0170 C   0  0  0  0  0  0  0  0  0  0  0  0
   28.4570   34.6240   18.6720 H   0  0  0  0  0  0  0  0  0  0  0  0
   28.6320   37.2090   17.8330 C   0  0  0  0  0  0  0  0  0  0  0  0
   29.0600   36.0940   15.7980 O   0  0  0  0  0  0  0  0  0  0  0  0
   31.6390   33.9380   17.7450 O   0  0  0  0  0  0  0  0  0  0  0  0
   32.2430   33.5890   18.4610 H   0  0  0  0  0  0  0  0  0  0  0  0
   31.3800   31.8550   14.9190 O   0  0  0  0  0  0  0  0  0  0  0  0
   32.2970   31.5850   15.1030 H   0  0  0  0  0  0  0  0  0  0  0  0
   31.2620   36.5600   12.4880 O   0  0  0  0  0  0  0  0  0  0  0  0
   30.1180   37.3870   12.5170 C   0  0  0  0  0  0  0  0  0  0  0  0
   28.9170   36.5540   12.1850 C   0  0  0  0  0  0  0  0  0  0  0  0
   27.7800   36.9520   11.5060 C   0  0  0  0  0  0  0  0  0  0  0  0
   28.6970   35.2510   12.4760 N   0  0  0  0  0  0  0  0  0  0  0  0
   26.9220   35.9170   11.4030 N   0  0  0  0  0  0  0  0  0  0  0  0
   27.5060   34.9030   12.0000 N   0  0  0  0  0  0  0  0  0  0  0  0
   25.6390   35.9340   10.7680 C   0  0  0  0  0  0  0  0  0  0  0  0
   24.5990   35.2310   11.2530 N   0  0  0  0  0  0  0  0  0  0  0  0
   25.4290   36.6610    9.6530 N   0  0  0  0  0  0  0  0  0  0  0  0
   23.3810   35.2190   10.6880 C   0  0  0  0  0  0  0  0  0  0  0  0
   24.2200   36.6900    9.0360 C   0  0  0  0  0  0  0  0  0  0  0  0
   23.2250   35.9710    9.5640 N   0  0  0  0  0  0  0  0  0  0  0  0
   23.9770   37.4890    7.8050 C   0  0  0  0  0  0  0  0  0  0  0  0
   22.2890   34.4840   11.1930 N   0  0  0  0  0  0  0  0  0  0  0  0
   21.7770   33.8350   10.5810 H   0  0  0  0  0  0  0  0  0  0  0  0
   22.0060   34.5990   12.1760 H   0  0  0  0  0  0  0  0  0  0  0  0
   29.8670   25.5550   16.9770 C   0  0  0  0  0  0  0  0  0  0  0  0
   28.3450   25.7220   17.0260 C   0  0  0  0  0  0  0  0  0  0  0  0
   27.6030   24.3960   16.9600 C   0  0  0  0  0  0  0  0  0  0  0  0
   26.6370   24.2300   18.1000 C   0  0  0  0  0  0  0  0  0  0  0  0
   25.2620   23.8590   17.5530 C   0  0  0  0  0  0  0  0  0  0  0  0
   25.1030   22.3860   17.5070 N   0  0  0  0  0  0  0  0  0  0  0  0
  1  5  1  0  0  0  0
  2  1  1  0  0  0  0
  2  3  2  0  0  0  0
  4  1  1  0  0  0  0
  6  5  1  6  0  0  0
  6  7  1  0  0  0  0
  7 27  1  1  0  0  0
  8  7  1  6  0  0  0
  9 14  1  6  0  0  0
  9 16  1  0  0  0  0
  9 11  1  0  0  0  0
 10 12  1  0  0  0  0
 10  9  1  0  0  0  0
 11  8  1  0  0  0  0
 12 20  1  6  0  0  0
 12 13  1  0  0  0  0
 13  8  1  0  0  0  0
 13 22  1  1  0  0  0
 14 15  1  0  0  0  0
 16 18  1  0  0  0  0
 17 16  2  0  0  0  0
 18 19  1  0  0  0  0
 20 21  1  0  0  0  0
 22 24  1  0  0  0  0
 23 22  1  0  0  0  0
 23 25  1  0  0  0  0
 26 23  2  0  0  0  0
 27 28  1  0  0  0  0
 29 30  1  0  0  0  0
 29  6  1  0  0  0  0
 31 32  1  0  0  0  0
 31  2  1  0  0  0  0
 33 35  1  0  0  0  0
 33 32  1  0  0  0  0
 34 33  2  0  0  0  0
 36 34  1  0  0  0  0
 36 37  1  0  0  0  0
 37 35  2  0  0  0  0
 38 39  2  0  0  0  0
 38 36  1  0  0  0  0
 40 38  1  0  0  0  0
 41 45  1  0  0  0  0
 41 39  2  0  0  0  0
 42 43  1  0  0  0  0
 42 40  2  0  0  0  0
 43 41  1  0  0  0  0
 44 42  1  0  0  0  0
 45 47  1  0  0  0  0
 46 45  1  0  0  0  0
 48 49  1  0  0  0  0
 50 49  1  0  0  0  0
 50 51  1  0  0  0  0
 52 51  1  0  0  0  0
 53 52  1  0  0  0  0
M  END
>  <REMARK>
 VINA RESULT:    -5.143      3.829      7.849
 INTER + INTRA:         -14.186
 INTER:                  -8.616
 INTRA:                  -5.570
 UNBOUND:                -5.134
 SMILES CC(=O)N[C@@H]1[C@@H](O)C[C@](O)(C(=O)O)O[C@H]1C(O)[C@H](O)CNC(=O)OCc1cn(-c2nc(C)nc(N)n2)nn1
 SMILES IDX 21 1 22 2 23 3 20 5 18 6 16 7 15 8 9 9 8 10 14 11 6 12 5 13
 SMILES IDX 10 14 11 16 12 17 13 18 7 20 4 22 2 23 1 25 3 26 17 27 19 29
 SMILES IDX 24 31 25 32 26 33 27 34 38 35 28 36 37 37 29 38 36 39 30 40
 SMILES IDX 34 41 31 42 33 43 32 44 35 45
 H PARENT 21 4 10 15 13 19 7 21 4 24 17 28 19 30 35 46 35 47
 Flexibility Score: inf
  4 active torsions:
  status: ('A' for Active; 'I' for Inactive)
    1  A    between atoms: CA   and  CB  
    2  A    between atoms: CB   and  CG  
    3  A    between atoms: CG   and  CD  
    4  A    between atoms: CD   and  CE  

>  <TORSDO>
F 16

>  <BEGIN_>
RES LYS A 131

$$$$
ligand_65_pose_9_2HRL.pdbqt
 OpenBabel07062320523D

  6  5  0  0  0  0  0  0  0  0999 V2000
   33.1930   34.6630    9.2900 C   0  0  0  0  0  0  0  0  0  0  0  0
   32.0600   35.3600   10.0340 C   0  0  0  0  0  0  0  0  0  0  0  0
   30.7980   35.4940    9.2210 C   0  0  0  0  0  0  0  0  0  0  0  0
   30.2580   34.1250    8.8380 C   0  0  0  0  0  0  0  0  0  0  0  0
   28.7420   34.1300    8.8430 C   0  0  0  0  0  0  0  0  0  0  0  0
   28.2060   35.1860    7.9400 N   0  0  0  0  0  0  0  0  0  0  0  0
  1  2  1  0  0  0  0
  3  2  1  0  0  0  0
  4  5  1  0  0  0  0
  4  3  1  0  0  0  0
  6  5  1  0  0  0  0
M  END
>  <EGIN_R>
ES LYS A 135

>  <REMARK>
  4 active torsions:
  status: ('A' for Active; 'I' for Inactive)
    5  A    between atoms: CA   and  CB  
    6  A    between atoms: CB   and  CG  
    7  A    between atoms: CG   and  CD  
    8  A    between atoms: CD   and  CE  

$$$$
