ligand_51_pose_18_2HRL.pdbqt
 OpenBabel07062320523D

 53 56  0  0  1  0  0  0  0  0999 V2000
   24.9260   36.7160   10.6330 C   0  0  0  0  0  0  0  0  0  0  0  0
   24.8740   35.7910    9.4450 C   0  0  2  0  0  0  0  0  0  0  0  0
   26.2400   35.2660    9.0540 C   0  0  1  0  0  0  0  0  0  0  0  0
   27.2450   36.4200    8.9720 C   0  0  2  0  0  0  0  0  0  0  0  0
   27.8870   36.9230    6.7730 C   0  0  2  0  0  0  0  0  0  0  0  0
   28.7860   35.7170    6.8610 C   0  0  0  0  0  0  0  0  0  0  0  0
   27.1060   37.1700    7.8480 O   0  0  0  0  0  0  0  0  0  0  0  0
   29.5350   35.7430    8.1470 C   0  0  1  0  0  0  0  0  0  0  0  0
   28.6270   36.0060    9.3190 C   0  0  1  0  0  0  0  0  0  0  0  0
   27.0250   36.6540    5.6850 O   0  0  0  0  0  0  0  0  0  0  0  0
   26.1470   36.4000    6.0730 H   0  0  0  0  0  0  0  0  0  0  0  0
   28.7370   38.0710    6.3700 C   0  0  0  0  0  0  0  0  0  0  0  0
   28.6670   39.1940    6.9410 O   0  0  0  0  0  0  0  0  0  0  0  0
   29.6410   37.9270    5.3400 O   0  0  0  0  0  0  0  0  0  0  0  0
   29.3770   37.5760    4.4190 H   0  0  0  0  0  0  0  0  0  0  0  0
   30.2090   34.5070    8.2700 O   0  0  0  0  0  0  0  0  0  0  0  0
   29.8570   33.8680    7.6150 H   0  0  0  0  0  0  0  0  0  0  0  0
   29.2170   37.0300   10.1720 N   0  0  0  0  0  0  0  0  0  0  0  0
   28.9700   37.0910   11.5680 C   0  0  0  0  0  0  0  0  0  0  0  0
   29.8570   37.7610    9.7450 H   0  0  0  0  0  0  0  0  0  0  0  0
   29.6070   38.1580   12.3540 C   0  0  0  0  0  0  0  0  0  0  0  0
   28.2050   36.2180   12.0800 O   0  0  0  0  0  0  0  0  0  0  0  0
   26.6770   34.2460    9.8430 O   0  0  0  0  0  0  0  0  0  0  0  0
   26.7100   33.3620    9.4460 H   0  0  0  0  0  0  0  0  0  0  0  0
   24.2610   36.4770    8.4000 O   0  0  0  0  0  0  0  0  0  0  0  0
   23.2600   36.3950    8.5120 H   0  0  0  0  0  0  0  0  0  0  0  0
   25.1680   35.8930   11.8040 N   0  0  0  0  0  0  0  0  0  0  0  0
   24.1150   35.5390   12.7150 C   0  0  0  0  0  0  0  0  0  0  0  0
   26.1110   35.5130   12.0530 H   0  0  0  0  0  0  0  0  0  0  0  0
   22.9620   35.9690   12.4610 O   0  0  0  0  0  0  0  0  0  0  0  0
   24.3280   34.7610   13.8270 O   0  0  0  0  0  0  0  0  0  0  0  0
   23.9640   33.3990   13.7950 C   0  0  0  0  0  0  0  0  0  0  0  0
   25.0460   32.6340   14.4920 C   0  0  0  0  0  0  0  0  0  0  0  0
   26.2590   33.1770   14.8700 C   0  0  0  0  0  0  0  0  0  0  0  0
   25.0920   31.3600   14.8740 N   0  0  0  0  0  0  0  0  0  0  0  0
   26.9720   32.2250   15.4530 N   0  0  0  0  0  0  0  0  0  0  0  0
   26.2510   31.1230   15.4500 N   0  0  0  0  0  0  0  0  0  0  0  0
   28.3220   32.4110   15.9930 C   0  0  2  0  0  0  0  0  0  0  0  0
   29.0320   31.0730   15.8360 C   0  0  0  0  0  0  0  0  0  0  0  0
   28.2710   32.8090   17.4350 C   0  0  0  0  0  0  0  0  0  0  0  0
   29.0280   33.4890   15.2090 C   0  0  0  0  0  0  0  0  0  0  0  0
   30.4520   31.2000   16.3530 C   0  0  1  0  0  0  0  0  0  0  0  0
   29.6880   32.8780   17.9580 C   0  0  1  0  0  0  0  0  0  0  0  0
   30.4500   33.6060   15.7150 C   0  0  2  0  0  0  0  0  0  0  0  0
   31.1500   32.2670   15.5610 C   0  0  0  0  0  0  0  0  0  0  0  0
   30.3750   31.5530   17.8180 C   0  0  0  0  0  0  0  0  0  0  0  0
   30.4020   33.9610   17.1810 C   0  0  0  0  0  0  0  0  0  0  0  0
   29.8670   25.5550   16.9770 C   0  0  0  0  0  0  0  0  0  0  0  0
   28.3450   25.7220   17.0260 C   0  0  0  0  0  0  0  0  0  0  0  0
   27.6020   24.4000   16.9100 C   0  0  0  0  0  0  0  0  0  0  0  0
   26.1540   24.5280   17.2980 C   0  0  0  0  0  0  0  0  0  0  0  0
   25.7060   23.2590   18.0150 C   0  0  0  0  0  0  0  0  0  0  0  0
   24.4130   22.7840   17.4680 N   0  0  0  0  0  0  0  0  0  0  0  0
  1 27  1  0  0  0  0
  2  1  1  1  0  0  0
  3  2  1  0  0  0  0
  3 23  1  1  0  0  0
  4  3  1  6  0  0  0
  4  9  1  0  0  0  0
  5 10  1  6  0  0  0
  5  6  1  0  0  0  0
  5  7  1  0  0  0  0
  6  8  1  0  0  0  0
  7  4  1  0  0  0  0
  8 16  1  1  0  0  0
  8  9  1  0  0  0  0
  9 18  1  1  0  0  0
 10 11  1  0  0  0  0
 12  5  1  0  0  0  0
 12 13  2  0  0  0  0
 14 12  1  0  0  0  0
 15 14  1  0  0  0  0
 17 16  1  0  0  0  0
 18 19  1  0  0  0  0
 19 22  2  0  0  0  0
 19 21  1  0  0  0  0
 20 18  1  0  0  0  0
 24 23  1  0  0  0  0
 25 26  1  0  0  0  0
 25  2  1  0  0  0  0
 27 29  1  0  0  0  0
 27 28  1  0  0  0  0
 28 31  1  0  0  0  0
 30 28  2  0  0  0  0
 32 31  1  0  0  0  0
 32 33  1  0  0  0  0
 33 34  2  0  0  0  0
 33 35  1  0  0  0  0
 34 36  1  0  0  0  0
 35 37  2  0  0  0  0
 36 38  1  0  0  0  0
 37 36  1  0  0  0  0
 38 41  1  6  0  0  0
 38 40  1  0  0  0  0
 39 38  1  0  0  0  0
 39 42  1  0  0  0  0
 40 43  1  0  0  0  0
 42 45  1  6  0  0  0
 42 46  1  0  0  0  0
 43 47  1  6  0  0  0
 44 41  1  1  0  0  0
 44 47  1  0  0  0  0
 45 44  1  0  0  0  0
 46 43  1  0  0  0  0
 48 49  1  0  0  0  0
 50 49  1  0  0  0  0
 50 51  1  0  0  0  0
 51 52  1  0  0  0  0
 53 52  1  0  0  0  0
M  END
>  <REMARK>
 VINA RESULT:    -4.538      6.463     11.324
 INTER + INTRA:         -14.409
 INTER:                 -10.241
 INTRA:                  -4.168
 UNBOUND:                -6.554
 SMILES CC(=O)N[C@@H]1[C@@H](O)C[C@](O)(C(=O)O)O[C@H]1C(O)[C@H](O)CNC(=O)OCc1cn(C23CC4CC(CC(C4)C2)C3)nn1
 SMILES IDX 20 1 18 2 16 3 15 4 9 5 8 6 14 7 6 8 5 9 10 10 11 12 12 13
 SMILES IDX 13 14 7 16 4 18 2 19 1 21 3 22 17 23 19 25 21 27 22 28 23 30
 SMILES IDX 24 31 25 32 26 33 27 34 40 35 28 36 39 37 29 38 38 39 37 40
 SMILES IDX 30 41 33 42 35 43 31 44 32 45 34 46 36 47
 H PARENT 10 11 13 15 7 17 4 20 17 24 19 26 21 29
 Flexibility Score: inf
  4 active torsions:
  status: ('A' for Active; 'I' for Inactive)
    1  A    between atoms: CA   and  CB  
    2  A    between atoms: CB   and  CG  
    3  A    between atoms: CG   and  CD  
    4  A    between atoms: CD   and  CE  

>  <TORSDO>
F 15

>  <BEGIN_>
RES LYS A 131

$$$$
ligand_51_pose_18_2HRL.pdbqt
 OpenBabel07062320523D

  6  5  0  0  0  0  0  0  0  0999 V2000
   33.1930   34.6630    9.2900 C   0  0  0  0  0  0  0  0  0  0  0  0
   32.0600   35.3600   10.0340 C   0  0  0  0  0  0  0  0  0  0  0  0
   32.5100   36.0820   11.2770 C   0  0  0  0  0  0  0  0  0  0  0  0
   32.1090   35.3080   12.5230 C   0  0  0  0  0  0  0  0  0  0  0  0
   32.5160   36.0630   13.7740 C   0  0  0  0  0  0  0  0  0  0  0  0
   33.3870   35.2270   14.6460 N   0  0  0  0  0  0  0  0  0  0  0  0
  1  2  1  0  0  0  0
  2  3  1  0  0  0  0
  3  4  1  0  0  0  0
  4  5  1  0  0  0  0
  5  6  1  0  0  0  0
M  END
>  <EGIN_R>
ES LYS A 135

>  <REMARK>
  4 active torsions:
  status: ('A' for Active; 'I' for Inactive)
    5  A    between atoms: CA   and  CB  
    6  A    between atoms: CB   and  CG  
    7  A    between atoms: CG   and  CD  
    8  A    between atoms: CD   and  CE  

$$$$
