ligand_76_pose_3_2HRL.pdbqt
 OpenBabel07062320523D

 55 56  0  0  1  0  0  0  0  0999 V2000
   31.2480   38.6390    8.6890 O   0  0  0  0  0  0  0  0  0  0  0  0
   30.8830   38.9820    7.3990 C   0  0  0  0  0  0  0  0  0  0  0  0
   29.7050   38.4640    6.8210 N   0  0  0  0  0  0  0  0  0  0  0  0
   29.1110   37.8190    7.3740 H   0  0  0  0  0  0  0  0  0  0  0  0
   31.6010   39.7610    6.7320 O   0  0  0  0  0  0  0  0  0  0  0  0
   29.2840   38.8020    5.4690 C   0  0  0  0  0  0  0  0  0  0  0  0
   27.7730   38.7340    5.3410 C   0  0  2  0  0  0  0  0  0  0  0  0
   27.1700   39.0040    6.7090 C   0  0  1  0  0  0  0  0  0  0  0  0
   26.5000   40.3820    6.7290 C   0  0  2  0  0  0  0  0  0  0  0  0
   28.0710   42.0490    7.1790 C   0  0  2  0  0  0  0  0  0  0  0  0
   27.9440   41.6630    8.6110 C   0  0  0  0  0  0  0  0  0  0  0  0
   27.2960   41.3830    6.2990 O   0  0  0  0  0  0  0  0  0  0  0  0
   26.5480   41.3870    9.0430 C   0  0  1  0  0  0  0  0  0  0  0  0
   25.7880   40.5720    8.0310 C   0  0  1  0  0  0  0  0  0  0  0  0
   29.4240   41.8420    6.8150 O   0  0  0  0  0  0  0  0  0  0  0  0
   29.6700   42.4750    6.0940 H   0  0  0  0  0  0  0  0  0  0  0  0
   27.8550   43.5370    7.0890 C   0  0  0  0  0  0  0  0  0  0  0  0
   28.7380   44.3730    7.3930 O   0  0  0  0  0  0  0  0  0  0  0  0
   26.6360   44.0630    6.6510 O   0  0  0  0  0  0  0  0  0  0  0  0
   26.5130   45.0820    6.5660 H   0  0  0  0  0  0  0  0  0  0  0  0
   26.5880   40.7490   10.3040 O   0  0  0  0  0  0  0  0  0  0  0  0
   25.7150   40.8700   10.7840 H   0  0  0  0  0  0  0  0  0  0  0  0
   24.4470   41.1160    7.8070 N   0  0  0  0  0  0  0  0  0  0  0  0
   23.3140   40.2910    7.7550 C   0  0  0  0  0  0  0  0  0  0  0  0
   24.3840   42.1700    7.6860 H   0  0  0  0  0  0  0  0  0  0  0  0
   21.9850   40.8850    7.5250 C   0  0  0  0  0  0  0  0  0  0  0  0
   23.4200   39.0580    7.9000 O   0  0  0  0  0  0  0  0  0  0  0  0
   26.1100   38.0890    6.8350 O   0  0  0  0  0  0  0  0  0  0  0  0
   25.3690   38.4600    7.4020 H   0  0  0  0  0  0  0  0  0  0  0  0
   27.3890   37.4780    4.8890 O   0  0  0  0  0  0  0  0  0  0  0  0
   28.2130   36.9790    4.6740 H   0  0  0  0  0  0  0  0  0  0  0  0
   30.8910   39.5770    9.7170 C   0  0  0  0  0  0  0  0  0  0  0  0
   29.7330   39.0730   10.4860 C   0  0  0  0  0  0  0  0  0  0  0  0
   28.9710   37.9470   10.2790 C   0  0  0  0  0  0  0  0  0  0  0  0
   29.2210   39.6790   11.5720 N   0  0  0  0  0  0  0  0  0  0  0  0
   28.0280   37.8980   11.2310 N   0  0  0  0  0  0  0  0  0  0  0  0
   28.1910   38.9340   11.9920 N   0  0  0  0  0  0  0  0  0  0  0  0
   26.9790   36.8700   11.4130 C   0  0  0  0  0  0  0  0  0  0  0  0
   26.2230   36.7400   10.1280 C   0  0  2  0  0  0  0  0  0  0  0  0
   25.4240   37.8640    9.8750 O   0  0  0  0  0  0  0  0  0  0  0  0
   26.0410   38.6440    9.7660 H   0  0  0  0  0  0  0  0  0  0  0  0
   25.6840   35.4420    9.7920 C   0  0  0  0  0  0  0  0  0  0  0  0
   26.1540   34.7500    8.5860 C   0  0  0  0  0  0  0  0  0  0  0  0
   27.5970   34.6410    8.4480 C   0  0  0  0  0  0  0  0  0  0  0  0
   28.3060   33.9610    9.4460 C   0  0  0  0  0  0  0  0  0  0  0  0
   28.3450   35.2050    7.4620 C   0  0  0  0  0  0  0  0  0  0  0  0
   29.6780   33.8800    9.4140 C   0  0  0  0  0  0  0  0  0  0  0  0
   29.7260   35.1340    7.4110 C   0  0  0  0  0  0  0  0  0  0  0  0
   30.4080   34.4600    8.4030 C   0  0  0  0  0  0  0  0  0  0  0  0
   29.8670   25.5550   16.9770 C   0  0  0  0  0  0  0  0  0  0  0  0
   28.3450   25.7220   17.0260 C   0  0  0  0  0  0  0  0  0  0  0  0
   27.6010   24.4010   16.9050 C   0  0  0  0  0  0  0  0  0  0  0  0
   26.1610   24.5210   17.3200 C   0  0  0  0  0  0  0  0  0  0  0  0
   25.9670   25.8080   18.1160 C   0  0  0  0  0  0  0  0  0  0  0  0
   24.7170   26.4900   17.7020 N   0  0  0  0  0  0  0  0  0  0  0  0
  1 32  1  0  0  0  0
  2  1  1  0  0  0  0
  3  4  1  0  0  0  0
  3  2  1  0  0  0  0
  5  2  2  0  0  0  0
  6  3  1  0  0  0  0
  7  6  1  1  0  0  0
  7  8  1  0  0  0  0
  8 28  1  6  0  0  0
  9  8  1  1  0  0  0
  9 14  1  0  0  0  0
 10 15  1  6  0  0  0
 10 11  1  0  0  0  0
 11 13  1  0  0  0  0
 12  9  1  0  0  0  0
 12 10  1  0  0  0  0
 13 21  1  1  0  0  0
 14 23  1  6  0  0  0
 14 13  1  0  0  0  0
 16 15  1  0  0  0  0
 17 10  1  0  0  0  0
 17 18  2  0  0  0  0
 19 17  1  0  0  0  0
 20 19  1  0  0  0  0
 21 22  1  0  0  0  0
 24 23  1  0  0  0  0
 24 27  2  0  0  0  0
 25 23  1  0  0  0  0
 26 24  1  0  0  0  0
 28 29  1  0  0  0  0
 30  7  1  0  0  0  0
 31 30  1  0  0  0  0
 32 33  1  0  0  0  0
 33 35  1  0  0  0  0
 34 33  2  0  0  0  0
 34 36  1  0  0  0  0
 35 37  2  0  0  0  0
 36 38  1  0  0  0  0
 36 37  1  0  0  0  0
 39 42  1  1  0  0  0
 39 38  1  0  0  0  0
 40 39  1  0  0  0  0
 41 40  1  0  0  0  0
 43 42  1  0  0  0  0
 44 43  1  0  0  0  0
 44 45  2  0  0  0  0
 46 44  1  0  0  0  0
 47 45  1  0  0  0  0
 48 46  2  0  0  0  0
 48 49  1  0  0  0  0
 49 47  2  0  0  0  0
 50 51  1  0  0  0  0
 52 51  1  0  0  0  0
 52 53  1  0  0  0  0
 53 54  1  0  0  0  0
 55 54  1  0  0  0  0
M  END
>  <REMARK>
 VINA RESULT:    -5.121      2.698      5.761
 INTER + INTRA:         -16.982
 INTER:                 -10.269
 INTRA:                  -6.713
 UNBOUND:                -6.771
 SMILES CC(=O)N[C@@H]1[C@@H](O)C[C@](O)(C(=O)O)O[C@H]1C(O)[C@H](O)CNC(=O)OCc1cn(CC(O)CCc2ccccc2)nn1
 SMILES IDX 24 1 22 2 21 3 23 5 20 6 18 7 16 8 15 9 9 10 8 11 14 12 6 13
 SMILES IDX 5 14 10 15 11 17 12 18 13 19 7 21 4 23 2 24 1 26 3 27 17 28
 SMILES IDX 19 30 25 32 26 33 27 34 41 35 28 36 40 37 29 38 30 39 31 40
 SMILES IDX 32 42 33 43 34 44 35 45 39 46 36 47 38 48 37 49
 H PARENT 21 4 10 16 13 20 7 22 4 25 17 29 19 31 31 41
 Flexibility Score: inf
  4 active torsions:
  status: ('A' for Active; 'I' for Inactive)
    1  A    between atoms: CA   and  CB  
    2  A    between atoms: CB   and  CG  
    3  A    between atoms: CG   and  CD  
    4  A    between atoms: CD   and  CE  

>  <TORSDO>
F 20

>  <BEGIN_>
RES LYS A 131

$$$$
ligand_76_pose_3_2HRL.pdbqt
 OpenBabel07062320523D

  6  5  0  0  0  0  0  0  0  0999 V2000
   33.1930   34.6630    9.2900 C   0  0  0  0  0  0  0  0  0  0  0  0
   32.0600   35.3600   10.0340 C   0  0  0  0  0  0  0  0  0  0  0  0
   32.2880   35.4620   11.5200 C   0  0  0  0  0  0  0  0  0  0  0  0
   32.2460   36.9140   11.9710 C   0  0  0  0  0  0  0  0  0  0  0  0
   31.3810   37.0630   13.2080 C   0  0  0  0  0  0  0  0  0  0  0  0
   30.3050   36.0340   13.2360 N   0  0  0  0  0  0  0  0  0  0  0  0
  1  2  1  0  0  0  0
  2  3  1  0  0  0  0
  3  4  1  0  0  0  0
  4  5  1  0  0  0  0
  5  6  1  0  0  0  0
M  END
>  <EGIN_R>
ES LYS A 135

>  <REMARK>
  4 active torsions:
  status: ('A' for Active; 'I' for Inactive)
    5  A    between atoms: CA   and  CB  
    6  A    between atoms: CB   and  CG  
    7  A    between atoms: CG   and  CD  
    8  A    between atoms: CD   and  CE  

$$$$
