ligand_68_pose_8_2HRL.pdbqt
 OpenBabel07062320523D

 53 54  0  0  1  0  0  0  0  0999 V2000
   29.7850   33.0170   18.7230 N   0  0  0  0  0  0  0  0  0  0  0  0
   30.2620   33.5840   17.5150 C   0  0  0  0  0  0  0  0  0  0  0  0
   31.4860   33.5210   17.2620 O   0  0  0  0  0  0  0  0  0  0  0  0
   28.7310   33.1100   18.8600 H   0  0  0  0  0  0  0  0  0  0  0  0
   30.6100   32.3640   19.7130 C   0  0  0  0  0  0  0  0  0  0  0  0
   30.2550   30.9010   19.8770 C   0  0  2  0  0  0  0  0  0  0  0  0
   31.2410   30.2220   20.8300 C   0  0  2  0  0  0  0  0  0  0  0  0
   30.6100   29.7250   22.1030 C   0  0  2  0  0  0  0  0  0  0  0  0
   32.1930   28.0460   22.4980 C   0  0  2  0  0  0  0  0  0  0  0  0
   31.5000   27.2110   21.4980 C   0  0  0  0  0  0  0  0  0  0  0  0
   31.6250   29.2040   22.9080 O   0  0  0  0  0  0  0  0  0  0  0  0
   30.0350   27.4450   21.3000 C   0  0  1  0  0  0  0  0  0  0  0  0
   29.5340   28.7530   21.8640 C   0  0  1  0  0  0  0  0  0  0  0  0
   33.4380   28.4160   21.9060 O   0  0  0  0  0  0  0  0  0  0  0  0
   33.3110   29.3400   21.5970 H   0  0  0  0  0  0  0  0  0  0  0  0
   32.5940   27.1680   23.6600 C   0  0  0  0  0  0  0  0  0  0  0  0
   33.7920   26.8980   23.9100 O   0  0  0  0  0  0  0  0  0  0  0  0
   31.6130   26.6320   24.4900 O   0  0  0  0  0  0  0  0  0  0  0  0
   31.7740   25.8560   25.1130 H   0  0  0  0  0  0  0  0  0  0  0  0
   29.7250   27.3600   19.9130 O   0  0  0  0  0  0  0  0  0  0  0  0
   28.8670   27.8090   19.7920 H   0  0  0  0  0  0  0  0  0  0  0  0
   28.7740   28.4060   23.0550 N   0  0  0  0  0  0  0  0  0  0  0  0
   27.3990   28.6940   23.2280 C   0  0  0  0  0  0  0  0  0  0  0  0
   29.3130   27.9150   23.8010 H   0  0  0  0  0  0  0  0  0  0  0  0
   26.6520   28.3260   24.4550 C   0  0  0  0  0  0  0  0  0  0  0  0
   26.8370   29.2880   22.2710 O   0  0  0  0  0  0  0  0  0  0  0  0
   32.0790   31.3370   21.2190 O   0  0  0  0  0  0  0  0  0  0  0  0
   32.2830   31.3060   22.1660 H   0  0  0  0  0  0  0  0  0  0  0  0
   30.2050   30.3110   18.6350 O   0  0  0  0  0  0  0  0  0  0  0  0
   29.8680   30.9820   17.9960 H   0  0  0  0  0  0  0  0  0  0  0  0
   29.4340   34.2060   16.5930 O   0  0  0  0  0  0  0  0  0  0  0  0
   29.0500   33.5920   15.3780 C   0  0  0  0  0  0  0  0  0  0  0  0
   28.6990   32.1830   15.6480 C   0  0  0  0  0  0  0  0  0  0  0  0
   27.4760   31.7120   16.1000 C   0  0  0  0  0  0  0  0  0  0  0  0
   29.4600   31.0700   15.5200 N   0  0  0  0  0  0  0  0  0  0  0  0
   27.5300   30.3750   16.2300 N   0  0  0  0  0  0  0  0  0  0  0  0
   28.7390   30.0170   15.8730 N   0  0  0  0  0  0  0  0  0  0  0  0
   26.4240   29.5210   16.6850 C   0  0  0  0  0  0  0  0  0  0  0  0
   26.9970   28.3110   17.3800 C   0  0  1  0  0  0  0  0  0  0  0  0
   27.9910   28.7800   18.2680 O   0  0  0  0  0  0  0  0  0  0  0  0
   28.4180   28.0000   18.7170 H   0  0  0  0  0  0  0  0  0  0  0  0
   25.9490   27.6530   18.1850 C   0  0  0  0  0  0  0  0  0  0  0  0
   24.6810   27.4080   17.6990 C   0  0  0  0  0  0  0  0  0  0  0  0
   26.2520   27.2590   19.4950 C   0  0  0  0  0  0  0  0  0  0  0  0
   23.7200   26.7940   18.4640 C   0  0  0  0  0  0  0  0  0  0  0  0
   25.2980   26.6470   20.2580 C   0  0  0  0  0  0  0  0  0  0  0  0
   24.0420   26.4160   19.7470 C   0  0  0  0  0  0  0  0  0  0  0  0
   29.8670   25.5550   16.9770 C   0  0  0  0  0  0  0  0  0  0  0  0
   28.3450   25.7220   17.0260 C   0  0  0  0  0  0  0  0  0  0  0  0
   27.6000   24.4130   16.8130 C   0  0  0  0  0  0  0  0  0  0  0  0
   26.8250   23.9980   18.0330 C   0  0  0  0  0  0  0  0  0  0  0  0
   25.7120   23.0380   17.6270 C   0  0  0  0  0  0  0  0  0  0  0  0
   24.6120   23.7740   16.9590 N   0  0  0  0  0  0  0  0  0  0  0  0
  1  4  1  0  0  0  0
  1  5  1  0  0  0  0
  2  1  1  0  0  0  0
  3  2  2  0  0  0  0
  6  5  1  6  0  0  0
  6  7  1  0  0  0  0
  7 27  1  1  0  0  0
  8  7  1  6  0  0  0
  8 11  1  0  0  0  0
  9 14  1  6  0  0  0
  9 11  1  0  0  0  0
  9 16  1  0  0  0  0
 10  9  1  0  0  0  0
 12 20  1  6  0  0  0
 12 10  1  0  0  0  0
 12 13  1  0  0  0  0
 13  8  1  0  0  0  0
 13 22  1  1  0  0  0
 15 14  1  0  0  0  0
 16 17  2  0  0  0  0
 16 18  1  0  0  0  0
 18 19  1  0  0  0  0
 21 20  1  0  0  0  0
 22 23  1  0  0  0  0
 22 24  1  0  0  0  0
 23 25  1  0  0  0  0
 26 23  2  0  0  0  0
 27 28  1  0  0  0  0
 29  6  1  0  0  0  0
 30 29  1  0  0  0  0
 31  2  1  0  0  0  0
 32 33  1  0  0  0  0
 32 31  1  0  0  0  0
 33 34  2  0  0  0  0
 34 36  1  0  0  0  0
 35 33  1  0  0  0  0
 35 37  2  0  0  0  0
 36 38  1  0  0  0  0
 37 36  1  0  0  0  0
 39 38  1  1  0  0  0
 39 42  1  0  0  0  0
 39 40  1  0  0  0  0
 40 41  1  0  0  0  0
 42 44  1  0  0  0  0
 43 42  2  0  0  0  0
 43 45  1  0  0  0  0
 44 46  2  0  0  0  0
 45 47  2  0  0  0  0
 47 46  1  0  0  0  0
 48 49  1  0  0  0  0
 50 49  1  0  0  0  0
 50 51  1  0  0  0  0
 52 51  1  0  0  0  0
 53 52  1  0  0  0  0
M  END
>  <REMARK>
 VINA RESULT:    -5.621      2.081      4.999
 INTER + INTRA:         -15.563
 INTER:                  -8.704
 INTRA:                  -6.859
 UNBOUND:                -5.012
 SMILES CC(=O)N[C@@H]1[C@@H](O)C[C@](O)(C(=O)O)O[C@H]1C(O)[C@H](O)CNC(=O)OCc1cn(CC(O)c2ccccc2)nn1
 SMILES IDX 21 1 22 2 23 3 20 5 18 6 16 7 15 8 9 9 8 10 14 11 6 12 5 13
 SMILES IDX 10 14 11 16 12 17 13 18 7 20 4 22 2 23 1 25 3 26 17 27 19 29
 SMILES IDX 24 31 25 32 26 33 27 34 39 35 28 36 38 37 29 38 30 39 31 40
 SMILES IDX 32 42 33 43 37 44 34 45 36 46 35 47
 H PARENT 21 4 10 15 13 19 7 21 4 24 17 28 19 30 31 41
 Flexibility Score: inf
  4 active torsions:
  status: ('A' for Active; 'I' for Inactive)
    1  A    between atoms: CA   and  CB  
    2  A    between atoms: CB   and  CG  
    3  A    between atoms: CG   and  CD  
    4  A    between atoms: CD   and  CE  

>  <TORSDO>
F 18

>  <BEGIN_>
RES LYS A 131

$$$$
ligand_68_pose_8_2HRL.pdbqt
 OpenBabel07062320523D

  6  5  0  0  0  0  0  0  0  0999 V2000
   33.1930   34.6630    9.2900 C   0  0  0  0  0  0  0  0  0  0  0  0
   32.0600   35.3600   10.0340 C   0  0  0  0  0  0  0  0  0  0  0  0
   30.7090   34.7380    9.7930 C   0  0  0  0  0  0  0  0  0  0  0  0
   30.4720   34.5300    8.3050 C   0  0  0  0  0  0  0  0  0  0  0  0
   29.0230   34.8060    7.9520 C   0  0  0  0  0  0  0  0  0  0  0  0
   28.9130   35.5060    6.6430 N   0  0  0  0  0  0  0  0  0  0  0  0
  1  2  1  0  0  0  0
  3  2  1  0  0  0  0
  4  3  1  0  0  0  0
  5  4  1  0  0  0  0
  6  5  1  0  0  0  0
M  END
>  <EGIN_R>
ES LYS A 135

>  <REMARK>
  4 active torsions:
  status: ('A' for Active; 'I' for Inactive)
    5  A    between atoms: CA   and  CB  
    6  A    between atoms: CB   and  CG  
    7  A    between atoms: CG   and  CD  
    8  A    between atoms: CD   and  CE  

$$$$
