ligand_45_pose_6_2HRL.pdbqt
 OpenBabel07062320523D

 52 52  0  0  1  0  0  0  0  0999 V2000
   25.8510   34.4490   15.9500 O   0  0  0  0  0  0  0  0  0  0  0  0
   27.1660   34.1010   16.1850 C   0  0  0  0  0  0  0  0  0  0  0  0
   28.0200   33.6040   15.1480 N   0  0  0  0  0  0  0  0  0  0  0  0
   27.5990   33.5310   14.2160 H   0  0  0  0  0  0  0  0  0  0  0  0
   27.6230   34.2230   17.3450 O   0  0  0  0  0  0  0  0  0  0  0  0
   29.3580   33.2670   15.4680 C   0  0  0  0  0  0  0  0  0  0  0  0
   29.7950   31.8760   15.1510 C   0  0  2  0  0  0  0  0  0  0  0  0
   29.1900   30.7970   15.9940 C   0  0  1  0  0  0  0  0  0  0  0  0
   29.1210   31.1010   17.4600 C   0  0  2  0  0  0  0  0  0  0  0  0
   30.4050   31.8010   19.2330 C   0  0  2  0  0  0  0  0  0  0  0  0
   29.0140   31.9260   19.8250 C   0  0  0  0  0  0  0  0  0  0  0  0
   30.3710   31.4560   17.9040 O   0  0  0  0  0  0  0  0  0  0  0  0
   28.2670   30.6340   19.7000 C   0  0  1  0  0  0  0  0  0  0  0  0
   28.5400   30.0330   18.3200 C   0  0  1  0  0  0  0  0  0  0  0  0
   31.0610   30.7750   19.9390 O   0  0  0  0  0  0  0  0  0  0  0  0
   31.3840   30.1390   19.2490 H   0  0  0  0  0  0  0  0  0  0  0  0
   31.1470   33.0550   19.4340 C   0  0  0  0  0  0  0  0  0  0  0  0
   31.1200   33.9600   18.5530 O   0  0  0  0  0  0  0  0  0  0  0  0
   31.8880   33.2840   20.5750 O   0  0  0  0  0  0  0  0  0  0  0  0
   32.3780   32.5410   21.0360 H   0  0  0  0  0  0  0  0  0  0  0  0
   28.7060   29.7630   20.7070 O   0  0  0  0  0  0  0  0  0  0  0  0
   28.2170   29.9500   21.5370 H   0  0  0  0  0  0  0  0  0  0  0  0
   27.2180   29.6100   17.8450 N   0  0  0  0  0  0  0  0  0  0  0  0
   26.7140   28.3290   18.1740 C   0  0  0  0  0  0  0  0  0  0  0  0
   26.6550   30.2690   17.2600 H   0  0  0  0  0  0  0  0  0  0  0  0
   25.3640   27.9100   17.6780 C   0  0  0  0  0  0  0  0  0  0  0  0
   27.3530   27.4920   18.8830 O   0  0  0  0  0  0  0  0  0  0  0  0
   27.9140   30.4950   15.4960 O   0  0  0  0  0  0  0  0  0  0  0  0
   27.2580   30.7410   16.2050 H   0  0  0  0  0  0  0  0  0  0  0  0
   31.2010   31.8560   15.2800 O   0  0  0  0  0  0  0  0  0  0  0  0
   31.6000   31.0490   14.8960 H   0  0  0  0  0  0  0  0  0  0  0  0
   24.8190   33.6040   16.4370 C   0  0  0  0  0  0  0  0  0  0  0  0
   24.7950   32.3410   15.6640 C   0  0  0  0  0  0  0  0  0  0  0  0
   24.3930   32.1050   14.3680 C   0  0  0  0  0  0  0  0  0  0  0  0
   25.1820   31.1320   16.1250 N   0  0  0  0  0  0  0  0  0  0  0  0
   24.5370   30.7990   14.0700 N   0  0  0  0  0  0  0  0  0  0  0  0
   25.0190   30.2450   15.1640 N   0  0  0  0  0  0  0  0  0  0  0  0
   24.2440   30.1110   12.8560 C   0  0  0  0  0  0  0  0  0  0  0  0
   23.3830   28.9180   13.0250 C   0  0  0  0  0  0  0  0  0  0  0  0
   21.9900   29.1070   13.4630 C   0  0  0  0  0  0  0  0  0  0  0  0
   21.5770   28.7150   14.7480 N   0  0  0  0  0  0  0  0  0  0  0  0
   21.3130   29.7620   15.6980 C   0  0  0  0  0  0  0  0  0  0  0  0
   20.2730   28.0470   14.5640 C   0  0  0  0  0  0  0  0  0  0  0  0
   19.1000   28.9320   14.7420 C   0  0  0  0  0  0  0  0  0  0  0  0
   22.4350   27.7460   15.3700 C   0  0  0  0  0  0  0  0  0  0  0  0
   21.8750   26.3730   15.4620 C   0  0  0  0  0  0  0  0  0  0  0  0
   29.8670   25.5550   16.9770 C   0  0  0  0  0  0  0  0  0  0  0  0
   28.3450   25.7220   17.0260 C   0  0  0  0  0  0  0  0  0  0  0  0
   27.6010   24.4050   16.8670 C   0  0  0  0  0  0  0  0  0  0  0  0
   26.1590   24.5160   17.2790 C   0  0  0  0  0  0  0  0  0  0  0  0
   26.0210   24.1480   18.7530 C   0  0  0  0  0  0  0  0  0  0  0  0
   25.2070   22.9190   18.9060 N   0  0  0  0  0  0  0  0  0  0  0  0
  1  2  1  0  0  0  0
  1 32  1  0  0  0  0
  2  5  2  0  0  0  0
  3  6  1  0  0  0  0
  3  2  1  0  0  0  0
  4  3  1  0  0  0  0
  7 30  1  0  0  0  0
  7  6  1  1  0  0  0
  7  8  1  0  0  0  0
  8 28  1  6  0  0  0
  9  8  1  6  0  0  0
  9 12  1  0  0  0  0
  9 14  1  0  0  0  0
 10 17  1  1  0  0  0
 10 11  1  0  0  0  0
 10 15  1  0  0  0  0
 12 10  1  0  0  0  0
 13 11  1  0  0  0  0
 13 21  1  1  0  0  0
 14 23  1  6  0  0  0
 14 13  1  0  0  0  0
 16 15  1  0  0  0  0
 17 19  1  0  0  0  0
 18 17  2  0  0  0  0
 19 20  1  0  0  0  0
 21 22  1  0  0  0  0
 23 24  1  0  0  0  0
 24 27  2  0  0  0  0
 25 23  1  0  0  0  0
 26 24  1  0  0  0  0
 28 29  1  0  0  0  0
 31 30  1  0  0  0  0
 33 35  1  0  0  0  0
 33 32  1  0  0  0  0
 34 33  2  0  0  0  0
 36 34  1  0  0  0  0
 36 37  1  0  0  0  0
 37 35  2  0  0  0  0
 38 39  1  0  0  0  0
 38 36  1  0  0  0  0
 39 40  1  0  0  0  0
 40 41  1  0  0  0  0
 41 45  1  0  0  0  0
 41 42  1  0  0  0  0
 43 44  1  0  0  0  0
 43 41  1  0  0  0  0
 45 46  1  0  0  0  0
 47 48  1  0  0  0  0
 49 48  1  0  0  0  0
 49 50  1  0  0  0  0
 50 51  1  0  0  0  0
 51 52  1  0  0  0  0
M  END
>  <REMARK>
 VINA RESULT:    -4.232      4.069      7.536
 INTER + INTRA:         -14.437
 INTER:                  -7.443
 INTRA:                  -6.994
 UNBOUND:                -5.875
 SMILES CC[N+](C)(CC)CCCn1cc(COC(=O)NC[C@@H](O)C(O)[C@@H]2O[C@@](O)(C(=O)O)C[C@H](O)[C@H]2NC(C)=O)nn1
 SMILES IDX 14 1 15 2 17 3 16 5 18 6 19 7 21 8 23 9 25 10 30 11 24 12
 SMILES IDX 31 13 33 14 26 15 27 17 28 18 29 19 32 21 34 23 35 24 36 26
 SMILES IDX 37 27 22 28 20 30 13 32 12 33 11 34 38 35 10 36 39 37 9 38
 SMILES IDX 8 39 7 40 3 41 4 42 2 43 1 44 5 45 6 46
 H PARENT 17 4 26 16 29 20 32 22 34 25 22 29 20 31
 Flexibility Score: inf
  4 active torsions:
  status: ('A' for Active; 'I' for Inactive)
    1  A    between atoms: CA   and  CB  
    2  A    between atoms: CB   and  CG  
    3  A    between atoms: CG   and  CD  
    4  A    between atoms: CD   and  CE  

>  <TORSDO>
F 20

>  <BEGIN_>
RES LYS A 131

$$$$
ligand_45_pose_6_2HRL.pdbqt
 OpenBabel07062320523D

  6  5  0  0  0  0  0  0  0  0999 V2000
   33.1930   34.6630    9.2900 C   0  0  0  0  0  0  0  0  0  0  0  0
   32.0600   35.3600   10.0340 C   0  0  0  0  0  0  0  0  0  0  0  0
   30.7640   34.5910   10.0150 C   0  0  0  0  0  0  0  0  0  0  0  0
   30.3050   34.3470    8.5860 C   0  0  0  0  0  0  0  0  0  0  0  0
   28.8020   34.5120    8.4730 C   0  0  0  0  0  0  0  0  0  0  0  0
   28.0960   33.7290    9.5250 N   0  0  0  0  0  0  0  0  0  0  0  0
  1  2  1  0  0  0  0
  3  2  1  0  0  0  0
  4  3  1  0  0  0  0
  5  4  1  0  0  0  0
  5  6  1  0  0  0  0
M  END
>  <EGIN_R>
ES LYS A 135

>  <REMARK>
  4 active torsions:
  status: ('A' for Active; 'I' for Inactive)
    5  A    between atoms: CA   and  CB  
    6  A    between atoms: CB   and  CG  
    7  A    between atoms: CG   and  CD  
    8  A    between atoms: CD   and  CE  

$$$$
