ligand_43_pose_2_2HRL.pdbqt
 OpenBabel07062320523D

 49 49  0  0  1  0  0  0  0  0999 V2000
   27.3380   28.4070   18.8560 O   0  0  0  0  0  0  0  0  0  0  0  0
   27.9690   28.0770   20.0400 C   0  0  0  0  0  0  0  0  0  0  0  0
   29.2770   27.4980   19.9460 N   0  0  0  0  0  0  0  0  0  0  0  0
   29.6870   27.3540   19.0030 H   0  0  0  0  0  0  0  0  0  0  0  0
   27.4200   28.2770   21.1720 O   0  0  0  0  0  0  0  0  0  0  0  0
   30.0170   27.1210   21.1020 C   0  0  0  0  0  0  0  0  0  0  0  0
   31.4710   27.5970   21.0860 C   0  0  2  0  0  0  0  0  0  0  0  0
   31.4130   29.0970   21.2340 C   0  0  2  0  0  0  0  0  0  0  0  0
   32.7510   29.7490   21.3520 C   0  0  2  0  0  0  0  0  0  0  0  0
   34.4650   29.6780   22.9150 C   0  0  2  0  0  0  0  0  0  0  0  0
   34.9490   30.9240   22.2030 C   0  0  0  0  0  0  0  0  0  0  0  0
   33.5920   28.9730   22.1050 O   0  0  0  0  0  0  0  0  0  0  0  0
   33.7900   31.8930   22.1520 C   0  0  1  0  0  0  0  0  0  0  0  0
   32.5030   31.1160   22.0040 C   0  0  1  0  0  0  0  0  0  0  0  0
   33.9080   29.9900   24.1510 O   0  0  0  0  0  0  0  0  0  0  0  0
   33.0920   29.4610   24.2990 H   0  0  0  0  0  0  0  0  0  0  0  0
   35.6630   28.8400   23.1780 C   0  0  0  0  0  0  0  0  0  0  0  0
   36.7500   29.3290   23.5790 O   0  0  0  0  0  0  0  0  0  0  0  0
   35.6540   27.4470   22.9930 O   0  0  0  0  0  0  0  0  0  0  0  0
   35.1710   27.0880   22.1730 H   0  0  0  0  0  0  0  0  0  0  0  0
   33.7290   32.5830   23.3490 O   0  0  0  0  0  0  0  0  0  0  0  0
   34.6110   32.9840   23.5480 H   0  0  0  0  0  0  0  0  0  0  0  0
   31.5390   31.8260   21.1820 N   0  0  0  0  0  0  0  0  0  0  0  0
   30.6620   32.8230   21.6940 C   0  0  0  0  0  0  0  0  0  0  0  0
   31.4410   31.6320   20.1460 H   0  0  0  0  0  0  0  0  0  0  0  0
   29.6740   33.5460   20.8380 C   0  0  0  0  0  0  0  0  0  0  0  0
   30.7530   33.0780   22.9260 O   0  0  0  0  0  0  0  0  0  0  0  0
   30.5920   29.3450   22.3470 O   0  0  0  0  0  0  0  0  0  0  0  0
   31.1200   29.4370   23.1790 H   0  0  0  0  0  0  0  0  0  0  0  0
   32.1340   27.1710   19.9540 O   0  0  0  0  0  0  0  0  0  0  0  0
   31.6800   26.4880   19.4330 H   0  0  0  0  0  0  0  0  0  0  0  0
   27.0650   29.7480   18.5460 C   0  0  0  0  0  0  0  0  0  0  0  0
   28.3760   30.3820   18.1870 C   0  0  0  0  0  0  0  0  0  0  0  0
   28.7110   30.7910   16.9060 C   0  0  0  0  0  0  0  0  0  0  0  0
   29.4310   30.6740   18.9480 N   0  0  0  0  0  0  0  0  0  0  0  0
   29.9440   31.3110   16.9350 N   0  0  0  0  0  0  0  0  0  0  0  0
   30.3570   31.2270   18.1850 N   0  0  0  0  0  0  0  0  0  0  0  0
   30.7380   31.8740   15.8530 C   0  0  0  0  0  0  0  0  0  0  0  0
   31.4600   33.1040   16.3330 C   0  0  0  0  0  0  0  0  0  0  0  0
   32.1830   33.7960   15.2040 C   0  0  0  0  0  0  0  0  0  0  0  0
   31.2360   34.4550   14.2360 C   0  0  0  0  0  0  0  0  0  0  0  0
   31.6570   35.8520   13.9840 C   0  0  0  0  0  0  0  0  0  0  0  0
   32.2810   36.2220   12.8880 C   0  0  0  0  0  0  0  0  0  0  0  0
   29.8670   25.5550   16.9770 C   0  0  0  0  0  0  0  0  0  0  0  0
   28.3450   25.7220   17.0260 C   0  0  0  0  0  0  0  0  0  0  0  0
   27.6020   24.3990   16.9230 C   0  0  0  0  0  0  0  0  0  0  0  0
   26.1550   24.5310   17.3090 C   0  0  0  0  0  0  0  0  0  0  0  0
   25.8550   23.6080   18.4860 C   0  0  0  0  0  0  0  0  0  0  0  0
   24.9800   22.4910   18.0600 N   0  0  0  0  0  0  0  0  0  0  0  0
  1  2  1  0  0  0  0
  2  5  2  0  0  0  0
  3  2  1  0  0  0  0
  3  6  1  0  0  0  0
  4  3  1  0  0  0  0
  7  6  1  6  0  0  0
  7  8  1  0  0  0  0
  8 28  1  1  0  0  0
  9  8  1  1  0  0  0
  9 14  1  0  0  0  0
  9 12  1  0  0  0  0
 10 17  1  1  0  0  0
 10 15  1  0  0  0  0
 11 10  1  0  0  0  0
 12 10  1  0  0  0  0
 13 11  1  0  0  0  0
 13 21  1  1  0  0  0
 14 23  1  6  0  0  0
 14 13  1  0  0  0  0
 15 16  1  0  0  0  0
 17 18  2  0  0  0  0
 19 17  1  0  0  0  0
 20 19  1  0  0  0  0
 21 22  1  0  0  0  0
 23 24  1  0  0  0  0
 24 27  2  0  0  0  0
 25 23  1  0  0  0  0
 26 24  1  0  0  0  0
 28 29  1  0  0  0  0
 30  7  1  0  0  0  0
 31 30  1  0  0  0  0
 32  1  1  0  0  0  0
 33 32  1  0  0  0  0
 33 35  1  0  0  0  0
 34 36  1  0  0  0  0
 34 33  2  0  0  0  0
 36 37  1  0  0  0  0
 37 35  2  0  0  0  0
 38 39  1  0  0  0  0
 38 36  1  0  0  0  0
 40 39  1  0  0  0  0
 41 40  1  0  0  0  0
 42 41  1  0  0  0  0
 43 42  2  0  0  0  0
 44 45  1  0  0  0  0
 46 45  1  0  0  0  0
 46 47  1  0  0  0  0
 47 48  1  0  0  0  0
 49 48  1  0  0  0  0
M  END
>  <REMARK>
 VINA RESULT:    -5.129      5.193      7.902
 INTER + INTRA:         -14.861
 INTER:                  -9.097
 INTRA:                  -5.764
 UNBOUND:                -4.785
 SMILES C=CCCCCn1cc(COC(=O)NC[C@@H](O)C(O)[C@@H]2O[C@@](O)(C(=O)O)C[C@H](O)[C@H]2NC(C)=O)nn1
 SMILES IDX 11 1 12 2 14 3 13 5 15 6 16 7 18 8 20 9 22 10 27 11 21 12
 SMILES IDX 28 13 30 14 23 15 24 17 25 18 26 19 29 21 31 23 32 24 33 26
 SMILES IDX 34 27 19 28 17 30 10 32 9 33 8 34 35 35 7 36 36 37 6 38 5 39
 SMILES IDX 4 40 3 41 2 42 1 43
 H PARENT 14 4 23 16 26 20 29 22 31 25 19 29 17 31
 Flexibility Score: inf
  4 active torsions:
  status: ('A' for Active; 'I' for Inactive)
    1  A    between atoms: CA   and  CB  
    2  A    between atoms: CB   and  CG  
    3  A    between atoms: CG   and  CD  
    4  A    between atoms: CD   and  CE  

>  <TORSDO>
F 19

>  <BEGIN_>
RES LYS A 131

$$$$
ligand_43_pose_2_2HRL.pdbqt
 OpenBabel07062320523D

  6  5  0  0  0  0  0  0  0  0999 V2000
   33.1930   34.6630    9.2900 C   0  0  0  0  0  0  0  0  0  0  0  0
   32.0600   35.3600   10.0340 C   0  0  0  0  0  0  0  0  0  0  0  0
   30.7200   34.6960    9.8490 C   0  0  0  0  0  0  0  0  0  0  0  0
   30.4050   34.5250    8.3710 C   0  0  0  0  0  0  0  0  0  0  0  0
   29.3820   35.5510    7.9220 C   0  0  0  0  0  0  0  0  0  0  0  0
   28.0410   34.9300    7.7460 N   0  0  0  0  0  0  0  0  0  0  0  0
  1  2  1  0  0  0  0
  3  2  1  0  0  0  0
  4  3  1  0  0  0  0
  5  4  1  0  0  0  0
  6  5  1  0  0  0  0
M  END
>  <EGIN_R>
ES LYS A 135

>  <REMARK>
  4 active torsions:
  status: ('A' for Active; 'I' for Inactive)
    5  A    between atoms: CA   and  CB  
    6  A    between atoms: CB   and  CG  
    7  A    between atoms: CG   and  CD  
    8  A    between atoms: CD   and  CE  

$$$$
