ligand_76_pose_10_2HRL.pdbqt
 OpenBabel07062320523D

 55 56  0  0  1  0  0  0  0  0999 V2000
   26.3100   34.3860   20.7010 O   0  0  0  0  0  0  0  0  0  0  0  0
   27.6290   34.1730   21.0600 C   0  0  0  0  0  0  0  0  0  0  0  0
   28.0810   32.8850   21.4140 N   0  0  0  0  0  0  0  0  0  0  0  0
   27.4120   32.0930   21.4020 H   0  0  0  0  0  0  0  0  0  0  0  0
   28.4370   35.1300   21.0750 O   0  0  0  0  0  0  0  0  0  0  0  0
   29.4610   32.6180   21.7960 C   0  0  0  0  0  0  0  0  0  0  0  0
   30.2980   32.2600   20.5820 C   0  0  2  0  0  0  0  0  0  0  0  0
   30.0800   30.7870   20.2750 C   0  0  1  0  0  0  0  0  0  0  0  0
   30.0840   29.9720   21.5710 C   0  0  2  0  0  0  0  0  0  0  0  0
   31.9440   28.5630   21.6450 C   0  0  2  0  0  0  0  0  0  0  0  0
   31.1820   27.6500   20.7500 C   0  0  0  0  0  0  0  0  0  0  0  0
   31.3190   29.6920   22.0370 O   0  0  0  0  0  0  0  0  0  0  0  0
   29.7440   27.5150   21.1040 C   0  0  1  0  0  0  0  0  0  0  0  0
   29.1150   28.8370   21.4500 C   0  0  1  0  0  0  0  0  0  0  0  0
   33.1210   28.9340   20.9500 O   0  0  0  0  0  0  0  0  0  0  0  0
   33.8260   28.2570   21.1170 H   0  0  0  0  0  0  0  0  0  0  0  0
   32.4140   27.7540   22.8260 C   0  0  0  0  0  0  0  0  0  0  0  0
   31.7140   27.5760   23.8500 O   0  0  0  0  0  0  0  0  0  0  0  0
   33.6770   27.1530   22.8320 O   0  0  0  0  0  0  0  0  0  0  0  0
   34.3220   27.3130   23.6190 H   0  0  0  0  0  0  0  0  0  0  0  0
   29.0770   26.8840   20.0280 O   0  0  0  0  0  0  0  0  0  0  0  0
   29.6920   26.7950   19.2410 H   0  0  0  0  0  0  0  0  0  0  0  0
   28.2910   28.7370   22.6570 N   0  0  0  0  0  0  0  0  0  0  0  0
   27.0700   29.4160   22.7760 C   0  0  0  0  0  0  0  0  0  0  0  0
   28.6730   28.1210   23.4340 H   0  0  0  0  0  0  0  0  0  0  0  0
   26.2770   29.2840   24.0110 C   0  0  0  0  0  0  0  0  0  0  0  0
   26.6480   30.1310   21.8480 O   0  0  0  0  0  0  0  0  0  0  0  0
   28.7590   30.6990   19.8010 O   0  0  0  0  0  0  0  0  0  0  0  0
   28.7200   30.2560   18.9010 H   0  0  0  0  0  0  0  0  0  0  0  0
   31.6420   32.5010   20.8410 O   0  0  0  0  0  0  0  0  0  0  0  0
   31.6940   32.9540   21.7160 H   0  0  0  0  0  0  0  0  0  0  0  0
   26.0680   34.6230   19.3040 C   0  0  0  0  0  0  0  0  0  0  0  0
   26.4120   33.4190   18.5170 C   0  0  0  0  0  0  0  0  0  0  0  0
   27.1170   33.3170   17.3410 C   0  0  0  0  0  0  0  0  0  0  0  0
   26.0670   32.1650   18.8580 N   0  0  0  0  0  0  0  0  0  0  0  0
   27.1810   32.0220   17.0010 N   0  0  0  0  0  0  0  0  0  0  0  0
   26.5530   31.3500   17.9140 N   0  0  0  0  0  0  0  0  0  0  0  0
   27.8370   31.4290   15.8140 C   0  0  0  0  0  0  0  0  0  0  0  0
   28.9980   30.6080   16.2830 C   0  0  2  0  0  0  0  0  0  0  0  0
   28.5980   29.5900   17.1600 O   0  0  0  0  0  0  0  0  0  0  0  0
   28.7680   28.7200   16.6970 H   0  0  0  0  0  0  0  0  0  0  0  0
   30.2360   31.2950   16.5690 C   0  0  0  0  0  0  0  0  0  0  0  0
   30.8910   32.0810   15.5160 C   0  0  0  0  0  0  0  0  0  0  0  0
   31.6100   33.2600   15.9710 C   0  0  0  0  0  0  0  0  0  0  0  0
   31.4390   33.6640   17.3020 C   0  0  0  0  0  0  0  0  0  0  0  0
   32.3900   34.0620   15.1980 C   0  0  0  0  0  0  0  0  0  0  0  0
   32.0340   34.8070   17.7790 C   0  0  0  0  0  0  0  0  0  0  0  0
   32.9980   35.2160   15.6600 C   0  0  0  0  0  0  0  0  0  0  0  0
   32.8190   35.5990   16.9740 C   0  0  0  0  0  0  0  0  0  0  0  0
   29.8670   25.5550   16.9770 C   0  0  0  0  0  0  0  0  0  0  0  0
   28.3450   25.7220   17.0260 C   0  0  0  0  0  0  0  0  0  0  0  0
   27.6010   24.4010   16.9000 C   0  0  0  0  0  0  0  0  0  0  0  0
   26.1670   24.5150   17.3360 C   0  0  0  0  0  0  0  0  0  0  0  0
   25.7510   23.2380   18.0590 C   0  0  0  0  0  0  0  0  0  0  0  0
   25.4970   23.5130   19.4930 N   0  0  0  0  0  0  0  0  0  0  0  0
  1  2  1  0  0  0  0
  2  5  2  0  0  0  0
  2  3  1  0  0  0  0
  3  6  1  0  0  0  0
  4  3  1  0  0  0  0
  7 30  1  0  0  0  0
  7  6  1  1  0  0  0
  8 28  1  1  0  0  0
  8  7  1  0  0  0  0
  9  8  1  6  0  0  0
  9 12  1  0  0  0  0
 10 15  1  6  0  0  0
 10 12  1  0  0  0  0
 10 17  1  0  0  0  0
 11 13  1  0  0  0  0
 11 10  1  0  0  0  0
 13 21  1  6  0  0  0
 13 14  1  0  0  0  0
 14  9  1  0  0  0  0
 14 23  1  1  0  0  0
 15 16  1  0  0  0  0
 17 19  1  0  0  0  0
 17 18  2  0  0  0  0
 19 20  1  0  0  0  0
 22 21  1  0  0  0  0
 23 24  1  0  0  0  0
 23 25  1  0  0  0  0
 24 26  1  0  0  0  0
 27 24  2  0  0  0  0
 29 28  1  0  0  0  0
 30 31  1  0  0  0  0
 32  1  1  0  0  0  0
 33 35  1  0  0  0  0
 33 32  1  0  0  0  0
 34 33  2  0  0  0  0
 36 34  1  0  0  0  0
 36 37  1  0  0  0  0
 37 35  2  0  0  0  0
 38 36  1  0  0  0  0
 39 38  1  1  0  0  0
 39 42  1  0  0  0  0
 39 40  1  0  0  0  0
 41 40  1  0  0  0  0
 43 44  1  0  0  0  0
 43 42  1  0  0  0  0
 44 45  2  0  0  0  0
 45 47  1  0  0  0  0
 46 48  2  0  0  0  0
 46 44  1  0  0  0  0
 48 49  1  0  0  0  0
 49 47  2  0  0  0  0
 50 51  1  0  0  0  0
 52 51  1  0  0  0  0
 52 53  1  0  0  0  0
 53 54  1  0  0  0  0
 54 55  1  0  0  0  0
M  END
>  <REMARK>
 VINA RESULT:    -5.043      7.406     13.253
 INTER + INTRA:         -16.827
 INTER:                  -8.860
 INTRA:                  -7.966
 UNBOUND:                -6.771
 SMILES CC(=O)N[C@@H]1[C@@H](O)C[C@](O)(C(=O)O)O[C@H]1C(O)[C@H](O)CNC(=O)OCc1cn(CC(O)CCc2ccccc2)nn1
 SMILES IDX 24 1 22 2 21 3 23 5 20 6 18 7 16 8 15 9 9 10 8 11 14 12 6 13
 SMILES IDX 5 14 10 15 11 17 12 18 13 19 7 21 4 23 2 24 1 26 3 27 17 28
 SMILES IDX 19 30 25 32 26 33 27 34 41 35 28 36 40 37 29 38 30 39 31 40
 SMILES IDX 32 42 33 43 34 44 35 45 39 46 36 47 38 48 37 49
 H PARENT 21 4 10 16 13 20 7 22 4 25 17 29 19 31 31 41
 Flexibility Score: inf
  4 active torsions:
  status: ('A' for Active; 'I' for Inactive)
    1  A    between atoms: CA   and  CB  
    2  A    between atoms: CB   and  CG  
    3  A    between atoms: CG   and  CD  
    4  A    between atoms: CD   and  CE  

>  <TORSDO>
F 20

>  <BEGIN_>
RES LYS A 131

$$$$
ligand_76_pose_10_2HRL.pdbqt
 OpenBabel07062320523D

  6  5  0  0  0  0  0  0  0  0999 V2000
   33.1930   34.6630    9.2900 C   0  0  0  0  0  0  0  0  0  0  0  0
   32.0600   35.3600   10.0340 C   0  0  0  0  0  0  0  0  0  0  0  0
   30.7060   34.7530    9.7750 C   0  0  0  0  0  0  0  0  0  0  0  0
   30.5330   34.4370    8.2970 C   0  0  0  0  0  0  0  0  0  0  0  0
   29.2490   35.0470    7.7690 C   0  0  0  0  0  0  0  0  0  0  0  0
   28.1160   34.8090    8.7060 N   0  0  0  0  0  0  0  0  0  0  0  0
  1  2  1  0  0  0  0
  3  2  1  0  0  0  0
  4  3  1  0  0  0  0
  5  4  1  0  0  0  0
  5  6  1  0  0  0  0
M  END
>  <EGIN_R>
ES LYS A 135

>  <REMARK>
  4 active torsions:
  status: ('A' for Active; 'I' for Inactive)
    5  A    between atoms: CA   and  CB  
    6  A    between atoms: CB   and  CG  
    7  A    between atoms: CG   and  CD  
    8  A    between atoms: CD   and  CE  

$$$$
