ligand_47_pose_12_2HRL.pdbqt
 OpenBabel07062320523D

 62 64  0  0  1  0  0  0  0  0999 V2000
   24.5890   32.8640   14.9840 N   0  0  0  0  0  0  0  0  0  0  0  0
   24.5640   33.7420   13.8690 C   0  0  0  0  0  0  0  0  0  0  0  0
   24.6380   33.2690   12.6970 O   0  0  0  0  0  0  0  0  0  0  0  0
   24.5230   33.3400   15.9310 H   0  0  0  0  0  0  0  0  0  0  0  0
   24.6950   31.4290   14.8660 C   0  0  0  0  0  0  0  0  0  0  0  0
   24.9890   30.7510   16.2050 C   0  0  2  0  0  0  0  0  0  0  0  0
   25.9390   31.6530   16.9320 C   0  0  2  0  0  0  0  0  0  0  0  0
   27.0720   30.9210   17.5930 C   0  0  2  0  0  0  0  0  0  0  0  0
   27.4440   29.4280   19.3260 C   0  0  2  0  0  0  0  0  0  0  0  0
   28.9090   29.6330   19.0390 C   0  0  0  0  0  0  0  0  0  0  0  0
   26.5960   29.8950   18.3610 O   0  0  0  0  0  0  0  0  0  0  0  0
   29.2470   31.0360   18.6650 C   0  0  1  0  0  0  0  0  0  0  0  0
   27.9550   31.8180   18.4280 C   0  0  1  0  0  0  0  0  0  0  0  0
   27.1690   30.0150   20.5660 O   0  0  0  0  0  0  0  0  0  0  0  0
   26.7820   30.9250   20.4510 H   0  0  0  0  0  0  0  0  0  0  0  0
   27.2300   27.9660   19.4610 C   0  0  0  0  0  0  0  0  0  0  0  0
   26.0830   27.5360   19.7330 O   0  0  0  0  0  0  0  0  0  0  0  0
   28.2570   27.0620   19.2940 O   0  0  0  0  0  0  0  0  0  0  0  0
   28.5480   26.4700   20.0840 H   0  0  0  0  0  0  0  0  0  0  0  0
   30.1010   31.6800   19.5240 O   0  0  0  0  0  0  0  0  0  0  0  0
   30.5020   31.0430   20.1700 H   0  0  0  0  0  0  0  0  0  0  0  0
   28.2530   33.0610   17.7300 N   0  0  0  0  0  0  0  0  0  0  0  0
   28.3810   34.2470   18.4890 C   0  0  0  0  0  0  0  0  0  0  0  0
   28.3630   33.0460   16.7040 H   0  0  0  0  0  0  0  0  0  0  0  0
   28.6830   35.5380   17.8330 C   0  0  0  0  0  0  0  0  0  0  0  0
   28.2390   34.2240   19.7370 O   0  0  0  0  0  0  0  0  0  0  0  0
   25.2530   32.4960   17.7820 O   0  0  0  0  0  0  0  0  0  0  0  0
   25.2300   33.4410   17.4590 H   0  0  0  0  0  0  0  0  0  0  0  0
   25.6000   29.5260   15.8870 O   0  0  0  0  0  0  0  0  0  0  0  0
   24.8710   28.8470   16.0070 H   0  0  0  0  0  0  0  0  0  0  0  0
   24.4610   35.1090   14.0320 O   0  0  0  0  0  0  0  0  0  0  0  0
   25.5150   35.8730   14.6310 C   0  0  0  0  0  0  0  0  0  0  0  0
   26.8110   35.5750   13.9830 C   0  0  0  0  0  0  0  0  0  0  0  0
   27.8320   34.7890   14.5390 C   0  0  0  0  0  0  0  0  0  0  0  0
   27.2980   35.9530   12.7960 N   0  0  0  0  0  0  0  0  0  0  0  0
   28.8650   34.7170   13.7000 N   0  0  0  0  0  0  0  0  0  0  0  0
   28.5070   35.4500   12.6210 N   0  0  0  0  0  0  0  0  0  0  0  0
   30.1320   34.0460   13.7500 C   0  0  0  0  0  0  0  0  0  0  0  0
   30.9830   34.3130   14.9460 C   0  0  1  0  0  0  0  0  0  0  0  0
   31.2810   33.0810   15.6770 C   0  0  0  0  0  0  0  0  0  0  0  0
   31.3270   32.9560   16.9130 O   0  0  0  0  0  0  0  0  0  0  0  0
   31.5500   31.8970   14.9570 O   0  0  0  0  0  0  0  0  0  0  0  0
   30.7610   31.3530   14.5970 H   0  0  0  0  0  0  0  0  0  0  0  0
   32.2390   35.0880   14.5880 C   0  0  0  0  0  0  0  0  0  0  0  0
   32.9210   35.6080   15.7960 C   0  0  0  0  0  0  0  0  0  0  0  0
   32.1950   36.1020   16.8870 C   0  0  0  0  0  0  0  0  0  0  0  0
   34.2980   35.6310   15.9080 C   0  0  0  0  0  0  0  0  0  0  0  0
   32.8280   36.5850   18.0110 C   0  0  0  0  0  0  0  0  0  0  0  0
   34.9440   36.1080   17.0200 C   0  0  0  0  0  0  0  0  0  0  0  0
   34.2230   36.5890   18.0820 C   0  0  0  0  0  0  0  0  0  0  0  0
   32.0050   36.2020   13.6640 C   0  0  0  0  0  0  0  0  0  0  0  0
   32.5820   36.1210   12.3900 C   0  0  0  0  0  0  0  0  0  0  0  0
   31.2540   37.3150   13.9760 C   0  0  0  0  0  0  0  0  0  0  0  0
   32.3840   37.1450   11.4950 C   0  0  0  0  0  0  0  0  0  0  0  0
   31.0540   38.3420   13.0810 C   0  0  0  0  0  0  0  0  0  0  0  0
   31.6240   38.2700   11.8140 C   0  0  0  0  0  0  0  0  0  0  0  0
   29.8670   25.5550   16.9770 C   0  0  0  0  0  0  0  0  0  0  0  0
   28.3450   25.7220   17.0260 C   0  0  0  0  0  0  0  0  0  0  0  0
   27.6010   24.4030   16.8870 C   0  0  0  0  0  0  0  0  0  0  0  0
   26.1660   24.5140   17.3210 C   0  0  0  0  0  0  0  0  0  0  0  0
   25.5960   23.1190   17.5580 C   0  0  0  0  0  0  0  0  0  0  0  0
   24.1190   23.1730   17.6690 N   0  0  0  0  0  0  0  0  0  0  0  0
  1  4  1  0  0  0  0
  2 31  1  0  0  0  0
  2  1  1  0  0  0  0
  3  2  2  0  0  0  0
  5  1  1  0  0  0  0
  6  5  1  6  0  0  0
  6  7  1  0  0  0  0
  7 27  1  1  0  0  0
  8  7  1  1  0  0  0
  8 11  1  0  0  0  0
  8 13  1  0  0  0  0
  9 16  1  1  0  0  0
  9 14  1  0  0  0  0
 10  9  1  0  0  0  0
 11  9  1  0  0  0  0
 12 10  1  0  0  0  0
 12 20  1  1  0  0  0
 13 22  1  6  0  0  0
 13 12  1  0  0  0  0
 15 14  1  0  0  0  0
 16 17  2  0  0  0  0
 18 16  1  0  0  0  0
 18 19  1  0  0  0  0
 20 21  1  0  0  0  0
 22 23  1  0  0  0  0
 23 26  2  0  0  0  0
 24 22  1  0  0  0  0
 25 23  1  0  0  0  0
 28 27  1  0  0  0  0
 29 30  1  0  0  0  0
 29  6  1  0  0  0  0
 31 32  1  0  0  0  0
 33 34  2  0  0  0  0
 33 32  1  0  0  0  0
 35 33  1  0  0  0  0
 36 38  1  0  0  0  0
 36 34  1  0  0  0  0
 37 35  2  0  0  0  0
 37 36  1  0  0  0  0
 39 38  1  6  0  0  0
 39 40  1  0  0  0  0
 40 41  2  0  0  0  0
 42 40  1  0  0  0  0
 43 42  1  0  0  0  0
 44 39  1  0  0  0  0
 44 45  1  0  0  0  0
 45 47  2  0  0  0  0
 45 46  1  0  0  0  0
 46 48  2  0  0  0  0
 47 49  1  0  0  0  0
 48 50  1  0  0  0  0
 49 50  2  0  0  0  0
 51 53  1  0  0  0  0
 51 44  1  0  0  0  0
 52 51  2  0  0  0  0
 54 56  2  0  0  0  0
 54 52  1  0  0  0  0
 55 53  2  0  0  0  0
 56 55  1  0  0  0  0
 57 58  1  0  0  0  0
 59 58  1  0  0  0  0
 59 60  1  0  0  0  0
 60 61  1  0  0  0  0
 61 62  1  0  0  0  0
M  END
>  <REMARK>
 VINA RESULT:    -5.337      2.215      6.164
 INTER + INTRA:         -17.251
 INTER:                  -9.835
 INTRA:                  -7.417
 UNBOUND:                -6.299
 SMILES CC(=O)N[C@@H]1[C@@H](O)C[C@](O)(C(=O)O)O[C@H]1C(O)[C@H](O)CNC(=O)OCc1cn(C[C@@H](C(=O)O)C(c2ccccc2)c2ccccc2)nn1
 SMILES IDX 21 1 22 2 23 3 20 5 18 6 16 7 15 8 9 9 8 10 14 11 6 12 5 13
 SMILES IDX 10 14 11 16 12 17 13 18 7 20 4 22 2 23 1 25 3 26 17 27 19 29
 SMILES IDX 24 31 25 32 26 33 27 34 48 35 28 36 47 37 29 38 30 39 31 40
 SMILES IDX 32 41 33 42 34 44 35 45 36 46 40 47 37 48 39 49 38 50 41 51
 SMILES IDX 42 52 46 53 43 54 45 55 44 56
 H PARENT 21 4 10 15 13 19 7 21 4 24 17 28 19 30 33 43
 Flexibility Score: inf
  4 active torsions:
  status: ('A' for Active; 'I' for Inactive)
    1  A    between atoms: CA   and  CB  
    2  A    between atoms: CB   and  CG  
    3  A    between atoms: CG   and  CD  
    4  A    between atoms: CD   and  CE  

>  <TORSDO>
F 21

>  <BEGIN_>
RES LYS A 131

$$$$
ligand_47_pose_12_2HRL.pdbqt
 OpenBabel07062320523D

  6  5  0  0  0  0  0  0  0  0999 V2000
   33.1930   34.6630    9.2900 C   0  0  0  0  0  0  0  0  0  0  0  0
   32.0600   35.3600   10.0340 C   0  0  0  0  0  0  0  0  0  0  0  0
   30.7020   34.7690    9.7540 C   0  0  0  0  0  0  0  0  0  0  0  0
   30.5310   34.4990    8.2670 C   0  0  0  0  0  0  0  0  0  0  0  0
   29.2580   35.1420    7.7520 C   0  0  0  0  0  0  0  0  0  0  0  0
   28.0540   34.5250    8.3760 N   0  0  0  0  0  0  0  0  0  0  0  0
  1  2  1  0  0  0  0
  3  2  1  0  0  0  0
  4  3  1  0  0  0  0
  5  4  1  0  0  0  0
  5  6  1  0  0  0  0
M  END
>  <EGIN_R>
ES LYS A 135

>  <REMARK>
  4 active torsions:
  status: ('A' for Active; 'I' for Inactive)
    5  A    between atoms: CA   and  CB  
    6  A    between atoms: CB   and  CG  
    7  A    between atoms: CG   and  CD  
    8  A    between atoms: CD   and  CE  

$$$$
