ligand_24_pose_18_2HRL.pdbqt
 OpenBabel07062320523D

 52 53  0  0  1  0  0  0  0  0999 V2000
   28.9340   28.8390   19.5900 N   0  0  0  0  0  0  0  0  0  0  0  0
   27.8040   29.2550   18.8530 C   0  0  0  0  0  0  0  0  0  0  0  0
   26.7230   28.6190   18.8340 O   0  0  0  0  0  0  0  0  0  0  0  0
   29.7860   29.4440   19.5300 H   0  0  0  0  0  0  0  0  0  0  0  0
   28.9810   27.6630   20.4000 C   0  0  0  0  0  0  0  0  0  0  0  0
   30.1580   27.5720   21.3090 C   0  0  2  0  0  0  0  0  0  0  0  0
   31.3990   28.2100   20.7260 C   0  0  1  0  0  0  0  0  0  0  0  0
   32.4160   28.6090   21.7340 C   0  0  2  0  0  0  0  0  0  0  0  0
   33.1490   28.2600   23.9010 C   0  0  2  0  0  0  0  0  0  0  0  0
   33.3790   29.7270   24.1280 C   0  0  0  0  0  0  0  0  0  0  0  0
   32.2380   27.9430   22.9450 O   0  0  0  0  0  0  0  0  0  0  0  0
   33.3740   30.5250   22.8410 C   0  0  1  0  0  0  0  0  0  0  0  0
   32.1810   30.0880   22.0600 C   0  0  1  0  0  0  0  0  0  0  0  0
   32.6160   27.7810   25.1270 O   0  0  0  0  0  0  0  0  0  0  0  0
   33.4010   27.5210   25.6680 H   0  0  0  0  0  0  0  0  0  0  0  0
   34.4740   27.6120   23.7500 C   0  0  0  0  0  0  0  0  0  0  0  0
   35.5340   28.1150   24.2260 O   0  0  0  0  0  0  0  0  0  0  0  0
   34.6280   26.4060   23.0690 O   0  0  0  0  0  0  0  0  0  0  0  0
   34.8520   25.5620   23.5610 H   0  0  0  0  0  0  0  0  0  0  0  0
   33.3850   31.8760   23.1280 O   0  0  0  0  0  0  0  0  0  0  0  0
   33.0140   32.3720   22.3820 H   0  0  0  0  0  0  0  0  0  0  0  0
   31.8910   30.8870   20.9130 N   0  0  0  0  0  0  0  0  0  0  0  0
   30.6670   31.5190   20.6530 C   0  0  0  0  0  0  0  0  0  0  0  0
   32.6600   31.0170   20.2010 H   0  0  0  0  0  0  0  0  0  0  0  0
   30.4910   32.3240   19.4220 C   0  0  0  0  0  0  0  0  0  0  0  0
   29.7290   31.4090   21.4490 O   0  0  0  0  0  0  0  0  0  0  0  0
   31.9420   27.3680   19.7800 O   0  0  0  0  0  0  0  0  0  0  0  0
   32.8530   27.0510   19.9680 H   0  0  0  0  0  0  0  0  0  0  0  0
   30.3960   26.3130   21.7760 O   0  0  0  0  0  0  0  0  0  0  0  0
   30.0980   25.6620   21.0710 H   0  0  0  0  0  0  0  0  0  0  0  0
   27.8710   30.4390   18.0950 O   0  0  0  0  0  0  0  0  0  0  0  0
   27.9810   30.3290   16.6940 C   0  0  0  0  0  0  0  0  0  0  0  0
   29.1030   31.1180   16.1550 C   0  0  0  0  0  0  0  0  0  0  0  0
   29.0260   32.3280   15.4580 C   0  0  0  0  0  0  0  0  0  0  0  0
   30.4160   30.8390   16.2180 N   0  0  0  0  0  0  0  0  0  0  0  0
   30.2670   32.7210   15.1380 N   0  0  0  0  0  0  0  0  0  0  0  0
   31.0890   31.8030   15.6080 N   0  0  0  0  0  0  0  0  0  0  0  0
   30.6600   33.9060   14.4210 C   0  0  0  0  0  0  0  0  0  0  0  0
   31.8110   34.5730   15.0650 C   0  0  0  0  0  0  0  0  0  0  0  0
   33.0280   34.6370   14.4260 C   0  0  0  0  0  0  0  0  0  0  0  0
   31.6650   35.1310   16.3090 C   0  0  0  0  0  0  0  0  0  0  0  0
   34.1070   35.2670   15.0410 C   0  0  0  0  0  0  0  0  0  0  0  0
   32.7370   35.7660   16.9350 C   0  0  0  0  0  0  0  0  0  0  0  0
   33.9490   35.8300   16.2970 C   0  0  0  0  0  0  0  0  0  0  0  0
   35.0420   36.4580   16.8970 O   0  0  0  0  0  0  0  0  0  0  0  0
   36.3550   36.0380   16.5660 C   0  0  0  0  0  0  0  0  0  0  0  0
   29.8670   25.5550   16.9770 C   0  0  0  0  0  0  0  0  0  0  0  0
   28.3450   25.7220   17.0260 C   0  0  0  0  0  0  0  0  0  0  0  0
   27.5990   24.4320   16.7230 C   0  0  0  0  0  0  0  0  0  0  0  0
   26.9850   23.8300   17.9570 C   0  0  0  0  0  0  0  0  0  0  0  0
   25.7560   23.0150   17.5680 C   0  0  0  0  0  0  0  0  0  0  0  0
   24.7830   22.9770   18.6860 N   0  0  0  0  0  0  0  0  0  0  0  0
  1  5  1  0  0  0  0
  2  1  1  0  0  0  0
  3  2  2  0  0  0  0
  4  1  1  0  0  0  0
  6  5  1  6  0  0  0
  6 29  1  0  0  0  0
  7 27  1  6  0  0  0
  7  6  1  0  0  0  0
  8  7  1  6  0  0  0
  8 13  1  0  0  0  0
  8 11  1  0  0  0  0
  9 16  1  6  0  0  0
  9 10  1  0  0  0  0
  9 14  1  0  0  0  0
 11  9  1  0  0  0  0
 12 20  1  1  0  0  0
 12 10  1  0  0  0  0
 13 22  1  6  0  0  0
 13 12  1  0  0  0  0
 14 15  1  0  0  0  0
 16 17  2  0  0  0  0
 18 19  1  0  0  0  0
 18 16  1  0  0  0  0
 21 20  1  0  0  0  0
 23 22  1  0  0  0  0
 23 26  2  0  0  0  0
 24 22  1  0  0  0  0
 25 23  1  0  0  0  0
 27 28  1  0  0  0  0
 30 29  1  0  0  0  0
 31  2  1  0  0  0  0
 32 31  1  0  0  0  0
 33 35  1  0  0  0  0
 33 32  1  0  0  0  0
 34 33  2  0  0  0  0
 36 34  1  0  0  0  0
 36 37  1  0  0  0  0
 37 35  2  0  0  0  0
 38 39  1  0  0  0  0
 38 36  1  0  0  0  0
 39 41  2  0  0  0  0
 40 42  2  0  0  0  0
 40 39  1  0  0  0  0
 41 43  1  0  0  0  0
 42 44  1  0  0  0  0
 44 45  1  0  0  0  0
 44 43  2  0  0  0  0
 46 45  1  0  0  0  0
 47 48  1  0  0  0  0
 49 48  1  0  0  0  0
 49 50  1  0  0  0  0
 51 50  1  0  0  0  0
 51 52  1  0  0  0  0
M  END
>  <REMARK>
 VINA RESULT:    -4.837      2.336      3.425
 INTER + INTRA:         -14.212
 INTER:                  -8.936
 INTRA:                  -5.276
 UNBOUND:                -5.276
 SMILES COc1ccc(Cn2cc(COC(=O)NC[C@@H](O)C(O)[C@@H]3O[C@@](O)(C(=O)O)C[C@H](O)[C@H]3NC(C)=O)nn2)cc1
 SMILES IDX 15 1 13 2 14 3 16 5 17 6 19 7 21 8 23 9 28 10 22 11 29 12
 SMILES IDX 31 13 24 14 25 16 26 17 27 18 30 20 32 22 33 23 34 25 35 26
 SMILES IDX 20 27 18 29 12 31 11 32 10 33 9 34 36 35 8 36 37 37 7 38
 SMILES IDX 6 39 5 40 38 41 4 42 39 43 3 44 2 45 1 46
 H PARENT 15 4 24 15 27 19 30 21 32 24 20 28 18 30
 Flexibility Score: inf
  4 active torsions:
  status: ('A' for Active; 'I' for Inactive)
    1  A    between atoms: CA   and  CB  
    2  A    between atoms: CB   and  CG  
    3  A    between atoms: CG   and  CD  
    4  A    between atoms: CD   and  CE  

>  <TORSDO>
F 17

>  <BEGIN_>
RES LYS A 131

$$$$
ligand_24_pose_18_2HRL.pdbqt
 OpenBabel07062320523D

  6  5  0  0  0  0  0  0  0  0999 V2000
   33.1930   34.6630    9.2900 C   0  0  0  0  0  0  0  0  0  0  0  0
   32.0600   35.3600   10.0340 C   0  0  0  0  0  0  0  0  0  0  0  0
   30.7150   34.7130    9.8260 C   0  0  0  0  0  0  0  0  0  0  0  0
   30.4270   34.5400    8.3430 C   0  0  0  0  0  0  0  0  0  0  0  0
   29.2130   35.3540    7.9370 C   0  0  0  0  0  0  0  0  0  0  0  0
   27.9510   34.6370    8.2670 N   0  0  0  0  0  0  0  0  0  0  0  0
  1  2  1  0  0  0  0
  3  2  1  0  0  0  0
  4  3  1  0  0  0  0
  5  6  1  0  0  0  0
  5  4  1  0  0  0  0
M  END
>  <EGIN_R>
ES LYS A 135

>  <REMARK>
  4 active torsions:
  status: ('A' for Active; 'I' for Inactive)
    5  A    between atoms: CA   and  CB  
    6  A    between atoms: CB   and  CG  
    7  A    between atoms: CG   and  CD  
    8  A    between atoms: CD   and  CE  

$$$$
