ligand_26_pose_18_2HRL.pdbqt
 OpenBabel07062320523D

 54 55  0  0  1  0  0  0  0  0999 V2000
   28.5100   30.3260   17.9920 N   0  0  0  0  0  0  0  0  0  0  0  0
   27.5080   31.0100   18.7380 C   0  0  0  0  0  0  0  0  0  0  0  0
   27.8550   31.9290   19.5030 O   0  0  0  0  0  0  0  0  0  0  0  0
   28.1330   29.5560   17.3590 H   0  0  0  0  0  0  0  0  0  0  0  0
   29.9250   30.6220   18.0590 C   0  0  0  0  0  0  0  0  0  0  0  0
   30.4280   31.2670   16.7860 C   0  0  2  0  0  0  0  0  0  0  0  0
   30.4310   32.7780   16.8820 C   0  0  1  0  0  0  0  0  0  0  0  0
   29.3990   33.4250   16.0070 C   0  0  2  0  0  0  0  0  0  0  0  0
   30.5830   34.4230   14.2610 C   0  0  2  0  0  0  0  0  0  0  0  0
   30.2770   35.8120   14.7640 C   0  0  0  0  0  0  0  0  0  0  0  0
   29.7310   33.4460   14.6790 O   0  0  0  0  0  0  0  0  0  0  0  0
   30.0030   35.8560   16.2370 C   0  0  1  0  0  0  0  0  0  0  0  0
   28.9770   34.7850   16.5330 C   0  0  1  0  0  0  0  0  0  0  0  0
   31.9450   34.1320   14.4970 O   0  0  0  0  0  0  0  0  0  0  0  0
   32.4790   34.1730   13.6810 H   0  0  0  0  0  0  0  0  0  0  0  0
   30.4480   34.5010   12.7600 C   0  0  0  0  0  0  0  0  0  0  0  0
   29.3620   34.5860   12.1730 O   0  0  0  0  0  0  0  0  0  0  0  0
   31.6660   34.4700   12.0600 O   0  0  0  0  0  0  0  0  0  0  0  0
   32.3310   35.2230   12.1460 H   0  0  0  0  0  0  0  0  0  0  0  0
   31.1380   35.7350   17.0040 O   0  0  0  0  0  0  0  0  0  0  0  0
   31.7360   35.0530   16.6150 H   0  0  0  0  0  0  0  0  0  0  0  0
   27.7860   35.1580   15.7520 N   0  0  0  0  0  0  0  0  0  0  0  0
   26.7260   35.8510   16.3990 C   0  0  0  0  0  0  0  0  0  0  0  0
   27.6940   34.9330   14.7440 H   0  0  0  0  0  0  0  0  0  0  0  0
   25.5330   36.2220   15.5960 C   0  0  0  0  0  0  0  0  0  0  0  0
   26.8360   36.1240   17.6140 O   0  0  0  0  0  0  0  0  0  0  0  0
   30.2290   33.0950   18.2270 O   0  0  0  0  0  0  0  0  0  0  0  0
   29.3050   32.8060   18.4920 H   0  0  0  0  0  0  0  0  0  0  0  0
   29.6100   30.8510   15.7150 O   0  0  0  0  0  0  0  0  0  0  0  0
   29.4860   29.8690   15.7080 H   0  0  0  0  0  0  0  0  0  0  0  0
   26.1700   30.6980   18.6480 O   0  0  0  0  0  0  0  0  0  0  0  0
   25.6410   29.4470   18.2720 C   0  0  0  0  0  0  0  0  0  0  0  0
   24.9550   29.4380   16.9770 C   0  0  0  0  0  0  0  0  0  0  0  0
   25.2860   30.2300   15.8690 C   0  0  0  0  0  0  0  0  0  0  0  0
   23.8950   28.6940   16.5700 N   0  0  0  0  0  0  0  0  0  0  0  0
   24.4510   29.9420   14.8900 N   0  0  0  0  0  0  0  0  0  0  0  0
   23.6300   29.0290   15.3210 N   0  0  0  0  0  0  0  0  0  0  0  0
   24.4690   30.5720   13.5320 C   0  0  1  0  0  0  0  0  0  0  0  0
   23.5220   29.7260   12.7210 C   0  0  0  0  0  0  0  0  0  0  0  0
   24.0150   31.9460   13.7000 C   0  0  0  0  0  0  0  0  0  0  0  0
   24.8730   33.0440   13.3830 C   0  0  2  0  0  0  0  0  0  0  0  0
   25.8660   33.1840   14.2670 O   0  0  0  0  0  0  0  0  0  0  0  0
   24.9030   34.0200   12.3390 C   0  0  0  0  0  0  0  0  0  0  0  0
   23.6730   34.5350   11.8610 C   0  0  0  0  0  0  0  0  0  0  0  0
   26.0360   34.5310   11.7550 C   0  0  0  0  0  0  0  0  0  0  0  0
   23.6300   35.4860   10.8730 C   0  0  0  0  0  0  0  0  0  0  0  0
   25.9550   35.4930   10.7580 C   0  0  0  0  0  0  0  0  0  0  0  0
   24.7750   35.9830   10.3020 C   0  0  0  0  0  0  0  0  0  0  0  0
   29.8670   25.5550   16.9770 C   0  0  0  0  0  0  0  0  0  0  0  0
   28.3450   25.7220   17.0260 C   0  0  0  0  0  0  0  0  0  0  0  0
   27.5990   24.4330   16.7180 C   0  0  0  0  0  0  0  0  0  0  0  0
   26.9300   23.8600   17.9370 C   0  0  0  0  0  0  0  0  0  0  0  0
   26.2530   24.9800   18.7200 C   0  0  0  0  0  0  0  0  0  0  0  0
   24.8130   25.0560   18.3770 N   0  0  0  0  0  0  0  0  0  0  0  0
  1  5  1  0  0  0  0
  1  2  1  0  0  0  0
  2  3  2  0  0  0  0
  4  1  1  0  0  0  0
  6  7  1  0  0  0  0
  6  5  1  1  0  0  0
  7 27  1  1  0  0  0
  8 13  1  0  0  0  0
  8  7  1  1  0  0  0
  9 16  1  6  0  0  0
  9 14  1  0  0  0  0
  9 11  1  0  0  0  0
  9 10  1  0  0  0  0
 10 12  1  0  0  0  0
 11  8  1  0  0  0  0
 12 13  1  0  0  0  0
 12 20  1  1  0  0  0
 13 22  1  6  0  0  0
 15 14  1  0  0  0  0
 17 16  2  0  0  0  0
 18 19  1  0  0  0  0
 18 16  1  0  0  0  0
 21 20  1  0  0  0  0
 22 23  1  0  0  0  0
 23 26  2  0  0  0  0
 24 22  1  0  0  0  0
 25 23  1  0  0  0  0
 27 28  1  0  0  0  0
 29  6  1  0  0  0  0
 30 29  1  0  0  0  0
 31  2  1  0  0  0  0
 32 31  1  0  0  0  0
 33 32  1  0  0  0  0
 34 33  2  0  0  0  0
 35 33  1  0  0  0  0
 36 37  1  0  0  0  0
 36 34  1  0  0  0  0
 37 35  2  0  0  0  0
 38 39  1  6  0  0  0
 38 40  1  0  0  0  0
 38 36  1  0  0  0  0
 41 40  1  0  0  0  0
 41 42  1  1  0  0  0
 43 41  1  0  0  0  0
 44 43  1  0  0  0  0
 45 43  2  0  0  0  0
 46 44  2  0  0  0  0
 47 45  1  0  0  0  0
 48 47  2  0  0  0  0
 48 46  1  0  0  0  0
 49 50  1  0  0  0  0
 51 50  1  0  0  0  0
 51 52  1  0  0  0  0
 52 53  1  0  0  0  0
 54 53  1  0  0  0  0
M  END
>  <REMARK>
 VINA RESULT:    -4.505      3.601      7.662
 INTER + INTRA:         -15.522
 INTER:                  -8.666
 INTRA:                  -6.856
 UNBOUND:                -6.934
 SMILES CC(=O)N[C@@H]1[C@@H](O)C[C@](O)(C(=O)O)O[C@H]1C(O)[C@H](O)CNC(=O)OCc1cn(C(C)CC(=O)c2ccccc2)nn1
 SMILES IDX 21 1 22 2 23 3 20 5 18 6 16 7 15 8 9 9 8 10 14 11 6 12 5 13
 SMILES IDX 10 14 11 16 12 17 13 18 7 20 4 22 2 23 1 25 3 26 17 27 19 29
 SMILES IDX 24 31 25 32 26 33 27 34 41 35 28 36 40 37 29 38 30 39 31 40
 SMILES IDX 32 41 33 42 34 43 35 44 39 45 36 46 38 47 37 48
 H PARENT 21 4 10 15 13 19 7 21 4 24 17 28 19 30
 Flexibility Score: inf
  4 active torsions:
  status: ('A' for Active; 'I' for Inactive)
    1  A    between atoms: CA   and  CB  
    2  A    between atoms: CB   and  CG  
    3  A    between atoms: CG   and  CD  
    4  A    between atoms: CD   and  CE  

>  <TORSDO>
F 18

>  <BEGIN_>
RES LYS A 131

$$$$
ligand_26_pose_18_2HRL.pdbqt
 OpenBabel07062320523D

  6  5  0  0  0  0  0  0  0  0999 V2000
   33.1930   34.6630    9.2900 C   0  0  0  0  0  0  0  0  0  0  0  0
   32.0600   35.3600   10.0340 C   0  0  0  0  0  0  0  0  0  0  0  0
   30.8450   35.6150    9.1800 C   0  0  0  0  0  0  0  0  0  0  0  0
   30.1500   34.3080    8.8320 C   0  0  0  0  0  0  0  0  0  0  0  0
   28.7780   34.5750    8.2430 C   0  0  0  0  0  0  0  0  0  0  0  0
   28.8330   35.6580    7.2230 N   0  0  0  0  0  0  0  0  0  0  0  0
  1  2  1  0  0  0  0
  3  2  1  0  0  0  0
  4  3  1  0  0  0  0
  5  4  1  0  0  0  0
  6  5  1  0  0  0  0
M  END
>  <EGIN_R>
ES LYS A 135

>  <REMARK>
  4 active torsions:
  status: ('A' for Active; 'I' for Inactive)
    5  A    between atoms: CA   and  CB  
    6  A    between atoms: CB   and  CG  
    7  A    between atoms: CG   and  CD  
    8  A    between atoms: CD   and  CE  

$$$$
