ligand_56_pose_4_2HRL.pdbqt
 OpenBabel07062320523D

 49 50  0  0  1  0  0  0  0  0999 V2000
   29.9610   27.1340   21.4570 C   0  0  0  0  0  0  0  0  0  0  0  0
   31.4280   26.9260   21.3180 C   0  0  2  0  0  0  0  0  0  0  0  0
   32.2380   27.9040   22.1530 C   0  0  2  0  0  0  0  0  0  0  0  0
   33.1650   27.2440   23.1090 C   0  0  2  0  0  0  0  0  0  0  0  0
   33.3930   26.4270   25.2550 C   0  0  2  0  0  0  0  0  0  0  0  0
   34.8230   26.1890   24.8400 C   0  0  0  0  0  0  0  0  0  0  0  0
   32.5560   26.7080   24.2090 O   0  0  0  0  0  0  0  0  0  0  0  0
   35.4000   27.3370   24.0590 C   0  0  1  0  0  0  0  0  0  0  0  0
   34.2440   28.1990   23.5940 C   0  0  1  0  0  0  0  0  0  0  0  0
   33.2960   27.3880   26.2620 O   0  0  0  0  0  0  0  0  0  0  0  0
   33.6440   27.0500   27.1300 H   0  0  0  0  0  0  0  0  0  0  0  0
   32.9130   25.1380   25.8660 C   0  0  0  0  0  0  0  0  0  0  0  0
   33.6770   24.2480   26.2690 O   0  0  0  0  0  0  0  0  0  0  0  0
   31.5310   24.9920   25.9590 O   0  0  0  0  0  0  0  0  0  0  0  0
   30.9670   24.9010   25.1170 H   0  0  0  0  0  0  0  0  0  0  0  0
   36.2920   28.0920   24.8200 O   0  0  0  0  0  0  0  0  0  0  0  0
   36.0170   28.0700   25.7680 H   0  0  0  0  0  0  0  0  0  0  0  0
   34.6480   29.1300   22.5670 N   0  0  0  0  0  0  0  0  0  0  0  0
   34.9660   30.4780   22.8890 C   0  0  0  0  0  0  0  0  0  0  0  0
   34.7170   28.8470   21.5730 H   0  0  0  0  0  0  0  0  0  0  0  0
   35.3890   31.4690   21.8480 C   0  0  0  0  0  0  0  0  0  0  0  0
   34.8900   30.8490   24.0870 O   0  0  0  0  0  0  0  0  0  0  0  0
   31.4440   28.8980   22.6640 O   0  0  0  0  0  0  0  0  0  0  0  0
   31.7460   29.1120   23.5890 H   0  0  0  0  0  0  0  0  0  0  0  0
   31.8780   27.0770   20.0190 O   0  0  0  0  0  0  0  0  0  0  0  0
   32.8530   26.9890   19.9230 H   0  0  0  0  0  0  0  0  0  0  0  0
   29.3340   27.3050   20.1770 N   0  0  0  0  0  0  0  0  0  0  0  0
   27.9660   27.3330   19.8820 C   0  0  0  0  0  0  0  0  0  0  0  0
   29.9810   27.4290   19.3230 H   0  0  0  0  0  0  0  0  0  0  0  0
   27.1230   27.1930   20.7700 O   0  0  0  0  0  0  0  0  0  0  0  0
   27.4760   27.5190   18.5760 O   0  0  0  0  0  0  0  0  0  0  0  0
   26.8790   28.7730   18.2260 C   0  0  0  0  0  0  0  0  0  0  0  0
   27.8010   29.5950   17.4360 C   0  0  0  0  0  0  0  0  0  0  0  0
   28.6280   30.6180   17.8390 C   0  0  0  0  0  0  0  0  0  0  0  0
   27.9960   29.4690   16.1060 N   0  0  0  0  0  0  0  0  0  0  0  0
   29.2800   31.0590   16.7390 N   0  0  0  0  0  0  0  0  0  0  0  0
   28.8920   30.3610   15.7020 N   0  0  0  0  0  0  0  0  0  0  0  0
   30.2430   32.1140   16.6840 C   0  0  0  0  0  0  0  0  0  0  0  0
   30.9250   32.3240   15.5100 C   0  0  0  0  0  0  0  0  0  0  0  0
   30.4810   32.9070   17.8000 C   0  0  0  0  0  0  0  0  0  0  0  0
   31.8500   33.3460   15.4740 C   0  0  0  0  0  0  0  0  0  0  0  0
   31.4060   33.9070   17.7140 C   0  0  0  0  0  0  0  0  0  0  0  0
   32.0700   34.1040   16.5560 N   0  0  0  0  0  0  0  0  0  0  0  0
   29.8670   25.5550   16.9770 C   0  0  0  0  0  0  0  0  0  0  0  0
   28.3450   25.7220   17.0260 C   0  0  0  0  0  0  0  0  0  0  0  0
   27.6020   24.3970   16.9460 C   0  0  0  0  0  0  0  0  0  0  0  0
   26.1340   24.5530   17.2300 C   0  0  0  0  0  0  0  0  0  0  0  0
   25.5730   23.2320   17.7470 C   0  0  0  0  0  0  0  0  0  0  0  0
   25.5900   23.2040   19.2280 N   0  0  0  0  0  0  0  0  0  0  0  0
  2  1  1  6  0  0  0
  2  3  1  0  0  0  0
  3 23  1  1  0  0  0
  4  3  1  6  0  0  0
  4  9  1  0  0  0  0
  4  7  1  0  0  0  0
  5 12  1  1  0  0  0
  5 10  1  0  0  0  0
  6  5  1  0  0  0  0
  7  5  1  0  0  0  0
  8 16  1  1  0  0  0
  8  6  1  0  0  0  0
  9 18  1  6  0  0  0
  9  8  1  0  0  0  0
 10 11  1  0  0  0  0
 12 14  1  0  0  0  0
 12 13  2  0  0  0  0
 15 14  1  0  0  0  0
 16 17  1  0  0  0  0
 18 19  1  0  0  0  0
 19 22  2  0  0  0  0
 20 18  1  0  0  0  0
 21 19  1  0  0  0  0
 23 24  1  0  0  0  0
 25  2  1  0  0  0  0
 26 25  1  0  0  0  0
 27  1  1  0  0  0  0
 28 27  1  0  0  0  0
 28 30  2  0  0  0  0
 29 27  1  0  0  0  0
 31 28  1  0  0  0  0
 32 31  1  0  0  0  0
 33 34  2  0  0  0  0
 33 32  1  0  0  0  0
 35 33  1  0  0  0  0
 36 34  1  0  0  0  0
 37 35  2  0  0  0  0
 37 36  1  0  0  0  0
 38 36  1  0  0  0  0
 38 40  2  0  0  0  0
 39 38  1  0  0  0  0
 41 39  2  0  0  0  0
 41 43  1  0  0  0  0
 42 40  1  0  0  0  0
 43 42  2  0  0  0  0
 44 45  1  0  0  0  0
 46 45  1  0  0  0  0
 46 47  1  0  0  0  0
 47 48  1  0  0  0  0
 48 49  1  0  0  0  0
M  END
>  <REMARK>
 VINA RESULT:    -5.095      2.042      2.854
 INTER + INTRA:         -14.091
 INTER:                  -9.366
 INTRA:                  -4.725
 UNBOUND:                -5.272
 SMILES CC(=O)N[C@@H]1[C@@H](O)C[C@](O)(C(=O)O)O[C@H]1C(O)[C@H](O)CNC(=O)OCc1cn(-c2ccncc2)nn1
 SMILES IDX 20 1 18 2 16 3 15 4 9 5 8 6 14 7 6 8 5 9 10 10 11 12 12 13
 SMILES IDX 13 14 7 16 4 18 2 19 1 21 3 22 17 23 19 25 21 27 22 28 23 30
 SMILES IDX 24 31 25 32 26 33 27 34 36 35 28 36 35 37 29 38 30 39 34 40
 SMILES IDX 31 41 33 42 32 43
 H PARENT 10 11 13 15 7 17 4 20 17 24 19 26 21 29
 Flexibility Score: inf
  4 active torsions:
  status: ('A' for Active; 'I' for Inactive)
    1  A    between atoms: CA   and  CB  
    2  A    between atoms: CB   and  CG  
    3  A    between atoms: CG   and  CD  
    4  A    between atoms: CD   and  CE  

>  <TORSDO>
F 15

>  <BEGIN_>
RES LYS A 131

$$$$
ligand_56_pose_4_2HRL.pdbqt
 OpenBabel07062320523D

  6  5  0  0  0  0  0  0  0  0999 V2000
   33.1930   34.6630    9.2900 C   0  0  0  0  0  0  0  0  0  0  0  0
   32.0600   35.3600   10.0340 C   0  0  0  0  0  0  0  0  0  0  0  0
   30.7080   34.7390    9.7920 C   0  0  0  0  0  0  0  0  0  0  0  0
   30.5100   34.4450    8.3130 C   0  0  0  0  0  0  0  0  0  0  0  0
   29.1550   34.9420    7.8480 C   0  0  0  0  0  0  0  0  0  0  0  0
   28.0600   34.3710    8.6810 N   0  0  0  0  0  0  0  0  0  0  0  0
  1  2  1  0  0  0  0
  3  2  1  0  0  0  0
  4  3  1  0  0  0  0
  5  4  1  0  0  0  0
  5  6  1  0  0  0  0
M  END
>  <EGIN_R>
ES LYS A 135

>  <REMARK>
  4 active torsions:
  status: ('A' for Active; 'I' for Inactive)
    5  A    between atoms: CA   and  CB  
    6  A    between atoms: CB   and  CG  
    7  A    between atoms: CG   and  CD  
    8  A    between atoms: CD   and  CE  

$$$$
