ligand_0_pose_17_2HRL.pdbqt
 OpenBabel07062320523D

 54 55  0  0  1  0  0  0  0  0999 V2000
   30.9930   41.8390    9.6580 N   0  0  0  0  0  0  0  0  0  0  0  0
   30.0970   41.6400   10.7410 C   0  0  0  0  0  0  0  0  0  0  0  0
   29.0040   42.2360   10.7380 O   0  0  0  0  0  0  0  0  0  0  0  0
   31.9060   41.3030    9.7230 H   0  0  0  0  0  0  0  0  0  0  0  0
   30.7390   42.6950    8.5250 C   0  0  0  0  0  0  0  0  0  0  0  0
   30.0770   41.9550    7.3750 C   0  0  2  0  0  0  0  0  0  0  0  0
   28.6200   42.2900    7.2590 C   0  0  1  0  0  0  0  0  0  0  0  0
   27.7250   41.1220    7.0950 C   0  0  2  0  0  0  0  0  0  0  0  0
   27.5270   39.2620    5.6890 C   0  0  2  0  0  0  0  0  0  0  0  0
   26.4820   38.8860    6.6980 C   0  0  0  0  0  0  0  0  0  0  0  0
   28.2360   40.3780    5.9990 O   0  0  0  0  0  0  0  0  0  0  0  0
   25.5870   40.0070    7.1010 C   0  0  1  0  0  0  0  0  0  0  0  0
   26.2910   41.3300    6.8220 C   0  0  1  0  0  0  0  0  0  0  0  0
   26.9250   39.3380    4.4100 O   0  0  0  0  0  0  0  0  0  0  0  0
   27.6630   39.3320    3.7330 H   0  0  0  0  0  0  0  0  0  0  0  0
   28.4810   38.1180    5.6120 C   0  0  0  0  0  0  0  0  0  0  0  0
   28.0060   36.9570    5.4240 O   0  0  0  0  0  0  0  0  0  0  0  0
   29.8470   38.2500    5.7340 O   0  0  0  0  0  0  0  0  0  0  0  0
   30.2570   39.0650    6.1630 H   0  0  0  0  0  0  0  0  0  0  0  0
   24.3960   39.9090    6.3990 O   0  0  0  0  0  0  0  0  0  0  0  0
   24.0450   40.7810    6.0890 H   0  0  0  0  0  0  0  0  0  0  0  0
   25.6290   42.4380    7.3970 N   0  0  0  0  0  0  0  0  0  0  0  0
   25.0210   43.4400    6.6130 C   0  0  0  0  0  0  0  0  0  0  0  0
   25.5530   42.5380    8.4280 H   0  0  0  0  0  0  0  0  0  0  0  0
   24.3160   44.6190    7.1610 C   0  0  0  0  0  0  0  0  0  0  0  0
   25.0790   43.3240    5.3700 O   0  0  0  0  0  0  0  0  0  0  0  0
   28.1820   43.3150    8.0640 O   0  0  0  0  0  0  0  0  0  0  0  0
   27.1800   43.3840    8.0140 H   0  0  0  0  0  0  0  0  0  0  0  0
   30.3900   40.6250    7.3570 O   0  0  0  0  0  0  0  0  0  0  0  0
   30.0570   40.1640    8.1760 H   0  0  0  0  0  0  0  0  0  0  0  0
   30.3940   40.8000   11.8070 O   0  0  0  0  0  0  0  0  0  0  0  0
   31.0650   39.5650   11.6310 C   0  0  0  0  0  0  0  0  0  0  0  0
   30.3940   38.7580   10.5670 C   0  0  0  0  0  0  0  0  0  0  0  0
   29.2490   38.0020   10.7360 C   0  0  0  0  0  0  0  0  0  0  0  0
   30.7550   38.6140    9.2830 N   0  0  0  0  0  0  0  0  0  0  0  0
   28.9610   37.4230    9.5320 N   0  0  0  0  0  0  0  0  0  0  0  0
   29.8750   37.8070    8.6900 N   0  0  0  0  0  0  0  0  0  0  0  0
   27.8510   36.5510    9.2880 C   0  0  0  0  0  0  0  0  0  0  0  0
   28.0000   35.3370    8.6590 C   0  0  0  0  0  0  0  0  0  0  0  0
   26.5920   36.9660    9.7090 C   0  0  0  0  0  0  0  0  0  0  0  0
   26.8680   34.5420    8.4570 C   0  0  0  0  0  0  0  0  0  0  0  0
   25.4910   36.1710    9.5010 C   0  0  0  0  0  0  0  0  0  0  0  0
   25.6410   34.9620    8.8740 C   0  0  0  0  0  0  0  0  0  0  0  0
   29.2880   34.8440    8.1950 C   0  0  0  0  0  0  0  0  0  0  0  0
   29.8920   34.0010    8.9340 O   0  0  0  0  0  0  0  0  0  0  0  0
   29.8810   35.2610    6.9730 N   0  0  0  0  0  0  0  0  0  0  0  0
   29.5190   34.9680    6.0520 H   0  0  0  0  0  0  0  0  0  0  0  0
   30.7330   35.8930    7.0550 H   0  0  0  0  0  0  0  0  0  0  0  0
   29.8670   25.5550   16.9770 C   0  0  0  0  0  0  0  0  0  0  0  0
   28.3450   25.7220   17.0260 C   0  0  0  0  0  0  0  0  0  0  0  0
   27.6010   24.4020   16.8930 C   0  0  0  0  0  0  0  0  0  0  0  0
   26.6600   24.1640   18.0420 C   0  0  0  0  0  0  0  0  0  0  0  0
   25.3310   24.8570   17.7620 C   0  0  0  0  0  0  0  0  0  0  0  0
   24.4880   24.0250   16.8710 N   0  0  0  0  0  0  0  0  0  0  0  0
  1  4  1  0  0  0  0
  1  2  1  0  0  0  0
  2 31  1  0  0  0  0
  3  2  2  0  0  0  0
  5  1  1  0  0  0  0
  6  5  1  1  0  0  0
  7  6  1  0  0  0  0
  7 27  1  1  0  0  0
  8  7  1  6  0  0  0
  9 14  1  6  0  0  0
  9 11  1  0  0  0  0
  9 10  1  0  0  0  0
 10 12  1  0  0  0  0
 11  8  1  0  0  0  0
 12 20  1  6  0  0  0
 13  8  1  0  0  0  0
 13 12  1  0  0  0  0
 13 22  1  1  0  0  0
 15 14  1  0  0  0  0
 16  9  1  0  0  0  0
 16 18  1  0  0  0  0
 17 16  2  0  0  0  0
 18 19  1  0  0  0  0
 21 20  1  0  0  0  0
 22 24  1  0  0  0  0
 23 25  1  0  0  0  0
 23 22  1  0  0  0  0
 26 23  2  0  0  0  0
 28 27  1  0  0  0  0
 29  6  1  0  0  0  0
 29 30  1  0  0  0  0
 32 31  1  0  0  0  0
 33 34  2  0  0  0  0
 33 32  1  0  0  0  0
 35 33  1  0  0  0  0
 36 34  1  0  0  0  0
 37 35  2  0  0  0  0
 37 36  1  0  0  0  0
 38 36  1  0  0  0  0
 38 40  2  0  0  0  0
 39 38  1  0  0  0  0
 41 39  2  0  0  0  0
 41 43  1  0  0  0  0
 42 40  1  0  0  0  0
 43 42  2  0  0  0  0
 44 39  1  0  0  0  0
 44 45  2  0  0  0  0
 46 48  1  0  0  0  0
 46 44  1  0  0  0  0
 47 46  1  0  0  0  0
 49 50  1  0  0  0  0
 51 50  1  0  0  0  0
 51 52  1  0  0  0  0
 53 52  1  0  0  0  0
 54 53  1  0  0  0  0
M  END
>  <REMARK>
 VINA RESULT:    -5.139      8.215     15.081
 INTER + INTRA:         -14.610
 INTER:                  -8.155
 INTRA:                  -6.454
 UNBOUND:                -5.414
 SMILES CC(=O)N[C@@H]1[C@@H](O)C[C@](O)(C(=O)O)O[C@H]1C(O)[C@H](O)CNC(=O)OCc1cn(-c2ccccc2C(N)=O)nn1
 SMILES IDX 21 1 22 2 23 3 20 5 18 6 16 7 15 8 9 9 8 10 14 11 6 12 5 13
 SMILES IDX 10 14 11 16 12 17 13 18 7 20 4 22 2 23 1 25 3 26 17 27 19 29
 SMILES IDX 24 31 25 32 26 33 27 34 39 35 28 36 38 37 29 38 34 39 30 40
 SMILES IDX 33 41 31 42 32 43 35 44 37 45 36 46
 H PARENT 21 4 10 15 13 19 7 21 4 24 17 28 19 30 36 47 36 48
 Flexibility Score: inf
  4 active torsions:
  status: ('A' for Active; 'I' for Inactive)
    1  A    between atoms: CA   and  CB  
    2  A    between atoms: CB   and  CG  
    3  A    between atoms: CG   and  CD  
    4  A    between atoms: CD   and  CE  

>  <TORSDO>
F 16

>  <BEGIN_>
RES LYS A 131

$$$$
ligand_0_pose_17_2HRL.pdbqt
 OpenBabel07062320523D

  6  5  0  0  0  0  0  0  0  0999 V2000
   33.1930   34.6630    9.2900 C   0  0  0  0  0  0  0  0  0  0  0  0
   32.0600   35.3600   10.0340 C   0  0  0  0  0  0  0  0  0  0  0  0
   32.5210   36.1480   11.2330 C   0  0  0  0  0  0  0  0  0  0  0  0
   31.8670   35.6260   12.5020 C   0  0  0  0  0  0  0  0  0  0  0  0
   30.5810   34.8910   12.1750 C   0  0  0  0  0  0  0  0  0  0  0  0
   30.0440   34.1900   13.3740 N   0  0  0  0  0  0  0  0  0  0  0  0
  1  2  1  0  0  0  0
  2  3  1  0  0  0  0
  3  4  1  0  0  0  0
  5  4  1  0  0  0  0
  5  6  1  0  0  0  0
M  END
>  <EGIN_R>
ES LYS A 135

>  <REMARK>
  4 active torsions:
  status: ('A' for Active; 'I' for Inactive)
    5  A    between atoms: CA   and  CB  
    6  A    between atoms: CB   and  CG  
    7  A    between atoms: CG   and  CD  
    8  A    between atoms: CD   and  CE  

$$$$
