ligand_56_pose_14_2HRL.pdbqt
 OpenBabel07062320523D

 49 50  0  0  1  0  0  0  0  0999 V2000
   27.2170   29.5120   19.0640 C   0  0  0  0  0  0  0  0  0  0  0  0
   27.0770   28.0410   19.2390 C   0  0  2  0  0  0  0  0  0  0  0  0
   27.1880   27.6110   20.6930 C   0  0  2  0  0  0  0  0  0  0  0  0
   28.4320   28.0800   21.3590 C   0  0  2  0  0  0  0  0  0  0  0  0
   30.7100   27.7640   21.5340 C   0  0  2  0  0  0  0  0  0  0  0  0
   30.6110   28.8160   22.6100 C   0  0  0  0  0  0  0  0  0  0  0  0
   29.5860   27.6610   20.7600 O   0  0  0  0  0  0  0  0  0  0  0  0
   29.4240   28.6160   23.5110 C   0  0  1  0  0  0  0  0  0  0  0  0
   28.4820   27.6530   22.8170 C   0  0  1  0  0  0  0  0  0  0  0  0
   31.0920   26.5260   22.0520 O   0  0  0  0  0  0  0  0  0  0  0  0
   30.9830   26.4890   23.0390 H   0  0  0  0  0  0  0  0  0  0  0  0
   31.8300   28.1960   20.6260 C   0  0  0  0  0  0  0  0  0  0  0  0
   32.4030   29.2920   20.7230 O   0  0  0  0  0  0  0  0  0  0  0  0
   32.1990   27.2800   19.6440 O   0  0  0  0  0  0  0  0  0  0  0  0
   31.7640   26.3610   19.6100 H   0  0  0  0  0  0  0  0  0  0  0  0
   29.7940   28.1160   24.7590 O   0  0  0  0  0  0  0  0  0  0  0  0
   29.8910   27.1350   24.7060 H   0  0  0  0  0  0  0  0  0  0  0  0
   27.1730   27.6490   23.4270 N   0  0  0  0  0  0  0  0  0  0  0  0
   26.6390   26.4610   23.9960 C   0  0  0  0  0  0  0  0  0  0  0  0
   26.5900   28.5040   23.4690 H   0  0  0  0  0  0  0  0  0  0  0  0
   25.2860   26.4210   24.6380 C   0  0  0  0  0  0  0  0  0  0  0  0
   27.3260   25.4090   23.9600 O   0  0  0  0  0  0  0  0  0  0  0  0
   26.8820   26.2830   20.8430 O   0  0  0  0  0  0  0  0  0  0  0  0
   27.5750   25.8520   21.4130 H   0  0  0  0  0  0  0  0  0  0  0  0
   28.0400   27.3180   18.5590 O   0  0  0  0  0  0  0  0  0  0  0  0
   28.3810   26.5410   19.0570 H   0  0  0  0  0  0  0  0  0  0  0  0
   28.3640   29.8360   18.2650 N   0  0  0  0  0  0  0  0  0  0  0  0
   29.2380   30.9200   18.4090 C   0  0  0  0  0  0  0  0  0  0  0  0
   28.5990   29.1740   17.4470 H   0  0  0  0  0  0  0  0  0  0  0  0
   29.0730   31.7540   19.3000 O   0  0  0  0  0  0  0  0  0  0  0  0
   30.3420   31.1220   17.5580 O   0  0  0  0  0  0  0  0  0  0  0  0
   30.1410   31.1170   16.1400 C   0  0  0  0  0  0  0  0  0  0  0  0
   30.5610   32.3870   15.5420 C   0  0  0  0  0  0  0  0  0  0  0  0
   29.8800   33.2190   14.6830 C   0  0  0  0  0  0  0  0  0  0  0  0
   31.7560   32.9780   15.7540 N   0  0  0  0  0  0  0  0  0  0  0  0
   30.6910   34.2680   14.4180 N   0  0  0  0  0  0  0  0  0  0  0  0
   31.8180   34.1140   15.0670 N   0  0  0  0  0  0  0  0  0  0  0  0
   30.3970   35.3810   13.5710 C   0  0  0  0  0  0  0  0  0  0  0  0
   29.1530   35.4590   12.9930 C   0  0  0  0  0  0  0  0  0  0  0  0
   31.3550   36.3610   13.3400 C   0  0  0  0  0  0  0  0  0  0  0  0
   28.8860   36.5390   12.1790 C   0  0  0  0  0  0  0  0  0  0  0  0
   31.0420   37.4110   12.5270 C   0  0  0  0  0  0  0  0  0  0  0  0
   29.8170   37.4780   11.9650 N   0  0  0  0  0  0  0  0  0  0  0  0
   29.8670   25.5550   16.9770 C   0  0  0  0  0  0  0  0  0  0  0  0
   28.3450   25.7220   17.0260 C   0  0  0  0  0  0  0  0  0  0  0  0
   27.6000   24.4080   16.8480 C   0  0  0  0  0  0  0  0  0  0  0  0
   26.5870   24.1790   17.9360 C   0  0  0  0  0  0  0  0  0  0  0  0
   25.2330   24.7240   17.4920 C   0  0  0  0  0  0  0  0  0  0  0  0
   24.4960   25.2850   18.6490 N   0  0  0  0  0  0  0  0  0  0  0  0
  2  1  1  1  0  0  0
  2  3  1  0  0  0  0
  3 23  1  6  0  0  0
  4  3  1  6  0  0  0
  4  9  1  0  0  0  0
  5 12  1  6  0  0  0
  5 10  1  0  0  0  0
  5  6  1  0  0  0  0
  6  8  1  0  0  0  0
  7  4  1  0  0  0  0
  7  5  1  0  0  0  0
  8 16  1  1  0  0  0
  9 18  1  1  0  0  0
  9  8  1  0  0  0  0
 10 11  1  0  0  0  0
 12 13  2  0  0  0  0
 14 12  1  0  0  0  0
 15 14  1  0  0  0  0
 17 16  1  0  0  0  0
 18 20  1  0  0  0  0
 18 19  1  0  0  0  0
 19 21  1  0  0  0  0
 22 19  2  0  0  0  0
 23 24  1  0  0  0  0
 25 26  1  0  0  0  0
 25  2  1  0  0  0  0
 27 28  1  0  0  0  0
 27  1  1  0  0  0  0
 28 30  2  0  0  0  0
 29 27  1  0  0  0  0
 31 28  1  0  0  0  0
 32 31  1  0  0  0  0
 33 35  1  0  0  0  0
 33 32  1  0  0  0  0
 34 33  2  0  0  0  0
 36 34  1  0  0  0  0
 36 37  1  0  0  0  0
 37 35  2  0  0  0  0
 38 36  1  0  0  0  0
 39 38  2  0  0  0  0
 40 38  1  0  0  0  0
 41 39  1  0  0  0  0
 42 40  2  0  0  0  0
 43 41  2  0  0  0  0
 43 42  1  0  0  0  0
 44 45  1  0  0  0  0
 46 45  1  0  0  0  0
 46 47  1  0  0  0  0
 48 47  1  0  0  0  0
 48 49  1  0  0  0  0
M  END
>  <REMARK>
 VINA RESULT:    -4.771      2.830      4.970
 INTER + INTRA:         -13.529
 INTER:                  -8.938
 INTRA:                  -4.591
 UNBOUND:                -5.272
 SMILES CC(=O)N[C@@H]1[C@@H](O)C[C@](O)(C(=O)O)O[C@H]1C(O)[C@H](O)CNC(=O)OCc1cn(-c2ccncc2)nn1
 SMILES IDX 20 1 18 2 16 3 15 4 9 5 8 6 14 7 6 8 5 9 10 10 11 12 12 13
 SMILES IDX 13 14 7 16 4 18 2 19 1 21 3 22 17 23 19 25 21 27 22 28 23 30
 SMILES IDX 24 31 25 32 26 33 27 34 36 35 28 36 35 37 29 38 30 39 34 40
 SMILES IDX 31 41 33 42 32 43
 H PARENT 10 11 13 15 7 17 4 20 17 24 19 26 21 29
 Flexibility Score: inf
  4 active torsions:
  status: ('A' for Active; 'I' for Inactive)
    1  A    between atoms: CA   and  CB  
    2  A    between atoms: CB   and  CG  
    3  A    between atoms: CG   and  CD  
    4  A    between atoms: CD   and  CE  

>  <TORSDO>
F 15

>  <BEGIN_>
RES LYS A 131

$$$$
ligand_56_pose_14_2HRL.pdbqt
 OpenBabel07062320523D

  6  5  0  0  0  0  0  0  0  0999 V2000
   33.1930   34.6630    9.2900 C   0  0  0  0  0  0  0  0  0  0  0  0
   32.0600   35.3600   10.0340 C   0  0  0  0  0  0  0  0  0  0  0  0
   30.8030   35.5070    9.2160 C   0  0  0  0  0  0  0  0  0  0  0  0
   30.1150   34.1620    9.0420 C   0  0  0  0  0  0  0  0  0  0  0  0
   28.6500   34.3530    8.7000 C   0  0  0  0  0  0  0  0  0  0  0  0
   27.7740   33.6630    9.6870 N   0  0  0  0  0  0  0  0  0  0  0  0
  1  2  1  0  0  0  0
  3  2  1  0  0  0  0
  4  3  1  0  0  0  0
  5  4  1  0  0  0  0
  5  6  1  0  0  0  0
M  END
>  <EGIN_R>
ES LYS A 135

>  <REMARK>
  4 active torsions:
  status: ('A' for Active; 'I' for Inactive)
    5  A    between atoms: CA   and  CB  
    6  A    between atoms: CB   and  CG  
    7  A    between atoms: CG   and  CD  
    8  A    between atoms: CD   and  CE  

$$$$
