ligand_15_pose_2_2HRL.pdbqt
 OpenBabel07062320523D

 50 51  0  0  1  0  0  0  0  0999 V2000
   26.7020   32.4640   15.8430 C   0  0  0  0  0  0  0  0  0  0  0  0
   27.7290   33.4220   15.3170 C   0  0  2  0  0  0  0  0  0  0  0  0
   28.3460   34.3190   16.3300 C   0  0  2  0  0  0  0  0  0  0  0  0
   29.8450   34.4860   16.1840 C   0  0  2  0  0  0  0  0  0  0  0  0
   31.3460   34.7820   14.4050 C   0  0  2  0  0  0  0  0  0  0  0  0
   32.3090   33.9770   15.2330 C   0  0  0  0  0  0  0  0  0  0  0  0
   30.0710   34.6170   14.8190 O   0  0  0  0  0  0  0  0  0  0  0  0
   31.5750   32.7610   15.7470 C   0  0  1  0  0  0  0  0  0  0  0  0
   30.5140   33.2600   16.7380 C   0  0  1  0  0  0  0  0  0  0  0  0
   31.4030   34.3190   13.0600 O   0  0  0  0  0  0  0  0  0  0  0  0
   30.4910   33.9730   12.8750 H   0  0  0  0  0  0  0  0  0  0  0  0
   31.6930   36.2300   14.4140 C   0  0  0  0  0  0  0  0  0  0  0  0
   31.1460   37.0710   13.6800 O   0  0  0  0  0  0  0  0  0  0  0  0
   32.6760   36.6730   15.2830 O   0  0  0  0  0  0  0  0  0  0  0  0
   33.6630   36.4420   15.1670 H   0  0  0  0  0  0  0  0  0  0  0  0
   30.8750   32.2100   14.6750 O   0  0  0  0  0  0  0  0  0  0  0  0
   31.3400   32.2960   13.8210 H   0  0  0  0  0  0  0  0  0  0  0  0
   31.2420   33.6100   17.9250 N   0  0  0  0  0  0  0  0  0  0  0  0
   30.9490   33.1070   19.2150 C   0  0  0  0  0  0  0  0  0  0  0  0
   32.0510   34.2820   17.8660 H   0  0  0  0  0  0  0  0  0  0  0  0
   31.7340   33.5040   20.4220 C   0  0  0  0  0  0  0  0  0  0  0  0
   30.0050   32.3030   19.3510 O   0  0  0  0  0  0  0  0  0  0  0  0
   28.0470   33.7990   17.6140 O   0  0  0  0  0  0  0  0  0  0  0  0
   28.8700   33.8490   18.1440 H   0  0  0  0  0  0  0  0  0  0  0  0
   27.0990   34.2170   14.3360 O   0  0  0  0  0  0  0  0  0  0  0  0
   26.3370   34.7160   14.7240 H   0  0  0  0  0  0  0  0  0  0  0  0
   27.2110   31.2460   16.3820 N   0  0  0  0  0  0  0  0  0  0  0  0
   26.5000   30.0090   16.1690 C   0  0  0  0  0  0  0  0  0  0  0  0
   28.0790   31.1390   16.9460 H   0  0  0  0  0  0  0  0  0  0  0  0
   25.4380   30.0570   15.5040 O   0  0  0  0  0  0  0  0  0  0  0  0
   26.9710   28.8100   16.6800 O   0  0  0  0  0  0  0  0  0  0  0  0
   26.3510   28.3510   17.8730 C   0  0  0  0  0  0  0  0  0  0  0  0
   27.4310   28.1950   18.8890 C   0  0  0  0  0  0  0  0  0  0  0  0
   28.3100   29.1740   19.3140 C   0  0  0  0  0  0  0  0  0  0  0  0
   27.7630   27.0930   19.5880 N   0  0  0  0  0  0  0  0  0  0  0  0
   29.1320   28.6490   20.2370 N   0  0  0  0  0  0  0  0  0  0  0  0
   28.7680   27.3950   20.3730 N   0  0  0  0  0  0  0  0  0  0  0  0
   30.1970   29.2610   20.9610 C   0  0  0  0  0  0  0  0  0  0  0  0
   31.5180   29.1350   20.5780 C   0  0  0  0  0  0  0  0  0  0  0  0
   29.9440   30.0160   22.0870 C   0  0  0  0  0  0  0  0  0  0  0  0
   32.5400   29.7360   21.2890 C   0  0  0  0  0  0  0  0  0  0  0  0
   30.9670   30.6220   22.8060 C   0  0  0  0  0  0  0  0  0  0  0  0
   32.2800   30.4920   22.4180 C   0  0  0  0  0  0  0  0  0  0  0  0
   33.7270   31.2980   23.3610 Br  0  0  0  0  0  0  0  0  0  0  0  0
   29.8670   25.5550   16.9770 C   0  0  0  0  0  0  0  0  0  0  0  0
   28.3450   25.7220   17.0260 C   0  0  0  0  0  0  0  0  0  0  0  0
   27.5990   24.4750   16.5770 C   0  0  0  0  0  0  0  0  0  0  0  0
   26.9080   23.7860   17.7210 C   0  0  0  0  0  0  0  0  0  0  0  0
   25.4050   23.7530   17.4630 C   0  0  0  0  0  0  0  0  0  0  0  0
   24.8700   22.3900   17.6890 N   0  0  0  0  0  0  0  0  0  0  0  0
  1 27  1  0  0  0  0
  2  1  1  1  0  0  0
  2  3  1  0  0  0  0
  3 23  1  1  0  0  0
  4  3  1  6  0  0  0
  4  9  1  0  0  0  0
  5 10  1  6  0  0  0
  5 12  1  0  0  0  0
  5  7  1  0  0  0  0
  5  6  1  0  0  0  0
  6  8  1  0  0  0  0
  7  4  1  0  0  0  0
  8 16  1  6  0  0  0
  8  9  1  0  0  0  0
  9 18  1  1  0  0  0
 11 10  1  0  0  0  0
 12 14  1  0  0  0  0
 13 12  2  0  0  0  0
 15 14  1  0  0  0  0
 17 16  1  0  0  0  0
 18 19  1  0  0  0  0
 19 22  2  0  0  0  0
 19 21  1  0  0  0  0
 20 18  1  0  0  0  0
 23 24  1  0  0  0  0
 25 26  1  0  0  0  0
 25  2  1  0  0  0  0
 27 29  1  0  0  0  0
 28 27  1  0  0  0  0
 28 31  1  0  0  0  0
 30 28  2  0  0  0  0
 31 32  1  0  0  0  0
 32 33  1  0  0  0  0
 33 34  2  0  0  0  0
 33 35  1  0  0  0  0
 34 36  1  0  0  0  0
 35 37  2  0  0  0  0
 36 37  1  0  0  0  0
 36 38  1  0  0  0  0
 38 40  1  0  0  0  0
 39 38  2  0  0  0  0
 39 41  1  0  0  0  0
 40 42  2  0  0  0  0
 41 43  2  0  0  0  0
 43 42  1  0  0  0  0
 43 44  1  0  0  0  0
 45 46  1  0  0  0  0
 47 46  1  0  0  0  0
 47 48  1  0  0  0  0
 49 50  1  0  0  0  0
 49 48  1  0  0  0  0
M  END
>  <REMARK>
 VINA RESULT:    -5.471      3.484      6.918
 INTER + INTRA:         -14.629
 INTER:                  -8.451
 INTRA:                  -6.178
 UNBOUND:                -5.161
 SMILES CC(=O)N[C@@H]1[C@@H](O)C[C@](O)(C(=O)O)O[C@H]1C(O)[C@H](O)CNC(=O)OCc1cn(-c2ccc(Br)cc2)nn1
 SMILES IDX 20 1 18 2 16 3 15 4 9 5 8 6 14 7 6 8 5 9 10 10 11 12 12 13
 SMILES IDX 13 14 7 16 4 18 2 19 1 21 3 22 17 23 19 25 21 27 22 28 23 30
 SMILES IDX 24 31 25 32 26 33 27 34 37 35 28 36 36 37 29 38 30 39 35 40
 SMILES IDX 31 41 34 42 32 43 33 44
 H PARENT 10 11 13 15 7 17 4 20 17 24 19 26 21 29
 Flexibility Score: inf
  4 active torsions:
  status: ('A' for Active; 'I' for Inactive)
    1  A    between atoms: CA   and  CB  
    2  A    between atoms: CB   and  CG  
    3  A    between atoms: CG   and  CD  
    4  A    between atoms: CD   and  CE  

>  <TORSDO>
F 15

>  <BEGIN_>
RES LYS A 131

$$$$
ligand_15_pose_2_2HRL.pdbqt
 OpenBabel07062320523D

  6  5  0  0  0  0  0  0  0  0999 V2000
   33.1930   34.6630    9.2900 C   0  0  0  0  0  0  0  0  0  0  0  0
   32.0600   35.3600   10.0340 C   0  0  0  0  0  0  0  0  0  0  0  0
   30.7010   34.7740    9.7480 C   0  0  0  0  0  0  0  0  0  0  0  0
   30.4320   34.7480    8.2520 C   0  0  0  0  0  0  0  0  0  0  0  0
   28.9420   34.6750    7.9800 C   0  0  0  0  0  0  0  0  0  0  0  0
   28.2160   34.0670    9.1290 N   0  0  0  0  0  0  0  0  0  0  0  0
  1  2  1  0  0  0  0
  3  2  1  0  0  0  0
  4  3  1  0  0  0  0
  5  4  1  0  0  0  0
  5  6  1  0  0  0  0
M  END
>  <EGIN_R>
ES LYS A 135

>  <REMARK>
  4 active torsions:
  status: ('A' for Active; 'I' for Inactive)
    5  A    between atoms: CA   and  CB  
    6  A    between atoms: CB   and  CG  
    7  A    between atoms: CG   and  CD  
    8  A    between atoms: CD   and  CE  

$$$$
