ligand_20_pose_12_2HRL.pdbqt
 OpenBabel07062320523D

 53 55  0  0  1  0  0  0  0  0999 V2000
   28.0940   31.8080   15.6570 C   0  0  0  0  0  0  0  0  0  0  0  0
   29.4890   32.1040   15.9970 C   0  0  2  0  0  0  0  0  0  0  0  0
   30.2080   32.7930   14.8160 C   0  0  1  0  0  0  0  0  0  0  0  0
   30.3870   34.2360   14.9970 C   0  0  2  0  0  0  0  0  0  0  0  0
   29.8380   35.2400   12.9570 C   0  0  2  0  0  0  0  0  0  0  0  0
   31.2420   34.9170   12.5300 C   0  0  0  0  0  0  0  0  0  0  0  0
   29.5910   35.0880   14.2900 O   0  0  0  0  0  0  0  0  0  0  0  0
   32.2640   35.1600   13.5840 C   0  0  1  0  0  0  0  0  0  0  0  0
   31.8650   34.6420   14.9290 C   0  0  1  0  0  0  0  0  0  0  0  0
   28.9440   34.4670   12.2190 O   0  0  0  0  0  0  0  0  0  0  0  0
   29.4030   33.7790   11.6770 H   0  0  0  0  0  0  0  0  0  0  0  0
   29.6000   36.6620   12.6150 C   0  0  0  0  0  0  0  0  0  0  0  0
   28.8870   36.9570   11.6430 O   0  0  0  0  0  0  0  0  0  0  0  0
   30.1730   37.6560   13.3800 O   0  0  0  0  0  0  0  0  0  0  0  0
   31.1800   37.6960   13.5910 H   0  0  0  0  0  0  0  0  0  0  0  0
   33.4740   34.5850   13.1530 O   0  0  0  0  0  0  0  0  0  0  0  0
   33.2340   34.0130   12.3850 H   0  0  0  0  0  0  0  0  0  0  0  0
   32.2320   35.5220   16.0070 N   0  0  0  0  0  0  0  0  0  0  0  0
   32.2560   35.0980   17.3630 C   0  0  0  0  0  0  0  0  0  0  0  0
   32.4970   36.5320   15.7990 H   0  0  0  0  0  0  0  0  0  0  0  0
   32.6390   36.0390   18.4320 C   0  0  0  0  0  0  0  0  0  0  0  0
   31.9460   33.9080   17.6260 O   0  0  0  0  0  0  0  0  0  0  0  0
   31.5220   32.2150   14.9410 O   0  0  0  0  0  0  0  0  0  0  0  0
   32.0050   32.2860   14.0860 H   0  0  0  0  0  0  0  0  0  0  0  0
   30.1370   30.8120   16.0760 O   0  0  0  0  0  0  0  0  0  0  0  0
   29.4630   30.1040   15.8800 H   0  0  0  0  0  0  0  0  0  0  0  0
   27.2930   32.9120   15.2060 N   0  0  0  0  0  0  0  0  0  0  0  0
   26.5760   33.7410   16.1080 C   0  0  0  0  0  0  0  0  0  0  0  0
   27.2600   33.1610   14.2050 H   0  0  0  0  0  0  0  0  0  0  0  0
   26.6550   33.4880   17.3380 O   0  0  0  0  0  0  0  0  0  0  0  0
   25.7990   34.8050   15.7140 O   0  0  0  0  0  0  0  0  0  0  0  0
   26.2330   35.8480   14.8620 C   0  0  0  0  0  0  0  0  0  0  0  0
   25.8060   35.5010   13.4640 C   0  0  0  0  0  0  0  0  0  0  0  0
   24.8930   36.1510   12.6630 C   0  0  0  0  0  0  0  0  0  0  0  0
   26.2510   34.4560   12.7120 N   0  0  0  0  0  0  0  0  0  0  0  0
   24.8380   35.4680   11.4830 N   0  0  0  0  0  0  0  0  0  0  0  0
   25.6720   34.4460   11.5420 N   0  0  0  0  0  0  0  0  0  0  0  0
   24.0100   35.8220   10.3880 C   0  0  0  0  0  0  0  0  0  0  0  0
   24.5160   36.6290    9.3870 C   0  0  0  0  0  0  0  0  0  0  0  0
   22.7030   35.4000   10.2570 C   0  0  0  0  0  0  0  0  0  0  0  0
   23.7580   37.0060    8.2980 C   0  0  0  0  0  0  0  0  0  0  0  0
   21.9350   35.7600    9.1880 C   0  0  0  0  0  0  0  0  0  0  0  0
   22.4480   36.5740    8.1790 C   0  0  0  0  0  0  0  0  0  0  0  0
   20.6400   35.4930    8.8110 C   0  0  0  0  0  0  0  0  0  0  0  0
   21.4880   36.7680    7.2620 N   0  0  0  0  0  0  0  0  0  0  0  0
   20.4010   36.1270    7.6270 N   0  0  0  0  0  0  0  0  0  0  0  0
   21.5970   37.3360    6.4010 H   0  0  0  0  0  0  0  0  0  0  0  0
   29.8670   25.5550   16.9770 C   0  0  0  0  0  0  0  0  0  0  0  0
   28.3450   25.7220   17.0260 C   0  0  0  0  0  0  0  0  0  0  0  0
   27.6010   24.4010   16.8990 C   0  0  0  0  0  0  0  0  0  0  0  0
   26.1430   24.5370   17.2400 C   0  0  0  0  0  0  0  0  0  0  0  0
   25.9700   24.5070   18.7550 C   0  0  0  0  0  0  0  0  0  0  0  0
   24.5340   24.5710   19.1140 N   0  0  0  0  0  0  0  0  0  0  0  0
  2  1  1  6  0  0  0
  2 25  1  0  0  0  0
  3 23  1  1  0  0  0
  3  2  1  0  0  0  0
  4  3  1  6  0  0  0
  5 10  1  6  0  0  0
  5  7  1  0  0  0  0
  6  5  1  0  0  0  0
  6  8  1  0  0  0  0
  7  4  1  0  0  0  0
  8 16  1  6  0  0  0
  8  9  1  0  0  0  0
  9  4  1  0  0  0  0
  9 18  1  1  0  0  0
 11 10  1  0  0  0  0
 12  5  1  0  0  0  0
 12 14  1  0  0  0  0
 13 12  2  0  0  0  0
 14 15  1  0  0  0  0
 17 16  1  0  0  0  0
 18 19  1  0  0  0  0
 19 22  2  0  0  0  0
 19 21  1  0  0  0  0
 20 18  1  0  0  0  0
 24 23  1  0  0  0  0
 26 25  1  0  0  0  0
 27  1  1  0  0  0  0
 27 28  1  0  0  0  0
 28 30  2  0  0  0  0
 29 27  1  0  0  0  0
 31 28  1  0  0  0  0
 32 31  1  0  0  0  0
 33 32  1  0  0  0  0
 34 33  2  0  0  0  0
 35 33  1  0  0  0  0
 36 37  1  0  0  0  0
 36 34  1  0  0  0  0
 37 35  2  0  0  0  0
 38 36  1  0  0  0  0
 39 38  2  0  0  0  0
 40 38  1  0  0  0  0
 41 39  1  0  0  0  0
 42 40  2  0  0  0  0
 43 41  2  0  0  0  0
 43 42  1  0  0  0  0
 44 42  1  0  0  0  0
 45 46  1  0  0  0  0
 45 43  1  0  0  0  0
 46 44  2  0  0  0  0
 47 45  1  0  0  0  0
 48 49  1  0  0  0  0
 50 49  1  0  0  0  0
 50 51  1  0  0  0  0
 51 52  1  0  0  0  0
 52 53  1  0  0  0  0
M  END
>  <REMARK>
 VINA RESULT:    -4.624      1.593      2.077
 INTER + INTRA:         -14.492
 INTER:                  -9.381
 INTRA:                  -5.111
 UNBOUND:                -6.490
 SMILES CC(=O)N[C@@H]1[C@@H](O)C[C@](O)(C(=O)O)O[C@H]1C(O)[C@H](O)CNC(=O)OCc1cn(-c2ccc3[nH]ncc3c2)nn1
 SMILES IDX 20 1 18 2 16 3 15 4 9 5 8 6 14 7 6 8 5 9 10 10 11 12 12 13
 SMILES IDX 13 14 7 16 4 18 2 19 1 21 3 22 17 23 19 25 21 27 22 28 23 30
 SMILES IDX 24 31 25 32 26 33 27 34 39 35 28 36 38 37 29 38 30 39 37 40
 SMILES IDX 31 41 36 42 32 43 35 44 33 45 34 46
 H PARENT 10 11 13 15 7 17 4 20 17 24 19 26 21 29 33 47
 Flexibility Score: inf
  4 active torsions:
  status: ('A' for Active; 'I' for Inactive)
    1  A    between atoms: CA   and  CB  
    2  A    between atoms: CB   and  CG  
    3  A    between atoms: CG   and  CD  
    4  A    between atoms: CD   and  CE  

>  <TORSDO>
F 15

>  <BEGIN_>
RES LYS A 131

$$$$
ligand_20_pose_12_2HRL.pdbqt
 OpenBabel07062320523D

  6  5  0  0  0  0  0  0  0  0999 V2000
   33.1930   34.6630    9.2900 C   0  0  0  0  0  0  0  0  0  0  0  0
   32.0600   35.3600   10.0340 C   0  0  0  0  0  0  0  0  0  0  0  0
   30.8520   35.6310    9.1750 C   0  0  0  0  0  0  0  0  0  0  0  0
   30.1210   34.3370    8.8530 C   0  0  0  0  0  0  0  0  0  0  0  0
   28.8780   34.6180    8.0300 C   0  0  0  0  0  0  0  0  0  0  0  0
   27.7640   35.1050    8.8900 N   0  0  0  0  0  0  0  0  0  0  0  0
  1  2  1  0  0  0  0
  3  2  1  0  0  0  0
  4  3  1  0  0  0  0
  5  4  1  0  0  0  0
  5  6  1  0  0  0  0
M  END
>  <EGIN_R>
ES LYS A 135

>  <REMARK>
  4 active torsions:
  status: ('A' for Active; 'I' for Inactive)
    5  A    between atoms: CA   and  CB  
    6  A    between atoms: CB   and  CG  
    7  A    between atoms: CG   and  CD  
    8  A    between atoms: CD   and  CE  

$$$$
