ligand_82_pose_7_2HRL.pdbqt
 OpenBabel07062320523D

 53 55  0  0  1  0  0  0  0  0999 V2000
   24.7720   35.6510   15.9770 N   0  0  0  0  0  0  0  0  0  0  0  0
   25.0830   37.0280   15.7030 C   0  0  0  0  0  0  0  0  0  0  0  0
   25.4930   37.7500   16.6470 O   0  0  0  0  0  0  0  0  0  0  0  0
   24.4330   35.0490   15.1990 H   0  0  0  0  0  0  0  0  0  0  0  0
   24.9350   35.1320   17.3190 C   0  0  0  0  0  0  0  0  0  0  0  0
   25.5330   33.7580   17.2190 C   0  0  2  0  0  0  0  0  0  0  0  0
   26.7690   33.7310   16.3470 C   0  0  1  0  0  0  0  0  0  0  0  0
   27.7000   32.6880   16.9210 C   0  0  2  0  0  0  0  0  0  0  0  0
   29.7880   33.1490   16.0310 C   0  0  2  0  0  0  0  0  0  0  0  0
   29.9010   31.8110   15.3370 C   0  0  0  0  0  0  0  0  0  0  0  0
   28.9730   33.1280   17.1360 O   0  0  0  0  0  0  0  0  0  0  0  0
   29.0180   30.8310   16.0680 C   0  0  1  0  0  0  0  0  0  0  0  0
   27.6240   31.4240   16.0970 C   0  0  1  0  0  0  0  0  0  0  0  0
   29.4140   34.1250   15.1020 O   0  0  0  0  0  0  0  0  0  0  0  0
   29.0290   33.6280   14.3290 H   0  0  0  0  0  0  0  0  0  0  0  0
   31.1600   33.5080   16.4950 C   0  0  0  0  0  0  0  0  0  0  0  0
   32.1160   33.5320   15.6470 O   0  0  0  0  0  0  0  0  0  0  0  0
   31.4500   33.8180   17.8070 O   0  0  0  0  0  0  0  0  0  0  0  0
   31.0940   33.2620   18.5800 H   0  0  0  0  0  0  0  0  0  0  0  0
   28.9580   29.6030   15.4390 O   0  0  0  0  0  0  0  0  0  0  0  0
   29.0920   28.9070   16.1320 H   0  0  0  0  0  0  0  0  0  0  0  0
   26.6550   30.4830   16.5970 N   0  0  0  0  0  0  0  0  0  0  0  0
   25.5190   30.1050   15.8360 C   0  0  0  0  0  0  0  0  0  0  0  0
   26.8090   30.0780   17.5460 H   0  0  0  0  0  0  0  0  0  0  0  0
   24.5680   29.1260   16.4300 C   0  0  0  0  0  0  0  0  0  0  0  0
   25.3280   30.5880   14.6920 O   0  0  0  0  0  0  0  0  0  0  0  0
   26.4500   33.3450   15.0480 O   0  0  0  0  0  0  0  0  0  0  0  0
   26.4190   32.3810   14.9270 H   0  0  0  0  0  0  0  0  0  0  0  0
   24.5540   32.9360   16.6200 O   0  0  0  0  0  0  0  0  0  0  0  0
   23.7560   32.8630   17.2150 H   0  0  0  0  0  0  0  0  0  0  0  0
   24.9540   37.5870   14.4610 O   0  0  0  0  0  0  0  0  0  0  0  0
   26.0460   37.9130   13.6200 C   0  0  0  0  0  0  0  0  0  0  0  0
   26.6010   36.6890   13.0070 C   0  0  0  0  0  0  0  0  0  0  0  0
   26.3240   36.1400   11.7770 C   0  0  0  0  0  0  0  0  0  0  0  0
   27.5060   35.8780   13.5760 N   0  0  0  0  0  0  0  0  0  0  0  0
   27.0660   35.0040   11.6200 N   0  0  0  0  0  0  0  0  0  0  0  0
   27.7720   34.8770   12.7340 N   0  0  0  0  0  0  0  0  0  0  0  0
   27.0430   34.1550   10.4540 C   0  0  0  0  0  0  0  0  0  0  0  0
   27.9720   34.6740    9.3890 C   0  0  0  0  0  0  0  0  0  0  0  0
   29.2050   34.1950    9.2550 C   0  0  0  0  0  0  0  0  0  0  0  0
   27.5460   35.7340    8.4540 C   0  0  2  0  0  0  0  0  0  0  0  0
   29.9850   34.5650    8.0430 C   0  0  0  0  0  0  0  0  0  0  0  0
   27.8200   35.1910    7.0440 C   0  0  0  0  0  0  0  0  0  0  0  0
   28.7020   36.6850    8.2180 C   0  0  0  0  0  0  0  0  0  0  0  0
   29.2620   35.6190    7.2630 C   0  0  1  0  0  0  0  0  0  0  0  0
   28.3300   37.9180    7.4440 C   0  0  0  0  0  0  0  0  0  0  0  0
   29.5600   36.9780    9.4020 C   0  0  0  0  0  0  0  0  0  0  0  0
   29.8670   25.5550   16.9770 C   0  0  0  0  0  0  0  0  0  0  0  0
   28.3450   25.7220   17.0260 C   0  0  0  0  0  0  0  0  0  0  0  0
   27.6010   24.4020   16.8900 C   0  0  0  0  0  0  0  0  0  0  0  0
   26.5230   24.2500   17.9270 C   0  0  0  0  0  0  0  0  0  0  0  0
   25.1770   24.0550   17.2360 C   0  0  0  0  0  0  0  0  0  0  0  0
   24.3970   25.3160   17.2530 N   0  0  0  0  0  0  0  0  0  0  0  0
  1  5  1  0  0  0  0
  2  1  1  0  0  0  0
  2  3  2  0  0  0  0
  4  1  1  0  0  0  0
  6  5  1  6  0  0  0
  7 27  1  6  0  0  0
  7  6  1  0  0  0  0
  8  7  1  6  0  0  0
  8 11  1  0  0  0  0
  9 14  1  6  0  0  0
  9 16  1  0  0  0  0
  9 11  1  0  0  0  0
 10  9  1  0  0  0  0
 10 12  1  0  0  0  0
 12 20  1  6  0  0  0
 12 13  1  0  0  0  0
 13 22  1  1  0  0  0
 13  8  1  0  0  0  0
 15 14  1  0  0  0  0
 16 18  1  0  0  0  0
 17 16  2  0  0  0  0
 18 19  1  0  0  0  0
 20 21  1  0  0  0  0
 22 24  1  0  0  0  0
 23 25  1  0  0  0  0
 23 22  1  0  0  0  0
 26 23  2  0  0  0  0
 28 27  1  0  0  0  0
 29 30  1  0  0  0  0
 29  6  1  0  0  0  0
 31  2  1  0  0  0  0
 32 31  1  0  0  0  0
 33 35  1  0  0  0  0
 33 32  1  0  0  0  0
 34 33  2  0  0  0  0
 36 34  1  0  0  0  0
 36 37  1  0  0  0  0
 37 35  2  0  0  0  0
 38 36  1  0  0  0  0
 39 38  1  0  0  0  0
 40 39  2  0  0  0  0
 41 43  1  6  0  0  0
 41 39  1  0  0  0  0
 42 40  1  0  0  0  0
 44 41  1  0  0  0  0
 44 47  1  0  0  0  0
 45 43  1  1  0  0  0
 45 42  1  0  0  0  0
 45 44  1  0  0  0  0
 46 44  1  0  0  0  0
 48 49  1  0  0  0  0
 50 49  1  0  0  0  0
 50 51  1  0  0  0  0
 52 53  1  0  0  0  0
 52 51  1  0  0  0  0
M  END
>  <REMARK>
 VINA RESULT:    -5.576      4.111      7.110
 INTER + INTRA:         -15.314
 INTER:                  -9.776
 INTRA:                  -5.538
 UNBOUND:                -5.337
 SMILES CC(=O)N[C@@H]1[C@@H](O)C[C@](O)(C(=O)O)O[C@H]1C(O)[C@H](O)CNC(=O)OCc1cn(CC2=CC[C@H]3C[C@@H]2C3(C)C)nn1
 SMILES IDX 21 1 22 2 23 3 20 5 18 6 16 7 15 8 9 9 8 10 14 11 6 12 5 13
 SMILES IDX 10 14 11 16 12 17 13 18 7 20 4 22 2 23 1 25 3 26 17 27 19 29
 SMILES IDX 24 31 25 32 26 33 27 34 40 35 28 36 39 37 29 38 30 39 31 40
 SMILES IDX 35 41 32 42 34 43 36 44 33 45 37 46 38 47
 H PARENT 21 4 10 15 13 19 7 21 4 24 17 28 19 30
 Flexibility Score: inf
  4 active torsions:
  status: ('A' for Active; 'I' for Inactive)
    1  A    between atoms: CA   and  CB  
    2  A    between atoms: CB   and  CG  
    3  A    between atoms: CG   and  CD  
    4  A    between atoms: CD   and  CE  

>  <TORSDO>
F 16

>  <BEGIN_>
RES LYS A 131

$$$$
ligand_82_pose_7_2HRL.pdbqt
 OpenBabel07062320523D

  6  5  0  0  0  0  0  0  0  0999 V2000
   33.1930   34.6630    9.2900 C   0  0  0  0  0  0  0  0  0  0  0  0
   32.0600   35.3600   10.0340 C   0  0  0  0  0  0  0  0  0  0  0  0
   32.4700   35.9130   11.3740 C   0  0  0  0  0  0  0  0  0  0  0  0
   31.4890   35.4850   12.4550 C   0  0  0  0  0  0  0  0  0  0  0  0
   31.0360   36.6830   13.2680 C   0  0  0  0  0  0  0  0  0  0  0  0
   31.8200   36.8020   14.5290 N   0  0  0  0  0  0  0  0  0  0  0  0
  1  2  1  0  0  0  0
  2  3  1  0  0  0  0
  3  4  1  0  0  0  0
  4  5  1  0  0  0  0
  5  6  1  0  0  0  0
M  END
>  <EGIN_R>
ES LYS A 135

>  <REMARK>
  4 active torsions:
  status: ('A' for Active; 'I' for Inactive)
    5  A    between atoms: CA   and  CB  
    6  A    between atoms: CB   and  CG  
    7  A    between atoms: CG   and  CD  
    8  A    between atoms: CD   and  CE  

$$$$
