ligand_30_pose_13_2HRL.pdbqt
 OpenBabel07062320523D

 57 57  0  0  1  0  0  0  0  0999 V2000
   27.5490   37.2440   14.5460 C   0  0  0  0  0  0  0  0  0  0  0  0
   28.3830   36.6580   15.5590 N   0  0  0  0  0  0  0  0  0  0  0  0
   30.0460   36.0370   16.8490 C   0  0  0  0  0  0  0  0  0  0  0  0
   29.7260   36.7930   15.7540 C   0  0  0  0  0  0  0  0  0  0  0  0
   28.9050   35.4660   17.2930 N   0  0  0  0  0  0  0  0  0  0  0  0
   27.9390   35.8560   16.5060 N   0  0  0  0  0  0  0  0  0  0  0  0
   31.4030   35.8930   17.4170 C   0  0  0  0  0  0  0  0  0  0  0  0
   32.1650   34.9760   16.6610 O   0  0  0  0  0  0  0  0  0  0  0  0
   31.6100   33.7790   16.2300 C   0  0  0  0  0  0  0  0  0  0  0  0
   30.7670   33.0020   17.0690 N   0  0  0  0  0  0  0  0  0  0  0  0
   30.5490   33.3210   18.0380 H   0  0  0  0  0  0  0  0  0  0  0  0
   31.8760   33.3840   15.0430 O   0  0  0  0  0  0  0  0  0  0  0  0
   30.2160   31.7760   16.5850 C   0  0  0  0  0  0  0  0  0  0  0  0
   28.7320   31.8740   16.3040 C   0  0  2  0  0  0  0  0  0  0  0  0
   28.2750   30.6760   15.5300 C   0  0  2  0  0  0  0  0  0  0  0  0
   26.8230   30.3820   15.8410 C   0  0  2  0  0  0  0  0  0  0  0  0
   24.6840   31.0510   15.2520 C   0  0  2  0  0  0  0  0  0  0  0  0
   24.3270   30.4790   16.6060 C   0  0  0  0  0  0  0  0  0  0  0  0
   26.0490   31.2330   15.0980 O   0  0  0  0  0  0  0  0  0  0  0  0
   25.2490   31.0820   17.6290 C   0  0  1  0  0  0  0  0  0  0  0  0
   26.6450   30.5160   17.3320 C   0  0  1  0  0  0  0  0  0  0  0  0
   24.0950   32.3100   15.1830 O   0  0  0  0  0  0  0  0  0  0  0  0
   23.7870   32.6100   16.0680 H   0  0  0  0  0  0  0  0  0  0  0  0
   24.0910   30.1880   14.2300 C   0  0  0  0  0  0  0  0  0  0  0  0
   23.5440   29.1130   14.5740 O   0  0  0  0  0  0  0  0  0  0  0  0
   24.0880   30.4790   12.8720 O   0  0  0  0  0  0  0  0  0  0  0  0
   23.2440   30.2510   12.3230 H   0  0  0  0  0  0  0  0  0  0  0  0
   25.2270   32.4590   17.5720 O   0  0  0  0  0  0  0  0  0  0  0  0
   25.0960   32.7250   16.6280 H   0  0  0  0  0  0  0  0  0  0  0  0
   26.6870   29.2250   17.9840 N   0  0  0  0  0  0  0  0  0  0  0  0
   27.7560   28.9520   18.8710 C   0  0  0  0  0  0  0  0  0  0  0  0
   25.9540   28.4920   17.8190 H   0  0  0  0  0  0  0  0  0  0  0  0
   27.8360   27.6290   19.5640 C   0  0  0  0  0  0  0  0  0  0  0  0
   28.6330   29.8120   19.0780 O   0  0  0  0  0  0  0  0  0  0  0  0
   29.1110   29.6050   15.8620 O   0  0  0  0  0  0  0  0  0  0  0  0
   29.6920   29.3260   15.1330 H   0  0  0  0  0  0  0  0  0  0  0  0
   28.4280   33.0130   15.5580 O   0  0  0  0  0  0  0  0  0  0  0  0
   29.1410   33.2270   14.9280 H   0  0  0  0  0  0  0  0  0  0  0  0
   28.0820   36.8640   13.1910 C   0  0  0  0  0  0  0  0  0  0  0  0
   27.7640   35.4450   12.8140 C   0  0  0  0  0  0  0  0  0  0  0  0
   28.4130   35.0330   11.5160 C   0  0  0  0  0  0  0  0  0  0  0  0
   27.3790   34.3610   10.6180 C   0  0  0  0  0  0  0  0  0  0  0  0
   28.0810   33.7850    9.4160 C   0  0  0  0  0  0  0  0  0  0  0  0
   29.5230   34.1990    9.3660 C   0  0  0  0  0  0  0  0  0  0  0  0
   29.8660   34.7530    8.0240 C   0  0  0  0  0  0  0  0  0  0  0  0
   28.9150   35.8830    7.6370 C   0  0  0  0  0  0  0  0  0  0  0  0
   28.3080   35.6720    6.2760 C   0  0  0  0  0  0  0  0  0  0  0  0
   28.2410   37.0190    5.6280 C   0  0  0  0  0  0  0  0  0  0  0  0
   29.2420   37.7400    5.4360 O   0  0  0  0  0  0  0  0  0  0  0  0
   27.0020   37.5090    5.2100 O   0  0  0  0  0  0  0  0  0  0  0  0
   26.9700   38.3650    4.6830 H   0  0  0  0  0  0  0  0  0  0  0  0
   29.8670   25.5550   16.9770 C   0  0  0  0  0  0  0  0  0  0  0  0
   28.3450   25.7220   17.0260 C   0  0  0  0  0  0  0  0  0  0  0  0
   27.6010   24.4020   16.8950 C   0  0  0  0  0  0  0  0  0  0  0  0
   26.6290   24.1850   18.0210 C   0  0  0  0  0  0  0  0  0  0  0  0
   25.3590   23.5380   17.4800 C   0  0  0  0  0  0  0  0  0  0  0  0
   24.4720   24.5600   16.8760 N   0  0  0  0  0  0  0  0  0  0  0  0
  1  2  1  0  0  0  0
  2  4  1  0  0  0  0
  2  6  1  0  0  0  0
  3  5  1  0  0  0  0
  3  7  1  0  0  0  0
  4  3  2  0  0  0  0
  6  5  2  0  0  0  0
  8  7  1  0  0  0  0
  9  8  1  0  0  0  0
  9 10  1  0  0  0  0
 10 11  1  0  0  0  0
 12  9  2  0  0  0  0
 13 10  1  0  0  0  0
 14 13  1  6  0  0  0
 15 35  1  1  0  0  0
 15 14  1  0  0  0  0
 16 15  1  1  0  0  0
 16 21  1  0  0  0  0
 17 24  1  6  0  0  0
 17 18  1  0  0  0  0
 18 20  1  0  0  0  0
 19 17  1  0  0  0  0
 19 16  1  0  0  0  0
 20 28  1  6  0  0  0
 21 20  1  0  0  0  0
 21 30  1  1  0  0  0
 22 17  1  0  0  0  0
 22 23  1  0  0  0  0
 24 25  2  0  0  0  0
 26 24  1  0  0  0  0
 27 26  1  0  0  0  0
 29 28  1  0  0  0  0
 30 31  1  0  0  0  0
 31 34  2  0  0  0  0
 31 33  1  0  0  0  0
 32 30  1  0  0  0  0
 36 35  1  0  0  0  0
 37 14  1  0  0  0  0
 38 37  1  0  0  0  0
 39  1  1  0  0  0  0
 40 39  1  0  0  0  0
 41 40  1  0  0  0  0
 42 41  1  0  0  0  0
 43 42  1  0  0  0  0
 44 43  1  0  0  0  0
 45 44  1  0  0  0  0
 46 45  1  0  0  0  0
 47 46  1  0  0  0  0
 48 47  1  0  0  0  0
 49 48  2  0  0  0  0
 50 48  1  0  0  0  0
 51 50  1  0  0  0  0
 52 53  1  0  0  0  0
 54 53  1  0  0  0  0
 54 55  1  0  0  0  0
 56 55  1  0  0  0  0
 57 56  1  0  0  0  0
M  END
>  <REMARK>
 VINA RESULT:    -3.691      3.117      6.573
 INTER + INTRA:         -16.952
 INTER:                 -11.487
 INTRA:                  -5.465
 UNBOUND:                -8.298
 SMILES CC(=O)N[C@@H]1[C@@H](O)C[C@](O)(C(=O)O)O[C@H]1C(O)[C@H](O)CNC(=O)OCc1cn(CCCCCCCCCCC(=O)O)nn1
 SMILES IDX 29 1 28 2 26 3 27 4 43 5 42 6 25 7 24 8 22 9 21 10 23 12
 SMILES IDX 20 13 18 14 16 15 15 16 9 17 8 18 14 19 6 20 5 21 10 22
 SMILES IDX 11 24 12 25 13 26 7 28 4 30 2 31 1 33 3 34 17 35 19 37 30 39
 SMILES IDX 31 40 32 41 33 42 34 43 35 44 36 45 37 46 38 47 39 48 40 49
 SMILES IDX 41 50
 H PARENT 21 11 10 23 13 27 7 29 4 32 17 36 19 38 41 51
 Flexibility Score: inf
  4 active torsions:
  status: ('A' for Active; 'I' for Inactive)
    1  A    between atoms: CA   and  CB  
    2  A    between atoms: CB   and  CG  
    3  A    between atoms: CG   and  CD  
    4  A    between atoms: CD   and  CE  

>  <TORSDO>
F 26

>  <BEGIN_>
RES LYS A 131

$$$$
ligand_30_pose_13_2HRL.pdbqt
 OpenBabel07062320523D

  6  5  0  0  0  0  0  0  0  0999 V2000
   33.1930   34.6630    9.2900 C   0  0  0  0  0  0  0  0  0  0  0  0
   32.0600   35.3600   10.0340 C   0  0  0  0  0  0  0  0  0  0  0  0
   32.2480   35.3880   11.5290 C   0  0  0  0  0  0  0  0  0  0  0  0
   32.2670   36.8190   12.0410 C   0  0  0  0  0  0  0  0  0  0  0  0
   31.8880   37.7860   10.9350 C   0  0  0  0  0  0  0  0  0  0  0  0
   30.6170   38.4940   11.2540 N   0  0  0  0  0  0  0  0  0  0  0  0
  1  2  1  0  0  0  0
  2  3  1  0  0  0  0
  3  4  1  0  0  0  0
  5  6  1  0  0  0  0
  5  4  1  0  0  0  0
M  END
>  <EGIN_R>
ES LYS A 135

>  <REMARK>
  4 active torsions:
  status: ('A' for Active; 'I' for Inactive)
    5  A    between atoms: CA   and  CB  
    6  A    between atoms: CB   and  CG  
    7  A    between atoms: CG   and  CD  
    8  A    between atoms: CD   and  CE  

$$$$
