ligand_80_pose_15_2HRL.pdbqt
 OpenBabel07062320523D

 56 54  0  0  1  0  0  0  0  0999 V2000
   31.1990   40.6430   12.3180 O   0  0  0  0  0  0  0  0  0  0  0  0
   31.2690   40.6110   10.9460 C   0  0  0  0  0  0  0  0  0  0  0  0
   31.6350   39.3990   10.2730 N   0  0  0  0  0  0  0  0  0  0  0  0
   31.8350   38.5740   10.8860 H   0  0  0  0  0  0  0  0  0  0  0  0
   31.0200   41.6200   10.2390 O   0  0  0  0  0  0  0  0  0  0  0  0
   31.7230   39.3220    8.8260 C   0  0  0  0  0  0  0  0  0  0  0  0
   30.6990   38.3250    8.3410 C   0  0  2  0  0  0  0  0  0  0  0  0
   29.3210   38.5870    8.9090 C   0  0  2  0  0  0  0  0  0  0  0  0
   28.2860   37.6550    8.2590 C   0  0  2  0  0  0  0  0  0  0  0  0
   28.0200   35.3310    8.0820 C   0  0  2  0  0  0  0  0  0  0  0  0
   27.4080   35.6070    6.7440 C   0  0  0  0  0  0  0  0  0  0  0  0
   28.4810   36.4260    8.7600 O   0  0  0  0  0  0  0  0  0  0  0  0
   28.3760   36.5270    6.0180 C   0  0  1  0  0  0  0  0  0  0  0  0
   28.4260   37.8260    6.7820 C   0  0  1  0  0  0  0  0  0  0  0  0
   29.1440   34.5010    7.8840 O   0  0  0  0  0  0  0  0  0  0  0  0
   29.8900   35.1240    7.6830 H   0  0  0  0  0  0  0  0  0  0  0  0
   27.0990   34.5940    8.9840 C   0  0  0  0  0  0  0  0  0  0  0  0
   25.8720   34.8230    8.9250 O   0  0  0  0  0  0  0  0  0  0  0  0
   27.5530   33.6500    9.9010 O   0  0  0  0  0  0  0  0  0  0  0  0
   28.4560   33.8550   10.3530 H   0  0  0  0  0  0  0  0  0  0  0  0
   29.6300   35.9280    6.0720 O   0  0  0  0  0  0  0  0  0  0  0  0
   29.6870   35.4310    6.9230 H   0  0  0  0  0  0  0  0  0  0  0  0
   27.3080   38.6290    6.3200 N   0  0  0  0  0  0  0  0  0  0  0  0
   27.4590   39.8480    5.6070 C   0  0  0  0  0  0  0  0  0  0  0  0
   26.3190   38.2900    6.5230 H   0  0  0  0  0  0  0  0  0  0  0  0
   26.2410   40.5800    5.1880 C   0  0  0  0  0  0  0  0  0  0  0  0
   28.6240   40.2580    5.3610 O   0  0  0  0  0  0  0  0  0  0  0  0
   28.9920   39.9010    8.5580 O   0  0  0  0  0  0  0  0  0  0  0  0
   28.7460   40.0020    7.6140 H   0  0  0  0  0  0  0  0  0  0  0  0
   31.1000   37.0200    8.6020 O   0  0  0  0  0  0  0  0  0  0  0  0
   31.9960   36.9700    8.9950 H   0  0  0  0  0  0  0  0  0  0  0  0
   30.0100   41.0090   12.9970 C   0  0  0  0  0  0  0  0  0  0  0  0
   29.1180   39.8380   13.1880 C   0  0  0  0  0  0  0  0  0  0  0  0
   28.4380   39.1840   12.1540 C   0  0  0  0  0  0  0  0  0  0  0  0
   28.7710   39.1770   14.3070 N   0  0  0  0  0  0  0  0  0  0  0  0
   27.7210   38.1760   12.6760 N   0  0  0  0  0  0  0  0  0  0  0  0
   27.9450   38.2010   13.9710 N   0  0  0  0  0  0  0  0  0  0  0  0
   26.8670   37.2550   11.9570 *   0  0  0  0  0  0  0  0  0  0  0  0
   27.2400   35.8400   12.2340 C   0  0  0  0  0  0  0  0  0  0  0  0
   26.4680   34.7000   12.5640 N   0  0  0  0  0  0  0  0  0  0  0  0
   28.4790   35.6520   12.1530 O   0  0  0  0  0  0  0  0  0  0  0  0
   26.9470   33.8660   12.9660 H   0  0  0  0  0  0  0  0  0  0  0  0
   25.0470   34.5360   12.4100 C   0  0  0  0  0  0  0  0  0  0  0  0
   24.1540   35.4470   11.8770 C   0  0  0  0  0  0  0  0  0  0  0  0
   24.6450   33.2990   12.8760 C   0  0  0  0  0  0  0  0  0  0  0  0
   22.8390   35.1030   11.8140 C   0  0  0  0  0  0  0  0  0  0  0  0
   23.3120   32.9540   12.8110 C   0  0  0  0  0  0  0  0  0  0  0  0
   22.4240   33.8620   12.2800 C   0  0  0  0  0  0  0  0  0  0  0  0
   24.4730   36.8000   11.3470 C   0  0  0  0  0  0  0  0  0  0  0  0
   25.4110   37.5710   12.2610 *   0  0  0  0  0  0  0  0  0  0  0  0
   29.8670   25.5550   16.9770 C   0  0  0  0  0  0  0  0  0  0  0  0
   28.3450   25.7220   17.0260 C   0  0  0  0  0  0  0  0  0  0  0  0
   27.6020   24.3980   16.9280 C   0  0  0  0  0  0  0  0  0  0  0  0
   26.5280   24.2730   17.9730 C   0  0  0  0  0  0  0  0  0  0  0  0
   25.1590   24.3930   17.3130 C   0  0  0  0  0  0  0  0  0  0  0  0
   24.3200   23.2150   17.6400 N   0  0  0  0  0  0  0  0  0  0  0  0
  1 32  1  0  0  0  0
  2  1  1  0  0  0  0
  3  4  1  0  0  0  0
  3  2  1  0  0  0  0
  5  2  2  0  0  0  0
  6  3  1  0  0  0  0
  7 30  1  0  0  0  0
  7  6  1  1  0  0  0
  7  8  1  0  0  0  0
  8 28  1  6  0  0  0
  9 12  1  0  0  0  0
  9  8  1  1  0  0  0
 10 15  1  6  0  0  0
 10 12  1  0  0  0  0
 10 17  1  0  0  0  0
 11 10  1  0  0  0  0
 13 21  1  1  0  0  0
 13 11  1  0  0  0  0
 13 14  1  0  0  0  0
 14 23  1  6  0  0  0
 14  9  1  0  0  0  0
 16 15  1  0  0  0  0
 17 19  1  0  0  0  0
 18 17  2  0  0  0  0
 19 20  1  0  0  0  0
 21 22  1  0  0  0  0
 23 25  1  0  0  0  0
 24 23  1  0  0  0  0
 26 24  1  0  0  0  0
 27 24  2  0  0  0  0
 29 28  1  0  0  0  0
 30 31  1  0  0  0  0
 32 33  1  0  0  0  0
 33 35  1  0  0  0  0
 34 36  1  0  0  0  0
 34 33  2  0  0  0  0
 36 37  2  0  0  0  0
 37 35  1  0  0  0  0
 39 40  1  0  0  0  0
 40 42  1  0  0  0  0
 41 39  2  0  0  0  0
 43 40  1  0  0  0  0
 43 45  2  0  0  0  0
 44 43  1  0  0  0  0
 46 44  2  0  0  0  0
 46 48  1  0  0  0  0
 47 45  1  0  0  0  0
 48 47  2  0  0  0  0
 49 44  1  0  0  0  0
 51 52  1  0  0  0  0
 53 52  1  0  0  0  0
 53 54  1  0  0  0  0
 55 56  1  0  0  0  0
 55 54  1  0  0  0  0
M  END
>  <REMARK>
 VINA RESULT:    -9.081      3.699      7.333
 INTER + INTRA:         -13.286
 INTER:                  -8.467
 INTRA:                  -4.819
 UNBOUND:                 4.555
 SMILES CC(=O)N[C@@H]1[C@@H](O)C[C@](O)(C(=O)O)O[C@H]1C(O)[C@H](O)CNC(=O)OCc1cn(C2CCc3ccccc3NC2=O)nn1
 SMILES IDX 24 1 22 2 21 3 23 5 20 6 18 7 16 8 15 9 9 10 8 11 14 12 6 13
 SMILES IDX 5 14 10 15 11 17 12 18 13 19 7 21 4 23 2 24 1 26 3 27 17 28
 SMILES IDX 19 30 25 32 26 33 27 34 42 35 28 36 41 37 29 38 39 40 38 41
 SMILES IDX 40 42 37 44 32 45 36 46 33 47 35 48 34 49 31 50 30 51
 H PARENT 21 4 10 16 13 20 7 22 4 25 17 29 19 31 38 43
 Flexibility Score: 80.00
  4 active torsions:
  status: ('A' for Active; 'I' for Inactive)
    1  A    between atoms: CA   and  CB  
    2  A    between atoms: CB   and  CG  
    3  A    between atoms: CG   and  CD  
    4  A    between atoms: CD   and  CE  

>  <TORSDO>
F 15

>  <BEGIN_>
RES LYS A 131

$$$$
ligand_80_pose_15_2HRL.pdbqt
 OpenBabel07062320523D

  6  5  0  0  0  0  0  0  0  0999 V2000
   33.1930   34.6630    9.2900 C   0  0  0  0  0  0  0  0  0  0  0  0
   32.0600   35.3600   10.0340 C   0  0  0  0  0  0  0  0  0  0  0  0
   32.1170   35.1740   11.5280 C   0  0  0  0  0  0  0  0  0  0  0  0
   32.2550   36.5160   12.2310 C   0  0  0  0  0  0  0  0  0  0  0  0
   32.2560   36.3310   13.7360 C   0  0  0  0  0  0  0  0  0  0  0  0
   30.8710   36.3580   14.2810 N   0  0  0  0  0  0  0  0  0  0  0  0
  1  2  1  0  0  0  0
  2  3  1  0  0  0  0
  3  4  1  0  0  0  0
  4  5  1  0  0  0  0
  5  6  1  0  0  0  0
M  END
>  <EGIN_R>
ES LYS A 135

>  <REMARK>
  4 active torsions:
  status: ('A' for Active; 'I' for Inactive)
    5  A    between atoms: CA   and  CB  
    6  A    between atoms: CB   and  CG  
    7  A    between atoms: CG   and  CD  
    8  A    between atoms: CD   and  CE  

$$$$
