ligand_46_pose_16_2HRL.pdbqt
 OpenBabel07062320523D

 50 51  0  0  1  0  0  0  0  0999 V2000
   26.1360   37.1130   13.0470 N   0  0  0  0  0  0  0  0  0  0  0  0
   26.2810   37.1380   11.6450 C   0  0  0  0  0  0  0  0  0  0  0  0
   27.3900   37.0850   11.0900 O   0  0  0  0  0  0  0  0  0  0  0  0
   25.1450   37.1590   13.4010 H   0  0  0  0  0  0  0  0  0  0  0  0
   27.2450   37.0310   13.9470 C   0  0  0  0  0  0  0  0  0  0  0  0
   27.1140   35.7960   14.8090 C   0  0  2  0  0  0  0  0  0  0  0  0
   27.9920   34.6830   14.3140 C   0  0  2  0  0  0  0  0  0  0  0  0
   29.1570   34.3830   15.2280 C   0  0  2  0  0  0  0  0  0  0  0  0
   31.4670   34.6630   15.0140 C   0  0  2  0  0  0  0  0  0  0  0  0
   31.5630   33.7500   16.2460 C   0  0  0  0  0  0  0  0  0  0  0  0
   30.2200   35.2120   15.0370 O   0  0  0  0  0  0  0  0  0  0  0  0
   30.7500   32.5210   15.8430 C   0  0  1  0  0  0  0  0  0  0  0  0
   29.4200   32.9190   15.2450 C   0  0  1  0  0  0  0  0  0  0  0  0
   31.7950   33.9670   13.8690 O   0  0  0  0  0  0  0  0  0  0  0  0
   31.5680   33.0220   14.0020 H   0  0  0  0  0  0  0  0  0  0  0  0
   32.4480   35.7820   15.2470 C   0  0  0  0  0  0  0  0  0  0  0  0
   32.1870   36.9600   14.9240 O   0  0  0  0  0  0  0  0  0  0  0  0
   33.6720   35.5190   15.8310 O   0  0  0  0  0  0  0  0  0  0  0  0
   34.3500   36.2620   15.8870 H   0  0  0  0  0  0  0  0  0  0  0  0
   31.5410   31.8290   14.9260 O   0  0  0  0  0  0  0  0  0  0  0  0
   31.4310   32.2310   14.0370 H   0  0  0  0  0  0  0  0  0  0  0  0
   28.3310   32.3030   16.0260 N   0  0  0  0  0  0  0  0  0  0  0  0
   28.0750   30.9100   16.0120 C   0  0  0  0  0  0  0  0  0  0  0  0
   27.7100   32.9220   16.6230 H   0  0  0  0  0  0  0  0  0  0  0  0
   26.9930   30.2460   16.7790 C   0  0  0  0  0  0  0  0  0  0  0  0
   28.8150   30.1830   15.3030 O   0  0  0  0  0  0  0  0  0  0  0  0
   28.3870   34.9550   13.0190 O   0  0  0  0  0  0  0  0  0  0  0  0
   27.8150   34.4370   12.4040 H   0  0  0  0  0  0  0  0  0  0  0  0
   25.7600   35.4580   14.7800 O   0  0  0  0  0  0  0  0  0  0  0  0
   25.1710   36.2410   14.6980 H   0  0  0  0  0  0  0  0  0  0  0  0
   25.1590   37.2230   10.8210 O   0  0  0  0  0  0  0  0  0  0  0  0
   24.5820   36.0460   10.3090 C   0  0  0  0  0  0  0  0  0  0  0  0
   24.4890   34.9870   11.3430 C   0  0  0  0  0  0  0  0  0  0  0  0
   23.3490   34.5730   11.9760 C   0  0  0  0  0  0  0  0  0  0  0  0
   25.5020   34.2630   11.8310 N   0  0  0  0  0  0  0  0  0  0  0  0
   23.6990   33.6030   12.8370 N   0  0  0  0  0  0  0  0  0  0  0  0
   25.0220   33.4360   12.7260 N   0  0  0  0  0  0  0  0  0  0  0  0
   22.8640   32.8470   13.7350 C   0  0  0  0  0  0  0  0  0  0  0  0
   22.5950   31.4860   13.2000 C   0  0  0  0  0  0  0  0  0  0  0  0
   23.5750   30.5010   13.2060 C   0  0  0  0  0  0  0  0  0  0  0  0
   21.3730   31.1380   12.6770 C   0  0  0  0  0  0  0  0  0  0  0  0
   23.3200   29.2460   12.7090 C   0  0  0  0  0  0  0  0  0  0  0  0
   21.1060   29.8770   12.1750 C   0  0  0  0  0  0  0  0  0  0  0  0
   22.0880   28.9130   12.1890 C   0  0  0  0  0  0  0  0  0  0  0  0
   29.8670   25.5550   16.9770 C   0  0  0  0  0  0  0  0  0  0  0  0
   28.3450   25.7220   17.0260 C   0  0  0  0  0  0  0  0  0  0  0  0
   27.5990   24.4270   16.7420 C   0  0  0  0  0  0  0  0  0  0  0  0
   26.9280   23.8790   17.9700 C   0  0  0  0  0  0  0  0  0  0  0  0
   25.5560   23.3260   17.5970 C   0  0  0  0  0  0  0  0  0  0  0  0
   24.7660   24.3480   16.8710 N   0  0  0  0  0  0  0  0  0  0  0  0
  1  4  1  0  0  0  0
  1  5  1  0  0  0  0
  2  1  1  0  0  0  0
  3  2  2  0  0  0  0
  6  5  1  6  0  0  0
  7 27  1  6  0  0  0
  7  6  1  0  0  0  0
  8  7  1  6  0  0  0
  8 13  1  0  0  0  0
  9 14  1  6  0  0  0
  9 11  1  0  0  0  0
  9 16  1  0  0  0  0
  9 10  1  0  0  0  0
 11  8  1  0  0  0  0
 12 20  1  6  0  0  0
 12 10  1  0  0  0  0
 13 12  1  0  0  0  0
 13 22  1  1  0  0  0
 14 15  1  0  0  0  0
 16 18  1  0  0  0  0
 17 16  2  0  0  0  0
 18 19  1  0  0  0  0
 21 20  1  0  0  0  0
 22 24  1  0  0  0  0
 23 22  1  0  0  0  0
 23 25  1  0  0  0  0
 26 23  2  0  0  0  0
 28 27  1  0  0  0  0
 29  6  1  0  0  0  0
 30 29  1  0  0  0  0
 31  2  1  0  0  0  0
 32 31  1  0  0  0  0
 32 33  1  0  0  0  0
 33 35  1  0  0  0  0
 33 34  2  0  0  0  0
 34 36  1  0  0  0  0
 35 37  2  0  0  0  0
 36 38  1  0  0  0  0
 37 36  1  0  0  0  0
 39 40  1  0  0  0  0
 39 38  1  0  0  0  0
 41 39  2  0  0  0  0
 42 40  2  0  0  0  0
 43 44  2  0  0  0  0
 43 41  1  0  0  0  0
 44 42  1  0  0  0  0
 45 46  1  0  0  0  0
 47 46  1  0  0  0  0
 47 48  1  0  0  0  0
 49 48  1  0  0  0  0
 50 49  1  0  0  0  0
M  END
>  <REMARK>
 VINA RESULT:    -5.198      5.355      9.133
 INTER + INTRA:         -14.591
 INTER:                  -9.194
 INTRA:                  -5.397
 UNBOUND:                -5.290
 SMILES CC(=O)N[C@@H]1[C@@H](O)C[C@](O)(C(=O)O)O[C@H]1C(O)[C@H](O)CNC(=O)OCc1cn(Cc2ccccc2)nn1
 SMILES IDX 21 1 22 2 23 3 20 5 18 6 16 7 15 8 9 9 8 10 14 11 6 12 5 13
 SMILES IDX 10 14 11 16 12 17 13 18 7 20 4 22 2 23 1 25 3 26 17 27 19 29
 SMILES IDX 24 31 25 32 26 33 27 34 37 35 28 36 36 37 29 38 30 39 31 40
 SMILES IDX 35 41 32 42 34 43 33 44
 H PARENT 21 4 10 15 13 19 7 21 4 24 17 28 19 30
 Flexibility Score: inf
  4 active torsions:
  status: ('A' for Active; 'I' for Inactive)
    1  A    between atoms: CA   and  CB  
    2  A    between atoms: CB   and  CG  
    3  A    between atoms: CG   and  CD  
    4  A    between atoms: CD   and  CE  

>  <TORSDO>
F 16

>  <BEGIN_>
RES LYS A 131

$$$$
ligand_46_pose_16_2HRL.pdbqt
 OpenBabel07062320523D

  6  5  0  0  0  0  0  0  0  0999 V2000
   33.1930   34.6630    9.2900 C   0  0  0  0  0  0  0  0  0  0  0  0
   32.0600   35.3600   10.0340 C   0  0  0  0  0  0  0  0  0  0  0  0
   30.6960   34.8070    9.7090 C   0  0  0  0  0  0  0  0  0  0  0  0
   30.0900   35.5380    8.5210 C   0  0  0  0  0  0  0  0  0  0  0  0
   28.8850   34.7850    7.9910 C   0  0  0  0  0  0  0  0  0  0  0  0
   28.2900   35.4820    6.8170 N   0  0  0  0  0  0  0  0  0  0  0  0
  1  2  1  0  0  0  0
  3  2  1  0  0  0  0
  4  3  1  0  0  0  0
  5  4  1  0  0  0  0
  6  5  1  0  0  0  0
M  END
>  <EGIN_R>
ES LYS A 135

>  <REMARK>
  4 active torsions:
  status: ('A' for Active; 'I' for Inactive)
    5  A    between atoms: CA   and  CB  
    6  A    between atoms: CB   and  CG  
    7  A    between atoms: CG   and  CD  
    8  A    between atoms: CD   and  CE  

$$$$
