ligand_71_pose_1_2HRL.pdbqt
 OpenBabel07062320523D

 54 55  0  0  1  0  0  0  0  0999 V2000
   29.7230   30.7140   17.8720 N   0  0  0  0  0  0  0  0  0  0  0  0
   29.0810   31.3070   19.0130 C   0  0  0  0  0  0  0  0  0  0  0  0
   29.2040   32.5310   19.2610 O   0  0  0  0  0  0  0  0  0  0  0  0
   29.6080   29.7050   17.6840 H   0  0  0  0  0  0  0  0  0  0  0  0
   30.5090   31.5710   17.0280 C   0  0  0  0  0  0  0  0  0  0  0  0
   30.1180   31.5010   15.5720 C   0  0  2  0  0  0  0  0  0  0  0  0
   29.5240   32.8390   15.2030 C   0  0  1  0  0  0  0  0  0  0  0  0
   28.1380   33.0190   15.8260 C   0  0  2  0  0  0  0  0  0  0  0  0
   25.9500   32.5430   15.5400 C   0  0  2  0  0  0  0  0  0  0  0  0
   25.5940   33.7550   16.3220 C   0  0  0  0  0  0  0  0  0  0  0  0
   27.1610   32.6740   14.9240 O   0  0  0  0  0  0  0  0  0  0  0  0
   26.5530   34.9150   16.2040 C   0  0  1  0  0  0  0  0  0  0  0  0
   27.9910   34.4810   16.2160 C   0  0  1  0  0  0  0  0  0  0  0  0
   25.0120   32.4040   14.4620 O   0  0  0  0  0  0  0  0  0  0  0  0
   24.9600   31.4400   14.2150 H   0  0  0  0  0  0  0  0  0  0  0  0
   25.7890   31.2900   16.3340 C   0  0  0  0  0  0  0  0  0  0  0  0
   25.2620   31.3070   17.4470 O   0  0  0  0  0  0  0  0  0  0  0  0
   26.2290   30.0560   15.8480 O   0  0  0  0  0  0  0  0  0  0  0  0
   27.1820   29.7530   15.9420 H   0  0  0  0  0  0  0  0  0  0  0  0
   26.2320   35.5830   15.0190 O   0  0  0  0  0  0  0  0  0  0  0  0
   26.9720   36.1880   14.7260 H   0  0  0  0  0  0  0  0  0  0  0  0
   28.6780   34.7030   17.4400 N   0  0  0  0  0  0  0  0  0  0  0  0
   29.2570   35.9360   17.8360 C   0  0  0  0  0  0  0  0  0  0  0  0
   28.7810   33.9130   18.1230 H   0  0  0  0  0  0  0  0  0  0  0  0
   29.9710   36.0970   19.1400 C   0  0  0  0  0  0  0  0  0  0  0  0
   29.1560   36.8980   17.0550 O   0  0  0  0  0  0  0  0  0  0  0  0
   30.3550   33.8880   15.5470 O   0  0  0  0  0  0  0  0  0  0  0  0
   31.1420   33.5100   16.0460 H   0  0  0  0  0  0  0  0  0  0  0  0
   29.1910   30.4710   15.4320 O   0  0  0  0  0  0  0  0  0  0  0  0
   28.3050   30.8960   15.2760 H   0  0  0  0  0  0  0  0  0  0  0  0
   28.3120   30.5540   19.8700 O   0  0  0  0  0  0  0  0  0  0  0  0
   28.3010   29.1600   19.9630 C   0  0  0  0  0  0  0  0  0  0  0  0
   27.2170   28.6000   19.1280 C   0  0  0  0  0  0  0  0  0  0  0  0
   25.8880   28.4180   19.4470 C   0  0  0  0  0  0  0  0  0  0  0  0
   27.3730   28.1700   17.8660 N   0  0  0  0  0  0  0  0  0  0  0  0
   25.2940   27.8910   18.3780 N   0  0  0  0  0  0  0  0  0  0  0  0
   26.2160   27.7540   17.4420 N   0  0  0  0  0  0  0  0  0  0  0  0
   23.8690   27.5540   18.3000 C   0  0  0  0  0  0  0  0  0  0  0  0
   23.3970   27.6770   16.8890 C   0  0  0  0  0  0  0  0  0  0  0  0
   23.0130   26.7220   16.1940 O   0  0  0  0  0  0  0  0  0  0  0  0
   23.3870   28.9830   16.3000 N   0  0  0  0  0  0  0  0  0  0  0  0
   23.7050   29.8060   16.8610 H   0  0  0  0  0  0  0  0  0  0  0  0
   22.9520   29.2020   14.9720 C   0  0  0  0  0  0  0  0  0  0  0  0
   23.7930   29.4020   13.9390 N   0  0  0  0  0  0  0  0  0  0  0  0
   21.6350   29.2170   14.6880 N   0  0  0  0  0  0  0  0  0  0  0  0
   23.3490   29.6060   12.6830 C   0  0  0  0  0  0  0  0  0  0  0  0
   21.1350   29.4120   13.4710 C   0  0  0  0  0  0  0  0  0  0  0  0
   21.9960   29.6180   12.4120 C   0  0  0  0  0  0  0  0  0  0  0  0
   29.8670   25.5550   16.9770 C   0  0  0  0  0  0  0  0  0  0  0  0
   28.3450   25.7220   17.0260 C   0  0  0  0  0  0  0  0  0  0  0  0
   27.6010   24.4010   16.9000 C   0  0  0  0  0  0  0  0  0  0  0  0
   26.5580   24.2340   17.9700 C   0  0  0  0  0  0  0  0  0  0  0  0
   25.1760   24.1770   17.3290 C   0  0  0  0  0  0  0  0  0  0  0  0
   24.6530   22.7900   17.3460 N   0  0  0  0  0  0  0  0  0  0  0  0
  1  2  1  0  0  0  0
  2  3  2  0  0  0  0
  2 31  1  0  0  0  0
  4  1  1  0  0  0  0
  5  1  1  0  0  0  0
  6  5  1  1  0  0  0
  7 27  1  1  0  0  0
  7  6  1  0  0  0  0
  8  7  1  6  0  0  0
  8 13  1  0  0  0  0
  9 14  1  6  0  0  0
  9 10  1  0  0  0  0
  9 16  1  0  0  0  0
 11  9  1  0  0  0  0
 11  8  1  0  0  0  0
 12 20  1  6  0  0  0
 12 13  1  0  0  0  0
 12 10  1  0  0  0  0
 13 22  1  1  0  0  0
 15 14  1  0  0  0  0
 16 17  2  0  0  0  0
 18 19  1  0  0  0  0
 18 16  1  0  0  0  0
 21 20  1  0  0  0  0
 22 23  1  0  0  0  0
 22 24  1  0  0  0  0
 23 25  1  0  0  0  0
 26 23  2  0  0  0  0
 27 28  1  0  0  0  0
 29  6  1  0  0  0  0
 30 29  1  0  0  0  0
 31 32  1  0  0  0  0
 33 34  2  0  0  0  0
 33 32  1  0  0  0  0
 35 33  1  0  0  0  0
 36 34  1  0  0  0  0
 37 35  2  0  0  0  0
 37 36  1  0  0  0  0
 38 36  1  0  0  0  0
 39 38  1  0  0  0  0
 40 39  2  0  0  0  0
 41 42  1  0  0  0  0
 41 39  1  0  0  0  0
 43 41  1  0  0  0  0
 44 43  2  0  0  0  0
 45 43  1  0  0  0  0
 46 44  1  0  0  0  0
 47 45  2  0  0  0  0
 48 46  2  0  0  0  0
 48 47  1  0  0  0  0
 49 50  1  0  0  0  0
 51 50  1  0  0  0  0
 51 52  1  0  0  0  0
 53 54  1  0  0  0  0
 53 52  1  0  0  0  0
M  END
>  <REMARK>
 VINA RESULT:    -4.189      2.929      4.757
 INTER + INTRA:         -15.304
 INTER:                  -7.081
 INTRA:                  -8.224
 UNBOUND:                -7.565
 SMILES CC(=O)N[C@@H]1[C@@H](O)C[C@](O)(C(=O)O)O[C@H]1C(O)[C@H](O)CNC(=O)OCc1cn(CC(=O)Nc2ncccn2)nn1
 SMILES IDX 21 1 22 2 23 3 20 5 18 6 16 7 15 8 9 9 8 10 14 11 6 12 5 13
 SMILES IDX 10 14 11 16 12 17 13 18 7 20 4 22 2 23 1 25 3 26 17 27 19 29
 SMILES IDX 24 31 25 32 26 33 27 34 40 35 28 36 39 37 29 38 30 39 31 40
 SMILES IDX 32 41 33 43 34 44 38 45 35 46 37 47 36 48
 H PARENT 21 4 10 15 13 19 7 21 4 24 17 28 19 30 32 42
 Flexibility Score: inf
  4 active torsions:
  status: ('A' for Active; 'I' for Inactive)
    1  A    between atoms: CA   and  CB  
    2  A    between atoms: CB   and  CG  
    3  A    between atoms: CG   and  CD  
    4  A    between atoms: CD   and  CE  

>  <TORSDO>
F 17

>  <BEGIN_>
RES LYS A 131

$$$$
ligand_71_pose_1_2HRL.pdbqt
 OpenBabel07062320523D

  6  5  0  0  0  0  0  0  0  0999 V2000
   33.1930   34.6630    9.2900 C   0  0  0  0  0  0  0  0  0  0  0  0
   32.0600   35.3600   10.0340 C   0  0  0  0  0  0  0  0  0  0  0  0
   30.8000   35.4980    9.2200 C   0  0  0  0  0  0  0  0  0  0  0  0
   30.1820   34.1350    8.9510 C   0  0  0  0  0  0  0  0  0  0  0  0
   28.6980   34.2690    8.6680 C   0  0  0  0  0  0  0  0  0  0  0  0
   27.8860   33.7610    9.8080 N   0  0  0  0  0  0  0  0  0  0  0  0
  1  2  1  0  0  0  0
  3  2  1  0  0  0  0
  4  3  1  0  0  0  0
  5  4  1  0  0  0  0
  5  6  1  0  0  0  0
M  END
>  <EGIN_R>
ES LYS A 135

>  <REMARK>
  4 active torsions:
  status: ('A' for Active; 'I' for Inactive)
    5  A    between atoms: CA   and  CB  
    6  A    between atoms: CB   and  CG  
    7  A    between atoms: CG   and  CD  
    8  A    between atoms: CD   and  CE  

$$$$
