ligand_64_pose_5_2HRL.pdbqt
 OpenBabel07062320523D

 59 61  0  0  1  0  0  0  0  0999 V2000
   29.4430   32.4030   17.9040 N   0  0  0  0  0  0  0  0  0  0  0  0
   30.6030   32.1490   17.1050 C   0  0  0  0  0  0  0  0  0  0  0  0
   30.7370   31.0060   16.5970 O   0  0  0  0  0  0  0  0  0  0  0  0
   29.3910   33.3850   18.3030 H   0  0  0  0  0  0  0  0  0  0  0  0
   28.4230   31.4220   18.1560 C   0  0  0  0  0  0  0  0  0  0  0  0
   27.2380   31.6300   17.2620 C   0  0  2  0  0  0  0  0  0  0  0  0
   27.3000   30.5920   16.1480 C   0  0  2  0  0  0  0  0  0  0  0  0
   25.9440   30.0300   15.8970 C   0  0  2  0  0  0  0  0  0  0  0  0
   23.7510   30.7140   15.5360 C   0  0  2  0  0  0  0  0  0  0  0  0
   23.6080   29.2360   15.1930 C   0  0  0  0  0  0  0  0  0  0  0  0
   25.0550   31.1070   15.6920 O   0  0  0  0  0  0  0  0  0  0  0  0
   24.1590   28.4520   16.3300 C   0  0  1  0  0  0  0  0  0  0  0  0
   25.3400   29.2060   16.9820 C   0  0  1  0  0  0  0  0  0  0  0  0
   23.0100   30.8730   16.7320 O   0  0  0  0  0  0  0  0  0  0  0  0
   23.0750   29.9960   17.1930 H   0  0  0  0  0  0  0  0  0  0  0  0
   23.1380   31.5660   14.4990 C   0  0  0  0  0  0  0  0  0  0  0  0
   22.2050   32.3350   14.7930 O   0  0  0  0  0  0  0  0  0  0  0  0
   23.5920   31.5200   13.1990 O   0  0  0  0  0  0  0  0  0  0  0  0
   24.4600   31.0640   12.9310 H   0  0  0  0  0  0  0  0  0  0  0  0
   23.2230   28.0960   17.2760 O   0  0  0  0  0  0  0  0  0  0  0  0
   22.5060   27.5590   16.8740 H   0  0  0  0  0  0  0  0  0  0  0  0
   26.2060   28.2390   17.6010 N   0  0  0  0  0  0  0  0  0  0  0  0
   26.4890   28.2820   19.0150 C   0  0  0  0  0  0  0  0  0  0  0  0
   26.6290   27.4950   17.0410 H   0  0  0  0  0  0  0  0  0  0  0  0
   27.3670   27.3140   19.6880 C   0  0  0  0  0  0  0  0  0  0  0  0
   25.9250   29.2230   19.6510 O   0  0  0  0  0  0  0  0  0  0  0  0
   28.2720   29.6460   16.3270 O   0  0  0  0  0  0  0  0  0  0  0  0
   28.7100   29.6410   17.1970 H   0  0  0  0  0  0  0  0  0  0  0  0
   27.4090   32.9120   16.7000 O   0  0  0  0  0  0  0  0  0  0  0  0
   26.6870   33.0090   16.0450 H   0  0  0  0  0  0  0  0  0  0  0  0
   31.5500   33.1420   16.9020 O   0  0  0  0  0  0  0  0  0  0  0  0
   31.7220   33.6320   15.5870 C   0  0  0  0  0  0  0  0  0  0  0  0
   30.4200   34.2090   15.1640 C   0  0  0  0  0  0  0  0  0  0  0  0
   29.8200   34.0980   13.9030 C   0  0  0  0  0  0  0  0  0  0  0  0
   29.5350   34.9520   15.8680 N   0  0  0  0  0  0  0  0  0  0  0  0
   28.6450   34.7520   13.8990 N   0  0  0  0  0  0  0  0  0  0  0  0
   28.4970   35.2590   15.1000 N   0  0  0  0  0  0  0  0  0  0  0  0
   27.7750   34.8300   12.7510 C   0  0  0  0  0  0  0  0  0  0  0  0
   26.4100   34.7870   12.8770 C   0  0  0  0  0  0  0  0  0  0  0  0
   28.3080   34.9490   11.4730 C   0  0  0  0  0  0  0  0  0  0  0  0
   25.5500   34.8580   11.8010 C   0  0  0  0  0  0  0  0  0  0  0  0
   27.4650   35.0210   10.3940 C   0  0  0  0  0  0  0  0  0  0  0  0
   26.1280   34.9730   10.5950 N   0  0  0  0  0  0  0  0  0  0  0  0
   24.1060   34.8120   11.9580 C   0  0  0  0  0  0  0  0  0  0  0  0
   23.3830   34.9750   10.9560 O   0  0  0  0  0  0  0  0  0  0  0  0
   23.5200   34.5920   13.1870 O   0  0  0  0  0  0  0  0  0  0  0  0
   22.5630   34.8870   13.4070 H   0  0  0  0  0  0  0  0  0  0  0  0
   28.0020   35.1470    9.0270 C   0  0  0  0  0  0  0  0  0  0  0  0
   29.3240   34.8180    8.8160 C   0  0  0  0  0  0  0  0  0  0  0  0
   27.2050   35.5790    8.0070 C   0  0  0  0  0  0  0  0  0  0  0  0
   29.8290   34.9350    7.5420 C   0  0  0  0  0  0  0  0  0  0  0  0
   27.7510   35.6820    6.7420 C   0  0  0  0  0  0  0  0  0  0  0  0
   29.0650   35.3650    6.4780 C   0  0  0  0  0  0  0  0  0  0  0  0
   29.8670   25.5550   16.9770 C   0  0  0  0  0  0  0  0  0  0  0  0
   28.3450   25.7220   17.0260 C   0  0  0  0  0  0  0  0  0  0  0  0
   27.6000   24.4160   16.7950 C   0  0  0  0  0  0  0  0  0  0  0  0
   26.7520   24.0320   17.9760 C   0  0  0  0  0  0  0  0  0  0  0  0
   25.4850   23.3370   17.4890 C   0  0  0  0  0  0  0  0  0  0  0  0
   24.5720   24.3120   16.8490 N   0  0  0  0  0  0  0  0  0  0  0  0
  1  5  1  0  0  0  0
  1  4  1  0  0  0  0
  2  1  1  0  0  0  0
  3  2  2  0  0  0  0
  6  5  1  1  0  0  0
  7 27  1  1  0  0  0
  7  6  1  0  0  0  0
  8  7  1  1  0  0  0
  8 13  1  0  0  0  0
  9 16  1  6  0  0  0
  9 11  1  0  0  0  0
  9 14  1  0  0  0  0
 10  9  1  0  0  0  0
 10 12  1  0  0  0  0
 11  8  1  0  0  0  0
 12 13  1  0  0  0  0
 12 20  1  1  0  0  0
 13 22  1  6  0  0  0
 14 15  1  0  0  0  0
 16 17  2  0  0  0  0
 18 16  1  0  0  0  0
 19 18  1  0  0  0  0
 21 20  1  0  0  0  0
 22 23  1  0  0  0  0
 23 26  2  0  0  0  0
 23 25  1  0  0  0  0
 24 22  1  0  0  0  0
 27 28  1  0  0  0  0
 29  6  1  0  0  0  0
 30 29  1  0  0  0  0
 31  2  1  0  0  0  0
 32 31  1  0  0  0  0
 33 32  1  0  0  0  0
 33 35  1  0  0  0  0
 34 33  2  0  0  0  0
 36 34  1  0  0  0  0
 36 37  1  0  0  0  0
 37 35  2  0  0  0  0
 38 39  1  0  0  0  0
 38 36  1  0  0  0  0
 40 38  2  0  0  0  0
 41 44  1  0  0  0  0
 41 39  2  0  0  0  0
 42 43  2  0  0  0  0
 42 40  1  0  0  0  0
 43 41  1  0  0  0  0
 44 46  1  0  0  0  0
 45 44  2  0  0  0  0
 46 47  1  0  0  0  0
 48 42  1  0  0  0  0
 49 48  1  0  0  0  0
 50 48  2  0  0  0  0
 51 49  2  0  0  0  0
 52 50  1  0  0  0  0
 53 52  2  0  0  0  0
 53 51  1  0  0  0  0
 54 55  1  0  0  0  0
 56 55  1  0  0  0  0
 56 57  1  0  0  0  0
 58 57  1  0  0  0  0
 59 58  1  0  0  0  0
M  END
>  <REMARK>
 VINA RESULT:    -6.081      2.479      5.630
 INTER + INTRA:         -16.629
 INTER:                 -10.655
 INTRA:                  -5.975
 UNBOUND:                -5.216
 SMILES CC(=O)N[C@@H]1[C@@H](O)C[C@](O)(C(=O)O)O[C@H]1C(O)[C@H](O)CNC(=O)OCc1cn(-c2cc(C(=O)O)nc(-c3ccccc3)c2)nn1
 SMILES IDX 21 1 22 2 23 3 20 5 18 6 16 7 15 8 9 9 8 10 14 11 6 12 5 13
 SMILES IDX 10 14 11 16 12 17 13 18 7 20 4 22 2 23 1 25 3 26 17 27 19 29
 SMILES IDX 24 31 25 32 26 33 27 34 45 35 28 36 44 37 29 38 30 39 43 40
 SMILES IDX 31 41 36 42 35 43 32 44 33 45 34 46 37 48 38 49 42 50 39 51
 SMILES IDX 41 52 40 53
 H PARENT 21 4 10 15 13 19 7 21 4 24 17 28 19 30 34 47
 Flexibility Score: inf
  4 active torsions:
  status: ('A' for Active; 'I' for Inactive)
    1  A    between atoms: CA   and  CB  
    2  A    between atoms: CB   and  CG  
    3  A    between atoms: CG   and  CD  
    4  A    between atoms: CD   and  CE  

>  <TORSDO>
F 18

>  <BEGIN_>
RES LYS A 131

$$$$
ligand_64_pose_5_2HRL.pdbqt
 OpenBabel07062320523D

  6  5  0  0  0  0  0  0  0  0999 V2000
   33.1930   34.6630    9.2900 C   0  0  0  0  0  0  0  0  0  0  0  0
   32.0600   35.3600   10.0340 C   0  0  0  0  0  0  0  0  0  0  0  0
   32.3050   35.4950   11.5150 C   0  0  0  0  0  0  0  0  0  0  0  0
   31.8540   36.8600   12.0110 C   0  0  0  0  0  0  0  0  0  0  0  0
   31.3800   37.7180   10.8530 C   0  0  0  0  0  0  0  0  0  0  0  0
   31.5250   39.1670   11.1650 N   0  0  0  0  0  0  0  0  0  0  0  0
  1  2  1  0  0  0  0
  2  3  1  0  0  0  0
  3  4  1  0  0  0  0
  5  6  1  0  0  0  0
  5  4  1  0  0  0  0
M  END
>  <EGIN_R>
ES LYS A 135

>  <REMARK>
  4 active torsions:
  status: ('A' for Active; 'I' for Inactive)
    5  A    between atoms: CA   and  CB  
    6  A    between atoms: CB   and  CG  
    7  A    between atoms: CG   and  CD  
    8  A    between atoms: CD   and  CE  

$$$$
