ligand_74_pose_2_2HRL.pdbqt
 OpenBabel07062320523D

 54 54  0  0  1  0  0  0  0  0999 V2000
   27.2500   28.8620   18.9780 O   0  0  0  0  0  0  0  0  0  0  0  0
   28.0730   29.9960   19.1040 C   0  0  0  0  0  0  0  0  0  0  0  0
   29.3860   30.0130   18.5750 N   0  0  0  0  0  0  0  0  0  0  0  0
   29.7030   29.1220   18.0800 H   0  0  0  0  0  0  0  0  0  0  0  0
   27.6050   30.9940   19.7020 O   0  0  0  0  0  0  0  0  0  0  0  0
   30.2750   31.1480   18.6790 C   0  0  0  0  0  0  0  0  0  0  0  0
   30.3980   31.8090   17.3500 C   0  0  2  0  0  0  0  0  0  0  0  0
   29.3560   32.8890   17.1070 C   0  0  2  0  0  0  0  0  0  0  0  0
   29.3000   33.2880   15.6660 C   0  0  2  0  0  0  0  0  0  0  0  0
   30.8450   34.7490   14.7320 C   0  0  2  0  0  0  0  0  0  0  0  0
   29.8370   35.4090   13.8230 C   0  0  0  0  0  0  0  0  0  0  0  0
   30.5050   33.4430   15.0470 O   0  0  0  0  0  0  0  0  0  0  0  0
   28.4640   34.7880   13.9620 C   0  0  1  0  0  0  0  0  0  0  0  0
   28.3300   34.4460   15.4520 C   0  0  1  0  0  0  0  0  0  0  0  0
   31.0680   35.5210   15.8760 O   0  0  0  0  0  0  0  0  0  0  0  0
   31.7860   36.1740   15.7700 H   0  0  0  0  0  0  0  0  0  0  0  0
   32.1350   34.6940   13.9930 C   0  0  0  0  0  0  0  0  0  0  0  0
   32.3150   35.4870   13.0190 O   0  0  0  0  0  0  0  0  0  0  0  0
   33.1580   33.8250   14.3070 O   0  0  0  0  0  0  0  0  0  0  0  0
   33.9700   34.1780   14.8370 H   0  0  0  0  0  0  0  0  0  0  0  0
   27.4510   35.6030   13.5220 O   0  0  0  0  0  0  0  0  0  0  0  0
   26.5920   35.2100   13.8670 H   0  0  0  0  0  0  0  0  0  0  0  0
   26.9940   33.9970   15.7570 N   0  0  0  0  0  0  0  0  0  0  0  0
   26.2820   34.5330   16.8740 C   0  0  0  0  0  0  0  0  0  0  0  0
   26.4860   33.2720   15.1920 H   0  0  0  0  0  0  0  0  0  0  0  0
   24.9150   34.0950   17.2130 C   0  0  0  0  0  0  0  0  0  0  0  0
   26.8310   35.4030   17.5940 O   0  0  0  0  0  0  0  0  0  0  0  0
   29.5230   33.9360   17.9840 O   0  0  0  0  0  0  0  0  0  0  0  0
   29.5100   34.7780   17.4820 H   0  0  0  0  0  0  0  0  0  0  0  0
   30.2080   30.8260   16.3490 O   0  0  0  0  0  0  0  0  0  0  0  0
   30.1470   29.9270   16.7430 H   0  0  0  0  0  0  0  0  0  0  0  0
   27.0380   28.3550   17.6840 C   0  0  0  0  0  0  0  0  0  0  0  0
   26.5540   29.3860   16.7480 C   0  0  0  0  0  0  0  0  0  0  0  0
   25.2590   29.7770   16.4420 C   0  0  0  0  0  0  0  0  0  0  0  0
   27.3370   30.1650   15.9920 N   0  0  0  0  0  0  0  0  0  0  0  0
   25.3030   30.7610   15.5280 N   0  0  0  0  0  0  0  0  0  0  0  0
   26.5690   30.9770   15.2730 N   0  0  0  0  0  0  0  0  0  0  0  0
   24.1110   31.4400   14.9510 C   0  0  0  0  0  0  0  0  0  0  0  0
   24.2150   31.4590   13.4660 C   0  0  2  0  0  0  0  0  0  0  0  0
   23.6140   32.7640   12.9750 C   0  0  0  0  0  0  0  0  0  0  0  0
   24.6770   33.7980   12.9080 C   0  0  0  0  0  0  0  0  0  0  0  0
   25.6040   33.7120   12.0840 O   0  0  0  0  0  0  0  0  0  0  0  0
   24.5930   34.8660   13.8070 O   0  0  0  0  0  0  0  0  0  0  0  0
   23.7610   35.4220   13.8350 H   0  0  0  0  0  0  0  0  0  0  0  0
   23.6720   30.2510   12.8220 C   0  0  0  0  0  0  0  0  0  0  0  0
   22.4710   29.6170   13.4140 C   0  0  0  0  0  0  0  0  0  0  0  0
   21.4670   29.4540   12.2380 C   0  0  0  0  0  0  0  0  0  0  0  0
   22.6410   28.2680   14.0250 C   0  0  0  0  0  0  0  0  0  0  0  0
   29.8670   25.5550   16.9770 C   0  0  0  0  0  0  0  0  0  0  0  0
   28.3450   25.7220   17.0260 C   0  0  0  0  0  0  0  0  0  0  0  0
   27.6050   24.3930   17.0260 C   0  0  0  0  0  0  0  0  0  0  0  0
   26.1180   24.5730   17.1630 C   0  0  0  0  0  0  0  0  0  0  0  0
   25.7600   24.7420   18.6360 C   0  0  0  0  0  0  0  0  0  0  0  0
   25.6990   23.4240   19.3100 N   0  0  0  0  0  0  0  0  0  0  0  0
  1  2  1  0  0  0  0
  2  5  2  0  0  0  0
  3  6  1  0  0  0  0
  3  2  1  0  0  0  0
  4  3  1  0  0  0  0
  7  6  1  1  0  0  0
  8  7  1  0  0  0  0
  8 28  1  1  0  0  0
  9  8  1  1  0  0  0
 10 17  1  6  0  0  0
 10 12  1  0  0  0  0
 10 15  1  0  0  0  0
 11 13  1  0  0  0  0
 11 10  1  0  0  0  0
 12  9  1  0  0  0  0
 13 21  1  1  0  0  0
 13 14  1  0  0  0  0
 14  9  1  0  0  0  0
 14 23  1  6  0  0  0
 16 15  1  0  0  0  0
 17 19  1  0  0  0  0
 18 17  2  0  0  0  0
 19 20  1  0  0  0  0
 21 22  1  0  0  0  0
 23 24  1  0  0  0  0
 24 26  1  0  0  0  0
 24 27  2  0  0  0  0
 25 23  1  0  0  0  0
 29 28  1  0  0  0  0
 30 31  1  0  0  0  0
 30  7  1  0  0  0  0
 32  1  1  0  0  0  0
 33 32  1  0  0  0  0
 34 33  2  0  0  0  0
 35 33  1  0  0  0  0
 36 34  1  0  0  0  0
 37 36  1  0  0  0  0
 37 35  2  0  0  0  0
 38 36  1  0  0  0  0
 39 45  1  6  0  0  0
 39 38  1  0  0  0  0
 40 39  1  0  0  0  0
 41 40  1  0  0  0  0
 41 43  1  0  0  0  0
 42 41  2  0  0  0  0
 43 44  1  0  0  0  0
 45 46  1  0  0  0  0
 46 48  1  0  0  0  0
 47 46  1  0  0  0  0
 49 50  1  0  0  0  0
 50 51  1  0  0  0  0
 51 52  1  0  0  0  0
 52 53  1  0  0  0  0
 53 54  1  0  0  0  0
M  END
>  <REMARK>
 VINA RESULT:    -4.634      3.553      7.440
 INTER + INTRA:         -16.629
 INTER:                  -8.586
 INTRA:                  -8.043
 UNBOUND:                -7.118
 SMILES CC(=O)N[C@@H]1[C@@H](O)C[C@](O)(C(=O)O)O[C@H]1C(O)[C@H](O)CNC(=O)OCc1cn(C[C@H](CC(=O)O)CC(C)C)nn1
 SMILES IDX 24 1 22 2 21 3 23 5 20 6 18 7 16 8 15 9 9 10 8 11 14 12 6 13
 SMILES IDX 5 14 10 15 11 17 12 18 13 19 7 21 4 23 2 24 1 26 3 27 17 28
 SMILES IDX 19 30 25 32 26 33 27 34 40 35 28 36 39 37 29 38 30 39 31 40
 SMILES IDX 32 41 33 42 34 43 35 45 36 46 37 47 38 48
 H PARENT 21 4 10 16 13 20 7 22 4 25 17 29 19 31 34 44
 Flexibility Score: inf
  4 active torsions:
  status: ('A' for Active; 'I' for Inactive)
    1  A    between atoms: CA   and  CB  
    2  A    between atoms: CB   and  CG  
    3  A    between atoms: CG   and  CD  
    4  A    between atoms: CD   and  CE  

>  <TORSDO>
F 21

>  <BEGIN_>
RES LYS A 131

$$$$
ligand_74_pose_2_2HRL.pdbqt
 OpenBabel07062320523D

  6  5  0  0  0  0  0  0  0  0999 V2000
   33.1930   34.6630    9.2900 C   0  0  0  0  0  0  0  0  0  0  0  0
   32.0600   35.3600   10.0340 C   0  0  0  0  0  0  0  0  0  0  0  0
   30.7350   34.6510    9.9150 C   0  0  0  0  0  0  0  0  0  0  0  0
   30.2980   34.5710    8.4610 C   0  0  0  0  0  0  0  0  0  0  0  0
   28.7870   34.4800    8.3630 C   0  0  0  0  0  0  0  0  0  0  0  0
   28.2130   33.7990    9.5570 N   0  0  0  0  0  0  0  0  0  0  0  0
  1  2  1  0  0  0  0
  3  2  1  0  0  0  0
  4  3  1  0  0  0  0
  5  4  1  0  0  0  0
  5  6  1  0  0  0  0
M  END
>  <EGIN_R>
ES LYS A 135

>  <REMARK>
  4 active torsions:
  status: ('A' for Active; 'I' for Inactive)
    5  A    between atoms: CA   and  CB  
    6  A    between atoms: CB   and  CG  
    7  A    between atoms: CG   and  CD  
    8  A    between atoms: CD   and  CE  

$$$$
