ligand_81_pose_17_2HRL.pdbqt
 OpenBabel07062320523D

 63 65  0  0  1  0  0  0  0  0999 V2000
   29.1950   36.8730   19.3030 O   0  0  0  0  0  0  0  0  0  0  0  0
   29.2780   35.7840   20.1410 C   0  0  0  0  0  0  0  0  0  0  0  0
   30.4440   34.9310   20.1620 N   0  0  0  0  0  0  0  0  0  0  0  0
   31.1930   35.2100   19.4980 H   0  0  0  0  0  0  0  0  0  0  0  0
   28.3050   35.5420   20.8990 O   0  0  0  0  0  0  0  0  0  0  0  0
   30.4780   33.8020   21.0620 C   0  0  0  0  0  0  0  0  0  0  0  0
   31.1740   32.6560   20.3400 C   0  0  2  0  0  0  0  0  0  0  0  0
   30.3070   32.3050   19.1550 C   0  0  2  0  0  0  0  0  0  0  0  0
   30.2110   30.8410   18.8530 C   0  0  2  0  0  0  0  0  0  0  0  0
   28.3240   31.0170   17.4760 C   0  0  2  0  0  0  0  0  0  0  0  0
   27.5010   30.6140   18.6880 C   0  0  0  0  0  0  0  0  0  0  0  0
   29.6460   30.7040   17.6070 O   0  0  0  0  0  0  0  0  0  0  0  0
   28.2240   29.4880   19.3980 C   0  0  1  0  0  0  0  0  0  0  0  0
   29.5940   29.9860   19.8980 C   0  0  1  0  0  0  0  0  0  0  0  0
   28.0990   32.3890   17.3050 O   0  0  0  0  0  0  0  0  0  0  0  0
   27.7430   32.8110   18.1170 H   0  0  0  0  0  0  0  0  0  0  0  0
   27.8250   30.3370   16.2630 C   0  0  0  0  0  0  0  0  0  0  0  0
   26.7470   30.7020   15.7560 O   0  0  0  0  0  0  0  0  0  0  0  0
   28.5390   29.3130   15.6980 O   0  0  0  0  0  0  0  0  0  0  0  0
   28.1930   28.6980   14.9730 H   0  0  0  0  0  0  0  0  0  0  0  0
   27.4680   28.9850   20.4300 O   0  0  0  0  0  0  0  0  0  0  0  0
   26.9740   28.1810   20.1580 H   0  0  0  0  0  0  0  0  0  0  0  0
   30.3610   28.7570   20.1430 N   0  0  0  0  0  0  0  0  0  0  0  0
   30.5430   28.3000   21.4700 C   0  0  0  0  0  0  0  0  0  0  0  0
   30.7750   28.2120   19.3560 H   0  0  0  0  0  0  0  0  0  0  0  0
   31.3110   27.0580   21.7920 C   0  0  0  0  0  0  0  0  0  0  0  0
   30.0270   28.9840   22.3970 O   0  0  0  0  0  0  0  0  0  0  0  0
   31.0470   32.8450   18.0520 O   0  0  0  0  0  0  0  0  0  0  0  0
   31.9590   32.4940   18.0620 H   0  0  0  0  0  0  0  0  0  0  0  0
   31.3080   31.6370   21.2690 O   0  0  0  0  0  0  0  0  0  0  0  0
   30.5280   31.0420   21.2790 H   0  0  0  0  0  0  0  0  0  0  0  0
   29.9580   37.0690   18.1320 C   0  0  0  0  0  0  0  0  0  0  0  0
   29.5610   36.0610   17.0980 C   0  0  0  0  0  0  0  0  0  0  0  0
   28.4290   36.0440   16.3230 C   0  0  0  0  0  0  0  0  0  0  0  0
   30.2590   34.9620   16.7370 N   0  0  0  0  0  0  0  0  0  0  0  0
   28.4460   34.9470   15.5060 N   0  0  0  0  0  0  0  0  0  0  0  0
   29.5810   34.3270   15.8000 N   0  0  0  0  0  0  0  0  0  0  0  0
   27.4480   34.5700   14.5740 C   0  0  0  0  0  0  0  0  0  0  0  0
   26.3640   33.8810   14.9560 N   0  0  0  0  0  0  0  0  0  0  0  0
   27.5820   34.8850   13.2170 C   0  0  0  0  0  0  0  0  0  0  0  0
   25.4180   33.4950   14.0630 C   0  0  0  0  0  0  0  0  0  0  0  0
   26.6330   34.4950   12.3150 C   0  0  0  0  0  0  0  0  0  0  0  0
   25.5340   33.7860   12.7630 N   0  0  0  0  0  0  0  0  0  0  0  0
   28.7890   35.6170   12.7830 C   0  0  0  0  0  0  0  0  0  0  0  0
   30.0020   34.7600   12.5480 C   0  0  0  0  0  0  0  0  0  0  0  0
   31.1690   35.3920   12.8770 O   0  0  0  0  0  0  0  0  0  0  0  0
   31.0100   36.6950   13.2900 C   0  0  0  0  0  0  0  0  0  0  0  0
   31.9750   37.0550   14.4000 C   0  0  0  0  0  0  0  0  0  0  0  0
   24.2900   32.7700   14.5110 N   0  0  0  0  0  0  0  0  0  0  0  0
   24.1400   31.7940   14.1990 H   0  0  0  0  0  0  0  0  0  0  0  0
   23.5910   33.1850   15.1540 H   0  0  0  0  0  0  0  0  0  0  0  0
   26.7710   34.6910   10.8850 C   0  0  0  0  0  0  0  0  0  0  0  0
   27.4380   33.9350    9.9930 C   0  0  0  0  0  0  0  0  0  0  0  0
   26.0920   35.8170   10.3680 C   0  0  0  0  0  0  0  0  0  0  0  0
   27.4460   34.2630    8.6230 C   0  0  0  0  0  0  0  0  0  0  0  0
   26.0920   36.1470    9.0410 C   0  0  0  0  0  0  0  0  0  0  0  0
   26.7810   35.3610    8.1340 C   0  0  0  0  0  0  0  0  0  0  0  0
   29.8670   25.5550   16.9770 C   0  0  0  0  0  0  0  0  0  0  0  0
   28.3450   25.7220   17.0260 C   0  0  0  0  0  0  0  0  0  0  0  0
   27.6010   24.4050   16.8650 C   0  0  0  0  0  0  0  0  0  0  0  0
   26.6830   24.1290   18.0240 C   0  0  0  0  0  0  0  0  0  0  0  0
   25.5370   23.2330   17.5620 C   0  0  0  0  0  0  0  0  0  0  0  0
   24.4970   24.0340   16.8740 N   0  0  0  0  0  0  0  0  0  0  0  0
  1  2  1  0  0  0  0
  2  3  1  0  0  0  0
  2  5  2  0  0  0  0
  3  6  1  0  0  0  0
  4  3  1  0  0  0  0
  7  6  1  1  0  0  0
  7 30  1  0  0  0  0
  8 28  1  6  0  0  0
  8  7  1  0  0  0  0
  9  8  1  1  0  0  0
  9 14  1  0  0  0  0
 10 17  1  6  0  0  0
 10 12  1  0  0  0  0
 10 11  1  0  0  0  0
 11 13  1  0  0  0  0
 12  9  1  0  0  0  0
 13 14  1  0  0  0  0
 13 21  1  1  0  0  0
 14 23  1  6  0  0  0
 15 10  1  0  0  0  0
 15 16  1  0  0  0  0
 18 17  2  0  0  0  0
 19 17  1  0  0  0  0
 20 19  1  0  0  0  0
 22 21  1  0  0  0  0
 23 24  1  0  0  0  0
 24 26  1  0  0  0  0
 24 27  2  0  0  0  0
 25 23  1  0  0  0  0
 28 29  1  0  0  0  0
 30 31  1  0  0  0  0
 32  1  1  0  0  0  0
 33 32  1  0  0  0  0
 34 33  2  0  0  0  0
 35 33  1  0  0  0  0
 36 37  1  0  0  0  0
 36 34  1  0  0  0  0
 37 35  2  0  0  0  0
 38 39  1  0  0  0  0
 38 36  1  0  0  0  0
 40 38  2  0  0  0  0
 41 49  1  0  0  0  0
 41 39  2  0  0  0  0
 42 43  2  0  0  0  0
 42 40  1  0  0  0  0
 43 41  1  0  0  0  0
 44 40  1  0  0  0  0
 45 44  1  0  0  0  0
 45 46  1  0  0  0  0
 46 47  1  0  0  0  0
 47 48  1  0  0  0  0
 49 51  1  0  0  0  0
 50 49  1  0  0  0  0
 52 42  1  0  0  0  0
 53 52  2  0  0  0  0
 54 52  1  0  0  0  0
 55 53  1  0  0  0  0
 56 54  2  0  0  0  0
 57 55  2  0  0  0  0
 57 56  1  0  0  0  0
 58 59  1  0  0  0  0
 60 59  1  0  0  0  0
 60 61  1  0  0  0  0
 62 61  1  0  0  0  0
 63 62  1  0  0  0  0
M  END
>  <REMARK>
 VINA RESULT:    -4.617      5.332     10.193
 INTER + INTRA:         -16.647
 INTER:                 -10.276
 INTRA:                  -6.371
 UNBOUND:                -7.171
 SMILES CCOCCc1c(-c2ccccc2)nc(N)nc1-n1cc(COC(=O)NC[C@@H](O)C(O)[C@@H]2O[C@@](O)(C(=O)O)C[C@H](O)[C@H]2NC(C)=O)nn1
 SMILES IDX 23 1 24 2 26 3 25 5 27 6 28 7 30 8 32 9 34 10 39 11 33 12
 SMILES IDX 40 13 42 14 35 15 36 17 37 18 38 19 41 21 43 23 44 24 45 26
 SMILES IDX 46 27 31 28 29 30 22 32 21 33 20 34 47 35 19 36 48 37 18 38
 SMILES IDX 17 39 6 40 15 41 7 42 14 43 5 44 4 45 3 46 2 47 1 48 16 49
 SMILES IDX 8 52 9 53 13 54 10 55 12 56 11 57
 H PARENT 26 4 35 16 38 20 41 22 43 25 31 29 29 31 16 50 16 51
 Flexibility Score: inf
  4 active torsions:
  status: ('A' for Active; 'I' for Inactive)
    1  A    between atoms: CA   and  CB  
    2  A    between atoms: CB   and  CG  
    3  A    between atoms: CG   and  CD  
    4  A    between atoms: CD   and  CE  

>  <TORSDO>
F 21

>  <BEGIN_>
RES LYS A 131

$$$$
ligand_81_pose_17_2HRL.pdbqt
 OpenBabel07062320523D

  6  5  0  0  0  0  0  0  0  0999 V2000
   33.1930   34.6630    9.2900 C   0  0  0  0  0  0  0  0  0  0  0  0
   32.0600   35.3600   10.0340 C   0  0  0  0  0  0  0  0  0  0  0  0
   30.8030   35.5060    9.2160 C   0  0  0  0  0  0  0  0  0  0  0  0
   30.0960   36.8120    9.5480 C   0  0  0  0  0  0  0  0  0  0  0  0
   29.9920   37.6890    8.3150 C   0  0  0  0  0  0  0  0  0  0  0  0
   28.7590   38.5230    8.3530 N   0  0  0  0  0  0  0  0  0  0  0  0
  1  2  1  0  0  0  0
  3  4  1  0  0  0  0
  3  2  1  0  0  0  0
  5  6  1  0  0  0  0
  5  4  1  0  0  0  0
M  END
>  <EGIN_R>
ES LYS A 135

>  <REMARK>
  4 active torsions:
  status: ('A' for Active; 'I' for Inactive)
    5  A    between atoms: CA   and  CB  
    6  A    between atoms: CB   and  CG  
    7  A    between atoms: CG   and  CD  
    8  A    between atoms: CD   and  CE  

$$$$
