ligand_60_pose_7_2HRL.pdbqt
 OpenBabel07062320523D

 55 56  0  0  1  0  0  0  0  0999 V2000
   31.4950   35.3360   15.9830 N   0  0  0  0  0  0  0  0  0  0  0  0
   32.6650   36.0550   15.6980 C   0  0  0  0  0  0  0  0  0  0  0  0
   33.7560   35.4750   15.5770 O   0  0  0  0  0  0  0  0  0  0  0  0
   30.5980   35.8880   16.0700 H   0  0  0  0  0  0  0  0  0  0  0  0
   31.4890   33.9260   16.1510 C   0  0  0  0  0  0  0  0  0  0  0  0
   31.2490   33.1680   14.8510 C   0  0  2  0  0  0  0  0  0  0  0  0
   29.9120   33.5750   14.3050 C   0  0  1  0  0  0  0  0  0  0  0  0
   28.8040   33.5420   15.2870 C   0  0  2  0  0  0  0  0  0  0  0  0
   27.8840   32.1010   16.8690 C   0  0  2  0  0  0  0  0  0  0  0  0
   27.1970   33.3950   17.2300 C   0  0  0  0  0  0  0  0  0  0  0  0
   28.7370   32.2230   15.8080 O   0  0  0  0  0  0  0  0  0  0  0  0
   26.5810   34.0860   16.0530 C   0  0  1  0  0  0  0  0  0  0  0  0
   27.4310   33.8590   14.8260 C   0  0  1  0  0  0  0  0  0  0  0  0
   26.9410   31.0630   16.6740 O   0  0  0  0  0  0  0  0  0  0  0  0
   27.2900   30.3860   16.0410 H   0  0  0  0  0  0  0  0  0  0  0  0
   28.6830   31.6900   18.0540 C   0  0  0  0  0  0  0  0  0  0  0  0
   28.7160   30.4680   18.3500 O   0  0  0  0  0  0  0  0  0  0  0  0
   29.3930   32.5670   18.8520 O   0  0  0  0  0  0  0  0  0  0  0  0
   29.0040   33.4720   19.1080 H   0  0  0  0  0  0  0  0  0  0  0  0
   25.2810   33.6220   15.9040 O   0  0  0  0  0  0  0  0  0  0  0  0
   25.3260   32.8590   15.2720 H   0  0  0  0  0  0  0  0  0  0  0  0
   27.2670   34.8440   13.8260 N   0  0  0  0  0  0  0  0  0  0  0  0
   26.2940   34.7410   12.8060 C   0  0  0  0  0  0  0  0  0  0  0  0
   27.8590   35.6980   13.8290 H   0  0  0  0  0  0  0  0  0  0  0  0
   26.1340   35.7990   11.7490 C   0  0  0  0  0  0  0  0  0  0  0  0
   25.5610   33.7360   12.8020 O   0  0  0  0  0  0  0  0  0  0  0  0
   29.9220   34.5990   13.3950 O   0  0  0  0  0  0  0  0  0  0  0  0
   30.8320   34.7040   13.0370 H   0  0  0  0  0  0  0  0  0  0  0  0
   31.4150   31.8280   15.0810 O   0  0  0  0  0  0  0  0  0  0  0  0
   31.1550   31.6030   16.0170 H   0  0  0  0  0  0  0  0  0  0  0  0
   32.6700   37.4490   15.5350 O   0  0  0  0  0  0  0  0  0  0  0  0
   31.4840   38.1800   15.5480 C   0  0  0  0  0  0  0  0  0  0  0  0
   30.6780   37.9590   14.3280 C   0  0  0  0  0  0  0  0  0  0  0  0
   30.9250   38.3200   13.0250 C   0  0  0  0  0  0  0  0  0  0  0  0
   29.4830   37.3160   14.3040 N   0  0  0  0  0  0  0  0  0  0  0  0
   29.9100   37.9060   12.2460 N   0  0  0  0  0  0  0  0  0  0  0  0
   29.0580   37.3050   13.0530 N   0  0  0  0  0  0  0  0  0  0  0  0
   29.7440   38.0620   10.8400 C   0  0  0  0  0  0  0  0  0  0  0  0
   30.8200   38.2500    9.9990 C   0  0  0  0  0  0  0  0  0  0  0  0
   28.4900   38.0330   10.2580 C   0  0  0  0  0  0  0  0  0  0  0  0
   30.6770   38.4030    8.6380 C   0  0  0  0  0  0  0  0  0  0  0  0
   28.3430   38.1850    8.8960 C   0  0  0  0  0  0  0  0  0  0  0  0
   29.4110   38.3740    8.0440 C   0  0  0  0  0  0  0  0  0  0  0  0
   29.2340   38.5700    6.3160 S   0  0  0  0  0  0  0  0  0  0  0  0
   27.9820   39.3690    6.0850 O   0  0  0  0  0  0  0  0  0  0  0  0
   30.3830   39.4100    5.8080 O   0  0  0  0  0  0  0  0  0  0  0  0
   29.1540   37.0770    5.4820 N   0  0  0  0  0  0  0  0  0  0  0  0
   28.2750   36.5590    5.5960 H   0  0  0  0  0  0  0  0  0  0  0  0
   29.4380   37.1660    4.4810 H   0  0  0  0  0  0  0  0  0  0  0  0
   29.8670   25.5550   16.9770 C   0  0  0  0  0  0  0  0  0  0  0  0
   28.3450   25.7220   17.0260 C   0  0  0  0  0  0  0  0  0  0  0  0
   27.6010   24.4040   16.8800 C   0  0  0  0  0  0  0  0  0  0  0  0
   26.5400   24.2320   17.9310 C   0  0  0  0  0  0  0  0  0  0  0  0
   25.9610   25.5950   18.2970 C   0  0  0  0  0  0  0  0  0  0  0  0
   25.8850   25.7490   19.7690 N   0  0  0  0  0  0  0  0  0  0  0  0
  1  4  1  0  0  0  0
  1  5  1  0  0  0  0
  2  1  1  0  0  0  0
  3  2  2  0  0  0  0
  6 29  1  0  0  0  0
  6  5  1  1  0  0  0
  7 27  1  1  0  0  0
  7  6  1  0  0  0  0
  8  7  1  6  0  0  0
  8 11  1  0  0  0  0
  9 14  1  6  0  0  0
  9 10  1  0  0  0  0
  9 16  1  0  0  0  0
 11  9  1  0  0  0  0
 12 20  1  6  0  0  0
 12 10  1  0  0  0  0
 13 22  1  6  0  0  0
 13  8  1  0  0  0  0
 13 12  1  0  0  0  0
 15 14  1  0  0  0  0
 16 17  2  0  0  0  0
 16 18  1  0  0  0  0
 18 19  1  0  0  0  0
 21 20  1  0  0  0  0
 22 24  1  0  0  0  0
 23 22  1  0  0  0  0
 25 23  1  0  0  0  0
 26 23  2  0  0  0  0
 28 27  1  0  0  0  0
 29 30  1  0  0  0  0
 31 32  1  0  0  0  0
 31  2  1  0  0  0  0
 33 32  1  0  0  0  0
 34 33  2  0  0  0  0
 35 33  1  0  0  0  0
 36 34  1  0  0  0  0
 36 37  1  0  0  0  0
 37 35  2  0  0  0  0
 38 36  1  0  0  0  0
 39 38  2  0  0  0  0
 40 38  1  0  0  0  0
 41 39  1  0  0  0  0
 42 40  2  0  0  0  0
 43 41  2  0  0  0  0
 43 42  1  0  0  0  0
 44 43  1  0  0  0  0
 45 44  2  0  0  0  0
 46 44  2  0  0  0  0
 47 48  1  0  0  0  0
 47 44  1  0  0  0  0
 49 47  1  0  0  0  0
 50 51  1  0  0  0  0
 52 51  1  0  0  0  0
 52 53  1  0  0  0  0
 53 54  1  0  0  0  0
 54 55  1  0  0  0  0
M  END
>  <REMARK>
 VINA RESULT:    -4.952      4.681      8.336
 INTER + INTRA:         -14.968
 INTER:                  -8.477
 INTRA:                  -6.492
 UNBOUND:                -5.964
 SMILES CC(=O)N[C@@H]1[C@@H](O)C[C@](O)(C(=O)O)O[C@H]1C(O)[C@H](O)CNC(=O)OCc1cn(-c2ccc(S(N)(=O)=O)cc2)nn1
 SMILES IDX 21 1 22 2 23 3 20 5 18 6 16 7 15 8 9 9 8 10 14 11 6 12 5 13
 SMILES IDX 10 14 11 16 12 17 13 18 7 20 4 22 2 23 1 25 3 26 17 27 19 29
 SMILES IDX 24 31 25 32 26 33 27 34 40 35 28 36 39 37 29 38 30 39 38 40
 SMILES IDX 31 41 37 42 32 43 33 44 35 45 36 46 34 47
 H PARENT 21 4 10 15 13 19 7 21 4 24 17 28 19 30 34 48 34 49
 Flexibility Score: inf
  4 active torsions:
  status: ('A' for Active; 'I' for Inactive)
    1  A    between atoms: CA   and  CB  
    2  A    between atoms: CB   and  CG  
    3  A    between atoms: CG   and  CD  
    4  A    between atoms: CD   and  CE  

>  <TORSDO>
F 17

>  <BEGIN_>
RES LYS A 131

$$$$
ligand_60_pose_7_2HRL.pdbqt
 OpenBabel07062320523D

  6  5  0  0  0  0  0  0  0  0999 V2000
   33.1930   34.6630    9.2900 C   0  0  0  0  0  0  0  0  0  0  0  0
   32.0600   35.3600   10.0340 C   0  0  0  0  0  0  0  0  0  0  0  0
   30.7250   34.6810    9.8710 C   0  0  0  0  0  0  0  0  0  0  0  0
   30.3010   34.6740    8.4110 C   0  0  0  0  0  0  0  0  0  0  0  0
   28.7940   34.5440    8.2940 C   0  0  0  0  0  0  0  0  0  0  0  0
   28.2220   33.8510    9.4810 N   0  0  0  0  0  0  0  0  0  0  0  0
  1  2  1  0  0  0  0
  3  2  1  0  0  0  0
  4  3  1  0  0  0  0
  5  4  1  0  0  0  0
  5  6  1  0  0  0  0
M  END
>  <EGIN_R>
ES LYS A 135

>  <REMARK>
  4 active torsions:
  status: ('A' for Active; 'I' for Inactive)
    5  A    between atoms: CA   and  CB  
    6  A    between atoms: CB   and  CG  
    7  A    between atoms: CG   and  CD  
    8  A    between atoms: CD   and  CE  

$$$$
