ligand_13_pose_17_2HRL.pdbqt
 OpenBabel07062320523D

 49 49  0  0  1  0  0  0  0  0999 V2000
   27.7770   27.8810   18.5980 N   0  0  0  0  0  0  0  0  0  0  0  0
   26.5020   28.0220   18.0070 C   0  0  0  0  0  0  0  0  0  0  0  0
   25.4630   27.6680   18.5730 O   0  0  0  0  0  0  0  0  0  0  0  0
   28.5770   28.2430   17.9800 H   0  0  0  0  0  0  0  0  0  0  0  0
   28.0620   27.3240   19.8800 C   0  0  0  0  0  0  0  0  0  0  0  0
   29.1360   27.9750   20.6820 C   0  0  2  0  0  0  0  0  0  0  0  0
   29.2690   29.4390   20.4600 C   0  0  1  0  0  0  0  0  0  0  0  0
   29.3190   30.2940   21.6960 C   0  0  2  0  0  0  0  0  0  0  0  0
   28.8620   32.5330   21.2020 C   0  0  2  0  0  0  0  0  0  0  0  0
   29.5890   33.0900   22.4070 C   0  0  0  0  0  0  0  0  0  0  0  0
   28.3750   31.3010   21.5050 O   0  0  0  0  0  0  0  0  0  0  0  0
   30.5420   32.0750   22.9230 C   0  0  1  0  0  0  0  0  0  0  0  0
   30.6810   30.8500   22.0050 C   0  0  1  0  0  0  0  0  0  0  0  0
   29.7420   32.6040   20.1370 O   0  0  0  0  0  0  0  0  0  0  0  0
   30.0990   31.6990   19.9820 H   0  0  0  0  0  0  0  0  0  0  0  0
   27.7180   33.4380   20.9480 C   0  0  0  0  0  0  0  0  0  0  0  0
   27.5230   34.3910   21.7330 O   0  0  0  0  0  0  0  0  0  0  0  0
   26.8770   33.2560   19.8800 O   0  0  0  0  0  0  0  0  0  0  0  0
   26.7930   33.9430   19.1300 H   0  0  0  0  0  0  0  0  0  0  0  0
   31.8130   32.5810   23.1790 O   0  0  0  0  0  0  0  0  0  0  0  0
   32.0880   32.5090   24.1150 H   0  0  0  0  0  0  0  0  0  0  0  0
   31.4750   29.9220   22.7820 N   0  0  0  0  0  0  0  0  0  0  0  0
   32.5190   29.1250   22.2800 C   0  0  0  0  0  0  0  0  0  0  0  0
   31.2510   29.8420   23.7980 H   0  0  0  0  0  0  0  0  0  0  0  0
   33.3210   28.1800   23.0950 C   0  0  0  0  0  0  0  0  0  0  0  0
   32.7820   29.2330   21.0420 O   0  0  0  0  0  0  0  0  0  0  0  0
   30.2770   29.7240   19.5710 O   0  0  0  0  0  0  0  0  0  0  0  0
   30.1760   30.5880   19.0990 H   0  0  0  0  0  0  0  0  0  0  0  0
   30.3680   27.4080   20.2950 O   0  0  0  0  0  0  0  0  0  0  0  0
   30.6110   27.7100   19.3700 H   0  0  0  0  0  0  0  0  0  0  0  0
   26.3630   28.5870   16.7180 O   0  0  0  0  0  0  0  0  0  0  0  0
   26.2050   29.9820   16.5470 C   0  0  0  0  0  0  0  0  0  0  0  0
   27.5560   30.5880   16.6870 C   0  0  0  0  0  0  0  0  0  0  0  0
   28.5950   30.5620   15.7870 C   0  0  0  0  0  0  0  0  0  0  0  0
   28.0350   31.2960   17.7480 N   0  0  0  0  0  0  0  0  0  0  0  0
   29.6350   31.2450   16.3410 N   0  0  0  0  0  0  0  0  0  0  0  0
   29.2610   31.6780   17.5320 N   0  0  0  0  0  0  0  0  0  0  0  0
   30.9390   31.4840   15.7670 C   0  0  0  0  0  0  0  0  0  0  0  0
   31.0750   32.8810   15.3280 C   0  0  0  0  0  0  0  0  0  0  0  0
   31.9170   33.6170   15.8860 O   0  0  0  0  0  0  0  0  0  0  0  0
   30.2520   33.3370   14.2980 O   0  0  0  0  0  0  0  0  0  0  0  0
   29.4720   34.4980   14.5970 C   0  0  0  0  0  0  0  0  0  0  0  0
   28.0230   34.0840   14.6310 C   0  0  0  0  0  0  0  0  0  0  0  0
   29.8670   25.5550   16.9770 C   0  0  0  0  0  0  0  0  0  0  0  0
   28.3450   25.7220   17.0260 C   0  0  0  0  0  0  0  0  0  0  0  0
   27.6010   24.4020   16.8910 C   0  0  0  0  0  0  0  0  0  0  0  0
   26.5660   24.2230   17.9670 C   0  0  0  0  0  0  0  0  0  0  0  0
   25.2060   23.9610   17.3260 C   0  0  0  0  0  0  0  0  0  0  0  0
   24.7970   22.5530   17.5360 N   0  0  0  0  0  0  0  0  0  0  0  0
  1  5  1  0  0  0  0
  2  3  2  0  0  0  0
  2  1  1  0  0  0  0
  4  1  1  0  0  0  0
  6  5  1  6  0  0  0
  7 27  1  1  0  0  0
  7  6  1  0  0  0  0
  8  7  1  6  0  0  0
  8 13  1  0  0  0  0
  9 14  1  6  0  0  0
  9 11  1  0  0  0  0
  9 10  1  0  0  0  0
 10 12  1  0  0  0  0
 11  8  1  0  0  0  0
 12 20  1  6  0  0  0
 13 22  1  1  0  0  0
 13 12  1  0  0  0  0
 15 14  1  0  0  0  0
 16  9  1  0  0  0  0
 16 17  2  0  0  0  0
 18 16  1  0  0  0  0
 19 18  1  0  0  0  0
 20 21  1  0  0  0  0
 22 24  1  0  0  0  0
 23 22  1  0  0  0  0
 23 25  1  0  0  0  0
 26 23  2  0  0  0  0
 28 27  1  0  0  0  0
 29  6  1  0  0  0  0
 30 29  1  0  0  0  0
 31  2  1  0  0  0  0
 32 33  1  0  0  0  0
 32 31  1  0  0  0  0
 33 35  1  0  0  0  0
 34 36  1  0  0  0  0
 34 33  2  0  0  0  0
 36 37  1  0  0  0  0
 37 35  2  0  0  0  0
 38 36  1  0  0  0  0
 39 38  1  0  0  0  0
 39 40  2  0  0  0  0
 41 42  1  0  0  0  0
 41 39  1  0  0  0  0
 42 43  1  0  0  0  0
 44 45  1  0  0  0  0
 46 45  1  0  0  0  0
 46 47  1  0  0  0  0
 48 49  1  0  0  0  0
 48 47  1  0  0  0  0
M  END
>  <REMARK>
 VINA RESULT:    -4.051      2.115      6.263
 INTER + INTRA:         -13.670
 INTER:                  -7.148
 INTRA:                  -6.523
 UNBOUND:                -5.949
 SMILES CCOC(=O)Cn1cc(COC(=O)NC[C@@H](O)C(O)[C@@H]2O[C@@](O)(C(=O)O)C[C@H](O)[C@H]2NC(C)=O)nn1
 SMILES IDX 14 1 12 2 13 3 15 5 16 6 18 7 20 8 22 9 27 10 21 11 28 12
 SMILES IDX 30 13 23 14 24 16 25 17 26 18 29 20 31 22 32 23 33 25 34 26
 SMILES IDX 19 27 17 29 11 31 10 32 9 33 8 34 35 35 7 36 36 37 6 38 4 39
 SMILES IDX 5 40 3 41 2 42 1 43
 H PARENT 14 4 23 15 26 19 29 21 31 24 19 28 17 30
 Flexibility Score: inf
  4 active torsions:
  status: ('A' for Active; 'I' for Inactive)
    1  A    between atoms: CA   and  CB  
    2  A    between atoms: CB   and  CG  
    3  A    between atoms: CG   and  CD  
    4  A    between atoms: CD   and  CE  

>  <TORSDO>
F 18

>  <BEGIN_>
RES LYS A 131

$$$$
ligand_13_pose_17_2HRL.pdbqt
 OpenBabel07062320523D

  6  5  0  0  0  0  0  0  0  0999 V2000
   33.1930   34.6630    9.2900 C   0  0  0  0  0  0  0  0  0  0  0  0
   32.0600   35.3600   10.0340 C   0  0  0  0  0  0  0  0  0  0  0  0
   30.7460   34.6280    9.9530 C   0  0  0  0  0  0  0  0  0  0  0  0
   29.6030   35.5220   10.4090 C   0  0  0  0  0  0  0  0  0  0  0  0
   28.3400   34.7100   10.6150 C   0  0  0  0  0  0  0  0  0  0  0  0
   27.1480   35.4250   10.0800 N   0  0  0  0  0  0  0  0  0  0  0  0
  1  2  1  0  0  0  0
  3  2  1  0  0  0  0
  3  4  1  0  0  0  0
  4  5  1  0  0  0  0
  6  5  1  0  0  0  0
M  END
>  <EGIN_R>
ES LYS A 135

>  <REMARK>
  4 active torsions:
  status: ('A' for Active; 'I' for Inactive)
    5  A    between atoms: CA   and  CB  
    6  A    between atoms: CB   and  CG  
    7  A    between atoms: CG   and  CD  
    8  A    between atoms: CD   and  CE  

$$$$
