ligand_11_pose_19_2HRL.pdbqt
 OpenBabel07062320523D

 54 54  0  0  1  0  0  0  0  0999 V2000
   24.8580   33.9150   12.4250 O   0  0  0  0  0  0  0  0  0  0  0  0
   23.7090   34.4930   12.9800 C   0  0  0  0  0  0  0  0  0  0  0  0
   22.4890   34.5590   12.2930 N   0  0  0  0  0  0  0  0  0  0  0  0
   22.4960   34.1440   11.3020 H   0  0  0  0  0  0  0  0  0  0  0  0
   23.8180   34.9540   14.1280 O   0  0  0  0  0  0  0  0  0  0  0  0
   21.2540   35.1150   12.7690 C   0  0  0  0  0  0  0  0  0  0  0  0
   21.0250   36.4760   12.2400 C   0  0  2  0  0  0  0  0  0  0  0  0
   21.5070   36.6560   10.8130 C   0  0  1  0  0  0  0  0  0  0  0  0
   20.3700   37.1790    9.9310 C   0  0  2  0  0  0  0  0  0  0  0  0
   19.3210   35.3230    8.9650 C   0  0  2  0  0  0  0  0  0  0  0  0
   20.4900   35.3210    8.0230 C   0  0  0  0  0  0  0  0  0  0  0  0
   19.3060   36.3420    9.8670 O   0  0  0  0  0  0  0  0  0  0  0  0
   20.9380   36.6580    7.5520 C   0  0  1  0  0  0  0  0  0  0  0  0
   20.8900   37.7060    8.6260 C   0  0  1  0  0  0  0  0  0  0  0  0
   19.3980   34.1250    9.6770 O   0  0  0  0  0  0  0  0  0  0  0  0
   19.7400   34.2590   10.5850 H   0  0  0  0  0  0  0  0  0  0  0  0
   18.0530   35.3000    8.1930 C   0  0  0  0  0  0  0  0  0  0  0  0
   17.2260   36.2340    8.3170 O   0  0  0  0  0  0  0  0  0  0  0  0
   17.7390   34.2640    7.3190 O   0  0  0  0  0  0  0  0  0  0  0  0
   16.8340   34.3300    6.8530 H   0  0  0  0  0  0  0  0  0  0  0  0
   22.2500   36.5370    7.0990 O   0  0  0  0  0  0  0  0  0  0  0  0
   22.3670   36.9740    6.2140 H   0  0  0  0  0  0  0  0  0  0  0  0
   20.1010   38.8460    8.2580 N   0  0  0  0  0  0  0  0  0  0  0  0
   20.4450   40.1270    8.7580 C   0  0  0  0  0  0  0  0  0  0  0  0
   19.2640   38.7330    7.6150 H   0  0  0  0  0  0  0  0  0  0  0  0
   19.6350   41.3040    8.3820 C   0  0  0  0  0  0  0  0  0  0  0  0
   21.4290   40.3110    9.5250 O   0  0  0  0  0  0  0  0  0  0  0  0
   22.5500   37.5620   10.7970 O   0  0  0  0  0  0  0  0  0  0  0  0
   23.2630   37.2130   10.2050 H   0  0  0  0  0  0  0  0  0  0  0  0
   21.4470   37.4560   13.0790 O   0  0  0  0  0  0  0  0  0  0  0  0
   21.5880   38.3380   12.6680 H   0  0  0  0  0  0  0  0  0  0  0  0
   25.9160   34.7530   11.9690 C   0  0  0  0  0  0  0  0  0  0  0  0
   25.5480   35.5050   10.7780 C   0  0  0  0  0  0  0  0  0  0  0  0
   26.0870   36.6710   10.3030 C   0  0  0  0  0  0  0  0  0  0  0  0
   24.5850   35.1820    9.9020 N   0  0  0  0  0  0  0  0  0  0  0  0
   25.4640   37.0350    9.1740 N   0  0  0  0  0  0  0  0  0  0  0  0
   24.5540   36.1050    8.9570 N   0  0  0  0  0  0  0  0  0  0  0  0
   25.6590   38.1770    8.2990 C   0  0  1  0  0  0  0  0  0  0  0  0
   26.3530   37.7640    7.0530 C   0  0  0  0  0  0  0  0  0  0  0  0
   27.7990   37.4620    7.1750 C   0  0  0  0  0  0  0  0  0  0  0  0
   28.1430   36.0770    6.8590 C   0  0  0  0  0  0  0  0  0  0  0  0
   27.4530   35.0980    7.3100 O   0  0  0  0  0  0  0  0  0  0  0  0
   29.2470   35.8010    6.0490 O   0  0  0  0  0  0  0  0  0  0  0  0
   30.1530   36.0990    6.3840 H   0  0  0  0  0  0  0  0  0  0  0  0
   24.4830   39.0190    8.1650 C   0  0  0  0  0  0  0  0  0  0  0  0
   23.8040   39.1630    7.1500 O   0  0  0  0  0  0  0  0  0  0  0  0
   24.0880   39.7420    9.3070 O   0  0  0  0  0  0  0  0  0  0  0  0
   23.8160   39.2330   10.1300 H   0  0  0  0  0  0  0  0  0  0  0  0
   29.8670   25.5550   16.9770 C   0  0  0  0  0  0  0  0  0  0  0  0
   28.3450   25.7220   17.0260 C   0  0  0  0  0  0  0  0  0  0  0  0
   27.6010   24.4020   16.8900 C   0  0  0  0  0  0  0  0  0  0  0  0
   26.5690   24.2200   17.9680 C   0  0  0  0  0  0  0  0  0  0  0  0
   26.4510   25.5050   18.7820 C   0  0  0  0  0  0  0  0  0  0  0  0
   25.5860   25.2910   19.9670 N   0  0  0  0  0  0  0  0  0  0  0  0
  1  2  1  0  0  0  0
  2  5  2  0  0  0  0
  3  6  1  0  0  0  0
  3  2  1  0  0  0  0
  4  3  1  0  0  0  0
  7  6  1  1  0  0  0
  7 30  1  0  0  0  0
  8 28  1  1  0  0  0
  8  7  1  0  0  0  0
  9  8  1  6  0  0  0
 10 17  1  6  0  0  0
 10 15  1  0  0  0  0
 10 12  1  0  0  0  0
 11 10  1  0  0  0  0
 12  9  1  0  0  0  0
 13 21  1  1  0  0  0
 13 11  1  0  0  0  0
 13 14  1  0  0  0  0
 14 23  1  6  0  0  0
 14  9  1  0  0  0  0
 15 16  1  0  0  0  0
 17 18  2  0  0  0  0
 19 17  1  0  0  0  0
 20 19  1  0  0  0  0
 22 21  1  0  0  0  0
 23 24  1  0  0  0  0
 24 27  2  0  0  0  0
 25 23  1  0  0  0  0
 26 24  1  0  0  0  0
 29 28  1  0  0  0  0
 31 30  1  0  0  0  0
 32  1  1  0  0  0  0
 33 32  1  0  0  0  0
 34 33  2  0  0  0  0
 35 33  1  0  0  0  0
 36 34  1  0  0  0  0
 37 36  1  0  0  0  0
 37 35  2  0  0  0  0
 38 39  1  6  0  0  0
 38 36  1  0  0  0  0
 39 40  1  0  0  0  0
 41 40  1  0  0  0  0
 41 42  2  0  0  0  0
 43 44  1  0  0  0  0
 43 41  1  0  0  0  0
 45 38  1  0  0  0  0
 45 47  1  0  0  0  0
 46 45  2  0  0  0  0
 47 48  1  0  0  0  0
 49 50  1  0  0  0  0
 51 50  1  0  0  0  0
 51 52  1  0  0  0  0
 52 53  1  0  0  0  0
 53 54  1  0  0  0  0
M  END
>  <REMARK>
 VINA RESULT:    -3.683      2.343      3.543
 INTER + INTRA:         -14.889
 INTER:                  -7.864
 INTRA:                  -7.025
 UNBOUND:                -7.438
 SMILES CC(=O)N[C@@H]1[C@@H](O)C[C@](O)(C(=O)O)O[C@H]1C(O)[C@H](O)CNC(=O)OCc1cn([C@@H](CCC(=O)O)C(=O)O)nn1
 SMILES IDX 24 1 22 2 21 3 23 5 20 6 18 7 16 8 15 9 9 10 8 11 14 12 6 13
 SMILES IDX 5 14 10 15 11 17 12 18 13 19 7 21 4 23 2 24 1 26 3 27 17 28
 SMILES IDX 19 30 25 32 26 33 27 34 39 35 28 36 38 37 29 38 30 39 31 40
 SMILES IDX 32 41 33 42 34 43 35 45 36 46 37 47
 H PARENT 21 4 10 16 13 20 7 22 4 25 17 29 19 31 34 44 37 48
 Flexibility Score: inf
  4 active torsions:
  status: ('A' for Active; 'I' for Inactive)
    1  A    between atoms: CA   and  CB  
    2  A    between atoms: CB   and  CG  
    3  A    between atoms: CG   and  CD  
    4  A    between atoms: CD   and  CE  

>  <TORSDO>
F 21

>  <BEGIN_>
RES LYS A 131

$$$$
ligand_11_pose_19_2HRL.pdbqt
 OpenBabel07062320523D

  6  5  0  0  0  0  0  0  0  0999 V2000
   33.1930   34.6630    9.2900 C   0  0  0  0  0  0  0  0  0  0  0  0
   32.0600   35.3600   10.0340 C   0  0  0  0  0  0  0  0  0  0  0  0
   30.7230   35.2350    9.3500 C   0  0  0  0  0  0  0  0  0  0  0  0
   29.5980   35.6240   10.2960 C   0  0  0  0  0  0  0  0  0  0  0  0
   29.7350   34.8920   11.6170 C   0  0  0  0  0  0  0  0  0  0  0  0
   29.3770   35.7770   12.7600 N   0  0  0  0  0  0  0  0  0  0  0  0
  1  2  1  0  0  0  0
  3  2  1  0  0  0  0
  3  4  1  0  0  0  0
  4  5  1  0  0  0  0
  5  6  1  0  0  0  0
M  END
>  <EGIN_R>
ES LYS A 135

>  <REMARK>
  4 active torsions:
  status: ('A' for Active; 'I' for Inactive)
    5  A    between atoms: CA   and  CB  
    6  A    between atoms: CB   and  CG  
    7  A    between atoms: CG   and  CD  
    8  A    between atoms: CD   and  CE  

$$$$
