ligand_34_pose_7_2HRL.pdbqt
 OpenBabel07062320523D

 69 73  0  0  1  0  0  0  0  0999 V2000
   33.4720   41.0630    7.6370 N   0  0  0  0  0  0  0  0  0  0  0  0
   32.9540   42.0040    8.5920 C   0  0  0  0  0  0  0  0  0  0  0  0
   32.1980   42.9100    8.1440 O   0  0  0  0  0  0  0  0  0  0  0  0
   34.0980   40.2990    7.9490 H   0  0  0  0  0  0  0  0  0  0  0  0
   33.1360   41.1600    6.2370 C   0  0  0  0  0  0  0  0  0  0  0  0
   32.0470   40.1870    5.9250 C   0  0  2  0  0  0  0  0  0  0  0  0
   30.6730   40.8560    5.8970 C   0  0  2  0  0  0  0  0  0  0  0  0
   29.7630   40.2400    6.9480 C   0  0  2  0  0  0  0  0  0  0  0  0
   28.0810   38.7870    6.2510 C   0  0  2  0  0  0  0  0  0  0  0  0
   27.2550   39.0520    7.4910 C   0  0  0  0  0  0  0  0  0  0  0  0
   29.4110   38.9920    6.5180 O   0  0  0  0  0  0  0  0  0  0  0  0
   27.5040   40.4200    8.0130 C   0  0  1  0  0  0  0  0  0  0  0  0
   28.6370   41.1380    7.3230 C   0  0  1  0  0  0  0  0  0  0  0  0
   27.5750   39.5630    5.2390 O   0  0  0  0  0  0  0  0  0  0  0  0
   28.2470   40.0230    4.7040 H   0  0  0  0  0  0  0  0  0  0  0  0
   27.9020   37.3540    5.9150 C   0  0  0  0  0  0  0  0  0  0  0  0
   28.8960   36.5870    5.8890 O   0  0  0  0  0  0  0  0  0  0  0  0
   26.6690   36.7960    5.6180 O   0  0  0  0  0  0  0  0  0  0  0  0
   26.5870   35.9410    5.0480 H   0  0  0  0  0  0  0  0  0  0  0  0
   26.3710   41.2250    7.9280 O   0  0  0  0  0  0  0  0  0  0  0  0
   26.5380   42.0980    7.5090 H   0  0  0  0  0  0  0  0  0  0  0  0
   29.1000   42.1610    8.2720 N   0  0  0  0  0  0  0  0  0  0  0  0
   28.7010   43.5090    8.2180 C   0  0  0  0  0  0  0  0  0  0  0  0
   29.7590   41.8450    9.0190 H   0  0  0  0  0  0  0  0  0  0  0  0
   29.2120   44.4800    9.2120 C   0  0  0  0  0  0  0  0  0  0  0  0
   27.8940   43.8310    7.2860 O   0  0  0  0  0  0  0  0  0  0  0  0
   30.1690   40.6380    4.6100 O   0  0  0  0  0  0  0  0  0  0  0  0
   29.1890   40.7990    4.6620 H   0  0  0  0  0  0  0  0  0  0  0  0
   32.0510   39.1020    6.7990 O   0  0  0  0  0  0  0  0  0  0  0  0
   31.5950   38.3130    6.4230 H   0  0  0  0  0  0  0  0  0  0  0  0
   33.2420   41.9540    9.9230 O   0  0  0  0  0  0  0  0  0  0  0  0
   32.2740   41.5800   10.8750 C   0  0  0  0  0  0  0  0  0  0  0  0
   31.6840   40.2880   10.4740 C   0  0  0  0  0  0  0  0  0  0  0  0
   30.3920   39.8320   10.7470 C   0  0  0  0  0  0  0  0  0  0  0  0
   32.2670   39.2990    9.7830 N   0  0  0  0  0  0  0  0  0  0  0  0
   30.2450   38.6050   10.2160 N   0  0  0  0  0  0  0  0  0  0  0  0
   31.3930   38.3110    9.6420 N   0  0  0  0  0  0  0  0  0  0  0  0
   29.0520   37.8430   10.3110 C   0  0  0  0  0  0  0  0  0  0  0  0
   28.8330   36.6510    9.6880 C   0  0  0  0  0  0  0  0  0  0  0  0
   28.0170   38.3520   11.1010 C   0  0  0  0  0  0  0  0  0  0  0  0
   27.6430   35.9400    9.8080 C   0  0  0  0  0  0  0  0  0  0  0  0
   26.8380   37.6710   11.2350 C   0  0  0  0  0  0  0  0  0  0  0  0
   26.6500   36.4530   10.5830 C   0  0  0  0  0  0  0  0  0  0  0  0
   27.4460   34.6640    9.1250 C   0  0  0  0  0  0  0  0  0  0  0  0
   27.7420   33.5630    9.6880 O   0  0  0  0  0  0  0  0  0  0  0  0
   26.9330   34.6280    7.8570 O   0  0  0  0  0  0  0  0  0  0  0  0
   25.3620   35.8090   10.7880 C   0  0  0  0  0  0  0  0  0  0  0  0
   25.0820   34.9410   11.8220 C   0  0  0  0  0  0  0  0  0  0  0  0
   24.3420   36.0790    9.8920 C   0  0  0  0  0  0  0  0  0  0  0  0
   26.0750   34.6460   12.7360 C   0  0  0  0  0  0  0  0  0  0  0  0
   23.8290   34.3580   11.9660 C   0  0  0  0  0  0  0  0  0  0  0  0
   23.0480   35.4440   10.0860 C   0  0  0  0  0  0  0  0  0  0  0  0
   24.5180   36.9300    8.8250 C   0  0  0  0  0  0  0  0  0  0  0  0
   25.8400   33.7800   13.7940 C   0  0  0  0  0  0  0  0  0  0  0  0
   23.5660   33.4950   13.0040 C   0  0  0  0  0  0  0  0  0  0  0  0
   22.8670   34.6180   11.1140 O   0  0  0  0  0  0  0  0  0  0  0  0
   22.0360   35.7040    9.2090 C   0  0  0  0  0  0  0  0  0  0  0  0
   23.4740   37.1590    7.9740 C   0  0  0  0  0  0  0  0  0  0  0  0
   24.5860   33.2160   13.9110 C   0  0  0  0  0  0  0  0  0  0  0  0
   22.2350   36.5600    8.1480 C   0  0  0  0  0  0  0  0  0  0  0  0
   21.3040   36.8040    7.3360 O   0  0  0  0  0  0  0  0  0  0  0  0
   24.3430   32.3490   14.9630 O   0  0  0  0  0  0  0  0  0  0  0  0
   24.2340   31.3570   14.8630 H   0  0  0  0  0  0  0  0  0  0  0  0
   29.8670   25.5550   16.9770 C   0  0  0  0  0  0  0  0  0  0  0  0
   28.3450   25.7220   17.0260 C   0  0  0  0  0  0  0  0  0  0  0  0
   27.6000   24.4180   16.7870 C   0  0  0  0  0  0  0  0  0  0  0  0
   26.8340   23.9720   18.0020 C   0  0  0  0  0  0  0  0  0  0  0  0
   25.5750   23.2300   17.5670 C   0  0  0  0  0  0  0  0  0  0  0  0
   24.6360   24.1560   16.8900 N   0  0  0  0  0  0  0  0  0  0  0  0
  1  4  1  0  0  0  0
  1  2  1  0  0  0  0
  2 31  1  0  0  0  0
  3  2  2  0  0  0  0
  5  1  1  0  0  0  0
  6  5  1  1  0  0  0
  6 29  1  0  0  0  0
  7 27  1  6  0  0  0
  7  6  1  0  0  0  0
  8  7  1  6  0  0  0
  8 13  1  0  0  0  0
  9 14  1  6  0  0  0
  9 11  1  0  0  0  0
  9 10  1  0  0  0  0
 10 12  1  0  0  0  0
 11  8  1  0  0  0  0
 12 20  1  6  0  0  0
 13 12  1  0  0  0  0
 13 22  1  1  0  0  0
 15 14  1  0  0  0  0
 16  9  1  0  0  0  0
 17 16  2  0  0  0  0
 18 16  1  0  0  0  0
 19 18  1  0  0  0  0
 21 20  1  0  0  0  0
 22 24  1  0  0  0  0
 23 22  1  0  0  0  0
 23 25  1  0  0  0  0
 26 23  2  0  0  0  0
 27 28  1  0  0  0  0
 30 29  1  0  0  0  0
 31 32  1  0  0  0  0
 33 34  2  0  0  0  0
 33 32  1  0  0  0  0
 35 33  1  0  0  0  0
 36 38  1  0  0  0  0
 36 34  1  0  0  0  0
 37 35  2  0  0  0  0
 37 36  1  0  0  0  0
 38 40  2  0  0  0  0
 39 41  2  0  0  0  0
 39 38  1  0  0  0  0
 40 42  1  0  0  0  0
 41 43  1  0  0  0  0
 43 47  1  0  0  0  0
 43 42  2  0  0  0  0
 44 45  1  0  0  0  0
 44 41  1  0  0  0  0
 46 44  2  0  0  0  0
 47 48  1  0  0  0  0
 48 51  1  0  0  0  0
 48 50  2  0  0  0  0
 49 52  1  0  0  0  0
 49 47  2  0  0  0  0
 50 54  1  0  0  0  0
 51 55  2  0  0  0  0
 52 56  1  0  0  0  0
 53 49  1  0  0  0  0
 54 59  2  0  0  0  0
 55 59  1  0  0  0  0
 56 51  1  0  0  0  0
 57 52  2  0  0  0  0
 58 60  1  0  0  0  0
 58 53  2  0  0  0  0
 59 62  1  0  0  0  0
 60 57  1  0  0  0  0
 61 60  2  0  0  0  0
 63 62  1  0  0  0  0
 64 65  1  0  0  0  0
 66 65  1  0  0  0  0
 66 67  1  0  0  0  0
 68 67  1  0  0  0  0
 69 68  1  0  0  0  0
M  END
>  <REMARK>
 VINA RESULT:    -5.468      5.380      8.950
 INTER + INTRA:         -17.980
 INTER:                 -10.328
 INTRA:                  -7.652
 UNBOUND:                -7.717
 SMILES CC(=O)N[C@@H]1[C@@H](O)C[C@](O)(C(=O)O)O[C@H]1C(O)[C@H](O)CNC(=O)OCc1cn(-c2ccc(-c3c4ccc(=O)cc-4oc4cc(O)ccc34)c(C(=O)[O-])c2)nn1
 SMILES IDX 21 1 22 2 23 3 20 5 18 6 16 7 15 8 9 9 8 10 14 11 6 12 5 13
 SMILES IDX 10 14 11 16 12 17 13 18 7 20 4 22 2 23 1 25 3 26 17 27 19 29
 SMILES IDX 24 31 25 32 26 33 27 34 55 35 28 36 54 37 29 38 53 39 30 40
 SMILES IDX 49 41 31 42 32 43 50 44 51 45 52 46 33 47 48 48 34 49 47 50
 SMILES IDX 42 51 40 52 35 53 46 54 43 55 41 56 39 57 36 58 44 59 37 60
 SMILES IDX 38 61 45 62
 H PARENT 21 4 10 15 13 19 7 21 4 24 17 28 19 30 45 63
 Flexibility Score: inf
  4 active torsions:
  status: ('A' for Active; 'I' for Inactive)
    1  A    between atoms: CA   and  CB  
    2  A    between atoms: CB   and  CG  
    3  A    between atoms: CG   and  CD  
    4  A    between atoms: CD   and  CE  

>  <TORSDO>
F 18

>  <BEGIN_>
RES LYS A 131

$$$$
ligand_34_pose_7_2HRL.pdbqt
 OpenBabel07062320523D

  6  5  0  0  0  0  0  0  0  0999 V2000
   33.1930   34.6630    9.2900 C   0  0  0  0  0  0  0  0  0  0  0  0
   32.0600   35.3600   10.0340 C   0  0  0  0  0  0  0  0  0  0  0  0
   32.3170   35.5200   11.5100 C   0  0  0  0  0  0  0  0  0  0  0  0
   31.0940   35.1090   12.3150 C   0  0  0  0  0  0  0  0  0  0  0  0
   30.5850   36.2730   13.1430 C   0  0  0  0  0  0  0  0  0  0  0  0
   31.6030   37.3570   13.2270 N   0  0  0  0  0  0  0  0  0  0  0  0
  1  2  1  0  0  0  0
  2  3  1  0  0  0  0
  3  4  1  0  0  0  0
  4  5  1  0  0  0  0
  5  6  1  0  0  0  0
M  END
>  <EGIN_R>
ES LYS A 135

>  <REMARK>
  4 active torsions:
  status: ('A' for Active; 'I' for Inactive)
    5  A    between atoms: CA   and  CB  
    6  A    between atoms: CB   and  CG  
    7  A    between atoms: CG   and  CD  
    8  A    between atoms: CD   and  CE  

$$$$
