ligand_62_pose_15_2HRL.pdbqt
 OpenBabel07062320523D

 52 52  0  0  1  0  0  0  0  0999 V2000
   27.9250   28.9630   18.0790 N   0  0  0  0  0  0  0  0  0  0  0  0
   27.3070   27.7950   18.5680 C   0  0  0  0  0  0  0  0  0  0  0  0
   26.2530   27.3410   18.0690 O   0  0  0  0  0  0  0  0  0  0  0  0
   28.8110   29.2620   18.5610 H   0  0  0  0  0  0  0  0  0  0  0  0
   27.4650   29.7700   17.0020 C   0  0  0  0  0  0  0  0  0  0  0  0
   28.4740   30.5520   16.2460 C   0  0  2  0  0  0  0  0  0  0  0  0
   27.9790   31.9220   15.8350 C   0  0  2  0  0  0  0  0  0  0  0  0
   29.0150   33.0000   15.8590 C   0  0  2  0  0  0  0  0  0  0  0  0
   30.8000   33.7600   14.5980 C   0  0  2  0  0  0  0  0  0  0  0  0
   30.6440   34.8690   15.6040 C   0  0  0  0  0  0  0  0  0  0  0  0
   29.8370   32.7750   14.7340 O   0  0  0  0  0  0  0  0  0  0  0  0
   30.6130   34.4010   17.0150 C   0  0  1  0  0  0  0  0  0  0  0  0
   29.9070   33.0360   17.0520 C   0  0  1  0  0  0  0  0  0  0  0  0
   32.0910   33.2690   14.6690 O   0  0  0  0  0  0  0  0  0  0  0  0
   32.1640   32.4210   15.1730 H   0  0  0  0  0  0  0  0  0  0  0  0
   30.6250   34.3630   13.2490 C   0  0  0  0  0  0  0  0  0  0  0  0
   29.4980   34.7510   12.8340 O   0  0  0  0  0  0  0  0  0  0  0  0
   31.6980   34.5320   12.3670 O   0  0  0  0  0  0  0  0  0  0  0  0
   31.6370   34.2560   11.3960 H   0  0  0  0  0  0  0  0  0  0  0  0
   31.8770   34.3100   17.5940 O   0  0  0  0  0  0  0  0  0  0  0  0
   32.2770   33.4570   17.2680 H   0  0  0  0  0  0  0  0  0  0  0  0
   29.2960   32.9470   18.3330 N   0  0  0  0  0  0  0  0  0  0  0  0
   29.6080   31.8950   19.2750 C   0  0  0  0  0  0  0  0  0  0  0  0
   28.5960   33.6370   18.6790 H   0  0  0  0  0  0  0  0  0  0  0  0
   28.9460   31.8430   20.5990 C   0  0  0  0  0  0  0  0  0  0  0  0
   30.4370   31.0290   18.9740 O   0  0  0  0  0  0  0  0  0  0  0  0
   27.0630   32.2740   16.8750 O   0  0  0  0  0  0  0  0  0  0  0  0
   26.1570   32.3440   16.5330 H   0  0  0  0  0  0  0  0  0  0  0  0
   28.8060   29.8940   15.0640 O   0  0  0  0  0  0  0  0  0  0  0  0
   29.7690   29.9950   14.8810 H   0  0  0  0  0  0  0  0  0  0  0  0
   27.8500   27.0910   19.6390 O   0  0  0  0  0  0  0  0  0  0  0  0
   27.9350   27.6490   20.9240 C   0  0  0  0  0  0  0  0  0  0  0  0
   29.3410   27.8320   21.3280 C   0  0  0  0  0  0  0  0  0  0  0  0
   29.8350   28.6760   22.3030 C   0  0  0  0  0  0  0  0  0  0  0  0
   30.3910   27.1800   20.7850 N   0  0  0  0  0  0  0  0  0  0  0  0
   31.1520   28.5080   22.3180 N   0  0  0  0  0  0  0  0  0  0  0  0
   31.4780   27.6240   21.4200 N   0  0  0  0  0  0  0  0  0  0  0  0
   32.0960   29.1970   23.1950 C   0  0  1  0  0  0  0  0  0  0  0  0
   32.4690   28.2710   24.3170 C   0  0  0  0  0  0  0  0  0  0  0  0
   33.0570   28.9620   25.3510 O   0  0  0  0  0  0  0  0  0  0  0  0
   33.8710   28.2030   26.1630 C   0  0  0  0  0  0  0  0  0  0  0  0
   33.3340   29.5170   22.4110 C   0  0  0  0  0  0  0  0  0  0  0  0
   33.3680   30.4950   21.6500 O   0  0  0  0  0  0  0  0  0  0  0  0
   34.4560   28.6630   22.5740 N   0  0  0  0  0  0  0  0  0  0  0  0
   35.4080   29.0450   22.3720 H   0  0  0  0  0  0  0  0  0  0  0  0
   34.3410   27.6900   22.8840 H   0  0  0  0  0  0  0  0  0  0  0  0
   29.8670   25.5550   16.9770 C   0  0  0  0  0  0  0  0  0  0  0  0
   28.3450   25.7220   17.0260 C   0  0  0  0  0  0  0  0  0  0  0  0
   27.5990   24.4340   16.7120 C   0  0  0  0  0  0  0  0  0  0  0  0
   26.9910   23.8180   17.9420 C   0  0  0  0  0  0  0  0  0  0  0  0
   25.4710   23.8540   17.8310 C   0  0  0  0  0  0  0  0  0  0  0  0
   24.8500   23.7430   19.1720 N   0  0  0  0  0  0  0  0  0  0  0  0
  1  4  1  0  0  0  0
  1  2  1  0  0  0  0
  2 31  1  0  0  0  0
  3  2  2  0  0  0  0
  5  1  1  0  0  0  0
  6  5  1  6  0  0  0
  7  6  1  0  0  0  0
  7 27  1  1  0  0  0
  8  7  1  1  0  0  0
  8 13  1  0  0  0  0
  9 16  1  6  0  0  0
  9 14  1  0  0  0  0
  9 11  1  0  0  0  0
  9 10  1  0  0  0  0
 10 12  1  0  0  0  0
 11  8  1  0  0  0  0
 12 13  1  0  0  0  0
 12 20  1  6  0  0  0
 13 22  1  1  0  0  0
 14 15  1  0  0  0  0
 17 16  2  0  0  0  0
 18 16  1  0  0  0  0
 19 18  1  0  0  0  0
 21 20  1  0  0  0  0
 22 24  1  0  0  0  0
 22 23  1  0  0  0  0
 23 25  1  0  0  0  0
 26 23  2  0  0  0  0
 28 27  1  0  0  0  0
 29  6  1  0  0  0  0
 30 29  1  0  0  0  0
 31 32  1  0  0  0  0
 32 33  1  0  0  0  0
 33 34  2  0  0  0  0
 34 36  1  0  0  0  0
 35 33  1  0  0  0  0
 35 37  2  0  0  0  0
 36 38  1  0  0  0  0
 37 36  1  0  0  0  0
 38 39  1  1  0  0  0
 39 40  1  0  0  0  0
 40 41  1  0  0  0  0
 42 44  1  0  0  0  0
 42 38  1  0  0  0  0
 43 42  2  0  0  0  0
 44 46  1  0  0  0  0
 45 44  1  0  0  0  0
 47 48  1  0  0  0  0
 49 48  1  0  0  0  0
 49 50  1  0  0  0  0
 51 50  1  0  0  0  0
 51 52  1  0  0  0  0
M  END
>  <REMARK>
 VINA RESULT:    -3.921      2.663      7.542
 INTER + INTRA:         -14.228
 INTER:                  -8.758
 INTRA:                  -5.470
 UNBOUND:                -6.753
 SMILES COCC(C(N)=O)n1cc(COC(=O)NC[C@@H](O)C(O)[C@@H]2O[C@@](O)(C(=O)O)C[C@H](O)[C@H]2NC(C)=O)nn1
 SMILES IDX 15 1 13 2 14 3 16 5 17 6 19 7 21 8 23 9 28 10 22 11 29 12
 SMILES IDX 31 13 24 14 25 16 26 17 27 18 30 20 32 22 33 23 34 25 35 26
 SMILES IDX 20 27 18 29 12 31 11 32 10 33 9 34 36 35 8 36 37 37 4 38
 SMILES IDX 3 39 2 40 1 41 5 42 7 43 6 44
 H PARENT 15 4 24 15 27 19 30 21 32 24 20 28 18 30 6 45 6 46
 Flexibility Score: inf
  4 active torsions:
  status: ('A' for Active; 'I' for Inactive)
    1  A    between atoms: CA   and  CB  
    2  A    between atoms: CB   and  CG  
    3  A    between atoms: CG   and  CD  
    4  A    between atoms: CD   and  CE  

>  <TORSDO>
F 18

>  <BEGIN_>
RES LYS A 131

$$$$
ligand_62_pose_15_2HRL.pdbqt
 OpenBabel07062320523D

  6  5  0  0  0  0  0  0  0  0999 V2000
   33.1930   34.6630    9.2900 C   0  0  0  0  0  0  0  0  0  0  0  0
   32.0600   35.3600   10.0340 C   0  0  0  0  0  0  0  0  0  0  0  0
   30.7770   35.4310    9.2470 C   0  0  0  0  0  0  0  0  0  0  0  0
   30.1770   34.0440    9.0730 C   0  0  0  0  0  0  0  0  0  0  0  0
   28.6910   34.0650    9.3780 C   0  0  0  0  0  0  0  0  0  0  0  0
   27.9180   34.6380    8.2410 N   0  0  0  0  0  0  0  0  0  0  0  0
  1  2  1  0  0  0  0
  3  2  1  0  0  0  0
  4  3  1  0  0  0  0
  4  5  1  0  0  0  0
  6  5  1  0  0  0  0
M  END
>  <EGIN_R>
ES LYS A 135

>  <REMARK>
  4 active torsions:
  status: ('A' for Active; 'I' for Inactive)
    5  A    between atoms: CA   and  CB  
    6  A    between atoms: CB   and  CG  
    7  A    between atoms: CG   and  CD  
    8  A    between atoms: CD   and  CE  

$$$$
