ligand_78_pose_19_2HRL.pdbqt
 OpenBabel07062320523D

 53 54  0  0  1  0  0  0  0  0999 V2000
   25.7250   34.6300   16.6400 N   0  0  0  0  0  0  0  0  0  0  0  0
   24.4090   34.2060   16.2320 C   0  0  0  0  0  0  0  0  0  0  0  0
   24.2180   33.0080   15.9780 O   0  0  0  0  0  0  0  0  0  0  0  0
   25.8010   35.6450   16.8400 H   0  0  0  0  0  0  0  0  0  0  0  0
   26.8070   33.6680   16.7500 C   0  0  0  0  0  0  0  0  0  0  0  0
   27.5880   33.5330   15.4870 C   0  0  2  0  0  0  0  0  0  0  0  0
   28.7430   34.4680   15.3720 C   0  0  2  0  0  0  0  0  0  0  0  0
   29.6940   34.5100   16.5140 C   0  0  2  0  0  0  0  0  0  0  0  0
   31.4370   35.4760   15.2900 C   0  0  2  0  0  0  0  0  0  0  0  0
   31.8860   34.1090   14.8910 C   0  0  0  0  0  0  0  0  0  0  0  0
   30.5930   35.5640   16.3680 O   0  0  0  0  0  0  0  0  0  0  0  0
   31.5490   32.9990   15.8070 C   0  0  1  0  0  0  0  0  0  0  0  0
   30.5020   33.3180   16.8380 C   0  0  1  0  0  0  0  0  0  0  0  0
   30.8080   36.1350   14.2320 O   0  0  0  0  0  0  0  0  0  0  0  0
   30.0720   36.7080   14.5000 H   0  0  0  0  0  0  0  0  0  0  0  0
   32.6340   36.2850   15.6410 C   0  0  0  0  0  0  0  0  0  0  0  0
   33.6650   35.7070   16.0440 O   0  0  0  0  0  0  0  0  0  0  0  0
   32.6690   37.6710   15.5430 O   0  0  0  0  0  0  0  0  0  0  0  0
   33.4630   38.2070   15.9200 H   0  0  0  0  0  0  0  0  0  0  0  0
   31.1930   31.8780   15.0600 O   0  0  0  0  0  0  0  0  0  0  0  0
   31.3690   31.0390   15.5230 H   0  0  0  0  0  0  0  0  0  0  0  0
   31.1010   33.5190   18.1610 N   0  0  0  0  0  0  0  0  0  0  0  0
   30.9120   32.5960   19.2130 C   0  0  0  0  0  0  0  0  0  0  0  0
   31.6820   34.3590   18.3430 H   0  0  0  0  0  0  0  0  0  0  0  0
   31.5150   32.7860   20.5670 C   0  0  0  0  0  0  0  0  0  0  0  0
   30.2060   31.5860   18.9720 O   0  0  0  0  0  0  0  0  0  0  0  0
   28.0920   35.7750   15.4770 O   0  0  0  0  0  0  0  0  0  0  0  0
   28.8170   36.4210   15.5480 H   0  0  0  0  0  0  0  0  0  0  0  0
   26.8450   33.4330   14.3280 O   0  0  0  0  0  0  0  0  0  0  0  0
   27.3380   32.9850   13.5980 H   0  0  0  0  0  0  0  0  0  0  0  0
   23.3680   35.1070   16.1220 O   0  0  0  0  0  0  0  0  0  0  0  0
   22.9870   35.6890   14.8880 C   0  0  0  0  0  0  0  0  0  0  0  0
   24.0950   35.6930   13.9210 C   0  0  0  0  0  0  0  0  0  0  0  0
   24.1880   35.1430   12.6740 C   0  0  0  0  0  0  0  0  0  0  0  0
   25.2860   36.2900   14.1380 N   0  0  0  0  0  0  0  0  0  0  0  0
   25.4200   35.4180   12.1760 N   0  0  0  0  0  0  0  0  0  0  0  0
   26.0660   36.1190   13.0930 N   0  0  0  0  0  0  0  0  0  0  0  0
   25.8910   35.0030   10.8810 C   0  0  0  0  0  0  0  0  0  0  0  0
   25.1460   35.9990    9.5980 S   0  0  0  0  0  0  0  0  0  0  0  0
   24.8740   37.3660   10.1750 O   0  0  0  0  0  0  0  0  0  0  0  0
   23.8710   35.3510    9.2060 O   0  0  0  0  0  0  0  0  0  0  0  0
   26.2660   36.1060    8.2530 C   0  0  0  0  0  0  0  0  0  0  0  0
   26.3120   37.2970    7.5370 C   0  0  0  0  0  0  0  0  0  0  0  0
   27.0670   35.0370    7.9290 C   0  0  0  0  0  0  0  0  0  0  0  0
   27.1910   37.3790    6.4830 C   0  0  0  0  0  0  0  0  0  0  0  0
   27.9300   35.1700    6.8640 C   0  0  0  0  0  0  0  0  0  0  0  0
   28.0200   36.3220    6.1200 C   0  0  0  0  0  0  0  0  0  0  0  0
   29.8670   25.5550   16.9770 C   0  0  0  0  0  0  0  0  0  0  0  0
   28.3450   25.7220   17.0260 C   0  0  0  0  0  0  0  0  0  0  0  0
   27.6020   24.3990   16.9270 C   0  0  0  0  0  0  0  0  0  0  0  0
   26.1520   24.5340   17.2990 C   0  0  0  0  0  0  0  0  0  0  0  0
   25.9630   24.1430   18.7610 C   0  0  0  0  0  0  0  0  0  0  0  0
   25.1940   22.8800   18.8650 N   0  0  0  0  0  0  0  0  0  0  0  0
  1  5  1  0  0  0  0
  1  4  1  0  0  0  0
  2  1  1  0  0  0  0
  3  2  2  0  0  0  0
  6  5  1  1  0  0  0
  7 27  1  1  0  0  0
  7  6  1  0  0  0  0
  8  7  1  6  0  0  0
  8 13  1  0  0  0  0
  9 14  1  6  0  0  0
  9 16  1  0  0  0  0
  9 11  1  0  0  0  0
 10  9  1  0  0  0  0
 10 12  1  0  0  0  0
 11  8  1  0  0  0  0
 12 20  1  6  0  0  0
 12 13  1  0  0  0  0
 13 22  1  1  0  0  0
 14 15  1  0  0  0  0
 16 17  2  0  0  0  0
 18 16  1  0  0  0  0
 18 19  1  0  0  0  0
 20 21  1  0  0  0  0
 22 24  1  0  0  0  0
 22 23  1  0  0  0  0
 23 25  1  0  0  0  0
 26 23  2  0  0  0  0
 27 28  1  0  0  0  0
 29  6  1  0  0  0  0
 30 29  1  0  0  0  0
 31  2  1  0  0  0  0
 32 31  1  0  0  0  0
 33 35  1  0  0  0  0
 33 32  1  0  0  0  0
 34 33  2  0  0  0  0
 36 34  1  0  0  0  0
 36 37  1  0  0  0  0
 37 35  2  0  0  0  0
 38 36  1  0  0  0  0
 39 40  2  0  0  0  0
 39 38  1  0  0  0  0
 41 39  2  0  0  0  0
 42 39  1  0  0  0  0
 43 42  2  0  0  0  0
 44 42  1  0  0  0  0
 45 43  1  0  0  0  0
 46 44  2  0  0  0  0
 47 45  2  0  0  0  0
 47 46  1  0  0  0  0
 48 49  1  0  0  0  0
 50 49  1  0  0  0  0
 50 51  1  0  0  0  0
 51 52  1  0  0  0  0
 52 53  1  0  0  0  0
M  END
>  <REMARK>
 VINA RESULT:    -5.009      4.092      7.948
 INTER + INTRA:         -14.266
 INTER:                  -9.255
 INTRA:                  -5.011
 UNBOUND:                -5.011
 SMILES CC(=O)N[C@@H]1[C@@H](O)C[C@](O)(C(=O)O)O[C@H]1C(O)[C@H](O)CNC(=O)OCc1cn(CS(=O)(=O)c2ccccc2)nn1
 SMILES IDX 21 1 22 2 23 3 20 5 18 6 16 7 15 8 9 9 8 10 14 11 6 12 5 13
 SMILES IDX 10 14 11 16 12 17 13 18 7 20 4 22 2 23 1 25 3 26 17 27 19 29
 SMILES IDX 24 31 25 32 26 33 27 34 40 35 28 36 39 37 29 38 30 39 31 40
 SMILES IDX 32 41 33 42 34 43 38 44 35 45 37 46 36 47
 H PARENT 21 4 10 15 13 19 7 21 4 24 17 28 19 30
 Flexibility Score: inf
  4 active torsions:
  status: ('A' for Active; 'I' for Inactive)
    1  A    between atoms: CA   and  CB  
    2  A    between atoms: CB   and  CG  
    3  A    between atoms: CG   and  CD  
    4  A    between atoms: CD   and  CE  

>  <TORSDO>
F 17

>  <BEGIN_>
RES LYS A 131

$$$$
ligand_78_pose_19_2HRL.pdbqt
 OpenBabel07062320523D

  6  5  0  0  0  0  0  0  0  0999 V2000
   33.1930   34.6630    9.2900 C   0  0  0  0  0  0  0  0  0  0  0  0
   32.0600   35.3600   10.0340 C   0  0  0  0  0  0  0  0  0  0  0  0
   30.7460   35.3290    9.2970 C   0  0  0  0  0  0  0  0  0  0  0  0
   29.6960   36.1420   10.0370 C   0  0  0  0  0  0  0  0  0  0  0  0
   29.9210   37.6260    9.8210 C   0  0  0  0  0  0  0  0  0  0  0  0
   30.2250   37.9200    8.3930 N   0  0  0  0  0  0  0  0  0  0  0  0
  1  2  1  0  0  0  0
  3  2  1  0  0  0  0
  3  4  1  0  0  0  0
  5  4  1  0  0  0  0
  6  5  1  0  0  0  0
M  END
>  <EGIN_R>
ES LYS A 135

>  <REMARK>
  4 active torsions:
  status: ('A' for Active; 'I' for Inactive)
    5  A    between atoms: CA   and  CB  
    6  A    between atoms: CB   and  CG  
    7  A    between atoms: CG   and  CD  
    8  A    between atoms: CD   and  CE  

$$$$
