ligand_64_pose_17_2HRL.pdbqt
 OpenBabel07062320523D

 59 61  0  0  1  0  0  0  0  0999 V2000
   25.6830   39.3580   10.7200 N   0  0  0  0  0  0  0  0  0  0  0  0
   24.6370   38.8720    9.8740 C   0  0  0  0  0  0  0  0  0  0  0  0
   24.7560   39.0290    8.6310 O   0  0  0  0  0  0  0  0  0  0  0  0
   25.5210   39.1950   11.7560 H   0  0  0  0  0  0  0  0  0  0  0  0
   26.8630   40.0160   10.2280 C   0  0  0  0  0  0  0  0  0  0  0  0
   28.0750   39.1510   10.3950 C   0  0  2  0  0  0  0  0  0  0  0  0
   28.7580   39.0280    9.0390 C   0  0  2  0  0  0  0  0  0  0  0  0
   28.2610   37.8200    8.3250 C   0  0  2  0  0  0  0  0  0  0  0  0
   28.9890   35.7370    7.5900 C   0  0  2  0  0  0  0  0  0  0  0  0
   27.4930   35.5710    7.3570 C   0  0  0  0  0  0  0  0  0  0  0  0
   29.3020   36.8660    8.3010 O   0  0  0  0  0  0  0  0  0  0  0  0
   27.0300   36.7300    6.5470 C   0  0  1  0  0  0  0  0  0  0  0  0
   27.8400   37.9950    6.9060 C   0  0  1  0  0  0  0  0  0  0  0  0
   29.5490   35.7660    6.2910 O   0  0  0  0  0  0  0  0  0  0  0  0
   30.4760   36.0980    6.4170 H   0  0  0  0  0  0  0  0  0  0  0  0
   29.5510   34.5760    8.3060 C   0  0  0  0  0  0  0  0  0  0  0  0
   30.7550   34.2860    8.1810 O   0  0  0  0  0  0  0  0  0  0  0  0
   28.7520   33.8020    9.1200 O   0  0  0  0  0  0  0  0  0  0  0  0
   28.5160   32.8370    8.9080 H   0  0  0  0  0  0  0  0  0  0  0  0
   27.0420   36.5090    5.1870 O   0  0  0  0  0  0  0  0  0  0  0  0
   27.6130   37.1660    4.7310 H   0  0  0  0  0  0  0  0  0  0  0  0
   27.0270   39.1470    6.6240 N   0  0  0  0  0  0  0  0  0  0  0  0
   27.0640   39.7930    5.3340 C   0  0  0  0  0  0  0  0  0  0  0  0
   26.3990   39.5200    7.3390 H   0  0  0  0  0  0  0  0  0  0  0  0
   26.2490   40.9720    5.0030 C   0  0  0  0  0  0  0  0  0  0  0  0
   27.8550   39.2740    4.4910 O   0  0  0  0  0  0  0  0  0  0  0  0
   30.1220   39.1200    9.0970 O   0  0  0  0  0  0  0  0  0  0  0  0
   30.4820   39.7850    9.7110 H   0  0  0  0  0  0  0  0  0  0  0  0
   27.5870   37.8850   10.7770 O   0  0  0  0  0  0  0  0  0  0  0  0
   27.4230   37.9480   11.7410 H   0  0  0  0  0  0  0  0  0  0  0  0
   23.5250   38.2450   10.4160 O   0  0  0  0  0  0  0  0  0  0  0  0
   23.3040   36.8890   10.0870 C   0  0  0  0  0  0  0  0  0  0  0  0
   24.4850   36.1260   10.5700 C   0  0  0  0  0  0  0  0  0  0  0  0
   24.7300   35.6930   11.8790 C   0  0  0  0  0  0  0  0  0  0  0  0
   25.5640   35.6820    9.8840 N   0  0  0  0  0  0  0  0  0  0  0  0
   25.9000   35.0320   11.9280 N   0  0  0  0  0  0  0  0  0  0  0  0
   26.3830   35.0400   10.7080 N   0  0  0  0  0  0  0  0  0  0  0  0
   26.4450   34.4550   13.1320 C   0  0  0  0  0  0  0  0  0  0  0  0
   25.6730   33.7170   13.9910 C   0  0  0  0  0  0  0  0  0  0  0  0
   27.7840   34.6400   13.4550 C   0  0  0  0  0  0  0  0  0  0  0  0
   26.1620   33.1530   15.1520 C   0  0  0  0  0  0  0  0  0  0  0  0
   28.2840   34.0850   14.6050 C   0  0  0  0  0  0  0  0  0  0  0  0
   27.4620   33.3680   15.4050 N   0  0  0  0  0  0  0  0  0  0  0  0
   25.3240   32.3730   16.0470 C   0  0  0  0  0  0  0  0  0  0  0  0
   25.8460   31.8170   17.0330 O   0  0  0  0  0  0  0  0  0  0  0  0
   23.9690   32.2340   15.8310 O   0  0  0  0  0  0  0  0  0  0  0  0
   23.4260   32.8950   15.2650 H   0  0  0  0  0  0  0  0  0  0  0  0
   29.7000   34.2660   14.9740 C   0  0  0  0  0  0  0  0  0  0  0  0
   30.5390   33.1760   14.8810 C   0  0  0  0  0  0  0  0  0  0  0  0
   30.1570   35.4820   15.3930 C   0  0  0  0  0  0  0  0  0  0  0  0
   31.8600   33.3400   15.2240 C   0  0  0  0  0  0  0  0  0  0  0  0
   31.4920   35.6040   15.7270 C   0  0  0  0  0  0  0  0  0  0  0  0
   32.3710   34.5460   15.6520 C   0  0  0  0  0  0  0  0  0  0  0  0
   29.8670   25.5550   16.9770 C   0  0  0  0  0  0  0  0  0  0  0  0
   28.3450   25.7220   17.0260 C   0  0  0  0  0  0  0  0  0  0  0  0
   27.6000   24.4090   16.8370 C   0  0  0  0  0  0  0  0  0  0  0  0
   26.1940   24.4750   17.3650 C   0  0  0  0  0  0  0  0  0  0  0  0
   26.1860   25.2100   18.7020 C   0  0  0  0  0  0  0  0  0  0  0  0
   25.4490   24.4260   19.7210 N   0  0  0  0  0  0  0  0  0  0  0  0
  1  4  1  0  0  0  0
  2 31  1  0  0  0  0
  2  1  1  0  0  0  0
  3  2  2  0  0  0  0
  5  1  1  0  0  0  0
  6  5  1  6  0  0  0
  6 29  1  0  0  0  0
  7 27  1  1  0  0  0
  7  6  1  0  0  0  0
  8  7  1  6  0  0  0
  9 14  1  6  0  0  0
  9 11  1  0  0  0  0
  9 16  1  0  0  0  0
 10  9  1  0  0  0  0
 11  8  1  0  0  0  0
 12 20  1  6  0  0  0
 12 13  1  0  0  0  0
 12 10  1  0  0  0  0
 13 22  1  1  0  0  0
 13  8  1  0  0  0  0
 14 15  1  0  0  0  0
 16 18  1  0  0  0  0
 17 16  2  0  0  0  0
 19 18  1  0  0  0  0
 21 20  1  0  0  0  0
 22 24  1  0  0  0  0
 23 22  1  0  0  0  0
 25 23  1  0  0  0  0
 26 23  2  0  0  0  0
 27 28  1  0  0  0  0
 29 30  1  0  0  0  0
 32 31  1  0  0  0  0
 32 33  1  0  0  0  0
 33 34  2  0  0  0  0
 34 36  1  0  0  0  0
 35 33  1  0  0  0  0
 35 37  2  0  0  0  0
 36 38  1  0  0  0  0
 37 36  1  0  0  0  0
 38 40  2  0  0  0  0
 38 39  1  0  0  0  0
 39 41  2  0  0  0  0
 40 42  1  0  0  0  0
 41 43  1  0  0  0  0
 41 44  1  0  0  0  0
 42 48  1  0  0  0  0
 42 43  2  0  0  0  0
 44 45  2  0  0  0  0
 46 44  1  0  0  0  0
 47 46  1  0  0  0  0
 48 50  1  0  0  0  0
 49 48  2  0  0  0  0
 49 51  1  0  0  0  0
 50 52  2  0  0  0  0
 51 53  2  0  0  0  0
 53 52  1  0  0  0  0
 54 55  1  0  0  0  0
 56 55  1  0  0  0  0
 56 57  1  0  0  0  0
 57 58  1  0  0  0  0
 58 59  1  0  0  0  0
M  END
>  <REMARK>
 VINA RESULT:    -5.853      2.893      7.670
 INTER + INTRA:         -16.202
 INTER:                 -10.985
 INTRA:                  -5.216
 UNBOUND:                -5.216
 SMILES CC(=O)N[C@@H]1[C@@H](O)C[C@](O)(C(=O)O)O[C@H]1C(O)[C@H](O)CNC(=O)OCc1cn(-c2cc(C(=O)O)nc(-c3ccccc3)c2)nn1
 SMILES IDX 21 1 22 2 23 3 20 5 18 6 16 7 15 8 9 9 8 10 14 11 6 12 5 13
 SMILES IDX 10 14 11 16 12 17 13 18 7 20 4 22 2 23 1 25 3 26 17 27 19 29
 SMILES IDX 24 31 25 32 26 33 27 34 45 35 28 36 44 37 29 38 30 39 43 40
 SMILES IDX 31 41 36 42 35 43 32 44 33 45 34 46 37 48 38 49 42 50 39 51
 SMILES IDX 41 52 40 53
 H PARENT 21 4 10 15 13 19 7 21 4 24 17 28 19 30 34 47
 Flexibility Score: inf
  4 active torsions:
  status: ('A' for Active; 'I' for Inactive)
    1  A    between atoms: CA   and  CB  
    2  A    between atoms: CB   and  CG  
    3  A    between atoms: CG   and  CD  
    4  A    between atoms: CD   and  CE  

>  <TORSDO>
F 18

>  <BEGIN_>
RES LYS A 131

$$$$
ligand_64_pose_17_2HRL.pdbqt
 OpenBabel07062320523D

  6  5  0  0  0  0  0  0  0  0999 V2000
   33.1930   34.6630    9.2900 C   0  0  0  0  0  0  0  0  0  0  0  0
   32.0600   35.3600   10.0340 C   0  0  0  0  0  0  0  0  0  0  0  0
   32.0490   35.0800   11.5150 C   0  0  0  0  0  0  0  0  0  0  0  0
   32.5400   36.2900   12.2940 C   0  0  0  0  0  0  0  0  0  0  0  0
   31.7880   37.5370   11.8690 C   0  0  0  0  0  0  0  0  0  0  0  0
   30.4920   37.6550   12.5920 N   0  0  0  0  0  0  0  0  0  0  0  0
  1  2  1  0  0  0  0
  2  3  1  0  0  0  0
  3  4  1  0  0  0  0
  5  4  1  0  0  0  0
  5  6  1  0  0  0  0
M  END
>  <EGIN_R>
ES LYS A 135

>  <REMARK>
  4 active torsions:
  status: ('A' for Active; 'I' for Inactive)
    5  A    between atoms: CA   and  CB  
    6  A    between atoms: CB   and  CG  
    7  A    between atoms: CG   and  CD  
    8  A    between atoms: CD   and  CE  

$$$$
