ligand_47_pose_7_2HRL.pdbqt
 OpenBabel07062320523D

 62 64  0  0  1  0  0  0  0  0999 V2000
   25.3870   30.8480   15.4490 N   0  0  0  0  0  0  0  0  0  0  0  0
   24.0600   30.3440   15.4440 C   0  0  0  0  0  0  0  0  0  0  0  0
   23.8420   29.1510   15.8050 O   0  0  0  0  0  0  0  0  0  0  0  0
   25.4850   31.8570   15.1320 H   0  0  0  0  0  0  0  0  0  0  0  0
   26.5340   30.0690   15.8500 C   0  0  0  0  0  0  0  0  0  0  0  0
   27.3010   30.7090   17.0080 C   0  0  2  0  0  0  0  0  0  0  0  0
   27.0940   32.1870   16.8820 C   0  0  2  0  0  0  0  0  0  0  0  0
   27.8910   32.8100   15.7720 C   0  0  2  0  0  0  0  0  0  0  0  0
   29.9660   33.7770   15.4080 C   0  0  2  0  0  0  0  0  0  0  0  0
   29.4500   34.0970   14.0290 C   0  0  0  0  0  0  0  0  0  0  0  0
   29.2140   32.8770   16.1110 O   0  0  0  0  0  0  0  0  0  0  0  0
   28.0090   34.4760   14.0100 C   0  0  1  0  0  0  0  0  0  0  0  0
   27.3940   34.1820   15.3780 C   0  0  1  0  0  0  0  0  0  0  0  0
   30.0900   34.9840   16.1050 O   0  0  0  0  0  0  0  0  0  0  0  0
   29.5260   35.6930   15.6920 H   0  0  0  0  0  0  0  0  0  0  0  0
   31.3270   33.2100   15.2410 C   0  0  0  0  0  0  0  0  0  0  0  0
   32.3220   33.9710   15.3090 O   0  0  0  0  0  0  0  0  0  0  0  0
   31.5310   31.8660   15.0120 O   0  0  0  0  0  0  0  0  0  0  0  0
   31.2390   31.1790   15.7200 H   0  0  0  0  0  0  0  0  0  0  0  0
   27.7460   35.7530   13.5800 O   0  0  0  0  0  0  0  0  0  0  0  0
   28.1460   35.9170   12.6870 H   0  0  0  0  0  0  0  0  0  0  0  0
   25.9410   34.2070   15.2800 N   0  0  0  0  0  0  0  0  0  0  0  0
   25.2590   35.3820   15.6720 C   0  0  0  0  0  0  0  0  0  0  0  0
   25.4480   33.3710   14.9300 H   0  0  0  0  0  0  0  0  0  0  0  0
   23.7840   35.4640   15.5930 C   0  0  0  0  0  0  0  0  0  0  0  0
   25.8960   36.3790   16.0940 O   0  0  0  0  0  0  0  0  0  0  0  0
   27.2660   32.8070   18.1020 O   0  0  0  0  0  0  0  0  0  0  0  0
   27.2930   32.1630   18.8660 H   0  0  0  0  0  0  0  0  0  0  0  0
   28.6510   30.3700   16.8060 O   0  0  0  0  0  0  0  0  0  0  0  0
   28.9620   31.0080   16.0970 H   0  0  0  0  0  0  0  0  0  0  0  0
   22.9950   31.1290   15.0530 O   0  0  0  0  0  0  0  0  0  0  0  0
   22.6110   31.2380   13.6760 C   0  0  0  0  0  0  0  0  0  0  0  0
   23.1880   32.4570   13.0660 C   0  0  0  0  0  0  0  0  0  0  0  0
   22.4570   33.4470   12.3910 C   0  0  0  0  0  0  0  0  0  0  0  0
   24.4530   32.8870   13.0110 N   0  0  0  0  0  0  0  0  0  0  0  0
   23.2740   34.4100   11.9660 N   0  0  0  0  0  0  0  0  0  0  0  0
   24.5120   34.0390   12.3650 N   0  0  0  0  0  0  0  0  0  0  0  0
   23.0650   35.6400   11.2560 C   0  0  0  0  0  0  0  0  0  0  0  0
   23.2790   35.6040    9.7800 C   0  0  1  0  0  0  0  0  0  0  0  0
   22.0090   35.5410    9.0560 C   0  0  0  0  0  0  0  0  0  0  0  0
   21.7710   36.0540    7.9490 O   0  0  0  0  0  0  0  0  0  0  0  0
   20.9220   34.8430    9.6260 O   0  0  0  0  0  0  0  0  0  0  0  0
   19.9810   35.2300    9.5180 H   0  0  0  0  0  0  0  0  0  0  0  0
   24.1550   36.7500    9.3050 C   0  0  0  0  0  0  0  0  0  0  0  0
   25.3710   36.2580    8.6170 C   0  0  0  0  0  0  0  0  0  0  0  0
   25.9160   35.0020    8.9110 C   0  0  0  0  0  0  0  0  0  0  0  0
   26.0250   37.0060    7.6570 C   0  0  0  0  0  0  0  0  0  0  0  0
   27.0450   34.5420    8.2710 C   0  0  0  0  0  0  0  0  0  0  0  0
   27.1500   36.5630    7.0110 C   0  0  0  0  0  0  0  0  0  0  0  0
   27.6750   35.3310    7.3060 C   0  0  0  0  0  0  0  0  0  0  0  0
   24.5600   37.6690   10.3750 C   0  0  0  0  0  0  0  0  0  0  0  0
   23.8950   38.9000   10.4570 C   0  0  0  0  0  0  0  0  0  0  0  0
   25.5470   37.3910   11.2950 C   0  0  0  0  0  0  0  0  0  0  0  0
   24.2460   39.7870   11.4470 C   0  0  0  0  0  0  0  0  0  0  0  0
   25.8990   38.2780   12.2870 C   0  0  0  0  0  0  0  0  0  0  0  0
   25.2450   39.5030   12.3770 C   0  0  0  0  0  0  0  0  0  0  0  0
   29.8670   25.5550   16.9770 C   0  0  0  0  0  0  0  0  0  0  0  0
   28.3450   25.7220   17.0260 C   0  0  0  0  0  0  0  0  0  0  0  0
   27.5990   24.4580   16.6270 C   0  0  0  0  0  0  0  0  0  0  0  0
   26.9990   23.7560   17.8140 C   0  0  0  0  0  0  0  0  0  0  0  0
   25.4780   23.7640   17.6940 C   0  0  0  0  0  0  0  0  0  0  0  0
   24.8680   24.4170   18.8760 N   0  0  0  0  0  0  0  0  0  0  0  0
  1  5  1  0  0  0  0
  2  1  1  0  0  0  0
  2  3  2  0  0  0  0
  4  1  1  0  0  0  0
  6  5  1  6  0  0  0
  7  6  1  0  0  0  0
  7 27  1  1  0  0  0
  8 11  1  0  0  0  0
  8  7  1  1  0  0  0
  9 16  1  6  0  0  0
  9 14  1  0  0  0  0
  9 11  1  0  0  0  0
 10  9  1  0  0  0  0
 12 20  1  1  0  0  0
 12 10  1  0  0  0  0
 12 13  1  0  0  0  0
 13 22  1  6  0  0  0
 13  8  1  0  0  0  0
 15 14  1  0  0  0  0
 16 17  2  0  0  0  0
 18 16  1  0  0  0  0
 18 19  1  0  0  0  0
 21 20  1  0  0  0  0
 22 23  1  0  0  0  0
 23 26  2  0  0  0  0
 24 22  1  0  0  0  0
 25 23  1  0  0  0  0
 27 28  1  0  0  0  0
 29  6  1  0  0  0  0
 30 29  1  0  0  0  0
 31  2  1  0  0  0  0
 32 31  1  0  0  0  0
 33 32  1  0  0  0  0
 34 33  2  0  0  0  0
 35 33  1  0  0  0  0
 36 37  1  0  0  0  0
 36 34  1  0  0  0  0
 37 35  2  0  0  0  0
 38 36  1  0  0  0  0
 39 38  1  1  0  0  0
 40 42  1  0  0  0  0
 40 39  1  0  0  0  0
 41 40  2  0  0  0  0
 43 42  1  0  0  0  0
 44 39  1  0  0  0  0
 44 51  1  0  0  0  0
 45 46  1  0  0  0  0
 45 44  1  0  0  0  0
 47 45  2  0  0  0  0
 48 46  2  0  0  0  0
 49 50  2  0  0  0  0
 49 47  1  0  0  0  0
 50 48  1  0  0  0  0
 51 52  2  0  0  0  0
 51 53  1  0  0  0  0
 52 54  1  0  0  0  0
 53 55  2  0  0  0  0
 54 56  2  0  0  0  0
 55 56  1  0  0  0  0
 57 58  1  0  0  0  0
 59 58  1  0  0  0  0
 59 60  1  0  0  0  0
 61 60  1  0  0  0  0
 61 62  1  0  0  0  0
M  END
>  <REMARK>
 VINA RESULT:    -5.472      2.668      6.117
 INTER + INTRA:         -17.529
 INTER:                 -11.415
 INTRA:                  -6.114
 UNBOUND:                -6.299
 SMILES CC(=O)N[C@@H]1[C@@H](O)C[C@](O)(C(=O)O)O[C@H]1C(O)[C@H](O)CNC(=O)OCc1cn(C[C@@H](C(=O)O)C(c2ccccc2)c2ccccc2)nn1
 SMILES IDX 21 1 22 2 23 3 20 5 18 6 16 7 15 8 9 9 8 10 14 11 6 12 5 13
 SMILES IDX 10 14 11 16 12 17 13 18 7 20 4 22 2 23 1 25 3 26 17 27 19 29
 SMILES IDX 24 31 25 32 26 33 27 34 48 35 28 36 47 37 29 38 30 39 31 40
 SMILES IDX 32 41 33 42 34 44 35 45 36 46 40 47 37 48 39 49 38 50 41 51
 SMILES IDX 42 52 46 53 43 54 45 55 44 56
 H PARENT 21 4 10 15 13 19 7 21 4 24 17 28 19 30 33 43
 Flexibility Score: inf
  4 active torsions:
  status: ('A' for Active; 'I' for Inactive)
    1  A    between atoms: CA   and  CB  
    2  A    between atoms: CB   and  CG  
    3  A    between atoms: CG   and  CD  
    4  A    between atoms: CD   and  CE  

>  <TORSDO>
F 21

>  <BEGIN_>
RES LYS A 131

$$$$
ligand_47_pose_7_2HRL.pdbqt
 OpenBabel07062320523D

  6  5  0  0  0  0  0  0  0  0999 V2000
   33.1930   34.6630    9.2900 C   0  0  0  0  0  0  0  0  0  0  0  0
   32.0600   35.3600   10.0340 C   0  0  0  0  0  0  0  0  0  0  0  0
   30.6880   34.9460    9.5680 C   0  0  0  0  0  0  0  0  0  0  0  0
   29.6290   35.3710   10.5720 C   0  0  0  0  0  0  0  0  0  0  0  0
   29.7550   36.8500   10.8850 C   0  0  0  0  0  0  0  0  0  0  0  0
   28.8360   37.6580   10.0370 N   0  0  0  0  0  0  0  0  0  0  0  0
  1  2  1  0  0  0  0
  3  2  1  0  0  0  0
  3  4  1  0  0  0  0
  4  5  1  0  0  0  0
  6  5  1  0  0  0  0
M  END
>  <EGIN_R>
ES LYS A 135

>  <REMARK>
  4 active torsions:
  status: ('A' for Active; 'I' for Inactive)
    5  A    between atoms: CA   and  CB  
    6  A    between atoms: CB   and  CG  
    7  A    between atoms: CG   and  CD  
    8  A    between atoms: CD   and  CE  

$$$$
