ligand_82_pose_15_2HRL.pdbqt
 OpenBabel07062320523D

 53 55  0  0  1  0  0  0  0  0999 V2000
   26.1700   34.1860   13.3490 N   0  0  0  0  0  0  0  0  0  0  0  0
   24.7680   33.8770   13.3020 C   0  0  0  0  0  0  0  0  0  0  0  0
   24.1120   34.2170   12.2840 O   0  0  0  0  0  0  0  0  0  0  0  0
   26.7190   33.9060   14.1890 H   0  0  0  0  0  0  0  0  0  0  0  0
   26.7910   34.8770   12.2380 C   0  0  0  0  0  0  0  0  0  0  0  0
   28.2680   34.9530   12.5010 C   0  0  2  0  0  0  0  0  0  0  0  0
   28.6120   34.6450   13.9410 C   0  0  1  0  0  0  0  0  0  0  0  0
   29.9330   33.9100   13.9390 C   0  0  2  0  0  0  0  0  0  0  0  0
   30.1220   32.9500   16.0390 C   0  0  2  0  0  0  0  0  0  0  0  0
   31.3810   33.7110   16.3870 C   0  0  0  0  0  0  0  0  0  0  0  0
   29.9430   32.7710   14.6890 O   0  0  0  0  0  0  0  0  0  0  0  0
   32.0630   34.0960   15.0980 C   0  0  1  0  0  0  0  0  0  0  0  0
   31.0530   34.8680   14.2730 C   0  0  1  0  0  0  0  0  0  0  0  0
   29.0250   33.5610   16.6540 O   0  0  0  0  0  0  0  0  0  0  0  0
   29.1250   33.3780   17.6280 H   0  0  0  0  0  0  0  0  0  0  0  0
   30.2560   31.5970   16.6550 C   0  0  0  0  0  0  0  0  0  0  0  0
   30.6140   31.5040   17.8780 O   0  0  0  0  0  0  0  0  0  0  0  0
   30.0090   30.4310   15.9630 O   0  0  0  0  0  0  0  0  0  0  0  0
   29.0830   30.0120   15.9300 H   0  0  0  0  0  0  0  0  0  0  0  0
   33.1660   34.9010   15.3040 O   0  0  0  0  0  0  0  0  0  0  0  0
   33.9710   34.3280   15.2280 H   0  0  0  0  0  0  0  0  0  0  0  0
   31.6570   35.4570   13.1060 N   0  0  0  0  0  0  0  0  0  0  0  0
   31.6000   36.8530   12.8590 C   0  0  0  0  0  0  0  0  0  0  0  0
   32.1440   34.8250   12.4340 H   0  0  0  0  0  0  0  0  0  0  0  0
   32.2510   37.3770   11.6270 C   0  0  0  0  0  0  0  0  0  0  0  0
   31.0140   37.6190   13.6640 O   0  0  0  0  0  0  0  0  0  0  0  0
   28.7810   35.8180   14.6720 O   0  0  0  0  0  0  0  0  0  0  0  0
   29.0380   35.6660   15.5970 H   0  0  0  0  0  0  0  0  0  0  0  0
   28.6560   36.2830   12.2310 O   0  0  0  0  0  0  0  0  0  0  0  0
   29.2050   36.3190   11.3980 H   0  0  0  0  0  0  0  0  0  0  0  0
   24.1150   33.2270   14.3130 O   0  0  0  0  0  0  0  0  0  0  0  0
   24.0100   31.8180   14.4140 C   0  0  0  0  0  0  0  0  0  0  0  0
   25.1650   31.2730   15.1540 C   0  0  0  0  0  0  0  0  0  0  0  0
   25.3300   30.0170   15.6900 C   0  0  0  0  0  0  0  0  0  0  0  0
   26.2920   31.9430   15.4370 N   0  0  0  0  0  0  0  0  0  0  0  0
   26.5550   29.9460   16.2900 N   0  0  0  0  0  0  0  0  0  0  0  0
   27.1120   31.1360   16.1160 N   0  0  0  0  0  0  0  0  0  0  0  0
   27.0830   28.7840   16.9620 C   0  0  0  0  0  0  0  0  0  0  0  0
   27.0350   28.9560   18.4560 C   0  0  0  0  0  0  0  0  0  0  0  0
   28.0330   29.5360   19.1170 C   0  0  0  0  0  0  0  0  0  0  0  0
   25.8780   28.4860   19.2430 C   0  0  2  0  0  0  0  0  0  0  0  0
   27.8250   29.8990   20.5450 C   0  0  0  0  0  0  0  0  0  0  0  0
   25.4140   29.6900   20.0760 C   0  0  0  0  0  0  0  0  0  0  0  0
   26.3690   27.8850   20.5450 C   0  0  0  0  0  0  0  0  0  0  0  0
   26.5310   29.3300   21.0410 C   0  0  1  0  0  0  0  0  0  0  0  0
   25.2990   27.1900   21.3390 C   0  0  0  0  0  0  0  0  0  0  0  0
   27.6370   27.1040   20.4660 C   0  0  0  0  0  0  0  0  0  0  0  0
   29.8670   25.5550   16.9770 C   0  0  0  0  0  0  0  0  0  0  0  0
   28.3450   25.7220   17.0260 C   0  0  0  0  0  0  0  0  0  0  0  0
   27.6030   24.3950   16.9860 C   0  0  0  0  0  0  0  0  0  0  0  0
   26.1110   24.5790   17.0050 C   0  0  0  0  0  0  0  0  0  0  0  0
   25.6380   24.7530   18.4440 C   0  0  0  0  0  0  0  0  0  0  0  0
   25.8140   23.4920   19.2040 N   0  0  0  0  0  0  0  0  0  0  0  0
  1  4  1  0  0  0  0
  2  1  1  0  0  0  0
  2 31  1  0  0  0  0
  3  2  2  0  0  0  0
  5  1  1  0  0  0  0
  6  5  1  1  0  0  0
  6  7  1  0  0  0  0
  7 27  1  1  0  0  0
  8  7  1  1  0  0  0
  8 13  1  0  0  0  0
  8 11  1  0  0  0  0
  9 10  1  0  0  0  0
  9 14  1  1  0  0  0
  9 16  1  0  0  0  0
 11  9  1  0  0  0  0
 12 20  1  1  0  0  0
 12 10  1  0  0  0  0
 13 22  1  6  0  0  0
 13 12  1  0  0  0  0
 14 15  1  0  0  0  0
 16 17  2  0  0  0  0
 18 16  1  0  0  0  0
 19 18  1  0  0  0  0
 21 20  1  0  0  0  0
 23 22  1  0  0  0  0
 23 26  2  0  0  0  0
 24 22  1  0  0  0  0
 25 23  1  0  0  0  0
 27 28  1  0  0  0  0
 29  6  1  0  0  0  0
 30 29  1  0  0  0  0
 31 32  1  0  0  0  0
 32 33  1  0  0  0  0
 33 35  1  0  0  0  0
 33 34  2  0  0  0  0
 34 36  1  0  0  0  0
 35 37  2  0  0  0  0
 36 38  1  0  0  0  0
 37 36  1  0  0  0  0
 38 39  1  0  0  0  0
 39 40  2  0  0  0  0
 39 41  1  0  0  0  0
 40 42  1  0  0  0  0
 41 43  1  1  0  0  0
 41 44  1  0  0  0  0
 42 45  1  0  0  0  0
 44 45  1  0  0  0  0
 44 46  1  0  0  0  0
 45 43  1  6  0  0  0
 47 44  1  0  0  0  0
 48 49  1  0  0  0  0
 50 51  1  0  0  0  0
 50 49  1  0  0  0  0
 51 52  1  0  0  0  0
 52 53  1  0  0  0  0
M  END
>  <REMARK>
 VINA RESULT:    -5.306      3.339      8.175
 INTER + INTRA:         -14.830
 INTER:                  -8.396
 INTRA:                  -6.434
 UNBOUND:                -5.337
 SMILES CC(=O)N[C@@H]1[C@@H](O)C[C@](O)(C(=O)O)O[C@H]1C(O)[C@H](O)CNC(=O)OCc1cn(CC2=CC[C@H]3C[C@@H]2C3(C)C)nn1
 SMILES IDX 21 1 22 2 23 3 20 5 18 6 16 7 15 8 9 9 8 10 14 11 6 12 5 13
 SMILES IDX 10 14 11 16 12 17 13 18 7 20 4 22 2 23 1 25 3 26 17 27 19 29
 SMILES IDX 24 31 25 32 26 33 27 34 40 35 28 36 39 37 29 38 30 39 31 40
 SMILES IDX 35 41 32 42 34 43 36 44 33 45 37 46 38 47
 H PARENT 21 4 10 15 13 19 7 21 4 24 17 28 19 30
 Flexibility Score: inf
  4 active torsions:
  status: ('A' for Active; 'I' for Inactive)
    1  A    between atoms: CA   and  CB  
    2  A    between atoms: CB   and  CG  
    3  A    between atoms: CG   and  CD  
    4  A    between atoms: CD   and  CE  

>  <TORSDO>
F 16

>  <BEGIN_>
RES LYS A 131

$$$$
ligand_82_pose_15_2HRL.pdbqt
 OpenBabel07062320523D

  6  5  0  0  0  0  0  0  0  0999 V2000
   33.1930   34.6630    9.2900 C   0  0  0  0  0  0  0  0  0  0  0  0
   32.0600   35.3600   10.0340 C   0  0  0  0  0  0  0  0  0  0  0  0
   30.7000   34.7810    9.7400 C   0  0  0  0  0  0  0  0  0  0  0  0
   30.5440   34.5060    8.2530 C   0  0  0  0  0  0  0  0  0  0  0  0
   29.1530   34.8890    7.7840 C   0  0  0  0  0  0  0  0  0  0  0  0
   28.4700   35.7580    8.7820 N   0  0  0  0  0  0  0  0  0  0  0  0
  1  2  1  0  0  0  0
  3  2  1  0  0  0  0
  4  3  1  0  0  0  0
  5  4  1  0  0  0  0
  5  6  1  0  0  0  0
M  END
>  <EGIN_R>
ES LYS A 135

>  <REMARK>
  4 active torsions:
  status: ('A' for Active; 'I' for Inactive)
    5  A    between atoms: CA   and  CB  
    6  A    between atoms: CB   and  CG  
    7  A    between atoms: CG   and  CD  
    8  A    between atoms: CD   and  CE  

$$$$
