ligand_4_pose_7_2HRL.pdbqt
 OpenBabel07062320523D

 52 53  0  0  1  0  0  0  0  0999 V2000
   27.1090   28.7550   17.6810 N   0  0  0  0  0  0  0  0  0  0  0  0
   26.3320   29.3930   16.6950 C   0  0  0  0  0  0  0  0  0  0  0  0
   25.1010   29.2040   16.6180 O   0  0  0  0  0  0  0  0  0  0  0  0
   28.1440   28.9630   17.7060 H   0  0  0  0  0  0  0  0  0  0  0  0
   26.5500   27.8580   18.6320 C   0  0  0  0  0  0  0  0  0  0  0  0
   27.4530   27.5560   19.8260 C   0  0  2  0  0  0  0  0  0  0  0  0
   27.9280   28.9450   20.2630 C   0  0  2  0  0  0  0  0  0  0  0  0
   29.4160   29.0520   20.3530 C   0  0  2  0  0  0  0  0  0  0  0  0
   30.8130   28.7230   22.1750 C   0  0  2  0  0  0  0  0  0  0  0  0
   31.7540   29.7740   21.7040 C   0  0  0  0  0  0  0  0  0  0  0  0
   29.9160   28.2090   21.2870 O   0  0  0  0  0  0  0  0  0  0  0  0
   31.1860   30.7610   20.7060 C   0  0  1  0  0  0  0  0  0  0  0  0
   29.7070   30.5130   20.6600 C   0  0  1  0  0  0  0  0  0  0  0  0
   30.1750   29.1570   23.3660 O   0  0  0  0  0  0  0  0  0  0  0  0
   29.6130   29.9430   23.2410 H   0  0  0  0  0  0  0  0  0  0  0  0
   31.6680   27.5530   22.5950 C   0  0  0  0  0  0  0  0  0  0  0  0
   32.0530   26.7570   21.7130 O   0  0  0  0  0  0  0  0  0  0  0  0
   32.0490   27.3290   23.9110 O   0  0  0  0  0  0  0  0  0  0  0  0
   32.9970   27.1060   24.2050 H   0  0  0  0  0  0  0  0  0  0  0  0
   31.4190   32.0780   21.2110 O   0  0  0  0  0  0  0  0  0  0  0  0
   32.1140   32.5380   20.6840 H   0  0  0  0  0  0  0  0  0  0  0  0
   28.9020   31.3610   19.8720 N   0  0  0  0  0  0  0  0  0  0  0  0
   28.2380   32.5220   20.3360 C   0  0  0  0  0  0  0  0  0  0  0  0
   28.7630   31.1270   18.8300 H   0  0  0  0  0  0  0  0  0  0  0  0
   27.4030   33.3910   19.4970 C   0  0  0  0  0  0  0  0  0  0  0  0
   28.4050   32.7900   21.6010 O   0  0  0  0  0  0  0  0  0  0  0  0
   27.2820   29.1760   21.4810 O   0  0  0  0  0  0  0  0  0  0  0  0
   26.7490   30.0080   21.3750 H   0  0  0  0  0  0  0  0  0  0  0  0
   28.5190   26.7700   19.5360 O   0  0  0  0  0  0  0  0  0  0  0  0
   28.2900   25.8880   19.2500 H   0  0  0  0  0  0  0  0  0  0  0  0
   26.9200   30.2590   15.7720 O   0  0  0  0  0  0  0  0  0  0  0  0
   27.1240   31.6060   16.1720 C   0  0  0  0  0  0  0  0  0  0  0  0
   28.5920   31.7500   16.3420 C   0  0  0  0  0  0  0  0  0  0  0  0
   29.3270   32.8400   15.8580 C   0  0  0  0  0  0  0  0  0  0  0  0
   29.4420   30.9850   17.0430 N   0  0  0  0  0  0  0  0  0  0  0  0
   30.5800   32.6570   16.3140 N   0  0  0  0  0  0  0  0  0  0  0  0
   30.6030   31.5810   16.9910 N   0  0  0  0  0  0  0  0  0  0  0  0
   31.6170   33.6060   16.1610 C   0  0  0  0  0  0  0  0  0  0  0  0
   31.8880   34.4840   17.1390 C   0  0  0  0  0  0  0  0  0  0  0  0
   32.2380   33.7290   14.9090 C   0  0  0  0  0  0  0  0  0  0  0  0
   32.7930   35.5170   16.8940 C   0  0  0  0  0  0  0  0  0  0  0  0
   33.1140   34.7190   14.6550 C   0  0  0  0  0  0  0  0  0  0  0  0
   33.4150   35.6430   15.6450 C   0  0  0  0  0  0  0  0  0  0  0  0
   31.3670   34.3030   18.4800 C   0  0  0  0  0  0  0  0  0  0  0  0
   30.3230   35.3460   18.8490 C   0  0  0  0  0  0  0  0  0  0  0  0
   32.5470   34.7710   19.4430 C   0  0  0  0  0  0  0  0  0  0  0  0
   29.8670   25.5550   16.9770 C   0  0  0  0  0  0  0  0  0  0  0  0
   28.3450   25.7220   17.0260 C   0  0  0  0  0  0  0  0  0  0  0  0
   27.6000   24.4080   16.8460 C   0  0  0  0  0  0  0  0  0  0  0  0
   26.6640   24.1260   17.9880 C   0  0  0  0  0  0  0  0  0  0  0  0
   25.3430   23.5910   17.4430 C   0  0  0  0  0  0  0  0  0  0  0  0
   24.4920   24.7050   16.9610 N   0  0  0  0  0  0  0  0  0  0  0  0
  1  4  1  0  0  0  0
  1  5  1  0  0  0  0
  2  1  1  0  0  0  0
  3  2  2  0  0  0  0
  6  5  1  6  0  0  0
  6  7  1  0  0  0  0
  7 27  1  1  0  0  0
  8  7  1  1  0  0  0
  8 13  1  0  0  0  0
  8 11  1  0  0  0  0
  9 16  1  1  0  0  0
  9 14  1  0  0  0  0
 10  9  1  0  0  0  0
 11  9  1  0  0  0  0
 12 20  1  1  0  0  0
 12 10  1  0  0  0  0
 13 22  1  6  0  0  0
 13 12  1  0  0  0  0
 15 14  1  0  0  0  0
 16 18  1  0  0  0  0
 17 16  2  0  0  0  0
 18 19  1  0  0  0  0
 21 20  1  0  0  0  0
 22 23  1  0  0  0  0
 23 26  2  0  0  0  0
 24 22  1  0  0  0  0
 25 23  1  0  0  0  0
 28 27  1  0  0  0  0
 29  6  1  0  0  0  0
 30 29  1  0  0  0  0
 31 32  1  0  0  0  0
 31  2  1  0  0  0  0
 32 33  1  0  0  0  0
 33 35  1  0  0  0  0
 34 36  1  0  0  0  0
 34 33  2  0  0  0  0
 36 37  1  0  0  0  0
 37 35  2  0  0  0  0
 38 36  1  0  0  0  0
 38 39  2  0  0  0  0
 39 44  1  0  0  0  0
 40 38  1  0  0  0  0
 41 39  1  0  0  0  0
 42 40  2  0  0  0  0
 42 43  1  0  0  0  0
 43 41  2  0  0  0  0
 44 45  1  0  0  0  0
 44 46  1  0  0  0  0
 47 48  1  0  0  0  0
 49 48  1  0  0  0  0
 49 50  1  0  0  0  0
 51 50  1  0  0  0  0
 52 51  1  0  0  0  0
M  END
>  <REMARK>
 VINA RESULT:    -4.262      6.645     11.896
 INTER + INTRA:         -14.863
 INTER:                  -8.435
 INTRA:                  -6.428
 UNBOUND:                -7.237
 SMILES CC(=O)N[C@@H]1[C@@H](O)C[C@](O)(C(=O)O)O[C@H]1C(O)[C@H](O)CNC(=O)OCc1cn(-c2ccccc2C(C)C)nn1
 SMILES IDX 21 1 22 2 23 3 20 5 18 6 16 7 15 8 9 9 8 10 14 11 6 12 5 13
 SMILES IDX 10 14 11 16 12 17 13 18 7 20 4 22 2 23 1 25 3 26 17 27 19 29
 SMILES IDX 24 31 25 32 26 33 27 34 39 35 28 36 38 37 29 38 34 39 30 40
 SMILES IDX 33 41 31 42 32 43 35 44 36 45 37 46
 H PARENT 21 4 10 15 13 19 7 21 4 24 17 28 19 30
 Flexibility Score: inf
  4 active torsions:
  status: ('A' for Active; 'I' for Inactive)
    1  A    between atoms: CA   and  CB  
    2  A    between atoms: CB   and  CG  
    3  A    between atoms: CG   and  CD  
    4  A    between atoms: CD   and  CE  

>  <TORSDO>
F 16

>  <BEGIN_>
RES LYS A 131

$$$$
ligand_4_pose_7_2HRL.pdbqt
 OpenBabel07062320523D

  6  5  0  0  0  0  0  0  0  0999 V2000
   33.1930   34.6630    9.2900 C   0  0  0  0  0  0  0  0  0  0  0  0
   32.0600   35.3600   10.0340 C   0  0  0  0  0  0  0  0  0  0  0  0
   30.7570   35.3680    9.2770 C   0  0  0  0  0  0  0  0  0  0  0  0
   29.6460   34.7520   10.1130 C   0  0  0  0  0  0  0  0  0  0  0  0
   28.6690   34.0000    9.2300 C   0  0  0  0  0  0  0  0  0  0  0  0
   28.3930   34.7510    7.9740 N   0  0  0  0  0  0  0  0  0  0  0  0
  1  2  1  0  0  0  0
  3  2  1  0  0  0  0
  3  4  1  0  0  0  0
  5  4  1  0  0  0  0
  6  5  1  0  0  0  0
M  END
>  <EGIN_R>
ES LYS A 135

>  <REMARK>
  4 active torsions:
  status: ('A' for Active; 'I' for Inactive)
    5  A    between atoms: CA   and  CB  
    6  A    between atoms: CB   and  CG  
    7  A    between atoms: CG   and  CD  
    8  A    between atoms: CD   and  CE  

$$$$
