ligand_26_pose_3_2HRL.pdbqt
 OpenBabel07062320523D

 54 55  0  0  1  0  0  0  0  0999 V2000
   25.2800   36.2180    8.9920 N   0  0  0  0  0  0  0  0  0  0  0  0
   25.6080   36.4550   10.3580 C   0  0  0  0  0  0  0  0  0  0  0  0
   25.9220   37.6070   10.7060 O   0  0  0  0  0  0  0  0  0  0  0  0
   25.0200   35.2080    8.7750 H   0  0  0  0  0  0  0  0  0  0  0  0
   25.2880   37.2330    7.9620 C   0  0  0  0  0  0  0  0  0  0  0  0
   23.9740   37.9800    7.8950 C   0  0  2  0  0  0  0  0  0  0  0  0
   22.7900   37.0380    7.8790 C   0  0  1  0  0  0  0  0  0  0  0  0
   21.7180   37.4240    8.8540 C   0  0  2  0  0  0  0  0  0  0  0  0
   21.7380   35.7720   10.5040 C   0  0  2  0  0  0  0  0  0  0  0  0
   20.4090   35.2190   10.0550 C   0  0  0  0  0  0  0  0  0  0  0  0
   21.9890   37.0630   10.1470 O   0  0  0  0  0  0  0  0  0  0  0  0
   20.1100   35.5040    8.6140 C   0  0  1  0  0  0  0  0  0  0  0  0
   20.3410   36.9820    8.3940 C   0  0  1  0  0  0  0  0  0  0  0  0
   22.7640   34.8710   10.1400 O   0  0  0  0  0  0  0  0  0  0  0  0
   22.8170   34.1080   10.7470 H   0  0  0  0  0  0  0  0  0  0  0  0
   21.6990   35.7410   12.0120 C   0  0  0  0  0  0  0  0  0  0  0  0
   21.5650   34.7020   12.6720 O   0  0  0  0  0  0  0  0  0  0  0  0
   21.8310   36.9970   12.6290 O   0  0  0  0  0  0  0  0  0  0  0  0
   22.0260   37.0700   13.6150 H   0  0  0  0  0  0  0  0  0  0  0  0
   20.8280   34.7150    7.7460 O   0  0  0  0  0  0  0  0  0  0  0  0
   21.6880   35.1480    7.5310 H   0  0  0  0  0  0  0  0  0  0  0  0
   19.3890   37.6630    9.2860 N   0  0  0  0  0  0  0  0  0  0  0  0
   18.2110   38.2350    8.7300 C   0  0  0  0  0  0  0  0  0  0  0  0
   19.5480   37.7410   10.3080 H   0  0  0  0  0  0  0  0  0  0  0  0
   17.2600   38.9180    9.6440 C   0  0  0  0  0  0  0  0  0  0  0  0
   18.0180   38.1430    7.4980 O   0  0  0  0  0  0  0  0  0  0  0  0
   22.3040   37.0260    6.5690 O   0  0  0  0  0  0  0  0  0  0  0  0
   22.9750   36.5690    5.9800 H   0  0  0  0  0  0  0  0  0  0  0  0
   23.9700   38.7840    6.7360 O   0  0  0  0  0  0  0  0  0  0  0  0
   23.2160   39.4250    6.7360 H   0  0  0  0  0  0  0  0  0  0  0  0
   25.5900   35.4610   11.3110 O   0  0  0  0  0  0  0  0  0  0  0  0
   25.4090   35.6540   12.6960 C   0  0  0  0  0  0  0  0  0  0  0  0
   25.4590   34.4270   13.4950 C   0  0  0  0  0  0  0  0  0  0  0  0
   24.7750   33.2370   13.2130 C   0  0  0  0  0  0  0  0  0  0  0  0
   26.1470   34.1710   14.6380 N   0  0  0  0  0  0  0  0  0  0  0  0
   25.0670   32.3580   14.1510 N   0  0  0  0  0  0  0  0  0  0  0  0
   25.8830   32.9270   14.9900 N   0  0  0  0  0  0  0  0  0  0  0  0
   24.5390   30.9580   14.2130 C   0  0  1  0  0  0  0  0  0  0  0  0
   23.5100   31.0010   15.3120 C   0  0  0  0  0  0  0  0  0  0  0  0
   23.9730   30.6650   12.9030 C   0  0  0  0  0  0  0  0  0  0  0  0
   22.9240   29.7050   12.7580 C   0  0  2  0  0  0  0  0  0  0  0  0
   23.3430   28.4570   12.9880 O   0  0  0  0  0  0  0  0  0  0  0  0
   21.5370   29.7830   12.4220 C   0  0  0  0  0  0  0  0  0  0  0  0
   20.9020   31.0490   12.4640 C   0  0  0  0  0  0  0  0  0  0  0  0
   20.7480   28.7280   12.0350 C   0  0  0  0  0  0  0  0  0  0  0  0
   19.5780   31.1980   12.1380 C   0  0  0  0  0  0  0  0  0  0  0  0
   19.4110   28.9160   11.7120 C   0  0  0  0  0  0  0  0  0  0  0  0
   18.8060   30.1290   11.7550 C   0  0  0  0  0  0  0  0  0  0  0  0
   29.8670   25.5550   16.9770 C   0  0  0  0  0  0  0  0  0  0  0  0
   28.3450   25.7220   17.0260 C   0  0  0  0  0  0  0  0  0  0  0  0
   27.6010   24.4030   16.8860 C   0  0  0  0  0  0  0  0  0  0  0  0
   26.6430   24.1690   18.0210 C   0  0  0  0  0  0  0  0  0  0  0  0
   25.5360   23.2230   17.5660 C   0  0  0  0  0  0  0  0  0  0  0  0
   24.4510   23.9780   16.8960 N   0  0  0  0  0  0  0  0  0  0  0  0
  1  2  1  0  0  0  0
  2  3  2  0  0  0  0
  2 31  1  0  0  0  0
  4  1  1  0  0  0  0
  5  1  1  0  0  0  0
  6  5  1  6  0  0  0
  7 27  1  6  0  0  0
  7  6  1  0  0  0  0
  8  7  1  6  0  0  0
  8 11  1  0  0  0  0
  9 14  1  6  0  0  0
  9 16  1  0  0  0  0
 10  9  1  0  0  0  0
 11  9  1  0  0  0  0
 12 20  1  6  0  0  0
 12 10  1  0  0  0  0
 13 12  1  0  0  0  0
 13  8  1  0  0  0  0
 13 22  1  1  0  0  0
 14 15  1  0  0  0  0
 16 18  1  0  0  0  0
 16 17  2  0  0  0  0
 18 19  1  0  0  0  0
 21 20  1  0  0  0  0
 22 24  1  0  0  0  0
 23 22  1  0  0  0  0
 23 25  1  0  0  0  0
 26 23  2  0  0  0  0
 28 27  1  0  0  0  0
 29  6  1  0  0  0  0
 30 29  1  0  0  0  0
 31 32  1  0  0  0  0
 32 33  1  0  0  0  0
 33 35  1  0  0  0  0
 34 33  2  0  0  0  0
 34 36  1  0  0  0  0
 35 37  2  0  0  0  0
 36 38  1  0  0  0  0
 36 37  1  0  0  0  0
 38 39  1  1  0  0  0
 40 38  1  0  0  0  0
 41 40  1  0  0  0  0
 41 42  1  6  0  0  0
 43 44  1  0  0  0  0
 43 41  1  0  0  0  0
 45 43  2  0  0  0  0
 46 44  2  0  0  0  0
 47 48  2  0  0  0  0
 47 45  1  0  0  0  0
 48 46  1  0  0  0  0
 49 50  1  0  0  0  0
 51 50  1  0  0  0  0
 51 52  1  0  0  0  0
 53 52  1  0  0  0  0
 54 53  1  0  0  0  0
M  END
>  <REMARK>
 VINA RESULT:    -4.895      7.749     13.417
 INTER + INTRA:         -16.265
 INTER:                  -9.823
 INTRA:                  -6.442
 UNBOUND:                -6.934
 SMILES CC(=O)N[C@@H]1[C@@H](O)C[C@](O)(C(=O)O)O[C@H]1C(O)[C@H](O)CNC(=O)OCc1cn(C(C)CC(=O)c2ccccc2)nn1
 SMILES IDX 21 1 22 2 23 3 20 5 18 6 16 7 15 8 9 9 8 10 14 11 6 12 5 13
 SMILES IDX 10 14 11 16 12 17 13 18 7 20 4 22 2 23 1 25 3 26 17 27 19 29
 SMILES IDX 24 31 25 32 26 33 27 34 41 35 28 36 40 37 29 38 30 39 31 40
 SMILES IDX 32 41 33 42 34 43 35 44 39 45 36 46 38 47 37 48
 H PARENT 21 4 10 15 13 19 7 21 4 24 17 28 19 30
 Flexibility Score: inf
  4 active torsions:
  status: ('A' for Active; 'I' for Inactive)
    1  A    between atoms: CA   and  CB  
    2  A    between atoms: CB   and  CG  
    3  A    between atoms: CG   and  CD  
    4  A    between atoms: CD   and  CE  

>  <TORSDO>
F 18

>  <BEGIN_>
RES LYS A 131

$$$$
ligand_26_pose_3_2HRL.pdbqt
 OpenBabel07062320523D

  6  5  0  0  0  0  0  0  0  0999 V2000
   33.1930   34.6630    9.2900 C   0  0  0  0  0  0  0  0  0  0  0  0
   32.0600   35.3600   10.0340 C   0  0  0  0  0  0  0  0  0  0  0  0
   30.8110   35.5280    9.2080 C   0  0  0  0  0  0  0  0  0  0  0  0
   30.1480   34.1830    8.9580 C   0  0  0  0  0  0  0  0  0  0  0  0
   28.6720   34.3640    8.6550 C   0  0  0  0  0  0  0  0  0  0  0  0
   27.8290   33.6100    9.6240 N   0  0  0  0  0  0  0  0  0  0  0  0
  1  2  1  0  0  0  0
  3  2  1  0  0  0  0
  4  3  1  0  0  0  0
  5  4  1  0  0  0  0
  5  6  1  0  0  0  0
M  END
>  <EGIN_R>
ES LYS A 135

>  <REMARK>
  4 active torsions:
  status: ('A' for Active; 'I' for Inactive)
    5  A    between atoms: CA   and  CB  
    6  A    between atoms: CB   and  CG  
    7  A    between atoms: CG   and  CD  
    8  A    between atoms: CD   and  CE  

$$$$
