ligand_49_pose_3_2HRL.pdbqt
 OpenBabel07062320523D

 48 49  0  0  1  0  0  0  0  0999 V2000
   25.9760   28.4570   20.9030 C   0  0  0  0  0  0  0  0  0  0  0  0
   27.4390   28.1290   21.0130 C   0  0  2  0  0  0  0  0  0  0  0  0
   28.1510   29.0000   19.9970 C   0  0  1  0  0  0  0  0  0  0  0  0
   29.5910   29.2190   20.3360 C   0  0  2  0  0  0  0  0  0  0  0  0
   31.1370   28.7530   21.9980 C   0  0  2  0  0  0  0  0  0  0  0  0
   32.0150   29.5470   21.0430 C   0  0  0  0  0  0  0  0  0  0  0  0
   29.8020   29.0100   21.6790 O   0  0  0  0  0  0  0  0  0  0  0  0
   31.3160   30.8690   20.7970 C   0  0  1  0  0  0  0  0  0  0  0  0
   30.1150   30.5620   19.9110 C   0  0  1  0  0  0  0  0  0  0  0  0
   31.4360   29.2050   23.2780 O   0  0  0  0  0  0  0  0  0  0  0  0
   31.3720   28.4090   23.8910 H   0  0  0  0  0  0  0  0  0  0  0  0
   31.4060   27.3120   21.9270 C   0  0  0  0  0  0  0  0  0  0  0  0
   30.4840   26.4660   22.0330 O   0  0  0  0  0  0  0  0  0  0  0  0
   32.6950   26.8410   21.7400 O   0  0  0  0  0  0  0  0  0  0  0  0
   33.5170   27.4570   21.7820 H   0  0  0  0  0  0  0  0  0  0  0  0
   30.8700   31.3300   22.0470 O   0  0  0  0  0  0  0  0  0  0  0  0
   31.5920   31.9020   22.4170 H   0  0  0  0  0  0  0  0  0  0  0  0
   30.5450   30.5700   18.5280 N   0  0  0  0  0  0  0  0  0  0  0  0
   29.8800   31.3610   17.5650 C   0  0  0  0  0  0  0  0  0  0  0  0
   31.3510   29.9910   18.2310 H   0  0  0  0  0  0  0  0  0  0  0  0
   30.2670   31.4170   16.1340 C   0  0  0  0  0  0  0  0  0  0  0  0
   28.9080   32.0560   17.9410 O   0  0  0  0  0  0  0  0  0  0  0  0
   28.0960   28.3150   18.7820 O   0  0  0  0  0  0  0  0  0  0  0  0
   28.7670   27.6080   18.6980 H   0  0  0  0  0  0  0  0  0  0  0  0
   27.6940   26.8030   20.7520 O   0  0  0  0  0  0  0  0  0  0  0  0
   28.5460   26.7260   20.2440 H   0  0  0  0  0  0  0  0  0  0  0  0
   25.3670   28.1770   19.6410 N   0  0  0  0  0  0  0  0  0  0  0  0
   24.7460   26.9790   19.2710 C   0  0  0  0  0  0  0  0  0  0  0  0
   25.3960   28.9660   18.9190 H   0  0  0  0  0  0  0  0  0  0  0  0
   24.6920   26.0220   20.0770 O   0  0  0  0  0  0  0  0  0  0  0  0
   24.1750   26.8390   17.9920 O   0  0  0  0  0  0  0  0  0  0  0  0
   23.2040   27.7940   17.6080 C   0  0  0  0  0  0  0  0  0  0  0  0
   23.7590   28.6010   16.4990 C   0  0  0  0  0  0  0  0  0  0  0  0
   23.1800   28.6790   15.2390 C   0  0  0  0  0  0  0  0  0  0  0  0
   24.8420   29.3670   16.4500 N   0  0  0  0  0  0  0  0  0  0  0  0
   23.9360   29.4850   14.4960 N   0  0  0  0  0  0  0  0  0  0  0  0
   24.9430   29.8960   15.2420 N   0  0  0  0  0  0  0  0  0  0  0  0
   23.6440   29.8120   13.1040 C   0  0  0  0  0  0  0  0  0  0  0  0
   22.3670   29.1150   12.7310 C   0  0  0  0  0  0  0  0  0  0  0  0
   23.3890   31.2990   12.9950 C   0  0  0  0  0  0  0  0  0  0  0  0
   21.4240   30.1720   12.2510 C   0  0  0  0  0  0  0  0  0  0  0  0
   21.8750   31.4150   12.9680 C   0  0  0  0  0  0  0  0  0  0  0  0
   29.8670   25.5550   16.9770 C   0  0  0  0  0  0  0  0  0  0  0  0
   28.3450   25.7220   17.0260 C   0  0  0  0  0  0  0  0  0  0  0  0
   27.6000   24.4120   16.8220 C   0  0  0  0  0  0  0  0  0  0  0  0
   26.7660   24.0430   18.0170 C   0  0  0  0  0  0  0  0  0  0  0  0
   25.7300   22.9990   17.6120 C   0  0  0  0  0  0  0  0  0  0  0  0
   24.5290   23.6530   17.0430 N   0  0  0  0  0  0  0  0  0  0  0  0
  2  1  1  6  0  0  0
  3 23  1  6  0  0  0
  3  2  1  0  0  0  0
  4  3  1  1  0  0  0
  4  7  1  0  0  0  0
  5 12  1  6  0  0  0
  5 10  1  0  0  0  0
  6  5  1  0  0  0  0
  7  5  1  0  0  0  0
  8  6  1  0  0  0  0
  8 16  1  1  0  0  0
  9 18  1  6  0  0  0
  9  4  1  0  0  0  0
  9  8  1  0  0  0  0
 10 11  1  0  0  0  0
 12 13  2  0  0  0  0
 14 15  1  0  0  0  0
 14 12  1  0  0  0  0
 16 17  1  0  0  0  0
 19 22  2  0  0  0  0
 19 18  1  0  0  0  0
 20 18  1  0  0  0  0
 21 19  1  0  0  0  0
 24 23  1  0  0  0  0
 25  2  1  0  0  0  0
 26 25  1  0  0  0  0
 27  1  1  0  0  0  0
 28 27  1  0  0  0  0
 28 30  2  0  0  0  0
 29 27  1  0  0  0  0
 31 28  1  0  0  0  0
 32 31  1  0  0  0  0
 33 32  1  0  0  0  0
 34 33  2  0  0  0  0
 35 33  1  0  0  0  0
 36 34  1  0  0  0  0
 36 37  1  0  0  0  0
 37 35  2  0  0  0  0
 38 36  1  0  0  0  0
 39 38  1  0  0  0  0
 40 38  1  0  0  0  0
 41 39  1  0  0  0  0
 41 42  1  0  0  0  0
 42 40  1  0  0  0  0
 43 44  1  0  0  0  0
 45 44  1  0  0  0  0
 45 46  1  0  0  0  0
 47 46  1  0  0  0  0
 48 47  1  0  0  0  0
M  END
>  <REMARK>
 VINA RESULT:    -5.348      3.228      6.206
 INTER + INTRA:         -14.282
 INTER:                  -8.601
 INTRA:                  -5.681
 UNBOUND:                -5.026
 SMILES CC(=O)N[C@@H]1[C@@H](O)C[C@](O)(C(=O)O)O[C@H]1C(O)[C@H](O)CNC(=O)OCc1cn(C2CCCC2)nn1
 SMILES IDX 20 1 18 2 16 3 15 4 9 5 8 6 14 7 6 8 5 9 10 10 11 12 12 13
 SMILES IDX 13 14 7 16 4 18 2 19 1 21 3 22 17 23 19 25 21 27 22 28 23 30
 SMILES IDX 24 31 25 32 26 33 27 34 35 35 28 36 34 37 29 38 30 39 33 40
 SMILES IDX 31 41 32 42
 H PARENT 10 11 13 15 7 17 4 20 17 24 19 26 21 29
 Flexibility Score: inf
  4 active torsions:
  status: ('A' for Active; 'I' for Inactive)
    1  A    between atoms: CA   and  CB  
    2  A    between atoms: CB   and  CG  
    3  A    between atoms: CG   and  CD  
    4  A    between atoms: CD   and  CE  

>  <TORSDO>
F 15

>  <BEGIN_>
RES LYS A 131

$$$$
ligand_49_pose_3_2HRL.pdbqt
 OpenBabel07062320523D

  6  5  0  0  0  0  0  0  0  0999 V2000
   33.1930   34.6630    9.2900 C   0  0  0  0  0  0  0  0  0  0  0  0
   32.0600   35.3600   10.0340 C   0  0  0  0  0  0  0  0  0  0  0  0
   30.7320   34.6600    9.9020 C   0  0  0  0  0  0  0  0  0  0  0  0
   30.3420   34.5210    8.4390 C   0  0  0  0  0  0  0  0  0  0  0  0
   28.8330   34.5530    8.2850 C   0  0  0  0  0  0  0  0  0  0  0  0
   28.1640   33.8420    9.4090 N   0  0  0  0  0  0  0  0  0  0  0  0
  1  2  1  0  0  0  0
  3  2  1  0  0  0  0
  4  3  1  0  0  0  0
  5  4  1  0  0  0  0
  5  6  1  0  0  0  0
M  END
>  <EGIN_R>
ES LYS A 135

>  <REMARK>
  4 active torsions:
  status: ('A' for Active; 'I' for Inactive)
    5  A    between atoms: CA   and  CB  
    6  A    between atoms: CB   and  CG  
    7  A    between atoms: CG   and  CD  
    8  A    between atoms: CD   and  CE  

$$$$
