ligand_89_pose_15_2HRL.pdbqt
 OpenBabel07062320523D

 60 63  0  0  1  0  0  0  0  0999 V2000
   31.2380   36.3500   16.6660 N   0  0  0  0  0  0  0  0  0  0  0  0
   32.1750   37.0260   15.8850 C   0  0  0  0  0  0  0  0  0  0  0  0
   33.2900   37.3650   16.2860 O   0  0  0  0  0  0  0  0  0  0  0  0
   30.3030   36.0880   16.1590 H   0  0  0  0  0  0  0  0  0  0  0  0
   31.3750   35.9790   18.0210 C   0  0  0  0  0  0  0  0  0  0  0  0
   31.6430   34.5670   18.2990 C   0  0  2  0  0  0  0  0  0  0  0  0
   31.1770   33.4720   17.4310 C   0  0  1  0  0  0  0  0  0  0  0  0
   29.6260   33.4520   17.5720 C   0  0  2  0  0  0  0  0  0  0  0  0
   29.0810   31.1720   17.7110 C   0  0  2  0  0  0  0  0  0  0  0  0
   28.2190   31.2980   16.4990 C   0  0  0  0  0  0  0  0  0  0  0  0
   29.2850   32.3760   18.3010 O   0  0  0  0  0  0  0  0  0  0  0  0
   28.6550   32.3730   15.5350 C   0  0  1  0  0  0  0  0  0  0  0  0
   28.9750   33.6630   16.2560 C   0  0  1  0  0  0  0  0  0  0  0  0
   30.3430   30.6340   17.3520 O   0  0  0  0  0  0  0  0  0  0  0  0
   30.1390   29.9370   16.6720 H   0  0  0  0  0  0  0  0  0  0  0  0
   28.3870   30.2020   18.6220 C   0  0  0  0  0  0  0  0  0  0  0  0
   27.1500   30.1320   18.6150 O   0  0  0  0  0  0  0  0  0  0  0  0
   29.1240   29.3960   19.4570 O   0  0  0  0  0  0  0  0  0  0  0  0
   30.0270   29.0200   19.1550 H   0  0  0  0  0  0  0  0  0  0  0  0
   29.7360   31.9780   14.7450 O   0  0  0  0  0  0  0  0  0  0  0  0
   29.6210   32.3360   13.8320 H   0  0  0  0  0  0  0  0  0  0  0  0
   27.7110   34.4010   16.3840 N   0  0  0  0  0  0  0  0  0  0  0  0
   27.5990   35.7740   16.0860 C   0  0  0  0  0  0  0  0  0  0  0  0
   26.8320   33.9100   16.7120 H   0  0  0  0  0  0  0  0  0  0  0  0
   26.3180   36.5160   16.2180 C   0  0  0  0  0  0  0  0  0  0  0  0
   28.6150   36.4200   15.6900 O   0  0  0  0  0  0  0  0  0  0  0  0
   31.4870   33.6120   16.0760 O   0  0  0  0  0  0  0  0  0  0  0  0
   32.4680   33.4390   15.9240 H   0  0  0  0  0  0  0  0  0  0  0  0
   31.1470   34.3370   19.6390 O   0  0  0  0  0  0  0  0  0  0  0  0
   31.4080   33.4550   19.9530 H   0  0  0  0  0  0  0  0  0  0  0  0
   31.8850   37.3730   14.5460 O   0  0  0  0  0  0  0  0  0  0  0  0
   32.1150   36.4840   13.4910 C   0  0  0  0  0  0  0  0  0  0  0  0
   30.8320   35.8690   13.0670 C   0  0  0  0  0  0  0  0  0  0  0  0
   29.7880   36.4930   12.3900 C   0  0  0  0  0  0  0  0  0  0  0  0
   30.4110   34.6020   13.2350 N   0  0  0  0  0  0  0  0  0  0  0  0
   28.7790   35.6030   12.1700 N   0  0  0  0  0  0  0  0  0  0  0  0
   29.2120   34.4880   12.7000 N   0  0  0  0  0  0  0  0  0  0  0  0
   27.5690   35.9360   11.4950 C   0  0  0  0  0  0  0  0  0  0  0  0
   27.4520   36.8260   10.4650 N   0  0  0  0  0  0  0  0  0  0  0  0
   26.3030   35.4600   11.7110 C   0  0  0  0  0  0  0  0  0  0  0  0
   26.1690   36.8760   10.0860 C   0  0  0  0  0  0  0  0  0  0  0  0
   25.4250   36.0430   10.8360 N   0  0  0  0  0  0  0  0  0  0  0  0
   25.7990   34.5590   12.5950 C   0  0  0  0  0  0  0  0  0  0  0  0
   24.1120   35.7480   10.8360 C   0  0  0  0  0  0  0  0  0  0  0  0
   24.5080   34.2380   12.6300 N   0  0  0  0  0  0  0  0  0  0  0  0
   26.5440   33.9840   13.4290 O   0  0  0  0  0  0  0  0  0  0  0  0
   23.2580   36.3560    9.9390 C   0  0  0  0  0  0  0  0  0  0  0  0
   23.6620   34.8250   11.7580 C   0  0  0  0  0  0  0  0  0  0  0  0
   21.9020   36.0730    9.9160 C   0  0  0  0  0  0  0  0  0  0  0  0
   22.3010   34.5590   11.7150 C   0  0  0  0  0  0  0  0  0  0  0  0
   21.4350   35.1600   10.8220 C   0  0  0  0  0  0  0  0  0  0  0  0
   23.9100   33.2880   13.5410 C   0  0  0  0  0  0  0  0  0  0  0  0
   24.1310   33.8140   14.9430 C   0  0  0  0  0  0  0  0  0  0  0  0
   24.4880   31.9100   13.4750 C   0  0  0  0  0  0  0  0  0  0  0  0
   29.8670   25.5550   16.9770 C   0  0  0  0  0  0  0  0  0  0  0  0
   28.3450   25.7220   17.0260 C   0  0  0  0  0  0  0  0  0  0  0  0
   27.6010   24.4010   16.9000 C   0  0  0  0  0  0  0  0  0  0  0  0
   26.3830   24.3510   17.7800 C   0  0  0  0  0  0  0  0  0  0  0  0
   26.2840   25.6420   18.5870 C   0  0  0  0  0  0  0  0  0  0  0  0
   24.9860   26.3120   18.3370 N   0  0  0  0  0  0  0  0  0  0  0  0
  1  5  1  0  0  0  0
  2  3  2  0  0  0  0
  2  1  1  0  0  0  0
  4  1  1  0  0  0  0
  6  5  1  6  0  0  0
  6 29  1  0  0  0  0
  7 27  1  6  0  0  0
  7  6  1  0  0  0  0
  8  7  1  6  0  0  0
  8 11  1  0  0  0  0
  9 14  1  6  0  0  0
  9 11  1  0  0  0  0
  9 16  1  0  0  0  0
 10  9  1  0  0  0  0
 12 20  1  1  0  0  0
 12 13  1  0  0  0  0
 12 10  1  0  0  0  0
 13 22  1  1  0  0  0
 13  8  1  0  0  0  0
 15 14  1  0  0  0  0
 16 18  1  0  0  0  0
 17 16  2  0  0  0  0
 19 18  1  0  0  0  0
 21 20  1  0  0  0  0
 22 24  1  0  0  0  0
 23 25  1  0  0  0  0
 23 22  1  0  0  0  0
 26 23  2  0  0  0  0
 28 27  1  0  0  0  0
 29 30  1  0  0  0  0
 31  2  1  0  0  0  0
 32 31  1  0  0  0  0
 33 35  1  0  0  0  0
 33 32  1  0  0  0  0
 34 33  2  0  0  0  0
 36 34  1  0  0  0  0
 36 37  1  0  0  0  0
 37 35  2  0  0  0  0
 38 40  2  0  0  0  0
 38 36  1  0  0  0  0
 39 38  1  0  0  0  0
 40 43  1  0  0  0  0
 41 39  2  0  0  0  0
 41 42  1  0  0  0  0
 42 40  1  0  0  0  0
 43 45  1  0  0  0  0
 43 46  2  0  0  0  0
 44 42  1  0  0  0  0
 44 48  2  0  0  0  0
 45 52  1  0  0  0  0
 47 44  1  0  0  0  0
 48 45  1  0  0  0  0
 49 47  2  0  0  0  0
 49 51  1  0  0  0  0
 50 48  1  0  0  0  0
 51 50  2  0  0  0  0
 52 53  1  0  0  0  0
 54 52  1  0  0  0  0
 55 56  1  0  0  0  0
 57 56  1  0  0  0  0
 57 58  1  0  0  0  0
 58 59  1  0  0  0  0
 60 59  1  0  0  0  0
M  END
>  <REMARK>
 VINA RESULT:    -4.358      3.215      7.328
 INTER + INTRA:         -14.906
 INTER:                  -8.575
 INTRA:                  -6.331
 UNBOUND:                -7.109
 SMILES CC(=O)N[C@@H]1[C@@H](O)C[C@](O)(C(=O)O)O[C@H]1C(O)[C@H](O)CNC(=O)OCc1cn(-c2ncn3c2c(=O)n(C(C)C)c2ccccc23)nn1
 SMILES IDX 21 1 22 2 23 3 20 5 18 6 16 7 15 8 9 9 8 10 14 11 6 12 5 13
 SMILES IDX 10 14 11 16 12 17 13 18 7 20 4 22 2 23 1 25 3 26 17 27 19 29
 SMILES IDX 24 31 25 32 26 33 27 34 47 35 28 36 46 37 29 38 30 39 33 40
 SMILES IDX 31 41 32 42 34 43 45 44 36 45 35 46 44 47 40 48 43 49 41 50
 SMILES IDX 42 51 37 52 38 53 39 54
 H PARENT 21 4 10 15 13 19 7 21 4 24 17 28 19 30
 Flexibility Score: inf
  4 active torsions:
  status: ('A' for Active; 'I' for Inactive)
    1  A    between atoms: CA   and  CB  
    2  A    between atoms: CB   and  CG  
    3  A    between atoms: CG   and  CD  
    4  A    between atoms: CD   and  CE  

>  <TORSDO>
F 16

>  <BEGIN_>
RES LYS A 131

$$$$
ligand_89_pose_15_2HRL.pdbqt
 OpenBabel07062320523D

  6  5  0  0  0  0  0  0  0  0999 V2000
   33.1930   34.6630    9.2900 C   0  0  0  0  0  0  0  0  0  0  0  0
   32.0600   35.3600   10.0340 C   0  0  0  0  0  0  0  0  0  0  0  0
   30.8100   35.5270    9.2090 C   0  0  0  0  0  0  0  0  0  0  0  0
   30.0800   34.2000    9.0680 C   0  0  0  0  0  0  0  0  0  0  0  0
   28.7640   34.3920    8.3380 C   0  0  0  0  0  0  0  0  0  0  0  0
   28.9200   35.3220    7.1860 N   0  0  0  0  0  0  0  0  0  0  0  0
  1  2  1  0  0  0  0
  3  2  1  0  0  0  0
  4  3  1  0  0  0  0
  5  4  1  0  0  0  0
  6  5  1  0  0  0  0
M  END
>  <EGIN_R>
ES LYS A 135

>  <REMARK>
  4 active torsions:
  status: ('A' for Active; 'I' for Inactive)
    5  A    between atoms: CA   and  CB  
    6  A    between atoms: CB   and  CG  
    7  A    between atoms: CG   and  CD  
    8  A    between atoms: CD   and  CE  

$$$$
