ligand_77_pose_15_2HRL.pdbqt
 OpenBabel07062320523D

 61 63  0  0  1  0  0  0  0  0999 V2000
   25.4760   39.5450    6.6540 N   0  0  0  0  0  0  0  0  0  0  0  0
   25.4020   40.2190    7.8960 C   0  0  0  0  0  0  0  0  0  0  0  0
   26.3970   40.7980    8.3470 O   0  0  0  0  0  0  0  0  0  0  0  0
   24.5690   39.0770    6.3430 H   0  0  0  0  0  0  0  0  0  0  0  0
   26.6530   39.4560    5.8220 C   0  0  0  0  0  0  0  0  0  0  0  0
   27.3910   38.2020    6.1420 C   0  0  2  0  0  0  0  0  0  0  0  0
   28.8900   38.4040    6.2280 C   0  0  1  0  0  0  0  0  0  0  0  0
   29.4690   38.1900    7.5850 C   0  0  2  0  0  0  0  0  0  0  0  0
   28.9320   38.6760    9.7860 C   0  0  2  0  0  0  0  0  0  0  0  0
   30.3260   38.3030   10.1860 C   0  0  0  0  0  0  0  0  0  0  0  0
   28.5320   38.1090    8.5900 O   0  0  0  0  0  0  0  0  0  0  0  0
   31.3360   38.4220    9.1030 C   0  0  1  0  0  0  0  0  0  0  0  0
   30.6480   39.0790    7.8940 C   0  0  1  0  0  0  0  0  0  0  0  0
   28.7550   40.0780    9.7810 O   0  0  0  0  0  0  0  0  0  0  0  0
   29.5210   40.4830    9.3400 H   0  0  0  0  0  0  0  0  0  0  0  0
   28.0100   38.1610   10.8420 C   0  0  0  0  0  0  0  0  0  0  0  0
   27.5120   38.9880   11.6670 O   0  0  0  0  0  0  0  0  0  0  0  0
   27.6610   36.8420   10.9800 O   0  0  0  0  0  0  0  0  0  0  0  0
   27.3270   36.3090   10.1800 H   0  0  0  0  0  0  0  0  0  0  0  0
   32.4680   39.1350    9.4680 O   0  0  0  0  0  0  0  0  0  0  0  0
   33.1830   39.0000    8.7680 H   0  0  0  0  0  0  0  0  0  0  0  0
   31.5600   39.0110    6.7590 N   0  0  0  0  0  0  0  0  0  0  0  0
   32.0230   40.2030    6.1480 C   0  0  0  0  0  0  0  0  0  0  0  0
   31.8950   38.1060    6.3670 H   0  0  0  0  0  0  0  0  0  0  0  0
   32.9630   40.1680    4.9720 C   0  0  0  0  0  0  0  0  0  0  0  0
   31.6840   41.3400    6.5400 O   0  0  0  0  0  0  0  0  0  0  0  0
   29.4420   37.5380    5.2760 O   0  0  0  0  0  0  0  0  0  0  0  0
   30.4080   37.7000    5.2480 H   0  0  0  0  0  0  0  0  0  0  0  0
   27.0290   37.1740    5.2850 O   0  0  0  0  0  0  0  0  0  0  0  0
   27.8430   36.6650    5.0410 H   0  0  0  0  0  0  0  0  0  0  0  0
   24.2400   40.2690    8.6590 O   0  0  0  0  0  0  0  0  0  0  0  0
   24.1790   39.7340    9.9730 C   0  0  0  0  0  0  0  0  0  0  0  0
   24.4320   38.2660    9.9860 C   0  0  0  0  0  0  0  0  0  0  0  0
   24.0530   37.4290   11.0000 C   0  0  0  0  0  0  0  0  0  0  0  0
   25.0470   37.5150    9.0610 N   0  0  0  0  0  0  0  0  0  0  0  0
   24.4470   36.1770   10.6690 N   0  0  0  0  0  0  0  0  0  0  0  0
   25.0330   36.2760    9.5090 N   0  0  0  0  0  0  0  0  0  0  0  0
   24.2180   35.0460   11.4930 C   0  0  0  0  0  0  0  0  0  0  0  0
   25.2710   34.4320   12.1370 C   0  0  0  0  0  0  0  0  0  0  0  0
   22.9620   34.5150   11.6870 C   0  0  0  0  0  0  0  0  0  0  0  0
   25.0930   33.3260   12.9510 C   0  0  0  0  0  0  0  0  0  0  0  0
   22.7700   33.3980   12.5070 C   0  0  0  0  0  0  0  0  0  0  0  0
   23.8360   32.8040   13.1380 C   0  0  0  0  0  0  0  0  0  0  0  0
   23.6140   31.4240   14.1540 S   0  0  0  0  0  0  0  0  0  0  0  0
   23.4070   31.8590   15.5650 O   0  0  0  0  0  0  0  0  0  0  0  0
   24.7900   30.4920   14.1260 O   0  0  0  0  0  0  0  0  0  0  0  0
   22.2220   30.5330   13.5480 C   0  0  0  0  0  0  0  0  0  0  0  0
   21.0010   30.7380   14.1340 C   0  0  0  0  0  0  0  0  0  0  0  0
   22.3380   29.6330   12.4930 C   0  0  0  0  0  0  0  0  0  0  0  0
   19.8760   30.0570   13.6870 C   0  0  0  0  0  0  0  0  0  0  0  0
   21.2350   28.9370   12.0230 C   0  0  0  0  0  0  0  0  0  0  0  0
   20.0280   29.1710   12.6380 C   0  0  0  0  0  0  0  0  0  0  0  0
   18.8910   28.4710   12.1750 N   0  0  0  0  0  0  0  0  0  0  0  0
   18.0330   28.9830   11.9110 H   0  0  0  0  0  0  0  0  0  0  0  0
   18.9240   27.4400   12.1020 H   0  0  0  0  0  0  0  0  0  0  0  0
   29.8670   25.5550   16.9770 C   0  0  0  0  0  0  0  0  0  0  0  0
   28.3450   25.7220   17.0260 C   0  0  0  0  0  0  0  0  0  0  0  0
   27.6010   24.4030   16.8860 C   0  0  0  0  0  0  0  0  0  0  0  0
   26.5500   24.2300   17.9470 C   0  0  0  0  0  0  0  0  0  0  0  0
   25.1660   24.3670   17.3200 C   0  0  0  0  0  0  0  0  0  0  0  0
   24.5990   25.7070   17.6030 N   0  0  0  0  0  0  0  0  0  0  0  0
  1  2  1  0  0  0  0
  2  3  2  0  0  0  0
  2 31  1  0  0  0  0
  4  1  1  0  0  0  0
  5  1  1  0  0  0  0
  6  5  1  6  0  0  0
  6  7  1  0  0  0  0
  7 27  1  6  0  0  0
  8  7  1  6  0  0  0
  8 13  1  0  0  0  0
  8 11  1  0  0  0  0
  9 14  1  6  0  0  0
  9 10  1  0  0  0  0
  9 16  1  0  0  0  0
 11  9  1  0  0  0  0
 12 20  1  1  0  0  0
 12 10  1  0  0  0  0
 13 22  1  6  0  0  0
 13 12  1  0  0  0  0
 15 14  1  0  0  0  0
 16 18  1  0  0  0  0
 16 17  2  0  0  0  0
 19 18  1  0  0  0  0
 21 20  1  0  0  0  0
 23 26  2  0  0  0  0
 23 22  1  0  0  0  0
 24 22  1  0  0  0  0
 25 23  1  0  0  0  0
 28 27  1  0  0  0  0
 29  6  1  0  0  0  0
 30 29  1  0  0  0  0
 31 32  1  0  0  0  0
 32 33  1  0  0  0  0
 33 34  2  0  0  0  0
 35 37  2  0  0  0  0
 35 33  1  0  0  0  0
 36 34  1  0  0  0  0
 36 38  1  0  0  0  0
 37 36  1  0  0  0  0
 38 40  2  0  0  0  0
 38 39  1  0  0  0  0
 39 41  2  0  0  0  0
 40 42  1  0  0  0  0
 41 43  1  0  0  0  0
 42 43  2  0  0  0  0
 43 44  1  0  0  0  0
 44 45  2  0  0  0  0
 46 44  2  0  0  0  0
 47 48  2  0  0  0  0
 47 44  1  0  0  0  0
 49 47  1  0  0  0  0
 50 48  1  0  0  0  0
 51 49  2  0  0  0  0
 51 52  1  0  0  0  0
 52 50  2  0  0  0  0
 53 52  1  0  0  0  0
 54 53  1  0  0  0  0
 55 53  1  0  0  0  0
 56 57  1  0  0  0  0
 58 57  1  0  0  0  0
 58 59  1  0  0  0  0
 60 61  1  0  0  0  0
 60 59  1  0  0  0  0
M  END
>  <REMARK>
 VINA RESULT:    -5.115      8.262     13.816
 INTER + INTRA:         -16.128
 INTER:                  -9.781
 INTRA:                  -6.347
 UNBOUND:                -6.527
 SMILES CC(=O)N[C@@H]1[C@@H](O)C[C@](O)(C(=O)O)O[C@H]1C(O)[C@H](O)CNC(=O)OCc1cn(-c2ccc(S(=O)(=O)c3ccc(N)cc3)cc2)nn1
 SMILES IDX 21 1 22 2 23 3 20 5 18 6 16 7 15 8 9 9 8 10 14 11 6 12 5 13
 SMILES IDX 10 14 11 16 12 17 13 18 7 20 4 22 2 23 1 25 3 26 17 27 19 29
 SMILES IDX 24 31 25 32 26 33 27 34 46 35 28 36 45 37 29 38 30 39 44 40
 SMILES IDX 31 41 43 42 32 43 33 44 34 45 35 46 36 47 37 48 42 49 38 50
 SMILES IDX 41 51 39 52 40 53
 H PARENT 21 4 10 15 13 19 7 21 4 24 17 28 19 30 40 54 40 55
 Flexibility Score: inf
  4 active torsions:
  status: ('A' for Active; 'I' for Inactive)
    1  A    between atoms: CA   and  CB  
    2  A    between atoms: CB   and  CG  
    3  A    between atoms: CG   and  CD  
    4  A    between atoms: CD   and  CE  

>  <TORSDO>
F 18

>  <BEGIN_>
RES LYS A 131

$$$$
ligand_77_pose_15_2HRL.pdbqt
 OpenBabel07062320523D

  6  5  0  0  0  0  0  0  0  0999 V2000
   33.1930   34.6630    9.2900 C   0  0  0  0  0  0  0  0  0  0  0  0
   32.0600   35.3600   10.0340 C   0  0  0  0  0  0  0  0  0  0  0  0
   30.7260   34.6770    9.8760 C   0  0  0  0  0  0  0  0  0  0  0  0
   30.3000   34.6610    8.4160 C   0  0  0  0  0  0  0  0  0  0  0  0
   28.7920   34.5480    8.3020 C   0  0  0  0  0  0  0  0  0  0  0  0
   28.2200   33.8160    9.4660 N   0  0  0  0  0  0  0  0  0  0  0  0
  1  2  1  0  0  0  0
  3  2  1  0  0  0  0
  4  3  1  0  0  0  0
  5  4  1  0  0  0  0
  5  6  1  0  0  0  0
M  END
>  <EGIN_R>
ES LYS A 135

>  <REMARK>
  4 active torsions:
  status: ('A' for Active; 'I' for Inactive)
    5  A    between atoms: CA   and  CB  
    6  A    between atoms: CB   and  CG  
    7  A    between atoms: CG   and  CD  
    8  A    between atoms: CD   and  CE  

$$$$
