ligand_81_pose_16_2HRL.pdbqt
 OpenBabel07062320523D

 63 65  0  0  1  0  0  0  0  0999 V2000
   30.3100   36.1950   12.9970 O   0  0  0  0  0  0  0  0  0  0  0  0
   29.8100   35.3000   13.9170 C   0  0  0  0  0  0  0  0  0  0  0  0
   30.1780   33.9040   13.8940 N   0  0  0  0  0  0  0  0  0  0  0  0
   30.8380   33.6450   13.1330 H   0  0  0  0  0  0  0  0  0  0  0  0
   29.0140   35.7290   14.7890 O   0  0  0  0  0  0  0  0  0  0  0  0
   29.6230   33.0100   14.8830 C   0  0  0  0  0  0  0  0  0  0  0  0
   30.7810   32.2710   15.5400 C   0  0  2  0  0  0  0  0  0  0  0  0
   30.8120   32.7170   16.9820 C   0  0  2  0  0  0  0  0  0  0  0  0
   29.5650   32.4300   17.7600 C   0  0  2  0  0  0  0  0  0  0  0  0
   30.5160   32.8170   19.8650 C   0  0  2  0  0  0  0  0  0  0  0  0
   30.6900   31.3120   19.9760 C   0  0  0  0  0  0  0  0  0  0  0  0
   29.6060   33.1760   18.9130 O   0  0  0  0  0  0  0  0  0  0  0  0
   29.4270   30.6510   19.4610 C   0  0  1  0  0  0  0  0  0  0  0  0
   29.2290   30.9990   17.9720 C   0  0  1  0  0  0  0  0  0  0  0  0
   31.7960   33.3290   19.6200 O   0  0  0  0  0  0  0  0  0  0  0  0
   32.3080   32.7680   18.9960 H   0  0  0  0  0  0  0  0  0  0  0  0
   30.0590   33.3810   21.1520 C   0  0  0  0  0  0  0  0  0  0  0  0
   28.8430   33.5800   21.3360 O   0  0  0  0  0  0  0  0  0  0  0  0
   30.9620   33.6840   22.1370 O   0  0  0  0  0  0  0  0  0  0  0  0
   30.7200   33.9470   23.0840 H   0  0  0  0  0  0  0  0  0  0  0  0
   29.4640   29.2900   19.6560 O   0  0  0  0  0  0  0  0  0  0  0  0
   28.5840   28.9380   19.9100 H   0  0  0  0  0  0  0  0  0  0  0  0
   27.8120   30.7090   17.7170 N   0  0  0  0  0  0  0  0  0  0  0  0
   27.4410   30.0220   16.5370 C   0  0  0  0  0  0  0  0  0  0  0  0
   27.0710   31.0020   18.3900 H   0  0  0  0  0  0  0  0  0  0  0  0
   26.0180   29.6940   16.2130 C   0  0  0  0  0  0  0  0  0  0  0  0
   28.3650   29.6830   15.7460 O   0  0  0  0  0  0  0  0  0  0  0  0
   30.8350   34.1470   16.8690 O   0  0  0  0  0  0  0  0  0  0  0  0
   30.3420   34.5450   17.6130 H   0  0  0  0  0  0  0  0  0  0  0  0
   31.9150   32.6050   14.8160 O   0  0  0  0  0  0  0  0  0  0  0  0
   32.2110   31.8730   14.2350 H   0  0  0  0  0  0  0  0  0  0  0  0
   31.5100   36.9240   13.1290 C   0  0  0  0  0  0  0  0  0  0  0  0
   32.3790   36.2790   14.1650 C   0  0  0  0  0  0  0  0  0  0  0  0
   32.6390   36.7120   15.4400 C   0  0  0  0  0  0  0  0  0  0  0  0
   33.0800   35.1330   14.0270 N   0  0  0  0  0  0  0  0  0  0  0  0
   33.4870   35.8370   16.0620 N   0  0  0  0  0  0  0  0  0  0  0  0
   33.7210   34.8960   15.1560 N   0  0  0  0  0  0  0  0  0  0  0  0
   34.0030   35.9460   17.3760 C   0  0  0  0  0  0  0  0  0  0  0  0
   33.2110   35.8070   18.4490 N   0  0  0  0  0  0  0  0  0  0  0  0
   35.3570   36.2320   17.5910 C   0  0  0  0  0  0  0  0  0  0  0  0
   33.6960   35.9380   19.7100 C   0  0  0  0  0  0  0  0  0  0  0  0
   35.8470   36.3670   18.8590 C   0  0  0  0  0  0  0  0  0  0  0  0
   34.9860   36.2130   19.9300 N   0  0  0  0  0  0  0  0  0  0  0  0
   36.2290   36.4180   16.4140 C   0  0  0  0  0  0  0  0  0  0  0  0
   37.1610   35.2740   16.1260 C   0  0  0  0  0  0  0  0  0  0  0  0
   38.4610   35.6720   15.9850 O   0  0  0  0  0  0  0  0  0  0  0  0
   39.3820   34.7870   16.4950 C   0  0  0  0  0  0  0  0  0  0  0  0
   38.7200   33.5410   17.0450 C   0  0  0  0  0  0  0  0  0  0  0  0
   32.8240   35.7820   20.8120 N   0  0  0  0  0  0  0  0  0  0  0  0
   32.0790   35.0640   20.7890 H   0  0  0  0  0  0  0  0  0  0  0  0
   32.9030   36.3710   21.6610 H   0  0  0  0  0  0  0  0  0  0  0  0
   37.2090   36.7730   19.1430 C   0  0  0  0  0  0  0  0  0  0  0  0
   37.8020   37.9580   18.9000 C   0  0  0  0  0  0  0  0  0  0  0  0
   38.0050   35.7940   19.7800 C   0  0  0  0  0  0  0  0  0  0  0  0
   39.1410   38.1900   19.2680 C   0  0  0  0  0  0  0  0  0  0  0  0
   39.3060   36.0070   20.1420 C   0  0  0  0  0  0  0  0  0  0  0  0
   39.9030   37.2290   19.8870 C   0  0  0  0  0  0  0  0  0  0  0  0
   29.8670   25.5550   16.9770 C   0  0  0  0  0  0  0  0  0  0  0  0
   28.3450   25.7220   17.0260 C   0  0  0  0  0  0  0  0  0  0  0  0
   27.6010   24.4030   16.8880 C   0  0  0  0  0  0  0  0  0  0  0  0
   26.4450   24.3010   17.8430 C   0  0  0  0  0  0  0  0  0  0  0  0
   25.6680   23.0180   17.5690 C   0  0  0  0  0  0  0  0  0  0  0  0
   24.2870   23.3300   17.1310 N   0  0  0  0  0  0  0  0  0  0  0  0
  1 32  1  0  0  0  0
  1  2  1  0  0  0  0
  2  5  2  0  0  0  0
  3  2  1  0  0  0  0
  3  6  1  0  0  0  0
  4  3  1  0  0  0  0
  7  6  1  6  0  0  0
  7  8  1  0  0  0  0
  8 28  1  6  0  0  0
  9  8  1  1  0  0  0
  9 14  1  0  0  0  0
  9 12  1  0  0  0  0
 10 15  1  6  0  0  0
 10 11  1  0  0  0  0
 10 17  1  0  0  0  0
 12 10  1  0  0  0  0
 13 21  1  6  0  0  0
 13 11  1  0  0  0  0
 14 23  1  1  0  0  0
 14 13  1  0  0  0  0
 16 15  1  0  0  0  0
 17 18  2  0  0  0  0
 17 19  1  0  0  0  0
 19 20  1  0  0  0  0
 21 22  1  0  0  0  0
 23 25  1  0  0  0  0
 24 23  1  0  0  0  0
 26 24  1  0  0  0  0
 27 24  2  0  0  0  0
 28 29  1  0  0  0  0
 30  7  1  0  0  0  0
 31 30  1  0  0  0  0
 32 33  1  0  0  0  0
 33 34  2  0  0  0  0
 34 36  1  0  0  0  0
 35 33  1  0  0  0  0
 35 37  2  0  0  0  0
 36 38  1  0  0  0  0
 37 36  1  0  0  0  0
 38 40  2  0  0  0  0
 38 39  1  0  0  0  0
 39 41  2  0  0  0  0
 40 42  1  0  0  0  0
 41 43  1  0  0  0  0
 41 49  1  0  0  0  0
 42 52  1  0  0  0  0
 42 43  2  0  0  0  0
 44 40  1  0  0  0  0
 45 44  1  0  0  0  0
 46 45  1  0  0  0  0
 46 47  1  0  0  0  0
 47 48  1  0  0  0  0
 49 51  1  0  0  0  0
 50 49  1  0  0  0  0
 52 54  1  0  0  0  0
 53 52  2  0  0  0  0
 53 55  1  0  0  0  0
 54 56  2  0  0  0  0
 55 57  2  0  0  0  0
 57 56  1  0  0  0  0
 58 59  1  0  0  0  0
 60 59  1  0  0  0  0
 60 61  1  0  0  0  0
 62 61  1  0  0  0  0
 63 62  1  0  0  0  0
M  END
>  <REMARK>
 VINA RESULT:    -4.620      5.946     10.003
 INTER + INTRA:         -16.654
 INTER:                  -8.749
 INTRA:                  -7.905
 UNBOUND:                -7.171
 SMILES CCOCCc1c(-c2ccccc2)nc(N)nc1-n1cc(COC(=O)NC[C@@H](O)C(O)[C@@H]2O[C@@](O)(C(=O)O)C[C@H](O)[C@H]2NC(C)=O)nn1
 SMILES IDX 23 1 24 2 26 3 25 5 27 6 28 7 30 8 32 9 34 10 39 11 33 12
 SMILES IDX 40 13 42 14 35 15 36 17 37 18 38 19 41 21 43 23 44 24 45 26
 SMILES IDX 46 27 31 28 29 30 22 32 21 33 20 34 47 35 19 36 48 37 18 38
 SMILES IDX 17 39 6 40 15 41 7 42 14 43 5 44 4 45 3 46 2 47 1 48 16 49
 SMILES IDX 8 52 9 53 13 54 10 55 12 56 11 57
 H PARENT 26 4 35 16 38 20 41 22 43 25 31 29 29 31 16 50 16 51
 Flexibility Score: inf
  4 active torsions:
  status: ('A' for Active; 'I' for Inactive)
    1  A    between atoms: CA   and  CB  
    2  A    between atoms: CB   and  CG  
    3  A    between atoms: CG   and  CD  
    4  A    between atoms: CD   and  CE  

>  <TORSDO>
F 21

>  <BEGIN_>
RES LYS A 131

$$$$
ligand_81_pose_16_2HRL.pdbqt
 OpenBabel07062320523D

  6  5  0  0  0  0  0  0  0  0999 V2000
   33.1930   34.6630    9.2900 C   0  0  0  0  0  0  0  0  0  0  0  0
   32.0600   35.3600   10.0340 C   0  0  0  0  0  0  0  0  0  0  0  0
   30.8200   35.5530    9.1990 C   0  0  0  0  0  0  0  0  0  0  0  0
   29.7710   34.5090    9.5470 C   0  0  0  0  0  0  0  0  0  0  0  0
   28.7170   34.4310    8.4600 C   0  0  0  0  0  0  0  0  0  0  0  0
   29.1290   35.2040    7.2560 N   0  0  0  0  0  0  0  0  0  0  0  0
  1  2  1  0  0  0  0
  3  4  1  0  0  0  0
  3  2  1  0  0  0  0
  5  4  1  0  0  0  0
  6  5  1  0  0  0  0
M  END
>  <EGIN_R>
ES LYS A 135

>  <REMARK>
  4 active torsions:
  status: ('A' for Active; 'I' for Inactive)
    5  A    between atoms: CA   and  CB  
    6  A    between atoms: CB   and  CG  
    7  A    between atoms: CG   and  CD  
    8  A    between atoms: CD   and  CE  

$$$$
