ligand_27_pose_19_2HRL.pdbqt
 OpenBabel07062320523D

 50 51  0  0  1  0  0  0  0  0999 V2000
   28.4750   30.9030   16.6850 C   0  0  0  0  0  0  0  0  0  0  0  0
   29.6790   31.4500   17.3950 C   0  0  2  0  0  0  0  0  0  0  0  0
   30.6610   32.1090   16.4710 C   0  0  2  0  0  0  0  0  0  0  0  0
   30.6600   33.6270   16.6700 C   0  0  2  0  0  0  0  0  0  0  0  0
   28.9950   34.6980   15.4000 C   0  0  2  0  0  0  0  0  0  0  0  0
   30.0340   35.7150   14.9480 C   0  0  0  0  0  0  0  0  0  0  0  0
   29.4070   34.0720   16.5260 O   0  0  0  0  0  0  0  0  0  0  0  0
   31.2330   34.8580   14.5460 C   0  0  1  0  0  0  0  0  0  0  0  0
   31.7270   34.2030   15.8070 C   0  0  1  0  0  0  0  0  0  0  0  0
   28.7890   33.8570   14.3150 O   0  0  0  0  0  0  0  0  0  0  0  0
   29.4650   34.0650   13.6240 H   0  0  0  0  0  0  0  0  0  0  0  0
   27.7230   35.3980   15.6960 C   0  0  0  0  0  0  0  0  0  0  0  0
   27.1080   35.1210   16.7510 O   0  0  0  0  0  0  0  0  0  0  0  0
   27.1780   36.3530   14.8510 O   0  0  0  0  0  0  0  0  0  0  0  0
   27.4350   37.3350   15.0010 H   0  0  0  0  0  0  0  0  0  0  0  0
   30.8680   33.8560   13.6550 O   0  0  0  0  0  0  0  0  0  0  0  0
   30.5600   33.0280   14.1220 H   0  0  0  0  0  0  0  0  0  0  0  0
   32.4940   35.1980   16.5250 N   0  0  0  0  0  0  0  0  0  0  0  0
   33.7810   35.5650   16.0560 C   0  0  0  0  0  0  0  0  0  0  0  0
   32.1150   35.6610   17.4020 H   0  0  0  0  0  0  0  0  0  0  0  0
   34.5630   36.5870   16.7990 C   0  0  0  0  0  0  0  0  0  0  0  0
   34.2480   35.0270   15.0190 O   0  0  0  0  0  0  0  0  0  0  0  0
   30.2320   31.8090   15.1600 O   0  0  0  0  0  0  0  0  0  0  0  0
   30.5890   32.4420   14.5220 H   0  0  0  0  0  0  0  0  0  0  0  0
   30.3270   30.3950   18.0630 O   0  0  0  0  0  0  0  0  0  0  0  0
   31.2490   30.6530   18.2360 H   0  0  0  0  0  0  0  0  0  0  0  0
   27.4440   31.9320   16.5940 N   0  0  0  0  0  0  0  0  0  0  0  0
   26.2370   31.6870   15.8940 C   0  0  0  0  0  0  0  0  0  0  0  0
   27.6250   32.8440   17.0570 H   0  0  0  0  0  0  0  0  0  0  0  0
   26.0610   30.5680   15.3490 O   0  0  0  0  0  0  0  0  0  0  0  0
   25.2330   32.6360   15.7830 O   0  0  0  0  0  0  0  0  0  0  0  0
   24.3920   32.5900   14.6510 C   0  0  0  0  0  0  0  0  0  0  0  0
   24.8370   33.6130   13.6690 C   0  0  0  0  0  0  0  0  0  0  0  0
   25.4750   33.3800   12.4640 C   0  0  0  0  0  0  0  0  0  0  0  0
   24.7150   34.9510   13.7420 N   0  0  0  0  0  0  0  0  0  0  0  0
   25.7200   34.5600   11.8470 N   0  0  0  0  0  0  0  0  0  0  0  0
   25.2440   35.4930   12.6550 N   0  0  0  0  0  0  0  0  0  0  0  0
   26.3590   34.7500   10.5910 C   0  0  0  0  0  0  0  0  0  0  0  0
   25.6670   35.3700    9.5720 C   0  0  0  0  0  0  0  0  0  0  0  0
   27.6500   34.3430   10.3280 C   0  0  0  0  0  0  0  0  0  0  0  0
   26.2460   35.5770    8.3310 C   0  0  0  0  0  0  0  0  0  0  0  0
   28.2570   34.5330    9.1060 C   0  0  0  0  0  0  0  0  0  0  0  0
   27.5380   35.1570    8.1070 C   0  0  0  0  0  0  0  0  0  0  0  0
   29.9170   33.9940    8.8110 Cl  0  0  0  0  0  0  0  0  0  0  0  0
   29.8670   25.5550   16.9770 C   0  0  0  0  0  0  0  0  0  0  0  0
   28.3450   25.7220   17.0260 C   0  0  0  0  0  0  0  0  0  0  0  0
   27.6010   24.4020   16.8900 C   0  0  0  0  0  0  0  0  0  0  0  0
   26.1570   24.5220   17.2920 C   0  0  0  0  0  0  0  0  0  0  0  0
   25.8800   23.5990   18.4740 C   0  0  0  0  0  0  0  0  0  0  0  0
   25.4870   24.3860   19.6670 N   0  0  0  0  0  0  0  0  0  0  0  0
  2  1  1  6  0  0  0
  2 25  1  0  0  0  0
  3 23  1  6  0  0  0
  3  2  1  0  0  0  0
  4  3  1  6  0  0  0
  5 10  1  6  0  0  0
  5 12  1  0  0  0  0
  5  7  1  0  0  0  0
  6  5  1  0  0  0  0
  7  4  1  0  0  0  0
  8 16  1  6  0  0  0
  8  6  1  0  0  0  0
  8  9  1  0  0  0  0
  9 18  1  1  0  0  0
  9  4  1  0  0  0  0
 11 10  1  0  0  0  0
 12 13  2  0  0  0  0
 14 15  1  0  0  0  0
 14 12  1  0  0  0  0
 16 17  1  0  0  0  0
 18 20  1  0  0  0  0
 19 18  1  0  0  0  0
 19 21  1  0  0  0  0
 22 19  2  0  0  0  0
 24 23  1  0  0  0  0
 25 26  1  0  0  0  0
 27  1  1  0  0  0  0
 27 29  1  0  0  0  0
 28 27  1  0  0  0  0
 30 28  2  0  0  0  0
 31 28  1  0  0  0  0
 32 31  1  0  0  0  0
 33 35  1  0  0  0  0
 33 32  1  0  0  0  0
 34 33  2  0  0  0  0
 36 34  1  0  0  0  0
 36 37  1  0  0  0  0
 37 35  2  0  0  0  0
 38 36  1  0  0  0  0
 39 38  2  0  0  0  0
 40 38  1  0  0  0  0
 41 39  1  0  0  0  0
 42 40  2  0  0  0  0
 43 41  2  0  0  0  0
 43 42  1  0  0  0  0
 44 42  1  0  0  0  0
 45 46  1  0  0  0  0
 47 46  1  0  0  0  0
 47 48  1  0  0  0  0
 48 49  1  0  0  0  0
 49 50  1  0  0  0  0
M  END
>  <REMARK>
 VINA RESULT:    -5.293      4.066      7.040
 INTER + INTRA:         -13.657
 INTER:                  -9.161
 INTRA:                  -4.497
 UNBOUND:                -4.497
 SMILES CC(=O)N[C@@H]1[C@@H](O)C[C@](O)(C(=O)O)O[C@H]1C(O)[C@H](O)CNC(=O)OCc1cn(-c2cccc(Cl)c2)nn1
 SMILES IDX 20 1 18 2 16 3 15 4 9 5 8 6 14 7 6 8 5 9 10 10 11 12 12 13
 SMILES IDX 13 14 7 16 4 18 2 19 1 21 3 22 17 23 19 25 21 27 22 28 23 30
 SMILES IDX 24 31 25 32 26 33 27 34 37 35 28 36 36 37 29 38 30 39 35 40
 SMILES IDX 31 41 33 42 32 43 34 44
 H PARENT 10 11 13 15 7 17 4 20 17 24 19 26 21 29
 Flexibility Score: inf
  4 active torsions:
  status: ('A' for Active; 'I' for Inactive)
    1  A    between atoms: CA   and  CB  
    2  A    between atoms: CB   and  CG  
    3  A    between atoms: CG   and  CD  
    4  A    between atoms: CD   and  CE  

>  <TORSDO>
F 15

>  <BEGIN_>
RES LYS A 131

$$$$
ligand_27_pose_19_2HRL.pdbqt
 OpenBabel07062320523D

  6  5  0  0  0  0  0  0  0  0999 V2000
   33.1930   34.6630    9.2900 C   0  0  0  0  0  0  0  0  0  0  0  0
   32.0600   35.3600   10.0340 C   0  0  0  0  0  0  0  0  0  0  0  0
   32.5060   36.0610   11.2910 C   0  0  0  0  0  0  0  0  0  0  0  0
   32.2120   37.5500   11.2090 C   0  0  0  0  0  0  0  0  0  0  0  0
   31.0350   37.9110   12.0960 C   0  0  0  0  0  0  0  0  0  0  0  0
   29.8110   37.1650   11.6920 N   0  0  0  0  0  0  0  0  0  0  0  0
  1  2  1  0  0  0  0
  2  3  1  0  0  0  0
  4  3  1  0  0  0  0
  4  5  1  0  0  0  0
  6  5  1  0  0  0  0
M  END
>  <EGIN_R>
ES LYS A 135

>  <REMARK>
  4 active torsions:
  status: ('A' for Active; 'I' for Inactive)
    5  A    between atoms: CA   and  CB  
    6  A    between atoms: CB   and  CG  
    7  A    between atoms: CG   and  CD  
    8  A    between atoms: CD   and  CE  

$$$$
