ligand_45_pose_4_2HRL.pdbqt
 OpenBabel07062320523D

 52 52  0  0  1  0  0  0  0  0999 V2000
   25.5920   33.4860   15.0450 O   0  0  0  0  0  0  0  0  0  0  0  0
   25.4660   33.6370   13.6790 C   0  0  0  0  0  0  0  0  0  0  0  0
   26.3410   34.4790   12.9210 N   0  0  0  0  0  0  0  0  0  0  0  0
   27.0750   34.9590   13.4530 H   0  0  0  0  0  0  0  0  0  0  0  0
   24.5550   33.0150   13.0860 O   0  0  0  0  0  0  0  0  0  0  0  0
   26.1490   34.5820   11.5220 C   0  0  0  0  0  0  0  0  0  0  0  0
   25.4840   35.8210   11.0230 C   0  0  2  0  0  0  0  0  0  0  0  0
   25.0160   35.7800    9.6010 C   0  0  1  0  0  0  0  0  0  0  0  0
   23.7320   36.5050    9.3350 C   0  0  2  0  0  0  0  0  0  0  0  0
   21.7030   36.2770    8.2760 C   0  0  2  0  0  0  0  0  0  0  0  0
   21.4480   37.5170    9.1120 C   0  0  0  0  0  0  0  0  0  0  0  0
   22.9300   35.7190    8.5420 O   0  0  0  0  0  0  0  0  0  0  0  0
   22.4960   38.5550    8.8530 C   0  0  1  0  0  0  0  0  0  0  0  0
   23.8620   37.8720    8.7610 C   0  0  1  0  0  0  0  0  0  0  0  0
   21.6830   36.6800    6.9280 O   0  0  0  0  0  0  0  0  0  0  0  0
   22.2680   36.0380    6.4470 H   0  0  0  0  0  0  0  0  0  0  0  0
   20.6240   35.3010    8.4890 C   0  0  0  0  0  0  0  0  0  0  0  0
   20.0080   35.2610    9.5910 O   0  0  0  0  0  0  0  0  0  0  0  0
   20.2500   34.4090    7.5060 O   0  0  0  0  0  0  0  0  0  0  0  0
   20.3270   34.6420    6.5340 H   0  0  0  0  0  0  0  0  0  0  0  0
   22.1940   39.2050    7.6480 O   0  0  0  0  0  0  0  0  0  0  0  0
   21.6840   40.0230    7.8370 H   0  0  0  0  0  0  0  0  0  0  0  0
   24.7430   38.7210    9.5710 N   0  0  0  0  0  0  0  0  0  0  0  0
   25.4180   39.8180    8.9860 C   0  0  0  0  0  0  0  0  0  0  0  0
   24.8640   38.5020   10.5860 H   0  0  0  0  0  0  0  0  0  0  0  0
   26.3160   40.6740    9.8250 C   0  0  0  0  0  0  0  0  0  0  0  0
   25.3040   40.1310    7.7610 O   0  0  0  0  0  0  0  0  0  0  0  0
   26.0370   36.2730    8.7740 O   0  0  0  0  0  0  0  0  0  0  0  0
   26.5480   35.4860    8.4400 H   0  0  0  0  0  0  0  0  0  0  0  0
   26.4100   36.8730   11.1940 O   0  0  0  0  0  0  0  0  0  0  0  0
   27.3030   36.6420   10.8680 H   0  0  0  0  0  0  0  0  0  0  0  0
   25.4990   32.1840   15.6050 C   0  0  0  0  0  0  0  0  0  0  0  0
   26.8540   31.6240   15.8070 C   0  0  0  0  0  0  0  0  0  0  0  0
   28.0420   32.2640   16.0860 C   0  0  0  0  0  0  0  0  0  0  0  0
   27.1800   30.3150   15.7480 N   0  0  0  0  0  0  0  0  0  0  0  0
   29.0390   31.3630   16.1870 N   0  0  0  0  0  0  0  0  0  0  0  0
   28.4720   30.1930   15.9750 N   0  0  0  0  0  0  0  0  0  0  0  0
   30.4230   31.5730   16.4580 C   0  0  0  0  0  0  0  0  0  0  0  0
   31.1660   32.2280   15.3560 C   0  0  0  0  0  0  0  0  0  0  0  0
   31.5180   33.6510   15.4870 C   0  0  0  0  0  0  0  0  0  0  0  0
   31.1120   34.5890   14.5230 N   0  0  0  0  0  0  0  0  0  0  0  0
   30.0590   34.1930   13.6270 C   0  0  0  0  0  0  0  0  0  0  0  0
   30.5460   35.7240   15.2780 C   0  0  0  0  0  0  0  0  0  0  0  0
   30.2220   36.9080   14.4530 C   0  0  0  0  0  0  0  0  0  0  0  0
   32.1890   35.1290   13.7420 C   0  0  0  0  0  0  0  0  0  0  0  0
   33.5500   34.8810   14.2840 C   0  0  0  0  0  0  0  0  0  0  0  0
   29.8670   25.5550   16.9770 C   0  0  0  0  0  0  0  0  0  0  0  0
   28.3450   25.7220   17.0260 C   0  0  0  0  0  0  0  0  0  0  0  0
   27.6010   24.4020   16.8910 C   0  0  0  0  0  0  0  0  0  0  0  0
   26.3050   24.4020   17.6530 C   0  0  0  0  0  0  0  0  0  0  0  0
   26.1980   25.6820   18.4760 C   0  0  0  0  0  0  0  0  0  0  0  0
   25.5700   25.4030   19.7890 N   0  0  0  0  0  0  0  0  0  0  0  0
  1 32  1  0  0  0  0
  2  1  1  0  0  0  0
  3  4  1  0  0  0  0
  3  2  1  0  0  0  0
  5  2  2  0  0  0  0
  6  3  1  0  0  0  0
  7 30  1  0  0  0  0
  7  6  1  6  0  0  0
  8 28  1  6  0  0  0
  8  7  1  0  0  0  0
  9  8  1  6  0  0  0
 10 15  1  6  0  0  0
 10 17  1  0  0  0  0
 10 12  1  0  0  0  0
 10 11  1  0  0  0  0
 12  9  1  0  0  0  0
 13 21  1  6  0  0  0
 13 11  1  0  0  0  0
 14 13  1  0  0  0  0
 14  9  1  0  0  0  0
 14 23  1  1  0  0  0
 16 15  1  0  0  0  0
 17 18  2  0  0  0  0
 19 17  1  0  0  0  0
 20 19  1  0  0  0  0
 21 22  1  0  0  0  0
 23 25  1  0  0  0  0
 24 23  1  0  0  0  0
 24 26  1  0  0  0  0
 27 24  2  0  0  0  0
 29 28  1  0  0  0  0
 31 30  1  0  0  0  0
 32 33  1  0  0  0  0
 33 34  2  0  0  0  0
 34 36  1  0  0  0  0
 35 33  1  0  0  0  0
 35 37  2  0  0  0  0
 36 38  1  0  0  0  0
 37 36  1  0  0  0  0
 39 40  1  0  0  0  0
 39 38  1  0  0  0  0
 41 43  1  0  0  0  0
 41 40  1  0  0  0  0
 42 41  1  0  0  0  0
 44 43  1  0  0  0  0
 45 46  1  0  0  0  0
 45 41  1  0  0  0  0
 47 48  1  0  0  0  0
 49 48  1  0  0  0  0
 49 50  1  0  0  0  0
 50 51  1  0  0  0  0
 51 52  1  0  0  0  0
M  END
>  <REMARK>
 VINA RESULT:    -4.372      7.042     11.980
 INTER + INTRA:         -14.719
 INTER:                  -9.502
 INTRA:                  -5.217
 UNBOUND:                -5.875
 SMILES CC[N+](C)(CC)CCCn1cc(COC(=O)NC[C@@H](O)C(O)[C@@H]2O[C@@](O)(C(=O)O)C[C@H](O)[C@H]2NC(C)=O)nn1
 SMILES IDX 14 1 15 2 17 3 16 5 18 6 19 7 21 8 23 9 25 10 30 11 24 12
 SMILES IDX 31 13 33 14 26 15 27 17 28 18 29 19 32 21 34 23 35 24 36 26
 SMILES IDX 37 27 22 28 20 30 13 32 12 33 11 34 38 35 10 36 39 37 9 38
 SMILES IDX 8 39 7 40 3 41 4 42 2 43 1 44 5 45 6 46
 H PARENT 17 4 26 16 29 20 32 22 34 25 22 29 20 31
 Flexibility Score: inf
  4 active torsions:
  status: ('A' for Active; 'I' for Inactive)
    1  A    between atoms: CA   and  CB  
    2  A    between atoms: CB   and  CG  
    3  A    between atoms: CG   and  CD  
    4  A    between atoms: CD   and  CE  

>  <TORSDO>
F 20

>  <BEGIN_>
RES LYS A 131

$$$$
ligand_45_pose_4_2HRL.pdbqt
 OpenBabel07062320523D

  6  5  0  0  0  0  0  0  0  0999 V2000
   33.1930   34.6630    9.2900 C   0  0  0  0  0  0  0  0  0  0  0  0
   32.0600   35.3600   10.0340 C   0  0  0  0  0  0  0  0  0  0  0  0
   30.7120   34.7240    9.8110 C   0  0  0  0  0  0  0  0  0  0  0  0
   30.4640   34.4990    8.3280 C   0  0  0  0  0  0  0  0  0  0  0  0
   29.0180   34.7950    7.9780 C   0  0  0  0  0  0  0  0  0  0  0  0
   28.9180   35.5400    6.6930 N   0  0  0  0  0  0  0  0  0  0  0  0
  1  2  1  0  0  0  0
  3  2  1  0  0  0  0
  4  3  1  0  0  0  0
  5  4  1  0  0  0  0
  6  5  1  0  0  0  0
M  END
>  <EGIN_R>
ES LYS A 135

>  <REMARK>
  4 active torsions:
  status: ('A' for Active; 'I' for Inactive)
    5  A    between atoms: CA   and  CB  
    6  A    between atoms: CB   and  CG  
    7  A    between atoms: CG   and  CD  
    8  A    between atoms: CD   and  CE  

$$$$
