ligand_57_pose_17_2HRL.pdbqt
 OpenBabel07062320523D

 50 51  0  0  1  0  0  0  0  0999 V2000
   27.6730   35.6280    6.8530 C   0  0  0  0  0  0  0  0  0  0  0  0
   27.4600   36.8510    6.0240 C   0  0  2  0  0  0  0  0  0  0  0  0
   28.5550   37.8800    6.2120 C   0  0  2  0  0  0  0  0  0  0  0  0
   28.0020   39.2650    5.9530 C   0  0  2  0  0  0  0  0  0  0  0  0
   26.7850   40.5580    4.4360 C   0  0  2  0  0  0  0  0  0  0  0  0
   27.7720   41.6790    4.5630 C   0  0  0  0  0  0  0  0  0  0  0  0
   27.2170   39.3310    4.8450 O   0  0  0  0  0  0  0  0  0  0  0  0
   28.4960   41.6310    5.8820 C   0  0  1  0  0  0  0  0  0  0  0  0
   29.1300   40.2460    5.9860 C   0  0  1  0  0  0  0  0  0  0  0  0
   26.3580   40.5190    3.0790 O   0  0  0  0  0  0  0  0  0  0  0  0
   26.8870   39.8660    2.5590 H   0  0  0  0  0  0  0  0  0  0  0  0
   25.5890   40.8990    5.2490 C   0  0  0  0  0  0  0  0  0  0  0  0
   25.1150   42.0620    5.2050 O   0  0  0  0  0  0  0  0  0  0  0  0
   24.9290   40.0090    6.0810 O   0  0  0  0  0  0  0  0  0  0  0  0
   25.3330   39.1140    6.3600 H   0  0  0  0  0  0  0  0  0  0  0  0
   29.4950   42.6050    5.9570 O   0  0  0  0  0  0  0  0  0  0  0  0
   29.9860   42.7060    5.1120 H   0  0  0  0  0  0  0  0  0  0  0  0
   29.7670   40.2300    7.3090 N   0  0  0  0  0  0  0  0  0  0  0  0
   31.1290   39.9130    7.4830 C   0  0  0  0  0  0  0  0  0  0  0  0
   29.1670   40.4640    8.1110 H   0  0  0  0  0  0  0  0  0  0  0  0
   31.7670   39.9020    8.8460 C   0  0  0  0  0  0  0  0  0  0  0  0
   31.8140   39.6360    6.4650 O   0  0  0  0  0  0  0  0  0  0  0  0
   29.6070   37.5640    5.3840 O   0  0  0  0  0  0  0  0  0  0  0  0
   30.4530   37.9510    5.7250 H   0  0  0  0  0  0  0  0  0  0  0  0
   26.2430   37.4480    6.4300 O   0  0  0  0  0  0  0  0  0  0  0  0
   26.3350   37.8580    7.3300 H   0  0  0  0  0  0  0  0  0  0  0  0
   26.7100   35.6270    7.9330 N   0  0  0  0  0  0  0  0  0  0  0  0
   26.7520   34.7430    9.0450 C   0  0  0  0  0  0  0  0  0  0  0  0
   25.8930   36.3090    7.9540 H   0  0  0  0  0  0  0  0  0  0  0  0
   27.6660   33.9090    9.1210 O   0  0  0  0  0  0  0  0  0  0  0  0
   25.8030   34.7790   10.0580 O   0  0  0  0  0  0  0  0  0  0  0  0
   25.2990   36.0130   10.5300 C   0  0  0  0  0  0  0  0  0  0  0  0
   24.1060   36.4270    9.7480 C   0  0  0  0  0  0  0  0  0  0  0  0
   22.7970   36.4300   10.1370 C   0  0  0  0  0  0  0  0  0  0  0  0
   24.1120   36.8830    8.4820 N   0  0  0  0  0  0  0  0  0  0  0  0
   22.0400   36.8790    9.1210 N   0  0  0  0  0  0  0  0  0  0  0  0
   22.8830   37.1480    8.1210 N   0  0  0  0  0  0  0  0  0  0  0  0
   20.6020   37.0320    9.1330 C   0  0  0  0  0  0  0  0  0  0  0  0
   19.9790   36.3230   10.3140 C   0  0  0  0  0  0  0  0  0  0  0  0
   19.9940   36.6160    7.8270 C   0  0  0  0  0  0  0  0  0  0  0  0
   19.7460   34.8540   10.0490 C   0  0  0  0  0  0  0  0  0  0  0  0
   19.8460   35.1360    7.6670 C   0  0  0  0  0  0  0  0  0  0  0  0
   19.1220   34.6080    8.7830 N   0  0  0  0  0  0  0  0  0  0  0  0
   17.7570   35.0450    8.7290 C   0  0  0  0  0  0  0  0  0  0  0  0
   29.8670   25.5550   16.9770 C   0  0  0  0  0  0  0  0  0  0  0  0
   28.3450   25.7220   17.0260 C   0  0  0  0  0  0  0  0  0  0  0  0
   27.6010   24.4020   16.8920 C   0  0  0  0  0  0  0  0  0  0  0  0
   26.1660   24.5140   17.3280 C   0  0  0  0  0  0  0  0  0  0  0  0
   25.9780   23.7800   18.6520 C   0  0  0  0  0  0  0  0  0  0  0  0
   24.9710   22.7020   18.5090 N   0  0  0  0  0  0  0  0  0  0  0  0
  1 27  1  0  0  0  0
  2  3  1  0  0  0  0
  2 25  1  0  0  0  0
  2  1  1  1  0  0  0
  3 23  1  6  0  0  0
  4  9  1  0  0  0  0
  4  3  1  6  0  0  0
  5 10  1  6  0  0  0
  5  6  1  0  0  0  0
  5  7  1  0  0  0  0
  5 12  1  0  0  0  0
  6  8  1  0  0  0  0
  7  4  1  0  0  0  0
  8 16  1  6  0  0  0
  8  9  1  0  0  0  0
  9 18  1  1  0  0  0
 11 10  1  0  0  0  0
 12 14  1  0  0  0  0
 13 12  2  0  0  0  0
 14 15  1  0  0  0  0
 17 16  1  0  0  0  0
 18 19  1  0  0  0  0
 18 20  1  0  0  0  0
 19 21  1  0  0  0  0
 22 19  2  0  0  0  0
 23 24  1  0  0  0  0
 25 26  1  0  0  0  0
 27 29  1  0  0  0  0
 27 28  1  0  0  0  0
 28 30  2  0  0  0  0
 28 31  1  0  0  0  0
 31 32  1  0  0  0  0
 33 34  2  0  0  0  0
 33 32  1  0  0  0  0
 35 33  1  0  0  0  0
 36 38  1  0  0  0  0
 36 34  1  0  0  0  0
 37 35  2  0  0  0  0
 37 36  1  0  0  0  0
 38 39  1  0  0  0  0
 40 38  1  0  0  0  0
 41 39  1  0  0  0  0
 42 40  1  0  0  0  0
 42 43  1  0  0  0  0
 43 41  1  0  0  0  0
 44 43  1  0  0  0  0
 45 46  1  0  0  0  0
 47 46  1  0  0  0  0
 47 48  1  0  0  0  0
 48 49  1  0  0  0  0
 50 49  1  0  0  0  0
M  END
>  <REMARK>
 VINA RESULT:    -4.268      8.519     15.578
 INTER + INTRA:         -13.174
 INTER:                  -8.788
 INTRA:                  -4.385
 UNBOUND:                -5.786
 SMILES CC(=O)N[C@@H]1[C@@H](O)C[C@](O)(C(=O)O)O[C@H]1C(O)[C@H](O)CNC(=O)OCc1cn(C2CCN(C)CC2)nn1
 SMILES IDX 20 1 18 2 16 3 15 4 9 5 8 6 14 7 6 8 5 9 10 10 11 12 12 13
 SMILES IDX 13 14 7 16 4 18 2 19 1 21 3 22 17 23 19 25 21 27 22 28 23 30
 SMILES IDX 24 31 25 32 26 33 27 34 37 35 28 36 36 37 29 38 30 39 35 40
 SMILES IDX 31 41 34 42 32 43 33 44
 H PARENT 10 11 13 15 7 17 4 20 17 24 19 26 21 29
 Flexibility Score: inf
  4 active torsions:
  status: ('A' for Active; 'I' for Inactive)
    1  A    between atoms: CA   and  CB  
    2  A    between atoms: CB   and  CG  
    3  A    between atoms: CG   and  CD  
    4  A    between atoms: CD   and  CE  

>  <TORSDO>
F 15

>  <BEGIN_>
RES LYS A 131

$$$$
ligand_57_pose_17_2HRL.pdbqt
 OpenBabel07062320523D

  6  5  0  0  0  0  0  0  0  0999 V2000
   33.1930   34.6630    9.2900 C   0  0  0  0  0  0  0  0  0  0  0  0
   32.0600   35.3600   10.0340 C   0  0  0  0  0  0  0  0  0  0  0  0
   30.7600   35.3790    9.2710 C   0  0  0  0  0  0  0  0  0  0  0  0
   30.0200   36.6870    9.5060 C   0  0  0  0  0  0  0  0  0  0  0  0
   29.9250   36.9860   10.9890 C   0  0  0  0  0  0  0  0  0  0  0  0
   28.8490   36.1810   11.6310 N   0  0  0  0  0  0  0  0  0  0  0  0
  1  2  1  0  0  0  0
  3  4  1  0  0  0  0
  3  2  1  0  0  0  0
  4  5  1  0  0  0  0
  5  6  1  0  0  0  0
M  END
>  <EGIN_R>
ES LYS A 135

>  <REMARK>
  4 active torsions:
  status: ('A' for Active; 'I' for Inactive)
    5  A    between atoms: CA   and  CB  
    6  A    between atoms: CB   and  CG  
    7  A    between atoms: CG   and  CD  
    8  A    between atoms: CD   and  CE  

$$$$
