ligand_5_pose_18_2HRL.pdbqt
 OpenBabel07062320523D

 51 52  0  0  1  0  0  0  0  0999 V2000
   29.6540   30.8260   17.2620 N   0  0  0  0  0  0  0  0  0  0  0  0
   28.9600   30.5750   18.4660 C   0  0  0  0  0  0  0  0  0  0  0  0
   29.2860   31.0970   19.5420 O   0  0  0  0  0  0  0  0  0  0  0  0
   29.2800   30.2870   16.4160 H   0  0  0  0  0  0  0  0  0  0  0  0
   30.7500   31.6780   17.0340 C   0  0  0  0  0  0  0  0  0  0  0  0
   30.6750   32.7120   16.0050 C   0  0  2  0  0  0  0  0  0  0  0  0
   29.7400   33.8060   16.1380 C   0  0  1  0  0  0  0  0  0  0  0  0
   29.9430   35.0000   15.1810 C   0  0  2  0  0  0  0  0  0  0  0  0
   29.3340   35.2140   12.9120 C   0  0  2  0  0  0  0  0  0  0  0  0
   30.7750   34.9080   12.4700 C   0  0  0  0  0  0  0  0  0  0  0  0
   29.1580   34.6320   14.1020 O   0  0  0  0  0  0  0  0  0  0  0  0
   31.6530   35.6230   13.4230 C   0  0  1  0  0  0  0  0  0  0  0  0
   31.3340   35.3300   14.9000 C   0  0  1  0  0  0  0  0  0  0  0  0
   28.5560   34.4520   11.9980 O   0  0  0  0  0  0  0  0  0  0  0  0
   28.9220   33.5410   11.8960 H   0  0  0  0  0  0  0  0  0  0  0  0
   28.9590   36.6050   12.7600 C   0  0  0  0  0  0  0  0  0  0  0  0
   29.0820   37.1790   11.6490 O   0  0  0  0  0  0  0  0  0  0  0  0
   28.4460   37.4230   13.7690 O   0  0  0  0  0  0  0  0  0  0  0  0
   28.1740   38.3940   13.6010 H   0  0  0  0  0  0  0  0  0  0  0  0
   33.0180   35.3410   13.2540 O   0  0  0  0  0  0  0  0  0  0  0  0
   33.4100   36.1950   12.8890 H   0  0  0  0  0  0  0  0  0  0  0  0
   31.8950   36.4720   15.5560 N   0  0  0  0  0  0  0  0  0  0  0  0
   33.1280   36.5670   16.2010 C   0  0  0  0  0  0  0  0  0  0  0  0
   31.2830   37.3420   15.5390 H   0  0  0  0  0  0  0  0  0  0  0  0
   33.5780   37.8370   16.8500 C   0  0  0  0  0  0  0  0  0  0  0  0
   33.8370   35.5550   16.2160 O   0  0  0  0  0  0  0  0  0  0  0  0
   28.4330   33.3360   16.0590 O   0  0  0  0  0  0  0  0  0  0  0  0
   28.3080   32.4840   16.5480 H   0  0  0  0  0  0  0  0  0  0  0  0
   30.6450   32.1020   14.7180 O   0  0  0  0  0  0  0  0  0  0  0  0
   31.4370   31.5140   14.6050 H   0  0  0  0  0  0  0  0  0  0  0  0
   27.8490   29.7060   18.4970 O   0  0  0  0  0  0  0  0  0  0  0  0
   26.5490   30.2410   18.4860 C   0  0  0  0  0  0  0  0  0  0  0  0
   26.0630   30.3360   17.1000 C   0  0  0  0  0  0  0  0  0  0  0  0
   24.8560   29.7780   16.6640 C   0  0  0  0  0  0  0  0  0  0  0  0
   26.5840   30.9140   16.0210 N   0  0  0  0  0  0  0  0  0  0  0  0
   24.7130   30.0470   15.3530 N   0  0  0  0  0  0  0  0  0  0  0  0
   25.7910   30.7430   14.9980 N   0  0  0  0  0  0  0  0  0  0  0  0
   23.6350   29.6700   14.5080 C   0  0  0  0  0  0  0  0  0  0  0  0
   23.5930   29.9700   13.1660 C   0  0  0  0  0  0  0  0  0  0  0  0
   22.5490   28.9590   15.0240 C   0  0  0  0  0  0  0  0  0  0  0  0
   22.5300   29.5910   12.3550 C   0  0  0  0  0  0  0  0  0  0  0  0
   21.4930   28.5830   14.2170 C   0  0  0  0  0  0  0  0  0  0  0  0
   21.4670   28.8910   12.8770 C   0  0  0  0  0  0  0  0  0  0  0  0
   20.4280   28.5210   12.0780 O   0  0  0  0  0  0  0  0  0  0  0  0
   19.3880   29.4350   11.8060 C   0  0  0  0  0  0  0  0  0  0  0  0
   29.8670   25.5550   16.9770 C   0  0  0  0  0  0  0  0  0  0  0  0
   28.3450   25.7220   17.0260 C   0  0  0  0  0  0  0  0  0  0  0  0
   27.6010   24.4040   16.8740 C   0  0  0  0  0  0  0  0  0  0  0  0
   26.1720   24.5050   17.3320 C   0  0  0  0  0  0  0  0  0  0  0  0
   25.9640   23.6120   18.5510 C   0  0  0  0  0  0  0  0  0  0  0  0
   24.5270   23.2940   18.7220 N   0  0  0  0  0  0  0  0  0  0  0  0
  1  2  1  0  0  0  0
  2 31  1  0  0  0  0
  2  3  2  0  0  0  0
  4  1  1  0  0  0  0
  5  1  1  0  0  0  0
  6  7  1  0  0  0  0
  6  5  1  1  0  0  0
  7 27  1  6  0  0  0
  8  7  1  1  0  0  0
  9 14  1  6  0  0  0
  9 11  1  0  0  0  0
 10  9  1  0  0  0  0
 10 12  1  0  0  0  0
 11  8  1  0  0  0  0
 12 20  1  6  0  0  0
 12 13  1  0  0  0  0
 13  8  1  0  0  0  0
 13 22  1  1  0  0  0
 15 14  1  0  0  0  0
 16  9  1  0  0  0  0
 16 18  1  0  0  0  0
 17 16  2  0  0  0  0
 19 18  1  0  0  0  0
 21 20  1  0  0  0  0
 22 23  1  0  0  0  0
 23 26  2  0  0  0  0
 23 25  1  0  0  0  0
 24 22  1  0  0  0  0
 27 28  1  0  0  0  0
 29  6  1  0  0  0  0
 30 29  1  0  0  0  0
 32 31  1  0  0  0  0
 33 32  1  0  0  0  0
 34 33  2  0  0  0  0
 35 33  1  0  0  0  0
 36 34  1  0  0  0  0
 37 36  1  0  0  0  0
 37 35  2  0  0  0  0
 38 40  1  0  0  0  0
 38 36  1  0  0  0  0
 39 38  2  0  0  0  0
 41 43  2  0  0  0  0
 41 39  1  0  0  0  0
 42 40  2  0  0  0  0
 43 42  1  0  0  0  0
 44 43  1  0  0  0  0
 45 44  1  0  0  0  0
 46 47  1  0  0  0  0
 48 47  1  0  0  0  0
 48 49  1  0  0  0  0
 49 50  1  0  0  0  0
 50 51  1  0  0  0  0
M  END
>  <REMARK>
 VINA RESULT:    -4.778      4.935      9.420
 INTER + INTRA:         -13.775
 INTER:                  -8.549
 INTRA:                  -5.226
 UNBOUND:                -5.226
 SMILES COc1ccc(-n2cc(COC(=O)NC[C@@H](O)C(O)[C@@H]3O[C@@](O)(C(=O)O)C[C@H](O)[C@H]3NC(C)=O)nn2)cc1
 SMILES IDX 14 1 12 2 13 3 15 5 16 6 18 7 20 8 22 9 27 10 21 11 28 12
 SMILES IDX 30 13 23 14 24 16 25 17 26 18 29 20 31 22 32 23 33 25 34 26
 SMILES IDX 19 27 17 29 11 31 10 32 9 33 8 34 35 35 7 36 36 37 6 38 5 39
 SMILES IDX 37 40 4 41 38 42 3 43 2 44 1 45
 H PARENT 14 4 23 15 26 19 29 21 31 24 19 28 17 30
 Flexibility Score: inf
  4 active torsions:
  status: ('A' for Active; 'I' for Inactive)
    1  A    between atoms: CA   and  CB  
    2  A    between atoms: CB   and  CG  
    3  A    between atoms: CG   and  CD  
    4  A    between atoms: CD   and  CE  

>  <TORSDO>
F 16

>  <BEGIN_>
RES LYS A 131

$$$$
ligand_5_pose_18_2HRL.pdbqt
 OpenBabel07062320523D

  6  5  0  0  0  0  0  0  0  0999 V2000
   33.1930   34.6630    9.2900 C   0  0  0  0  0  0  0  0  0  0  0  0
   32.0600   35.3600   10.0340 C   0  0  0  0  0  0  0  0  0  0  0  0
   30.8400   35.6020    9.1840 C   0  0  0  0  0  0  0  0  0  0  0  0
   30.1720   34.2850    8.8170 C   0  0  0  0  0  0  0  0  0  0  0  0
   28.7370   34.5180    8.3850 C   0  0  0  0  0  0  0  0  0  0  0  0
   28.6770   35.3350    7.1410 N   0  0  0  0  0  0  0  0  0  0  0  0
  1  2  1  0  0  0  0
  3  2  1  0  0  0  0
  4  3  1  0  0  0  0
  5  4  1  0  0  0  0
  6  5  1  0  0  0  0
M  END
>  <EGIN_R>
ES LYS A 135

>  <REMARK>
  4 active torsions:
  status: ('A' for Active; 'I' for Inactive)
    5  A    between atoms: CA   and  CB  
    6  A    between atoms: CB   and  CG  
    7  A    between atoms: CG   and  CD  
    8  A    between atoms: CD   and  CE  

$$$$
