ligand_21_pose_6_2HRL.pdbqt
 OpenBabel07062320523D

 54 55  0  0  1  0  0  0  0  0999 V2000
   31.7320   35.4820   15.4840 N   0  0  0  0  0  0  0  0  0  0  0  0
   31.8230   36.1380   14.2210 C   0  0  0  0  0  0  0  0  0  0  0  0
   32.4230   35.5550   13.2930 O   0  0  0  0  0  0  0  0  0  0  0  0
   31.2320   35.9770   16.2480 H   0  0  0  0  0  0  0  0  0  0  0  0
   32.3200   34.1840   15.6870 C   0  0  0  0  0  0  0  0  0  0  0  0
   31.1900   33.1490   15.7190 C   0  0  2  0  0  0  0  0  0  0  0  0
   31.1110   32.5560   17.0990 C   0  0  2  0  0  0  0  0  0  0  0  0
   29.8930   31.6780   17.1880 C   0  0  2  0  0  0  0  0  0  0  0  0
   27.7150   31.5090   16.3890 C   0  0  2  0  0  0  0  0  0  0  0  0
   27.1360   31.8100   17.7520 C   0  0  0  0  0  0  0  0  0  0  0  0
   28.9440   32.1450   16.3340 O   0  0  0  0  0  0  0  0  0  0  0  0
   28.0170   31.1960   18.7850 C   0  0  1  0  0  0  0  0  0  0  0  0
   29.4750   31.5140   18.6060 C   0  0  1  0  0  0  0  0  0  0  0  0
   26.8850   32.1860   15.4710 O   0  0  0  0  0  0  0  0  0  0  0  0
   27.3340   32.3190   14.6050 H   0  0  0  0  0  0  0  0  0  0  0  0
   27.7640   30.0690   16.0700 C   0  0  0  0  0  0  0  0  0  0  0  0
   26.8600   29.2510   16.3670 O   0  0  0  0  0  0  0  0  0  0  0  0
   28.8650   29.5660   15.4020 O   0  0  0  0  0  0  0  0  0  0  0  0
   29.7430   29.3140   15.8620 H   0  0  0  0  0  0  0  0  0  0  0  0
   27.5670   31.6620   20.0400 O   0  0  0  0  0  0  0  0  0  0  0  0
   26.5740   31.7870   19.9890 H   0  0  0  0  0  0  0  0  0  0  0  0
   30.2470   30.4370   19.1950 N   0  0  0  0  0  0  0  0  0  0  0  0
   31.1630   30.6590   20.2680 C   0  0  0  0  0  0  0  0  0  0  0  0
   30.1490   29.4600   18.8450 H   0  0  0  0  0  0  0  0  0  0  0  0
   31.9240   29.5220   20.8320 C   0  0  0  0  0  0  0  0  0  0  0  0
   31.3140   31.8120   20.7230 O   0  0  0  0  0  0  0  0  0  0  0  0
   31.0660   33.5460   18.0880 O   0  0  0  0  0  0  0  0  0  0  0  0
   31.9600   33.9530   18.1650 H   0  0  0  0  0  0  0  0  0  0  0  0
   31.4490   32.2330   14.7250 O   0  0  0  0  0  0  0  0  0  0  0  0
   30.6490   31.7950   14.3660 H   0  0  0  0  0  0  0  0  0  0  0  0
   31.2510   37.3880   14.0480 O   0  0  0  0  0  0  0  0  0  0  0  0
   30.0120   37.7280   14.6260 C   0  0  0  0  0  0  0  0  0  0  0  0
   28.9690   37.6520   13.5910 C   0  0  0  0  0  0  0  0  0  0  0  0
   27.9370   36.7120   13.5180 C   0  0  0  0  0  0  0  0  0  0  0  0
   28.7850   38.4530   12.5110 N   0  0  0  0  0  0  0  0  0  0  0  0
   27.2180   36.9910   12.4370 N   0  0  0  0  0  0  0  0  0  0  0  0
   27.7330   38.0460   11.8290 N   0  0  0  0  0  0  0  0  0  0  0  0
   26.0480   36.2660   11.9850 C   0  0  0  0  0  0  0  0  0  0  0  0
   26.4610   35.5480   10.7320 C   0  0  0  0  0  0  0  0  0  0  0  0
   26.0630   36.0600    9.5250 C   0  0  0  0  0  0  0  0  0  0  0  0
   27.2180   34.4080   10.8200 C   0  0  0  0  0  0  0  0  0  0  0  0
   26.4130   35.4390    8.3540 C   0  0  0  0  0  0  0  0  0  0  0  0
   27.5830   33.7640    9.6320 C   0  0  0  0  0  0  0  0  0  0  0  0
   27.1740   34.2920    8.4380 C   0  0  0  0  0  0  0  0  0  0  0  0
   25.2980   37.2160    9.4800 O   0  0  0  0  0  0  0  0  0  0  0  0
   24.0420   37.1330    8.8790 C   0  0  0  0  0  0  0  0  0  0  0  0
   23.8420   37.7120    7.7860 O   0  0  0  0  0  0  0  0  0  0  0  0
   22.9440   36.3690    9.5160 C   0  0  0  0  0  0  0  0  0  0  0  0
   29.8670   25.5550   16.9770 C   0  0  0  0  0  0  0  0  0  0  0  0
   28.3450   25.7220   17.0260 C   0  0  0  0  0  0  0  0  0  0  0  0
   27.6010   24.4030   16.8850 C   0  0  0  0  0  0  0  0  0  0  0  0
   26.2760   24.4210   17.5950 C   0  0  0  0  0  0  0  0  0  0  0  0
   25.6360   23.0390   17.5150 C   0  0  0  0  0  0  0  0  0  0  0  0
   24.9150   22.7270   18.7720 N   0  0  0  0  0  0  0  0  0  0  0  0
  1  5  1  0  0  0  0
  1  4  1  0  0  0  0
  2  1  1  0  0  0  0
  3  2  2  0  0  0  0
  6  5  1  1  0  0  0
  6  7  1  0  0  0  0
  7 27  1  1  0  0  0
  8  7  1  1  0  0  0
  8 13  1  0  0  0  0
  9 14  1  6  0  0  0
  9 10  1  0  0  0  0
 10 12  1  0  0  0  0
 11  9  1  0  0  0  0
 11  8  1  0  0  0  0
 12 20  1  1  0  0  0
 13 12  1  0  0  0  0
 13 22  1  6  0  0  0
 15 14  1  0  0  0  0
 16 17  2  0  0  0  0
 16  9  1  0  0  0  0
 18 19  1  0  0  0  0
 18 16  1  0  0  0  0
 21 20  1  0  0  0  0
 22 23  1  0  0  0  0
 23 26  2  0  0  0  0
 23 25  1  0  0  0  0
 24 22  1  0  0  0  0
 27 28  1  0  0  0  0
 29  6  1  0  0  0  0
 30 29  1  0  0  0  0
 31  2  1  0  0  0  0
 31 32  1  0  0  0  0
 33 32  1  0  0  0  0
 34 33  2  0  0  0  0
 35 33  1  0  0  0  0
 36 34  1  0  0  0  0
 37 36  1  0  0  0  0
 37 35  2  0  0  0  0
 38 36  1  0  0  0  0
 39 41  1  0  0  0  0
 39 38  1  0  0  0  0
 40 39  2  0  0  0  0
 42 44  2  0  0  0  0
 42 40  1  0  0  0  0
 43 41  2  0  0  0  0
 44 43  1  0  0  0  0
 45 40  1  0  0  0  0
 46 45  1  0  0  0  0
 46 48  1  0  0  0  0
 47 46  2  0  0  0  0
 49 50  1  0  0  0  0
 51 50  1  0  0  0  0
 51 52  1  0  0  0  0
 53 52  1  0  0  0  0
 53 54  1  0  0  0  0
M  END
>  <REMARK>
 VINA RESULT:    -4.706      5.398      9.541
 INTER + INTRA:         -15.246
 INTER:                 -10.662
 INTRA:                  -4.583
 UNBOUND:                -6.275
 SMILES CC(=O)N[C@@H]1[C@@H](O)C[C@](O)(C(=O)O)O[C@H]1C(O)[C@H](O)CNC(=O)OCc1cn(Cc2ccccc2OC(C)=O)nn1
 SMILES IDX 21 1 22 2 23 3 20 5 18 6 16 7 15 8 9 9 8 10 14 11 6 12 5 13
 SMILES IDX 10 14 11 16 12 17 13 18 7 20 4 22 2 23 1 25 3 26 17 27 19 29
 SMILES IDX 24 31 25 32 26 33 27 34 41 35 28 36 40 37 29 38 30 39 35 40
 SMILES IDX 31 41 34 42 32 43 33 44 36 45 37 46 39 47 38 48
 H PARENT 21 4 10 15 13 19 7 21 4 24 17 28 19 30
 Flexibility Score: inf
  4 active torsions:
  status: ('A' for Active; 'I' for Inactive)
    1  A    between atoms: CA   and  CB  
    2  A    between atoms: CB   and  CG  
    3  A    between atoms: CG   and  CD  
    4  A    between atoms: CD   and  CE  

>  <TORSDO>
F 18

>  <BEGIN_>
RES LYS A 131

$$$$
ligand_21_pose_6_2HRL.pdbqt
 OpenBabel07062320523D

  6  5  0  0  0  0  0  0  0  0999 V2000
   33.1930   34.6630    9.2900 C   0  0  0  0  0  0  0  0  0  0  0  0
   32.0600   35.3600   10.0340 C   0  0  0  0  0  0  0  0  0  0  0  0
   30.7600   35.3760    9.2730 C   0  0  0  0  0  0  0  0  0  0  0  0
   30.0320   36.6960    9.4810 C   0  0  0  0  0  0  0  0  0  0  0  0
   30.7720   37.8270    8.7930 C   0  0  0  0  0  0  0  0  0  0  0  0
   30.6780   39.0870    9.5800 N   0  0  0  0  0  0  0  0  0  0  0  0
  1  2  1  0  0  0  0
  3  4  1  0  0  0  0
  3  2  1  0  0  0  0
  5  4  1  0  0  0  0
  5  6  1  0  0  0  0
M  END
>  <EGIN_R>
ES LYS A 135

>  <REMARK>
  4 active torsions:
  status: ('A' for Active; 'I' for Inactive)
    5  A    between atoms: CA   and  CB  
    6  A    between atoms: CB   and  CG  
    7  A    between atoms: CG   and  CD  
    8  A    between atoms: CD   and  CE  

$$$$
