ligand_1_pose_4_2HRL.pdbqt
 OpenBabel07062320523D

 47 47  0  0  1  0  0  0  0  0999 V2000
   28.7000   29.9990   16.4280 N   0  0  0  0  0  0  0  0  0  0  0  0
   27.3930   29.5000   16.4330 C   0  0  0  0  0  0  0  0  0  0  0  0
   26.5150   30.0660   15.7860 O   0  0  0  0  0  0  0  0  0  0  0  0
   29.3940   29.4350   17.0260 H   0  0  0  0  0  0  0  0  0  0  0  0
   29.2380   31.1210   15.7610 C   0  0  0  0  0  0  0  0  0  0  0  0
   30.6630   31.4820   16.0420 C   0  0  2  0  0  0  0  0  0  0  0  0
   30.7950   32.4330   17.1930 C   0  0  1  0  0  0  0  0  0  0  0  0
   30.2570   33.7940   17.0610 C   0  0  2  0  0  0  0  0  0  0  0  0
   29.7470   35.5310   15.6350 C   0  0  2  0  0  0  0  0  0  0  0  0
   28.8410   35.9250   16.7810 C   0  0  0  0  0  0  0  0  0  0  0  0
   30.2840   34.2510   15.7670 O   0  0  0  0  0  0  0  0  0  0  0  0
   29.6070   35.8910   18.0970 C   0  0  1  0  0  0  0  0  0  0  0  0
   30.7430   34.8540   17.9880 C   0  0  1  0  0  0  0  0  0  0  0  0
   30.8270   36.4050   15.5420 O   0  0  0  0  0  0  0  0  0  0  0  0
   30.7740   37.1470   16.1860 H   0  0  0  0  0  0  0  0  0  0  0  0
   29.0150   35.5400   14.3480 C   0  0  0  0  0  0  0  0  0  0  0  0
   28.3770   34.5450   13.9180 O   0  0  0  0  0  0  0  0  0  0  0  0
   29.0270   36.6870   13.5750 O   0  0  0  0  0  0  0  0  0  0  0  0
   28.9580   37.6090   14.0300 H   0  0  0  0  0  0  0  0  0  0  0  0
   30.1200   37.1540   18.3560 O   0  0  0  0  0  0  0  0  0  0  0  0
   30.4970   37.1290   19.2750 H   0  0  0  0  0  0  0  0  0  0  0  0
   31.0640   34.3860   19.3210 N   0  0  0  0  0  0  0  0  0  0  0  0
   32.3650   34.6270   19.8320 C   0  0  0  0  0  0  0  0  0  0  0  0
   30.3630   33.8770   19.9140 H   0  0  0  0  0  0  0  0  0  0  0  0
   32.7850   34.1810   21.1890 C   0  0  0  0  0  0  0  0  0  0  0  0
   33.2010   35.2350   19.1260 O   0  0  0  0  0  0  0  0  0  0  0  0
   30.1190   31.7440   18.2680 O   0  0  0  0  0  0  0  0  0  0  0  0
   29.4430   32.3400   18.6320 H   0  0  0  0  0  0  0  0  0  0  0  0
   31.3160   31.8820   14.9240 O   0  0  0  0  0  0  0  0  0  0  0  0
   31.9370   31.2370   14.5310 H   0  0  0  0  0  0  0  0  0  0  0  0
   27.0480   28.3630   17.1600 O   0  0  0  0  0  0  0  0  0  0  0  0
   26.6530   28.4360   18.5130 C   0  0  0  0  0  0  0  0  0  0  0  0
   27.8560   28.4500   19.3790 C   0  0  0  0  0  0  0  0  0  0  0  0
   28.3690   27.4090   20.1130 C   0  0  0  0  0  0  0  0  0  0  0  0
   28.6490   29.4910   19.5920 N   0  0  0  0  0  0  0  0  0  0  0  0
   29.4590   27.8940   20.7340 N   0  0  0  0  0  0  0  0  0  0  0  0
   29.6370   29.1670   20.4210 N   0  0  0  0  0  0  0  0  0  0  0  0
   30.3050   27.1170   21.6170 C   0  0  0  0  0  0  0  0  0  0  0  0
   31.7630   27.3920   21.2600 C   0  0  0  0  0  0  0  0  0  0  0  0
   31.9270   27.2100   19.8720 O   0  0  0  0  0  0  0  0  0  0  0  0
   32.5200   27.9330   19.5030 H   0  0  0  0  0  0  0  0  0  0  0  0
   29.8670   25.5550   16.9770 C   0  0  0  0  0  0  0  0  0  0  0  0
   28.3450   25.7220   17.0260 C   0  0  0  0  0  0  0  0  0  0  0  0
   27.5990   24.4430   16.6780 C   0  0  0  0  0  0  0  0  0  0  0  0
   27.0030   23.7870   17.8920 C   0  0  0  0  0  0  0  0  0  0  0  0
   25.7010   24.4900   18.2640 C   0  0  0  0  0  0  0  0  0  0  0  0
   24.6380   24.1660   17.2840 N   0  0  0  0  0  0  0  0  0  0  0  0
  1  2  1  0  0  0  0
  1  4  1  0  0  0  0
  2 31  1  0  0  0  0
  3  2  2  0  0  0  0
  5  1  1  0  0  0  0
  6  5  1  6  0  0  0
  6  7  1  0  0  0  0
  7 27  1  1  0  0  0
  8  7  1  6  0  0  0
  8 13  1  0  0  0  0
  9 16  1  6  0  0  0
  9 11  1  0  0  0  0
  9 10  1  0  0  0  0
 10 12  1  0  0  0  0
 11  8  1  0  0  0  0
 12 20  1  6  0  0  0
 13 12  1  0  0  0  0
 13 22  1  1  0  0  0
 14  9  1  0  0  0  0
 14 15  1  0  0  0  0
 17 16  2  0  0  0  0
 18 19  1  0  0  0  0
 18 16  1  0  0  0  0
 20 21  1  0  0  0  0
 22 23  1  0  0  0  0
 22 24  1  0  0  0  0
 23 25  1  0  0  0  0
 26 23  2  0  0  0  0
 27 28  1  0  0  0  0
 29  6  1  0  0  0  0
 30 29  1  0  0  0  0
 31 32  1  0  0  0  0
 32 33  1  0  0  0  0
 33 35  1  0  0  0  0
 33 34  2  0  0  0  0
 34 36  1  0  0  0  0
 35 37  2  0  0  0  0
 36 38  1  0  0  0  0
 37 36  1  0  0  0  0
 39 38  1  0  0  0  0
 40 39  1  0  0  0  0
 41 40  1  0  0  0  0
 42 43  1  0  0  0  0
 44 43  1  0  0  0  0
 44 45  1  0  0  0  0
 45 46  1  0  0  0  0
 47 46  1  0  0  0  0
M  END
>  <REMARK>
 VINA RESULT:    -3.307      6.735     12.530
 INTER + INTRA:         -13.585
 INTER:                  -7.928
 INTRA:                  -5.657
 UNBOUND:                -7.572
 SMILES CC(=O)N[C@@H]1[C@@H](O)C[C@](O)(C(=O)O)O[C@H]1C(O)[C@H](O)CNC(=O)OCc1cn(CCO)nn1
 SMILES IDX 21 1 22 2 23 3 20 5 18 6 16 7 15 8 9 9 8 10 14 11 6 12 5 13
 SMILES IDX 10 14 11 16 12 17 13 18 7 20 4 22 2 23 1 25 3 26 17 27 19 29
 SMILES IDX 24 31 25 32 26 33 27 34 33 35 28 36 32 37 29 38 30 39 31 40
 H PARENT 21 4 10 15 13 19 7 21 4 24 17 28 19 30 31 41
 Flexibility Score: inf
  4 active torsions:
  status: ('A' for Active; 'I' for Inactive)
    1  A    between atoms: CA   and  CB  
    2  A    between atoms: CB   and  CG  
    3  A    between atoms: CG   and  CD  
    4  A    between atoms: CD   and  CE  

>  <TORSDO>
F 17

>  <BEGIN_>
RES LYS A 131

$$$$
ligand_1_pose_4_2HRL.pdbqt
 OpenBabel07062320523D

  6  5  0  0  0  0  0  0  0  0999 V2000
   33.1930   34.6630    9.2900 C   0  0  0  0  0  0  0  0  0  0  0  0
   32.0600   35.3600   10.0340 C   0  0  0  0  0  0  0  0  0  0  0  0
   30.7060   34.7510    9.7770 C   0  0  0  0  0  0  0  0  0  0  0  0
   30.4770   34.5620    8.2850 C   0  0  0  0  0  0  0  0  0  0  0  0
   29.0010   34.6730    7.9540 C   0  0  0  0  0  0  0  0  0  0  0  0
   28.7440   35.8080    7.0250 N   0  0  0  0  0  0  0  0  0  0  0  0
  1  2  1  0  0  0  0
  3  2  1  0  0  0  0
  4  3  1  0  0  0  0
  5  4  1  0  0  0  0
  6  5  1  0  0  0  0
M  END
>  <EGIN_R>
ES LYS A 135

>  <REMARK>
  4 active torsions:
  status: ('A' for Active; 'I' for Inactive)
    5  A    between atoms: CA   and  CB  
    6  A    between atoms: CB   and  CG  
    7  A    between atoms: CG   and  CD  
    8  A    between atoms: CD   and  CE  

$$$$
