ligand_34_pose_11_2HRL.pdbqt
 OpenBabel07062320523D

 69 73  0  0  1  0  0  0  0  0999 V2000
   25.3590   40.1070    5.9790 N   0  0  0  0  0  0  0  0  0  0  0  0
   25.0500   40.4980    7.3270 C   0  0  0  0  0  0  0  0  0  0  0  0
   25.9570   41.0970    7.9670 O   0  0  0  0  0  0  0  0  0  0  0  0
   24.6520   39.6110    5.4070 H   0  0  0  0  0  0  0  0  0  0  0  0
   26.6490   40.3900    5.3970 C   0  0  0  0  0  0  0  0  0  0  0  0
   27.5880   39.2740    5.7150 C   0  0  2  0  0  0  0  0  0  0  0  0
   29.0210   39.5940    5.2930 C   0  0  2  0  0  0  0  0  0  0  0  0
   30.0040   39.1160    6.3490 C   0  0  2  0  0  0  0  0  0  0  0  0
   29.6490   39.7410    8.5650 C   0  0  2  0  0  0  0  0  0  0  0  0
   31.1100   39.5590    8.9140 C   0  0  0  0  0  0  0  0  0  0  0  0
   29.3120   38.9290    7.5120 O   0  0  0  0  0  0  0  0  0  0  0  0
   31.9740   39.8100    7.7310 C   0  0  1  0  0  0  0  0  0  0  0  0
   31.2070   39.9880    6.4440 C   0  0  1  0  0  0  0  0  0  0  0  0
   29.4350   41.0780    8.3470 O   0  0  0  0  0  0  0  0  0  0  0  0
   28.5250   41.3080    8.0880 H   0  0  0  0  0  0  0  0  0  0  0  0
   28.8690   39.2990    9.7460 C   0  0  0  0  0  0  0  0  0  0  0  0
   29.3700   38.4840   10.5600 O   0  0  0  0  0  0  0  0  0  0  0  0
   27.5840   39.7440   10.0110 O   0  0  0  0  0  0  0  0  0  0  0  0
   27.4100   40.5670   10.6070 H   0  0  0  0  0  0  0  0  0  0  0  0
   32.7850   40.9290    7.9040 O   0  0  0  0  0  0  0  0  0  0  0  0
   33.5350   40.7800    8.5220 H   0  0  0  0  0  0  0  0  0  0  0  0
   32.1530   39.6640    5.3670 N   0  0  0  0  0  0  0  0  0  0  0  0
   32.5170   40.5690    4.3540 C   0  0  0  0  0  0  0  0  0  0  0  0
   32.5660   38.7040    5.3760 H   0  0  0  0  0  0  0  0  0  0  0  0
   33.4780   40.1680    3.3010 C   0  0  0  0  0  0  0  0  0  0  0  0
   31.9820   41.7250    4.3990 O   0  0  0  0  0  0  0  0  0  0  0  0
   29.0750   40.9860    5.1530 O   0  0  0  0  0  0  0  0  0  0  0  0
   28.1320   41.3010    5.1240 H   0  0  0  0  0  0  0  0  0  0  0  0
   27.1680   38.0670    5.1620 O   0  0  0  0  0  0  0  0  0  0  0  0
   27.8370   37.6800    4.5480 H   0  0  0  0  0  0  0  0  0  0  0  0
   23.8470   40.2530    7.9190 O   0  0  0  0  0  0  0  0  0  0  0  0
   23.3080   38.9540    7.9900 C   0  0  0  0  0  0  0  0  0  0  0  0
   24.3780   38.0130    8.3730 C   0  0  0  0  0  0  0  0  0  0  0  0
   24.8200   37.7230    9.6660 C   0  0  0  0  0  0  0  0  0  0  0  0
   25.1390   37.2620    7.5640 N   0  0  0  0  0  0  0  0  0  0  0  0
   25.8150   36.8200    9.5910 N   0  0  0  0  0  0  0  0  0  0  0  0
   25.9830   36.5630    8.3110 N   0  0  0  0  0  0  0  0  0  0  0  0
   26.4980   36.3050   10.7220 C   0  0  0  0  0  0  0  0  0  0  0  0
   26.7050   36.9830   11.8860 C   0  0  0  0  0  0  0  0  0  0  0  0
   27.0030   35.0040   10.6400 C   0  0  0  0  0  0  0  0  0  0  0  0
   27.3850   36.4370   12.9710 C   0  0  0  0  0  0  0  0  0  0  0  0
   27.6740   34.4460   11.6940 C   0  0  0  0  0  0  0  0  0  0  0  0
   27.8660   35.1690   12.8700 C   0  0  0  0  0  0  0  0  0  0  0  0
   27.5860   37.1950   14.2040 C   0  0  0  0  0  0  0  0  0  0  0  0
   28.6170   37.9200   14.3700 O   0  0  0  0  0  0  0  0  0  0  0  0
   26.6610   37.1390   15.2110 O   0  0  0  0  0  0  0  0  0  0  0  0
   28.5920   34.4880   13.9300 C   0  0  0  0  0  0  0  0  0  0  0  0
   27.9990   33.7370   14.9220 C   0  0  0  0  0  0  0  0  0  0  0  0
   29.9730   34.5920   13.9530 C   0  0  0  0  0  0  0  0  0  0  0  0
   26.6240   33.6100   14.9330 C   0  0  0  0  0  0  0  0  0  0  0  0
   28.7490   33.1070   15.9070 C   0  0  0  0  0  0  0  0  0  0  0  0
   30.7130   33.9140   15.0050 C   0  0  0  0  0  0  0  0  0  0  0  0
   30.6630   35.3190   13.0090 C   0  0  0  0  0  0  0  0  0  0  0  0
   25.9810   32.8630   15.9100 C   0  0  0  0  0  0  0  0  0  0  0  0
   28.1410   32.3600   16.8900 C   0  0  0  0  0  0  0  0  0  0  0  0
   30.0560   33.2090   15.9240 O   0  0  0  0  0  0  0  0  0  0  0  0
   32.0730   34.0100   15.0350 C   0  0  0  0  0  0  0  0  0  0  0  0
   32.0260   35.3850   13.0820 C   0  0  0  0  0  0  0  0  0  0  0  0
   26.7530   32.2490   16.8760 C   0  0  0  0  0  0  0  0  0  0  0  0
   32.7430   34.7420   14.0800 C   0  0  0  0  0  0  0  0  0  0  0  0
   33.9990   34.8340   14.1030 O   0  0  0  0  0  0  0  0  0  0  0  0
   26.1200   31.5040   17.8570 O   0  0  0  0  0  0  0  0  0  0  0  0
   25.5730   31.8970   18.6000 H   0  0  0  0  0  0  0  0  0  0  0  0
   29.8670   25.5550   16.9770 C   0  0  0  0  0  0  0  0  0  0  0  0
   28.3450   25.7220   17.0260 C   0  0  0  0  0  0  0  0  0  0  0  0
   27.6000   24.4080   16.8480 C   0  0  0  0  0  0  0  0  0  0  0  0
   26.6200   24.1570   17.9600 C   0  0  0  0  0  0  0  0  0  0  0  0
   25.7590   22.9460   17.6160 C   0  0  0  0  0  0  0  0  0  0  0  0
   24.6750   22.7800   18.6130 N   0  0  0  0  0  0  0  0  0  0  0  0
  1  2  1  0  0  0  0
  2 31  1  0  0  0  0
  2  3  2  0  0  0  0
  4  1  1  0  0  0  0
  5  1  1  0  0  0  0
  6  5  1  6  0  0  0
  7 27  1  1  0  0  0
  7  6  1  0  0  0  0
  8  7  1  6  0  0  0
  8 13  1  0  0  0  0
  8 11  1  0  0  0  0
  9 14  1  6  0  0  0
  9 10  1  0  0  0  0
  9 16  1  0  0  0  0
 11  9  1  0  0  0  0
 12 20  1  1  0  0  0
 12 10  1  0  0  0  0
 13 22  1  6  0  0  0
 13 12  1  0  0  0  0
 15 14  1  0  0  0  0
 16 18  1  0  0  0  0
 16 17  2  0  0  0  0
 18 19  1  0  0  0  0
 20 21  1  0  0  0  0
 22 24  1  0  0  0  0
 23 26  2  0  0  0  0
 23 22  1  0  0  0  0
 25 23  1  0  0  0  0
 28 27  1  0  0  0  0
 29  6  1  0  0  0  0
 30 29  1  0  0  0  0
 31 32  1  0  0  0  0
 32 33  1  0  0  0  0
 33 34  2  0  0  0  0
 35 37  2  0  0  0  0
 35 33  1  0  0  0  0
 36 34  1  0  0  0  0
 36 38  1  0  0  0  0
 37 36  1  0  0  0  0
 38 39  1  0  0  0  0
 39 41  2  0  0  0  0
 40 38  2  0  0  0  0
 40 42  1  0  0  0  0
 41 44  1  0  0  0  0
 42 43  2  0  0  0  0
 43 41  1  0  0  0  0
 43 47  1  0  0  0  0
 44 45  2  0  0  0  0
 44 46  1  0  0  0  0
 47 49  2  0  0  0  0
 47 48  1  0  0  0  0
 48 50  2  0  0  0  0
 48 51  1  0  0  0  0
 49 52  1  0  0  0  0
 50 54  1  0  0  0  0
 51 56  1  0  0  0  0
 51 55  2  0  0  0  0
 52 57  2  0  0  0  0
 52 56  1  0  0  0  0
 53 58  2  0  0  0  0
 53 49  1  0  0  0  0
 54 59  2  0  0  0  0
 58 60  1  0  0  0  0
 59 55  1  0  0  0  0
 59 62  1  0  0  0  0
 60 61  2  0  0  0  0
 60 57  1  0  0  0  0
 62 63  1  0  0  0  0
 64 65  1  0  0  0  0
 66 65  1  0  0  0  0
 66 67  1  0  0  0  0
 68 67  1  0  0  0  0
 68 69  1  0  0  0  0
M  END
>  <REMARK>
 VINA RESULT:    -5.429      4.792      9.635
 INTER + INTRA:         -17.908
 INTER:                 -10.475
 INTRA:                  -7.432
 UNBOUND:                -7.717
 SMILES CC(=O)N[C@@H]1[C@@H](O)C[C@](O)(C(=O)O)O[C@H]1C(O)[C@H](O)CNC(=O)OCc1cn(-c2ccc(-c3c4ccc(=O)cc-4oc4cc(O)ccc34)c(C(=O)[O-])c2)nn1
 SMILES IDX 21 1 22 2 23 3 20 5 18 6 16 7 15 8 9 9 8 10 14 11 6 12 5 13
 SMILES IDX 10 14 11 16 12 17 13 18 7 20 4 22 2 23 1 25 3 26 17 27 19 29
 SMILES IDX 24 31 25 32 26 33 27 34 55 35 28 36 54 37 29 38 53 39 30 40
 SMILES IDX 49 41 31 42 32 43 50 44 51 45 52 46 33 47 48 48 34 49 47 50
 SMILES IDX 42 51 40 52 35 53 46 54 43 55 41 56 39 57 36 58 44 59 37 60
 SMILES IDX 38 61 45 62
 H PARENT 21 4 10 15 13 19 7 21 4 24 17 28 19 30 45 63
 Flexibility Score: inf
  4 active torsions:
  status: ('A' for Active; 'I' for Inactive)
    1  A    between atoms: CA   and  CB  
    2  A    between atoms: CB   and  CG  
    3  A    between atoms: CG   and  CD  
    4  A    between atoms: CD   and  CE  

>  <TORSDO>
F 18

>  <BEGIN_>
RES LYS A 131

$$$$
ligand_34_pose_11_2HRL.pdbqt
 OpenBabel07062320523D

  6  5  0  0  0  0  0  0  0  0999 V2000
   33.1930   34.6630    9.2900 C   0  0  0  0  0  0  0  0  0  0  0  0
   32.0600   35.3600   10.0340 C   0  0  0  0  0  0  0  0  0  0  0  0
   30.8790   35.6920    9.1590 C   0  0  0  0  0  0  0  0  0  0  0  0
   30.3910   34.4540    8.4230 C   0  0  0  0  0  0  0  0  0  0  0  0
   28.9870   34.6690    7.8910 C   0  0  0  0  0  0  0  0  0  0  0  0
   28.9990   35.5310    6.6770 N   0  0  0  0  0  0  0  0  0  0  0  0
  1  2  1  0  0  0  0
  3  2  1  0  0  0  0
  4  3  1  0  0  0  0
  5  4  1  0  0  0  0
  6  5  1  0  0  0  0
M  END
>  <EGIN_R>
ES LYS A 135

>  <REMARK>
  4 active torsions:
  status: ('A' for Active; 'I' for Inactive)
    5  A    between atoms: CA   and  CB  
    6  A    between atoms: CB   and  CG  
    7  A    between atoms: CG   and  CD  
    8  A    between atoms: CD   and  CE  

$$$$
