ligand_46_pose_2_2HRL.pdbqt
 OpenBabel07062320523D

 50 51  0  0  1  0  0  0  0  0999 V2000
   26.5610   39.8120    7.2930 N   0  0  0  0  0  0  0  0  0  0  0  0
   25.2030   39.8320    7.6720 C   0  0  0  0  0  0  0  0  0  0  0  0
   24.2810   39.7620    6.8440 O   0  0  0  0  0  0  0  0  0  0  0  0
   27.2530   39.8740    8.0850 H   0  0  0  0  0  0  0  0  0  0  0  0
   26.9930   39.7150    5.9330 C   0  0  0  0  0  0  0  0  0  0  0  0
   27.9080   38.5230    5.7710 C   0  0  2  0  0  0  0  0  0  0  0  0
   29.3520   38.9340    5.7570 C   0  0  2  0  0  0  0  0  0  0  0  0
   30.0320   38.7920    7.0990 C   0  0  2  0  0  0  0  0  0  0  0  0
   29.4030   39.3670    9.2750 C   0  0  2  0  0  0  0  0  0  0  0  0
   30.8790   39.1240    9.6290 C   0  0  0  0  0  0  0  0  0  0  0  0
   29.1580   38.6620    8.1350 O   0  0  0  0  0  0  0  0  0  0  0  0
   31.6330   40.0030    8.6340 C   0  0  1  0  0  0  0  0  0  0  0  0
   31.1060   39.8130    7.2290 C   0  0  1  0  0  0  0  0  0  0  0  0
   29.1370   40.7190    9.2130 O   0  0  0  0  0  0  0  0  0  0  0  0
   29.7760   41.1900    9.7880 H   0  0  0  0  0  0  0  0  0  0  0  0
   28.5990   38.7230   10.3750 C   0  0  0  0  0  0  0  0  0  0  0  0
   27.9180   39.4030   11.1710 O   0  0  0  0  0  0  0  0  0  0  0  0
   28.6050   37.3500   10.5230 O   0  0  0  0  0  0  0  0  0  0  0  0
   27.8490   36.9160   11.0280 H   0  0  0  0  0  0  0  0  0  0  0  0
   31.4570   41.3140    9.0780 O   0  0  0  0  0  0  0  0  0  0  0  0
   30.8260   41.3160    9.8310 H   0  0  0  0  0  0  0  0  0  0  0  0
   32.2080   39.3820    6.3500 N   0  0  0  0  0  0  0  0  0  0  0  0
   32.7870   40.2330    5.3770 C   0  0  0  0  0  0  0  0  0  0  0  0
   32.5870   38.3950    6.4430 H   0  0  0  0  0  0  0  0  0  0  0  0
   33.8950   39.8440    4.4700 C   0  0  0  0  0  0  0  0  0  0  0  0
   32.3340   41.4000    5.2710 O   0  0  0  0  0  0  0  0  0  0  0  0
   29.4580   40.2090    5.2370 O   0  0  0  0  0  0  0  0  0  0  0  0
   29.9770   40.1610    4.3990 H   0  0  0  0  0  0  0  0  0  0  0  0
   27.5180   37.9070    4.5820 O   0  0  0  0  0  0  0  0  0  0  0  0
   27.8410   36.9820    4.5060 H   0  0  0  0  0  0  0  0  0  0  0  0
   24.8460   39.9320    9.0160 O   0  0  0  0  0  0  0  0  0  0  0  0
   24.0520   38.9280    9.6010 C   0  0  0  0  0  0  0  0  0  0  0  0
   24.8060   37.6620    9.7670 C   0  0  0  0  0  0  0  0  0  0  0  0
   25.0180   36.7150    8.8020 C   0  0  0  0  0  0  0  0  0  0  0  0
   25.4000   37.2320   10.8850 N   0  0  0  0  0  0  0  0  0  0  0  0
   25.7400   35.7300    9.3610 N   0  0  0  0  0  0  0  0  0  0  0  0
   25.9570   36.0730   10.6350 N   0  0  0  0  0  0  0  0  0  0  0  0
   26.2200   34.5100    8.7630 C   0  0  0  0  0  0  0  0  0  0  0  0
   27.6950   34.5480    8.5790 C   0  0  0  0  0  0  0  0  0  0  0  0
   28.5520   33.9390    9.4880 C   0  0  0  0  0  0  0  0  0  0  0  0
   28.2790   35.1810    7.5090 C   0  0  0  0  0  0  0  0  0  0  0  0
   29.9130   33.9780    9.3130 C   0  0  0  0  0  0  0  0  0  0  0  0
   29.6490   35.2250    7.3230 C   0  0  0  0  0  0  0  0  0  0  0  0
   30.4840   34.6170    8.2320 C   0  0  0  0  0  0  0  0  0  0  0  0
   29.8670   25.5550   16.9770 C   0  0  0  0  0  0  0  0  0  0  0  0
   28.3450   25.7220   17.0260 C   0  0  0  0  0  0  0  0  0  0  0  0
   27.6020   24.3990   16.9210 C   0  0  0  0  0  0  0  0  0  0  0  0
   26.5580   24.2500   17.9930 C   0  0  0  0  0  0  0  0  0  0  0  0
   25.2760   23.6940   17.3810 C   0  0  0  0  0  0  0  0  0  0  0  0
   24.3950   24.7970   16.9300 N   0  0  0  0  0  0  0  0  0  0  0  0
  1  2  1  0  0  0  0
  1  4  1  0  0  0  0
  2 31  1  0  0  0  0
  3  2  2  0  0  0  0
  5  1  1  0  0  0  0
  6  5  1  6  0  0  0
  7 27  1  1  0  0  0
  7  6  1  0  0  0  0
  8  7  1  6  0  0  0
  8 13  1  0  0  0  0
  8 11  1  0  0  0  0
  9 14  1  6  0  0  0
  9 10  1  0  0  0  0
  9 16  1  0  0  0  0
 11  9  1  0  0  0  0
 12 20  1  1  0  0  0
 12 10  1  0  0  0  0
 13 22  1  6  0  0  0
 13 12  1  0  0  0  0
 14 15  1  0  0  0  0
 16 18  1  0  0  0  0
 16 17  2  0  0  0  0
 18 19  1  0  0  0  0
 20 21  1  0  0  0  0
 22 24  1  0  0  0  0
 23 22  1  0  0  0  0
 25 23  1  0  0  0  0
 26 23  2  0  0  0  0
 28 27  1  0  0  0  0
 29  6  1  0  0  0  0
 30 29  1  0  0  0  0
 31 32  1  0  0  0  0
 32 33  1  0  0  0  0
 33 35  1  0  0  0  0
 34 36  1  0  0  0  0
 34 33  2  0  0  0  0
 36 37  1  0  0  0  0
 37 35  2  0  0  0  0
 38 36  1  0  0  0  0
 39 38  1  0  0  0  0
 39 40  2  0  0  0  0
 41 39  1  0  0  0  0
 42 40  1  0  0  0  0
 43 41  2  0  0  0  0
 43 44  1  0  0  0  0
 44 42  2  0  0  0  0
 45 46  1  0  0  0  0
 47 46  1  0  0  0  0
 47 48  1  0  0  0  0
 49 48  1  0  0  0  0
 50 49  1  0  0  0  0
M  END
>  <REMARK>
 VINA RESULT:    -5.638      2.796      6.213
 INTER + INTRA:         -15.378
 INTER:                 -10.038
 INTRA:                  -5.340
 UNBOUND:                -5.290
 SMILES CC(=O)N[C@@H]1[C@@H](O)C[C@](O)(C(=O)O)O[C@H]1C(O)[C@H](O)CNC(=O)OCc1cn(Cc2ccccc2)nn1
 SMILES IDX 21 1 22 2 23 3 20 5 18 6 16 7 15 8 9 9 8 10 14 11 6 12 5 13
 SMILES IDX 10 14 11 16 12 17 13 18 7 20 4 22 2 23 1 25 3 26 17 27 19 29
 SMILES IDX 24 31 25 32 26 33 27 34 37 35 28 36 36 37 29 38 30 39 31 40
 SMILES IDX 35 41 32 42 34 43 33 44
 H PARENT 21 4 10 15 13 19 7 21 4 24 17 28 19 30
 Flexibility Score: inf
  4 active torsions:
  status: ('A' for Active; 'I' for Inactive)
    1  A    between atoms: CA   and  CB  
    2  A    between atoms: CB   and  CG  
    3  A    between atoms: CG   and  CD  
    4  A    between atoms: CD   and  CE  

>  <TORSDO>
F 16

>  <BEGIN_>
RES LYS A 131

$$$$
ligand_46_pose_2_2HRL.pdbqt
 OpenBabel07062320523D

  6  5  0  0  0  0  0  0  0  0999 V2000
   33.1930   34.6630    9.2900 C   0  0  0  0  0  0  0  0  0  0  0  0
   32.0600   35.3600   10.0340 C   0  0  0  0  0  0  0  0  0  0  0  0
   32.5030   36.0460   11.3010 C   0  0  0  0  0  0  0  0  0  0  0  0
   31.7180   35.5260   12.4950 C   0  0  0  0  0  0  0  0  0  0  0  0
   31.6750   36.5660   13.5980 C   0  0  0  0  0  0  0  0  0  0  0  0
   31.1670   37.8690   13.0860 N   0  0  0  0  0  0  0  0  0  0  0  0
  1  2  1  0  0  0  0
  2  3  1  0  0  0  0
  3  4  1  0  0  0  0
  4  5  1  0  0  0  0
  6  5  1  0  0  0  0
M  END
>  <EGIN_R>
ES LYS A 135

>  <REMARK>
  4 active torsions:
  status: ('A' for Active; 'I' for Inactive)
    5  A    between atoms: CA   and  CB  
    6  A    between atoms: CB   and  CG  
    7  A    between atoms: CG   and  CD  
    8  A    between atoms: CD   and  CE  

$$$$
