ligand_71_pose_8_2HRL.pdbqt
 OpenBabel07062320523D

 54 55  0  0  1  0  0  0  0  0999 V2000
   28.3760   35.0230    7.9250 N   0  0  0  0  0  0  0  0  0  0  0  0
   29.5160   34.6820    8.7300 C   0  0  0  0  0  0  0  0  0  0  0  0
   30.6840   34.9150    8.3290 O   0  0  0  0  0  0  0  0  0  0  0  0
   27.4230   34.8250    8.2720 H   0  0  0  0  0  0  0  0  0  0  0  0
   28.6180   35.6360    6.6480 C   0  0  0  0  0  0  0  0  0  0  0  0
   27.8560   36.9220    6.4460 C   0  0  2  0  0  0  0  0  0  0  0  0
   27.0190   37.1460    7.6820 C   0  0  1  0  0  0  0  0  0  0  0  0
   26.6150   38.6170    7.8170 C   0  0  2  0  0  0  0  0  0  0  0  0
   25.3270   40.2300    6.9040 C   0  0  2  0  0  0  0  0  0  0  0  0
   26.2700   41.2570    7.4150 C   0  0  0  0  0  0  0  0  0  0  0  0
   25.9470   39.0320    6.6910 O   0  0  0  0  0  0  0  0  0  0  0  0
   27.7180   40.8360    7.4930 C   0  0  1  0  0  0  0  0  0  0  0  0
   27.8850   39.4310    7.9980 C   0  0  1  0  0  0  0  0  0  0  0  0
   24.8710   40.6340    5.6040 O   0  0  0  0  0  0  0  0  0  0  0  0
   24.1240   40.0320    5.3340 H   0  0  0  0  0  0  0  0  0  0  0  0
   24.0830   40.1470    7.7230 C   0  0  0  0  0  0  0  0  0  0  0  0
   24.0480   40.5920    8.8700 O   0  0  0  0  0  0  0  0  0  0  0  0
   22.9160   39.5630    7.2230 O   0  0  0  0  0  0  0  0  0  0  0  0
   22.4620   39.9020    6.3930 H   0  0  0  0  0  0  0  0  0  0  0  0
   28.2500   40.9820    6.2100 O   0  0  0  0  0  0  0  0  0  0  0  0
   29.0660   41.5590    6.2130 H   0  0  0  0  0  0  0  0  0  0  0  0
   28.3130   39.3240    9.3500 N   0  0  0  0  0  0  0  0  0  0  0  0
   29.5110   38.6960    9.7760 C   0  0  0  0  0  0  0  0  0  0  0  0
   27.7170   39.7290   10.1120 H   0  0  0  0  0  0  0  0  0  0  0  0
   29.8970   38.6160   11.2190 C   0  0  0  0  0  0  0  0  0  0  0  0
   30.2470   38.2040    8.9030 O   0  0  0  0  0  0  0  0  0  0  0  0
   25.9050   36.3290    7.7090 O   0  0  0  0  0  0  0  0  0  0  0  0
   25.1190   36.8660    7.3850 H   0  0  0  0  0  0  0  0  0  0  0  0
   27.0650   36.7720    5.3090 O   0  0  0  0  0  0  0  0  0  0  0  0
   27.6800   36.5800    4.5510 H   0  0  0  0  0  0  0  0  0  0  0  0
   29.3690   34.0920    9.9640 O   0  0  0  0  0  0  0  0  0  0  0  0
   28.9390   34.7210   11.1350 C   0  0  0  0  0  0  0  0  0  0  0  0
   27.5510   35.2050   10.9770 C   0  0  0  0  0  0  0  0  0  0  0  0
   27.0140   36.4230   11.3370 C   0  0  0  0  0  0  0  0  0  0  0  0
   26.5560   34.4940   10.4220 N   0  0  0  0  0  0  0  0  0  0  0  0
   25.7290   36.4050   10.9900 N   0  0  0  0  0  0  0  0  0  0  0  0
   25.4840   35.2290   10.4420 N   0  0  0  0  0  0  0  0  0  0  0  0
   24.7980   37.5210   11.1920 C   0  0  0  0  0  0  0  0  0  0  0  0
   23.4360   37.1340   10.7180 C   0  0  0  0  0  0  0  0  0  0  0  0
   22.4870   36.8590   11.4700 O   0  0  0  0  0  0  0  0  0  0  0  0
   23.2120   37.0790    9.3040 N   0  0  0  0  0  0  0  0  0  0  0  0
   23.9930   37.3050    8.6480 H   0  0  0  0  0  0  0  0  0  0  0  0
   21.9550   36.7290    8.7590 C   0  0  0  0  0  0  0  0  0  0  0  0
   21.6320   35.4770    8.3820 N   0  0  0  0  0  0  0  0  0  0  0  0
   21.0060   37.6710    8.5950 N   0  0  0  0  0  0  0  0  0  0  0  0
   20.4250   35.1730    7.8660 C   0  0  0  0  0  0  0  0  0  0  0  0
   19.7970   37.4350    8.0940 C   0  0  0  0  0  0  0  0  0  0  0  0
   19.4650   36.1520    7.7060 C   0  0  0  0  0  0  0  0  0  0  0  0
   29.8670   25.5550   16.9770 C   0  0  0  0  0  0  0  0  0  0  0  0
   28.3450   25.7220   17.0260 C   0  0  0  0  0  0  0  0  0  0  0  0
   27.6020   24.3990   16.9210 C   0  0  0  0  0  0  0  0  0  0  0  0
   26.1570   24.5280   17.3180 C   0  0  0  0  0  0  0  0  0  0  0  0
   26.0540   25.3410   18.6040 C   0  0  0  0  0  0  0  0  0  0  0  0
   24.7400   26.0220   18.6830 N   0  0  0  0  0  0  0  0  0  0  0  0
  1  4  1  0  0  0  0
  1  2  1  0  0  0  0
  2 31  1  0  0  0  0
  3  2  2  0  0  0  0
  5  1  1  0  0  0  0
  6  5  1  1  0  0  0
  6  7  1  0  0  0  0
  7 27  1  6  0  0  0
  8  7  1  6  0  0  0
  8 13  1  0  0  0  0
  9 14  1  6  0  0  0
  9 10  1  0  0  0  0
  9 16  1  0  0  0  0
 10 12  1  0  0  0  0
 11  9  1  0  0  0  0
 11  8  1  0  0  0  0
 12 20  1  6  0  0  0
 12 13  1  0  0  0  0
 13 22  1  1  0  0  0
 15 14  1  0  0  0  0
 16 17  2  0  0  0  0
 18 16  1  0  0  0  0
 19 18  1  0  0  0  0
 20 21  1  0  0  0  0
 22 23  1  0  0  0  0
 22 24  1  0  0  0  0
 23 25  1  0  0  0  0
 26 23  2  0  0  0  0
 28 27  1  0  0  0  0
 29  6  1  0  0  0  0
 30 29  1  0  0  0  0
 31 32  1  0  0  0  0
 33 32  1  0  0  0  0
 33 34  2  0  0  0  0
 35 37  2  0  0  0  0
 35 33  1  0  0  0  0
 36 38  1  0  0  0  0
 36 34  1  0  0  0  0
 37 36  1  0  0  0  0
 39 38  1  0  0  0  0
 39 40  2  0  0  0  0
 41 39  1  0  0  0  0
 42 41  1  0  0  0  0
 43 41  1  0  0  0  0
 44 43  2  0  0  0  0
 45 43  1  0  0  0  0
 46 44  1  0  0  0  0
 47 45  2  0  0  0  0
 48 46  2  0  0  0  0
 48 47  1  0  0  0  0
 49 50  1  0  0  0  0
 51 50  1  0  0  0  0
 51 52  1  0  0  0  0
 52 53  1  0  0  0  0
 53 54  1  0  0  0  0
M  END
>  <REMARK>
 VINA RESULT:    -4.006      4.507      7.949
 INTER + INTRA:         -14.967
 INTER:                  -8.649
 INTRA:                  -6.318
 UNBOUND:                -7.565
 SMILES CC(=O)N[C@@H]1[C@@H](O)C[C@](O)(C(=O)O)O[C@H]1C(O)[C@H](O)CNC(=O)OCc1cn(CC(=O)Nc2ncccn2)nn1
 SMILES IDX 21 1 22 2 23 3 20 5 18 6 16 7 15 8 9 9 8 10 14 11 6 12 5 13
 SMILES IDX 10 14 11 16 12 17 13 18 7 20 4 22 2 23 1 25 3 26 17 27 19 29
 SMILES IDX 24 31 25 32 26 33 27 34 40 35 28 36 39 37 29 38 30 39 31 40
 SMILES IDX 32 41 33 43 34 44 38 45 35 46 37 47 36 48
 H PARENT 21 4 10 15 13 19 7 21 4 24 17 28 19 30 32 42
 Flexibility Score: inf
  4 active torsions:
  status: ('A' for Active; 'I' for Inactive)
    1  A    between atoms: CA   and  CB  
    2  A    between atoms: CB   and  CG  
    3  A    between atoms: CG   and  CD  
    4  A    between atoms: CD   and  CE  

>  <TORSDO>
F 17

>  <BEGIN_>
RES LYS A 131

$$$$
ligand_71_pose_8_2HRL.pdbqt
 OpenBabel07062320523D

  6  5  0  0  0  0  0  0  0  0999 V2000
   33.1930   34.6630    9.2900 C   0  0  0  0  0  0  0  0  0  0  0  0
   32.0600   35.3600   10.0340 C   0  0  0  0  0  0  0  0  0  0  0  0
   32.5310   36.2300   11.1700 C   0  0  0  0  0  0  0  0  0  0  0  0
   32.2090   35.5860   12.5100 C   0  0  0  0  0  0  0  0  0  0  0  0
   31.9690   36.6460   13.5670 C   0  0  0  0  0  0  0  0  0  0  0  0
   31.7240   36.0290   14.9000 N   0  0  0  0  0  0  0  0  0  0  0  0
  1  2  1  0  0  0  0
  2  3  1  0  0  0  0
  3  4  1  0  0  0  0
  4  5  1  0  0  0  0
  5  6  1  0  0  0  0
M  END
>  <EGIN_R>
ES LYS A 135

>  <REMARK>
  4 active torsions:
  status: ('A' for Active; 'I' for Inactive)
    5  A    between atoms: CA   and  CB  
    6  A    between atoms: CB   and  CG  
    7  A    between atoms: CG   and  CD  
    8  A    between atoms: CD   and  CE  

$$$$
