ligand_57_pose_0_2HRL.pdbqt
 OpenBabel07062320523D

 50 51  0  0  1  0  0  0  0  0999 V2000
   26.0150   28.5850   19.7750 C   0  0  0  0  0  0  0  0  0  0  0  0
   27.0260   28.6550   20.8710 C   0  0  2  0  0  0  0  0  0  0  0  0
   27.8530   27.3920   20.9820 C   0  0  2  0  0  0  0  0  0  0  0  0
   29.2670   27.7440   21.3940 C   0  0  2  0  0  0  0  0  0  0  0  0
   31.4930   27.7500   20.6900 C   0  0  2  0  0  0  0  0  0  0  0  0
   31.9370   27.1900   22.0060 C   0  0  0  0  0  0  0  0  0  0  0  0
   30.1710   27.6000   20.3900 O   0  0  0  0  0  0  0  0  0  0  0  0
   30.9620   27.5210   23.1040 C   0  0  1  0  0  0  0  0  0  0  0  0
   29.5980   27.0050   22.6520 C   0  0  1  0  0  0  0  0  0  0  0  0
   32.3110   27.1660   19.6820 O   0  0  0  0  0  0  0  0  0  0  0  0
   32.2010   26.1840   19.6600 H   0  0  0  0  0  0  0  0  0  0  0  0
   31.7850   29.2070   20.6830 C   0  0  0  0  0  0  0  0  0  0  0  0
   32.7340   29.6570   21.3730 O   0  0  0  0  0  0  0  0  0  0  0  0
   31.0710   30.1450   19.9530 O   0  0  0  0  0  0  0  0  0  0  0  0
   30.3470   30.7300   20.3690 H   0  0  0  0  0  0  0  0  0  0  0  0
   31.3130   26.9050   24.3080 O   0  0  0  0  0  0  0  0  0  0  0  0
   31.2340   27.5120   25.0780 H   0  0  0  0  0  0  0  0  0  0  0  0
   28.6770   27.4050   23.7230 N   0  0  0  0  0  0  0  0  0  0  0  0
   27.9220   26.4670   24.4550 C   0  0  0  0  0  0  0  0  0  0  0  0
   28.6090   28.4130   23.9180 H   0  0  0  0  0  0  0  0  0  0  0  0
   26.9830   26.8950   25.5500 C   0  0  0  0  0  0  0  0  0  0  0  0
   28.0480   25.2470   24.1730 O   0  0  0  0  0  0  0  0  0  0  0  0
   27.8010   26.7220   19.7810 O   0  0  0  0  0  0  0  0  0  0  0  0
   27.6380   27.3510   19.0340 H   0  0  0  0  0  0  0  0  0  0  0  0
   26.3340   28.8180   22.0940 O   0  0  0  0  0  0  0  0  0  0  0  0
   26.8340   28.3940   22.8410 H   0  0  0  0  0  0  0  0  0  0  0  0
   26.3880   29.5250   18.7400 N   0  0  0  0  0  0  0  0  0  0  0  0
   26.9640   29.1610   17.4940 C   0  0  0  0  0  0  0  0  0  0  0  0
   26.2450   30.5730   18.8600 H   0  0  0  0  0  0  0  0  0  0  0  0
   27.1720   27.9630   17.2490 O   0  0  0  0  0  0  0  0  0  0  0  0
   27.3070   30.1010   16.5310 O   0  0  0  0  0  0  0  0  0  0  0  0
   28.5090   29.9750   15.7970 C   0  0  0  0  0  0  0  0  0  0  0  0
   29.4960   31.0000   16.2250 C   0  0  0  0  0  0  0  0  0  0  0  0
   30.2100   31.8660   15.4470 C   0  0  0  0  0  0  0  0  0  0  0  0
   29.8670   31.2560   17.4930 N   0  0  0  0  0  0  0  0  0  0  0  0
   30.9910   32.6220   16.2370 N   0  0  0  0  0  0  0  0  0  0  0  0
   30.7520   32.2190   17.4880 N   0  0  0  0  0  0  0  0  0  0  0  0
   31.8980   33.6590   15.7980 C   0  0  0  0  0  0  0  0  0  0  0  0
   32.1390   34.6800   16.8870 C   0  0  0  0  0  0  0  0  0  0  0  0
   31.4390   34.2850   14.5160 C   0  0  0  0  0  0  0  0  0  0  0  0
   31.0650   35.7410   16.9330 C   0  0  0  0  0  0  0  0  0  0  0  0
   30.3480   35.2950   14.6860 C   0  0  0  0  0  0  0  0  0  0  0  0
   30.7570   36.2790   15.6410 N   0  0  0  0  0  0  0  0  0  0  0  0
   31.8140   37.0800   15.0950 C   0  0  0  0  0  0  0  0  0  0  0  0
   29.8670   25.5550   16.9770 C   0  0  0  0  0  0  0  0  0  0  0  0
   28.3450   25.7220   17.0260 C   0  0  0  0  0  0  0  0  0  0  0  0
   27.6020   24.3990   16.9210 C   0  0  0  0  0  0  0  0  0  0  0  0
   26.1660   24.5200   17.3520 C   0  0  0  0  0  0  0  0  0  0  0  0
   25.8810   23.5100   18.4580 C   0  0  0  0  0  0  0  0  0  0  0  0
   25.4480   24.2030   19.6950 N   0  0  0  0  0  0  0  0  0  0  0  0
  2  1  1  6  0  0  0
  2  3  1  0  0  0  0
  2 25  1  0  0  0  0
  3 23  1  6  0  0  0
  4  3  1  6  0  0  0
  4  9  1  0  0  0  0
  5 10  1  6  0  0  0
  5  6  1  0  0  0  0
  6  8  1  0  0  0  0
  7  5  1  0  0  0  0
  7  4  1  0  0  0  0
  8 16  1  1  0  0  0
  9  8  1  0  0  0  0
  9 18  1  1  0  0  0
 11 10  1  0  0  0  0
 12  5  1  0  0  0  0
 12 13  2  0  0  0  0
 14 15  1  0  0  0  0
 14 12  1  0  0  0  0
 16 17  1  0  0  0  0
 18 20  1  0  0  0  0
 18 19  1  0  0  0  0
 19 21  1  0  0  0  0
 22 19  2  0  0  0  0
 24 23  1  0  0  0  0
 25 26  1  0  0  0  0
 27 29  1  0  0  0  0
 27  1  1  0  0  0  0
 28 27  1  0  0  0  0
 30 28  2  0  0  0  0
 31 28  1  0  0  0  0
 32 33  1  0  0  0  0
 32 31  1  0  0  0  0
 33 35  1  0  0  0  0
 34 33  2  0  0  0  0
 34 36  1  0  0  0  0
 36 37  1  0  0  0  0
 37 35  2  0  0  0  0
 38 36  1  0  0  0  0
 38 39  1  0  0  0  0
 39 41  1  0  0  0  0
 40 42  1  0  0  0  0
 40 38  1  0  0  0  0
 42 43  1  0  0  0  0
 43 41  1  0  0  0  0
 44 43  1  0  0  0  0
 45 46  1  0  0  0  0
 47 46  1  0  0  0  0
 47 48  1  0  0  0  0
 48 49  1  0  0  0  0
 49 50  1  0  0  0  0
M  END
>  <REMARK>
 VINA RESULT:    -4.939      0.000      0.000
 INTER + INTRA:         -14.335
 INTER:                  -8.842
 INTRA:                  -5.492
 UNBOUND:                -5.786
 SMILES CC(=O)N[C@@H]1[C@@H](O)C[C@](O)(C(=O)O)O[C@H]1C(O)[C@H](O)CNC(=O)OCc1cn(C2CCN(C)CC2)nn1
 SMILES IDX 20 1 18 2 16 3 15 4 9 5 8 6 14 7 6 8 5 9 10 10 11 12 12 13
 SMILES IDX 13 14 7 16 4 18 2 19 1 21 3 22 17 23 19 25 21 27 22 28 23 30
 SMILES IDX 24 31 25 32 26 33 27 34 37 35 28 36 36 37 29 38 30 39 35 40
 SMILES IDX 31 41 34 42 32 43 33 44
 H PARENT 10 11 13 15 7 17 4 20 17 24 19 26 21 29
 Flexibility Score: inf
  4 active torsions:
  status: ('A' for Active; 'I' for Inactive)
    1  A    between atoms: CA   and  CB  
    2  A    between atoms: CB   and  CG  
    3  A    between atoms: CG   and  CD  
    4  A    between atoms: CD   and  CE  

>  <TORSDO>
F 15

>  <BEGIN_>
RES LYS A 131

$$$$
ligand_57_pose_0_2HRL.pdbqt
 OpenBabel07062320523D

  6  5  0  0  0  0  0  0  0  0999 V2000
   33.1930   34.6630    9.2900 C   0  0  0  0  0  0  0  0  0  0  0  0
   32.0600   35.3600   10.0340 C   0  0  0  0  0  0  0  0  0  0  0  0
   30.7220   34.6900    9.8580 C   0  0  0  0  0  0  0  0  0  0  0  0
   30.3090   34.6910    8.3950 C   0  0  0  0  0  0  0  0  0  0  0  0
   28.8090   34.5060    8.2640 C   0  0  0  0  0  0  0  0  0  0  0  0
   28.2230   33.9750    9.5260 N   0  0  0  0  0  0  0  0  0  0  0  0
  1  2  1  0  0  0  0
  3  2  1  0  0  0  0
  4  3  1  0  0  0  0
  5  4  1  0  0  0  0
  5  6  1  0  0  0  0
M  END
>  <EGIN_R>
ES LYS A 135

>  <REMARK>
  4 active torsions:
  status: ('A' for Active; 'I' for Inactive)
    5  A    between atoms: CA   and  CB  
    6  A    between atoms: CB   and  CG  
    7  A    between atoms: CG   and  CD  
    8  A    between atoms: CD   and  CE  

$$$$
