ligand_61_pose_12_2HRL.pdbqt
 OpenBabel07062320523D

 49 50  0  0  1  0  0  0  0  0999 V2000
   28.4940   29.5390   18.7770 N   0  0  0  0  0  0  0  0  0  0  0  0
   28.7450   30.3970   17.6830 C   0  0  0  0  0  0  0  0  0  0  0  0
   27.8800   30.5110   16.7850 O   0  0  0  0  0  0  0  0  0  0  0  0
   29.2660   29.4840   19.5130 H   0  0  0  0  0  0  0  0  0  0  0  0
   27.2890   28.7570   18.9480 C   0  0  0  0  0  0  0  0  0  0  0  0
   27.0520   28.5410   20.4080 C   0  0  2  0  0  0  0  0  0  0  0  0
   27.8920   27.4350   21.0120 C   0  0  2  0  0  0  0  0  0  0  0  0
   29.0400   28.0420   21.7470 C   0  0  2  0  0  0  0  0  0  0  0  0
   31.3150   28.4440   21.6720 C   0  0  2  0  0  0  0  0  0  0  0  0
   31.0730   28.9810   23.0620 C   0  0  0  0  0  0  0  0  0  0  0  0
   30.1480   28.2690   20.9550 O   0  0  0  0  0  0  0  0  0  0  0  0
   30.1850   28.1070   23.8850 C   0  0  1  0  0  0  0  0  0  0  0  0
   29.4260   27.1810   22.9590 C   0  0  1  0  0  0  0  0  0  0  0  0
   32.1230   27.3050   21.6860 O   0  0  0  0  0  0  0  0  0  0  0  0
   31.7820   26.6480   21.0380 H   0  0  0  0  0  0  0  0  0  0  0  0
   32.1020   29.5060   20.9480 C   0  0  0  0  0  0  0  0  0  0  0  0
   33.3080   29.7040   21.1410 O   0  0  0  0  0  0  0  0  0  0  0  0
   31.4470   30.3090   20.0160 O   0  0  0  0  0  0  0  0  0  0  0  0
   31.5980   30.2330   19.0180 H   0  0  0  0  0  0  0  0  0  0  0  0
   30.8380   27.4310   24.8930 O   0  0  0  0  0  0  0  0  0  0  0  0
   31.8310   27.5960   24.8720 H   0  0  0  0  0  0  0  0  0  0  0  0
   28.2440   26.6300   23.5670 N   0  0  0  0  0  0  0  0  0  0  0  0
   28.3020   25.4050   24.3080 C   0  0  0  0  0  0  0  0  0  0  0  0
   27.3120   27.0920   23.4940 H   0  0  0  0  0  0  0  0  0  0  0  0
   27.1460   24.7810   24.9560 C   0  0  0  0  0  0  0  0  0  0  0  0
   29.4320   24.8220   24.4120 O   0  0  0  0  0  0  0  0  0  0  0  0
   28.3590   26.6670   19.9440 O   0  0  0  0  0  0  0  0  0  0  0  0
   29.1760   26.1840   20.2180 H   0  0  0  0  0  0  0  0  0  0  0  0
   25.7130   28.1470   20.5620 O   0  0  0  0  0  0  0  0  0  0  0  0
   25.4740   27.9700   21.4970 H   0  0  0  0  0  0  0  0  0  0  0  0
   29.9600   31.1090   17.6220 O   0  0  0  0  0  0  0  0  0  0  0  0
   30.3910   31.4570   16.3130 C   0  0  0  0  0  0  0  0  0  0  0  0
   31.1610   32.7050   16.4020 C   0  0  0  0  0  0  0  0  0  0  0  0
   31.8910   33.3290   15.4030 C   0  0  0  0  0  0  0  0  0  0  0  0
   31.2910   33.4770   17.5030 N   0  0  0  0  0  0  0  0  0  0  0  0
   32.4170   34.4330   15.9510 N   0  0  0  0  0  0  0  0  0  0  0  0
   32.0590   34.5280   17.2170 N   0  0  0  0  0  0  0  0  0  0  0  0
   33.2510   35.3780   15.2630 C   0  0  0  0  0  0  0  0  0  0  0  0
   32.4000   36.3470   14.4440 C   0  0  0  0  0  0  0  0  0  0  0  0
   32.3280   36.2720   13.1200 C   0  0  0  0  0  0  0  0  0  0  0  0
   31.6970   37.3170   15.1220 C   0  0  0  0  0  0  0  0  0  0  0  0
   31.5520   37.1610   12.4270 C   0  0  0  0  0  0  0  0  0  0  0  0
   30.8670   38.1880   13.7440 S   0  0  0  0  0  0  0  0  0  0  0  0
   29.8670   25.5550   16.9770 C   0  0  0  0  0  0  0  0  0  0  0  0
   28.3450   25.7220   17.0260 C   0  0  0  0  0  0  0  0  0  0  0  0
   27.5990   24.4240   16.7580 C   0  0  0  0  0  0  0  0  0  0  0  0
   26.9610   23.8700   18.0010 C   0  0  0  0  0  0  0  0  0  0  0  0
   25.6130   23.2500   17.6480 C   0  0  0  0  0  0  0  0  0  0  0  0
   24.7530   24.2370   16.9530 N   0  0  0  0  0  0  0  0  0  0  0  0
  1  5  1  0  0  0  0
  1  4  1  0  0  0  0
  2  1  1  0  0  0  0
  3  2  2  0  0  0  0
  6  5  1  6  0  0  0
  6 29  1  0  0  0  0
  6  7  1  0  0  0  0
  7 27  1  6  0  0  0
  8  7  1  6  0  0  0
  8 13  1  0  0  0  0
  9 16  1  6  0  0  0
  9 14  1  0  0  0  0
  9 10  1  0  0  0  0
 10 12  1  0  0  0  0
 11  9  1  0  0  0  0
 11  8  1  0  0  0  0
 12 20  1  1  0  0  0
 13 22  1  1  0  0  0
 13 12  1  0  0  0  0
 15 14  1  0  0  0  0
 16 17  2  0  0  0  0
 18 16  1  0  0  0  0
 19 18  1  0  0  0  0
 21 20  1  0  0  0  0
 22 23  1  0  0  0  0
 23 26  2  0  0  0  0
 23 25  1  0  0  0  0
 24 22  1  0  0  0  0
 27 28  1  0  0  0  0
 29 30  1  0  0  0  0
 31  2  1  0  0  0  0
 32 33  1  0  0  0  0
 32 31  1  0  0  0  0
 33 35  1  0  0  0  0
 34 36  1  0  0  0  0
 34 33  2  0  0  0  0
 36 37  1  0  0  0  0
 37 35  2  0  0  0  0
 38 36  1  0  0  0  0
 39 41  2  0  0  0  0
 39 38  1  0  0  0  0
 40 39  1  0  0  0  0
 42 40  2  0  0  0  0
 42 43  1  0  0  0  0
 43 41  1  0  0  0  0
 44 45  1  0  0  0  0
 46 45  1  0  0  0  0
 46 47  1  0  0  0  0
 48 47  1  0  0  0  0
 49 48  1  0  0  0  0
M  END
>  <REMARK>
 VINA RESULT:    -4.185      7.115     12.764
 INTER + INTRA:         -13.624
 INTER:                  -8.223
 INTRA:                  -5.401
 UNBOUND:                -6.136
 SMILES CC(=O)N[C@@H]1[C@@H](O)C[C@](O)(C(=O)O)O[C@H]1C(O)[C@H](O)CNC(=O)OCc1cn(Cc2ccsc2)nn1
 SMILES IDX 21 1 22 2 23 3 20 5 18 6 16 7 15 8 9 9 8 10 14 11 6 12 5 13
 SMILES IDX 10 14 11 16 12 17 13 18 7 20 4 22 2 23 1 25 3 26 17 27 19 29
 SMILES IDX 24 31 25 32 26 33 27 34 36 35 28 36 35 37 29 38 30 39 31 40
 SMILES IDX 34 41 32 42 33 43
 H PARENT 21 4 10 15 13 19 7 21 4 24 17 28 19 30
 Flexibility Score: inf
  4 active torsions:
  status: ('A' for Active; 'I' for Inactive)
    1  A    between atoms: CA   and  CB  
    2  A    between atoms: CB   and  CG  
    3  A    between atoms: CG   and  CD  
    4  A    between atoms: CD   and  CE  

>  <TORSDO>
F 16

>  <BEGIN_>
RES LYS A 131

$$$$
ligand_61_pose_12_2HRL.pdbqt
 OpenBabel07062320523D

  6  5  0  0  0  0  0  0  0  0999 V2000
   33.1930   34.6630    9.2900 C   0  0  0  0  0  0  0  0  0  0  0  0
   32.0600   35.3600   10.0340 C   0  0  0  0  0  0  0  0  0  0  0  0
   30.7060   34.7500    9.7780 C   0  0  0  0  0  0  0  0  0  0  0  0
   30.5120   34.4760    8.2950 C   0  0  0  0  0  0  0  0  0  0  0  0
   29.3670   35.3050    7.7450 C   0  0  0  0  0  0  0  0  0  0  0  0
   28.0520   34.7420    8.1560 N   0  0  0  0  0  0  0  0  0  0  0  0
  1  2  1  0  0  0  0
  3  2  1  0  0  0  0
  4  3  1  0  0  0  0
  5  6  1  0  0  0  0
  5  4  1  0  0  0  0
M  END
>  <EGIN_R>
ES LYS A 135

>  <REMARK>
  4 active torsions:
  status: ('A' for Active; 'I' for Inactive)
    5  A    between atoms: CA   and  CB  
    6  A    between atoms: CB   and  CG  
    7  A    between atoms: CG   and  CD  
    8  A    between atoms: CD   and  CE  

$$$$
