ligand_43_pose_14_2HRL.pdbqt
 OpenBabel07062320523D

 49 49  0  0  1  0  0  0  0  0999 V2000
   32.0760   34.3360   15.9470 O   0  0  0  0  0  0  0  0  0  0  0  0
   31.5010   33.1330   16.3070 C   0  0  0  0  0  0  0  0  0  0  0  0
   31.0720   32.9930   17.6680 N   0  0  0  0  0  0  0  0  0  0  0  0
   31.2110   33.7940   18.3140 H   0  0  0  0  0  0  0  0  0  0  0  0
   31.3550   32.1820   15.4730 O   0  0  0  0  0  0  0  0  0  0  0  0
   30.4680   31.7960   18.1460 C   0  0  0  0  0  0  0  0  0  0  0  0
   29.1740   32.0280   18.9280 C   0  0  2  0  0  0  0  0  0  0  0  0
   28.0540   31.6800   17.9790 C   0  0  2  0  0  0  0  0  0  0  0  0
   27.0940   30.6690   18.5150 C   0  0  2  0  0  0  0  0  0  0  0  0
   27.1380   28.3640   18.7820 C   0  0  2  0  0  0  0  0  0  0  0  0
   25.6420   28.5180   18.9630 C   0  0  0  0  0  0  0  0  0  0  0  0
   27.7710   29.5770   18.9890 O   0  0  0  0  0  0  0  0  0  0  0  0
   25.1230   29.2970   17.7760 C   0  0  1  0  0  0  0  0  0  0  0  0
   26.1670   30.3010   17.3480 C   0  0  1  0  0  0  0  0  0  0  0  0
   27.4400   27.8120   17.5410 O   0  0  0  0  0  0  0  0  0  0  0  0
   26.6630   27.8790   16.9420 H   0  0  0  0  0  0  0  0  0  0  0  0
   27.5980   27.3980   19.8120 C   0  0  0  0  0  0  0  0  0  0  0  0
   26.8310   26.9460   20.7000 O   0  0  0  0  0  0  0  0  0  0  0  0
   28.9210   26.9280   19.8550 O   0  0  0  0  0  0  0  0  0  0  0  0
   29.1950   26.2400   19.1590 H   0  0  0  0  0  0  0  0  0  0  0  0
   24.9200   28.4260   16.7220 O   0  0  0  0  0  0  0  0  0  0  0  0
   25.1900   28.8590   15.8750 H   0  0  0  0  0  0  0  0  0  0  0  0
   25.5650   31.5300   16.8630 N   0  0  0  0  0  0  0  0  0  0  0  0
   25.1920   31.7310   15.5040 C   0  0  0  0  0  0  0  0  0  0  0  0
   25.3710   32.3480   17.5060 H   0  0  0  0  0  0  0  0  0  0  0  0
   24.5730   33.0000   15.0150 C   0  0  0  0  0  0  0  0  0  0  0  0
   25.4100   30.7740   14.7090 O   0  0  0  0  0  0  0  0  0  0  0  0
   28.6710   31.2610   16.7890 O   0  0  0  0  0  0  0  0  0  0  0  0
   28.5450   31.9190   16.0590 H   0  0  0  0  0  0  0  0  0  0  0  0
   29.1050   33.3110   19.4290 O   0  0  0  0  0  0  0  0  0  0  0  0
   29.6170   33.9800   18.9450 H   0  0  0  0  0  0  0  0  0  0  0  0
   32.7160   34.4740   14.7060 C   0  0  0  0  0  0  0  0  0  0  0  0
   31.8780   35.4160   13.8910 C   0  0  0  0  0  0  0  0  0  0  0  0
   30.5070   35.2890   13.7330 C   0  0  0  0  0  0  0  0  0  0  0  0
   32.2260   36.4960   13.1930 N   0  0  0  0  0  0  0  0  0  0  0  0
   30.0760   36.2870   12.9520 N   0  0  0  0  0  0  0  0  0  0  0  0
   31.1390   37.0040   12.6390 N   0  0  0  0  0  0  0  0  0  0  0  0
   28.7280   36.5900   12.4940 C   0  0  0  0  0  0  0  0  0  0  0  0
   27.8080   35.4440   12.8210 C   0  0  0  0  0  0  0  0  0  0  0  0
   26.5730   35.4640   11.9540 C   0  0  0  0  0  0  0  0  0  0  0  0
   26.8780   35.8590   10.5330 C   0  0  0  0  0  0  0  0  0  0  0  0
   26.5680   34.7390    9.6160 C   0  0  0  0  0  0  0  0  0  0  0  0
   27.3290   33.6720    9.5110 C   0  0  0  0  0  0  0  0  0  0  0  0
   29.8670   25.5550   16.9770 C   0  0  0  0  0  0  0  0  0  0  0  0
   28.3450   25.7220   17.0260 C   0  0  0  0  0  0  0  0  0  0  0  0
   27.6020   24.3980   16.9320 C   0  0  0  0  0  0  0  0  0  0  0  0
   26.6040   24.2290   18.0430 C   0  0  0  0  0  0  0  0  0  0  0  0
   25.3090   24.9480   17.6780 C   0  0  0  0  0  0  0  0  0  0  0  0
   24.4090   24.0460   16.9210 N   0  0  0  0  0  0  0  0  0  0  0  0
  1  2  1  0  0  0  0
  2  3  1  0  0  0  0
  3  6  1  0  0  0  0
  3  4  1  0  0  0  0
  5  2  2  0  0  0  0
  7  6  1  6  0  0  0
  7 30  1  0  0  0  0
  8 28  1  6  0  0  0
  8  7  1  0  0  0  0
  9  8  1  6  0  0  0
  9 12  1  0  0  0  0
 10 15  1  6  0  0  0
 10 11  1  0  0  0  0
 10 12  1  0  0  0  0
 10 17  1  0  0  0  0
 13 21  1  6  0  0  0
 13 11  1  0  0  0  0
 14 23  1  1  0  0  0
 14 13  1  0  0  0  0
 14  9  1  0  0  0  0
 16 15  1  0  0  0  0
 17 19  1  0  0  0  0
 17 18  2  0  0  0  0
 20 19  1  0  0  0  0
 22 21  1  0  0  0  0
 23 25  1  0  0  0  0
 24 23  1  0  0  0  0
 26 24  1  0  0  0  0
 27 24  2  0  0  0  0
 29 28  1  0  0  0  0
 31 30  1  0  0  0  0
 32  1  1  0  0  0  0
 33 32  1  0  0  0  0
 34 33  2  0  0  0  0
 35 33  1  0  0  0  0
 36 34  1  0  0  0  0
 37 36  1  0  0  0  0
 37 35  2  0  0  0  0
 38 39  1  0  0  0  0
 38 36  1  0  0  0  0
 40 39  1  0  0  0  0
 41 40  1  0  0  0  0
 42 41  1  0  0  0  0
 43 42  2  0  0  0  0
 44 45  1  0  0  0  0
 46 45  1  0  0  0  0
 46 47  1  0  0  0  0
 48 47  1  0  0  0  0
 49 48  1  0  0  0  0
M  END
>  <REMARK>
 VINA RESULT:    -4.749      3.307      6.936
 INTER + INTRA:         -14.114
 INTER:                  -8.853
 INTRA:                  -5.261
 UNBOUND:                -4.785
 SMILES C=CCCCCn1cc(COC(=O)NC[C@@H](O)C(O)[C@@H]2O[C@@](O)(C(=O)O)C[C@H](O)[C@H]2NC(C)=O)nn1
 SMILES IDX 11 1 12 2 14 3 13 5 15 6 16 7 18 8 20 9 22 10 27 11 21 12
 SMILES IDX 28 13 30 14 23 15 24 17 25 18 26 19 29 21 31 23 32 24 33 26
 SMILES IDX 34 27 19 28 17 30 10 32 9 33 8 34 35 35 7 36 36 37 6 38 5 39
 SMILES IDX 4 40 3 41 2 42 1 43
 H PARENT 14 4 23 16 26 20 29 22 31 25 19 29 17 31
 Flexibility Score: inf
  4 active torsions:
  status: ('A' for Active; 'I' for Inactive)
    1  A    between atoms: CA   and  CB  
    2  A    between atoms: CB   and  CG  
    3  A    between atoms: CG   and  CD  
    4  A    between atoms: CD   and  CE  

>  <TORSDO>
F 19

>  <BEGIN_>
RES LYS A 131

$$$$
ligand_43_pose_14_2HRL.pdbqt
 OpenBabel07062320523D

  6  5  0  0  0  0  0  0  0  0999 V2000
   33.1930   34.6630    9.2900 C   0  0  0  0  0  0  0  0  0  0  0  0
   32.0600   35.3600   10.0340 C   0  0  0  0  0  0  0  0  0  0  0  0
   30.6970   34.8030    9.7140 C   0  0  0  0  0  0  0  0  0  0  0  0
   30.4700   34.7690    8.2110 C   0  0  0  0  0  0  0  0  0  0  0  0
   29.6090   35.9400    7.7750 C   0  0  0  0  0  0  0  0  0  0  0  0
   28.7490   35.5710    6.6170 N   0  0  0  0  0  0  0  0  0  0  0  0
  1  2  1  0  0  0  0
  3  2  1  0  0  0  0
  4  3  1  0  0  0  0
  5  4  1  0  0  0  0
  6  5  1  0  0  0  0
M  END
>  <EGIN_R>
ES LYS A 135

>  <REMARK>
  4 active torsions:
  status: ('A' for Active; 'I' for Inactive)
    5  A    between atoms: CA   and  CB  
    6  A    between atoms: CB   and  CG  
    7  A    between atoms: CG   and  CD  
    8  A    between atoms: CD   and  CE  

$$$$
