ligand_43_pose_8_2HRL.pdbqt
 OpenBabel07062320523D

 49 49  0  0  1  0  0  0  0  0999 V2000
   24.6760   34.8030   11.2440 O   0  0  0  0  0  0  0  0  0  0  0  0
   25.0720   34.6890   12.5620 C   0  0  0  0  0  0  0  0  0  0  0  0
   25.5110   35.8860   13.2200 N   0  0  0  0  0  0  0  0  0  0  0  0
   25.5110   36.7740   12.6820 H   0  0  0  0  0  0  0  0  0  0  0  0
   25.0510   33.5740   13.1760 O   0  0  0  0  0  0  0  0  0  0  0  0
   25.9410   35.8820   14.5770 C   0  0  0  0  0  0  0  0  0  0  0  0
   27.4480   36.0890   14.7460 C   0  0  2  0  0  0  0  0  0  0  0  0
   27.9630   34.8330   15.4020 C   0  0  2  0  0  0  0  0  0  0  0  0
   29.4520   34.7650   15.5030 C   0  0  2  0  0  0  0  0  0  0  0  0
   31.1920   34.8230   13.9680 C   0  0  2  0  0  0  0  0  0  0  0  0
   32.0140   34.2900   15.1220 C   0  0  0  0  0  0  0  0  0  0  0  0
   30.0290   35.4070   14.4400 O   0  0  0  0  0  0  0  0  0  0  0  0
   31.3010   33.0700   15.6580 C   0  0  1  0  0  0  0  0  0  0  0  0
   29.8090   33.2720   15.5280 C   0  0  1  0  0  0  0  0  0  0  0  0
   30.9430   33.8290   13.0270 O   0  0  0  0  0  0  0  0  0  0  0  0
   30.1170   33.3460   13.2540 H   0  0  0  0  0  0  0  0  0  0  0  0
   32.0150   35.8610   13.2970 C   0  0  0  0  0  0  0  0  0  0  0  0
   31.9360   37.0800   13.5970 O   0  0  0  0  0  0  0  0  0  0  0  0
   32.9340   35.5430   12.2830 O   0  0  0  0  0  0  0  0  0  0  0  0
   32.6220   35.6480   11.3210 H   0  0  0  0  0  0  0  0  0  0  0  0
   31.6450   31.9740   14.8890 O   0  0  0  0  0  0  0  0  0  0  0  0
   32.4840   32.1600   14.4000 H   0  0  0  0  0  0  0  0  0  0  0  0
   29.0860   32.6670   16.6320 N   0  0  0  0  0  0  0  0  0  0  0  0
   28.7030   31.2960   16.6550 C   0  0  0  0  0  0  0  0  0  0  0  0
   28.8050   33.2250   17.4870 H   0  0  0  0  0  0  0  0  0  0  0  0
   27.9580   30.6840   17.7960 C   0  0  0  0  0  0  0  0  0  0  0  0
   29.0220   30.6020   15.6500 O   0  0  0  0  0  0  0  0  0  0  0  0
   27.4220   33.7630   14.6700 O   0  0  0  0  0  0  0  0  0  0  0  0
   26.4340   33.7430   14.7270 H   0  0  0  0  0  0  0  0  0  0  0  0
   27.7280   37.2430   15.4460 O   0  0  0  0  0  0  0  0  0  0  0  0
   27.4220   38.0690   15.0360 H   0  0  0  0  0  0  0  0  0  0  0  0
   23.6100   35.6460   10.8930 C   0  0  0  0  0  0  0  0  0  0  0  0
   24.0020   36.3290    9.6170 C   0  0  0  0  0  0  0  0  0  0  0  0
   25.3120   36.4600    9.1830 C   0  0  0  0  0  0  0  0  0  0  0  0
   23.2510   36.9180    8.6870 N   0  0  0  0  0  0  0  0  0  0  0  0
   25.3080   37.1160    8.0160 N   0  0  0  0  0  0  0  0  0  0  0  0
   24.0460   37.3820    7.7390 N   0  0  0  0  0  0  0  0  0  0  0  0
   26.4250   37.4990    7.1650 C   0  0  0  0  0  0  0  0  0  0  0  0
   27.2820   36.2960    6.8720 C   0  0  0  0  0  0  0  0  0  0  0  0
   28.6380   36.7000    6.3490 C   0  0  0  0  0  0  0  0  0  0  0  0
   29.1570   37.9520    7.0060 C   0  0  0  0  0  0  0  0  0  0  0  0
   29.6280   38.9070    5.9780 C   0  0  0  0  0  0  0  0  0  0  0  0
   28.8230   39.7380    5.3530 C   0  0  0  0  0  0  0  0  0  0  0  0
   29.8670   25.5550   16.9770 C   0  0  0  0  0  0  0  0  0  0  0  0
   28.3450   25.7220   17.0260 C   0  0  0  0  0  0  0  0  0  0  0  0
   27.6030   24.3960   16.9570 C   0  0  0  0  0  0  0  0  0  0  0  0
   26.1390   24.5500   17.2660 C   0  0  0  0  0  0  0  0  0  0  0  0
   25.9360   24.5540   18.7770 C   0  0  0  0  0  0  0  0  0  0  0  0
   25.5740   23.1990   19.2560 N   0  0  0  0  0  0  0  0  0  0  0  0
  1  2  1  0  0  0  0
  2  5  2  0  0  0  0
  2  3  1  0  0  0  0
  3  6  1  0  0  0  0
  4  3  1  0  0  0  0
  7  6  1  1  0  0  0
  7  8  1  0  0  0  0
  7 30  1  0  0  0  0
  8 28  1  6  0  0  0
  9  8  1  6  0  0  0
  9 14  1  0  0  0  0
 10 15  1  6  0  0  0
 10 12  1  0  0  0  0
 10 11  1  0  0  0  0
 11 13  1  0  0  0  0
 12  9  1  0  0  0  0
 13 21  1  6  0  0  0
 14 13  1  0  0  0  0
 14 23  1  1  0  0  0
 15 16  1  0  0  0  0
 17 18  2  0  0  0  0
 17 10  1  0  0  0  0
 19 17  1  0  0  0  0
 20 19  1  0  0  0  0
 22 21  1  0  0  0  0
 23 24  1  0  0  0  0
 23 25  1  0  0  0  0
 24 26  1  0  0  0  0
 27 24  2  0  0  0  0
 28 29  1  0  0  0  0
 31 30  1  0  0  0  0
 32  1  1  0  0  0  0
 33 32  1  0  0  0  0
 34 33  2  0  0  0  0
 35 33  1  0  0  0  0
 36 34  1  0  0  0  0
 37 36  1  0  0  0  0
 37 35  2  0  0  0  0
 38 36  1  0  0  0  0
 39 38  1  0  0  0  0
 40 39  1  0  0  0  0
 40 41  1  0  0  0  0
 42 41  1  0  0  0  0
 43 42  2  0  0  0  0
 44 45  1  0  0  0  0
 46 45  1  0  0  0  0
 46 47  1  0  0  0  0
 47 48  1  0  0  0  0
 48 49  1  0  0  0  0
M  END
>  <REMARK>
 VINA RESULT:    -4.967      3.517      7.854
 INTER + INTRA:         -14.543
 INTER:                  -9.219
 INTRA:                  -5.324
 UNBOUND:                -4.785
 SMILES C=CCCCCn1cc(COC(=O)NC[C@@H](O)C(O)[C@@H]2O[C@@](O)(C(=O)O)C[C@H](O)[C@H]2NC(C)=O)nn1
 SMILES IDX 11 1 12 2 14 3 13 5 15 6 16 7 18 8 20 9 22 10 27 11 21 12
 SMILES IDX 28 13 30 14 23 15 24 17 25 18 26 19 29 21 31 23 32 24 33 26
 SMILES IDX 34 27 19 28 17 30 10 32 9 33 8 34 35 35 7 36 36 37 6 38 5 39
 SMILES IDX 4 40 3 41 2 42 1 43
 H PARENT 14 4 23 16 26 20 29 22 31 25 19 29 17 31
 Flexibility Score: inf
  4 active torsions:
  status: ('A' for Active; 'I' for Inactive)
    1  A    between atoms: CA   and  CB  
    2  A    between atoms: CB   and  CG  
    3  A    between atoms: CG   and  CD  
    4  A    between atoms: CD   and  CE  

>  <TORSDO>
F 19

>  <BEGIN_>
RES LYS A 131

$$$$
ligand_43_pose_8_2HRL.pdbqt
 OpenBabel07062320523D

  6  5  0  0  0  0  0  0  0  0999 V2000
   33.1930   34.6630    9.2900 C   0  0  0  0  0  0  0  0  0  0  0  0
   32.0600   35.3600   10.0340 C   0  0  0  0  0  0  0  0  0  0  0  0
   30.7750   35.4270    9.2490 C   0  0  0  0  0  0  0  0  0  0  0  0
   30.1780   34.0390    9.0780 C   0  0  0  0  0  0  0  0  0  0  0  0
   28.6920   34.0580    9.3830 C   0  0  0  0  0  0  0  0  0  0  0  0
   28.4380   34.4740   10.7900 N   0  0  0  0  0  0  0  0  0  0  0  0
  1  2  1  0  0  0  0
  3  2  1  0  0  0  0
  4  3  1  0  0  0  0
  4  5  1  0  0  0  0
  5  6  1  0  0  0  0
M  END
>  <EGIN_R>
ES LYS A 135

>  <REMARK>
  4 active torsions:
  status: ('A' for Active; 'I' for Inactive)
    5  A    between atoms: CA   and  CB  
    6  A    between atoms: CB   and  CG  
    7  A    between atoms: CG   and  CD  
    8  A    between atoms: CD   and  CE  

$$$$
