ligand_59_pose_11_2HRL.pdbqt
 OpenBabel07062320523D

 52 53  0  0  1  0  0  0  0  0999 V2000
   28.5320   27.5620   19.4140 N   0  0  0  0  0  0  0  0  0  0  0  0
   27.3210   27.8370   18.6950 C   0  0  0  0  0  0  0  0  0  0  0  0
   26.3030   28.0590   19.3880 O   0  0  0  0  0  0  0  0  0  0  0  0
   29.3580   27.3960   18.7990 H   0  0  0  0  0  0  0  0  0  0  0  0
   28.5580   27.5570   20.8510 C   0  0  0  0  0  0  0  0  0  0  0  0
   29.9960   27.6530   21.3350 C   0  0  2  0  0  0  0  0  0  0  0  0
   30.3540   29.1100   21.2890 C   0  0  2  0  0  0  0  0  0  0  0  0
   29.4050   30.0690   21.9480 C   0  0  2  0  0  0  0  0  0  0  0  0
   27.3060   30.9500   21.3270 C   0  0  2  0  0  0  0  0  0  0  0  0
   27.6560   32.3280   21.8310 C   0  0  0  0  0  0  0  0  0  0  0  0
   28.3970   30.2080   21.0300 O   0  0  0  0  0  0  0  0  0  0  0  0
   29.1410   32.4750   21.5620 C   0  0  1  0  0  0  0  0  0  0  0  0
   29.9130   31.3870   22.3480 C   0  0  1  0  0  0  0  0  0  0  0  0
   26.5540   31.1710   20.1310 O   0  0  0  0  0  0  0  0  0  0  0  0
   26.8640   32.0100   19.7050 H   0  0  0  0  0  0  0  0  0  0  0  0
   26.4030   30.2020   22.2260 C   0  0  0  0  0  0  0  0  0  0  0  0
   26.3630   30.4930   23.4380 O   0  0  0  0  0  0  0  0  0  0  0  0
   25.5980   29.1860   21.7490 O   0  0  0  0  0  0  0  0  0  0  0  0
   24.5950   29.2600   21.8640 H   0  0  0  0  0  0  0  0  0  0  0  0
   29.4470   32.4490   20.2240 O   0  0  0  0  0  0  0  0  0  0  0  0
   29.8580   31.5680   19.9940 H   0  0  0  0  0  0  0  0  0  0  0  0
   29.7300   31.7490   23.7160 N   0  0  0  0  0  0  0  0  0  0  0  0
   30.7320   31.5690   24.6830 C   0  0  0  0  0  0  0  0  0  0  0  0
   28.8230   32.1530   24.0080 H   0  0  0  0  0  0  0  0  0  0  0  0
   30.5420   31.9460   26.1040 C   0  0  0  0  0  0  0  0  0  0  0  0
   31.8260   31.0770   24.3410 O   0  0  0  0  0  0  0  0  0  0  0  0
   30.3990   29.4940   19.9360 O   0  0  0  0  0  0  0  0  0  0  0  0
   29.9640   28.8180   19.3500 H   0  0  0  0  0  0  0  0  0  0  0  0
   30.7170   26.9600   20.3240 O   0  0  0  0  0  0  0  0  0  0  0  0
   30.1730   26.2210   20.0090 H   0  0  0  0  0  0  0  0  0  0  0  0
   27.2490   27.8620   17.3290 O   0  0  0  0  0  0  0  0  0  0  0  0
   27.0450   29.0140   16.5700 C   0  0  0  0  0  0  0  0  0  0  0  0
   28.0630   30.0700   16.7990 C   0  0  0  0  0  0  0  0  0  0  0  0
   28.6090   30.8630   15.7860 C   0  0  0  0  0  0  0  0  0  0  0  0
   28.6580   30.4890   17.9080 N   0  0  0  0  0  0  0  0  0  0  0  0
   29.4920   31.7040   16.3240 N   0  0  0  0  0  0  0  0  0  0  0  0
   29.5150   31.4690   17.6140 N   0  0  0  0  0  0  0  0  0  0  0  0
   30.2740   32.6760   15.6150 C   0  0  0  0  0  0  0  0  0  0  0  0
   31.5240   33.0830   16.0330 C   0  0  0  0  0  0  0  0  0  0  0  0
   29.7860   33.2400   14.4990 N   0  0  0  0  0  0  0  0  0  0  0  0
   32.2700   34.0190   15.3680 C   0  0  0  0  0  0  0  0  0  0  0  0
   30.4800   34.1600   13.8130 C   0  0  0  0  0  0  0  0  0  0  0  0
   31.7410   34.5810   14.2220 C   0  0  0  0  0  0  0  0  0  0  0  0
   32.4690   35.6060   13.4220 C   0  0  0  0  0  0  0  0  0  0  0  0
   33.2010   34.9670   12.4300 O   0  0  0  0  0  0  0  0  0  0  0  0
   32.5960   34.4250   11.8600 H   0  0  0  0  0  0  0  0  0  0  0  0
   29.8670   25.5550   16.9770 C   0  0  0  0  0  0  0  0  0  0  0  0
   28.3450   25.7220   17.0260 C   0  0  0  0  0  0  0  0  0  0  0  0
   27.6020   24.3990   16.9240 C   0  0  0  0  0  0  0  0  0  0  0  0
   26.6030   24.2230   18.0340 C   0  0  0  0  0  0  0  0  0  0  0  0
   25.2520   24.7770   17.5950 C   0  0  0  0  0  0  0  0  0  0  0  0
   24.3930   25.0440   18.7740 N   0  0  0  0  0  0  0  0  0  0  0  0
  1  5  1  0  0  0  0
  2  3  2  0  0  0  0
  2  1  1  0  0  0  0
  4  1  1  0  0  0  0
  6  5  1  6  0  0  0
  7 27  1  6  0  0  0
  7  6  1  0  0  0  0
  8  7  1  6  0  0  0
  8 13  1  0  0  0  0
  9 14  1  6  0  0  0
  9 10  1  0  0  0  0
  9 16  1  0  0  0  0
 11  9  1  0  0  0  0
 11  8  1  0  0  0  0
 12 20  1  6  0  0  0
 12 10  1  0  0  0  0
 12 13  1  0  0  0  0
 13 22  1  1  0  0  0
 15 14  1  0  0  0  0
 16 17  2  0  0  0  0
 18 19  1  0  0  0  0
 18 16  1  0  0  0  0
 21 20  1  0  0  0  0
 22 24  1  0  0  0  0
 22 23  1  0  0  0  0
 23 25  1  0  0  0  0
 26 23  2  0  0  0  0
 28 27  1  0  0  0  0
 29  6  1  0  0  0  0
 30 29  1  0  0  0  0
 31  2  1  0  0  0  0
 32 33  1  0  0  0  0
 32 31  1  0  0  0  0
 33 35  1  0  0  0  0
 34 36  1  0  0  0  0
 34 33  2  0  0  0  0
 36 37  1  0  0  0  0
 37 35  2  0  0  0  0
 38 39  1  0  0  0  0
 38 36  1  0  0  0  0
 40 38  2  0  0  0  0
 41 39  2  0  0  0  0
 42 43  2  0  0  0  0
 42 40  1  0  0  0  0
 43 41  1  0  0  0  0
 44 43  1  0  0  0  0
 45 44  1  0  0  0  0
 46 45  1  0  0  0  0
 47 48  1  0  0  0  0
 49 48  1  0  0  0  0
 49 50  1  0  0  0  0
 51 50  1  0  0  0  0
 51 52  1  0  0  0  0
M  END
>  <REMARK>
 VINA RESULT:    -4.924      1.655      2.228
 INTER + INTRA:         -14.688
 INTER:                  -8.520
 INTRA:                  -6.168
 UNBOUND:                -5.735
 SMILES CC(=O)N[C@@H]1[C@@H](O)C[C@](O)(C(=O)O)O[C@H]1C(O)[C@H](O)CNC(=O)OCc1cn(-c2ccc(CO)cn2)nn1
 SMILES IDX 21 1 22 2 23 3 20 5 18 6 16 7 15 8 9 9 8 10 14 11 6 12 5 13
 SMILES IDX 10 14 11 16 12 17 13 18 7 20 4 22 2 23 1 25 3 26 17 27 19 29
 SMILES IDX 24 31 25 32 26 33 27 34 38 35 28 36 37 37 29 38 30 39 36 40
 SMILES IDX 31 41 35 42 32 43 33 44 34 45
 H PARENT 21 4 10 15 13 19 7 21 4 24 17 28 19 30 34 46
 Flexibility Score: inf
  4 active torsions:
  status: ('A' for Active; 'I' for Inactive)
    1  A    between atoms: CA   and  CB  
    2  A    between atoms: CB   and  CG  
    3  A    between atoms: CG   and  CD  
    4  A    between atoms: CD   and  CE  

>  <TORSDO>
F 17

>  <BEGIN_>
RES LYS A 131

$$$$
ligand_59_pose_11_2HRL.pdbqt
 OpenBabel07062320523D

  6  5  0  0  0  0  0  0  0  0999 V2000
   33.1930   34.6630    9.2900 C   0  0  0  0  0  0  0  0  0  0  0  0
   32.0600   35.3600   10.0340 C   0  0  0  0  0  0  0  0  0  0  0  0
   30.7970   35.4910    9.2220 C   0  0  0  0  0  0  0  0  0  0  0  0
   30.1420   34.1330    9.0260 C   0  0  0  0  0  0  0  0  0  0  0  0
   28.6800   34.2950    8.6570 C   0  0  0  0  0  0  0  0  0  0  0  0
   27.7960   33.6530    9.6680 N   0  0  0  0  0  0  0  0  0  0  0  0
  1  2  1  0  0  0  0
  3  2  1  0  0  0  0
  4  3  1  0  0  0  0
  5  4  1  0  0  0  0
  5  6  1  0  0  0  0
M  END
>  <EGIN_R>
ES LYS A 135

>  <REMARK>
  4 active torsions:
  status: ('A' for Active; 'I' for Inactive)
    5  A    between atoms: CA   and  CB  
    6  A    between atoms: CB   and  CG  
    7  A    between atoms: CG   and  CD  
    8  A    between atoms: CD   and  CE  

$$$$
