ligand_8_pose_15_2HRL.pdbqt
 OpenBabel07062320523D

 50 51  0  0  1  0  0  0  0  0999 V2000
   28.9720   27.3120   20.4490 C   0  0  0  0  0  0  0  0  0  0  0  0
   27.7760   27.1200   19.5520 C   0  0  2  0  0  0  0  0  0  0  0  0
   27.2860   28.4730   19.1380 C   0  0  1  0  0  0  0  0  0  0  0  0
   26.5370   28.5270   17.8280 C   0  0  2  0  0  0  0  0  0  0  0  0
   27.0650   30.5250   16.7220 C   0  0  2  0  0  0  0  0  0  0  0  0
   25.7260   30.5060   15.9850 C   0  0  0  0  0  0  0  0  0  0  0  0
   27.3660   29.2270   16.9610 O   0  0  0  0  0  0  0  0  0  0  0  0
   24.7100   30.0970   17.0130 C   0  0  1  0  0  0  0  0  0  0  0  0
   25.1370   28.9580   17.9010 C   0  0  1  0  0  0  0  0  0  0  0  0
   26.9100   31.3450   17.8110 O   0  0  0  0  0  0  0  0  0  0  0  0
   26.8280   30.7700   18.6120 H   0  0  0  0  0  0  0  0  0  0  0  0
   28.0990   31.1180   15.8300 C   0  0  0  0  0  0  0  0  0  0  0  0
   27.9990   32.3260   15.5000 O   0  0  0  0  0  0  0  0  0  0  0  0
   29.1690   30.3670   15.3550 O   0  0  0  0  0  0  0  0  0  0  0  0
   29.7840   29.8300   15.9610 H   0  0  0  0  0  0  0  0  0  0  0  0
   24.4590   31.2270   17.7920 O   0  0  0  0  0  0  0  0  0  0  0  0
   23.5460   31.2360   18.1290 H   0  0  0  0  0  0  0  0  0  0  0  0
   24.2780   27.7930   17.5980 N   0  0  0  0  0  0  0  0  0  0  0  0
   23.7410   26.9880   18.6270 C   0  0  0  0  0  0  0  0  0  0  0  0
   24.0500   27.5460   16.5920 H   0  0  0  0  0  0  0  0  0  0  0  0
   22.8750   25.7970   18.3260 C   0  0  0  0  0  0  0  0  0  0  0  0
   24.0070   27.2910   19.8170 O   0  0  0  0  0  0  0  0  0  0  0  0
   26.6760   29.1110   20.1870 O   0  0  0  0  0  0  0  0  0  0  0  0
   26.8690   28.6770   21.0720 H   0  0  0  0  0  0  0  0  0  0  0  0
   26.7970   26.4230   20.2100 O   0  0  0  0  0  0  0  0  0  0  0  0
   26.9180   25.4350   20.1490 H   0  0  0  0  0  0  0  0  0  0  0  0
   29.5960   28.5910   20.4220 N   0  0  0  0  0  0  0  0  0  0  0  0
   30.0760   29.2670   21.5650 C   0  0  0  0  0  0  0  0  0  0  0  0
   29.7270   29.1070   19.4890 H   0  0  0  0  0  0  0  0  0  0  0  0
   29.9870   28.8080   22.7270 O   0  0  0  0  0  0  0  0  0  0  0  0
   30.6850   30.5200   21.3950 O   0  0  0  0  0  0  0  0  0  0  0  0
   29.8880   31.6620   21.6100 C   0  0  0  0  0  0  0  0  0  0  0  0
   29.7640   32.3830   20.3190 C   0  0  0  0  0  0  0  0  0  0  0  0
   30.8320   32.6410   19.4500 C   0  0  0  0  0  0  0  0  0  0  0  0
   28.7090   32.9280   19.7030 N   0  0  0  0  0  0  0  0  0  0  0  0
   30.3920   33.3150   18.3730 N   0  0  0  0  0  0  0  0  0  0  0  0
   29.0930   33.4760   18.5540 N   0  0  0  0  0  0  0  0  0  0  0  0
   31.1860   33.7540   17.2700 C   0  0  0  0  0  0  0  0  0  0  0  0
   31.3490   32.9830   16.1410 C   0  0  0  0  0  0  0  0  0  0  0  0
   31.8220   34.9770   17.2950 C   0  0  0  0  0  0  0  0  0  0  0  0
   32.1280   33.4290   15.0720 C   0  0  0  0  0  0  0  0  0  0  0  0
   32.5960   35.4240   16.2350 C   0  0  0  0  0  0  0  0  0  0  0  0
   31.6010   36.0600   18.8640 Br  0  0  0  0  0  0  0  0  0  0  0  0
   32.7610   34.6540   15.1040 C   0  0  0  0  0  0  0  0  0  0  0  0
   29.8670   25.5550   16.9770 C   0  0  0  0  0  0  0  0  0  0  0  0
   28.3450   25.7220   17.0260 C   0  0  0  0  0  0  0  0  0  0  0  0
   27.6010   24.4020   16.8970 C   0  0  0  0  0  0  0  0  0  0  0  0
   26.1470   24.5330   17.2560 C   0  0  0  0  0  0  0  0  0  0  0  0
   25.7710   23.4480   18.2600 C   0  0  0  0  0  0  0  0  0  0  0  0
   25.0630   22.3370   17.5820 N   0  0  0  0  0  0  0  0  0  0  0  0
  2 25  1  0  0  0  0
  2  1  1  1  0  0  0
  3  2  1  0  0  0  0
  3 23  1  1  0  0  0
  4  9  1  0  0  0  0
  4  3  1  1  0  0  0
  5 12  1  6  0  0  0
  5  7  1  0  0  0  0
  5 10  1  0  0  0  0
  6  5  1  0  0  0  0
  6  8  1  0  0  0  0
  7  4  1  0  0  0  0
  8 16  1  1  0  0  0
  8  9  1  0  0  0  0
  9 18  1  6  0  0  0
 10 11  1  0  0  0  0
 13 12  2  0  0  0  0
 14 12  1  0  0  0  0
 14 15  1  0  0  0  0
 16 17  1  0  0  0  0
 18 19  1  0  0  0  0
 19 22  2  0  0  0  0
 20 18  1  0  0  0  0
 21 19  1  0  0  0  0
 23 24  1  0  0  0  0
 26 25  1  0  0  0  0
 27  1  1  0  0  0  0
 27 28  1  0  0  0  0
 28 30  2  0  0  0  0
 29 27  1  0  0  0  0
 31 28  1  0  0  0  0
 31 32  1  0  0  0  0
 33 32  1  0  0  0  0
 34 33  2  0  0  0  0
 35 33  1  0  0  0  0
 36 37  1  0  0  0  0
 36 34  1  0  0  0  0
 37 35  2  0  0  0  0
 38 40  1  0  0  0  0
 38 36  1  0  0  0  0
 39 38  2  0  0  0  0
 40 43  1  0  0  0  0
 41 44  2  0  0  0  0
 41 39  1  0  0  0  0
 42 40  2  0  0  0  0
 44 42  1  0  0  0  0
 45 46  1  0  0  0  0
 47 46  1  0  0  0  0
 47 48  1  0  0  0  0
 48 49  1  0  0  0  0
 50 49  1  0  0  0  0
M  END
>  <REMARK>
 VINA RESULT:    -5.458      2.173      4.772
 INTER + INTRA:         -13.841
 INTER:                  -7.488
 INTRA:                  -6.354
 UNBOUND:                -4.396
 SMILES CC(=O)N[C@@H]1[C@@H](O)C[C@](O)(C(=O)O)O[C@H]1C(O)[C@H](O)CNC(=O)OCc1cn(-c2ccccc2Br)nn1
 SMILES IDX 20 1 18 2 16 3 15 4 9 5 8 6 14 7 6 8 5 9 10 10 11 12 12 13
 SMILES IDX 13 14 7 16 4 18 2 19 1 21 3 22 17 23 19 25 21 27 22 28 23 30
 SMILES IDX 24 31 25 32 26 33 27 34 37 35 28 36 36 37 29 38 30 39 34 40
 SMILES IDX 31 41 33 42 35 43 32 44
 H PARENT 10 11 13 15 7 17 4 20 17 24 19 26 21 29
 Flexibility Score: inf
  4 active torsions:
  status: ('A' for Active; 'I' for Inactive)
    1  A    between atoms: CA   and  CB  
    2  A    between atoms: CB   and  CG  
    3  A    between atoms: CG   and  CD  
    4  A    between atoms: CD   and  CE  

>  <TORSDO>
F 15

>  <BEGIN_>
RES LYS A 131

$$$$
ligand_8_pose_15_2HRL.pdbqt
 OpenBabel07062320523D

  6  5  0  0  0  0  0  0  0  0999 V2000
   33.1930   34.6630    9.2900 C   0  0  0  0  0  0  0  0  0  0  0  0
   32.0600   35.3600   10.0340 C   0  0  0  0  0  0  0  0  0  0  0  0
   30.6980   34.7920    9.7270 C   0  0  0  0  0  0  0  0  0  0  0  0
   30.5540   34.5180    8.2380 C   0  0  0  0  0  0  0  0  0  0  0  0
   29.3360   35.2310    7.6820 C   0  0  0  0  0  0  0  0  0  0  0  0
   28.0810   34.6830    8.2660 N   0  0  0  0  0  0  0  0  0  0  0  0
  1  2  1  0  0  0  0
  3  2  1  0  0  0  0
  4  3  1  0  0  0  0
  5  4  1  0  0  0  0
  5  6  1  0  0  0  0
M  END
>  <EGIN_R>
ES LYS A 135

>  <REMARK>
  4 active torsions:
  status: ('A' for Active; 'I' for Inactive)
    5  A    between atoms: CA   and  CB  
    6  A    between atoms: CB   and  CG  
    7  A    between atoms: CG   and  CD  
    8  A    between atoms: CD   and  CE  

$$$$
