ligand_14_pose_2_2HRL.pdbqt
 OpenBabel07062320523D

 50 51  0  0  1  0  0  0  0  0999 V2000
   26.2210   30.4080   19.0870 N   0  0  0  0  0  0  0  0  0  0  0  0
   25.1050   30.5610   18.2440 C   0  0  0  0  0  0  0  0  0  0  0  0
   24.2960   29.6360   18.0950 O   0  0  0  0  0  0  0  0  0  0  0  0
   26.8600   31.2720   19.1310 H   0  0  0  0  0  0  0  0  0  0  0  0
   26.5640   29.2540   19.8550 C   0  0  0  0  0  0  0  0  0  0  0  0
   27.5190   28.3720   19.1040 C   0  0  2  0  0  0  0  0  0  0  0  0
   28.1940   27.3670   20.0320 C   0  0  1  0  0  0  0  0  0  0  0  0
   29.0000   28.1920   21.0510 C   0  0  2  0  0  0  0  0  0  0  0  0
   31.3190   27.8540   20.9560 C   0  0  2  0  0  0  0  0  0  0  0  0
   31.0480   26.5720   21.7180 C   0  0  0  0  0  0  0  0  0  0  0  0
   30.2090   28.5230   20.5450 O   0  0  0  0  0  0  0  0  0  0  0  0
   30.1260   26.8300   22.8590 C   0  0  1  0  0  0  0  0  0  0  0  0
   28.9320   27.6140   22.4170 C   0  0  1  0  0  0  0  0  0  0  0  0
   31.9790   27.4310   19.7770 O   0  0  0  0  0  0  0  0  0  0  0  0
   32.4530   28.2260   19.3850 H   0  0  0  0  0  0  0  0  0  0  0  0
   32.2740   28.7230   21.6850 C   0  0  0  0  0  0  0  0  0  0  0  0
   32.0480   29.9490   21.7750 O   0  0  0  0  0  0  0  0  0  0  0  0
   33.4100   28.1970   22.2700 O   0  0  0  0  0  0  0  0  0  0  0  0
   33.6530   27.2340   22.0840 H   0  0  0  0  0  0  0  0  0  0  0  0
   29.7520   25.6040   23.3970 O   0  0  0  0  0  0  0  0  0  0  0  0
   29.0190   25.2010   22.8580 H   0  0  0  0  0  0  0  0  0  0  0  0
   28.5480   28.6200   23.4050 N   0  0  0  0  0  0  0  0  0  0  0  0
   27.2170   28.8520   23.7720 C   0  0  0  0  0  0  0  0  0  0  0  0
   29.3180   29.1690   23.8310 H   0  0  0  0  0  0  0  0  0  0  0  0
   26.9190   29.8960   24.7850 C   0  0  0  0  0  0  0  0  0  0  0  0
   26.2750   28.1750   23.2450 O   0  0  0  0  0  0  0  0  0  0  0  0
   27.1900   26.6550   20.6810 O   0  0  0  0  0  0  0  0  0  0  0  0
   27.1680   26.7800   21.6460 H   0  0  0  0  0  0  0  0  0  0  0  0
   28.4410   29.0420   18.3330 O   0  0  0  0  0  0  0  0  0  0  0  0
   28.0670   29.7380   17.7440 H   0  0  0  0  0  0  0  0  0  0  0  0
   24.8530   31.7420   17.5410 O   0  0  0  0  0  0  0  0  0  0  0  0
   25.2910   31.8920   16.2060 C   0  0  0  0  0  0  0  0  0  0  0  0
   26.7050   31.4800   16.0250 C   0  0  0  0  0  0  0  0  0  0  0  0
   27.8330   32.3020   16.0530 C   0  0  0  0  0  0  0  0  0  0  0  0
   27.2000   30.2500   15.7960 N   0  0  0  0  0  0  0  0  0  0  0  0
   28.9440   31.5730   15.8480 N   0  0  0  0  0  0  0  0  0  0  0  0
   28.5050   30.3140   15.6950 N   0  0  0  0  0  0  0  0  0  0  0  0
   30.3250   32.0060   15.7930 C   0  0  0  0  0  0  0  0  0  0  0  0
   30.5890   32.9720   14.6870 C   0  0  0  0  0  0  0  0  0  0  0  0
   30.9660   34.2930   15.1230 N   0  0  0  0  0  0  0  0  0  0  0  0
   31.9080   34.1510   16.2210 C   0  0  0  0  0  0  0  0  0  0  0  0
   31.6710   35.0300   14.0920 C   0  0  0  0  0  0  0  0  0  0  0  0
   33.0130   35.1340   16.0070 C   0  0  0  0  0  0  0  0  0  0  0  0
   32.4590   36.0270   14.9170 C   0  0  0  0  0  0  0  0  0  0  0  0
   29.8670   25.5550   16.9770 C   0  0  0  0  0  0  0  0  0  0  0  0
   28.3450   25.7220   17.0260 C   0  0  0  0  0  0  0  0  0  0  0  0
   27.6010   24.4050   16.8660 C   0  0  0  0  0  0  0  0  0  0  0  0
   26.7020   24.1170   18.0370 C   0  0  0  0  0  0  0  0  0  0  0  0
   25.4900   23.3210   17.5640 C   0  0  0  0  0  0  0  0  0  0  0  0
   24.5400   24.2000   16.8430 N   0  0  0  0  0  0  0  0  0  0  0  0
  1  4  1  0  0  0  0
  1  5  1  0  0  0  0
  2  1  1  0  0  0  0
  3  2  2  0  0  0  0
  6  5  1  1  0  0  0
  6  7  1  0  0  0  0
  7 27  1  1  0  0  0
  8  7  1  6  0  0  0
  8 13  1  0  0  0  0
  9 14  1  6  0  0  0
  9 16  1  0  0  0  0
  9 10  1  0  0  0  0
 10 12  1  0  0  0  0
 11  9  1  0  0  0  0
 11  8  1  0  0  0  0
 12 20  1  6  0  0  0
 13 12  1  0  0  0  0
 13 22  1  1  0  0  0
 15 14  1  0  0  0  0
 16 17  2  0  0  0  0
 16 18  1  0  0  0  0
 19 18  1  0  0  0  0
 21 20  1  0  0  0  0
 22 23  1  0  0  0  0
 22 24  1  0  0  0  0
 23 25  1  0  0  0  0
 26 23  2  0  0  0  0
 27 28  1  0  0  0  0
 29  6  1  0  0  0  0
 30 29  1  0  0  0  0
 31  2  1  0  0  0  0
 32 31  1  0  0  0  0
 33 34  2  0  0  0  0
 33 32  1  0  0  0  0
 35 33  1  0  0  0  0
 36 34  1  0  0  0  0
 37 35  2  0  0  0  0
 37 36  1  0  0  0  0
 38 36  1  0  0  0  0
 39 40  1  0  0  0  0
 39 38  1  0  0  0  0
 40 41  1  0  0  0  0
 42 44  1  0  0  0  0
 42 40  1  0  0  0  0
 43 41  1  0  0  0  0
 44 43  1  0  0  0  0
 45 46  1  0  0  0  0
 47 46  1  0  0  0  0
 47 48  1  0  0  0  0
 49 48  1  0  0  0  0
 50 49  1  0  0  0  0
M  END
>  <REMARK>
 VINA RESULT:    -4.623      7.581     12.961
 INTER + INTRA:         -14.536
 INTER:                  -8.553
 INTRA:                  -5.983
 UNBOUND:                -5.994
 SMILES CC(=O)N[C@@H]1[C@@H](O)C[C@](O)(C(=O)O)O[C@H]1C(O)[C@H](O)CNC(=O)OCc1cn(CCN2CCCC2)nn1
 SMILES IDX 21 1 22 2 23 3 20 5 18 6 16 7 15 8 9 9 8 10 14 11 6 12 5 13
 SMILES IDX 10 14 11 16 12 17 13 18 7 20 4 22 2 23 1 25 3 26 17 27 19 29
 SMILES IDX 24 31 25 32 26 33 27 34 37 35 28 36 36 37 29 38 30 39 31 40
 SMILES IDX 32 41 35 42 33 43 34 44
 H PARENT 21 4 10 15 13 19 7 21 4 24 17 28 19 30
 Flexibility Score: inf
  4 active torsions:
  status: ('A' for Active; 'I' for Inactive)
    1  A    between atoms: CA   and  CB  
    2  A    between atoms: CB   and  CG  
    3  A    between atoms: CG   and  CD  
    4  A    between atoms: CD   and  CE  

>  <TORSDO>
F 17

>  <BEGIN_>
RES LYS A 131

$$$$
ligand_14_pose_2_2HRL.pdbqt
 OpenBabel07062320523D

  6  5  0  0  0  0  0  0  0  0999 V2000
   33.1930   34.6630    9.2900 C   0  0  0  0  0  0  0  0  0  0  0  0
   32.0600   35.3600   10.0340 C   0  0  0  0  0  0  0  0  0  0  0  0
   30.7960   35.4880    9.2230 C   0  0  0  0  0  0  0  0  0  0  0  0
   30.1010   34.1410    9.0970 C   0  0  0  0  0  0  0  0  0  0  0  0
   28.6710   34.3220    8.6250 C   0  0  0  0  0  0  0  0  0  0  0  0
   27.7100   33.6900    9.5700 N   0  0  0  0  0  0  0  0  0  0  0  0
  1  2  1  0  0  0  0
  3  2  1  0  0  0  0
  4  3  1  0  0  0  0
  5  4  1  0  0  0  0
  5  6  1  0  0  0  0
M  END
>  <EGIN_R>
ES LYS A 135

>  <REMARK>
  4 active torsions:
  status: ('A' for Active; 'I' for Inactive)
    5  A    between atoms: CA   and  CB  
    6  A    between atoms: CB   and  CG  
    7  A    between atoms: CG   and  CD  
    8  A    between atoms: CD   and  CE  

$$$$
