ligand_22_pose_6_2HRL.pdbqt
 OpenBabel07062320523D

 50 50  0  0  1  0  0  0  0  0999 V2000
   26.1800   31.3330   18.7050 N   0  0  0  0  0  0  0  0  0  0  0  0
   26.7840   32.1780   19.6650 C   0  0  0  0  0  0  0  0  0  0  0  0
   27.2670   33.3120   19.3230 O   0  0  0  0  0  0  0  0  0  0  0  0
   25.7880   30.4170   18.9930 H   0  0  0  0  0  0  0  0  0  0  0  0
   26.1270   31.7900   17.3400 C   0  0  0  0  0  0  0  0  0  0  0  0
   26.6810   30.8490   16.3310 C   0  0  2  0  0  0  0  0  0  0  0  0
   28.1830   30.7190   16.3880 C   0  0  1  0  0  0  0  0  0  0  0  0
   28.7740   32.1320   16.4370 C   0  0  2  0  0  0  0  0  0  0  0  0
   29.2640   33.8590   14.9570 C   0  0  2  0  0  0  0  0  0  0  0  0
   30.6390   34.0290   15.5660 C   0  0  0  0  0  0  0  0  0  0  0  0
   28.7400   32.6000   15.1280 O   0  0  0  0  0  0  0  0  0  0  0  0
   31.1720   32.7000   16.0130 C   0  0  1  0  0  0  0  0  0  0  0  0
   30.1860   32.0720   16.9790 C   0  0  1  0  0  0  0  0  0  0  0  0
   29.4280   34.0340   13.5740 O   0  0  0  0  0  0  0  0  0  0  0  0
   28.6440   34.4750   13.1990 H   0  0  0  0  0  0  0  0  0  0  0  0
   28.3450   34.9110   15.4430 C   0  0  0  0  0  0  0  0  0  0  0  0
   28.7770   35.8360   16.1610 O   0  0  0  0  0  0  0  0  0  0  0  0
   26.9950   34.9120   15.1270 O   0  0  0  0  0  0  0  0  0  0  0  0
   26.3070   35.3850   15.6950 H   0  0  0  0  0  0  0  0  0  0  0  0
   31.4930   31.8630   14.9710 O   0  0  0  0  0  0  0  0  0  0  0  0
   31.3410   30.9090   15.1460 H   0  0  0  0  0  0  0  0  0  0  0  0
   30.2960   32.8200   18.2300 N   0  0  0  0  0  0  0  0  0  0  0  0
   30.5740   32.1660   19.4610 C   0  0  0  0  0  0  0  0  0  0  0  0
   30.1700   33.8540   18.2330 H   0  0  0  0  0  0  0  0  0  0  0  0
   30.6900   32.9150   20.7470 C   0  0  0  0  0  0  0  0  0  0  0  0
   30.7200   30.9040   19.4040 O   0  0  0  0  0  0  0  0  0  0  0  0
   28.6610   29.9390   17.4030 O   0  0  0  0  0  0  0  0  0  0  0  0
   28.4470   30.3250   18.2740 H   0  0  0  0  0  0  0  0  0  0  0  0
   26.3210   31.3790   15.0650 O   0  0  0  0  0  0  0  0  0  0  0  0
   26.8560   32.2100   14.9110 H   0  0  0  0  0  0  0  0  0  0  0  0
   26.8990   31.8610   21.0030 O   0  0  0  0  0  0  0  0  0  0  0  0
   26.5340   30.5610   21.4990 C   0  0  0  0  0  0  0  0  0  0  0  0
   27.6480   29.6310   21.1820 C   0  0  0  0  0  0  0  0  0  0  0  0
   28.7520   29.3930   21.9850 C   0  0  0  0  0  0  0  0  0  0  0  0
   27.8340   28.8480   20.1020 N   0  0  0  0  0  0  0  0  0  0  0  0
   29.5620   28.4910   21.3840 N   0  0  0  0  0  0  0  0  0  0  0  0
   28.9720   28.1830   20.2440 N   0  0  0  0  0  0  0  0  0  0  0  0
   30.8120   27.9900   21.9170 C   0  0  0  0  0  0  0  0  0  0  0  0
   31.2550   28.8320   23.0950 C   0  0  0  0  0  0  0  0  0  0  0  0
   30.6300   26.5510   22.3550 C   0  0  0  0  0  0  0  0  0  0  0  0
   31.8970   28.0700   20.8950 C   0  0  0  0  0  0  0  0  0  0  0  0
   32.7460   28.9880   21.0250 O   0  0  0  0  0  0  0  0  0  0  0  0
   31.9870   27.1820   19.8410 O   0  0  0  0  0  0  0  0  0  0  0  0
   31.6610   27.5010   18.9330 H   0  0  0  0  0  0  0  0  0  0  0  0
   29.8670   25.5550   16.9770 C   0  0  0  0  0  0  0  0  0  0  0  0
   28.3450   25.7220   17.0260 C   0  0  0  0  0  0  0  0  0  0  0  0
   27.6020   24.3980   16.9300 C   0  0  0  0  0  0  0  0  0  0  0  0
   26.5220   24.2790   17.9690 C   0  0  0  0  0  0  0  0  0  0  0  0
   26.0500   25.6710   18.3760 C   0  0  0  0  0  0  0  0  0  0  0  0
   25.9220   25.7660   19.8490 N   0  0  0  0  0  0  0  0  0  0  0  0
  1  4  1  0  0  0  0
  1  2  1  0  0  0  0
  2 31  1  0  0  0  0
  3  2  2  0  0  0  0
  5  1  1  0  0  0  0
  6  7  1  0  0  0  0
  6  5  1  1  0  0  0
  7 27  1  1  0  0  0
  8  7  1  6  0  0  0
  8 13  1  0  0  0  0
  9 14  1  6  0  0  0
  9 11  1  0  0  0  0
  9 16  1  0  0  0  0
  9 10  1  0  0  0  0
 10 12  1  0  0  0  0
 11  8  1  0  0  0  0
 12 20  1  6  0  0  0
 12 13  1  0  0  0  0
 13 22  1  1  0  0  0
 15 14  1  0  0  0  0
 16 17  2  0  0  0  0
 18 16  1  0  0  0  0
 18 19  1  0  0  0  0
 20 21  1  0  0  0  0
 22 24  1  0  0  0  0
 22 23  1  0  0  0  0
 23 25  1  0  0  0  0
 26 23  2  0  0  0  0
 27 28  1  0  0  0  0
 29  6  1  0  0  0  0
 30 29  1  0  0  0  0
 31 32  1  0  0  0  0
 33 32  1  0  0  0  0
 33 34  2  0  0  0  0
 35 37  2  0  0  0  0
 35 33  1  0  0  0  0
 36 38  1  0  0  0  0
 36 34  1  0  0  0  0
 37 36  1  0  0  0  0
 38 40  1  0  0  0  0
 38 39  1  0  0  0  0
 41 42  2  0  0  0  0
 41 38  1  0  0  0  0
 43 41  1  0  0  0  0
 44 43  1  0  0  0  0
 45 46  1  0  0  0  0
 47 46  1  0  0  0  0
 47 48  1  0  0  0  0
 48 49  1  0  0  0  0
 49 50  1  0  0  0  0
M  END
>  <REMARK>
 VINA RESULT:    -4.994      4.122      6.597
 INTER + INTRA:         -14.659
 INTER:                  -7.569
 INTRA:                  -7.090
 UNBOUND:                -5.578
 SMILES CC(=O)N[C@@H]1[C@@H](O)C[C@](O)(C(=O)O)O[C@H]1C(O)[C@H](O)CNC(=O)OCc1cn(C(C)(C)C(=O)O)nn1
 SMILES IDX 21 1 22 2 23 3 20 5 18 6 16 7 15 8 9 9 8 10 14 11 6 12 5 13
 SMILES IDX 10 14 11 16 12 17 13 18 7 20 4 22 2 23 1 25 3 26 17 27 19 29
 SMILES IDX 24 31 25 32 26 33 27 34 36 35 28 36 35 37 29 38 30 39 31 40
 SMILES IDX 32 41 33 42 34 43
 H PARENT 21 4 10 15 13 19 7 21 4 24 17 28 19 30 34 44
 Flexibility Score: inf
  4 active torsions:
  status: ('A' for Active; 'I' for Inactive)
    1  A    between atoms: CA   and  CB  
    2  A    between atoms: CB   and  CG  
    3  A    between atoms: CG   and  CD  
    4  A    between atoms: CD   and  CE  

>  <TORSDO>
F 17

>  <BEGIN_>
RES LYS A 131

$$$$
ligand_22_pose_6_2HRL.pdbqt
 OpenBabel07062320523D

  6  5  0  0  0  0  0  0  0  0999 V2000
   33.1930   34.6630    9.2900 C   0  0  0  0  0  0  0  0  0  0  0  0
   32.0600   35.3600   10.0340 C   0  0  0  0  0  0  0  0  0  0  0  0
   30.8440   35.6130    9.1800 C   0  0  0  0  0  0  0  0  0  0  0  0
   30.2170   34.3000    8.7370 C   0  0  0  0  0  0  0  0  0  0  0  0
   28.7160   34.4500    8.5870 C   0  0  0  0  0  0  0  0  0  0  0  0
   27.9910   33.6570    9.6180 N   0  0  0  0  0  0  0  0  0  0  0  0
  1  2  1  0  0  0  0
  3  2  1  0  0  0  0
  4  3  1  0  0  0  0
  5  4  1  0  0  0  0
  5  6  1  0  0  0  0
M  END
>  <EGIN_R>
ES LYS A 135

>  <REMARK>
  4 active torsions:
  status: ('A' for Active; 'I' for Inactive)
    5  A    between atoms: CA   and  CB  
    6  A    between atoms: CB   and  CG  
    7  A    between atoms: CG   and  CD  
    8  A    between atoms: CD   and  CE  

$$$$
