ligand_45_pose_9_2HRL.pdbqt
 OpenBabel07062320523D

 52 52  0  0  1  0  0  0  0  0999 V2000
   23.7660   37.1000    8.6030 O   0  0  0  0  0  0  0  0  0  0  0  0
   24.9890   37.6420    8.9440 C   0  0  0  0  0  0  0  0  0  0  0  0
   26.0470   36.8510    9.4970 N   0  0  0  0  0  0  0  0  0  0  0  0
   25.8460   35.8520    9.6160 H   0  0  0  0  0  0  0  0  0  0  0  0
   25.1750   38.8680    8.7640 O   0  0  0  0  0  0  0  0  0  0  0  0
   27.2730   37.4800    9.8220 C   0  0  0  0  0  0  0  0  0  0  0  0
   27.7500   37.3380   11.2290 C   0  0  2  0  0  0  0  0  0  0  0  0
   28.1240   35.9510   11.6510 C   0  0  1  0  0  0  0  0  0  0  0  0
   29.0940   35.8740   12.7910 C   0  0  2  0  0  0  0  0  0  0  0  0
   31.1780   35.0810   13.3530 C   0  0  2  0  0  0  0  0  0  0  0  0
   30.8880   35.9790   14.5400 C   0  0  0  0  0  0  0  0  0  0  0  0
   30.2030   35.1690   12.3880 O   0  0  0  0  0  0  0  0  0  0  0  0
   29.5790   35.6170   15.1710 C   0  0  1  0  0  0  0  0  0  0  0  0
   28.5570   35.3290   14.0680 C   0  0  1  0  0  0  0  0  0  0  0  0
   31.2050   33.7590   13.8350 O   0  0  0  0  0  0  0  0  0  0  0  0
   30.9870   33.1850   13.0550 H   0  0  0  0  0  0  0  0  0  0  0  0
   32.5000   35.4030   12.7950 C   0  0  0  0  0  0  0  0  0  0  0  0
   32.6610   36.4390   12.0900 O   0  0  0  0  0  0  0  0  0  0  0  0
   33.5970   34.5970   13.0200 O   0  0  0  0  0  0  0  0  0  0  0  0
   33.7590   34.1750   13.9150 H   0  0  0  0  0  0  0  0  0  0  0  0
   29.7660   34.4810   15.9710 O   0  0  0  0  0  0  0  0  0  0  0  0
   29.7900   33.6820   15.4020 H   0  0  0  0  0  0  0  0  0  0  0  0
   27.3520   36.0430   14.5000 N   0  0  0  0  0  0  0  0  0  0  0  0
   26.4290   35.4250   15.3780 C   0  0  0  0  0  0  0  0  0  0  0  0
   27.1840   37.0130   14.1500 H   0  0  0  0  0  0  0  0  0  0  0  0
   25.2000   36.1650   15.8080 C   0  0  0  0  0  0  0  0  0  0  0  0
   26.5840   34.2520   15.8360 O   0  0  0  0  0  0  0  0  0  0  0  0
   26.9540   35.2390   11.9560 O   0  0  0  0  0  0  0  0  0  0  0  0
   26.1980   35.7180   11.5170 H   0  0  0  0  0  0  0  0  0  0  0  0
   26.7180   37.8300   12.0570 O   0  0  0  0  0  0  0  0  0  0  0  0
   26.1920   37.1130   12.4650 H   0  0  0  0  0  0  0  0  0  0  0  0
   22.7220   37.1000    9.5660 C   0  0  0  0  0  0  0  0  0  0  0  0
   23.0590   36.1820   10.6770 C   0  0  0  0  0  0  0  0  0  0  0  0
   22.6000   34.9110   10.9440 C   0  0  0  0  0  0  0  0  0  0  0  0
   23.9230   36.4490   11.6800 N   0  0  0  0  0  0  0  0  0  0  0  0
   23.1740   34.4400   12.0690 N   0  0  0  0  0  0  0  0  0  0  0  0
   23.9690   35.4040   12.4830 N   0  0  0  0  0  0  0  0  0  0  0  0
   22.9930   33.1830   12.7180 C   0  0  0  0  0  0  0  0  0  0  0  0
   24.1750   32.7130   13.4760 C   0  0  0  0  0  0  0  0  0  0  0  0
   24.4830   31.2740   13.4880 C   0  0  0  0  0  0  0  0  0  0  0  0
   24.2460   30.4920   14.6310 N   0  0  0  0  0  0  0  0  0  0  0  0
   23.2590   30.9730   15.5600 C   0  0  0  0  0  0  0  0  0  0  0  0
   23.6950   29.2140   14.1360 C   0  0  0  0  0  0  0  0  0  0  0  0
   23.3670   29.2060   12.6930 C   0  0  0  0  0  0  0  0  0  0  0  0
   25.4320   30.1540   15.3660 C   0  0  0  0  0  0  0  0  0  0  0  0
   25.6410   30.9260   16.6180 C   0  0  0  0  0  0  0  0  0  0  0  0
   29.8670   25.5550   16.9770 C   0  0  0  0  0  0  0  0  0  0  0  0
   28.3450   25.7220   17.0260 C   0  0  0  0  0  0  0  0  0  0  0  0
   27.6010   24.4040   16.8740 C   0  0  0  0  0  0  0  0  0  0  0  0
   26.5100   24.2490   17.8970 C   0  0  0  0  0  0  0  0  0  0  0  0
   25.1560   24.2100   17.1950 C   0  0  0  0  0  0  0  0  0  0  0  0
   24.4340   25.4900   17.3900 N   0  0  0  0  0  0  0  0  0  0  0  0
  1  2  1  0  0  0  0
  1 32  1  0  0  0  0
  2  3  1  0  0  0  0
  3  4  1  0  0  0  0
  3  6  1  0  0  0  0
  5  2  2  0  0  0  0
  7  6  1  6  0  0  0
  7  8  1  0  0  0  0
  7 30  1  0  0  0  0
  8 28  1  1  0  0  0
  9  8  1  6  0  0  0
  9 14  1  0  0  0  0
 10 17  1  6  0  0  0
 10 15  1  0  0  0  0
 10 11  1  0  0  0  0
 11 13  1  0  0  0  0
 12  9  1  0  0  0  0
 12 10  1  0  0  0  0
 13 21  1  1  0  0  0
 14 23  1  1  0  0  0
 14 13  1  0  0  0  0
 16 15  1  0  0  0  0
 17 19  1  0  0  0  0
 18 17  2  0  0  0  0
 19 20  1  0  0  0  0
 22 21  1  0  0  0  0
 23 24  1  0  0  0  0
 24 26  1  0  0  0  0
 24 27  2  0  0  0  0
 25 23  1  0  0  0  0
 29 28  1  0  0  0  0
 30 31  1  0  0  0  0
 32 33  1  0  0  0  0
 33 34  2  0  0  0  0
 33 35  1  0  0  0  0
 34 36  1  0  0  0  0
 35 37  2  0  0  0  0
 36 37  1  0  0  0  0
 36 38  1  0  0  0  0
 38 39  1  0  0  0  0
 39 40  1  0  0  0  0
 40 41  1  0  0  0  0
 41 45  1  0  0  0  0
 41 42  1  0  0  0  0
 43 41  1  0  0  0  0
 44 43  1  0  0  0  0
 45 46  1  0  0  0  0
 47 48  1  0  0  0  0
 49 48  1  0  0  0  0
 49 50  1  0  0  0  0
 51 52  1  0  0  0  0
 51 50  1  0  0  0  0
M  END
>  <REMARK>
 VINA RESULT:    -4.174      6.318     10.119
 INTER + INTRA:         -14.320
 INTER:                  -7.891
 INTRA:                  -6.429
 UNBOUND:                -5.875
 SMILES CC[N+](C)(CC)CCCn1cc(COC(=O)NC[C@@H](O)C(O)[C@@H]2O[C@@](O)(C(=O)O)C[C@H](O)[C@H]2NC(C)=O)nn1
 SMILES IDX 14 1 15 2 17 3 16 5 18 6 19 7 21 8 23 9 25 10 30 11 24 12
 SMILES IDX 31 13 33 14 26 15 27 17 28 18 29 19 32 21 34 23 35 24 36 26
 SMILES IDX 37 27 22 28 20 30 13 32 12 33 11 34 38 35 10 36 39 37 9 38
 SMILES IDX 8 39 7 40 3 41 4 42 2 43 1 44 5 45 6 46
 H PARENT 17 4 26 16 29 20 32 22 34 25 22 29 20 31
 Flexibility Score: inf
  4 active torsions:
  status: ('A' for Active; 'I' for Inactive)
    1  A    between atoms: CA   and  CB  
    2  A    between atoms: CB   and  CG  
    3  A    between atoms: CG   and  CD  
    4  A    between atoms: CD   and  CE  

>  <TORSDO>
F 20

>  <BEGIN_>
RES LYS A 131

$$$$
ligand_45_pose_9_2HRL.pdbqt
 OpenBabel07062320523D

  6  5  0  0  0  0  0  0  0  0999 V2000
   33.1930   34.6630    9.2900 C   0  0  0  0  0  0  0  0  0  0  0  0
   32.0600   35.3600   10.0340 C   0  0  0  0  0  0  0  0  0  0  0  0
   30.8280   35.5720    9.1930 C   0  0  0  0  0  0  0  0  0  0  0  0
   30.1340   34.2470    8.9150 C   0  0  0  0  0  0  0  0  0  0  0  0
   28.7890   34.4790    8.2530 C   0  0  0  0  0  0  0  0  0  0  0  0
   28.9160   35.3940    7.0850 N   0  0  0  0  0  0  0  0  0  0  0  0
  1  2  1  0  0  0  0
  3  2  1  0  0  0  0
  4  3  1  0  0  0  0
  5  4  1  0  0  0  0
  6  5  1  0  0  0  0
M  END
>  <EGIN_R>
ES LYS A 135

>  <REMARK>
  4 active torsions:
  status: ('A' for Active; 'I' for Inactive)
    5  A    between atoms: CA   and  CB  
    6  A    between atoms: CB   and  CG  
    7  A    between atoms: CG   and  CD  
    8  A    between atoms: CD   and  CE  

$$$$
