ligand_87_pose_6_2HRL.pdbqt
 OpenBabel07062320523D

 52 54  0  0  1  0  0  0  0  0999 V2000
   30.5230   32.9240   17.2570 C   0  0  0  0  0  0  0  0  0  0  0  0
   30.8990   32.5380   15.8570 C   0  0  2  0  0  0  0  0  0  0  0  0
   29.9050   33.1110   14.8540 C   0  0  2  0  0  0  0  0  0  0  0  0
   30.5840   34.2850   14.1490 C   0  0  2  0  0  0  0  0  0  0  0  0
   32.5680   35.4950   14.4100 C   0  0  2  0  0  0  0  0  0  0  0  0
   31.8720   36.8040   14.6150 C   0  0  0  0  0  0  0  0  0  0  0  0
   31.8250   34.3840   14.6360 O   0  0  0  0  0  0  0  0  0  0  0  0
   30.3930   36.7120   14.7800 C   0  0  1  0  0  0  0  0  0  0  0  0
   29.7360   35.5270   14.1550 C   0  0  1  0  0  0  0  0  0  0  0  0
   33.6430   35.4370   15.3030 O   0  0  0  0  0  0  0  0  0  0  0  0
   34.2130   36.2420   15.2630 H   0  0  0  0  0  0  0  0  0  0  0  0
   33.1570   35.3790   13.0590 C   0  0  0  0  0  0  0  0  0  0  0  0
   32.7830   36.1500   12.1510 O   0  0  0  0  0  0  0  0  0  0  0  0
   34.1260   34.4420   12.7140 O   0  0  0  0  0  0  0  0  0  0  0  0
   34.9250   34.2680   13.3430 H   0  0  0  0  0  0  0  0  0  0  0  0
   30.1260   36.7640   16.1560 O   0  0  0  0  0  0  0  0  0  0  0  0
   29.2080   37.0900   16.3110 H   0  0  0  0  0  0  0  0  0  0  0  0
   29.1400   35.7720   12.8700 N   0  0  0  0  0  0  0  0  0  0  0  0
   27.8200   35.4020   12.5250 C   0  0  0  0  0  0  0  0  0  0  0  0
   29.7000   36.2570   12.1180 H   0  0  0  0  0  0  0  0  0  0  0  0
   27.1880   35.6430   11.2100 C   0  0  0  0  0  0  0  0  0  0  0  0
   27.1700   34.8280   13.4310 O   0  0  0  0  0  0  0  0  0  0  0  0
   28.7230   33.5110   15.4560 O   0  0  0  0  0  0  0  0  0  0  0  0
   28.7470   34.4980   15.5480 H   0  0  0  0  0  0  0  0  0  0  0  0
   30.9560   31.1860   15.6670 O   0  0  0  0  0  0  0  0  0  0  0  0
   31.3130   30.9790   14.7540 H   0  0  0  0  0  0  0  0  0  0  0  0
   30.9730   34.2250   17.6160 N   0  0  0  0  0  0  0  0  0  0  0  0
   31.5940   34.5640   18.8300 C   0  0  0  0  0  0  0  0  0  0  0  0
   30.8370   35.0240   16.9180 H   0  0  0  0  0  0  0  0  0  0  0  0
   31.8060   33.7340   19.7330 O   0  0  0  0  0  0  0  0  0  0  0  0
   31.9990   35.8960   19.0450 O   0  0  0  0  0  0  0  0  0  0  0  0
   33.2880   36.1310   19.5730 C   0  0  0  0  0  0  0  0  0  0  0  0
   34.2030   36.5780   18.5230 C   0  0  0  0  0  0  0  0  0  0  0  0
   35.4650   36.0520   18.2740 C   0  0  0  0  0  0  0  0  0  0  0  0
   34.0070   37.5490   17.6320 N   0  0  0  0  0  0  0  0  0  0  0  0
   35.9860   36.7250   17.2410 N   0  0  0  0  0  0  0  0  0  0  0  0
   35.0880   37.6150   16.8770 N   0  0  0  0  0  0  0  0  0  0  0  0
   37.2730   36.5370   16.6190 C   0  0  1  0  0  0  0  0  0  0  0  0
   38.2960   36.2010   17.7030 C   0  0  0  0  0  0  0  0  0  0  0  0
   37.1530   35.3330   15.7100 C   0  0  0  0  0  0  0  0  0  0  0  0
   39.5720   35.7620   17.0370 C   0  0  1  0  0  0  0  0  0  0  0  0
   38.5030   34.8580   15.2800 C   0  0  2  0  0  0  0  0  0  0  0  0
   39.3650   34.4950   16.3610 N   0  0  0  0  0  0  0  0  0  0  0  0
   39.8970   36.6820   15.8760 C   0  0  0  0  0  0  0  0  0  0  0  0
   39.2320   36.0680   14.6820 C   0  0  0  0  0  0  0  0  0  0  0  0
   38.8310   33.4800   17.2210 C   0  0  0  0  0  0  0  0  0  0  0  0
   29.8670   25.5550   16.9770 C   0  0  0  0  0  0  0  0  0  0  0  0
   28.3450   25.7220   17.0260 C   0  0  0  0  0  0  0  0  0  0  0  0
   27.6010   24.4030   16.8870 C   0  0  0  0  0  0  0  0  0  0  0  0
   26.1530   24.5260   17.2720 C   0  0  0  0  0  0  0  0  0  0  0  0
   25.7250   23.2840   18.0470 C   0  0  0  0  0  0  0  0  0  0  0  0
   24.5870   22.6170   17.3720 N   0  0  0  0  0  0  0  0  0  0  0  0
  1 27  1  0  0  0  0
  2  1  1  1  0  0  0
  3 23  1  1  0  0  0
  3  2  1  0  0  0  0
  4  9  1  0  0  0  0
  4  7  1  0  0  0  0
  4  3  1  1  0  0  0
  5 12  1  6  0  0  0
  5  6  1  0  0  0  0
  5  7  1  0  0  0  0
  5 10  1  0  0  0  0
  6  8  1  0  0  0  0
  8 16  1  1  0  0  0
  9 18  1  6  0  0  0
  9  8  1  0  0  0  0
 11 10  1  0  0  0  0
 13 12  2  0  0  0  0
 14 12  1  0  0  0  0
 14 15  1  0  0  0  0
 16 17  1  0  0  0  0
 19 18  1  0  0  0  0
 19 22  2  0  0  0  0
 20 18  1  0  0  0  0
 21 19  1  0  0  0  0
 23 24  1  0  0  0  0
 25  2  1  0  0  0  0
 26 25  1  0  0  0  0
 27 28  1  0  0  0  0
 28 31  1  0  0  0  0
 28 30  2  0  0  0  0
 29 27  1  0  0  0  0
 31 32  1  0  0  0  0
 33 32  1  0  0  0  0
 34 33  2  0  0  0  0
 35 33  1  0  0  0  0
 36 34  1  0  0  0  0
 37 36  1  0  0  0  0
 37 35  2  0  0  0  0
 38 40  1  6  0  0  0
 38 36  1  0  0  0  0
 38 39  1  0  0  0  0
 41 44  1  6  0  0  0
 41 39  1  0  0  0  0
 42 45  1  1  0  0  0
 42 40  1  0  0  0  0
 42 43  1  0  0  0  0
 43 41  1  0  0  0  0
 43 46  1  0  0  0  0
 45 44  1  0  0  0  0
 47 48  1  0  0  0  0
 49 48  1  0  0  0  0
 49 50  1  0  0  0  0
 50 51  1  0  0  0  0
 52 51  1  0  0  0  0
M  END
>  <REMARK>
 VINA RESULT:    -5.399      4.336      8.106
 INTER + INTRA:         -14.847
 INTER:                  -8.523
 INTRA:                  -6.324
 UNBOUND:                -5.502
 SMILES CC(=O)N[C@@H]1[C@@H](O)C[C@](O)(C(=O)O)O[C@H]1C(O)[C@H](O)CNC(=O)OCc1cn([C@@H]2C[C@H]3CC[C@@H](C2)N3C)nn1
 SMILES IDX 20 1 18 2 16 3 15 4 9 5 8 6 14 7 6 8 5 9 10 10 11 12 12 13
 SMILES IDX 13 14 7 16 4 18 2 19 1 21 3 22 17 23 19 25 21 27 22 28 23 30
 SMILES IDX 24 31 25 32 26 33 27 34 39 35 28 36 38 37 29 38 35 39 30 40
 SMILES IDX 34 41 31 42 36 43 33 44 32 45 37 46
 H PARENT 10 11 13 15 7 17 4 20 17 24 19 26 21 29
 Flexibility Score: inf
  4 active torsions:
  status: ('A' for Active; 'I' for Inactive)
    1  A    between atoms: CA   and  CB  
    2  A    between atoms: CB   and  CG  
    3  A    between atoms: CG   and  CD  
    4  A    between atoms: CD   and  CE  

>  <TORSDO>
F 15

>  <BEGIN_>
RES LYS A 131

$$$$
ligand_87_pose_6_2HRL.pdbqt
 OpenBabel07062320523D

  6  5  0  0  0  0  0  0  0  0999 V2000
   33.1930   34.6630    9.2900 C   0  0  0  0  0  0  0  0  0  0  0  0
   32.0600   35.3600   10.0340 C   0  0  0  0  0  0  0  0  0  0  0  0
   30.7050   34.7550    9.7720 C   0  0  0  0  0  0  0  0  0  0  0  0
   29.9660   35.5390    8.6990 C   0  0  0  0  0  0  0  0  0  0  0  0
   28.9890   34.6430    7.9620 C   0  0  0  0  0  0  0  0  0  0  0  0
   27.8560   35.4310    7.4010 N   0  0  0  0  0  0  0  0  0  0  0  0
  1  2  1  0  0  0  0
  3  2  1  0  0  0  0
  4  3  1  0  0  0  0
  5  4  1  0  0  0  0
  6  5  1  0  0  0  0
M  END
>  <EGIN_R>
ES LYS A 135

>  <REMARK>
  4 active torsions:
  status: ('A' for Active; 'I' for Inactive)
    5  A    between atoms: CA   and  CB  
    6  A    between atoms: CB   and  CG  
    7  A    between atoms: CG   and  CD  
    8  A    between atoms: CD   and  CE  

$$$$
