ligand_37_pose_15_2HRL.pdbqt
 OpenBabel07062320523D

 55 56  0  0  1  0  0  0  0  0999 V2000
   25.3090   34.3460   13.8550 O   0  0  0  0  0  0  0  0  0  0  0  0
   25.4070   34.9480   12.5790 C   0  0  0  0  0  0  0  0  0  0  0  0
   25.0150   36.2900   12.3900 N   0  0  0  0  0  0  0  0  0  0  0  0
   24.6400   36.7840   13.2600 H   0  0  0  0  0  0  0  0  0  0  0  0
   25.8510   34.2180   11.6730 O   0  0  0  0  0  0  0  0  0  0  0  0
   25.1020   36.9680   11.1360 C   0  0  0  0  0  0  0  0  0  0  0  0
   23.7630   37.1670   10.5070 C   0  0  2  0  0  0  0  0  0  0  0  0
   23.5770   36.1870    9.3520 C   0  0  2  0  0  0  0  0  0  0  0  0
   22.4190   35.2570    9.5390 C   0  0  2  0  0  0  0  0  0  0  0  0
   20.7990   36.4920    8.3830 C   0  0  2  0  0  0  0  0  0  0  0  0
   20.2510   36.9530    9.6960 C   0  0  0  0  0  0  0  0  0  0  0  0
   21.5320   35.3330    8.4520 O   0  0  0  0  0  0  0  0  0  0  0  0
   20.2460   35.7860   10.6630 C   0  0  1  0  0  0  0  0  0  0  0  0
   21.6970   35.3670   10.8420 C   0  0  1  0  0  0  0  0  0  0  0  0
   21.5110   37.5040    7.7800 O   0  0  0  0  0  0  0  0  0  0  0  0
   22.4260   37.6170    8.1610 H   0  0  0  0  0  0  0  0  0  0  0  0
   19.6330   36.1770    7.4800 C   0  0  0  0  0  0  0  0  0  0  0  0
   18.7770   37.0570    7.2070 O   0  0  0  0  0  0  0  0  0  0  0  0
   19.4550   34.9210    6.9190 O   0  0  0  0  0  0  0  0  0  0  0  0
   19.7910   34.0650    7.3870 H   0  0  0  0  0  0  0  0  0  0  0  0
   19.6590   36.1430   11.8600 O   0  0  0  0  0  0  0  0  0  0  0  0
   20.3120   36.2520   12.5960 H   0  0  0  0  0  0  0  0  0  0  0  0
   21.7430   34.1280   11.6250 N   0  0  0  0  0  0  0  0  0  0  0  0
   21.9510   34.1170   13.0360 C   0  0  0  0  0  0  0  0  0  0  0  0
   21.6230   33.1900   11.1590 H   0  0  0  0  0  0  0  0  0  0  0  0
   21.9890   32.8210   13.7790 C   0  0  0  0  0  0  0  0  0  0  0  0
   22.1010   35.2010   13.6470 O   0  0  0  0  0  0  0  0  0  0  0  0
   24.7420   35.4200    9.2230 O   0  0  0  0  0  0  0  0  0  0  0  0
   24.9250   35.2700    8.2570 H   0  0  0  0  0  0  0  0  0  0  0  0
   23.6570   38.4730   10.0300 O   0  0  0  0  0  0  0  0  0  0  0  0
   22.7100   38.7280    9.8270 H   0  0  0  0  0  0  0  0  0  0  0  0
   26.4400   34.3680   14.7010 C   0  0  0  0  0  0  0  0  0  0  0  0
   26.7280   33.0410   15.2780 C   0  0  0  0  0  0  0  0  0  0  0  0
   25.8980   31.9520   15.3970 C   0  0  0  0  0  0  0  0  0  0  0  0
   27.9030   32.6580   15.8040 N   0  0  0  0  0  0  0  0  0  0  0  0
   26.5790   30.9410   15.9880 N   0  0  0  0  0  0  0  0  0  0  0  0
   27.7800   31.3940   16.2220 N   0  0  0  0  0  0  0  0  0  0  0  0
   26.0540   29.6360   16.2870 C   0  0  1  0  0  0  0  0  0  0  0  0
   27.1290   28.7700   16.9060 C   0  0  0  0  0  0  0  0  0  0  0  0
   24.8670   29.7700   17.1420 C   0  0  0  0  0  0  0  0  0  0  0  0
   24.9990   30.1810   18.3330 O   0  0  0  0  0  0  0  0  0  0  0  0
   23.5950   29.4640   16.7050 O   0  0  0  0  0  0  0  0  0  0  0  0
   23.2000   28.3090   16.0350 C   0  0  0  0  0  0  0  0  0  0  0  0
   22.6210   28.6840   14.7150 C   0  0  0  0  0  0  0  0  0  0  0  0
   21.2600   28.6270   14.5110 C   0  0  0  0  0  0  0  0  0  0  0  0
   23.4400   29.0920   13.6980 C   0  0  0  0  0  0  0  0  0  0  0  0
   20.7210   28.9750   13.2960 C   0  0  0  0  0  0  0  0  0  0  0  0
   22.9320   29.4440   12.4790 C   0  0  0  0  0  0  0  0  0  0  0  0
   21.5740   29.3850   12.2800 C   0  0  0  0  0  0  0  0  0  0  0  0
   29.8670   25.5550   16.9770 C   0  0  0  0  0  0  0  0  0  0  0  0
   28.3450   25.7220   17.0260 C   0  0  0  0  0  0  0  0  0  0  0  0
   27.6010   24.4010   16.9020 C   0  0  0  0  0  0  0  0  0  0  0  0
   26.6800   24.1580   18.0650 C   0  0  0  0  0  0  0  0  0  0  0  0
   26.3280   25.4890   18.7220 C   0  0  0  0  0  0  0  0  0  0  0  0
   24.9960   25.9550   18.2670 N   0  0  0  0  0  0  0  0  0  0  0  0
  1 32  1  0  0  0  0
  2  1  1  0  0  0  0
  3  2  1  0  0  0  0
  3  4  1  0  0  0  0
  5  2  2  0  0  0  0
  6  3  1  0  0  0  0
  7  6  1  6  0  0  0
  8 28  1  1  0  0  0
  8  7  1  0  0  0  0
  9  8  1  6  0  0  0
  9 14  1  0  0  0  0
 10 17  1  6  0  0  0
 10 12  1  0  0  0  0
 10 11  1  0  0  0  0
 11 13  1  0  0  0  0
 12  9  1  0  0  0  0
 13 14  1  0  0  0  0
 13 21  1  1  0  0  0
 14 23  1  6  0  0  0
 15 16  1  0  0  0  0
 15 10  1  0  0  0  0
 18 17  2  0  0  0  0
 19 20  1  0  0  0  0
 19 17  1  0  0  0  0
 21 22  1  0  0  0  0
 23 24  1  0  0  0  0
 24 27  2  0  0  0  0
 24 26  1  0  0  0  0
 25 23  1  0  0  0  0
 29 28  1  0  0  0  0
 30  7  1  0  0  0  0
 31 30  1  0  0  0  0
 32 33  1  0  0  0  0
 33 34  2  0  0  0  0
 33 35  1  0  0  0  0
 34 36  1  0  0  0  0
 35 37  2  0  0  0  0
 36 37  1  0  0  0  0
 36 38  1  0  0  0  0
 38 39  1  1  0  0  0
 38 40  1  0  0  0  0
 40 41  2  0  0  0  0
 42 40  1  0  0  0  0
 43 42  1  0  0  0  0
 44 43  1  0  0  0  0
 45 44  1  0  0  0  0
 46 44  2  0  0  0  0
 47 45  2  0  0  0  0
 48 46  1  0  0  0  0
 49 48  2  0  0  0  0
 49 47  1  0  0  0  0
 50 51  1  0  0  0  0
 52 51  1  0  0  0  0
 52 53  1  0  0  0  0
 53 54  1  0  0  0  0
 55 54  1  0  0  0  0
M  END
>  <REMARK>
 VINA RESULT:    -5.480      4.159      7.122
 INTER + INTRA:         -15.875
 INTER:                  -9.085
 INTRA:                  -6.790
 UNBOUND:                -5.110
 SMILES CC(=O)N[C@@H]1[C@@H](O)C[C@](O)(C(=O)O)O[C@H]1C(O)[C@H](O)CNC(=O)OCc1cn([C@@H](C)C(=O)OCc2ccccc2)nn1
 SMILES IDX 24 1 22 2 21 3 23 5 20 6 18 7 16 8 15 9 9 10 8 11 14 12 6 13
 SMILES IDX 5 14 10 15 11 17 12 18 13 19 7 21 4 23 2 24 1 26 3 27 17 28
 SMILES IDX 19 30 25 32 26 33 27 34 42 35 28 36 41 37 29 38 30 39 31 40
 SMILES IDX 32 41 33 42 34 43 35 44 36 45 40 46 37 47 39 48 38 49
 H PARENT 21 4 10 16 13 20 7 22 4 25 17 29 19 31
 Flexibility Score: inf
  4 active torsions:
  status: ('A' for Active; 'I' for Inactive)
    1  A    between atoms: CA   and  CB  
    2  A    between atoms: CB   and  CG  
    3  A    between atoms: CG   and  CD  
    4  A    between atoms: CD   and  CE  

>  <TORSDO>
F 19

>  <BEGIN_>
RES LYS A 131

$$$$
ligand_37_pose_15_2HRL.pdbqt
 OpenBabel07062320523D

  6  5  0  0  0  0  0  0  0  0999 V2000
   33.1930   34.6630    9.2900 C   0  0  0  0  0  0  0  0  0  0  0  0
   32.0600   35.3600   10.0340 C   0  0  0  0  0  0  0  0  0  0  0  0
   30.8600   35.6500    9.1700 C   0  0  0  0  0  0  0  0  0  0  0  0
   30.2710   34.3600    8.6200 C   0  0  0  0  0  0  0  0  0  0  0  0
   28.7680   34.4870    8.4590 C   0  0  0  0  0  0  0  0  0  0  0  0
   28.0490   33.6650    9.4710 N   0  0  0  0  0  0  0  0  0  0  0  0
  1  2  1  0  0  0  0
  3  2  1  0  0  0  0
  4  3  1  0  0  0  0
  5  4  1  0  0  0  0
  5  6  1  0  0  0  0
M  END
>  <EGIN_R>
ES LYS A 135

>  <REMARK>
  4 active torsions:
  status: ('A' for Active; 'I' for Inactive)
    5  A    between atoms: CA   and  CB  
    6  A    between atoms: CB   and  CG  
    7  A    between atoms: CG   and  CD  
    8  A    between atoms: CD   and  CE  

$$$$
