ligand_35_pose_19_2HRL.pdbqt
 OpenBabel07062320523D

 49 49  0  0  1  0  0  0  0  0999 V2000
   31.8790   38.8900    9.9990 N   0  0  0  0  0  0  0  0  0  0  0  0
   31.4780   38.4470   11.2800 C   0  0  0  0  0  0  0  0  0  0  0  0
   30.4840   38.9410   11.8700 O   0  0  0  0  0  0  0  0  0  0  0  0
   32.7060   38.4490    9.5550 H   0  0  0  0  0  0  0  0  0  0  0  0
   31.1770   39.9260    9.2990 C   0  0  0  0  0  0  0  0  0  0  0  0
   30.5460   39.4390    7.9900 C   0  0  2  0  0  0  0  0  0  0  0  0
   29.2440   38.8030    8.3370 C   0  0  2  0  0  0  0  0  0  0  0  0
   28.1400   38.9600    7.3470 C   0  0  2  0  0  0  0  0  0  0  0  0
   26.6600   37.3700    8.2040 C   0  0  2  0  0  0  0  0  0  0  0  0
   27.4400   36.3650    7.4550 C   0  0  0  0  0  0  0  0  0  0  0  0
   26.9500   38.6940    8.0070 O   0  0  0  0  0  0  0  0  0  0  0  0
   28.0000   36.7740    6.1390 C   0  0  1  0  0  0  0  0  0  0  0  0
   28.2690   38.2500    6.0550 C   0  0  1  0  0  0  0  0  0  0  0  0
   26.9270   37.1320    9.5790 O   0  0  0  0  0  0  0  0  0  0  0  0
   27.8040   36.6950    9.6280 H   0  0  0  0  0  0  0  0  0  0  0  0
   25.2070   37.1060    8.0190 C   0  0  0  0  0  0  0  0  0  0  0  0
   24.6070   36.1960    8.6530 O   0  0  0  0  0  0  0  0  0  0  0  0
   24.4550   37.8600    7.1340 O   0  0  0  0  0  0  0  0  0  0  0  0
   23.4870   38.1140    7.2960 H   0  0  0  0  0  0  0  0  0  0  0  0
   29.1710   36.0220    5.9300 O   0  0  0  0  0  0  0  0  0  0  0  0
   28.9140   35.0770    6.0570 H   0  0  0  0  0  0  0  0  0  0  0  0
   27.2700   38.8520    5.1490 N   0  0  0  0  0  0  0  0  0  0  0  0
   27.5690   40.0080    4.3950 C   0  0  0  0  0  0  0  0  0  0  0  0
   26.3200   38.4540    5.0360 H   0  0  0  0  0  0  0  0  0  0  0  0
   26.6030   40.6440    3.4790 C   0  0  0  0  0  0  0  0  0  0  0  0
   28.7210   40.5460    4.4910 O   0  0  0  0  0  0  0  0  0  0  0  0
   28.7880   39.5090    9.4970 O   0  0  0  0  0  0  0  0  0  0  0  0
   27.8130   39.3370    9.5170 H   0  0  0  0  0  0  0  0  0  0  0  0
   31.4490   38.5190    7.4720 O   0  0  0  0  0  0  0  0  0  0  0  0
   31.5710   37.8120    8.1560 H   0  0  0  0  0  0  0  0  0  0  0  0
   32.1840   37.4260   11.9460 O   0  0  0  0  0  0  0  0  0  0  0  0
   31.4980   36.4680   12.7310 C   0  0  0  0  0  0  0  0  0  0  0  0
   32.3220   36.0340   13.8880 C   0  0  0  0  0  0  0  0  0  0  0  0
   32.4180   36.6820   15.1220 C   0  0  0  0  0  0  0  0  0  0  0  0
   33.1320   34.9590   14.0050 N   0  0  0  0  0  0  0  0  0  0  0  0
   33.2530   35.9950   15.9080 N   0  0  0  0  0  0  0  0  0  0  0  0
   33.6790   34.9600   15.2300 N   0  0  0  0  0  0  0  0  0  0  0  0
   33.6370   36.3240   17.2850 C   0  0  1  0  0  0  0  0  0  0  0  0
   32.8160   35.4950   18.2580 C   0  0  0  0  0  0  0  0  0  0  0  0
   35.0660   36.1210   17.5170 C   0  0  0  0  0  0  0  0  0  0  0  0
   35.4880   35.9190   18.6780 O   0  0  0  0  0  0  0  0  0  0  0  0
   36.0250   36.1390   16.5070 O   0  0  0  0  0  0  0  0  0  0  0  0
   36.0200   36.8590   15.7930 H   0  0  0  0  0  0  0  0  0  0  0  0
   29.8670   25.5550   16.9770 C   0  0  0  0  0  0  0  0  0  0  0  0
   28.3450   25.7220   17.0260 C   0  0  0  0  0  0  0  0  0  0  0  0
   27.6020   24.3990   16.9180 C   0  0  0  0  0  0  0  0  0  0  0  0
   26.3380   24.3920   17.7320 C   0  0  0  0  0  0  0  0  0  0  0  0
   26.0840   25.7880   18.2910 C   0  0  0  0  0  0  0  0  0  0  0  0
   25.8480   25.7270   19.7530 N   0  0  0  0  0  0  0  0  0  0  0  0
  1  2  1  0  0  0  0
  2  3  2  0  0  0  0
  2 31  1  0  0  0  0
  4  1  1  0  0  0  0
  5  1  1  0  0  0  0
  6  7  1  0  0  0  0
  6  5  1  1  0  0  0
  7 27  1  1  0  0  0
  8 11  1  0  0  0  0
  8  7  1  1  0  0  0
  9 16  1  6  0  0  0
  9 14  1  0  0  0  0
 10  9  1  0  0  0  0
 11  9  1  0  0  0  0
 12 20  1  1  0  0  0
 12 10  1  0  0  0  0
 13 22  1  6  0  0  0
 13 12  1  0  0  0  0
 13  8  1  0  0  0  0
 14 15  1  0  0  0  0
 16 17  2  0  0  0  0
 18 19  1  0  0  0  0
 18 16  1  0  0  0  0
 20 21  1  0  0  0  0
 23 26  2  0  0  0  0
 23 22  1  0  0  0  0
 24 22  1  0  0  0  0
 25 23  1  0  0  0  0
 27 28  1  0  0  0  0
 29  6  1  0  0  0  0
 29 30  1  0  0  0  0
 31 32  1  0  0  0  0
 32 33  1  0  0  0  0
 33 35  1  0  0  0  0
 33 34  2  0  0  0  0
 34 36  1  0  0  0  0
 35 37  2  0  0  0  0
 36 38  1  0  0  0  0
 37 36  1  0  0  0  0
 38 40  1  0  0  0  0
 38 39  1  1  0  0  0
 40 41  2  0  0  0  0
 42 40  1  0  0  0  0
 43 42  1  0  0  0  0
 44 45  1  0  0  0  0
 46 45  1  0  0  0  0
 46 47  1  0  0  0  0
 47 48  1  0  0  0  0
 48 49  1  0  0  0  0
M  END
>  <REMARK>
 VINA RESULT:    -4.734      5.052     10.008
 INTER + INTRA:         -13.333
 INTER:                  -8.609
 INTRA:                  -4.724
 UNBOUND:                -4.724
 SMILES CC(=O)N[C@@H]1[C@@H](O)C[C@](O)(C(=O)O)O[C@H]1C(O)[C@H](O)CNC(=O)OCc1cn([C@@H](C)C(=O)O)nn1
 SMILES IDX 21 1 22 2 23 3 20 5 18 6 16 7 15 8 9 9 8 10 14 11 6 12 5 13
 SMILES IDX 10 14 11 16 12 17 13 18 7 20 4 22 2 23 1 25 3 26 17 27 19 29
 SMILES IDX 24 31 25 32 26 33 27 34 35 35 28 36 34 37 29 38 30 39 31 40
 SMILES IDX 32 41 33 42
 H PARENT 21 4 10 15 13 19 7 21 4 24 17 28 19 30 33 43
 Flexibility Score: inf
  4 active torsions:
  status: ('A' for Active; 'I' for Inactive)
    1  A    between atoms: CA   and  CB  
    2  A    between atoms: CB   and  CG  
    3  A    between atoms: CG   and  CD  
    4  A    between atoms: CD   and  CE  

>  <TORSDO>
F 17

>  <BEGIN_>
RES LYS A 131

$$$$
ligand_35_pose_19_2HRL.pdbqt
 OpenBabel07062320523D

  6  5  0  0  0  0  0  0  0  0999 V2000
   33.1930   34.6630    9.2900 C   0  0  0  0  0  0  0  0  0  0  0  0
   32.0600   35.3600   10.0340 C   0  0  0  0  0  0  0  0  0  0  0  0
   30.7880   35.4650    9.2330 C   0  0  0  0  0  0  0  0  0  0  0  0
   30.2500   34.0820    8.8970 C   0  0  0  0  0  0  0  0  0  0  0  0
   28.8600   33.8970    9.4740 C   0  0  0  0  0  0  0  0  0  0  0  0
   28.7400   34.5540   10.8060 N   0  0  0  0  0  0  0  0  0  0  0  0
  1  2  1  0  0  0  0
  3  2  1  0  0  0  0
  4  3  1  0  0  0  0
  4  5  1  0  0  0  0
  5  6  1  0  0  0  0
M  END
>  <EGIN_R>
ES LYS A 135

>  <REMARK>
  4 active torsions:
  status: ('A' for Active; 'I' for Inactive)
    5  A    between atoms: CA   and  CB  
    6  A    between atoms: CB   and  CG  
    7  A    between atoms: CG   and  CD  
    8  A    between atoms: CD   and  CE  

$$$$
