ligand_1_pose_14_2HRL.pdbqt
 OpenBabel07062320523D

 47 47  0  0  1  0  0  0  0  0999 V2000
   23.3000   38.9160    9.6930 N   0  0  0  0  0  0  0  0  0  0  0  0
   22.5150   37.7890    9.4250 C   0  0  0  0  0  0  0  0  0  0  0  0
   21.6690   37.8250    8.5350 O   0  0  0  0  0  0  0  0  0  0  0  0
   24.0080   38.7840   10.4910 H   0  0  0  0  0  0  0  0  0  0  0  0
   23.2990   40.1860    9.0780 C   0  0  0  0  0  0  0  0  0  0  0  0
   24.5090   40.5810    8.2910 C   0  0  2  0  0  0  0  0  0  0  0  0
   24.3530   40.3040    6.8260 C   0  0  1  0  0  0  0  0  0  0  0  0
   25.5470   40.2950    5.9700 C   0  0  2  0  0  0  0  0  0  0  0  0
   27.5860   39.3180    5.5220 C   0  0  2  0  0  0  0  0  0  0  0  0
   27.3480   39.9440    4.1640 C   0  0  0  0  0  0  0  0  0  0  0  0
   26.4650   39.3480    6.3510 O   0  0  0  0  0  0  0  0  0  0  0  0
   26.9400   41.4030    4.3180 C   0  0  1  0  0  0  0  0  0  0  0  0
   26.2340   41.5850    5.6770 C   0  0  1  0  0  0  0  0  0  0  0  0
   28.5980   39.9930    6.2010 O   0  0  0  0  0  0  0  0  0  0  0  0
   28.3030   40.8600    6.5610 H   0  0  0  0  0  0  0  0  0  0  0  0
   27.9660   37.8930    5.3950 C   0  0  0  0  0  0  0  0  0  0  0  0
   29.1560   37.5140    5.2470 O   0  0  0  0  0  0  0  0  0  0  0  0
   26.9780   36.9270    5.4380 O   0  0  0  0  0  0  0  0  0  0  0  0
   26.3530   36.8730    6.2560 H   0  0  0  0  0  0  0  0  0  0  0  0
   28.0720   42.2020    4.2450 O   0  0  0  0  0  0  0  0  0  0  0  0
   28.8570   41.5970    4.3150 H   0  0  0  0  0  0  0  0  0  0  0  0
   25.3500   42.7290    5.5830 N   0  0  0  0  0  0  0  0  0  0  0  0
   25.5050   43.7870    6.5150 C   0  0  0  0  0  0  0  0  0  0  0  0
   24.6020   42.7940    4.8500 H   0  0  0  0  0  0  0  0  0  0  0  0
   24.6430   44.9990    6.4970 C   0  0  0  0  0  0  0  0  0  0  0  0
   26.3980   43.7110    7.3900 O   0  0  0  0  0  0  0  0  0  0  0  0
   23.7270   39.0030    6.8020 O   0  0  0  0  0  0  0  0  0  0  0  0
   24.4090   38.3410    6.5970 H   0  0  0  0  0  0  0  0  0  0  0  0
   25.6490   40.0780    8.8250 O   0  0  0  0  0  0  0  0  0  0  0  0
   26.0330   40.5750    9.5730 H   0  0  0  0  0  0  0  0  0  0  0  0
   22.6640   36.6070   10.1470 O   0  0  0  0  0  0  0  0  0  0  0  0
   23.6030   35.6210    9.7750 C   0  0  0  0  0  0  0  0  0  0  0  0
   24.9190   36.2590    9.5300 C   0  0  0  0  0  0  0  0  0  0  0  0
   25.9340   36.4520   10.4350 C   0  0  0  0  0  0  0  0  0  0  0  0
   25.3400   36.7560    8.3760 N   0  0  0  0  0  0  0  0  0  0  0  0
   26.9220   37.0650    9.7580 N   0  0  0  0  0  0  0  0  0  0  0  0
   26.5660   37.2550    8.4980 N   0  0  0  0  0  0  0  0  0  0  0  0
   28.1890   37.4550   10.3430 C   0  0  0  0  0  0  0  0  0  0  0  0
   28.8020   38.5580    9.4850 C   0  0  0  0  0  0  0  0  0  0  0  0
   29.4550   37.9600    8.3870 O   0  0  0  0  0  0  0  0  0  0  0  0
   29.5030   36.9650    8.5230 H   0  0  0  0  0  0  0  0  0  0  0  0
   29.8670   25.5550   16.9770 C   0  0  0  0  0  0  0  0  0  0  0  0
   28.3450   25.7220   17.0260 C   0  0  0  0  0  0  0  0  0  0  0  0
   27.6010   24.4020   16.8930 C   0  0  0  0  0  0  0  0  0  0  0  0
   26.1490   24.5310   17.2590 C   0  0  0  0  0  0  0  0  0  0  0  0
   25.6350   23.1950   17.7860 C   0  0  0  0  0  0  0  0  0  0  0  0
   24.3220   22.8680   17.1810 N   0  0  0  0  0  0  0  0  0  0  0  0
  1  4  1  0  0  0  0
  2  1  1  0  0  0  0
  2 31  1  0  0  0  0
  3  2  2  0  0  0  0
  5  1  1  0  0  0  0
  6 29  1  0  0  0  0
  6  5  1  1  0  0  0
  7 27  1  1  0  0  0
  7  6  1  0  0  0  0
  8 11  1  0  0  0  0
  8  7  1  1  0  0  0
  9 16  1  6  0  0  0
  9 14  1  0  0  0  0
  9 11  1  0  0  0  0
 10 12  1  0  0  0  0
 10  9  1  0  0  0  0
 12 20  1  1  0  0  0
 12 13  1  0  0  0  0
 13 22  1  6  0  0  0
 13  8  1  0  0  0  0
 14 15  1  0  0  0  0
 16 18  1  0  0  0  0
 17 16  2  0  0  0  0
 18 19  1  0  0  0  0
 20 21  1  0  0  0  0
 22 23  1  0  0  0  0
 23 26  2  0  0  0  0
 24 22  1  0  0  0  0
 25 23  1  0  0  0  0
 28 27  1  0  0  0  0
 29 30  1  0  0  0  0
 32 31  1  0  0  0  0
 33 32  1  0  0  0  0
 33 34  2  0  0  0  0
 35 37  2  0  0  0  0
 35 33  1  0  0  0  0
 36 38  1  0  0  0  0
 36 34  1  0  0  0  0
 37 36  1  0  0  0  0
 39 38  1  0  0  0  0
 40 41  1  0  0  0  0
 40 39  1  0  0  0  0
 42 43  1  0  0  0  0
 44 43  1  0  0  0  0
 44 45  1  0  0  0  0
 45 46  1  0  0  0  0
 47 46  1  0  0  0  0
M  END
>  <REMARK>
 VINA RESULT:    -3.154      3.886      6.726
 INTER + INTRA:         -13.307
 INTER:                  -6.489
 INTRA:                  -6.818
 UNBOUND:                -7.572
 SMILES CC(=O)N[C@@H]1[C@@H](O)C[C@](O)(C(=O)O)O[C@H]1C(O)[C@H](O)CNC(=O)OCc1cn(CCO)nn1
 SMILES IDX 21 1 22 2 23 3 20 5 18 6 16 7 15 8 9 9 8 10 14 11 6 12 5 13
 SMILES IDX 10 14 11 16 12 17 13 18 7 20 4 22 2 23 1 25 3 26 17 27 19 29
 SMILES IDX 24 31 25 32 26 33 27 34 33 35 28 36 32 37 29 38 30 39 31 40
 H PARENT 21 4 10 15 13 19 7 21 4 24 17 28 19 30 31 41
 Flexibility Score: inf
  4 active torsions:
  status: ('A' for Active; 'I' for Inactive)
    1  A    between atoms: CA   and  CB  
    2  A    between atoms: CB   and  CG  
    3  A    between atoms: CG   and  CD  
    4  A    between atoms: CD   and  CE  

>  <TORSDO>
F 17

>  <BEGIN_>
RES LYS A 131

$$$$
ligand_1_pose_14_2HRL.pdbqt
 OpenBabel07062320523D

  6  5  0  0  0  0  0  0  0  0999 V2000
   33.1930   34.6630    9.2900 C   0  0  0  0  0  0  0  0  0  0  0  0
   32.0600   35.3600   10.0340 C   0  0  0  0  0  0  0  0  0  0  0  0
   30.7340   34.6550    9.9090 C   0  0  0  0  0  0  0  0  0  0  0  0
   30.3620   34.4670    8.4470 C   0  0  0  0  0  0  0  0  0  0  0  0
   28.8550   34.4750    8.2750 C   0  0  0  0  0  0  0  0  0  0  0  0
   28.1820   33.7910    9.4140 N   0  0  0  0  0  0  0  0  0  0  0  0
  1  2  1  0  0  0  0
  3  2  1  0  0  0  0
  4  3  1  0  0  0  0
  5  4  1  0  0  0  0
  5  6  1  0  0  0  0
M  END
>  <EGIN_R>
ES LYS A 135

>  <REMARK>
  4 active torsions:
  status: ('A' for Active; 'I' for Inactive)
    5  A    between atoms: CA   and  CB  
    6  A    between atoms: CB   and  CG  
    7  A    between atoms: CG   and  CD  
    8  A    between atoms: CD   and  CE  

$$$$
