ligand_83_pose_1_2HRL.pdbqt
 OpenBabel07062320523D

 56 57  0  0  1  0  0  0  0  0999 V2000
   25.5900   32.2520   17.3840 O   0  0  0  0  0  0  0  0  0  0  0  0
   25.5650   31.4080   18.5070 C   0  0  0  0  0  0  0  0  0  0  0  0
   25.8220   30.0350   18.4330 N   0  0  0  0  0  0  0  0  0  0  0  0
   26.0410   29.6310   17.4730 H   0  0  0  0  0  0  0  0  0  0  0  0
   25.3000   31.9480   19.5900 O   0  0  0  0  0  0  0  0  0  0  0  0
   25.8090   29.1350   19.5620 C   0  0  0  0  0  0  0  0  0  0  0  0
   26.3760   27.8130   19.1180 C   0  0  2  0  0  0  0  0  0  0  0  0
   27.2640   27.2890   20.2210 C   0  0  2  0  0  0  0  0  0  0  0  0
   28.1590   28.3910   20.7730 C   0  0  2  0  0  0  0  0  0  0  0  0
   29.5920   30.0440   19.9720 C   0  0  2  0  0  0  0  0  0  0  0  0
   30.4140   29.7420   21.2100 C   0  0  0  0  0  0  0  0  0  0  0  0
   28.7630   28.9830   19.6970 O   0  0  0  0  0  0  0  0  0  0  0  0
   30.5250   28.2440   21.3870 C   0  0  1  0  0  0  0  0  0  0  0  0
   29.1280   27.7530   21.7500 C   0  0  1  0  0  0  0  0  0  0  0  0
   30.4340   30.2020   18.8550 O   0  0  0  0  0  0  0  0  0  0  0  0
   31.3590   30.1650   19.1910 H   0  0  0  0  0  0  0  0  0  0  0  0
   28.7870   31.2630   20.1200 C   0  0  0  0  0  0  0  0  0  0  0  0
   28.4390   31.6590   21.2440 O   0  0  0  0  0  0  0  0  0  0  0  0
   28.4060   31.9860   19.0050 O   0  0  0  0  0  0  0  0  0  0  0  0
   27.7020   32.6980   19.0680 H   0  0  0  0  0  0  0  0  0  0  0  0
   30.8840   27.5810   20.2240 O   0  0  0  0  0  0  0  0  0  0  0  0
   30.8720   26.6130   20.3640 H   0  0  0  0  0  0  0  0  0  0  0  0
   28.8450   28.1190   23.1080 N   0  0  0  0  0  0  0  0  0  0  0  0
   28.3920   27.1580   24.0350 C   0  0  0  0  0  0  0  0  0  0  0  0
   28.9560   29.1000   23.4780 H   0  0  0  0  0  0  0  0  0  0  0  0
   28.0990   27.5460   25.4480 C   0  0  0  0  0  0  0  0  0  0  0  0
   28.2270   25.9580   23.6930 O   0  0  0  0  0  0  0  0  0  0  0  0
   28.1010   26.3300   19.6860 O   0  0  0  0  0  0  0  0  0  0  0  0
   28.0130   25.4520   20.1260 H   0  0  0  0  0  0  0  0  0  0  0  0
   27.0500   27.9080   17.9050 O   0  0  0  0  0  0  0  0  0  0  0  0
   26.5840   28.6020   17.3750 H   0  0  0  0  0  0  0  0  0  0  0  0
   25.9750   31.7160   16.1080 C   0  0  0  0  0  0  0  0  0  0  0  0
   27.4100   31.4590   16.0450 C   0  0  0  0  0  0  0  0  0  0  0  0
   28.3540   32.2820   15.4830 C   0  0  0  0  0  0  0  0  0  0  0  0
   28.0330   30.3730   16.5260 N   0  0  0  0  0  0  0  0  0  0  0  0
   29.5340   31.6660   15.6430 N   0  0  0  0  0  0  0  0  0  0  0  0
   29.3210   30.5310   16.2660 N   0  0  0  0  0  0  0  0  0  0  0  0
   30.8210   32.2130   15.1790 C   0  0  0  0  0  0  0  0  0  0  0  0
   31.4290   33.0830   16.2560 C   0  0  2  0  0  0  0  0  0  0  0  0
   30.7970   32.6880   17.4550 O   0  0  0  0  0  0  0  0  0  0  0  0
   31.3790   32.7850   18.2320 H   0  0  0  0  0  0  0  0  0  0  0  0
   31.1500   34.5200   15.9470 C   0  0  0  0  0  0  0  0  0  0  0  0
   31.8630   34.8680   14.7150 N   0  0  0  0  0  0  0  0  0  0  0  0
   33.2010   34.8030   14.5190 C   0  0  0  0  0  0  0  0  0  0  0  0
   31.2770   35.2880   13.6070 C   0  0  0  0  0  0  0  0  0  0  0  0
   33.4440   35.1980   13.2430 C   0  0  0  0  0  0  0  0  0  0  0  0
   32.2670   35.4920   12.6940 N   0  0  0  0  0  0  0  0  0  0  0  0
   29.8770   35.5050   13.3650 N   0  0  0  0  0  0  0  0  0  0  0  0
   29.3000   36.5720   13.6290 O   0  0  0  0  0  0  0  0  0  0  0  0
   29.1290   34.4860   12.8130 O   0  0  0  0  0  0  0  0  0  0  0  0
   29.8670   25.5550   16.9770 C   0  0  0  0  0  0  0  0  0  0  0  0
   28.3450   25.7220   17.0260 C   0  0  0  0  0  0  0  0  0  0  0  0
   27.6010   24.4030   16.8850 C   0  0  0  0  0  0  0  0  0  0  0  0
   26.1760   24.5030   17.3530 C   0  0  0  0  0  0  0  0  0  0  0  0
   25.9920   23.6560   18.6080 C   0  0  0  0  0  0  0  0  0  0  0  0
   25.1440   24.3670   19.5940 N   0  0  0  0  0  0  0  0  0  0  0  0
  1  2  1  0  0  0  0
  2  5  2  0  0  0  0
  3  2  1  0  0  0  0
  3  6  1  0  0  0  0
  4  3  1  0  0  0  0
  7  6  1  1  0  0  0
  7  8  1  0  0  0  0
  8 28  1  6  0  0  0
  9  8  1  6  0  0  0
  9 14  1  0  0  0  0
 10 15  1  6  0  0  0
 10 17  1  0  0  0  0
 10 11  1  0  0  0  0
 11 13  1  0  0  0  0
 12 10  1  0  0  0  0
 12  9  1  0  0  0  0
 13 21  1  6  0  0  0
 13 14  1  0  0  0  0
 14 23  1  1  0  0  0
 15 16  1  0  0  0  0
 17 18  2  0  0  0  0
 19 20  1  0  0  0  0
 19 17  1  0  0  0  0
 21 22  1  0  0  0  0
 23 25  1  0  0  0  0
 23 24  1  0  0  0  0
 24 26  1  0  0  0  0
 27 24  2  0  0  0  0
 28 29  1  0  0  0  0
 30  7  1  0  0  0  0
 31 30  1  0  0  0  0
 32  1  1  0  0  0  0
 33 32  1  0  0  0  0
 33 35  1  0  0  0  0
 34 36  1  0  0  0  0
 34 33  2  0  0  0  0
 36 37  1  0  0  0  0
 37 35  2  0  0  0  0
 38 36  1  0  0  0  0
 39 38  1  6  0  0  0
 39 40  1  0  0  0  0
 40 41  1  0  0  0  0
 42 39  1  0  0  0  0
 43 42  1  0  0  0  0
 44 43  1  0  0  0  0
 45 43  1  0  0  0  0
 46 44  2  0  0  0  0
 47 46  1  0  0  0  0
 47 45  2  0  0  0  0
 48 45  1  0  0  0  0
 48 49  2  0  0  0  0
 50 48  2  0  0  0  0
 51 52  1  0  0  0  0
 53 52  1  0  0  0  0
 53 54  1  0  0  0  0
 54 55  1  0  0  0  0
 55 56  1  0  0  0  0
M  END
>  <REMARK>
 VINA RESULT:    -3.927      2.395      4.610
 INTER + INTRA:         -16.276
 INTER:                  -8.865
 INTRA:                  -7.410
 UNBOUND:                -8.446
 SMILES CC(=O)N[C@@H]1[C@@H](O)C[C@](O)(C(=O)O)O[C@H]1C(O)[C@H](O)CNC(=O)OCc1cn(CC(O)Cn2ccnc2[N+](=O)[O-])nn1
 SMILES IDX 24 1 22 2 21 3 23 5 20 6 18 7 16 8 15 9 9 10 8 11 14 12 6 13
 SMILES IDX 5 14 10 15 11 17 12 18 13 19 7 21 4 23 2 24 1 26 3 27 17 28
 SMILES IDX 19 30 25 32 26 33 27 34 42 35 28 36 41 37 29 38 30 39 31 40
 SMILES IDX 32 42 33 43 34 44 37 45 35 46 36 47 38 48 39 49 40 50
 H PARENT 21 4 10 16 13 20 7 22 4 25 17 29 19 31 31 41
 Flexibility Score: inf
  4 active torsions:
  status: ('A' for Active; 'I' for Inactive)
    1  A    between atoms: CA   and  CB  
    2  A    between atoms: CB   and  CG  
    3  A    between atoms: CG   and  CD  
    4  A    between atoms: CD   and  CE  

>  <TORSDO>
F 20

>  <BEGIN_>
RES LYS A 131

$$$$
ligand_83_pose_1_2HRL.pdbqt
 OpenBabel07062320523D

  6  5  0  0  0  0  0  0  0  0999 V2000
   33.1930   34.6630    9.2900 C   0  0  0  0  0  0  0  0  0  0  0  0
   32.0600   35.3600   10.0340 C   0  0  0  0  0  0  0  0  0  0  0  0
   30.7830   35.4500    9.2390 C   0  0  0  0  0  0  0  0  0  0  0  0
   30.2120   34.0640    8.9830 C   0  0  0  0  0  0  0  0  0  0  0  0
   28.7110   34.0570    9.1990 C   0  0  0  0  0  0  0  0  0  0  0  0
   28.0070   34.7710    8.0980 N   0  0  0  0  0  0  0  0  0  0  0  0
  1  2  1  0  0  0  0
  3  2  1  0  0  0  0
  4  5  1  0  0  0  0
  4  3  1  0  0  0  0
  6  5  1  0  0  0  0
M  END
>  <EGIN_R>
ES LYS A 135

>  <REMARK>
  4 active torsions:
  status: ('A' for Active; 'I' for Inactive)
    5  A    between atoms: CA   and  CB  
    6  A    between atoms: CB   and  CG  
    7  A    between atoms: CG   and  CD  
    8  A    between atoms: CD   and  CE  

$$$$
