ligand_1_pose_9_2HRL.pdbqt
 OpenBabel07062320523D

 47 47  0  0  1  0  0  0  0  0999 V2000
   30.7490   29.9440   22.2410 N   0  0  0  0  0  0  0  0  0  0  0  0
   31.2640   28.6680   22.4980 C   0  0  0  0  0  0  0  0  0  0  0  0
   32.2840   28.2900   21.9300 O   0  0  0  0  0  0  0  0  0  0  0  0
   29.8520   30.1790   22.7860 H   0  0  0  0  0  0  0  0  0  0  0  0
   31.2270   30.9560   21.3820 C   0  0  0  0  0  0  0  0  0  0  0  0
   30.8410   30.8850   19.9380 C   0  0  2  0  0  0  0  0  0  0  0  0
   29.5850   31.6480   19.6430 C   0  0  1  0  0  0  0  0  0  0  0  0
   29.0290   31.6100   18.2840 C   0  0  2  0  0  0  0  0  0  0  0  0
   28.1720   30.3010   16.5910 C   0  0  2  0  0  0  0  0  0  0  0  0
   27.5830   31.6260   16.1530 C   0  0  0  0  0  0  0  0  0  0  0  0
   28.7270   30.3370   17.8700 O   0  0  0  0  0  0  0  0  0  0  0  0
   28.6580   32.7060   16.1490 C   0  0  1  0  0  0  0  0  0  0  0  0
   29.7310   32.3490   17.1960 C   0  0  1  0  0  0  0  0  0  0  0  0
   29.1910   29.9100   15.7280 O   0  0  0  0  0  0  0  0  0  0  0  0
   29.5880   30.6650   15.2380 H   0  0  0  0  0  0  0  0  0  0  0  0
   27.1380   29.2420   16.6200 C   0  0  0  0  0  0  0  0  0  0  0  0
   25.9820   29.4020   16.1510 O   0  0  0  0  0  0  0  0  0  0  0  0
   27.4450   28.0180   17.1860 O   0  0  0  0  0  0  0  0  0  0  0  0
   28.3950   27.6320   17.0820 H   0  0  0  0  0  0  0  0  0  0  0  0
   29.2180   32.7840   14.8810 O   0  0  0  0  0  0  0  0  0  0  0  0
   29.1010   33.7210   14.5720 H   0  0  0  0  0  0  0  0  0  0  0  0
   30.3790   33.5720   17.6220 N   0  0  0  0  0  0  0  0  0  0  0  0
   31.5550   33.9900   16.9470 C   0  0  0  0  0  0  0  0  0  0  0  0
   30.0050   34.1530   18.4120 H   0  0  0  0  0  0  0  0  0  0  0  0
   32.2890   35.2310   17.3160 C   0  0  0  0  0  0  0  0  0  0  0  0
   32.0020   33.2980   16.0050 O   0  0  0  0  0  0  0  0  0  0  0  0
   28.6340   31.0890   20.5750 O   0  0  0  0  0  0  0  0  0  0  0  0
   28.9630   31.2460   21.4760 H   0  0  0  0  0  0  0  0  0  0  0  0
   30.8260   29.6100   19.4780 O   0  0  0  0  0  0  0  0  0  0  0  0
   30.6950   28.9100   20.1470 H   0  0  0  0  0  0  0  0  0  0  0  0
   30.6450   27.7980   23.3940 O   0  0  0  0  0  0  0  0  0  0  0  0
   29.7370   26.8080   22.9620 C   0  0  0  0  0  0  0  0  0  0  0  0
   28.7240   27.4200   22.0700 C   0  0  0  0  0  0  0  0  0  0  0  0
   27.4270   27.7490   22.3810 C   0  0  0  0  0  0  0  0  0  0  0  0
   28.9070   27.7580   20.8020 N   0  0  0  0  0  0  0  0  0  0  0  0
   26.8990   28.2740   21.2610 N   0  0  0  0  0  0  0  0  0  0  0  0
   27.7970   28.2830   20.2900 N   0  0  0  0  0  0  0  0  0  0  0  0
   25.5370   28.7550   21.1520 C   0  0  0  0  0  0  0  0  0  0  0  0
   25.1240   28.7210   19.6830 C   0  0  0  0  0  0  0  0  0  0  0  0
   25.3090   27.4110   19.1960 O   0  0  0  0  0  0  0  0  0  0  0  0
   25.4360   27.4350   18.1990 H   0  0  0  0  0  0  0  0  0  0  0  0
   29.8670   25.5550   16.9770 C   0  0  0  0  0  0  0  0  0  0  0  0
   28.3450   25.7220   17.0260 C   0  0  0  0  0  0  0  0  0  0  0  0
   27.6020   24.3980   16.9320 C   0  0  0  0  0  0  0  0  0  0  0  0
   26.6190   24.2190   18.0550 C   0  0  0  0  0  0  0  0  0  0  0  0
   25.2420   23.9010   17.4800 C   0  0  0  0  0  0  0  0  0  0  0  0
   24.9960   22.4400   17.5030 N   0  0  0  0  0  0  0  0  0  0  0  0
  1  2  1  0  0  0  0
  1  4  1  0  0  0  0
  2 31  1  0  0  0  0
  3  2  2  0  0  0  0
  5  1  1  0  0  0  0
  6  5  1  1  0  0  0
  7  6  1  0  0  0  0
  7 27  1  1  0  0  0
  8  7  1  1  0  0  0
  9 14  1  6  0  0  0
  9 16  1  0  0  0  0
  9 11  1  0  0  0  0
 10  9  1  0  0  0  0
 11  8  1  0  0  0  0
 12 20  1  6  0  0  0
 12 10  1  0  0  0  0
 12 13  1  0  0  0  0
 13 22  1  1  0  0  0
 13  8  1  0  0  0  0
 15 14  1  0  0  0  0
 16 18  1  0  0  0  0
 17 16  2  0  0  0  0
 19 18  1  0  0  0  0
 21 20  1  0  0  0  0
 22 24  1  0  0  0  0
 23 25  1  0  0  0  0
 23 22  1  0  0  0  0
 26 23  2  0  0  0  0
 27 28  1  0  0  0  0
 29  6  1  0  0  0  0
 29 30  1  0  0  0  0
 32 31  1  0  0  0  0
 33 34  2  0  0  0  0
 33 32  1  0  0  0  0
 35 33  1  0  0  0  0
 36 34  1  0  0  0  0
 37 35  2  0  0  0  0
 37 36  1  0  0  0  0
 38 36  1  0  0  0  0
 39 38  1  0  0  0  0
 40 39  1  0  0  0  0
 41 40  1  0  0  0  0
 42 43  1  0  0  0  0
 44 43  1  0  0  0  0
 44 45  1  0  0  0  0
 46 47  1  0  0  0  0
 46 45  1  0  0  0  0
M  END
>  <REMARK>
 VINA RESULT:    -3.205      7.779     14.637
 INTER + INTRA:         -13.400
 INTER:                  -6.657
 INTRA:                  -6.743
 UNBOUND:                -7.572
 SMILES CC(=O)N[C@@H]1[C@@H](O)C[C@](O)(C(=O)O)O[C@H]1C(O)[C@H](O)CNC(=O)OCc1cn(CCO)nn1
 SMILES IDX 21 1 22 2 23 3 20 5 18 6 16 7 15 8 9 9 8 10 14 11 6 12 5 13
 SMILES IDX 10 14 11 16 12 17 13 18 7 20 4 22 2 23 1 25 3 26 17 27 19 29
 SMILES IDX 24 31 25 32 26 33 27 34 33 35 28 36 32 37 29 38 30 39 31 40
 H PARENT 21 4 10 15 13 19 7 21 4 24 17 28 19 30 31 41
 Flexibility Score: inf
  4 active torsions:
  status: ('A' for Active; 'I' for Inactive)
    1  A    between atoms: CA   and  CB  
    2  A    between atoms: CB   and  CG  
    3  A    between atoms: CG   and  CD  
    4  A    between atoms: CD   and  CE  

>  <TORSDO>
F 17

>  <BEGIN_>
RES LYS A 131

$$$$
ligand_1_pose_9_2HRL.pdbqt
 OpenBabel07062320523D

  6  5  0  0  0  0  0  0  0  0999 V2000
   33.1930   34.6630    9.2900 C   0  0  0  0  0  0  0  0  0  0  0  0
   32.0600   35.3600   10.0340 C   0  0  0  0  0  0  0  0  0  0  0  0
   30.7320   34.6610    9.9010 C   0  0  0  0  0  0  0  0  0  0  0  0
   30.3250   34.5560    8.4390 C   0  0  0  0  0  0  0  0  0  0  0  0
   28.8140   34.5730    8.3040 C   0  0  0  0  0  0  0  0  0  0  0  0
   28.1660   33.8710    9.4460 N   0  0  0  0  0  0  0  0  0  0  0  0
  1  2  1  0  0  0  0
  3  2  1  0  0  0  0
  4  3  1  0  0  0  0
  5  4  1  0  0  0  0
  5  6  1  0  0  0  0
M  END
>  <EGIN_R>
ES LYS A 135

>  <REMARK>
  4 active torsions:
  status: ('A' for Active; 'I' for Inactive)
    5  A    between atoms: CA   and  CB  
    6  A    between atoms: CB   and  CG  
    7  A    between atoms: CG   and  CD  
    8  A    between atoms: CD   and  CE  

$$$$
