ligand_31_pose_12_2HRL.pdbqt
 OpenBabel07062320523D

 57 58  0  0  1  0  0  0  0  0999 V2000
   24.7300   32.2590   14.6160 O   0  0  0  0  0  0  0  0  0  0  0  0
   23.8700   33.3260   14.3790 C   0  0  0  0  0  0  0  0  0  0  0  0
   22.6140   33.2130   13.7670 N   0  0  0  0  0  0  0  0  0  0  0  0
   22.2730   32.2910   13.4590 H   0  0  0  0  0  0  0  0  0  0  0  0
   24.2540   34.4690   14.7430 O   0  0  0  0  0  0  0  0  0  0  0  0
   21.7860   34.4060   13.5660 C   0  0  0  0  0  0  0  0  0  0  0  0
   21.5090   34.5630   12.0940 C   0  0  2  0  0  0  0  0  0  0  0  0
   22.6250   35.2650   11.3710 C   0  0  1  0  0  0  0  0  0  0  0  0
   22.1600   35.9690   10.1290 C   0  0  2  0  0  0  0  0  0  0  0  0
   20.6830   35.6040    8.3550 C   0  0  2  0  0  0  0  0  0  0  0  0
   21.4490   36.5360    7.4740 C   0  0  0  0  0  0  0  0  0  0  0  0
   21.3800   35.0630    9.3880 O   0  0  0  0  0  0  0  0  0  0  0  0
   22.6130   37.1950    8.0950 C   0  0  1  0  0  0  0  0  0  0  0  0
   23.2670   36.3640    9.1830 C   0  0  1  0  0  0  0  0  0  0  0  0
   20.3110   34.5190    7.5200 O   0  0  0  0  0  0  0  0  0  0  0  0
   20.2750   34.8020    6.5730 H   0  0  0  0  0  0  0  0  0  0  0  0
   19.4190   36.1940    8.8610 C   0  0  0  0  0  0  0  0  0  0  0  0
   18.9950   37.3070    8.4410 O   0  0  0  0  0  0  0  0  0  0  0  0
   18.6290   35.5690    9.8190 O   0  0  0  0  0  0  0  0  0  0  0  0
   18.4370   34.5750    9.7480 H   0  0  0  0  0  0  0  0  0  0  0  0
   23.5670   37.5110    7.1050 O   0  0  0  0  0  0  0  0  0  0  0  0
   23.2250   38.1720    6.4690 H   0  0  0  0  0  0  0  0  0  0  0  0
   24.3600   37.0650    9.7650 N   0  0  0  0  0  0  0  0  0  0  0  0
   25.6870   36.7460    9.3400 C   0  0  0  0  0  0  0  0  0  0  0  0
   24.2680   37.8120   10.4850 H   0  0  0  0  0  0  0  0  0  0  0  0
   26.8880   37.4160    9.8820 C   0  0  0  0  0  0  0  0  0  0  0  0
   25.8650   35.8530    8.4600 O   0  0  0  0  0  0  0  0  0  0  0  0
   23.4220   36.0380   12.1950 O   0  0  0  0  0  0  0  0  0  0  0  0
   24.3110   36.2470   11.8120 H   0  0  0  0  0  0  0  0  0  0  0  0
   20.3980   35.4460   12.0100 O   0  0  0  0  0  0  0  0  0  0  0  0
   20.5240   36.0610   12.7970 H   0  0  0  0  0  0  0  0  0  0  0  0
   24.2620   31.0410   15.1530 C   0  0  0  0  0  0  0  0  0  0  0  0
   25.4100   30.3300   15.7570 C   0  0  0  0  0  0  0  0  0  0  0  0
   25.3680   29.3690   16.7300 C   0  0  0  0  0  0  0  0  0  0  0  0
   26.7040   30.5080   15.4470 N   0  0  0  0  0  0  0  0  0  0  0  0
   26.6330   28.9910   16.9840 N   0  0  0  0  0  0  0  0  0  0  0  0
   27.4430   29.6860   16.2020 N   0  0  0  0  0  0  0  0  0  0  0  0
   27.0760   27.9850   17.9540 C   0  0  0  0  0  0  0  0  0  0  0  0
   27.4090   28.7060   19.2330 C   0  0  0  0  0  0  0  0  0  0  0  0
   28.7310   29.2710   19.1340 N   0  0  0  0  0  0  0  0  0  0  0  0
   29.0020   30.6570   19.0430 C   0  0  0  0  0  0  0  0  0  0  0  0
   29.5750   28.6300   19.1260 H   0  0  0  0  0  0  0  0  0  0  0  0
   28.0210   31.4600   19.0510 O   0  0  0  0  0  0  0  0  0  0  0  0
   30.3410   31.1140   18.9460 N   0  0  0  0  0  0  0  0  0  0  0  0
   31.1600   30.4800   18.9370 H   0  0  0  0  0  0  0  0  0  0  0  0
   30.5780   32.5380   18.8550 C   0  0  0  0  0  0  0  0  0  0  0  0
   31.0360   32.8490   17.4840 C   0  0  0  0  0  0  0  0  0  0  0  0
   30.8090   32.0270   16.3850 C   0  0  0  0  0  0  0  0  0  0  0  0
   31.6960   33.8940   17.0940 O   0  0  0  0  0  0  0  0  0  0  0  0
   31.3900   32.6750   15.3160 C   0  0  0  0  0  0  0  0  0  0  0  0
   31.9320   33.8400   15.8190 C   0  0  0  0  0  0  0  0  0  0  0  0
   29.8670   25.5550   16.9770 C   0  0  0  0  0  0  0  0  0  0  0  0
   28.3450   25.7220   17.0260 C   0  0  0  0  0  0  0  0  0  0  0  0
   27.6010   24.4020   16.8940 C   0  0  0  0  0  0  0  0  0  0  0  0
   26.1580   24.5220   17.2970 C   0  0  0  0  0  0  0  0  0  0  0  0
   25.6460   23.1660   17.7710 C   0  0  0  0  0  0  0  0  0  0  0  0
   25.4840   23.1590   19.2440 N   0  0  0  0  0  0  0  0  0  0  0  0
  1 32  1  0  0  0  0
  2  1  1  0  0  0  0
  2  5  2  0  0  0  0
  3  2  1  0  0  0  0
  4  3  1  0  0  0  0
  6  3  1  0  0  0  0
  7  6  1  1  0  0  0
  8  7  1  0  0  0  0
  8 28  1  1  0  0  0
  9  8  1  1  0  0  0
 10 15  1  6  0  0  0
 10 17  1  0  0  0  0
 10 12  1  0  0  0  0
 11 13  1  0  0  0  0
 11 10  1  0  0  0  0
 12  9  1  0  0  0  0
 13 21  1  6  0  0  0
 13 14  1  0  0  0  0
 14 23  1  1  0  0  0
 14  9  1  0  0  0  0
 16 15  1  0  0  0  0
 17 19  1  0  0  0  0
 18 17  2  0  0  0  0
 20 19  1  0  0  0  0
 22 21  1  0  0  0  0
 23 25  1  0  0  0  0
 24 23  1  0  0  0  0
 24 26  1  0  0  0  0
 27 24  2  0  0  0  0
 29 28  1  0  0  0  0
 30  7  1  0  0  0  0
 30 31  1  0  0  0  0
 32 33  1  0  0  0  0
 33 34  2  0  0  0  0
 34 36  1  0  0  0  0
 35 33  1  0  0  0  0
 35 37  2  0  0  0  0
 36 38  1  0  0  0  0
 37 36  1  0  0  0  0
 38 39  1  0  0  0  0
 40 39  1  0  0  0  0
 41 43  2  0  0  0  0
 41 40  1  0  0  0  0
 42 40  1  0  0  0  0
 44 41  1  0  0  0  0
 45 44  1  0  0  0  0
 46 44  1  0  0  0  0
 47 46  1  0  0  0  0
 48 47  2  0  0  0  0
 49 47  1  0  0  0  0
 50 51  2  0  0  0  0
 50 48  1  0  0  0  0
 51 49  1  0  0  0  0
 52 53  1  0  0  0  0
 54 53  1  0  0  0  0
 54 55  1  0  0  0  0
 55 56  1  0  0  0  0
 56 57  1  0  0  0  0
M  END
>  <REMARK>
 VINA RESULT:    -4.961      5.644     12.032
 INTER + INTRA:         -15.655
 INTER:                  -9.745
 INTRA:                  -5.910
 UNBOUND:                -5.909
 SMILES CC(=O)N[C@@H]1[C@@H](O)C[C@](O)(C(=O)O)O[C@H]1C(O)[C@H](O)CNC(=O)OCc1cn(CCNC(=O)NCc2ccco2)nn1
 SMILES IDX 24 1 22 2 21 3 23 5 20 6 18 7 16 8 15 9 9 10 8 11 14 12 6 13
 SMILES IDX 5 14 10 15 11 17 12 18 13 19 7 21 4 23 2 24 1 26 3 27 17 28
 SMILES IDX 19 30 25 32 26 33 27 34 42 35 28 36 41 37 29 38 30 39 31 40
 SMILES IDX 32 41 33 43 34 44 35 46 36 47 37 48 40 49 38 50 39 51
 H PARENT 21 4 10 16 13 20 7 22 4 25 17 29 19 31 31 42 34 45
 Flexibility Score: inf
  4 active torsions:
  status: ('A' for Active; 'I' for Inactive)
    1  A    between atoms: CA   and  CB  
    2  A    between atoms: CB   and  CG  
    3  A    between atoms: CG   and  CD  
    4  A    between atoms: CD   and  CE  

>  <TORSDO>
F 19

>  <BEGIN_>
RES LYS A 131

$$$$
ligand_31_pose_12_2HRL.pdbqt
 OpenBabel07062320523D

  6  5  0  0  0  0  0  0  0  0999 V2000
   33.1930   34.6630    9.2900 C   0  0  0  0  0  0  0  0  0  0  0  0
   32.0600   35.3600   10.0340 C   0  0  0  0  0  0  0  0  0  0  0  0
   30.7920   35.4760    9.2280 C   0  0  0  0  0  0  0  0  0  0  0  0
   30.2450   34.0990    8.8860 C   0  0  0  0  0  0  0  0  0  0  0  0
   28.7790   34.0000    9.2600 C   0  0  0  0  0  0  0  0  0  0  0  0
   28.5570   34.4090   10.6750 N   0  0  0  0  0  0  0  0  0  0  0  0
  1  2  1  0  0  0  0
  3  2  1  0  0  0  0
  4  3  1  0  0  0  0
  4  5  1  0  0  0  0
  5  6  1  0  0  0  0
M  END
>  <EGIN_R>
ES LYS A 135

>  <REMARK>
  4 active torsions:
  status: ('A' for Active; 'I' for Inactive)
    5  A    between atoms: CA   and  CB  
    6  A    between atoms: CB   and  CG  
    7  A    between atoms: CG   and  CD  
    8  A    between atoms: CD   and  CE  

$$$$
