ligand_71_pose_17_2HRL.pdbqt
 OpenBabel07062320523D

 54 55  0  0  1  0  0  0  0  0999 V2000
   26.6810   36.8310   11.9410 N   0  0  0  0  0  0  0  0  0  0  0  0
   27.4220   35.6530   12.2970 C   0  0  0  0  0  0  0  0  0  0  0  0
   26.9010   34.7470   12.9930 O   0  0  0  0  0  0  0  0  0  0  0  0
   27.1260   37.5660   11.3660 H   0  0  0  0  0  0  0  0  0  0  0  0
   25.3260   36.9360   12.4100 C   0  0  0  0  0  0  0  0  0  0  0  0
   24.3290   37.1940   11.3070 C   0  0  2  0  0  0  0  0  0  0  0  0
   24.0990   35.8830   10.5950 C   0  0  1  0  0  0  0  0  0  0  0  0
   22.6160   35.6820   10.2720 C   0  0  2  0  0  0  0  0  0  0  0  0
   20.8390   36.6380    9.2600 C   0  0  2  0  0  0  0  0  0  0  0  0
   19.9330   35.8950   10.1730 C   0  0  0  0  0  0  0  0  0  0  0  0
   22.0620   36.8570    9.8270 O   0  0  0  0  0  0  0  0  0  0  0  0
   20.4730   35.6280   11.5580 C   0  0  1  0  0  0  0  0  0  0  0  0
   21.9220   35.2300   11.5470 C   0  0  1  0  0  0  0  0  0  0  0  0
   20.2990   37.9520    9.0510 O   0  0  0  0  0  0  0  0  0  0  0  0
   20.0160   38.0250    8.0980 H   0  0  0  0  0  0  0  0  0  0  0  0
   20.8860   36.0350    7.8970 C   0  0  0  0  0  0  0  0  0  0  0  0
   20.1940   35.0580    7.6100 O   0  0  0  0  0  0  0  0  0  0  0  0
   21.7130   36.5540    6.8960 O   0  0  0  0  0  0  0  0  0  0  0  0
   22.5910   36.1290    6.6550 H   0  0  0  0  0  0  0  0  0  0  0  0
   20.2700   36.7930   12.3010 O   0  0  0  0  0  0  0  0  0  0  0  0
   19.3450   37.1490   12.1820 H   0  0  0  0  0  0  0  0  0  0  0  0
   22.1680   33.8440   11.7400 N   0  0  0  0  0  0  0  0  0  0  0  0
   22.9010   33.2910   12.8210 C   0  0  0  0  0  0  0  0  0  0  0  0
   21.7930   33.1530   11.0460 H   0  0  0  0  0  0  0  0  0  0  0  0
   23.1260   31.8190   12.9590 C   0  0  0  0  0  0  0  0  0  0  0  0
   23.3620   34.0770   13.6670 O   0  0  0  0  0  0  0  0  0  0  0  0
   24.8670   35.7730    9.4520 O   0  0  0  0  0  0  0  0  0  0  0  0
   24.4860   36.3960    8.7610 H   0  0  0  0  0  0  0  0  0  0  0  0
   24.8760   38.1520   10.4570 O   0  0  0  0  0  0  0  0  0  0  0  0
   24.1230   38.5430    9.9380 H   0  0  0  0  0  0  0  0  0  0  0  0
   28.7240   35.4780   11.8890 O   0  0  0  0  0  0  0  0  0  0  0  0
   29.1830   34.5240   10.9770 C   0  0  0  0  0  0  0  0  0  0  0  0
   28.5210   34.7080    9.6680 C   0  0  0  0  0  0  0  0  0  0  0  0
   28.9000   35.5130    8.6140 C   0  0  0  0  0  0  0  0  0  0  0  0
   27.3980   34.0780    9.2860 N   0  0  0  0  0  0  0  0  0  0  0  0
   28.0030   35.3440    7.6450 N   0  0  0  0  0  0  0  0  0  0  0  0
   27.1100   34.4730    8.0820 N   0  0  0  0  0  0  0  0  0  0  0  0
   28.0490   36.0160    6.3420 C   0  0  0  0  0  0  0  0  0  0  0  0
   27.2020   37.2450    6.3780 C   0  0  0  0  0  0  0  0  0  0  0  0
   27.2480   38.1510    5.5300 O   0  0  0  0  0  0  0  0  0  0  0  0
   26.2760   37.3860    7.4630 N   0  0  0  0  0  0  0  0  0  0  0  0
   26.2170   36.6390    8.1920 H   0  0  0  0  0  0  0  0  0  0  0  0
   25.4270   38.5100    7.5810 C   0  0  0  0  0  0  0  0  0  0  0  0
   24.0840   38.4370    7.5140 N   0  0  0  0  0  0  0  0  0  0  0  0
   25.9540   39.7360    7.7710 N   0  0  0  0  0  0  0  0  0  0  0  0
   23.2990   39.5260    7.6310 C   0  0  0  0  0  0  0  0  0  0  0  0
   25.2350   40.8480    7.8940 C   0  0  0  0  0  0  0  0  0  0  0  0
   23.8580   40.7730    7.8260 C   0  0  0  0  0  0  0  0  0  0  0  0
   29.8670   25.5550   16.9770 C   0  0  0  0  0  0  0  0  0  0  0  0
   28.3450   25.7220   17.0260 C   0  0  0  0  0  0  0  0  0  0  0  0
   27.6020   24.3970   16.9520 C   0  0  0  0  0  0  0  0  0  0  0  0
   26.6050   24.2430   18.0660 C   0  0  0  0  0  0  0  0  0  0  0  0
   25.2480   23.8580   17.4850 C   0  0  0  0  0  0  0  0  0  0  0  0
   25.0760   22.3870   17.5000 N   0  0  0  0  0  0  0  0  0  0  0  0
  1  2  1  0  0  0  0
  1  5  1  0  0  0  0
  2  3  2  0  0  0  0
  4  1  1  0  0  0  0
  6  5  1  1  0  0  0
  7 27  1  6  0  0  0
  7  6  1  0  0  0  0
  8  7  1  1  0  0  0
  8 13  1  0  0  0  0
  9 16  1  6  0  0  0
  9 11  1  0  0  0  0
  9 10  1  0  0  0  0
 10 12  1  0  0  0  0
 11  8  1  0  0  0  0
 12 20  1  1  0  0  0
 13 12  1  0  0  0  0
 13 22  1  6  0  0  0
 14  9  1  0  0  0  0
 15 14  1  0  0  0  0
 17 16  2  0  0  0  0
 18 16  1  0  0  0  0
 19 18  1  0  0  0  0
 21 20  1  0  0  0  0
 22 23  1  0  0  0  0
 23 25  1  0  0  0  0
 23 26  2  0  0  0  0
 24 22  1  0  0  0  0
 28 27  1  0  0  0  0
 29  6  1  0  0  0  0
 30 29  1  0  0  0  0
 31  2  1  0  0  0  0
 32 31  1  0  0  0  0
 33 32  1  0  0  0  0
 34 33  2  0  0  0  0
 35 33  1  0  0  0  0
 36 37  1  0  0  0  0
 36 34  1  0  0  0  0
 37 35  2  0  0  0  0
 38 39  1  0  0  0  0
 38 36  1  0  0  0  0
 39 41  1  0  0  0  0
 40 39  2  0  0  0  0
 41 43  1  0  0  0  0
 41 42  1  0  0  0  0
 43 45  1  0  0  0  0
 44 43  2  0  0  0  0
 44 46  1  0  0  0  0
 45 47  2  0  0  0  0
 46 48  2  0  0  0  0
 48 47  1  0  0  0  0
 49 50  1  0  0  0  0
 51 50  1  0  0  0  0
 51 52  1  0  0  0  0
 53 54  1  0  0  0  0
 53 52  1  0  0  0  0
M  END
>  <REMARK>
 VINA RESULT:    -3.788      4.095      8.748
 INTER + INTRA:         -14.565
 INTER:                  -8.320
 INTRA:                  -6.245
 UNBOUND:                -7.565
 SMILES CC(=O)N[C@@H]1[C@@H](O)C[C@](O)(C(=O)O)O[C@H]1C(O)[C@H](O)CNC(=O)OCc1cn(CC(=O)Nc2ncccn2)nn1
 SMILES IDX 21 1 22 2 23 3 20 5 18 6 16 7 15 8 9 9 8 10 14 11 6 12 5 13
 SMILES IDX 10 14 11 16 12 17 13 18 7 20 4 22 2 23 1 25 3 26 17 27 19 29
 SMILES IDX 24 31 25 32 26 33 27 34 40 35 28 36 39 37 29 38 30 39 31 40
 SMILES IDX 32 41 33 43 34 44 38 45 35 46 37 47 36 48
 H PARENT 21 4 10 15 13 19 7 21 4 24 17 28 19 30 32 42
 Flexibility Score: inf
  4 active torsions:
  status: ('A' for Active; 'I' for Inactive)
    1  A    between atoms: CA   and  CB  
    2  A    between atoms: CB   and  CG  
    3  A    between atoms: CG   and  CD  
    4  A    between atoms: CD   and  CE  

>  <TORSDO>
F 17

>  <BEGIN_>
RES LYS A 131

$$$$
ligand_71_pose_17_2HRL.pdbqt
 OpenBabel07062320523D

  6  5  0  0  0  0  0  0  0  0999 V2000
   33.1930   34.6630    9.2900 C   0  0  0  0  0  0  0  0  0  0  0  0
   32.0600   35.3600   10.0340 C   0  0  0  0  0  0  0  0  0  0  0  0
   32.5010   36.0370   11.3060 C   0  0  0  0  0  0  0  0  0  0  0  0
   31.8080   37.3810   11.4670 C   0  0  0  0  0  0  0  0  0  0  0  0
   31.4550   37.6270   12.9220 C   0  0  0  0  0  0  0  0  0  0  0  0
   31.4520   36.3550   13.6960 N   0  0  0  0  0  0  0  0  0  0  0  0
  1  2  1  0  0  0  0
  2  3  1  0  0  0  0
  3  4  1  0  0  0  0
  4  5  1  0  0  0  0
  5  6  1  0  0  0  0
M  END
>  <EGIN_R>
ES LYS A 135

>  <REMARK>
  4 active torsions:
  status: ('A' for Active; 'I' for Inactive)
    5  A    between atoms: CA   and  CB  
    6  A    between atoms: CB   and  CG  
    7  A    between atoms: CG   and  CD  
    8  A    between atoms: CD   and  CE  

$$$$
