ligand_57_pose_6_2HRL.pdbqt
 OpenBabel07062320523D

 50 51  0  0  1  0  0  0  0  0999 V2000
   30.0420   31.1320   16.0790 C   0  0  0  0  0  0  0  0  0  0  0  0
   30.5470   32.4700   15.6560 C   0  0  2  0  0  0  0  0  0  0  0  0
   29.4940   33.2910   14.9410 C   0  0  2  0  0  0  0  0  0  0  0  0
   30.1580   34.4110   14.1700 C   0  0  2  0  0  0  0  0  0  0  0  0
   31.8190   36.0490   14.2740 C   0  0  2  0  0  0  0  0  0  0  0  0
   30.8890   37.0650   13.6870 C   0  0  0  0  0  0  0  0  0  0  0  0
   31.2340   34.9400   14.8100 O   0  0  0  0  0  0  0  0  0  0  0  0
   29.8100   36.4150   12.8620 C   0  0  1  0  0  0  0  0  0  0  0  0
   29.1130   35.4030   13.7680 C   0  0  1  0  0  0  0  0  0  0  0  0
   32.6220   36.7160   15.2420 O   0  0  0  0  0  0  0  0  0  0  0  0
   32.1950   36.6940   16.1330 H   0  0  0  0  0  0  0  0  0  0  0  0
   32.7400   35.5890   13.2030 C   0  0  0  0  0  0  0  0  0  0  0  0
   32.8800   36.2770   12.1610 O   0  0  0  0  0  0  0  0  0  0  0  0
   33.4840   34.4200   13.2590 O   0  0  0  0  0  0  0  0  0  0  0  0
   33.8580   34.0490   14.1320 H   0  0  0  0  0  0  0  0  0  0  0  0
   28.8760   37.3490   12.4070 O   0  0  0  0  0  0  0  0  0  0  0  0
   28.8700   38.1690   12.9480 H   0  0  0  0  0  0  0  0  0  0  0  0
   28.1170   34.7560   12.9030 N   0  0  0  0  0  0  0  0  0  0  0  0
   26.7420   35.0470   12.9950 C   0  0  0  0  0  0  0  0  0  0  0  0
   28.4750   34.0760   12.2200 H   0  0  0  0  0  0  0  0  0  0  0  0
   25.7350   34.3750   12.1010 C   0  0  0  0  0  0  0  0  0  0  0  0
   26.3630   35.8880   13.8500 O   0  0  0  0  0  0  0  0  0  0  0  0
   28.5860   33.7490   15.8680 O   0  0  0  0  0  0  0  0  0  0  0  0
   28.0300   34.4750   15.4870 H   0  0  0  0  0  0  0  0  0  0  0  0
   31.6150   32.2690   14.7490 O   0  0  0  0  0  0  0  0  0  0  0  0
   31.4710   32.7890   13.9150 H   0  0  0  0  0  0  0  0  0  0  0  0
   30.2830   30.9730   17.4970 N   0  0  0  0  0  0  0  0  0  0  0  0
   29.3860   31.3900   18.5160 C   0  0  0  0  0  0  0  0  0  0  0  0
   31.1740   30.5200   17.8650 H   0  0  0  0  0  0  0  0  0  0  0  0
   28.3150   31.9280   18.1970 O   0  0  0  0  0  0  0  0  0  0  0  0
   29.6620   31.2170   19.8670 O   0  0  0  0  0  0  0  0  0  0  0  0
   30.0460   29.9520   20.3660 C   0  0  0  0  0  0  0  0  0  0  0  0
   28.8630   29.0660   20.5200 C   0  0  0  0  0  0  0  0  0  0  0  0
   28.1150   28.4740   19.5430 C   0  0  0  0  0  0  0  0  0  0  0  0
   28.3090   28.6850   21.6860 N   0  0  0  0  0  0  0  0  0  0  0  0
   27.1350   27.7560   20.1170 N   0  0  0  0  0  0  0  0  0  0  0  0
   27.2870   27.9090   21.4360 N   0  0  0  0  0  0  0  0  0  0  0  0
   26.1300   26.9800   19.4270 C   0  0  0  0  0  0  0  0  0  0  0  0
   25.9060   27.4880   18.0200 C   0  0  0  0  0  0  0  0  0  0  0  0
   24.8580   26.8990   20.2170 C   0  0  0  0  0  0  0  0  0  0  0  0
   24.9390   28.6480   17.9710 C   0  0  0  0  0  0  0  0  0  0  0  0
   23.9990   28.1210   20.1170 C   0  0  0  0  0  0  0  0  0  0  0  0
   23.7510   28.4150   18.7380 N   0  0  0  0  0  0  0  0  0  0  0  0
   22.8980   27.4110   18.1700 C   0  0  0  0  0  0  0  0  0  0  0  0
   29.8670   25.5550   16.9770 C   0  0  0  0  0  0  0  0  0  0  0  0
   28.3450   25.7220   17.0260 C   0  0  0  0  0  0  0  0  0  0  0  0
   27.5990   24.4410   16.6850 C   0  0  0  0  0  0  0  0  0  0  0  0
   27.0330   23.7730   17.9080 C   0  0  0  0  0  0  0  0  0  0  0  0
   25.6510   23.2120   17.5880 C   0  0  0  0  0  0  0  0  0  0  0  0
   24.7960   24.2570   16.9790 N   0  0  0  0  0  0  0  0  0  0  0  0
  1 27  1  0  0  0  0
  2  1  1  6  0  0  0
  3  2  1  0  0  0  0
  3 23  1  1  0  0  0
  4  7  1  0  0  0  0
  4  3  1  1  0  0  0
  5 12  1  6  0  0  0
  5  7  1  0  0  0  0
  5 10  1  0  0  0  0
  6  5  1  0  0  0  0
  8 16  1  1  0  0  0
  8  6  1  0  0  0  0
  8  9  1  0  0  0  0
  9 18  1  6  0  0  0
  9  4  1  0  0  0  0
 10 11  1  0  0  0  0
 12 14  1  0  0  0  0
 13 12  2  0  0  0  0
 14 15  1  0  0  0  0
 16 17  1  0  0  0  0
 18 19  1  0  0  0  0
 19 22  2  0  0  0  0
 20 18  1  0  0  0  0
 21 19  1  0  0  0  0
 24 23  1  0  0  0  0
 25  2  1  0  0  0  0
 26 25  1  0  0  0  0
 27 29  1  0  0  0  0
 27 28  1  0  0  0  0
 28 31  1  0  0  0  0
 30 28  2  0  0  0  0
 31 32  1  0  0  0  0
 32 33  1  0  0  0  0
 33 35  1  0  0  0  0
 34 36  1  0  0  0  0
 34 33  2  0  0  0  0
 36 37  1  0  0  0  0
 37 35  2  0  0  0  0
 38 36  1  0  0  0  0
 38 40  1  0  0  0  0
 39 38  1  0  0  0  0
 41 39  1  0  0  0  0
 41 43  1  0  0  0  0
 42 40  1  0  0  0  0
 43 42  1  0  0  0  0
 44 43  1  0  0  0  0
 45 46  1  0  0  0  0
 47 46  1  0  0  0  0
 47 48  1  0  0  0  0
 49 48  1  0  0  0  0
 50 49  1  0  0  0  0
M  END
>  <REMARK>
 VINA RESULT:    -4.521      3.625      9.104
 INTER + INTRA:         -13.611
 INTER:                  -8.345
 INTRA:                  -5.266
 UNBOUND:                -5.786
 SMILES CC(=O)N[C@@H]1[C@@H](O)C[C@](O)(C(=O)O)O[C@H]1C(O)[C@H](O)CNC(=O)OCc1cn(C2CCN(C)CC2)nn1
 SMILES IDX 20 1 18 2 16 3 15 4 9 5 8 6 14 7 6 8 5 9 10 10 11 12 12 13
 SMILES IDX 13 14 7 16 4 18 2 19 1 21 3 22 17 23 19 25 21 27 22 28 23 30
 SMILES IDX 24 31 25 32 26 33 27 34 37 35 28 36 36 37 29 38 30 39 35 40
 SMILES IDX 31 41 34 42 32 43 33 44
 H PARENT 10 11 13 15 7 17 4 20 17 24 19 26 21 29
 Flexibility Score: inf
  4 active torsions:
  status: ('A' for Active; 'I' for Inactive)
    1  A    between atoms: CA   and  CB  
    2  A    between atoms: CB   and  CG  
    3  A    between atoms: CG   and  CD  
    4  A    between atoms: CD   and  CE  

>  <TORSDO>
F 15

>  <BEGIN_>
RES LYS A 131

$$$$
ligand_57_pose_6_2HRL.pdbqt
 OpenBabel07062320523D

  6  5  0  0  0  0  0  0  0  0999 V2000
   33.1930   34.6630    9.2900 C   0  0  0  0  0  0  0  0  0  0  0  0
   32.0600   35.3600   10.0340 C   0  0  0  0  0  0  0  0  0  0  0  0
   30.7290   34.6680    9.8890 C   0  0  0  0  0  0  0  0  0  0  0  0
   30.3400   34.5550    8.4230 C   0  0  0  0  0  0  0  0  0  0  0  0
   28.8310   34.5490    8.2720 C   0  0  0  0  0  0  0  0  0  0  0  0
   28.1810   33.8290    9.4010 N   0  0  0  0  0  0  0  0  0  0  0  0
  1  2  1  0  0  0  0
  3  2  1  0  0  0  0
  4  3  1  0  0  0  0
  5  4  1  0  0  0  0
  5  6  1  0  0  0  0
M  END
>  <EGIN_R>
ES LYS A 135

>  <REMARK>
  4 active torsions:
  status: ('A' for Active; 'I' for Inactive)
    5  A    between atoms: CA   and  CB  
    6  A    between atoms: CB   and  CG  
    7  A    between atoms: CG   and  CD  
    8  A    between atoms: CD   and  CE  

$$$$
