ligand_56_pose_7_2HRL.pdbqt
 OpenBabel07062320523D

 49 50  0  0  1  0  0  0  0  0999 V2000
   32.3550   37.1970   18.0630 C   0  0  0  0  0  0  0  0  0  0  0  0
   32.6850   37.5120   16.6460 C   0  0  2  0  0  0  0  0  0  0  0  0
   32.8500   36.2650   15.7930 C   0  0  2  0  0  0  0  0  0  0  0  0
   31.6720   35.3590   15.8280 C   0  0  2  0  0  0  0  0  0  0  0  0
   30.9840   33.1690   16.0600 C   0  0  2  0  0  0  0  0  0  0  0  0
   29.6160   33.7380   15.7750 C   0  0  0  0  0  0  0  0  0  0  0  0
   31.9260   34.1200   16.3440 O   0  0  0  0  0  0  0  0  0  0  0  0
   29.6280   34.7510   14.6640 C   0  0  1  0  0  0  0  0  0  0  0  0
   31.0670   35.1720   14.4460 C   0  0  1  0  0  0  0  0  0  0  0  0
   31.4100   32.3100   15.0470 O   0  0  0  0  0  0  0  0  0  0  0  0
   32.1370   31.7060   15.3560 H   0  0  0  0  0  0  0  0  0  0  0  0
   30.8360   32.3160   17.2910 C   0  0  0  0  0  0  0  0  0  0  0  0
   30.4350   31.1430   17.2640 O   0  0  0  0  0  0  0  0  0  0  0  0
   31.1800   32.9280   18.4940 O   0  0  0  0  0  0  0  0  0  0  0  0
   32.1450   33.1890   18.6790 H   0  0  0  0  0  0  0  0  0  0  0  0
   29.0890   34.2380   13.4840 O   0  0  0  0  0  0  0  0  0  0  0  0
   28.6080   34.9540   13.0030 H   0  0  0  0  0  0  0  0  0  0  0  0
   31.1600   36.3700   13.6450 N   0  0  0  0  0  0  0  0  0  0  0  0
   32.0760   36.4530   12.5610 C   0  0  0  0  0  0  0  0  0  0  0  0
   30.5670   37.1990   13.8350 H   0  0  0  0  0  0  0  0  0  0  0  0
   32.1980   37.6800   11.7110 C   0  0  0  0  0  0  0  0  0  0  0  0
   32.8080   35.4630   12.3090 O   0  0  0  0  0  0  0  0  0  0  0  0
   34.0720   35.6790   16.0000 O   0  0  0  0  0  0  0  0  0  0  0  0
   33.9620   34.9020   16.6120 H   0  0  0  0  0  0  0  0  0  0  0  0
   33.8650   38.2210   16.5070 O   0  0  0  0  0  0  0  0  0  0  0  0
   34.4580   37.8730   15.8040 H   0  0  0  0  0  0  0  0  0  0  0  0
   33.5400   37.1050   18.8670 N   0  0  0  0  0  0  0  0  0  0  0  0
   34.0360   35.9890   19.5510 C   0  0  0  0  0  0  0  0  0  0  0  0
   34.1370   37.9980   18.9700 H   0  0  0  0  0  0  0  0  0  0  0  0
   33.4400   34.9110   19.5210 O   0  0  0  0  0  0  0  0  0  0  0  0
   35.2250   36.0280   20.3040 O   0  0  0  0  0  0  0  0  0  0  0  0
   36.3640   35.2890   19.8480 C   0  0  0  0  0  0  0  0  0  0  0  0
   36.6980   35.6340   18.4630 C   0  0  0  0  0  0  0  0  0  0  0  0
   37.4140   34.9190   17.5300 C   0  0  0  0  0  0  0  0  0  0  0  0
   36.3330   36.7790   17.8470 N   0  0  0  0  0  0  0  0  0  0  0  0
   37.4470   35.6620   16.4000 N   0  0  0  0  0  0  0  0  0  0  0  0
   36.7940   36.7790   16.6010 N   0  0  0  0  0  0  0  0  0  0  0  0
   38.0830   35.3130   15.1690 C   0  0  0  0  0  0  0  0  0  0  0  0
   37.6190   34.2230   14.4720 C   0  0  0  0  0  0  0  0  0  0  0  0
   39.1500   36.0640   14.6910 C   0  0  0  0  0  0  0  0  0  0  0  0
   38.2430   33.9000   13.2870 C   0  0  0  0  0  0  0  0  0  0  0  0
   39.7340   35.7050   13.5110 C   0  0  0  0  0  0  0  0  0  0  0  0
   39.2700   34.6330   12.8360 N   0  0  0  0  0  0  0  0  0  0  0  0
   29.8670   25.5550   16.9770 C   0  0  0  0  0  0  0  0  0  0  0  0
   28.3450   25.7220   17.0260 C   0  0  0  0  0  0  0  0  0  0  0  0
   27.6010   24.4020   16.8900 C   0  0  0  0  0  0  0  0  0  0  0  0
   26.1510   24.5280   17.2690 C   0  0  0  0  0  0  0  0  0  0  0  0
   25.6000   23.1530   17.6350 C   0  0  0  0  0  0  0  0  0  0  0  0
   24.2260   22.9880   17.1050 N   0  0  0  0  0  0  0  0  0  0  0  0
  1 27  1  0  0  0  0
  2  1  1  1  0  0  0
  3 23  1  1  0  0  0
  3  2  1  0  0  0  0
  4  3  1  6  0  0  0
  4  7  1  0  0  0  0
  5 10  1  6  0  0  0
  5  7  1  0  0  0  0
  5 12  1  0  0  0  0
  6  5  1  0  0  0  0
  8 16  1  6  0  0  0
  8  6  1  0  0  0  0
  9 18  1  6  0  0  0
  9  8  1  0  0  0  0
  9  4  1  0  0  0  0
 10 11  1  0  0  0  0
 12 14  1  0  0  0  0
 13 12  2  0  0  0  0
 14 15  1  0  0  0  0
 17 16  1  0  0  0  0
 18 20  1  0  0  0  0
 19 18  1  0  0  0  0
 21 19  1  0  0  0  0
 22 19  2  0  0  0  0
 23 24  1  0  0  0  0
 25  2  1  0  0  0  0
 26 25  1  0  0  0  0
 27 29  1  0  0  0  0
 27 28  1  0  0  0  0
 28 31  1  0  0  0  0
 30 28  2  0  0  0  0
 32 31  1  0  0  0  0
 33 32  1  0  0  0  0
 34 33  2  0  0  0  0
 35 33  1  0  0  0  0
 36 37  1  0  0  0  0
 36 34  1  0  0  0  0
 37 35  2  0  0  0  0
 38 36  1  0  0  0  0
 39 38  2  0  0  0  0
 40 38  1  0  0  0  0
 41 39  1  0  0  0  0
 42 40  2  0  0  0  0
 43 41  2  0  0  0  0
 43 42  1  0  0  0  0
 44 45  1  0  0  0  0
 46 45  1  0  0  0  0
 46 47  1  0  0  0  0
 47 48  1  0  0  0  0
 49 48  1  0  0  0  0
M  END
>  <REMARK>
 VINA RESULT:    -5.016      5.003      8.754
 INTER + INTRA:         -13.954
 INTER:                  -7.907
 INTRA:                  -6.046
 UNBOUND:                -5.272
 SMILES CC(=O)N[C@@H]1[C@@H](O)C[C@](O)(C(=O)O)O[C@H]1C(O)[C@H](O)CNC(=O)OCc1cn(-c2ccncc2)nn1
 SMILES IDX 20 1 18 2 16 3 15 4 9 5 8 6 14 7 6 8 5 9 10 10 11 12 12 13
 SMILES IDX 13 14 7 16 4 18 2 19 1 21 3 22 17 23 19 25 21 27 22 28 23 30
 SMILES IDX 24 31 25 32 26 33 27 34 36 35 28 36 35 37 29 38 30 39 34 40
 SMILES IDX 31 41 33 42 32 43
 H PARENT 10 11 13 15 7 17 4 20 17 24 19 26 21 29
 Flexibility Score: inf
  4 active torsions:
  status: ('A' for Active; 'I' for Inactive)
    1  A    between atoms: CA   and  CB  
    2  A    between atoms: CB   and  CG  
    3  A    between atoms: CG   and  CD  
    4  A    between atoms: CD   and  CE  

>  <TORSDO>
F 15

>  <BEGIN_>
RES LYS A 131

$$$$
ligand_56_pose_7_2HRL.pdbqt
 OpenBabel07062320523D

  6  5  0  0  0  0  0  0  0  0999 V2000
   33.1930   34.6630    9.2900 C   0  0  0  0  0  0  0  0  0  0  0  0
   32.0600   35.3600   10.0340 C   0  0  0  0  0  0  0  0  0  0  0  0
   30.8490   35.6230    9.1770 C   0  0  0  0  0  0  0  0  0  0  0  0
   30.2820   34.3200    8.6340 C   0  0  0  0  0  0  0  0  0  0  0  0
   28.7730   34.4060    8.5110 C   0  0  0  0  0  0  0  0  0  0  0  0
   28.3770   35.1880    7.3060 N   0  0  0  0  0  0  0  0  0  0  0  0
  1  2  1  0  0  0  0
  3  2  1  0  0  0  0
  4  3  1  0  0  0  0
  5  4  1  0  0  0  0
  6  5  1  0  0  0  0
M  END
>  <EGIN_R>
ES LYS A 135

>  <REMARK>
  4 active torsions:
  status: ('A' for Active; 'I' for Inactive)
    5  A    between atoms: CA   and  CB  
    6  A    between atoms: CB   and  CG  
    7  A    between atoms: CG   and  CD  
    8  A    between atoms: CD   and  CE  

$$$$
