ligand_64_pose_6_2HRL.pdbqt
 OpenBabel07062320523D

 59 61  0  0  1  0  0  0  0  0999 V2000
   26.0000   27.8580   20.0610 N   0  0  0  0  0  0  0  0  0  0  0  0
   26.7220   27.7250   18.8330 C   0  0  0  0  0  0  0  0  0  0  0  0
   27.7100   26.9460   18.8060 O   0  0  0  0  0  0  0  0  0  0  0  0
   25.1790   28.5300   20.0170 H   0  0  0  0  0  0  0  0  0  0  0  0
   26.3420   27.1510   21.2650 C   0  0  0  0  0  0  0  0  0  0  0  0
   26.8880   28.0820   22.3040 C   0  0  2  0  0  0  0  0  0  0  0  0
   28.4090   28.0440   22.2190 C   0  0  2  0  0  0  0  0  0  0  0  0
   28.9350   29.3900   21.8630 C   0  0  2  0  0  0  0  0  0  0  0  0
   28.8290   30.9720   20.1610 C   0  0  2  0  0  0  0  0  0  0  0  0
   29.5330   31.8030   21.2260 C   0  0  0  0  0  0  0  0  0  0  0  0
   28.3520   29.7780   20.6370 O   0  0  0  0  0  0  0  0  0  0  0  0
   30.7110   31.0280   21.6990 C   0  0  1  0  0  0  0  0  0  0  0  0
   30.4080   29.5140   21.6680 C   0  0  1  0  0  0  0  0  0  0  0  0
   29.8080   30.7800   19.1570 O   0  0  0  0  0  0  0  0  0  0  0  0
   30.1010   29.8380   19.2600 H   0  0  0  0  0  0  0  0  0  0  0  0
   27.6990   31.7100   19.5660 C   0  0  0  0  0  0  0  0  0  0  0  0
   27.8310   32.9060   19.2500 O   0  0  0  0  0  0  0  0  0  0  0  0
   26.4900   31.0850   19.3520 O   0  0  0  0  0  0  0  0  0  0  0  0
   26.4090   30.1710   18.9150 H   0  0  0  0  0  0  0  0  0  0  0  0
   31.8790   31.3080   21.0240 O   0  0  0  0  0  0  0  0  0  0  0  0
   32.5020   30.5500   21.0730 H   0  0  0  0  0  0  0  0  0  0  0  0
   31.2340   28.8680   22.6520 N   0  0  0  0  0  0  0  0  0  0  0  0
   32.0290   27.7100   22.3200 C   0  0  0  0  0  0  0  0  0  0  0  0
   31.2750   29.2310   23.6070 H   0  0  0  0  0  0  0  0  0  0  0  0
   32.8870   27.0200   23.2950 C   0  0  0  0  0  0  0  0  0  0  0  0
   31.9390   27.3190   21.1180 O   0  0  0  0  0  0  0  0  0  0  0  0
   28.8930   27.0310   21.4370 O   0  0  0  0  0  0  0  0  0  0  0  0
   28.9280   27.2060   20.4800 H   0  0  0  0  0  0  0  0  0  0  0  0
   26.4870   27.5430   23.5430 O   0  0  0  0  0  0  0  0  0  0  0  0
   26.8580   26.6360   23.5660 H   0  0  0  0  0  0  0  0  0  0  0  0
   26.3370   28.4380   17.7080 O   0  0  0  0  0  0  0  0  0  0  0  0
   27.2480   28.5160   16.6310 C   0  0  0  0  0  0  0  0  0  0  0  0
   27.4410   29.9570   16.3250 C   0  0  0  0  0  0  0  0  0  0  0  0
   28.6590   30.6360   16.1970 C   0  0  0  0  0  0  0  0  0  0  0  0
   26.5180   30.9240   16.1050 N   0  0  0  0  0  0  0  0  0  0  0  0
   28.4320   31.9310   15.9160 N   0  0  0  0  0  0  0  0  0  0  0  0
   27.1290   32.0770   15.8660 N   0  0  0  0  0  0  0  0  0  0  0  0
   29.4780   32.9050   15.7210 C   0  0  0  0  0  0  0  0  0  0  0  0
   29.7280   33.4580   14.4920 C   0  0  0  0  0  0  0  0  0  0  0  0
   30.2690   33.3080   16.7900 C   0  0  0  0  0  0  0  0  0  0  0  0
   30.7200   34.3900   14.2710 C   0  0  0  0  0  0  0  0  0  0  0  0
   31.2590   34.2340   16.5850 C   0  0  0  0  0  0  0  0  0  0  0  0
   31.4480   34.7370   15.3440 N   0  0  0  0  0  0  0  0  0  0  0  0
   30.9670   34.9630   12.9580 C   0  0  0  0  0  0  0  0  0  0  0  0
   30.0610   35.6170   12.4040 O   0  0  0  0  0  0  0  0  0  0  0  0
   32.1750   34.8020   12.3150 O   0  0  0  0  0  0  0  0  0  0  0  0
   32.5310   35.4720   11.6240 H   0  0  0  0  0  0  0  0  0  0  0  0
   32.1140   34.6800   17.7010 C   0  0  0  0  0  0  0  0  0  0  0  0
   33.1490   35.5470   17.4190 C   0  0  0  0  0  0  0  0  0  0  0  0
   31.8790   34.2410   18.9720 C   0  0  0  0  0  0  0  0  0  0  0  0
   33.9480   35.9650   18.4570 C   0  0  0  0  0  0  0  0  0  0  0  0
   32.7070   34.6860   19.9850 C   0  0  0  0  0  0  0  0  0  0  0  0
   33.7530   35.5520   19.7570 C   0  0  0  0  0  0  0  0  0  0  0  0
   29.8670   25.5550   16.9770 C   0  0  0  0  0  0  0  0  0  0  0  0
   28.3450   25.7220   17.0260 C   0  0  0  0  0  0  0  0  0  0  0  0
   27.5990   24.4770   16.5700 C   0  0  0  0  0  0  0  0  0  0  0  0
   27.0230   23.7070   17.7260 C   0  0  0  0  0  0  0  0  0  0  0  0
   25.5020   23.6770   17.6090 C   0  0  0  0  0  0  0  0  0  0  0  0
   24.8900   24.6300   18.5650 N   0  0  0  0  0  0  0  0  0  0  0  0
  1  5  1  0  0  0  0
  2  1  1  0  0  0  0
  3  2  2  0  0  0  0
  4  1  1  0  0  0  0
  6  5  1  6  0  0  0
  6 29  1  0  0  0  0
  7 27  1  6  0  0  0
  7  6  1  0  0  0  0
  8  7  1  6  0  0  0
  9 14  1  6  0  0  0
  9 11  1  0  0  0  0
  9 10  1  0  0  0  0
 10 12  1  0  0  0  0
 11  8  1  0  0  0  0
 12 20  1  6  0  0  0
 13 12  1  0  0  0  0
 13  8  1  0  0  0  0
 13 22  1  1  0  0  0
 14 15  1  0  0  0  0
 16  9  1  0  0  0  0
 17 16  2  0  0  0  0
 18 16  1  0  0  0  0
 19 18  1  0  0  0  0
 20 21  1  0  0  0  0
 22 24  1  0  0  0  0
 23 22  1  0  0  0  0
 23 25  1  0  0  0  0
 26 23  2  0  0  0  0
 28 27  1  0  0  0  0
 29 30  1  0  0  0  0
 31  2  1  0  0  0  0
 32 31  1  0  0  0  0
 33 32  1  0  0  0  0
 34 33  2  0  0  0  0
 35 33  1  0  0  0  0
 36 34  1  0  0  0  0
 37 36  1  0  0  0  0
 37 35  2  0  0  0  0
 38 36  1  0  0  0  0
 38 40  2  0  0  0  0
 39 38  1  0  0  0  0
 41 39  2  0  0  0  0
 41 43  1  0  0  0  0
 42 40  1  0  0  0  0
 42 48  1  0  0  0  0
 43 42  2  0  0  0  0
 44 41  1  0  0  0  0
 45 44  2  0  0  0  0
 46 44  1  0  0  0  0
 47 46  1  0  0  0  0
 48 50  1  0  0  0  0
 49 48  2  0  0  0  0
 49 51  1  0  0  0  0
 50 52  2  0  0  0  0
 51 53  2  0  0  0  0
 53 52  1  0  0  0  0
 54 55  1  0  0  0  0
 56 55  1  0  0  0  0
 56 57  1  0  0  0  0
 58 57  1  0  0  0  0
 58 59  1  0  0  0  0
M  END
>  <REMARK>
 VINA RESULT:    -6.078      4.069      8.136
 INTER + INTRA:         -16.623
 INTER:                  -9.013
 INTRA:                  -7.610
 UNBOUND:                -5.216
 SMILES CC(=O)N[C@@H]1[C@@H](O)C[C@](O)(C(=O)O)O[C@H]1C(O)[C@H](O)CNC(=O)OCc1cn(-c2cc(C(=O)O)nc(-c3ccccc3)c2)nn1
 SMILES IDX 21 1 22 2 23 3 20 5 18 6 16 7 15 8 9 9 8 10 14 11 6 12 5 13
 SMILES IDX 10 14 11 16 12 17 13 18 7 20 4 22 2 23 1 25 3 26 17 27 19 29
 SMILES IDX 24 31 25 32 26 33 27 34 45 35 28 36 44 37 29 38 30 39 43 40
 SMILES IDX 31 41 36 42 35 43 32 44 33 45 34 46 37 48 38 49 42 50 39 51
 SMILES IDX 41 52 40 53
 H PARENT 21 4 10 15 13 19 7 21 4 24 17 28 19 30 34 47
 Flexibility Score: inf
  4 active torsions:
  status: ('A' for Active; 'I' for Inactive)
    1  A    between atoms: CA   and  CB  
    2  A    between atoms: CB   and  CG  
    3  A    between atoms: CG   and  CD  
    4  A    between atoms: CD   and  CE  

>  <TORSDO>
F 18

>  <BEGIN_>
RES LYS A 131

$$$$
ligand_64_pose_6_2HRL.pdbqt
 OpenBabel07062320523D

  6  5  0  0  0  0  0  0  0  0999 V2000
   33.1930   34.6630    9.2900 C   0  0  0  0  0  0  0  0  0  0  0  0
   32.0600   35.3600   10.0340 C   0  0  0  0  0  0  0  0  0  0  0  0
   30.8030   35.5060    9.2160 C   0  0  0  0  0  0  0  0  0  0  0  0
   30.0770   34.1740    9.1050 C   0  0  0  0  0  0  0  0  0  0  0  0
   28.6250   34.3890    8.7250 C   0  0  0  0  0  0  0  0  0  0  0  0
   27.7160   33.6260    9.6240 N   0  0  0  0  0  0  0  0  0  0  0  0
  1  2  1  0  0  0  0
  3  2  1  0  0  0  0
  4  3  1  0  0  0  0
  5  4  1  0  0  0  0
  5  6  1  0  0  0  0
M  END
>  <EGIN_R>
ES LYS A 135

>  <REMARK>
  4 active torsions:
  status: ('A' for Active; 'I' for Inactive)
    5  A    between atoms: CA   and  CB  
    6  A    between atoms: CB   and  CG  
    7  A    between atoms: CG   and  CD  
    8  A    between atoms: CD   and  CE  

$$$$
