ligand_84_pose_6_2HRL.pdbqt
 OpenBabel07062320523D

 60 62  0  0  1  0  0  0  0  0999 V2000
   24.4840   29.6070   17.4170 O   0  0  0  0  0  0  0  0  0  0  0  0
   24.9630   29.0300   18.5820 C   0  0  0  0  0  0  0  0  0  0  0  0
   25.5750   27.7470   18.6450 N   0  0  0  0  0  0  0  0  0  0  0  0
   25.6490   27.2250   17.7510 H   0  0  0  0  0  0  0  0  0  0  0  0
   24.8320   29.7170   19.6320 O   0  0  0  0  0  0  0  0  0  0  0  0
   26.0260   27.3060   19.9240 C   0  0  0  0  0  0  0  0  0  0  0  0
   27.4650   27.4650   20.2120 C   0  0  2  0  0  0  0  0  0  0  0  0
   27.8680   28.7960   20.8220 C   0  0  1  0  0  0  0  0  0  0  0  0
   29.1810   28.4910   21.5470 C   0  0  2  0  0  0  0  0  0  0  0  0
   31.3460   27.8070   21.0070 C   0  0  2  0  0  0  0  0  0  0  0  0
   31.3690   26.9260   22.2240 C   0  0  0  0  0  0  0  0  0  0  0  0
   30.0890   28.1460   20.5840 O   0  0  0  0  0  0  0  0  0  0  0  0
   30.3400   27.2460   23.2470 C   0  0  1  0  0  0  0  0  0  0  0  0
   28.9880   27.3690   22.5120 C   0  0  1  0  0  0  0  0  0  0  0  0
   31.9120   27.0130   19.9760 O   0  0  0  0  0  0  0  0  0  0  0  0
   31.3290   26.2680   19.7430 H   0  0  0  0  0  0  0  0  0  0  0  0
   32.2340   28.9990   21.1360 C   0  0  0  0  0  0  0  0  0  0  0  0
   31.8800   30.1070   20.6610 O   0  0  0  0  0  0  0  0  0  0  0  0
   33.4670   28.9550   21.7710 O   0  0  0  0  0  0  0  0  0  0  0  0
   34.2810   28.4730   21.4090 H   0  0  0  0  0  0  0  0  0  0  0  0
   30.2500   26.1790   24.1420 O   0  0  0  0  0  0  0  0  0  0  0  0
   30.6720   25.3650   23.7610 H   0  0  0  0  0  0  0  0  0  0  0  0
   27.9330   27.6100   23.4610 N   0  0  0  0  0  0  0  0  0  0  0  0
   26.9620   26.6250   23.7470 C   0  0  0  0  0  0  0  0  0  0  0  0
   27.8880   28.5250   23.9410 H   0  0  0  0  0  0  0  0  0  0  0  0
   25.9110   26.9810   24.7460 C   0  0  0  0  0  0  0  0  0  0  0  0
   26.9510   25.4970   23.2110 O   0  0  0  0  0  0  0  0  0  0  0  0
   28.0760   29.7200   19.7850 O   0  0  0  0  0  0  0  0  0  0  0  0
   27.6140   29.3470   18.9900 H   0  0  0  0  0  0  0  0  0  0  0  0
   28.1320   27.4600   18.9550 O   0  0  0  0  0  0  0  0  0  0  0  0
   28.0440   26.5150   18.6410 H   0  0  0  0  0  0  0  0  0  0  0  0
   25.1600   29.4230   16.1840 C   0  0  0  0  0  0  0  0  0  0  0  0
   26.3030   30.3580   16.0760 C   0  0  0  0  0  0  0  0  0  0  0  0
   27.6360   29.9830   16.2650 C   0  0  0  0  0  0  0  0  0  0  0  0
   26.3680   31.6650   15.7880 N   0  0  0  0  0  0  0  0  0  0  0  0
   28.4460   31.0370   16.0910 N   0  0  0  0  0  0  0  0  0  0  0  0
   27.6260   32.0700   15.7970 N   0  0  0  0  0  0  0  0  0  0  0  0
   29.8930   31.1160   16.1640 C   0  0  0  0  0  0  0  0  0  0  0  0
   30.2920   32.3940   16.9140 C   0  0  1  0  0  0  0  0  0  0  0  0
   30.1110   32.2570   18.3790 C   0  0  0  0  0  0  0  0  0  0  0  0
   31.5390   32.9710   16.3890 C   0  0  0  0  0  0  0  0  0  0  0  0
   31.3370   33.9600   15.3770 N   0  0  0  0  0  0  0  0  0  0  0  0
   30.5110   35.0720   15.9190 C   0  0  0  0  0  0  0  0  0  0  0  0
   32.6050   34.6080   15.0590 C   0  0  0  0  0  0  0  0  0  0  0  0
   30.4110   36.1990   14.9530 C   0  0  0  0  0  0  0  0  0  0  0  0
   32.3690   35.2430   13.6800 C   0  0  0  0  0  0  0  0  0  0  0  0
   31.2290   36.1080   13.7830 N   0  0  0  0  0  0  0  0  0  0  0  0
   30.9130   36.9160   12.6560 C   0  0  0  0  0  0  0  0  0  0  0  0
   29.5930   37.1180   12.3160 C   0  0  0  0  0  0  0  0  0  0  0  0
   31.9140   37.4950   11.8890 C   0  0  0  0  0  0  0  0  0  0  0  0
   29.2940   37.8930   11.2200 C   0  0  0  0  0  0  0  0  0  0  0  0
   31.6050   38.2640   10.7980 C   0  0  0  0  0  0  0  0  0  0  0  0
   30.2740   38.4640   10.4650 C   0  0  0  0  0  0  0  0  0  0  0  0
   29.8970   39.4390    9.0700 Cl  0  0  0  0  0  0  0  0  0  0  0  0
   29.8670   25.5550   16.9770 C   0  0  0  0  0  0  0  0  0  0  0  0
   28.3450   25.7220   17.0260 C   0  0  0  0  0  0  0  0  0  0  0  0
   27.6010   24.4010   16.8990 C   0  0  0  0  0  0  0  0  0  0  0  0
   26.5350   24.2490   17.9490 C   0  0  0  0  0  0  0  0  0  0  0  0
   25.1620   24.2650   17.2850 C   0  0  0  0  0  0  0  0  0  0  0  0
   24.5710   22.9060   17.2830 N   0  0  0  0  0  0  0  0  0  0  0  0
  1  2  1  0  0  0  0
  2  3  1  0  0  0  0
  2  5  2  0  0  0  0
  3  6  1  0  0  0  0
  4  3  1  0  0  0  0
  7  6  1  6  0  0  0
  7  8  1  0  0  0  0
  8 28  1  6  0  0  0
  9  8  1  6  0  0  0
  9 14  1  0  0  0  0
 10 15  1  6  0  0  0
 10 17  1  0  0  0  0
 10 11  1  0  0  0  0
 11 13  1  0  0  0  0
 12 10  1  0  0  0  0
 12  9  1  0  0  0  0
 13 21  1  1  0  0  0
 14 13  1  0  0  0  0
 14 23  1  1  0  0  0
 16 15  1  0  0  0  0
 17 19  1  0  0  0  0
 18 17  2  0  0  0  0
 20 19  1  0  0  0  0
 22 21  1  0  0  0  0
 23 24  1  0  0  0  0
 23 25  1  0  0  0  0
 24 26  1  0  0  0  0
 27 24  2  0  0  0  0
 29 28  1  0  0  0  0
 30  7  1  0  0  0  0
 31 30  1  0  0  0  0
 32  1  1  0  0  0  0
 33 32  1  0  0  0  0
 33 34  2  0  0  0  0
 35 37  2  0  0  0  0
 35 33  1  0  0  0  0
 36 38  1  0  0  0  0
 36 34  1  0  0  0  0
 37 36  1  0  0  0  0
 38 39  1  0  0  0  0
 39 40  1  1  0  0  0
 41 39  1  0  0  0  0
 42 43  1  0  0  0  0
 42 41  1  0  0  0  0
 44 42  1  0  0  0  0
 45 43  1  0  0  0  0
 46 47  1  0  0  0  0
 46 44  1  0  0  0  0
 47 45  1  0  0  0  0
 48 47  1  0  0  0  0
 49 48  1  0  0  0  0
 50 48  2  0  0  0  0
 51 49  2  0  0  0  0
 52 50  1  0  0  0  0
 53 52  2  0  0  0  0
 53 51  1  0  0  0  0
 54 53  1  0  0  0  0
 55 56  1  0  0  0  0
 57 56  1  0  0  0  0
 57 58  1  0  0  0  0
 59 58  1  0  0  0  0
 60 59  1  0  0  0  0
M  END
>  <REMARK>
 VINA RESULT:    -5.207      6.801     12.382
 INTER + INTRA:         -16.350
 INTER:                 -10.785
 INTRA:                  -5.565
 UNBOUND:                -6.121
 SMILES CC(=O)N[C@@H]1[C@@H](O)C[C@](O)(C(=O)O)O[C@H]1C(O)[C@H](O)CNC(=O)OCc1cn(C[C@@H](C)CN2CCN(c3ccc(Cl)cc3)CC2)nn1
 SMILES IDX 24 1 22 2 21 3 23 5 20 6 18 7 16 8 15 9 9 10 8 11 14 12 6 13
 SMILES IDX 5 14 10 15 11 17 12 18 13 19 7 21 4 23 2 24 1 26 3 27 17 28
 SMILES IDX 19 30 25 32 26 33 27 34 47 35 28 36 46 37 29 38 30 39 31 40
 SMILES IDX 32 41 33 42 34 43 45 44 35 45 44 46 36 47 37 48 38 49 43 50
 SMILES IDX 39 51 42 52 40 53 41 54
 H PARENT 21 4 10 16 13 20 7 22 4 25 17 29 19 31
 Flexibility Score: inf
  4 active torsions:
  status: ('A' for Active; 'I' for Inactive)
    1  A    between atoms: CA   and  CB  
    2  A    between atoms: CB   and  CG  
    3  A    between atoms: CG   and  CD  
    4  A    between atoms: CD   and  CE  

>  <TORSDO>
F 19

>  <BEGIN_>
RES LYS A 131

$$$$
ligand_84_pose_6_2HRL.pdbqt
 OpenBabel07062320523D

  6  5  0  0  0  0  0  0  0  0999 V2000
   33.1930   34.6630    9.2900 C   0  0  0  0  0  0  0  0  0  0  0  0
   32.0600   35.3600   10.0340 C   0  0  0  0  0  0  0  0  0  0  0  0
   30.7120   34.7230    9.8120 C   0  0  0  0  0  0  0  0  0  0  0  0
   30.3870   34.6580    8.3280 C   0  0  0  0  0  0  0  0  0  0  0  0
   29.4550   35.7890    7.9360 C   0  0  0  0  0  0  0  0  0  0  0  0
   28.1570   35.2630    7.4320 N   0  0  0  0  0  0  0  0  0  0  0  0
  1  2  1  0  0  0  0
  3  2  1  0  0  0  0
  4  3  1  0  0  0  0
  5  4  1  0  0  0  0
  6  5  1  0  0  0  0
M  END
>  <EGIN_R>
ES LYS A 135

>  <REMARK>
  4 active torsions:
  status: ('A' for Active; 'I' for Inactive)
    5  A    between atoms: CA   and  CB  
    6  A    between atoms: CB   and  CG  
    7  A    between atoms: CG   and  CD  
    8  A    between atoms: CD   and  CE  

$$$$
