ligand_82_pose_9_2HRL.pdbqt
 OpenBabel07062320523D

 53 55  0  0  1  0  0  0  0  0999 V2000
   28.5790   30.6310   19.5310 N   0  0  0  0  0  0  0  0  0  0  0  0
   27.4020   29.9130   19.9390 C   0  0  0  0  0  0  0  0  0  0  0  0
   26.4940   30.5420   20.5410 O   0  0  0  0  0  0  0  0  0  0  0  0
   29.3340   30.1150   19.0320 H   0  0  0  0  0  0  0  0  0  0  0  0
   28.6940   32.0450   19.8190 C   0  0  0  0  0  0  0  0  0  0  0  0
   29.0040   32.7600   18.5340 C   0  0  2  0  0  0  0  0  0  0  0  0
   27.9300   32.5550   17.4890 C   0  0  1  0  0  0  0  0  0  0  0  0
   27.7630   33.8660   16.7570 C   0  0  2  0  0  0  0  0  0  0  0  0
   25.6920   33.7510   15.7250 C   0  0  2  0  0  0  0  0  0  0  0  0
   26.2630   33.8870   14.3320 C   0  0  0  0  0  0  0  0  0  0  0  0
   26.4770   34.3180   16.6990 O   0  0  0  0  0  0  0  0  0  0  0  0
   27.5930   34.5910   14.4410 C   0  0  1  0  0  0  0  0  0  0  0  0
   28.4420   33.7910   15.4090 C   0  0  1  0  0  0  0  0  0  0  0  0
   25.4000   32.4070   15.9790 O   0  0  0  0  0  0  0  0  0  0  0  0
   26.1270   31.8870   15.5410 H   0  0  0  0  0  0  0  0  0  0  0  0
   24.3870   34.4770   15.7250 C   0  0  0  0  0  0  0  0  0  0  0  0
   23.3600   33.9070   16.2280 O   0  0  0  0  0  0  0  0  0  0  0  0
   24.2350   35.7430   15.2040 O   0  0  0  0  0  0  0  0  0  0  0  0
   25.0140   36.3930   15.1370 H   0  0  0  0  0  0  0  0  0  0  0  0
   28.2560   34.6580   13.2310 O   0  0  0  0  0  0  0  0  0  0  0  0
   28.7690   33.8170   13.1260 H   0  0  0  0  0  0  0  0  0  0  0  0
   29.8030   34.2600   15.4370 N   0  0  0  0  0  0  0  0  0  0  0  0
   30.8990   33.3860   15.2230 C   0  0  0  0  0  0  0  0  0  0  0  0
   29.9690   35.2740   15.6210 H   0  0  0  0  0  0  0  0  0  0  0  0
   32.2740   33.9550   15.2700 C   0  0  0  0  0  0  0  0  0  0  0  0
   30.7070   32.1640   15.0010 O   0  0  0  0  0  0  0  0  0  0  0  0
   28.3220   31.5970   16.5580 O   0  0  0  0  0  0  0  0  0  0  0  0
   28.0360   31.7980   15.6510 H   0  0  0  0  0  0  0  0  0  0  0  0
   30.2060   32.2040   18.0460 O   0  0  0  0  0  0  0  0  0  0  0  0
   30.5220   31.4790   18.6550 H   0  0  0  0  0  0  0  0  0  0  0  0
   27.2250   28.5780   19.7010 O   0  0  0  0  0  0  0  0  0  0  0  0
   27.3310   27.9780   18.4220 C   0  0  0  0  0  0  0  0  0  0  0  0
   26.2930   28.5160   17.5190 C   0  0  0  0  0  0  0  0  0  0  0  0
   24.9350   28.3020   17.5460 C   0  0  0  0  0  0  0  0  0  0  0  0
   26.5160   29.3360   16.4820 N   0  0  0  0  0  0  0  0  0  0  0  0
   24.3560   28.9980   16.5220 N   0  0  0  0  0  0  0  0  0  0  0  0
   25.3480   29.6140   15.8970 N   0  0  0  0  0  0  0  0  0  0  0  0
   22.9430   29.0180   16.2300 C   0  0  0  0  0  0  0  0  0  0  0  0
   22.6920   29.4380   14.8070 C   0  0  0  0  0  0  0  0  0  0  0  0
   22.8280   28.5810   13.7990 C   0  0  0  0  0  0  0  0  0  0  0  0
   22.2850   30.8180   14.4780 C   0  0  2  0  0  0  0  0  0  0  0  0
   22.3320   28.9790   12.4540 C   0  0  0  0  0  0  0  0  0  0  0  0
   21.0100   30.6940   13.6300 C   0  0  0  0  0  0  0  0  0  0  0  0
   22.9840   31.2550   13.2060 C   0  0  0  0  0  0  0  0  0  0  0  0
   21.9340   30.4220   12.4550 C   0  0  1  0  0  0  0  0  0  0  0  0
   22.8060   32.7120   12.8820 C   0  0  0  0  0  0  0  0  0  0  0  0
   24.3900   30.7880   13.0390 C   0  0  0  0  0  0  0  0  0  0  0  0
   29.8670   25.5550   16.9770 C   0  0  0  0  0  0  0  0  0  0  0  0
   28.3450   25.7220   17.0260 C   0  0  0  0  0  0  0  0  0  0  0  0
   27.6010   24.4040   16.8770 C   0  0  0  0  0  0  0  0  0  0  0  0
   26.4890   24.2650   17.8790 C   0  0  0  0  0  0  0  0  0  0  0  0
   25.1500   24.5150   17.1920 C   0  0  0  0  0  0  0  0  0  0  0  0
   24.3630   23.2610   17.1180 N   0  0  0  0  0  0  0  0  0  0  0  0
  1  5  1  0  0  0  0
  1  2  1  0  0  0  0
  2  3  2  0  0  0  0
  4  1  1  0  0  0  0
  6  5  1  1  0  0  0
  7 27  1  6  0  0  0
  7  6  1  0  0  0  0
  8  7  1  6  0  0  0
  9 16  1  1  0  0  0
  9 14  1  0  0  0  0
  9 11  1  0  0  0  0
 10 12  1  0  0  0  0
 10  9  1  0  0  0  0
 11  8  1  0  0  0  0
 12 20  1  6  0  0  0
 12 13  1  0  0  0  0
 13 22  1  1  0  0  0
 13  8  1  0  0  0  0
 15 14  1  0  0  0  0
 16 17  2  0  0  0  0
 18 16  1  0  0  0  0
 19 18  1  0  0  0  0
 21 20  1  0  0  0  0
 22 24  1  0  0  0  0
 23 25  1  0  0  0  0
 23 22  1  0  0  0  0
 26 23  2  0  0  0  0
 28 27  1  0  0  0  0
 29  6  1  0  0  0  0
 29 30  1  0  0  0  0
 31  2  1  0  0  0  0
 32 31  1  0  0  0  0
 33 34  2  0  0  0  0
 33 32  1  0  0  0  0
 35 33  1  0  0  0  0
 36 34  1  0  0  0  0
 37 35  2  0  0  0  0
 37 36  1  0  0  0  0
 38 36  1  0  0  0  0
 39 38  1  0  0  0  0
 40 39  2  0  0  0  0
 41 43  1  6  0  0  0
 41 39  1  0  0  0  0
 42 40  1  0  0  0  0
 44 41  1  0  0  0  0
 45 42  1  1  0  0  0
 45 44  1  0  0  0  0
 45 43  1  0  0  0  0
 46 44  1  0  0  0  0
 47 44  1  0  0  0  0
 48 49  1  0  0  0  0
 50 49  1  0  0  0  0
 50 51  1  0  0  0  0
 52 51  1  0  0  0  0
 53 52  1  0  0  0  0
M  END
>  <REMARK>
 VINA RESULT:    -5.425      3.583      7.692
 INTER + INTRA:         -15.042
 INTER:                  -7.463
 INTRA:                  -7.580
 UNBOUND:                -5.337
 SMILES CC(=O)N[C@@H]1[C@@H](O)C[C@](O)(C(=O)O)O[C@H]1C(O)[C@H](O)CNC(=O)OCc1cn(CC2=CC[C@H]3C[C@@H]2C3(C)C)nn1
 SMILES IDX 21 1 22 2 23 3 20 5 18 6 16 7 15 8 9 9 8 10 14 11 6 12 5 13
 SMILES IDX 10 14 11 16 12 17 13 18 7 20 4 22 2 23 1 25 3 26 17 27 19 29
 SMILES IDX 24 31 25 32 26 33 27 34 40 35 28 36 39 37 29 38 30 39 31 40
 SMILES IDX 35 41 32 42 34 43 36 44 33 45 37 46 38 47
 H PARENT 21 4 10 15 13 19 7 21 4 24 17 28 19 30
 Flexibility Score: inf
  4 active torsions:
  status: ('A' for Active; 'I' for Inactive)
    1  A    between atoms: CA   and  CB  
    2  A    between atoms: CB   and  CG  
    3  A    between atoms: CG   and  CD  
    4  A    between atoms: CD   and  CE  

>  <TORSDO>
F 16

>  <BEGIN_>
RES LYS A 131

$$$$
ligand_82_pose_9_2HRL.pdbqt
 OpenBabel07062320523D

  6  5  0  0  0  0  0  0  0  0999 V2000
   33.1930   34.6630    9.2900 C   0  0  0  0  0  0  0  0  0  0  0  0
   32.0600   35.3600   10.0340 C   0  0  0  0  0  0  0  0  0  0  0  0
   30.7100   34.7330    9.7990 C   0  0  0  0  0  0  0  0  0  0  0  0
   30.4630   34.5310    8.3120 C   0  0  0  0  0  0  0  0  0  0  0  0
   29.0180   34.8340    7.9660 C   0  0  0  0  0  0  0  0  0  0  0  0
   28.9160   35.5550    6.6670 N   0  0  0  0  0  0  0  0  0  0  0  0
  1  2  1  0  0  0  0
  3  2  1  0  0  0  0
  4  3  1  0  0  0  0
  5  4  1  0  0  0  0
  6  5  1  0  0  0  0
M  END
>  <EGIN_R>
ES LYS A 135

>  <REMARK>
  4 active torsions:
  status: ('A' for Active; 'I' for Inactive)
    5  A    between atoms: CA   and  CB  
    6  A    between atoms: CB   and  CG  
    7  A    between atoms: CG   and  CD  
    8  A    between atoms: CD   and  CE  

$$$$
