ligand_11_pose_2_2HRL.pdbqt
 OpenBabel07062320523D

 54 54  0  0  1  0  0  0  0  0999 V2000
   25.7890   34.7430   11.1040 O   0  0  0  0  0  0  0  0  0  0  0  0
   24.5500   35.3390   10.8410 C   0  0  0  0  0  0  0  0  0  0  0  0
   24.0440   35.4890    9.5420 N   0  0  0  0  0  0  0  0  0  0  0  0
   24.6790   35.1250    8.7560 H   0  0  0  0  0  0  0  0  0  0  0  0
   23.9050   35.7360   11.8240 O   0  0  0  0  0  0  0  0  0  0  0  0
   22.7880   36.0700    9.1620 C   0  0  0  0  0  0  0  0  0  0  0  0
   22.8980   36.8470    7.9090 C   0  0  2  0  0  0  0  0  0  0  0  0
   23.4520   38.2450    8.1140 C   0  0  1  0  0  0  0  0  0  0  0  0
   24.8360   38.3670    7.4710 C   0  0  2  0  0  0  0  0  0  0  0  0
   26.4180   38.3220    9.1960 C   0  0  2  0  0  0  0  0  0  0  0  0
   26.0290   39.7580    9.4080 C   0  0  0  0  0  0  0  0  0  0  0  0
   25.8080   37.7060    8.1470 O   0  0  0  0  0  0  0  0  0  0  0  0
   25.8210   40.5560    8.1720 C   0  0  1  0  0  0  0  0  0  0  0  0
   25.1330   39.7850    7.0820 C   0  0  1  0  0  0  0  0  0  0  0  0
   26.0490   37.6470   10.3610 O   0  0  0  0  0  0  0  0  0  0  0  0
   26.5070   36.7860   10.4460 H   0  0  0  0  0  0  0  0  0  0  0  0
   27.8930   38.2150    9.0680 C   0  0  0  0  0  0  0  0  0  0  0  0
   28.4260   38.2180    7.9340 O   0  0  0  0  0  0  0  0  0  0  0  0
   28.7250   38.1100   10.1790 O   0  0  0  0  0  0  0  0  0  0  0  0
   29.4750   38.7990   10.2430 H   0  0  0  0  0  0  0  0  0  0  0  0
   25.0410   41.6630    8.5020 O   0  0  0  0  0  0  0  0  0  0  0  0
   24.6600   42.0900    7.6890 H   0  0  0  0  0  0  0  0  0  0  0  0
   25.8780   39.7660    5.8570 N   0  0  0  0  0  0  0  0  0  0  0  0
   25.8140   40.8780    4.9800 C   0  0  0  0  0  0  0  0  0  0  0  0
   26.4750   38.9250    5.6070 H   0  0  0  0  0  0  0  0  0  0  0  0
   26.5800   40.8620    3.7170 C   0  0  0  0  0  0  0  0  0  0  0  0
   25.1190   41.8990    5.2340 O   0  0  0  0  0  0  0  0  0  0  0  0
   22.5960   39.1610    7.5340 O   0  0  0  0  0  0  0  0  0  0  0  0
   22.0020   38.6820    6.9030 H   0  0  0  0  0  0  0  0  0  0  0  0
   21.7680   36.8190    7.1590 O   0  0  0  0  0  0  0  0  0  0  0  0
   21.7570   36.1610    6.4280 H   0  0  0  0  0  0  0  0  0  0  0  0
   26.2450   34.6330   12.4500 C   0  0  0  0  0  0  0  0  0  0  0  0
   27.4580   35.4030   12.6850 C   0  0  0  0  0  0  0  0  0  0  0  0
   28.6960   34.9540   13.0560 C   0  0  0  0  0  0  0  0  0  0  0  0
   27.5860   36.7350   12.5740 N   0  0  0  0  0  0  0  0  0  0  0  0
   29.5430   35.9870   13.1650 N   0  0  0  0  0  0  0  0  0  0  0  0
   28.8340   37.0580   12.8640 N   0  0  0  0  0  0  0  0  0  0  0  0
   30.9480   36.0390   13.5280 C   0  0  1  0  0  0  0  0  0  0  0  0
   31.4980   34.6680   13.6760 C   0  0  0  0  0  0  0  0  0  0  0  0
   32.1810   34.3690   14.9570 C   0  0  0  0  0  0  0  0  0  0  0  0
   31.6960   33.1600   15.6190 C   0  0  0  0  0  0  0  0  0  0  0  0
   31.5110   33.1200   16.8850 O   0  0  0  0  0  0  0  0  0  0  0  0
   31.4250   32.0140   14.8660 O   0  0  0  0  0  0  0  0  0  0  0  0
   32.1420   31.7000   14.2270 H   0  0  0  0  0  0  0  0  0  0  0  0
   31.7190   36.9910   12.7460 C   0  0  0  0  0  0  0  0  0  0  0  0
   32.5430   36.7160   11.8750 O   0  0  0  0  0  0  0  0  0  0  0  0
   31.5060   38.3550   13.0200 O   0  0  0  0  0  0  0  0  0  0  0  0
   30.8980   38.6050   13.7800 H   0  0  0  0  0  0  0  0  0  0  0  0
   29.8670   25.5550   16.9770 C   0  0  0  0  0  0  0  0  0  0  0  0
   28.3450   25.7220   17.0260 C   0  0  0  0  0  0  0  0  0  0  0  0
   27.6020   24.3990   16.9230 C   0  0  0  0  0  0  0  0  0  0  0  0
   26.3310   24.3990   17.7260 C   0  0  0  0  0  0  0  0  0  0  0  0
   26.0940   25.7910   18.3040 C   0  0  0  0  0  0  0  0  0  0  0  0
   25.8670   25.7140   19.7670 N   0  0  0  0  0  0  0  0  0  0  0  0
  1 32  1  0  0  0  0
  2  1  1  0  0  0  0
  2  5  2  0  0  0  0
  3  2  1  0  0  0  0
  4  3  1  0  0  0  0
  6  3  1  0  0  0  0
  7  8  1  0  0  0  0
  7  6  1  1  0  0  0
  8 28  1  6  0  0  0
  9  8  1  1  0  0  0
  9 12  1  0  0  0  0
 10 17  1  6  0  0  0
 10 11  1  0  0  0  0
 10 15  1  0  0  0  0
 12 10  1  0  0  0  0
 13 21  1  1  0  0  0
 13 11  1  0  0  0  0
 14 23  1  6  0  0  0
 14  9  1  0  0  0  0
 14 13  1  0  0  0  0
 15 16  1  0  0  0  0
 17 19  1  0  0  0  0
 18 17  2  0  0  0  0
 19 20  1  0  0  0  0
 22 21  1  0  0  0  0
 24 27  2  0  0  0  0
 24 23  1  0  0  0  0
 25 23  1  0  0  0  0
 26 24  1  0  0  0  0
 29 28  1  0  0  0  0
 30  7  1  0  0  0  0
 31 30  1  0  0  0  0
 32 33  1  0  0  0  0
 33 34  2  0  0  0  0
 34 36  1  0  0  0  0
 35 33  1  0  0  0  0
 35 37  2  0  0  0  0
 36 38  1  0  0  0  0
 37 36  1  0  0  0  0
 38 39  1  6  0  0  0
 39 40  1  0  0  0  0
 40 41  1  0  0  0  0
 41 42  2  0  0  0  0
 43 41  1  0  0  0  0
 44 43  1  0  0  0  0
 45 47  1  0  0  0  0
 45 38  1  0  0  0  0
 46 45  2  0  0  0  0
 47 48  1  0  0  0  0
 49 50  1  0  0  0  0
 51 50  1  0  0  0  0
 51 52  1  0  0  0  0
 52 53  1  0  0  0  0
 53 54  1  0  0  0  0
M  END
>  <REMARK>
 VINA RESULT:    -4.127      2.839      5.688
 INTER + INTRA:         -15.788
 INTER:                  -9.503
 INTRA:                  -6.285
 UNBOUND:                -7.438
 SMILES CC(=O)N[C@@H]1[C@@H](O)C[C@](O)(C(=O)O)O[C@H]1C(O)[C@H](O)CNC(=O)OCc1cn([C@@H](CCC(=O)O)C(=O)O)nn1
 SMILES IDX 24 1 22 2 21 3 23 5 20 6 18 7 16 8 15 9 9 10 8 11 14 12 6 13
 SMILES IDX 5 14 10 15 11 17 12 18 13 19 7 21 4 23 2 24 1 26 3 27 17 28
 SMILES IDX 19 30 25 32 26 33 27 34 39 35 28 36 38 37 29 38 30 39 31 40
 SMILES IDX 32 41 33 42 34 43 35 45 36 46 37 47
 H PARENT 21 4 10 16 13 20 7 22 4 25 17 29 19 31 34 44 37 48
 Flexibility Score: inf
  4 active torsions:
  status: ('A' for Active; 'I' for Inactive)
    1  A    between atoms: CA   and  CB  
    2  A    between atoms: CB   and  CG  
    3  A    between atoms: CG   and  CD  
    4  A    between atoms: CD   and  CE  

>  <TORSDO>
F 21

>  <BEGIN_>
RES LYS A 131

$$$$
ligand_11_pose_2_2HRL.pdbqt
 OpenBabel07062320523D

  6  5  0  0  0  0  0  0  0  0999 V2000
   33.1930   34.6630    9.2900 C   0  0  0  0  0  0  0  0  0  0  0  0
   32.0600   35.3600   10.0340 C   0  0  0  0  0  0  0  0  0  0  0  0
   30.7100   34.7310    9.8020 C   0  0  0  0  0  0  0  0  0  0  0  0
   30.2670   34.9280    8.3610 C   0  0  0  0  0  0  0  0  0  0  0  0
   28.7910   34.6130    8.2100 C   0  0  0  0  0  0  0  0  0  0  0  0
   28.2860   33.8360    9.3760 N   0  0  0  0  0  0  0  0  0  0  0  0
  1  2  1  0  0  0  0
  3  2  1  0  0  0  0
  4  3  1  0  0  0  0
  5  4  1  0  0  0  0
  5  6  1  0  0  0  0
M  END
>  <EGIN_R>
ES LYS A 135

>  <REMARK>
  4 active torsions:
  status: ('A' for Active; 'I' for Inactive)
    5  A    between atoms: CA   and  CB  
    6  A    between atoms: CB   and  CG  
    7  A    between atoms: CG   and  CD  
    8  A    between atoms: CD   and  CE  

$$$$
