ligand_53_pose_3_2HRL.pdbqt
 OpenBabel07062320523D

 48 48  0  0  1  0  0  0  0  0999 V2000
   28.2240   29.3450   16.2060 N   0  0  0  0  0  0  0  0  0  0  0  0
   26.8770   29.3380   16.6170 C   0  0  0  0  0  0  0  0  0  0  0  0
   26.1600   30.3350   16.5350 O   0  0  0  0  0  0  0  0  0  0  0  0
   28.7320   28.4160   16.3220 H   0  0  0  0  0  0  0  0  0  0  0  0
   28.9530   30.4610   15.6630 C   0  0  0  0  0  0  0  0  0  0  0  0
   29.5200   31.4170   16.6640 C   0  0  2  0  0  0  0  0  0  0  0  0
   30.4840   32.3880   16.0920 C   0  0  1  0  0  0  0  0  0  0  0  0
   31.2330   33.2220   17.0950 C   0  0  2  0  0  0  0  0  0  0  0  0
   30.9410   34.2220   19.2050 C   0  0  2  0  0  0  0  0  0  0  0  0
   31.7950   35.3890   18.8340 C   0  0  0  0  0  0  0  0  0  0  0  0
   30.4170   33.4750   18.2080 O   0  0  0  0  0  0  0  0  0  0  0  0
   32.6700   35.0630   17.6650 C   0  0  1  0  0  0  0  0  0  0  0  0
   31.7130   34.5500   16.5730 C   0  0  1  0  0  0  0  0  0  0  0  0
   29.9050   34.7400   20.0390 O   0  0  0  0  0  0  0  0  0  0  0  0
   29.3910   35.3610   19.4550 H   0  0  0  0  0  0  0  0  0  0  0  0
   31.7300   33.3450   20.1210 C   0  0  0  0  0  0  0  0  0  0  0  0
   32.7520   33.7040   20.7400 O   0  0  0  0  0  0  0  0  0  0  0  0
   31.3100   32.0440   20.3040 O   0  0  0  0  0  0  0  0  0  0  0  0
   30.3990   31.7070   20.0000 H   0  0  0  0  0  0  0  0  0  0  0  0
   33.3810   36.1670   17.2020 O   0  0  0  0  0  0  0  0  0  0  0  0
   33.9530   36.4770   17.9520 H   0  0  0  0  0  0  0  0  0  0  0  0
   32.4020   34.5440   15.3240 N   0  0  0  0  0  0  0  0  0  0  0  0
   32.0420   35.4070   14.2450 C   0  0  0  0  0  0  0  0  0  0  0  0
   33.2060   33.9060   15.1770 H   0  0  0  0  0  0  0  0  0  0  0  0
   32.7320   35.4290   12.9360 C   0  0  0  0  0  0  0  0  0  0  0  0
   31.0820   36.1930   14.4230 O   0  0  0  0  0  0  0  0  0  0  0  0
   31.3010   31.8010   15.1400 O   0  0  0  0  0  0  0  0  0  0  0  0
   30.8630   31.0300   14.6960 H   0  0  0  0  0  0  0  0  0  0  0  0
   30.0950   30.6740   17.7070 O   0  0  0  0  0  0  0  0  0  0  0  0
   31.0780   30.6900   17.6710 H   0  0  0  0  0  0  0  0  0  0  0  0
   26.2950   28.1840   17.1370 O   0  0  0  0  0  0  0  0  0  0  0  0
   25.9420   27.9970   18.4710 C   0  0  0  0  0  0  0  0  0  0  0  0
   27.0640   28.1350   19.4320 C   0  0  0  0  0  0  0  0  0  0  0  0
   28.1430   27.3330   19.6360 C   0  0  0  0  0  0  0  0  0  0  0  0
   27.2050   29.1570   20.3270 N   0  0  0  0  0  0  0  0  0  0  0  0
   28.8950   27.8640   20.6170 N   0  0  0  0  0  0  0  0  0  0  0  0
   28.3180   28.9630   21.0240 N   0  0  0  0  0  0  0  0  0  0  0  0
   30.1300   27.3010   21.1240 C   0  0  0  0  0  0  0  0  0  0  0  0
   31.2330   28.2620   20.9290 C   0  0  0  0  0  0  0  0  0  0  0  0
   32.2020   28.2610   21.7400 O   0  0  0  0  0  0  0  0  0  0  0  0
   31.2130   29.1500   19.8740 O   0  0  0  0  0  0  0  0  0  0  0  0
   31.1090   28.7500   18.9370 H   0  0  0  0  0  0  0  0  0  0  0  0
   29.8670   25.5550   16.9770 C   0  0  0  0  0  0  0  0  0  0  0  0
   28.3450   25.7220   17.0260 C   0  0  0  0  0  0  0  0  0  0  0  0
   27.6030   24.3960   16.9630 C   0  0  0  0  0  0  0  0  0  0  0  0
   26.6140   24.2460   18.0860 C   0  0  0  0  0  0  0  0  0  0  0  0
   25.2450   23.8930   17.5150 C   0  0  0  0  0  0  0  0  0  0  0  0
   25.0530   22.4240   17.4950 N   0  0  0  0  0  0  0  0  0  0  0  0
  1  4  1  0  0  0  0
  1  2  1  0  0  0  0
  2 31  1  0  0  0  0
  3  2  2  0  0  0  0
  5  1  1  0  0  0  0
  6  5  1  6  0  0  0
  6 29  1  0  0  0  0
  7 27  1  1  0  0  0
  7  6  1  0  0  0  0
  8  7  1  6  0  0  0
  8 11  1  0  0  0  0
  9 14  1  1  0  0  0
  9 16  1  0  0  0  0
 10  9  1  0  0  0  0
 11  9  1  0  0  0  0
 12 20  1  6  0  0  0
 12 10  1  0  0  0  0
 13 22  1  6  0  0  0
 13  8  1  0  0  0  0
 13 12  1  0  0  0  0
 15 14  1  0  0  0  0
 16 18  1  0  0  0  0
 16 17  2  0  0  0  0
 19 18  1  0  0  0  0
 20 21  1  0  0  0  0
 23 26  2  0  0  0  0
 23 22  1  0  0  0  0
 24 22  1  0  0  0  0
 25 23  1  0  0  0  0
 28 27  1  0  0  0  0
 30 29  1  0  0  0  0
 31 32  1  0  0  0  0
 32 33  1  0  0  0  0
 33 34  2  0  0  0  0
 33 35  1  0  0  0  0
 34 36  1  0  0  0  0
 35 37  2  0  0  0  0
 36 37  1  0  0  0  0
 36 38  1  0  0  0  0
 39 38  1  0  0  0  0
 39 40  2  0  0  0  0
 41 39  1  0  0  0  0
 42 41  1  0  0  0  0
 43 44  1  0  0  0  0
 45 44  1  0  0  0  0
 45 46  1  0  0  0  0
 47 46  1  0  0  0  0
 48 47  1  0  0  0  0
M  END
>  <REMARK>
 VINA RESULT:    -4.284      2.773      6.906
 INTER + INTRA:         -14.152
 INTER:                  -8.067
 INTRA:                  -6.086
 UNBOUND:                -6.362
 SMILES CC(=O)N[C@@H]1[C@@H](O)C[C@](O)(C(=O)O)O[C@H]1C(O)[C@H](O)CNC(=O)OCc1cn(CC(=O)O)nn1
 SMILES IDX 21 1 22 2 23 3 20 5 18 6 16 7 15 8 9 9 8 10 14 11 6 12 5 13
 SMILES IDX 10 14 11 16 12 17 13 18 7 20 4 22 2 23 1 25 3 26 17 27 19 29
 SMILES IDX 24 31 25 32 26 33 27 34 34 35 28 36 33 37 29 38 30 39 31 40
 SMILES IDX 32 41
 H PARENT 21 4 10 15 13 19 7 21 4 24 17 28 19 30 32 42
 Flexibility Score: inf
  4 active torsions:
  status: ('A' for Active; 'I' for Inactive)
    1  A    between atoms: CA   and  CB  
    2  A    between atoms: CB   and  CG  
    3  A    between atoms: CG   and  CD  
    4  A    between atoms: CD   and  CE  

>  <TORSDO>
F 17

>  <BEGIN_>
RES LYS A 131

$$$$
ligand_53_pose_3_2HRL.pdbqt
 OpenBabel07062320523D

  6  5  0  0  0  0  0  0  0  0999 V2000
   33.1930   34.6630    9.2900 C   0  0  0  0  0  0  0  0  0  0  0  0
   32.0600   35.3600   10.0340 C   0  0  0  0  0  0  0  0  0  0  0  0
   30.7110   34.7300    9.8030 C   0  0  0  0  0  0  0  0  0  0  0  0
   30.4660   34.5140    8.3180 C   0  0  0  0  0  0  0  0  0  0  0  0
   29.0220   34.8170    7.9660 C   0  0  0  0  0  0  0  0  0  0  0  0
   28.9260   35.5420    6.6690 N   0  0  0  0  0  0  0  0  0  0  0  0
  1  2  1  0  0  0  0
  3  2  1  0  0  0  0
  4  3  1  0  0  0  0
  5  4  1  0  0  0  0
  6  5  1  0  0  0  0
M  END
>  <EGIN_R>
ES LYS A 135

>  <REMARK>
  4 active torsions:
  status: ('A' for Active; 'I' for Inactive)
    5  A    between atoms: CA   and  CB  
    6  A    between atoms: CB   and  CG  
    7  A    between atoms: CG   and  CD  
    8  A    between atoms: CD   and  CE  

$$$$
