ligand_35_pose_14_2HRL.pdbqt
 OpenBabel07062320523D

 49 49  0  0  1  0  0  0  0  0999 V2000
   29.7160   41.3720    6.9520 N   0  0  0  0  0  0  0  0  0  0  0  0
   31.1150   41.2020    7.0570 C   0  0  0  0  0  0  0  0  0  0  0  0
   31.6510   40.7640    8.1060 O   0  0  0  0  0  0  0  0  0  0  0  0
   29.3220   41.7370    6.0640 H   0  0  0  0  0  0  0  0  0  0  0  0
   28.8280   41.0560    8.0330 C   0  0  0  0  0  0  0  0  0  0  0  0
   27.9350   39.8470    7.7370 C   0  0  2  0  0  0  0  0  0  0  0  0
   28.7080   38.6270    8.0980 C   0  0  2  0  0  0  0  0  0  0  0  0
   27.9260   37.4730    8.6290 C   0  0  2  0  0  0  0  0  0  0  0  0
   29.4850   35.7770    8.2470 C   0  0  2  0  0  0  0  0  0  0  0  0
   28.9680   35.7300    6.8640 C   0  0  0  0  0  0  0  0  0  0  0  0
   28.8330   36.5660    9.1570 O   0  0  0  0  0  0  0  0  0  0  0  0
   27.5140   35.9760    6.6680 C   0  0  1  0  0  0  0  0  0  0  0  0
   26.9230   36.8530    7.7350 C   0  0  1  0  0  0  0  0  0  0  0  0
   30.7960   36.3160    8.1600 O   0  0  0  0  0  0  0  0  0  0  0  0
   31.1380   36.0930    7.2680 H   0  0  0  0  0  0  0  0  0  0  0  0
   29.6470   34.3890    8.7600 C   0  0  0  0  0  0  0  0  0  0  0  0
   28.6700   33.7180    9.1900 O   0  0  0  0  0  0  0  0  0  0  0  0
   30.8900   33.7800    8.7810 O   0  0  0  0  0  0  0  0  0  0  0  0
   31.0350   32.8130    9.0500 H   0  0  0  0  0  0  0  0  0  0  0  0
   27.3540   36.5400    5.3880 O   0  0  0  0  0  0  0  0  0  0  0  0
   26.7720   37.3290    5.5090 H   0  0  0  0  0  0  0  0  0  0  0  0
   26.0610   36.0180    8.5960 N   0  0  0  0  0  0  0  0  0  0  0  0
   24.7270   36.3880    8.8750 C   0  0  0  0  0  0  0  0  0  0  0  0
   26.4010   35.1380    9.0250 H   0  0  0  0  0  0  0  0  0  0  0  0
   23.8310   35.5860    9.7280 C   0  0  0  0  0  0  0  0  0  0  0  0
   24.2510   37.4610    8.3760 O   0  0  0  0  0  0  0  0  0  0  0  0
   29.5410   39.0300    9.1920 O   0  0  0  0  0  0  0  0  0  0  0  0
   30.2050   39.6370    8.7800 H   0  0  0  0  0  0  0  0  0  0  0  0
   27.6770   39.9120    6.3730 O   0  0  0  0  0  0  0  0  0  0  0  0
   26.7540   40.2570    6.2660 H   0  0  0  0  0  0  0  0  0  0  0  0
   31.9640   41.5180    5.9790 O   0  0  0  0  0  0  0  0  0  0  0  0
   31.8810   40.8040    4.7600 C   0  0  0  0  0  0  0  0  0  0  0  0
   33.1580   40.1120    4.4540 C   0  0  0  0  0  0  0  0  0  0  0  0
   34.0670   39.6070    5.3870 C   0  0  0  0  0  0  0  0  0  0  0  0
   33.7090   39.8240    3.2540 N   0  0  0  0  0  0  0  0  0  0  0  0
   35.0950   39.0550    4.7360 N   0  0  0  0  0  0  0  0  0  0  0  0
   34.8730   39.1890    3.4530 N   0  0  0  0  0  0  0  0  0  0  0  0
   36.2700   38.4090    5.3300 C   0  0  1  0  0  0  0  0  0  0  0  0
   37.0640   37.6940    4.2500 C   0  0  0  0  0  0  0  0  0  0  0  0
   37.1170   39.3640    6.0420 C   0  0  0  0  0  0  0  0  0  0  0  0
   37.0460   39.4550    7.2890 O   0  0  0  0  0  0  0  0  0  0  0  0
   38.0270   40.2110    5.4130 O   0  0  0  0  0  0  0  0  0  0  0  0
   38.1080   41.1850    5.6820 H   0  0  0  0  0  0  0  0  0  0  0  0
   29.8670   25.5550   16.9770 C   0  0  0  0  0  0  0  0  0  0  0  0
   28.3450   25.7220   17.0260 C   0  0  0  0  0  0  0  0  0  0  0  0
   27.6030   24.3960   16.9700 C   0  0  0  0  0  0  0  0  0  0  0  0
   26.1560   24.5400   17.3510 C   0  0  0  0  0  0  0  0  0  0  0  0
   25.5520   23.1590   17.5870 C   0  0  0  0  0  0  0  0  0  0  0  0
   25.2540   22.9620   19.0260 N   0  0  0  0  0  0  0  0  0  0  0  0
  1  2  1  0  0  0  0
  1  5  1  0  0  0  0
  2  3  2  0  0  0  0
  4  1  1  0  0  0  0
  6  5  1  6  0  0  0
  6  7  1  0  0  0  0
  7 27  1  1  0  0  0
  8  7  1  6  0  0  0
  8 11  1  0  0  0  0
  9 14  1  6  0  0  0
  9 16  1  0  0  0  0
  9 11  1  0  0  0  0
 10  9  1  0  0  0  0
 12 20  1  6  0  0  0
 12 10  1  0  0  0  0
 12 13  1  0  0  0  0
 13 22  1  1  0  0  0
 13  8  1  0  0  0  0
 15 14  1  0  0  0  0
 16 18  1  0  0  0  0
 16 17  2  0  0  0  0
 18 19  1  0  0  0  0
 20 21  1  0  0  0  0
 22 23  1  0  0  0  0
 22 24  1  0  0  0  0
 23 25  1  0  0  0  0
 26 23  2  0  0  0  0
 28 27  1  0  0  0  0
 29  6  1  0  0  0  0
 30 29  1  0  0  0  0
 31  2  1  0  0  0  0
 32 31  1  0  0  0  0
 33 32  1  0  0  0  0
 33 34  2  0  0  0  0
 35 37  2  0  0  0  0
 35 33  1  0  0  0  0
 36 38  1  0  0  0  0
 36 34  1  0  0  0  0
 37 36  1  0  0  0  0
 38 39  1  6  0  0  0
 38 40  1  0  0  0  0
 40 41  2  0  0  0  0
 42 43  1  0  0  0  0
 42 40  1  0  0  0  0
 44 45  1  0  0  0  0
 46 45  1  0  0  0  0
 46 47  1  0  0  0  0
 47 48  1  0  0  0  0
 48 49  1  0  0  0  0
M  END
>  <REMARK>
 VINA RESULT:    -4.915      6.236     12.702
 INTER + INTRA:         -13.662
 INTER:                  -9.717
 INTRA:                  -3.944
 UNBOUND:                -4.724
 SMILES CC(=O)N[C@@H]1[C@@H](O)C[C@](O)(C(=O)O)O[C@H]1C(O)[C@H](O)CNC(=O)OCc1cn([C@@H](C)C(=O)O)nn1
 SMILES IDX 21 1 22 2 23 3 20 5 18 6 16 7 15 8 9 9 8 10 14 11 6 12 5 13
 SMILES IDX 10 14 11 16 12 17 13 18 7 20 4 22 2 23 1 25 3 26 17 27 19 29
 SMILES IDX 24 31 25 32 26 33 27 34 35 35 28 36 34 37 29 38 30 39 31 40
 SMILES IDX 32 41 33 42
 H PARENT 21 4 10 15 13 19 7 21 4 24 17 28 19 30 33 43
 Flexibility Score: inf
  4 active torsions:
  status: ('A' for Active; 'I' for Inactive)
    1  A    between atoms: CA   and  CB  
    2  A    between atoms: CB   and  CG  
    3  A    between atoms: CG   and  CD  
    4  A    between atoms: CD   and  CE  

>  <TORSDO>
F 17

>  <BEGIN_>
RES LYS A 131

$$$$
ligand_35_pose_14_2HRL.pdbqt
 OpenBabel07062320523D

  6  5  0  0  0  0  0  0  0  0999 V2000
   33.1930   34.6630    9.2900 C   0  0  0  0  0  0  0  0  0  0  0  0
   32.0600   35.3600   10.0340 C   0  0  0  0  0  0  0  0  0  0  0  0
   32.5250   36.1760   11.2130 C   0  0  0  0  0  0  0  0  0  0  0  0
   31.9530   35.6220   12.5080 C   0  0  0  0  0  0  0  0  0  0  0  0
   30.5260   35.1510   12.3020 C   0  0  0  0  0  0  0  0  0  0  0  0
   30.1070   34.2190   13.3850 N   0  0  0  0  0  0  0  0  0  0  0  0
  1  2  1  0  0  0  0
  2  3  1  0  0  0  0
  3  4  1  0  0  0  0
  5  4  1  0  0  0  0
  5  6  1  0  0  0  0
M  END
>  <EGIN_R>
ES LYS A 135

>  <REMARK>
  4 active torsions:
  status: ('A' for Active; 'I' for Inactive)
    5  A    between atoms: CA   and  CB  
    6  A    between atoms: CB   and  CG  
    7  A    between atoms: CG   and  CD  
    8  A    between atoms: CD   and  CE  

$$$$
