ligand_78_pose_2_2HRL.pdbqt
 OpenBabel07062320523D

 53 54  0  0  1  0  0  0  0  0999 V2000
   30.0640   30.8860   16.6990 N   0  0  0  0  0  0  0  0  0  0  0  0
   28.6390   30.8130   16.4960 C   0  0  0  0  0  0  0  0  0  0  0  0
   27.9570   31.8320   16.6690 O   0  0  0  0  0  0  0  0  0  0  0  0
   30.5630   29.9920   16.5280 H   0  0  0  0  0  0  0  0  0  0  0  0
   30.6870   32.1340   17.1020 C   0  0  0  0  0  0  0  0  0  0  0  0
   31.2830   32.8760   15.9540 C   0  0  2  0  0  0  0  0  0  0  0  0
   30.5260   34.0930   15.5450 C   0  0  2  0  0  0  0  0  0  0  0  0
   31.2200   35.4000   15.6890 C   0  0  2  0  0  0  0  0  0  0  0  0
   30.7590   36.1140   13.5100 C   0  0  2  0  0  0  0  0  0  0  0  0
   32.0060   35.4360   13.0470 C   0  0  0  0  0  0  0  0  0  0  0  0
   30.6460   36.3570   14.8550 O   0  0  0  0  0  0  0  0  0  0  0  0
   33.0890   35.2720   14.0410 C   0  0  1  0  0  0  0  0  0  0  0  0
   32.6780   35.4820   15.4710 C   0  0  1  0  0  0  0  0  0  0  0  0
   29.6210   35.3990   13.1330 O   0  0  0  0  0  0  0  0  0  0  0  0
   29.1200   35.0270   13.8760 H   0  0  0  0  0  0  0  0  0  0  0  0
   30.6650   37.4400   12.8450 C   0  0  0  0  0  0  0  0  0  0  0  0
   31.2470   38.4210   13.3540 O   0  0  0  0  0  0  0  0  0  0  0  0
   29.9540   37.6510   11.6700 O   0  0  0  0  0  0  0  0  0  0  0  0
   29.0200   37.2390   11.5370 H   0  0  0  0  0  0  0  0  0  0  0  0
   33.6860   34.0260   13.8680 O   0  0  0  0  0  0  0  0  0  0  0  0
   34.0650   33.6660   14.6910 H   0  0  0  0  0  0  0  0  0  0  0  0
   33.1410   36.7790   15.9730 N   0  0  0  0  0  0  0  0  0  0  0  0
   34.3090   36.9020   16.7580 C   0  0  0  0  0  0  0  0  0  0  0  0
   32.6050   37.6410   15.7530 H   0  0  0  0  0  0  0  0  0  0  0  0
   34.7940   38.2160   17.2770 C   0  0  0  0  0  0  0  0  0  0  0  0
   34.9430   35.8490   17.0130 O   0  0  0  0  0  0  0  0  0  0  0  0
   29.5030   34.1830   16.5880 O   0  0  0  0  0  0  0  0  0  0  0  0
   29.9520   34.5670   17.3610 H   0  0  0  0  0  0  0  0  0  0  0  0
   31.6980   32.1030   14.8870 O   0  0  0  0  0  0  0  0  0  0  0  0
   31.8510   31.1600   15.1390 H   0  0  0  0  0  0  0  0  0  0  0  0
   28.0290   29.6340   16.1130 O   0  0  0  0  0  0  0  0  0  0  0  0
   26.6450   29.3930   16.2990 C   0  0  0  0  0  0  0  0  0  0  0  0
   26.3780   28.6830   17.5570 C   0  0  0  0  0  0  0  0  0  0  0  0
   27.2250   28.0210   18.4010 C   0  0  0  0  0  0  0  0  0  0  0  0
   25.1540   28.5670   18.1150 N   0  0  0  0  0  0  0  0  0  0  0  0
   26.4980   27.5270   19.4350 N   0  0  0  0  0  0  0  0  0  0  0  0
   25.2390   27.8760   19.2320 N   0  0  0  0  0  0  0  0  0  0  0  0
   27.0420   26.7680   20.5300 C   0  0  0  0  0  0  0  0  0  0  0  0
   27.8230   27.8560   21.7140 S   0  0  0  0  0  0  0  0  0  0  0  0
   27.7880   27.1750   23.0590 O   0  0  0  0  0  0  0  0  0  0  0  0
   27.0360   29.1120   21.7610 O   0  0  0  0  0  0  0  0  0  0  0  0
   29.4770   28.1390   21.2050 C   0  0  0  0  0  0  0  0  0  0  0  0
   30.3810   27.0880   21.3130 C   0  0  0  0  0  0  0  0  0  0  0  0
   29.8530   29.3680   20.7170 C   0  0  0  0  0  0  0  0  0  0  0  0
   31.6770   27.3120   20.9140 C   0  0  0  0  0  0  0  0  0  0  0  0
   31.1640   29.5410   20.3310 C   0  0  0  0  0  0  0  0  0  0  0  0
   32.1020   28.5400   20.4140 C   0  0  0  0  0  0  0  0  0  0  0  0
   29.8670   25.5550   16.9770 C   0  0  0  0  0  0  0  0  0  0  0  0
   28.3450   25.7220   17.0260 C   0  0  0  0  0  0  0  0  0  0  0  0
   27.6000   24.4130   16.8130 C   0  0  0  0  0  0  0  0  0  0  0  0
   26.6610   24.1050   17.9470 C   0  0  0  0  0  0  0  0  0  0  0  0
   25.2670   23.8310   17.3930 C   0  0  0  0  0  0  0  0  0  0  0  0
   24.5190   25.0990   17.2190 N   0  0  0  0  0  0  0  0  0  0  0  0
  1  5  1  0  0  0  0
  2  3  2  0  0  0  0
  2  1  1  0  0  0  0
  4  1  1  0  0  0  0
  6  5  1  1  0  0  0
  7  6  1  0  0  0  0
  7 27  1  1  0  0  0
  8  7  1  6  0  0  0
  9 16  1  6  0  0  0
  9 11  1  0  0  0  0
 10  9  1  0  0  0  0
 10 12  1  0  0  0  0
 11  8  1  0  0  0  0
 12 20  1  1  0  0  0
 12 13  1  0  0  0  0
 13  8  1  0  0  0  0
 13 22  1  6  0  0  0
 14  9  1  0  0  0  0
 14 15  1  0  0  0  0
 16 17  2  0  0  0  0
 18 16  1  0  0  0  0
 19 18  1  0  0  0  0
 20 21  1  0  0  0  0
 22 23  1  0  0  0  0
 23 26  2  0  0  0  0
 23 25  1  0  0  0  0
 24 22  1  0  0  0  0
 27 28  1  0  0  0  0
 29 30  1  0  0  0  0
 29  6  1  0  0  0  0
 31 32  1  0  0  0  0
 31  2  1  0  0  0  0
 32 33  1  0  0  0  0
 33 35  1  0  0  0  0
 33 34  2  0  0  0  0
 34 36  1  0  0  0  0
 35 37  2  0  0  0  0
 36 38  1  0  0  0  0
 37 36  1  0  0  0  0
 38 39  1  0  0  0  0
 39 41  2  0  0  0  0
 39 40  2  0  0  0  0
 42 43  1  0  0  0  0
 42 39  1  0  0  0  0
 44 42  2  0  0  0  0
 45 43  2  0  0  0  0
 46 47  2  0  0  0  0
 46 44  1  0  0  0  0
 47 45  1  0  0  0  0
 48 49  1  0  0  0  0
 50 49  1  0  0  0  0
 50 51  1  0  0  0  0
 52 51  1  0  0  0  0
 53 52  1  0  0  0  0
M  END
>  <REMARK>
 VINA RESULT:    -5.637      3.066      8.441
 INTER + INTRA:         -15.427
 INTER:                  -9.862
 INTRA:                  -5.566
 UNBOUND:                -5.011
 SMILES CC(=O)N[C@@H]1[C@@H](O)C[C@](O)(C(=O)O)O[C@H]1C(O)[C@H](O)CNC(=O)OCc1cn(CS(=O)(=O)c2ccccc2)nn1
 SMILES IDX 21 1 22 2 23 3 20 5 18 6 16 7 15 8 9 9 8 10 14 11 6 12 5 13
 SMILES IDX 10 14 11 16 12 17 13 18 7 20 4 22 2 23 1 25 3 26 17 27 19 29
 SMILES IDX 24 31 25 32 26 33 27 34 40 35 28 36 39 37 29 38 30 39 31 40
 SMILES IDX 32 41 33 42 34 43 38 44 35 45 37 46 36 47
 H PARENT 21 4 10 15 13 19 7 21 4 24 17 28 19 30
 Flexibility Score: inf
  4 active torsions:
  status: ('A' for Active; 'I' for Inactive)
    1  A    between atoms: CA   and  CB  
    2  A    between atoms: CB   and  CG  
    3  A    between atoms: CG   and  CD  
    4  A    between atoms: CD   and  CE  

>  <TORSDO>
F 17

>  <BEGIN_>
RES LYS A 131

$$$$
ligand_78_pose_2_2HRL.pdbqt
 OpenBabel07062320523D

  6  5  0  0  0  0  0  0  0  0999 V2000
   33.1930   34.6630    9.2900 C   0  0  0  0  0  0  0  0  0  0  0  0
   32.0600   35.3600   10.0340 C   0  0  0  0  0  0  0  0  0  0  0  0
   30.7230   34.6870    9.8620 C   0  0  0  0  0  0  0  0  0  0  0  0
   30.3640   34.5750    8.3880 C   0  0  0  0  0  0  0  0  0  0  0  0
   28.8600   34.6180    8.2010 C   0  0  0  0  0  0  0  0  0  0  0  0
   28.1610   33.9070    9.3070 N   0  0  0  0  0  0  0  0  0  0  0  0
  1  2  1  0  0  0  0
  3  2  1  0  0  0  0
  4  3  1  0  0  0  0
  5  4  1  0  0  0  0
  5  6  1  0  0  0  0
M  END
>  <EGIN_R>
ES LYS A 135

>  <REMARK>
  4 active torsions:
  status: ('A' for Active; 'I' for Inactive)
    5  A    between atoms: CA   and  CB  
    6  A    between atoms: CB   and  CG  
    7  A    between atoms: CG   and  CD  
    8  A    between atoms: CD   and  CE  

$$$$
