ligand_48_pose_4_2HRL.pdbqt
 OpenBabel07062320523D

 49 50  0  0  1  0  0  0  0  0999 V2000
   29.3680   32.0970   21.0350 C   0  0  0  0  0  0  0  0  0  0  0  0
   30.6670   31.7660   20.3160 C   0  0  2  0  0  0  0  0  0  0  0  0
   30.5890   30.3290   19.9020 C   0  0  1  0  0  0  0  0  0  0  0  0
   30.2760   29.3590   21.0200 C   0  0  2  0  0  0  0  0  0  0  0  0
   32.2250   28.8970   22.2580 C   0  0  2  0  0  0  0  0  0  0  0  0
   31.9590   27.4030   22.1830 C   0  0  0  0  0  0  0  0  0  0  0  0
   31.0520   29.5610   22.1280 O   0  0  0  0  0  0  0  0  0  0  0  0
   31.2750   27.0360   20.8920 C   0  0  1  0  0  0  0  0  0  0  0  0
   30.0990   27.9430   20.5950 C   0  0  1  0  0  0  0  0  0  0  0  0
   33.2280   29.2660   21.3640 O   0  0  0  0  0  0  0  0  0  0  0  0
   32.8330   29.2510   20.4360 H   0  0  0  0  0  0  0  0  0  0  0  0
   32.7300   29.1350   23.6380 C   0  0  0  0  0  0  0  0  0  0  0  0
   33.9260   28.8920   23.9170 O   0  0  0  0  0  0  0  0  0  0  0  0
   31.8880   29.6200   24.5960 O   0  0  0  0  0  0  0  0  0  0  0  0
   31.2570   29.0540   25.1490 H   0  0  0  0  0  0  0  0  0  0  0  0
   32.1800   27.0020   19.8390 O   0  0  0  0  0  0  0  0  0  0  0  0
   32.5680   27.8990   19.6960 H   0  0  0  0  0  0  0  0  0  0  0  0
   28.8900   27.3610   21.1820 N   0  0  0  0  0  0  0  0  0  0  0  0
   27.7240   27.2920   20.3900 C   0  0  0  0  0  0  0  0  0  0  0  0
   28.8730   27.0020   22.1560 H   0  0  0  0  0  0  0  0  0  0  0  0
   26.4420   26.7150   20.8990 C   0  0  0  0  0  0  0  0  0  0  0  0
   27.6860   27.7140   19.1910 O   0  0  0  0  0  0  0  0  0  0  0  0
   29.8870   30.1340   18.7420 O   0  0  0  0  0  0  0  0  0  0  0  0
   30.2890   29.4240   18.1480 H   0  0  0  0  0  0  0  0  0  0  0  0
   31.7070   32.0870   21.1550 O   0  0  0  0  0  0  0  0  0  0  0  0
   32.3470   32.6400   20.6820 H   0  0  0  0  0  0  0  0  0  0  0  0
   28.4060   32.5340   20.0500 N   0  0  0  0  0  0  0  0  0  0  0  0
   27.2420   31.8200   19.6720 C   0  0  0  0  0  0  0  0  0  0  0  0
   28.5400   33.4600   19.5390 H   0  0  0  0  0  0  0  0  0  0  0  0
   26.9940   30.7160   20.2130 O   0  0  0  0  0  0  0  0  0  0  0  0
   26.3650   32.3160   18.7120 O   0  0  0  0  0  0  0  0  0  0  0  0
   26.1210   31.5770   17.5430 C   0  0  0  0  0  0  0  0  0  0  0  0
   27.3960   31.4660   16.7870 C   0  0  0  0  0  0  0  0  0  0  0  0
   28.0910   32.5190   16.1780 C   0  0  0  0  0  0  0  0  0  0  0  0
   28.1510   30.3840   16.5170 N   0  0  0  0  0  0  0  0  0  0  0  0
   29.2000   32.0410   15.5870 N   0  0  0  0  0  0  0  0  0  0  0  0
   29.2080   30.7380   15.8090 N   0  0  0  0  0  0  0  0  0  0  0  0
   30.1920   32.8080   14.8460 C   0  0  0  0  0  0  0  0  0  0  0  0
   29.6770   34.2150   14.6390 C   0  0  0  0  0  0  0  0  0  0  0  0
   31.4770   32.8900   15.6400 C   0  0  0  0  0  0  0  0  0  0  0  0
   30.3580   35.2010   15.5700 C   0  0  0  0  0  0  0  0  0  0  0  0
   32.3680   33.8940   14.9290 C   0  0  0  0  0  0  0  0  0  0  0  0
   31.8270   35.2720   15.2540 C   0  0  0  0  0  0  0  0  0  0  0  0
   29.8670   25.5550   16.9770 C   0  0  0  0  0  0  0  0  0  0  0  0
   28.3450   25.7220   17.0260 C   0  0  0  0  0  0  0  0  0  0  0  0
   27.6020   24.3970   16.9450 C   0  0  0  0  0  0  0  0  0  0  0  0
   26.4920   24.3080   17.9540 C   0  0  0  0  0  0  0  0  0  0  0  0
   25.1660   24.6550   17.2850 C   0  0  0  0  0  0  0  0  0  0  0  0
   24.5900   25.8840   17.8810 N   0  0  0  0  0  0  0  0  0  0  0  0
  2  1  1  1  0  0  0
  2 25  1  0  0  0  0
  3 23  1  6  0  0  0
  3  2  1  0  0  0  0
  4  3  1  6  0  0  0
  4  7  1  0  0  0  0
  5 10  1  6  0  0  0
  5 12  1  0  0  0  0
  6  5  1  0  0  0  0
  7  5  1  0  0  0  0
  8 16  1  6  0  0  0
  8  6  1  0  0  0  0
  9  8  1  0  0  0  0
  9  4  1  0  0  0  0
  9 18  1  1  0  0  0
 11 10  1  0  0  0  0
 12 13  2  0  0  0  0
 12 14  1  0  0  0  0
 14 15  1  0  0  0  0
 17 16  1  0  0  0  0
 18 20  1  0  0  0  0
 19 21  1  0  0  0  0
 19 18  1  0  0  0  0
 22 19  2  0  0  0  0
 24 23  1  0  0  0  0
 26 25  1  0  0  0  0
 27  1  1  0  0  0  0
 28 27  1  0  0  0  0
 28 30  2  0  0  0  0
 29 27  1  0  0  0  0
 31 28  1  0  0  0  0
 32 31  1  0  0  0  0
 33 32  1  0  0  0  0
 34 33  2  0  0  0  0
 35 33  1  0  0  0  0
 36 37  1  0  0  0  0
 36 34  1  0  0  0  0
 37 35  2  0  0  0  0
 38 36  1  0  0  0  0
 38 40  1  0  0  0  0
 39 38  1  0  0  0  0
 39 41  1  0  0  0  0
 42 43  1  0  0  0  0
 42 40  1  0  0  0  0
 43 41  1  0  0  0  0
 44 45  1  0  0  0  0
 46 45  1  0  0  0  0
 46 47  1  0  0  0  0
 48 49  1  0  0  0  0
 48 47  1  0  0  0  0
M  END
>  <REMARK>
 VINA RESULT:    -5.070      1.824      3.090
 INTER + INTRA:         -14.570
 INTER:                  -8.646
 INTRA:                  -5.924
 UNBOUND:                -5.796
 SMILES CC(=O)N[C@@H]1[C@@H](O)C[C@](O)(C(=O)O)O[C@H]1C(O)[C@H](O)CNC(=O)OCc1cn(C2CCCCC2)nn1
 SMILES IDX 20 1 18 2 16 3 15 4 9 5 8 6 14 7 6 8 5 9 10 10 11 12 12 13
 SMILES IDX 13 14 7 16 4 18 2 19 1 21 3 22 17 23 19 25 21 27 22 28 23 30
 SMILES IDX 24 31 25 32 26 33 27 34 36 35 28 36 35 37 29 38 30 39 34 40
 SMILES IDX 31 41 33 42 32 43
 H PARENT 10 11 13 15 7 17 4 20 17 24 19 26 21 29
 Flexibility Score: inf
  4 active torsions:
  status: ('A' for Active; 'I' for Inactive)
    1  A    between atoms: CA   and  CB  
    2  A    between atoms: CB   and  CG  
    3  A    between atoms: CG   and  CD  
    4  A    between atoms: CD   and  CE  

>  <TORSDO>
F 15

>  <BEGIN_>
RES LYS A 131

$$$$
ligand_48_pose_4_2HRL.pdbqt
 OpenBabel07062320523D

  6  5  0  0  0  0  0  0  0  0999 V2000
   33.1930   34.6630    9.2900 C   0  0  0  0  0  0  0  0  0  0  0  0
   32.0600   35.3600   10.0340 C   0  0  0  0  0  0  0  0  0  0  0  0
   30.7170   34.7040    9.8380 C   0  0  0  0  0  0  0  0  0  0  0  0
   30.2230   34.9080    8.4140 C   0  0  0  0  0  0  0  0  0  0  0  0
   28.7730   34.4820    8.2880 C   0  0  0  0  0  0  0  0  0  0  0  0
   28.2960   33.8260    9.5370 N   0  0  0  0  0  0  0  0  0  0  0  0
  1  2  1  0  0  0  0
  3  2  1  0  0  0  0
  4  3  1  0  0  0  0
  5  4  1  0  0  0  0
  5  6  1  0  0  0  0
M  END
>  <EGIN_R>
ES LYS A 135

>  <REMARK>
  4 active torsions:
  status: ('A' for Active; 'I' for Inactive)
    5  A    between atoms: CA   and  CB  
    6  A    between atoms: CB   and  CG  
    7  A    between atoms: CG   and  CD  
    8  A    between atoms: CD   and  CE  

$$$$
