ligand_68_pose_9_2HRL.pdbqt
 OpenBabel07062320523D

 53 54  0  0  1  0  0  0  0  0999 V2000
   25.0520   33.8710   16.5470 N   0  0  0  0  0  0  0  0  0  0  0  0
   25.0190   35.2600   16.2680 C   0  0  0  0  0  0  0  0  0  0  0  0
   26.0510   35.9400   16.4680 O   0  0  0  0  0  0  0  0  0  0  0  0
   24.1340   33.3660   16.3460 H   0  0  0  0  0  0  0  0  0  0  0  0
   26.1990   33.1570   17.0560 C   0  0  0  0  0  0  0  0  0  0  0  0
   26.8220   32.2550   16.0110 C   0  0  2  0  0  0  0  0  0  0  0  0
   28.0920   32.8960   15.4500 C   0  0  2  0  0  0  0  0  0  0  0  0
   28.9460   33.5680   16.4930 C   0  0  2  0  0  0  0  0  0  0  0  0
   30.9140   33.5380   15.2270 C   0  0  2  0  0  0  0  0  0  0  0  0
   31.0850   32.1200   15.5970 C   0  0  0  0  0  0  0  0  0  0  0  0
   29.9530   34.2740   15.8310 O   0  0  0  0  0  0  0  0  0  0  0  0
   30.4980   31.6710   16.8990 C   0  0  1  0  0  0  0  0  0  0  0  0
   29.4840   32.6250   17.4820 C   0  0  1  0  0  0  0  0  0  0  0  0
   30.5870   33.5450   13.8370 O   0  0  0  0  0  0  0  0  0  0  0  0
   31.3790   33.9150   13.3900 H   0  0  0  0  0  0  0  0  0  0  0  0
   32.2650   34.2130   15.2830 C   0  0  0  0  0  0  0  0  0  0  0  0
   32.6410   34.8710   16.2800 O   0  0  0  0  0  0  0  0  0  0  0  0
   33.1320   34.1100   14.1990 O   0  0  0  0  0  0  0  0  0  0  0  0
   32.9050   33.6220   13.3470 H   0  0  0  0  0  0  0  0  0  0  0  0
   29.9200   30.3800   16.7370 O   0  0  0  0  0  0  0  0  0  0  0  0
   29.7320   30.0460   17.6350 H   0  0  0  0  0  0  0  0  0  0  0  0
   30.1430   33.2620   18.6110 N   0  0  0  0  0  0  0  0  0  0  0  0
   29.5710   33.3750   19.9020 C   0  0  0  0  0  0  0  0  0  0  0  0
   31.0930   33.6450   18.4150 H   0  0  0  0  0  0  0  0  0  0  0  0
   30.2710   34.0310   21.0330 C   0  0  0  0  0  0  0  0  0  0  0  0
   28.4210   32.8810   20.0380 O   0  0  0  0  0  0  0  0  0  0  0  0
   27.5430   33.9680   14.6470 O   0  0  0  0  0  0  0  0  0  0  0  0
   26.7590   34.3540   15.0670 H   0  0  0  0  0  0  0  0  0  0  0  0
   25.8830   31.9740   15.0460 O   0  0  0  0  0  0  0  0  0  0  0  0
   26.0020   31.0340   14.7740 H   0  0  0  0  0  0  0  0  0  0  0  0
   23.8930   35.9080   15.7820 O   0  0  0  0  0  0  0  0  0  0  0  0
   23.1980   35.4660   14.6320 C   0  0  0  0  0  0  0  0  0  0  0  0
   24.1820   35.0360   13.6180 C   0  0  0  0  0  0  0  0  0  0  0  0
   24.8660   35.8580   12.7370 C   0  0  0  0  0  0  0  0  0  0  0  0
   24.6250   33.7900   13.3270 N   0  0  0  0  0  0  0  0  0  0  0  0
   25.6760   35.1130   11.9640 N   0  0  0  0  0  0  0  0  0  0  0  0
   25.5070   33.8700   12.3440 N   0  0  0  0  0  0  0  0  0  0  0  0
   26.5610   35.6320   10.9120 C   0  0  0  0  0  0  0  0  0  0  0  0
   26.5700   34.6590    9.7590 C   0  0  1  0  0  0  0  0  0  0  0  0
   25.6500   35.1480    8.8030 O   0  0  0  0  0  0  0  0  0  0  0  0
   25.3820   36.0730    9.0570 H   0  0  0  0  0  0  0  0  0  0  0  0
   27.9050   34.6410    9.1300 C   0  0  0  0  0  0  0  0  0  0  0  0
   29.0090   34.0840    9.7430 C   0  0  0  0  0  0  0  0  0  0  0  0
   28.0620   35.2100    7.8590 C   0  0  0  0  0  0  0  0  0  0  0  0
   30.2430   34.0760    9.1400 C   0  0  0  0  0  0  0  0  0  0  0  0
   29.2880   35.2030    7.2580 C   0  0  0  0  0  0  0  0  0  0  0  0
   30.3710   34.6400    7.8930 C   0  0  0  0  0  0  0  0  0  0  0  0
   29.8670   25.5550   16.9770 C   0  0  0  0  0  0  0  0  0  0  0  0
   28.3450   25.7220   17.0260 C   0  0  0  0  0  0  0  0  0  0  0  0
   27.6010   24.4010   16.9060 C   0  0  0  0  0  0  0  0  0  0  0  0
   26.1780   24.5070   17.3770 C   0  0  0  0  0  0  0  0  0  0  0  0
   26.1040   25.4620   18.5640 C   0  0  0  0  0  0  0  0  0  0  0  0
   25.4800   24.7940   19.7300 N   0  0  0  0  0  0  0  0  0  0  0  0
  1  5  1  0  0  0  0
  2  3  2  0  0  0  0
  2  1  1  0  0  0  0
  4  1  1  0  0  0  0
  6  5  1  1  0  0  0
  7 27  1  6  0  0  0
  7  6  1  0  0  0  0
  8  7  1  6  0  0  0
  8 13  1  0  0  0  0
  9 14  1  6  0  0  0
  9 16  1  0  0  0  0
  9 10  1  0  0  0  0
  9 11  1  0  0  0  0
 10 12  1  0  0  0  0
 11  8  1  0  0  0  0
 12 20  1  6  0  0  0
 12 13  1  0  0  0  0
 13 22  1  1  0  0  0
 15 14  1  0  0  0  0
 16 17  2  0  0  0  0
 18 16  1  0  0  0  0
 19 18  1  0  0  0  0
 20 21  1  0  0  0  0
 22 23  1  0  0  0  0
 23 26  2  0  0  0  0
 23 25  1  0  0  0  0
 24 22  1  0  0  0  0
 27 28  1  0  0  0  0
 29  6  1  0  0  0  0
 30 29  1  0  0  0  0
 31  2  1  0  0  0  0
 32 31  1  0  0  0  0
 33 32  1  0  0  0  0
 34 33  2  0  0  0  0
 35 33  1  0  0  0  0
 36 37  1  0  0  0  0
 36 34  1  0  0  0  0
 37 35  2  0  0  0  0
 38 36  1  0  0  0  0
 39 38  1  1  0  0  0
 40 41  1  0  0  0  0
 40 39  1  0  0  0  0
 42 43  2  0  0  0  0
 42 39  1  0  0  0  0
 44 42  1  0  0  0  0
 45 43  1  0  0  0  0
 46 44  2  0  0  0  0
 46 47  1  0  0  0  0
 47 45  2  0  0  0  0
 48 49  1  0  0  0  0
 50 49  1  0  0  0  0
 50 51  1  0  0  0  0
 51 52  1  0  0  0  0
 52 53  1  0  0  0  0
M  END
>  <REMARK>
 VINA RESULT:    -5.505      4.295      7.107
 INTER + INTRA:         -15.343
 INTER:                 -10.529
 INTRA:                  -4.814
 UNBOUND:                -5.012
 SMILES CC(=O)N[C@@H]1[C@@H](O)C[C@](O)(C(=O)O)O[C@H]1C(O)[C@H](O)CNC(=O)OCc1cn(CC(O)c2ccccc2)nn1
 SMILES IDX 21 1 22 2 23 3 20 5 18 6 16 7 15 8 9 9 8 10 14 11 6 12 5 13
 SMILES IDX 10 14 11 16 12 17 13 18 7 20 4 22 2 23 1 25 3 26 17 27 19 29
 SMILES IDX 24 31 25 32 26 33 27 34 39 35 28 36 38 37 29 38 30 39 31 40
 SMILES IDX 32 42 33 43 37 44 34 45 36 46 35 47
 H PARENT 21 4 10 15 13 19 7 21 4 24 17 28 19 30 31 41
 Flexibility Score: inf
  4 active torsions:
  status: ('A' for Active; 'I' for Inactive)
    1  A    between atoms: CA   and  CB  
    2  A    between atoms: CB   and  CG  
    3  A    between atoms: CG   and  CD  
    4  A    between atoms: CD   and  CE  

>  <TORSDO>
F 18

>  <BEGIN_>
RES LYS A 131

$$$$
ligand_68_pose_9_2HRL.pdbqt
 OpenBabel07062320523D

  6  5  0  0  0  0  0  0  0  0999 V2000
   33.1930   34.6630    9.2900 C   0  0  0  0  0  0  0  0  0  0  0  0
   32.0600   35.3600   10.0340 C   0  0  0  0  0  0  0  0  0  0  0  0
   32.5000   36.0320   11.3090 C   0  0  0  0  0  0  0  0  0  0  0  0
   31.5790   37.1930   11.6490 C   0  0  0  0  0  0  0  0  0  0  0  0
   30.2430   36.6830   12.1550 C   0  0  0  0  0  0  0  0  0  0  0  0
   30.0880   36.9400   13.6140 N   0  0  0  0  0  0  0  0  0  0  0  0
  1  2  1  0  0  0  0
  2  3  1  0  0  0  0
  3  4  1  0  0  0  0
  4  5  1  0  0  0  0
  5  6  1  0  0  0  0
M  END
>  <EGIN_R>
ES LYS A 135

>  <REMARK>
  4 active torsions:
  status: ('A' for Active; 'I' for Inactive)
    5  A    between atoms: CA   and  CB  
    6  A    between atoms: CB   and  CG  
    7  A    between atoms: CG   and  CD  
    8  A    between atoms: CD   and  CE  

$$$$
