ligand_26_pose_9_2HRL.pdbqt
 OpenBabel07062320523D

 54 55  0  0  1  0  0  0  0  0999 V2000
   30.5130   37.1360   12.2810 N   0  0  0  0  0  0  0  0  0  0  0  0
   29.7870   38.2490   12.7940 C   0  0  0  0  0  0  0  0  0  0  0  0
   30.3300   38.9730   13.6490 O   0  0  0  0  0  0  0  0  0  0  0  0
   29.9820   36.5670   11.5530 H   0  0  0  0  0  0  0  0  0  0  0  0
   31.8550   36.7770   12.6860 C   0  0  0  0  0  0  0  0  0  0  0  0
   32.0060   35.2850   12.8790 C   0  0  2  0  0  0  0  0  0  0  0  0
   31.7510   34.8730   14.3140 C   0  0  1  0  0  0  0  0  0  0  0  0
   30.3450   34.4100   14.5500 C   0  0  2  0  0  0  0  0  0  0  0  0
   29.3480   36.0550   15.8720 C   0  0  2  0  0  0  0  0  0  0  0  0
   29.3000   35.1480   17.0760 C   0  0  0  0  0  0  0  0  0  0  0  0
   29.4360   35.4270   14.6660 O   0  0  0  0  0  0  0  0  0  0  0  0
   30.3440   34.0730   17.0440 C   0  0  1  0  0  0  0  0  0  0  0  0
   30.2580   33.4080   15.6880 C   0  0  1  0  0  0  0  0  0  0  0  0
   30.3370   37.0440   16.0740 O   0  0  0  0  0  0  0  0  0  0  0  0
   29.9900   37.8220   16.5510 H   0  0  0  0  0  0  0  0  0  0  0  0
   28.0360   36.8000   15.8760 C   0  0  0  0  0  0  0  0  0  0  0  0
   26.9540   36.2800   16.1810 O   0  0  0  0  0  0  0  0  0  0  0  0
   28.1280   38.1520   15.5060 O   0  0  0  0  0  0  0  0  0  0  0  0
   27.4120   38.5830   14.9410 H   0  0  0  0  0  0  0  0  0  0  0  0
   31.6060   34.5330   17.3340 O   0  0  0  0  0  0  0  0  0  0  0  0
   32.0770   33.8830   17.9090 H   0  0  0  0  0  0  0  0  0  0  0  0
   28.9000   32.8440   15.6150 N   0  0  0  0  0  0  0  0  0  0  0  0
   28.7190   31.4510   15.8390 C   0  0  0  0  0  0  0  0  0  0  0  0
   28.0700   33.4290   15.4040 H   0  0  0  0  0  0  0  0  0  0  0  0
   27.3420   30.8980   15.7630 C   0  0  0  0  0  0  0  0  0  0  0  0
   29.7190   30.7450   16.0930 O   0  0  0  0  0  0  0  0  0  0  0  0
   32.6740   33.8690   14.6130 O   0  0  0  0  0  0  0  0  0  0  0  0
   32.1800   33.0710   14.9670 H   0  0  0  0  0  0  0  0  0  0  0  0
   33.3090   34.9090   12.4920 O   0  0  0  0  0  0  0  0  0  0  0  0
   33.9410   34.9370   13.2530 H   0  0  0  0  0  0  0  0  0  0  0  0
   28.5100   38.5580   12.3840 O   0  0  0  0  0  0  0  0  0  0  0  0
   27.9520   38.2470   11.1270 C   0  0  0  0  0  0  0  0  0  0  0  0
   26.9220   37.2060   11.1570 C   0  0  0  0  0  0  0  0  0  0  0  0
   26.9120   36.0870   12.0000 C   0  0  0  0  0  0  0  0  0  0  0  0
   25.7920   37.0910   10.4110 N   0  0  0  0  0  0  0  0  0  0  0  0
   25.8290   35.3810   11.7390 N   0  0  0  0  0  0  0  0  0  0  0  0
   25.1740   35.9900   10.7940 N   0  0  0  0  0  0  0  0  0  0  0  0
   25.4460   34.1080   12.4280 C   0  0  1  0  0  0  0  0  0  0  0  0
   26.2380   34.1300   13.7090 C   0  0  0  0  0  0  0  0  0  0  0  0
   24.0060   34.1610   12.6390 C   0  0  0  0  0  0  0  0  0  0  0  0
   23.3290   33.1090   13.3300 C   0  0  2  0  0  0  0  0  0  0  0  0
   22.8210   33.5140   14.4980 O   0  0  0  0  0  0  0  0  0  0  0  0
   23.0780   31.7300   13.0520 C   0  0  0  0  0  0  0  0  0  0  0  0
   21.7720   31.3470   12.6590 C   0  0  0  0  0  0  0  0  0  0  0  0
   24.0070   30.7210   13.1130 C   0  0  0  0  0  0  0  0  0  0  0  0
   21.4660   30.0430   12.3610 C   0  0  0  0  0  0  0  0  0  0  0  0
   23.6620   29.4120   12.8040 C   0  0  0  0  0  0  0  0  0  0  0  0
   22.4100   29.0490   12.4300 C   0  0  0  0  0  0  0  0  0  0  0  0
   29.8670   25.5550   16.9770 C   0  0  0  0  0  0  0  0  0  0  0  0
   28.3450   25.7220   17.0260 C   0  0  0  0  0  0  0  0  0  0  0  0
   27.6020   24.4000   16.9150 C   0  0  0  0  0  0  0  0  0  0  0  0
   26.5250   24.2660   17.9560 C   0  0  0  0  0  0  0  0  0  0  0  0
   25.1830   24.0220   17.2730 C   0  0  0  0  0  0  0  0  0  0  0  0
   24.2110   25.0760   17.6470 N   0  0  0  0  0  0  0  0  0  0  0  0
  1  5  1  0  0  0  0
  1  2  1  0  0  0  0
  2  3  2  0  0  0  0
  4  1  1  0  0  0  0
  6  5  1  1  0  0  0
  6  7  1  0  0  0  0
  7 27  1  6  0  0  0
  8  7  1  1  0  0  0
  8 11  1  0  0  0  0
  8 13  1  0  0  0  0
  9 16  1  6  0  0  0
  9 14  1  0  0  0  0
  9 10  1  0  0  0  0
 11  9  1  0  0  0  0
 12 10  1  0  0  0  0
 12 20  1  6  0  0  0
 13 22  1  1  0  0  0
 13 12  1  0  0  0  0
 14 15  1  0  0  0  0
 16 17  2  0  0  0  0
 18 16  1  0  0  0  0
 19 18  1  0  0  0  0
 20 21  1  0  0  0  0
 22 23  1  0  0  0  0
 23 26  2  0  0  0  0
 24 22  1  0  0  0  0
 25 23  1  0  0  0  0
 27 28  1  0  0  0  0
 29  6  1  0  0  0  0
 29 30  1  0  0  0  0
 31  2  1  0  0  0  0
 32 33  1  0  0  0  0
 32 31  1  0  0  0  0
 33 34  2  0  0  0  0
 35 37  2  0  0  0  0
 35 33  1  0  0  0  0
 36 34  1  0  0  0  0
 36 38  1  0  0  0  0
 37 36  1  0  0  0  0
 38 40  1  0  0  0  0
 38 39  1  1  0  0  0
 40 41  1  0  0  0  0
 41 42  1  1  0  0  0
 43 45  1  0  0  0  0
 43 41  1  0  0  0  0
 44 43  2  0  0  0  0
 46 48  2  0  0  0  0
 46 44  1  0  0  0  0
 47 45  2  0  0  0  0
 48 47  1  0  0  0  0
 49 50  1  0  0  0  0
 51 50  1  0  0  0  0
 51 52  1  0  0  0  0
 53 54  1  0  0  0  0
 53 52  1  0  0  0  0
M  END
>  <REMARK>
 VINA RESULT:    -4.750      4.411      8.938
 INTER + INTRA:         -15.989
 INTER:                  -9.389
 INTRA:                  -6.600
 UNBOUND:                -6.934
 SMILES CC(=O)N[C@@H]1[C@@H](O)C[C@](O)(C(=O)O)O[C@H]1C(O)[C@H](O)CNC(=O)OCc1cn(C(C)CC(=O)c2ccccc2)nn1
 SMILES IDX 21 1 22 2 23 3 20 5 18 6 16 7 15 8 9 9 8 10 14 11 6 12 5 13
 SMILES IDX 10 14 11 16 12 17 13 18 7 20 4 22 2 23 1 25 3 26 17 27 19 29
 SMILES IDX 24 31 25 32 26 33 27 34 41 35 28 36 40 37 29 38 30 39 31 40
 SMILES IDX 32 41 33 42 34 43 35 44 39 45 36 46 38 47 37 48
 H PARENT 21 4 10 15 13 19 7 21 4 24 17 28 19 30
 Flexibility Score: inf
  4 active torsions:
  status: ('A' for Active; 'I' for Inactive)
    1  A    between atoms: CA   and  CB  
    2  A    between atoms: CB   and  CG  
    3  A    between atoms: CG   and  CD  
    4  A    between atoms: CD   and  CE  

>  <TORSDO>
F 18

>  <BEGIN_>
RES LYS A 131

$$$$
ligand_26_pose_9_2HRL.pdbqt
 OpenBabel07062320523D

  6  5  0  0  0  0  0  0  0  0999 V2000
   33.1930   34.6630    9.2900 C   0  0  0  0  0  0  0  0  0  0  0  0
   32.0600   35.3600   10.0340 C   0  0  0  0  0  0  0  0  0  0  0  0
   30.8030   35.5060    9.2160 C   0  0  0  0  0  0  0  0  0  0  0  0
   29.9530   34.2480    9.3090 C   0  0  0  0  0  0  0  0  0  0  0  0
   28.5970   34.4730    8.6690 C   0  0  0  0  0  0  0  0  0  0  0  0
   27.5390   33.6870    9.3620 N   0  0  0  0  0  0  0  0  0  0  0  0
  1  2  1  0  0  0  0
  3  4  1  0  0  0  0
  3  2  1  0  0  0  0
  5  4  1  0  0  0  0
  5  6  1  0  0  0  0
M  END
>  <EGIN_R>
ES LYS A 135

>  <REMARK>
  4 active torsions:
  status: ('A' for Active; 'I' for Inactive)
    5  A    between atoms: CA   and  CB  
    6  A    between atoms: CB   and  CG  
    7  A    between atoms: CG   and  CD  
    8  A    between atoms: CD   and  CE  

$$$$
