ligand_16_pose_4_2HRL.pdbqt
 OpenBabel07062320523D

 54 55  0  0  1  0  0  0  0  0999 V2000
   27.3540   36.0600   15.2930 N   0  0  0  0  0  0  0  0  0  0  0  0
   27.0140   36.1680   13.9350 C   0  0  0  0  0  0  0  0  0  0  0  0
   26.0390   35.5400   13.4880 O   0  0  0  0  0  0  0  0  0  0  0  0
   28.2040   36.6260   15.5950 H   0  0  0  0  0  0  0  0  0  0  0  0
   26.6310   35.2540   16.2410 C   0  0  0  0  0  0  0  0  0  0  0  0
   27.5130   34.1340   16.7260 C   0  0  2  0  0  0  0  0  0  0  0  0
   27.3740   32.8650   15.9470 C   0  0  1  0  0  0  0  0  0  0  0  0
   26.5620   31.8330   16.7500 C   0  0  2  0  0  0  0  0  0  0  0  0
   26.7930   29.6780   17.5570 C   0  0  2  0  0  0  0  0  0  0  0  0
   25.7910   29.0840   16.5770 C   0  0  0  0  0  0  0  0  0  0  0  0
   27.3870   30.7420   16.9210 O   0  0  0  0  0  0  0  0  0  0  0  0
   24.7940   30.1170   16.1620 C   0  0  1  0  0  0  0  0  0  0  0  0
   25.3910   31.4740   15.9080 C   0  0  1  0  0  0  0  0  0  0  0  0
   27.7850   28.6640   17.6870 O   0  0  0  0  0  0  0  0  0  0  0  0
   28.5950   28.9650   17.1670 H   0  0  0  0  0  0  0  0  0  0  0  0
   26.1880   29.9530   18.8630 C   0  0  0  0  0  0  0  0  0  0  0  0
   26.8350   30.6660   19.7040 O   0  0  0  0  0  0  0  0  0  0  0  0
   24.9580   29.5160   19.3090 O   0  0  0  0  0  0  0  0  0  0  0  0
   24.7310   29.6900   20.2790 H   0  0  0  0  0  0  0  0  0  0  0  0
   24.2400   29.6770   14.9370 O   0  0  0  0  0  0  0  0  0  0  0  0
   23.5050   29.0620   15.1810 H   0  0  0  0  0  0  0  0  0  0  0  0
   24.3400   32.4710   15.9290 N   0  0  0  0  0  0  0  0  0  0  0  0
   23.7400   32.9560   14.7410 C   0  0  0  0  0  0  0  0  0  0  0  0
   23.9910   32.8620   16.8300 H   0  0  0  0  0  0  0  0  0  0  0  0
   22.6470   33.9940   14.7860 C   0  0  0  0  0  0  0  0  0  0  0  0
   24.1320   32.5090   13.6460 O   0  0  0  0  0  0  0  0  0  0  0  0
   26.8810   33.0180   14.6740 O   0  0  0  0  0  0  0  0  0  0  0  0
   26.8640   32.1420   14.2100 H   0  0  0  0  0  0  0  0  0  0  0  0
   27.3380   33.8740   18.0920 O   0  0  0  0  0  0  0  0  0  0  0  0
   26.9030   32.9800   18.1980 H   0  0  0  0  0  0  0  0  0  0  0  0
   27.7170   36.9550   13.0320 O   0  0  0  0  0  0  0  0  0  0  0  0
   28.7110   36.4630   12.1680 C   0  0  0  0  0  0  0  0  0  0  0  0
   29.9980   36.3640   12.8870 C   0  0  0  0  0  0  0  0  0  0  0  0
   30.6500   35.1750   13.2180 C   0  0  0  0  0  0  0  0  0  0  0  0
   30.8000   37.3320   13.3720 N   0  0  0  0  0  0  0  0  0  0  0  0
   31.7820   35.4690   13.8690 N   0  0  0  0  0  0  0  0  0  0  0  0
   31.8500   36.7760   13.9490 N   0  0  0  0  0  0  0  0  0  0  0  0
   32.7580   34.5070   14.4030 C   0  0  0  0  0  0  0  0  0  0  0  0
   32.0420   33.7880   15.5060 C   0  0  0  0  0  0  0  0  0  0  0  0
   31.9170   34.3890   16.7270 C   0  0  0  0  0  0  0  0  0  0  0  0
   31.5110   32.5360   15.3240 C   0  0  0  0  0  0  0  0  0  0  0  0
   31.2590   33.7430   17.7780 C   0  0  0  0  0  0  0  0  0  0  0  0
   30.8560   31.8920   16.3690 C   0  0  0  0  0  0  0  0  0  0  0  0
   30.7240   32.4890   17.6070 C   0  0  0  0  0  0  0  0  0  0  0  0
   30.0340   31.8060   18.6930 C   0  0  0  0  0  0  0  0  0  0  0  0
   29.5650   32.4040   19.6860 O   0  0  0  0  0  0  0  0  0  0  0  0
   29.8800   30.4250   18.6380 O   0  0  0  0  0  0  0  0  0  0  0  0
   30.4870   29.8100   19.1510 H   0  0  0  0  0  0  0  0  0  0  0  0
   29.8670   25.5550   16.9770 C   0  0  0  0  0  0  0  0  0  0  0  0
   28.3450   25.7220   17.0260 C   0  0  0  0  0  0  0  0  0  0  0  0
   27.6020   24.4000   16.9130 C   0  0  0  0  0  0  0  0  0  0  0  0
   26.3930   24.3520   17.8060 C   0  0  0  0  0  0  0  0  0  0  0  0
   26.2600   25.6740   18.5540 C   0  0  0  0  0  0  0  0  0  0  0  0
   24.8450   26.1140   18.5820 N   0  0  0  0  0  0  0  0  0  0  0  0
  1  4  1  0  0  0  0
  1  5  1  0  0  0  0
  2  1  1  0  0  0  0
  3  2  2  0  0  0  0
  6  5  1  6  0  0  0
  6 29  1  0  0  0  0
  7 27  1  6  0  0  0
  7  6  1  0  0  0  0
  8  7  1  6  0  0  0
  8 11  1  0  0  0  0
  9 14  1  1  0  0  0
  9 16  1  0  0  0  0
 10  9  1  0  0  0  0
 11  9  1  0  0  0  0
 12 20  1  6  0  0  0
 12 10  1  0  0  0  0
 13 22  1  1  0  0  0
 13 12  1  0  0  0  0
 13  8  1  0  0  0  0
 15 14  1  0  0  0  0
 16 18  1  0  0  0  0
 16 17  2  0  0  0  0
 18 19  1  0  0  0  0
 20 21  1  0  0  0  0
 22 24  1  0  0  0  0
 23 25  1  0  0  0  0
 23 22  1  0  0  0  0
 26 23  2  0  0  0  0
 28 27  1  0  0  0  0
 29 30  1  0  0  0  0
 31  2  1  0  0  0  0
 32 33  1  0  0  0  0
 32 31  1  0  0  0  0
 33 34  2  0  0  0  0
 33 35  1  0  0  0  0
 34 36  1  0  0  0  0
 35 37  2  0  0  0  0
 36 37  1  0  0  0  0
 36 38  1  0  0  0  0
 38 39  1  0  0  0  0
 39 40  1  0  0  0  0
 40 42  2  0  0  0  0
 41 39  2  0  0  0  0
 41 43  1  0  0  0  0
 43 44  2  0  0  0  0
 44 42  1  0  0  0  0
 44 45  1  0  0  0  0
 45 46  2  0  0  0  0
 47 45  1  0  0  0  0
 47 48  1  0  0  0  0
 49 50  1  0  0  0  0
 51 50  1  0  0  0  0
 51 52  1  0  0  0  0
 52 53  1  0  0  0  0
 53 54  1  0  0  0  0
M  END
>  <REMARK>
 VINA RESULT:    -6.056      3.518      6.691
 INTER + INTRA:         -15.360
 INTER:                  -8.099
 INTRA:                  -7.261
 UNBOUND:                -3.993
 SMILES CC(=O)N[C@@H]1[C@@H](O)C[C@](O)(C(=O)O)O[C@H]1C(O)[C@H](O)CNC(=O)OCc1cn(Cc2ccc(C(=O)O)cc2)nn1
 SMILES IDX 21 1 22 2 23 3 20 5 18 6 16 7 15 8 9 9 8 10 14 11 6 12 5 13
 SMILES IDX 10 14 11 16 12 17 13 18 7 20 4 22 2 23 1 25 3 26 17 27 19 29
 SMILES IDX 24 31 25 32 26 33 27 34 40 35 28 36 39 37 29 38 30 39 31 40
 SMILES IDX 38 41 32 42 37 43 33 44 34 45 35 46 36 47
 H PARENT 21 4 10 15 13 19 7 21 4 24 17 28 19 30 36 48
 Flexibility Score: inf
  4 active torsions:
  status: ('A' for Active; 'I' for Inactive)
    1  A    between atoms: CA   and  CB  
    2  A    between atoms: CB   and  CG  
    3  A    between atoms: CG   and  CD  
    4  A    between atoms: CD   and  CE  

>  <TORSDO>
F 18

>  <BEGIN_>
RES LYS A 131

$$$$
ligand_16_pose_4_2HRL.pdbqt
 OpenBabel07062320523D

  6  5  0  0  0  0  0  0  0  0999 V2000
   33.1930   34.6630    9.2900 C   0  0  0  0  0  0  0  0  0  0  0  0
   32.0600   35.3600   10.0340 C   0  0  0  0  0  0  0  0  0  0  0  0
   30.8000   35.5000    9.2190 C   0  0  0  0  0  0  0  0  0  0  0  0
   30.1230   34.1500    9.0400 C   0  0  0  0  0  0  0  0  0  0  0  0
   28.6650   34.3310    8.6630 C   0  0  0  0  0  0  0  0  0  0  0  0
   27.7680   33.7360    9.6910 N   0  0  0  0  0  0  0  0  0  0  0  0
  1  2  1  0  0  0  0
  3  2  1  0  0  0  0
  4  3  1  0  0  0  0
  5  4  1  0  0  0  0
  5  6  1  0  0  0  0
M  END
>  <EGIN_R>
ES LYS A 135

>  <REMARK>
  4 active torsions:
  status: ('A' for Active; 'I' for Inactive)
    5  A    between atoms: CA   and  CB  
    6  A    between atoms: CB   and  CG  
    7  A    between atoms: CG   and  CD  
    8  A    between atoms: CD   and  CE  

$$$$
