ligand_18_pose_1_2HRL.pdbqt
 OpenBabel07062320523D

 54 55  0  0  1  0  0  0  0  0999 V2000
   28.0110   27.9130   18.6730 N   0  0  0  0  0  0  0  0  0  0  0  0
   26.9370   28.0950   17.7770 C   0  0  0  0  0  0  0  0  0  0  0  0
   25.8100   27.6430   18.0960 O   0  0  0  0  0  0  0  0  0  0  0  0
   28.9390   28.2960   18.3870 H   0  0  0  0  0  0  0  0  0  0  0  0
   27.9230   27.2410   19.9540 C   0  0  0  0  0  0  0  0  0  0  0  0
   29.1000   27.5820   20.8230 C   0  0  2  0  0  0  0  0  0  0  0  0
   29.2550   29.0350   21.1210 C   0  0  1  0  0  0  0  0  0  0  0  0
   30.6270   29.5780   21.2540 C   0  0  2  0  0  0  0  0  0  0  0  0
   32.4440   29.3120   22.7040 C   0  0  2  0  0  0  0  0  0  0  0  0
   33.1210   30.0870   21.5880 C   0  0  0  0  0  0  0  0  0  0  0  0
   31.1590   28.9490   22.4280 O   0  0  0  0  0  0  0  0  0  0  0  0
   32.3180   31.3130   21.3280 C   0  0  1  0  0  0  0  0  0  0  0  0
   30.8120   31.0230   21.4850 C   0  0  1  0  0  0  0  0  0  0  0  0
   32.5380   30.1400   23.8390 O   0  0  0  0  0  0  0  0  0  0  0  0
   33.4880   30.4250   23.9420 H   0  0  0  0  0  0  0  0  0  0  0  0
   33.2020   28.0690   23.0040 C   0  0  0  0  0  0  0  0  0  0  0  0
   34.0890   28.0990   23.8820 O   0  0  0  0  0  0  0  0  0  0  0  0
   32.9530   26.8740   22.3370 O   0  0  0  0  0  0  0  0  0  0  0  0
   32.7830   26.9480   21.3330 H   0  0  0  0  0  0  0  0  0  0  0  0
   32.6900   32.3990   22.0890 O   0  0  0  0  0  0  0  0  0  0  0  0
   32.6040   32.2070   23.0570 H   0  0  0  0  0  0  0  0  0  0  0  0
   30.1580   31.9460   20.6340 N   0  0  0  0  0  0  0  0  0  0  0  0
   29.6560   33.1580   21.1520 C   0  0  0  0  0  0  0  0  0  0  0  0
   30.0320   31.7640   19.6290 H   0  0  0  0  0  0  0  0  0  0  0  0
   28.9570   34.1640   20.2940 C   0  0  0  0  0  0  0  0  0  0  0  0
   29.7650   33.4730   22.3850 O   0  0  0  0  0  0  0  0  0  0  0  0
   28.3210   29.8670   20.5220 O   0  0  0  0  0  0  0  0  0  0  0  0
   27.9470   30.5400   21.1040 H   0  0  0  0  0  0  0  0  0  0  0  0
   30.2870   26.9680   20.4450 O   0  0  0  0  0  0  0  0  0  0  0  0
   30.2350   26.5310   19.5640 H   0  0  0  0  0  0  0  0  0  0  0  0
   27.0830   28.7590   16.5510 O   0  0  0  0  0  0  0  0  0  0  0  0
   26.9870   30.1700   16.4790 C   0  0  0  0  0  0  0  0  0  0  0  0
   28.3570   30.7330   16.6330 C   0  0  0  0  0  0  0  0  0  0  0  0
   29.1750   31.2630   15.6570 C   0  0  0  0  0  0  0  0  0  0  0  0
   29.0700   30.8360   17.7660 N   0  0  0  0  0  0  0  0  0  0  0  0
   30.3280   31.6580   16.2180 N   0  0  0  0  0  0  0  0  0  0  0  0
   30.2380   31.3870   17.5020 N   0  0  0  0  0  0  0  0  0  0  0  0
   31.4460   32.2770   15.4870 C   0  0  0  0  0  0  0  0  0  0  0  0
   31.5760   33.6590   16.0050 C   0  0  0  0  0  0  0  0  0  0  0  0
   31.8480   34.5920   15.1790 O   0  0  0  0  0  0  0  0  0  0  0  0
   31.4220   34.0400   17.3590 N   0  0  0  0  0  0  0  0  0  0  0  0
   31.2010   33.2820   18.0290 H   0  0  0  0  0  0  0  0  0  0  0  0
   31.5560   35.4030   17.8190 C   0  0  0  0  0  0  0  0  0  0  0  0
   32.8390   35.4590   18.6250 C   0  0  0  0  0  0  0  0  0  0  0  0
   33.1070   34.9650   19.8280 C   0  0  0  0  0  0  0  0  0  0  0  0
   34.3150   36.2220   18.1340 S   0  0  0  0  0  0  0  0  0  0  0  0
   34.3280   35.1250   20.3810 C   0  0  0  0  0  0  0  0  0  0  0  0
   35.2580   35.8330   19.6070 C   0  0  0  0  0  0  0  0  0  0  0  0
   29.8670   25.5550   16.9770 C   0  0  0  0  0  0  0  0  0  0  0  0
   28.3450   25.7220   17.0260 C   0  0  0  0  0  0  0  0  0  0  0  0
   27.6010   24.4020   16.8890 C   0  0  0  0  0  0  0  0  0  0  0  0
   26.6360   24.1760   18.0190 C   0  0  0  0  0  0  0  0  0  0  0  0
   25.4290   23.3940   17.5100 C   0  0  0  0  0  0  0  0  0  0  0  0
   24.4550   24.3060   16.8650 N   0  0  0  0  0  0  0  0  0  0  0  0
  1  5  1  0  0  0  0
  2  3  2  0  0  0  0
  2  1  1  0  0  0  0
  4  1  1  0  0  0  0
  6  5  1  6  0  0  0
  6  7  1  0  0  0  0
  7 27  1  6  0  0  0
  8  7  1  1  0  0  0
  8 13  1  0  0  0  0
  8 11  1  0  0  0  0
  9 16  1  1  0  0  0
  9 14  1  0  0  0  0
 10  9  1  0  0  0  0
 11  9  1  0  0  0  0
 12 13  1  0  0  0  0
 12 10  1  0  0  0  0
 12 20  1  1  0  0  0
 13 22  1  6  0  0  0
 14 15  1  0  0  0  0
 16 17  2  0  0  0  0
 18 16  1  0  0  0  0
 19 18  1  0  0  0  0
 20 21  1  0  0  0  0
 22 23  1  0  0  0  0
 23 26  2  0  0  0  0
 24 22  1  0  0  0  0
 25 23  1  0  0  0  0
 27 28  1  0  0  0  0
 29  6  1  0  0  0  0
 30 29  1  0  0  0  0
 31  2  1  0  0  0  0
 32 31  1  0  0  0  0
 32 33  1  0  0  0  0
 33 35  1  0  0  0  0
 34 36  1  0  0  0  0
 34 33  2  0  0  0  0
 36 37  1  0  0  0  0
 37 35  2  0  0  0  0
 38 39  1  0  0  0  0
 38 36  1  0  0  0  0
 39 41  1  0  0  0  0
 40 39  2  0  0  0  0
 41 43  1  0  0  0  0
 41 42  1  0  0  0  0
 43 44  1  0  0  0  0
 44 45  2  0  0  0  0
 45 47  1  0  0  0  0
 46 44  1  0  0  0  0
 46 48  1  0  0  0  0
 48 47  2  0  0  0  0
 49 50  1  0  0  0  0
 51 50  1  0  0  0  0
 51 52  1  0  0  0  0
 53 52  1  0  0  0  0
 54 53  1  0  0  0  0
M  END
>  <REMARK>
 VINA RESULT:    -4.702      5.324     11.508
 INTER + INTRA:         -15.750
 INTER:                  -8.256
 INTRA:                  -7.494
 UNBOUND:                -6.788
 SMILES CC(=O)N[C@@H]1[C@@H](O)C[C@](O)(C(=O)O)O[C@H]1C(O)[C@H](O)CNC(=O)OCc1cn(CC(=O)NCc2cccs2)nn1
 SMILES IDX 21 1 22 2 23 3 20 5 18 6 16 7 15 8 9 9 8 10 14 11 6 12 5 13
 SMILES IDX 10 14 11 16 12 17 13 18 7 20 4 22 2 23 1 25 3 26 17 27 19 29
 SMILES IDX 24 31 25 32 26 33 27 34 40 35 28 36 39 37 29 38 30 39 31 40
 SMILES IDX 32 41 33 43 34 44 35 45 38 46 36 47 37 48
 H PARENT 21 4 10 15 13 19 7 21 4 24 17 28 19 30 32 42
 Flexibility Score: inf
  4 active torsions:
  status: ('A' for Active; 'I' for Inactive)
    1  A    between atoms: CA   and  CB  
    2  A    between atoms: CB   and  CG  
    3  A    between atoms: CG   and  CD  
    4  A    between atoms: CD   and  CE  

>  <TORSDO>
F 18

>  <BEGIN_>
RES LYS A 131

$$$$
ligand_18_pose_1_2HRL.pdbqt
 OpenBabel07062320523D

  6  5  0  0  0  0  0  0  0  0999 V2000
   33.1930   34.6630    9.2900 C   0  0  0  0  0  0  0  0  0  0  0  0
   32.0600   35.3600   10.0340 C   0  0  0  0  0  0  0  0  0  0  0  0
   30.8000   35.4980    9.2190 C   0  0  0  0  0  0  0  0  0  0  0  0
   30.1700   34.1370    8.9700 C   0  0  0  0  0  0  0  0  0  0  0  0
   28.7030   34.2860    8.6130 C   0  0  0  0  0  0  0  0  0  0  0  0
   27.8320   33.6840    9.6600 N   0  0  0  0  0  0  0  0  0  0  0  0
  1  2  1  0  0  0  0
  3  2  1  0  0  0  0
  4  3  1  0  0  0  0
  5  4  1  0  0  0  0
  5  6  1  0  0  0  0
M  END
>  <EGIN_R>
ES LYS A 135

>  <REMARK>
  4 active torsions:
  status: ('A' for Active; 'I' for Inactive)
    5  A    between atoms: CA   and  CB  
    6  A    between atoms: CB   and  CG  
    7  A    between atoms: CG   and  CD  
    8  A    between atoms: CD   and  CE  

$$$$
