ligand_81_pose_10_2HRL.pdbqt
 OpenBabel07062320523D

 63 65  0  0  1  0  0  0  0  0999 V2000
   31.5340   36.5810   15.2730 O   0  0  0  0  0  0  0  0  0  0  0  0
   31.6610   35.2560   15.6270 C   0  0  0  0  0  0  0  0  0  0  0  0
   30.6340   34.5700   16.3740 N   0  0  0  0  0  0  0  0  0  0  0  0
   29.8120   35.1580   16.6170 H   0  0  0  0  0  0  0  0  0  0  0  0
   32.7040   34.6480   15.2800 O   0  0  0  0  0  0  0  0  0  0  0  0
   30.8200   33.1790   16.7180 C   0  0  0  0  0  0  0  0  0  0  0  0
   30.3430   32.3430   15.5380 C   0  0  2  0  0  0  0  0  0  0  0  0
   29.3890   31.3160   16.0990 C   0  0  2  0  0  0  0  0  0  0  0  0
   28.1790   31.8810   16.7770 C   0  0  2  0  0  0  0  0  0  0  0  0
   26.9660   29.8760   16.7810 C   0  0  2  0  0  0  0  0  0  0  0  0
   26.2610   30.3930   15.5380 C   0  0  0  0  0  0  0  0  0  0  0  0
   27.5830   30.8670   17.4890 O   0  0  0  0  0  0  0  0  0  0  0  0
   25.9370   31.8580   15.7530 C   0  0  1  0  0  0  0  0  0  0  0  0
   27.2430   32.6580   15.9260 C   0  0  1  0  0  0  0  0  0  0  0  0
   27.8510   28.8900   16.3310 O   0  0  0  0  0  0  0  0  0  0  0  0
   28.7900   29.1270   16.5010 H   0  0  0  0  0  0  0  0  0  0  0  0
   26.0010   29.2180   17.6870 C   0  0  0  0  0  0  0  0  0  0  0  0
   26.2350   29.1820   18.9090 O   0  0  0  0  0  0  0  0  0  0  0  0
   24.8580   28.6510   17.1880 O   0  0  0  0  0  0  0  0  0  0  0  0
   24.6820   28.4710   16.2070 H   0  0  0  0  0  0  0  0  0  0  0  0
   25.1780   32.3560   14.7190 O   0  0  0  0  0  0  0  0  0  0  0  0
   25.3200   33.3190   14.5980 H   0  0  0  0  0  0  0  0  0  0  0  0
   26.8180   33.9140   16.5600 N   0  0  0  0  0  0  0  0  0  0  0  0
   27.2390   35.1490   16.0130 C   0  0  0  0  0  0  0  0  0  0  0  0
   26.2110   33.9130   17.4070 H   0  0  0  0  0  0  0  0  0  0  0  0
   26.8460   36.4650   16.6050 C   0  0  0  0  0  0  0  0  0  0  0  0
   27.9730   35.1110   14.9860 O   0  0  0  0  0  0  0  0  0  0  0  0
   30.1480   30.7290   17.1640 O   0  0  0  0  0  0  0  0  0  0  0  0
   29.5430   30.3620   17.8390 H   0  0  0  0  0  0  0  0  0  0  0  0
   31.4820   31.8060   14.9590 O   0  0  0  0  0  0  0  0  0  0  0  0
   32.2470   31.8120   15.5730 H   0  0  0  0  0  0  0  0  0  0  0  0
   31.8960   37.1380   14.0280 C   0  0  0  0  0  0  0  0  0  0  0  0
   30.6710   37.6330   13.3240 C   0  0  0  0  0  0  0  0  0  0  0  0
   29.9510   37.0070   12.3360 C   0  0  0  0  0  0  0  0  0  0  0  0
   30.0410   38.8090   13.5330 N   0  0  0  0  0  0  0  0  0  0  0  0
   28.9020   37.7990   11.9570 N   0  0  0  0  0  0  0  0  0  0  0  0
   29.0060   38.8810   12.7190 N   0  0  0  0  0  0  0  0  0  0  0  0
   27.9430   37.5120   10.9550 C   0  0  0  0  0  0  0  0  0  0  0  0
   26.9130   36.6870   11.1920 N   0  0  0  0  0  0  0  0  0  0  0  0
   28.0620   38.0630    9.6740 C   0  0  0  0  0  0  0  0  0  0  0  0
   26.0070   36.3890   10.2270 C   0  0  0  0  0  0  0  0  0  0  0  0
   27.1530   37.7610    8.6990 C   0  0  0  0  0  0  0  0  0  0  0  0
   26.1100   36.9060    8.9980 N   0  0  0  0  0  0  0  0  0  0  0  0
   29.2120   38.9470    9.3950 C   0  0  0  0  0  0  0  0  0  0  0  0
   30.4680   38.2410    8.9670 C   0  0  0  0  0  0  0  0  0  0  0  0
   31.2790   39.0240    8.1950 O   0  0  0  0  0  0  0  0  0  0  0  0
   30.6100   39.9450    7.4230 C   0  0  0  0  0  0  0  0  0  0  0  0
   30.9760   39.8260    5.9590 C   0  0  0  0  0  0  0  0  0  0  0  0
   24.9360   35.5140   10.5230 N   0  0  0  0  0  0  0  0  0  0  0  0
   24.6370   35.3700   11.5030 H   0  0  0  0  0  0  0  0  0  0  0  0
   24.4260   35.0010    9.7800 H   0  0  0  0  0  0  0  0  0  0  0  0
   27.2860   38.2080    7.3260 C   0  0  0  0  0  0  0  0  0  0  0  0
   26.9280   39.3890    6.7870 C   0  0  0  0  0  0  0  0  0  0  0  0
   27.8940   37.2790    6.4520 C   0  0  0  0  0  0  0  0  0  0  0  0
   27.1560   39.6650    5.4250 C   0  0  0  0  0  0  0  0  0  0  0  0
   28.1210   37.5340    5.1290 C   0  0  0  0  0  0  0  0  0  0  0  0
   27.7490   38.7520    4.5860 C   0  0  0  0  0  0  0  0  0  0  0  0
   29.8670   25.5550   16.9770 C   0  0  0  0  0  0  0  0  0  0  0  0
   28.3450   25.7220   17.0260 C   0  0  0  0  0  0  0  0  0  0  0  0
   27.6010   24.4030   16.8870 C   0  0  0  0  0  0  0  0  0  0  0  0
   26.1980   24.4840   17.4210 C   0  0  0  0  0  0  0  0  0  0  0  0
   26.1240   25.5650   18.4950 C   0  0  0  0  0  0  0  0  0  0  0  0
   25.5030   25.0280   19.7290 N   0  0  0  0  0  0  0  0  0  0  0  0
  1  2  1  0  0  0  0
  2  3  1  0  0  0  0
  3  4  1  0  0  0  0
  3  6  1  0  0  0  0
  5  2  2  0  0  0  0
  7  8  1  0  0  0  0
  7  6  1  1  0  0  0
  8 28  1  1  0  0  0
  9  8  1  6  0  0  0
  9 12  1  0  0  0  0
 10 15  1  6  0  0  0
 10 12  1  0  0  0  0
 10 17  1  0  0  0  0
 11 13  1  0  0  0  0
 11 10  1  0  0  0  0
 13 21  1  6  0  0  0
 13 14  1  0  0  0  0
 14 23  1  1  0  0  0
 14  9  1  0  0  0  0
 15 16  1  0  0  0  0
 17 18  2  0  0  0  0
 19 17  1  0  0  0  0
 20 19  1  0  0  0  0
 22 21  1  0  0  0  0
 23 25  1  0  0  0  0
 24 23  1  0  0  0  0
 24 26  1  0  0  0  0
 27 24  2  0  0  0  0
 28 29  1  0  0  0  0
 30  7  1  0  0  0  0
 30 31  1  0  0  0  0
 32  1  1  0  0  0  0
 33 35  1  0  0  0  0
 33 32  1  0  0  0  0
 34 33  2  0  0  0  0
 36 34  1  0  0  0  0
 36 37  1  0  0  0  0
 37 35  2  0  0  0  0
 38 39  1  0  0  0  0
 38 36  1  0  0  0  0
 40 38  2  0  0  0  0
 41 49  1  0  0  0  0
 41 39  2  0  0  0  0
 42 43  2  0  0  0  0
 42 40  1  0  0  0  0
 43 41  1  0  0  0  0
 44 40  1  0  0  0  0
 45 44  1  0  0  0  0
 46 45  1  0  0  0  0
 47 46  1  0  0  0  0
 48 47  1  0  0  0  0
 49 50  1  0  0  0  0
 51 49  1  0  0  0  0
 52 42  1  0  0  0  0
 53 52  1  0  0  0  0
 54 52  2  0  0  0  0
 55 53  2  0  0  0  0
 56 54  1  0  0  0  0
 57 56  2  0  0  0  0
 57 55  1  0  0  0  0
 58 59  1  0  0  0  0
 60 59  1  0  0  0  0
 60 61  1  0  0  0  0
 61 62  1  0  0  0  0
 62 63  1  0  0  0  0
M  END
>  <REMARK>
 VINA RESULT:    -4.700      4.503      9.393
 INTER + INTRA:         -16.818
 INTER:                 -10.252
 INTRA:                  -6.566
 UNBOUND:                -7.171
 SMILES CCOCCc1c(-c2ccccc2)nc(N)nc1-n1cc(COC(=O)NC[C@@H](O)C(O)[C@@H]2O[C@@](O)(C(=O)O)C[C@H](O)[C@H]2NC(C)=O)nn1
 SMILES IDX 23 1 24 2 26 3 25 5 27 6 28 7 30 8 32 9 34 10 39 11 33 12
 SMILES IDX 40 13 42 14 35 15 36 17 37 18 38 19 41 21 43 23 44 24 45 26
 SMILES IDX 46 27 31 28 29 30 22 32 21 33 20 34 47 35 19 36 48 37 18 38
 SMILES IDX 17 39 6 40 15 41 7 42 14 43 5 44 4 45 3 46 2 47 1 48 16 49
 SMILES IDX 8 52 9 53 13 54 10 55 12 56 11 57
 H PARENT 26 4 35 16 38 20 41 22 43 25 31 29 29 31 16 50 16 51
 Flexibility Score: inf
  4 active torsions:
  status: ('A' for Active; 'I' for Inactive)
    1  A    between atoms: CA   and  CB  
    2  A    between atoms: CB   and  CG  
    3  A    between atoms: CG   and  CD  
    4  A    between atoms: CD   and  CE  

>  <TORSDO>
F 21

>  <BEGIN_>
RES LYS A 131

$$$$
ligand_81_pose_10_2HRL.pdbqt
 OpenBabel07062320523D

  6  5  0  0  0  0  0  0  0  0999 V2000
   33.1930   34.6630    9.2900 C   0  0  0  0  0  0  0  0  0  0  0  0
   32.0600   35.3600   10.0340 C   0  0  0  0  0  0  0  0  0  0  0  0
   30.7450   34.6300    9.9490 C   0  0  0  0  0  0  0  0  0  0  0  0
   30.3060   34.4800    8.5010 C   0  0  0  0  0  0  0  0  0  0  0  0
   28.7930   34.4550    8.4020 C   0  0  0  0  0  0  0  0  0  0  0  0
   28.1930   33.7110    9.5440 N   0  0  0  0  0  0  0  0  0  0  0  0
  1  2  1  0  0  0  0
  3  2  1  0  0  0  0
  4  3  1  0  0  0  0
  5  4  1  0  0  0  0
  5  6  1  0  0  0  0
M  END
>  <EGIN_R>
ES LYS A 135

>  <REMARK>
  4 active torsions:
  status: ('A' for Active; 'I' for Inactive)
    5  A    between atoms: CA   and  CB  
    6  A    between atoms: CB   and  CG  
    7  A    between atoms: CG   and  CD  
    8  A    between atoms: CD   and  CE  

$$$$
