ligand_80_pose_12_2HRL.pdbqt
 OpenBabel07062320523D

 56 54  0  0  1  0  0  0  0  0999 V2000
   24.4990   38.6000   10.1750 O   0  0  0  0  0  0  0  0  0  0  0  0
   23.9930   38.1860    8.9670 C   0  0  0  0  0  0  0  0  0  0  0  0
   22.7850   37.4120    8.9200 N   0  0  0  0  0  0  0  0  0  0  0  0
   22.3390   37.2000    9.8430 H   0  0  0  0  0  0  0  0  0  0  0  0
   24.5540   38.4580    7.8750 O   0  0  0  0  0  0  0  0  0  0  0  0
   22.2180   36.9520    7.6660 C   0  0  0  0  0  0  0  0  0  0  0  0
   21.4330   35.6910    7.9350 C   0  0  2  0  0  0  0  0  0  0  0  0
   19.9450   35.8790    7.7310 C   0  0  2  0  0  0  0  0  0  0  0  0
   19.2140   35.8810    9.0830 C   0  0  2  0  0  0  0  0  0  0  0  0
   17.5170   34.5880   10.0570 C   0  0  2  0  0  0  0  0  0  0  0  0
   17.0980   35.8470   10.7500 C   0  0  0  0  0  0  0  0  0  0  0  0
   18.5710   34.7100    9.1940 O   0  0  0  0  0  0  0  0  0  0  0  0
   17.0020   36.9120    9.6700 C   0  0  1  0  0  0  0  0  0  0  0  0
   18.3890   37.1260    9.1190 C   0  0  1  0  0  0  0  0  0  0  0  0
   16.4310   34.1380    9.2780 O   0  0  0  0  0  0  0  0  0  0  0  0
   16.3910   33.1590    9.4340 H   0  0  0  0  0  0  0  0  0  0  0  0
   17.8390   33.4980   11.0130 C   0  0  0  0  0  0  0  0  0  0  0  0
   17.0830   33.2950   11.9870 O   0  0  0  0  0  0  0  0  0  0  0  0
   18.9590   32.6840   10.8630 O   0  0  0  0  0  0  0  0  0  0  0  0
   19.6600   32.7350   11.6160 H   0  0  0  0  0  0  0  0  0  0  0  0
   16.1930   36.4010    8.6600 O   0  0  0  0  0  0  0  0  0  0  0  0
   15.6840   37.1540    8.2760 H   0  0  0  0  0  0  0  0  0  0  0  0
   19.0500   38.0720   10.0000 N   0  0  0  0  0  0  0  0  0  0  0  0
   19.7270   39.2320    9.5390 C   0  0  0  0  0  0  0  0  0  0  0  0
   19.0280   37.8910   11.0500 H   0  0  0  0  0  0  0  0  0  0  0  0
   20.3660   40.1230   10.5360 C   0  0  0  0  0  0  0  0  0  0  0  0
   19.7590   39.4540    8.3000 O   0  0  0  0  0  0  0  0  0  0  0  0
   19.5020   34.7670    7.0070 O   0  0  0  0  0  0  0  0  0  0  0  0
   18.8270   34.9870    6.3300 H   0  0  0  0  0  0  0  0  0  0  0  0
   21.6970   35.1920    9.2050 O   0  0  0  0  0  0  0  0  0  0  0  0
   22.5340   35.5360    9.5820 H   0  0  0  0  0  0  0  0  0  0  0  0
   25.2860   37.7450   10.9870 C   0  0  0  0  0  0  0  0  0  0  0  0
   24.5500   36.5030   11.3310 C   0  0  0  0  0  0  0  0  0  0  0  0
   23.9130   36.2750   12.5560 C   0  0  0  0  0  0  0  0  0  0  0  0
   24.3350   35.3860   10.6120 N   0  0  0  0  0  0  0  0  0  0  0  0
   23.3520   35.0550   12.5330 N   0  0  0  0  0  0  0  0  0  0  0  0
   23.6250   34.5510   11.3500 N   0  0  0  0  0  0  0  0  0  0  0  0
   22.6060   34.4220   13.5990 *   0  0  0  0  0  0  0  0  0  0  0  0
   21.3860   33.7430   13.0780 C   0  0  0  0  0  0  0  0  0  0  0  0
   21.1630   32.4340   12.5870 N   0  0  0  0  0  0  0  0  0  0  0  0
   20.3820   34.4980   13.0880 O   0  0  0  0  0  0  0  0  0  0  0  0
   20.2980   32.2420   12.0380 H   0  0  0  0  0  0  0  0  0  0  0  0
   22.0100   31.2830   12.7570 C   0  0  0  0  0  0  0  0  0  0  0  0
   23.3430   31.2750   13.1240 C   0  0  0  0  0  0  0  0  0  0  0  0
   21.3110   30.1200   12.5030 C   0  0  0  0  0  0  0  0  0  0  0  0
   23.9770   30.0760   13.2330 C   0  0  0  0  0  0  0  0  0  0  0  0
   21.9550   28.9070   12.6150 C   0  0  0  0  0  0  0  0  0  0  0  0
   23.2820   28.9000   12.9800 C   0  0  0  0  0  0  0  0  0  0  0  0
   24.1920   32.4610   13.4210 C   0  0  0  0  0  0  0  0  0  0  0  0
   23.5010   33.4480   14.3450 *   0  0  0  0  0  0  0  0  0  0  0  0
   29.8670   25.5550   16.9770 C   0  0  0  0  0  0  0  0  0  0  0  0
   28.3450   25.7220   17.0260 C   0  0  0  0  0  0  0  0  0  0  0  0
   27.6030   24.3950   16.9820 C   0  0  0  0  0  0  0  0  0  0  0  0
   26.6380   24.2470   18.1250 C   0  0  0  0  0  0  0  0  0  0  0  0
   25.2590   23.8860   17.5830 C   0  0  0  0  0  0  0  0  0  0  0  0
   24.8570   22.5360   18.0450 N   0  0  0  0  0  0  0  0  0  0  0  0
  1 32  1  0  0  0  0
  2  1  1  0  0  0  0
  3  2  1  0  0  0  0
  3  4  1  0  0  0  0
  5  2  2  0  0  0  0
  6  3  1  0  0  0  0
  7  6  1  1  0  0  0
  7 30  1  0  0  0  0
  8 28  1  6  0  0  0
  8  7  1  0  0  0  0
  9  8  1  6  0  0  0
  9 14  1  0  0  0  0
  9 12  1  0  0  0  0
 10 15  1  6  0  0  0
 10 11  1  0  0  0  0
 10 17  1  0  0  0  0
 12 10  1  0  0  0  0
 13 21  1  6  0  0  0
 13 11  1  0  0  0  0
 14 13  1  0  0  0  0
 14 23  1  1  0  0  0
 15 16  1  0  0  0  0
 17 18  2  0  0  0  0
 19 17  1  0  0  0  0
 19 20  1  0  0  0  0
 22 21  1  0  0  0  0
 23 25  1  0  0  0  0
 24 23  1  0  0  0  0
 24 26  1  0  0  0  0
 27 24  2  0  0  0  0
 29 28  1  0  0  0  0
 30 31  1  0  0  0  0
 32 33  1  0  0  0  0
 33 34  2  0  0  0  0
 35 33  1  0  0  0  0
 35 37  1  0  0  0  0
 36 34  1  0  0  0  0
 37 36  2  0  0  0  0
 39 41  2  0  0  0  0
 40 43  1  0  0  0  0
 40 39  1  0  0  0  0
 42 40  1  0  0  0  0
 43 44  2  0  0  0  0
 44 46  1  0  0  0  0
 44 49  1  0  0  0  0
 45 47  2  0  0  0  0
 45 43  1  0  0  0  0
 47 48  1  0  0  0  0
 48 46  2  0  0  0  0
 51 52  1  0  0  0  0
 53 52  1  0  0  0  0
 53 54  1  0  0  0  0
 55 56  1  0  0  0  0
 55 54  1  0  0  0  0
M  END
>  <REMARK>
 VINA RESULT:    -9.103      5.571      9.247
 INTER + INTRA:         -13.328
 INTER:                  -7.981
 INTRA:                  -5.347
 UNBOUND:                 4.555
 SMILES CC(=O)N[C@@H]1[C@@H](O)C[C@](O)(C(=O)O)O[C@H]1C(O)[C@H](O)CNC(=O)OCc1cn(C2CCc3ccccc3NC2=O)nn1
 SMILES IDX 24 1 22 2 21 3 23 5 20 6 18 7 16 8 15 9 9 10 8 11 14 12 6 13
 SMILES IDX 5 14 10 15 11 17 12 18 13 19 7 21 4 23 2 24 1 26 3 27 17 28
 SMILES IDX 19 30 25 32 26 33 27 34 42 35 28 36 41 37 29 38 39 40 38 41
 SMILES IDX 40 42 37 44 32 45 36 46 33 47 35 48 34 49 31 50 30 51
 H PARENT 21 4 10 16 13 20 7 22 4 25 17 29 19 31 38 43
 Flexibility Score: 80.00
  4 active torsions:
  status: ('A' for Active; 'I' for Inactive)
    1  A    between atoms: CA   and  CB  
    2  A    between atoms: CB   and  CG  
    3  A    between atoms: CG   and  CD  
    4  A    between atoms: CD   and  CE  

>  <TORSDO>
F 15

>  <BEGIN_>
RES LYS A 131

$$$$
ligand_80_pose_12_2HRL.pdbqt
 OpenBabel07062320523D

  6  5  0  0  0  0  0  0  0  0999 V2000
   33.1930   34.6630    9.2900 C   0  0  0  0  0  0  0  0  0  0  0  0
   32.0600   35.3600   10.0340 C   0  0  0  0  0  0  0  0  0  0  0  0
   30.8590   35.6470    9.1700 C   0  0  0  0  0  0  0  0  0  0  0  0
   29.9470   34.4320    9.0980 C   0  0  0  0  0  0  0  0  0  0  0  0
   28.8690   34.5110   10.1610 C   0  0  0  0  0  0  0  0  0  0  0  0
   28.3850   35.9090   10.3320 N   0  0  0  0  0  0  0  0  0  0  0  0
  1  2  1  0  0  0  0
  3  2  1  0  0  0  0
  4  3  1  0  0  0  0
  4  5  1  0  0  0  0
  5  6  1  0  0  0  0
M  END
>  <EGIN_R>
ES LYS A 135

>  <REMARK>
  4 active torsions:
  status: ('A' for Active; 'I' for Inactive)
    5  A    between atoms: CA   and  CB  
    6  A    between atoms: CB   and  CG  
    7  A    between atoms: CG   and  CD  
    8  A    between atoms: CD   and  CE  

$$$$
