ligand_16_pose_14_2HRL.pdbqt
 OpenBabel07062320523D

 54 55  0  0  1  0  0  0  0  0999 V2000
   26.5410   37.2780   10.0830 N   0  0  0  0  0  0  0  0  0  0  0  0
   27.1010   37.7930   11.2640 C   0  0  0  0  0  0  0  0  0  0  0  0
   27.1380   39.0210   11.4480 O   0  0  0  0  0  0  0  0  0  0  0  0
   26.5510   36.2150   10.0020 H   0  0  0  0  0  0  0  0  0  0  0  0
   25.9820   38.0920    9.0370 C   0  0  0  0  0  0  0  0  0  0  0  0
   24.6560   37.5210    8.6080 C   0  0  2  0  0  0  0  0  0  0  0  0
   24.2440   36.2990    9.3660 C   0  0  1  0  0  0  0  0  0  0  0  0
   22.7260   36.0780    9.2360 C   0  0  2  0  0  0  0  0  0  0  0  0
   20.8380   37.2570    8.6110 C   0  0  2  0  0  0  0  0  0  0  0  0
   20.2830   37.3370   10.0250 C   0  0  0  0  0  0  0  0  0  0  0  0
   22.2070   37.2470    8.7220 O   0  0  0  0  0  0  0  0  0  0  0  0
   20.7700   36.1840   10.8410 C   0  0  1  0  0  0  0  0  0  0  0  0
   22.2170   35.8420   10.6120 C   0  0  1  0  0  0  0  0  0  0  0  0
   20.4770   38.5080    8.0320 O   0  0  0  0  0  0  0  0  0  0  0  0
   19.4950   38.6520    8.2120 H   0  0  0  0  0  0  0  0  0  0  0  0
   20.2370   36.1620    7.8450 C   0  0  0  0  0  0  0  0  0  0  0  0
   19.0950   36.3450    7.3000 O   0  0  0  0  0  0  0  0  0  0  0  0
   20.7780   34.9100    7.6350 O   0  0  0  0  0  0  0  0  0  0  0  0
   20.8270   34.2900    8.4320 H   0  0  0  0  0  0  0  0  0  0  0  0
   20.6500   36.5670   12.1980 O   0  0  0  0  0  0  0  0  0  0  0  0
   21.0920   35.8530   12.7190 H   0  0  0  0  0  0  0  0  0  0  0  0
   22.4760   34.5030   11.1000 N   0  0  0  0  0  0  0  0  0  0  0  0
   23.0540   34.2650   12.3720 C   0  0  0  0  0  0  0  0  0  0  0  0
   22.2400   33.6670   10.5230 H   0  0  0  0  0  0  0  0  0  0  0  0
   23.3140   32.8620   12.8590 C   0  0  0  0  0  0  0  0  0  0  0  0
   23.3460   35.2400   13.0880 O   0  0  0  0  0  0  0  0  0  0  0  0
   24.9490   35.1620    9.0600 O   0  0  0  0  0  0  0  0  0  0  0  0
   24.4330   34.3590    9.3310 H   0  0  0  0  0  0  0  0  0  0  0  0
   24.6090   37.2630    7.2320 O   0  0  0  0  0  0  0  0  0  0  0  0
   25.4540   36.8040    6.9590 H   0  0  0  0  0  0  0  0  0  0  0  0
   27.6310   36.9950   12.2690 O   0  0  0  0  0  0  0  0  0  0  0  0
   28.4840   35.9010   12.0360 C   0  0  0  0  0  0  0  0  0  0  0  0
   29.5940   35.9120   13.0120 C   0  0  0  0  0  0  0  0  0  0  0  0
   30.4530   34.8430   13.2720 C   0  0  0  0  0  0  0  0  0  0  0  0
   30.0150   36.8890   13.8390 N   0  0  0  0  0  0  0  0  0  0  0  0
   31.3280   35.2120   14.2150 N   0  0  0  0  0  0  0  0  0  0  0  0
   31.0430   36.4490   14.5410 N   0  0  0  0  0  0  0  0  0  0  0  0
   32.3990   34.3800   14.7860 C   0  0  0  0  0  0  0  0  0  0  0  0
   31.7220   33.5020   15.7940 C   0  0  0  0  0  0  0  0  0  0  0  0
   31.2540   32.2770   15.4100 C   0  0  0  0  0  0  0  0  0  0  0  0
   31.5550   33.8980   17.0980 C   0  0  0  0  0  0  0  0  0  0  0  0
   30.6150   31.4360   16.3260 C   0  0  0  0  0  0  0  0  0  0  0  0
   30.9190   33.0620   18.0100 C   0  0  0  0  0  0  0  0  0  0  0  0
   30.4420   31.8220   17.6340 C   0  0  0  0  0  0  0  0  0  0  0  0
   29.7800   30.9550   18.5980 C   0  0  0  0  0  0  0  0  0  0  0  0
   28.5600   31.0350   18.8630 O   0  0  0  0  0  0  0  0  0  0  0  0
   30.5230   29.9850   19.2620 O   0  0  0  0  0  0  0  0  0  0  0  0
   30.8070   30.1080   20.2190 H   0  0  0  0  0  0  0  0  0  0  0  0
   29.8670   25.5550   16.9770 C   0  0  0  0  0  0  0  0  0  0  0  0
   28.3450   25.7220   17.0260 C   0  0  0  0  0  0  0  0  0  0  0  0
   27.6020   24.3980   16.9280 C   0  0  0  0  0  0  0  0  0  0  0  0
   26.1610   24.5260   17.3380 C   0  0  0  0  0  0  0  0  0  0  0  0
   25.8950   23.6350   18.5470 C   0  0  0  0  0  0  0  0  0  0  0  0
   24.4380   23.4670   18.7580 N   0  0  0  0  0  0  0  0  0  0  0  0
  1  2  1  0  0  0  0
  2  3  2  0  0  0  0
  2 31  1  0  0  0  0
  4  1  1  0  0  0  0
  5  1  1  0  0  0  0
  6  5  1  1  0  0  0
  6  7  1  0  0  0  0
  7 27  1  6  0  0  0
  8  7  1  1  0  0  0
  8 13  1  0  0  0  0
  9 16  1  6  0  0  0
  9 11  1  0  0  0  0
  9 10  1  0  0  0  0
 10 12  1  0  0  0  0
 11  8  1  0  0  0  0
 12 20  1  1  0  0  0
 13 12  1  0  0  0  0
 13 22  1  6  0  0  0
 14 15  1  0  0  0  0
 14  9  1  0  0  0  0
 17 16  2  0  0  0  0
 18 16  1  0  0  0  0
 18 19  1  0  0  0  0
 20 21  1  0  0  0  0
 22 23  1  0  0  0  0
 23 25  1  0  0  0  0
 23 26  2  0  0  0  0
 24 22  1  0  0  0  0
 27 28  1  0  0  0  0
 29  6  1  0  0  0  0
 30 29  1  0  0  0  0
 32 31  1  0  0  0  0
 32 33  1  0  0  0  0
 33 34  2  0  0  0  0
 33 35  1  0  0  0  0
 34 36  1  0  0  0  0
 35 37  2  0  0  0  0
 36 37  1  0  0  0  0
 36 38  1  0  0  0  0
 38 39  1  0  0  0  0
 39 41  1  0  0  0  0
 40 39  2  0  0  0  0
 40 42  1  0  0  0  0
 41 43  2  0  0  0  0
 42 44  2  0  0  0  0
 44 43  1  0  0  0  0
 44 45  1  0  0  0  0
 45 46  2  0  0  0  0
 45 47  1  0  0  0  0
 47 48  1  0  0  0  0
 49 50  1  0  0  0  0
 51 50  1  0  0  0  0
 51 52  1  0  0  0  0
 52 53  1  0  0  0  0
 53 54  1  0  0  0  0
M  END
>  <REMARK>
 VINA RESULT:    -5.757      5.674     11.698
 INTER + INTRA:         -14.798
 INTER:                 -10.396
 INTRA:                  -4.402
 UNBOUND:                -3.993
 SMILES CC(=O)N[C@@H]1[C@@H](O)C[C@](O)(C(=O)O)O[C@H]1C(O)[C@H](O)CNC(=O)OCc1cn(Cc2ccc(C(=O)O)cc2)nn1
 SMILES IDX 21 1 22 2 23 3 20 5 18 6 16 7 15 8 9 9 8 10 14 11 6 12 5 13
 SMILES IDX 10 14 11 16 12 17 13 18 7 20 4 22 2 23 1 25 3 26 17 27 19 29
 SMILES IDX 24 31 25 32 26 33 27 34 40 35 28 36 39 37 29 38 30 39 31 40
 SMILES IDX 38 41 32 42 37 43 33 44 34 45 35 46 36 47
 H PARENT 21 4 10 15 13 19 7 21 4 24 17 28 19 30 36 48
 Flexibility Score: inf
  4 active torsions:
  status: ('A' for Active; 'I' for Inactive)
    1  A    between atoms: CA   and  CB  
    2  A    between atoms: CB   and  CG  
    3  A    between atoms: CG   and  CD  
    4  A    between atoms: CD   and  CE  

>  <TORSDO>
F 18

>  <BEGIN_>
RES LYS A 131

$$$$
ligand_16_pose_14_2HRL.pdbqt
 OpenBabel07062320523D

  6  5  0  0  0  0  0  0  0  0999 V2000
   33.1930   34.6630    9.2900 C   0  0  0  0  0  0  0  0  0  0  0  0
   32.0600   35.3600   10.0340 C   0  0  0  0  0  0  0  0  0  0  0  0
   30.7960   35.4880    9.2240 C   0  0  0  0  0  0  0  0  0  0  0  0
   30.1290   34.1320    9.0520 C   0  0  0  0  0  0  0  0  0  0  0  0
   28.6630   34.3000    8.7010 C   0  0  0  0  0  0  0  0  0  0  0  0
   28.4870   35.2640    7.5790 N   0  0  0  0  0  0  0  0  0  0  0  0
  1  2  1  0  0  0  0
  3  2  1  0  0  0  0
  4  3  1  0  0  0  0
  5  4  1  0  0  0  0
  6  5  1  0  0  0  0
M  END
>  <EGIN_R>
ES LYS A 135

>  <REMARK>
  4 active torsions:
  status: ('A' for Active; 'I' for Inactive)
    5  A    between atoms: CA   and  CB  
    6  A    between atoms: CB   and  CG  
    7  A    between atoms: CG   and  CD  
    8  A    between atoms: CD   and  CE  

$$$$
