ligand_15_pose_10_2HRL.pdbqt
 OpenBabel07062320523D

 50 51  0  0  1  0  0  0  0  0999 V2000
   30.0370   31.0260   16.5430 C   0  0  0  0  0  0  0  0  0  0  0  0
   30.7320   32.2520   16.0310 C   0  0  2  0  0  0  0  0  0  0  0  0
   29.8420   33.3880   15.6680 C   0  0  2  0  0  0  0  0  0  0  0  0
   30.5760   34.6500   15.2640 C   0  0  2  0  0  0  0  0  0  0  0  0
   31.5070   35.5020   13.2860 C   0  0  2  0  0  0  0  0  0  0  0  0
   32.5460   36.1240   14.1780 C   0  0  0  0  0  0  0  0  0  0  0  0
   30.8490   34.5010   13.9100 O   0  0  0  0  0  0  0  0  0  0  0  0
   33.0210   35.0670   15.1470 C   0  0  1  0  0  0  0  0  0  0  0  0
   31.8400   34.7410   16.0720 C   0  0  1  0  0  0  0  0  0  0  0  0
   32.1590   34.9240   12.1610 O   0  0  0  0  0  0  0  0  0  0  0  0
   31.8630   33.9770   12.1580 H   0  0  0  0  0  0  0  0  0  0  0  0
   30.5330   36.5140   12.7920 C   0  0  0  0  0  0  0  0  0  0  0  0
   30.7550   37.7370   12.7930 O   0  0  0  0  0  0  0  0  0  0  0  0
   29.3120   36.0800   12.3050 O   0  0  0  0  0  0  0  0  0  0  0  0
   28.8350   35.2510   12.6630 H   0  0  0  0  0  0  0  0  0  0  0  0
   33.2680   33.9080   14.4130 O   0  0  0  0  0  0  0  0  0  0  0  0
   33.4590   34.0770   13.4710 H   0  0  0  0  0  0  0  0  0  0  0  0
   31.7490   35.8560   16.9730 N   0  0  0  0  0  0  0  0  0  0  0  0
   31.3480   35.7540   18.3270 C   0  0  0  0  0  0  0  0  0  0  0  0
   31.9890   36.8240   16.6360 H   0  0  0  0  0  0  0  0  0  0  0  0
   31.2650   36.9450   19.2250 C   0  0  0  0  0  0  0  0  0  0  0  0
   31.0550   34.6330   18.7880 O   0  0  0  0  0  0  0  0  0  0  0  0
   29.0050   33.6580   16.7790 O   0  0  0  0  0  0  0  0  0  0  0  0
   29.0720   32.8880   17.3840 H   0  0  0  0  0  0  0  0  0  0  0  0
   31.4650   31.8720   14.8860 O   0  0  0  0  0  0  0  0  0  0  0  0
   30.8710   31.7880   14.1000 H   0  0  0  0  0  0  0  0  0  0  0  0
   30.1560   30.7880   17.9440 N   0  0  0  0  0  0  0  0  0  0  0  0
   29.0070   30.9460   18.8030 C   0  0  0  0  0  0  0  0  0  0  0  0
   31.0200   30.5050   18.4480 H   0  0  0  0  0  0  0  0  0  0  0  0
   27.9270   31.2940   18.2700 O   0  0  0  0  0  0  0  0  0  0  0  0
   29.0920   30.7210   20.1680 O   0  0  0  0  0  0  0  0  0  0  0  0
   29.0390   29.3630   20.5840 C   0  0  0  0  0  0  0  0  0  0  0  0
   30.4000   29.0110   21.0810 C   0  0  0  0  0  0  0  0  0  0  0  0
   31.4310   29.8890   21.3520 C   0  0  0  0  0  0  0  0  0  0  0  0
   30.8910   27.7890   21.3640 N   0  0  0  0  0  0  0  0  0  0  0  0
   32.4960   29.1910   21.7810 N   0  0  0  0  0  0  0  0  0  0  0  0
   32.1280   27.9310   21.7730 N   0  0  0  0  0  0  0  0  0  0  0  0
   33.7850   29.6510   22.1790 C   0  0  0  0  0  0  0  0  0  0  0  0
   34.6350   28.8870   22.9550 C   0  0  0  0  0  0  0  0  0  0  0  0
   34.2410   30.8960   21.7960 C   0  0  0  0  0  0  0  0  0  0  0  0
   35.8830   29.3450   23.3320 C   0  0  0  0  0  0  0  0  0  0  0  0
   35.4950   31.3620   22.1730 C   0  0  0  0  0  0  0  0  0  0  0  0
   36.3350   30.5950   22.9460 C   0  0  0  0  0  0  0  0  0  0  0  0
   38.0640   31.1780   23.4940 Br  0  0  0  0  0  0  0  0  0  0  0  0
   29.8670   25.5550   16.9770 C   0  0  0  0  0  0  0  0  0  0  0  0
   28.3450   25.7220   17.0260 C   0  0  0  0  0  0  0  0  0  0  0  0
   27.6010   24.4010   16.9020 C   0  0  0  0  0  0  0  0  0  0  0  0
   26.4800   24.2870   17.8970 C   0  0  0  0  0  0  0  0  0  0  0  0
   26.4260   25.5500   18.7510 C   0  0  0  0  0  0  0  0  0  0  0  0
   25.0770   26.1600   18.6900 N   0  0  0  0  0  0  0  0  0  0  0  0
  1 27  1  0  0  0  0
  2  1  1  6  0  0  0
  3  2  1  0  0  0  0
  3 23  1  1  0  0  0
  4  3  1  1  0  0  0
  4  9  1  0  0  0  0
  5 10  1  6  0  0  0
  5  7  1  0  0  0  0
  5  6  1  0  0  0  0
  6  8  1  0  0  0  0
  7  4  1  0  0  0  0
  8 16  1  6  0  0  0
  8  9  1  0  0  0  0
  9 18  1  1  0  0  0
 11 10  1  0  0  0  0
 12 13  2  0  0  0  0
 12  5  1  0  0  0  0
 14 15  1  0  0  0  0
 14 12  1  0  0  0  0
 17 16  1  0  0  0  0
 18 19  1  0  0  0  0
 19 22  2  0  0  0  0
 19 21  1  0  0  0  0
 20 18  1  0  0  0  0
 23 24  1  0  0  0  0
 25  2  1  0  0  0  0
 26 25  1  0  0  0  0
 27 29  1  0  0  0  0
 27 28  1  0  0  0  0
 28 31  1  0  0  0  0
 30 28  2  0  0  0  0
 31 32  1  0  0  0  0
 32 33  1  0  0  0  0
 33 34  2  0  0  0  0
 33 35  1  0  0  0  0
 34 36  1  0  0  0  0
 35 37  2  0  0  0  0
 36 38  1  0  0  0  0
 37 36  1  0  0  0  0
 38 39  2  0  0  0  0
 39 41  1  0  0  0  0
 40 42  2  0  0  0  0
 40 38  1  0  0  0  0
 42 43  1  0  0  0  0
 43 41  2  0  0  0  0
 43 44  1  0  0  0  0
 45 46  1  0  0  0  0
 47 46  1  0  0  0  0
 47 48  1  0  0  0  0
 48 49  1  0  0  0  0
 50 49  1  0  0  0  0
M  END
>  <REMARK>
 VINA RESULT:    -5.274      3.901      7.625
 INTER + INTRA:         -14.289
 INTER:                  -8.926
 INTRA:                  -5.363
 UNBOUND:                -5.161
 SMILES CC(=O)N[C@@H]1[C@@H](O)C[C@](O)(C(=O)O)O[C@H]1C(O)[C@H](O)CNC(=O)OCc1cn(-c2ccc(Br)cc2)nn1
 SMILES IDX 20 1 18 2 16 3 15 4 9 5 8 6 14 7 6 8 5 9 10 10 11 12 12 13
 SMILES IDX 13 14 7 16 4 18 2 19 1 21 3 22 17 23 19 25 21 27 22 28 23 30
 SMILES IDX 24 31 25 32 26 33 27 34 37 35 28 36 36 37 29 38 30 39 35 40
 SMILES IDX 31 41 34 42 32 43 33 44
 H PARENT 10 11 13 15 7 17 4 20 17 24 19 26 21 29
 Flexibility Score: inf
  4 active torsions:
  status: ('A' for Active; 'I' for Inactive)
    1  A    between atoms: CA   and  CB  
    2  A    between atoms: CB   and  CG  
    3  A    between atoms: CG   and  CD  
    4  A    between atoms: CD   and  CE  

>  <TORSDO>
F 15

>  <BEGIN_>
RES LYS A 131

$$$$
ligand_15_pose_10_2HRL.pdbqt
 OpenBabel07062320523D

  6  5  0  0  0  0  0  0  0  0999 V2000
   33.1930   34.6630    9.2900 C   0  0  0  0  0  0  0  0  0  0  0  0
   32.0600   35.3600   10.0340 C   0  0  0  0  0  0  0  0  0  0  0  0
   30.7920   35.4760    9.2280 C   0  0  0  0  0  0  0  0  0  0  0  0
   30.2070   34.1000    8.9470 C   0  0  0  0  0  0  0  0  0  0  0  0
   28.7030   34.1110    9.1370 C   0  0  0  0  0  0  0  0  0  0  0  0
   28.0270   34.8400    8.0280 N   0  0  0  0  0  0  0  0  0  0  0  0
  1  2  1  0  0  0  0
  3  2  1  0  0  0  0
  4  5  1  0  0  0  0
  4  3  1  0  0  0  0
  6  5  1  0  0  0  0
M  END
>  <EGIN_R>
ES LYS A 135

>  <REMARK>
  4 active torsions:
  status: ('A' for Active; 'I' for Inactive)
    5  A    between atoms: CA   and  CB  
    6  A    between atoms: CB   and  CG  
    7  A    between atoms: CG   and  CD  
    8  A    between atoms: CD   and  CE  

$$$$
