ligand_59_pose_9_2HRL.pdbqt
 OpenBabel07062320523D

 52 53  0  0  1  0  0  0  0  0999 V2000
   24.5680   36.6880   10.1110 N   0  0  0  0  0  0  0  0  0  0  0  0
   23.9830   35.5280   10.7210 C   0  0  0  0  0  0  0  0  0  0  0  0
   22.8220   35.2350   10.3550 O   0  0  0  0  0  0  0  0  0  0  0  0
   25.5390   36.8880   10.4330 H   0  0  0  0  0  0  0  0  0  0  0  0
   23.8500   37.4530    9.1280 C   0  0  0  0  0  0  0  0  0  0  0  0
   24.5950   37.4060    7.8030 C   0  0  2  0  0  0  0  0  0  0  0  0
   26.0510   37.2950    8.1500 C   0  0  2  0  0  0  0  0  0  0  0  0
   26.9660   38.3570    7.6110 C   0  0  2  0  0  0  0  0  0  0  0  0
   27.5870   39.0020    5.4290 C   0  0  2  0  0  0  0  0  0  0  0  0
   29.0300   39.2040    5.8220 C   0  0  0  0  0  0  0  0  0  0  0  0
   26.9320   38.1580    6.2560 O   0  0  0  0  0  0  0  0  0  0  0  0
   29.2960   38.1480    6.8780 C   0  0  1  0  0  0  0  0  0  0  0  0
   28.3550   38.3850    8.0860 C   0  0  1  0  0  0  0  0  0  0  0  0
   27.6350   38.4270    4.1200 O   0  0  0  0  0  0  0  0  0  0  0  0
   28.4620   38.7290    3.6650 H   0  0  0  0  0  0  0  0  0  0  0  0
   26.8330   40.2640    5.2760 C   0  0  0  0  0  0  0  0  0  0  0  0
   27.4440   41.3500    5.2890 O   0  0  0  0  0  0  0  0  0  0  0  0
   25.4610   40.2620    5.1160 O   0  0  0  0  0  0  0  0  0  0  0  0
   25.0130   39.4370    4.7370 H   0  0  0  0  0  0  0  0  0  0  0  0
   29.1890   36.8690    6.3930 O   0  0  0  0  0  0  0  0  0  0  0  0
   30.0270   36.3640    6.5990 H   0  0  0  0  0  0  0  0  0  0  0  0
   28.8090   39.6170    8.6460 N   0  0  0  0  0  0  0  0  0  0  0  0
   29.6470   39.6680    9.7710 C   0  0  0  0  0  0  0  0  0  0  0  0
   28.5060   40.5050    8.2090 H   0  0  0  0  0  0  0  0  0  0  0  0
   30.1190   40.9470   10.3520 C   0  0  0  0  0  0  0  0  0  0  0  0
   30.0120   38.6020   10.3070 O   0  0  0  0  0  0  0  0  0  0  0  0
   26.5240   36.0840    7.6120 O   0  0  0  0  0  0  0  0  0  0  0  0
   26.3930   36.0450    6.6270 H   0  0  0  0  0  0  0  0  0  0  0  0
   24.3400   38.6910    7.2510 O   0  0  0  0  0  0  0  0  0  0  0  0
   23.8610   38.5770    6.4140 H   0  0  0  0  0  0  0  0  0  0  0  0
   24.6300   34.7640   11.6520 O   0  0  0  0  0  0  0  0  0  0  0  0
   25.0360   35.2220   12.9060 C   0  0  0  0  0  0  0  0  0  0  0  0
   26.3750   35.8610   12.9030 C   0  0  0  0  0  0  0  0  0  0  0  0
   27.5600   35.1970   13.2320 C   0  0  0  0  0  0  0  0  0  0  0  0
   26.7560   37.1010   12.6200 N   0  0  0  0  0  0  0  0  0  0  0  0
   28.5770   36.0530   13.1350 N   0  0  0  0  0  0  0  0  0  0  0  0
   28.0780   37.2080   12.7630 N   0  0  0  0  0  0  0  0  0  0  0  0
   29.9570   35.7600   13.3990 C   0  0  0  0  0  0  0  0  0  0  0  0
   30.9940   36.5270   12.9090 C   0  0  0  0  0  0  0  0  0  0  0  0
   30.2820   34.6910   14.1430 N   0  0  0  0  0  0  0  0  0  0  0  0
   32.3130   36.2460   13.1470 C   0  0  0  0  0  0  0  0  0  0  0  0
   31.5590   34.3760   14.4040 C   0  0  0  0  0  0  0  0  0  0  0  0
   32.6150   35.1400   13.9170 C   0  0  0  0  0  0  0  0  0  0  0  0
   34.0170   34.7450   14.2390 C   0  0  0  0  0  0  0  0  0  0  0  0
   34.5280   34.0010   13.1830 O   0  0  0  0  0  0  0  0  0  0  0  0
   34.7170   34.5950   12.4120 H   0  0  0  0  0  0  0  0  0  0  0  0
   29.8670   25.5550   16.9770 C   0  0  0  0  0  0  0  0  0  0  0  0
   28.3450   25.7220   17.0260 C   0  0  0  0  0  0  0  0  0  0  0  0
   27.6000   24.4090   16.8370 C   0  0  0  0  0  0  0  0  0  0  0  0
   26.2000   24.4690   17.3810 C   0  0  0  0  0  0  0  0  0  0  0  0
   25.6900   23.0530   17.6310 C   0  0  0  0  0  0  0  0  0  0  0  0
   25.1520   22.9300   19.0060 N   0  0  0  0  0  0  0  0  0  0  0  0
  1  4  1  0  0  0  0
  1  2  1  0  0  0  0
  2 31  1  0  0  0  0
  3  2  2  0  0  0  0
  5  1  1  0  0  0  0
  6  7  1  0  0  0  0
  6  5  1  1  0  0  0
  7 27  1  6  0  0  0
  8 13  1  0  0  0  0
  8  7  1  1  0  0  0
  9 14  1  6  0  0  0
  9 10  1  0  0  0  0
  9 11  1  0  0  0  0
 10 12  1  0  0  0  0
 11  8  1  0  0  0  0
 12 20  1  6  0  0  0
 12 13  1  0  0  0  0
 13 22  1  6  0  0  0
 15 14  1  0  0  0  0
 16 17  2  0  0  0  0
 16  9  1  0  0  0  0
 18 16  1  0  0  0  0
 19 18  1  0  0  0  0
 20 21  1  0  0  0  0
 22 23  1  0  0  0  0
 23 26  2  0  0  0  0
 23 25  1  0  0  0  0
 24 22  1  0  0  0  0
 28 27  1  0  0  0  0
 29  6  1  0  0  0  0
 30 29  1  0  0  0  0
 31 32  1  0  0  0  0
 33 32  1  0  0  0  0
 33 34  2  0  0  0  0
 35 37  2  0  0  0  0
 35 33  1  0  0  0  0
 36 34  1  0  0  0  0
 36 38  1  0  0  0  0
 37 36  1  0  0  0  0
 38 40  2  0  0  0  0
 39 41  2  0  0  0  0
 39 38  1  0  0  0  0
 40 42  1  0  0  0  0
 41 43  1  0  0  0  0
 43 44  1  0  0  0  0
 43 42  2  0  0  0  0
 45 44  1  0  0  0  0
 46 45  1  0  0  0  0
 47 48  1  0  0  0  0
 49 48  1  0  0  0  0
 49 50  1  0  0  0  0
 50 51  1  0  0  0  0
 51 52  1  0  0  0  0
M  END
>  <REMARK>
 VINA RESULT:    -4.944      6.526     11.835
 INTER + INTRA:         -14.725
 INTER:                  -9.243
 INTRA:                  -5.482
 UNBOUND:                -5.735
 SMILES CC(=O)N[C@@H]1[C@@H](O)C[C@](O)(C(=O)O)O[C@H]1C(O)[C@H](O)CNC(=O)OCc1cn(-c2ccc(CO)cn2)nn1
 SMILES IDX 21 1 22 2 23 3 20 5 18 6 16 7 15 8 9 9 8 10 14 11 6 12 5 13
 SMILES IDX 10 14 11 16 12 17 13 18 7 20 4 22 2 23 1 25 3 26 17 27 19 29
 SMILES IDX 24 31 25 32 26 33 27 34 38 35 28 36 37 37 29 38 30 39 36 40
 SMILES IDX 31 41 35 42 32 43 33 44 34 45
 H PARENT 21 4 10 15 13 19 7 21 4 24 17 28 19 30 34 46
 Flexibility Score: inf
  4 active torsions:
  status: ('A' for Active; 'I' for Inactive)
    1  A    between atoms: CA   and  CB  
    2  A    between atoms: CB   and  CG  
    3  A    between atoms: CG   and  CD  
    4  A    between atoms: CD   and  CE  

>  <TORSDO>
F 17

>  <BEGIN_>
RES LYS A 131

$$$$
ligand_59_pose_9_2HRL.pdbqt
 OpenBabel07062320523D

  6  5  0  0  0  0  0  0  0  0999 V2000
   33.1930   34.6630    9.2900 C   0  0  0  0  0  0  0  0  0  0  0  0
   32.0600   35.3600   10.0340 C   0  0  0  0  0  0  0  0  0  0  0  0
   30.7980   35.4950    9.2210 C   0  0  0  0  0  0  0  0  0  0  0  0
   29.6160   34.8900    9.9610 C   0  0  0  0  0  0  0  0  0  0  0  0
   28.8110   33.9940    9.0390 C   0  0  0  0  0  0  0  0  0  0  0  0
   27.4930   33.6500    9.6400 N   0  0  0  0  0  0  0  0  0  0  0  0
  1  2  1  0  0  0  0
  3  4  1  0  0  0  0
  3  2  1  0  0  0  0
  5  6  1  0  0  0  0
  5  4  1  0  0  0  0
M  END
>  <EGIN_R>
ES LYS A 135

>  <REMARK>
  4 active torsions:
  status: ('A' for Active; 'I' for Inactive)
    5  A    between atoms: CA   and  CB  
    6  A    between atoms: CB   and  CG  
    7  A    between atoms: CG   and  CD  
    8  A    between atoms: CD   and  CE  

$$$$
