ligand_47_pose_18_2HRL.pdbqt
 OpenBabel07062320523D

 62 64  0  0  1  0  0  0  0  0999 V2000
   26.4680   36.7210    8.6010 N   0  0  0  0  0  0  0  0  0  0  0  0
   25.4100   36.2930    9.4450 C   0  0  0  0  0  0  0  0  0  0  0  0
   24.2370   36.1990    8.9800 O   0  0  0  0  0  0  0  0  0  0  0  0
   27.4210   36.7740    9.0680 H   0  0  0  0  0  0  0  0  0  0  0  0
   26.2890   37.0620    7.2110 C   0  0  0  0  0  0  0  0  0  0  0  0
   27.6180   37.2740    6.4840 C   0  0  2  0  0  0  0  0  0  0  0  0
   28.2560   38.4730    7.1180 C   0  0  2  0  0  0  0  0  0  0  0  0
   29.0680   39.2960    6.1590 C   0  0  2  0  0  0  0  0  0  0  0  0
   31.1120   40.3840    6.0500 C   0  0  2  0  0  0  0  0  0  0  0  0
   30.6380   40.9030    4.7170 C   0  0  0  0  0  0  0  0  0  0  0  0
   30.3720   39.3560    6.5650 O   0  0  0  0  0  0  0  0  0  0  0  0
   29.1830   41.2260    4.6920 C   0  0  1  0  0  0  0  0  0  0  0  0
   28.5280   40.6930    5.9650 C   0  0  1  0  0  0  0  0  0  0  0  0
   31.1550   41.4670    6.9350 O   0  0  0  0  0  0  0  0  0  0  0  0
   30.2430   41.6980    7.2590 H   0  0  0  0  0  0  0  0  0  0  0  0
   32.5010   39.9020    5.8580 C   0  0  0  0  0  0  0  0  0  0  0  0
   33.1290   40.2340    4.8240 O   0  0  0  0  0  0  0  0  0  0  0  0
   33.1270   39.0960    6.7850 O   0  0  0  0  0  0  0  0  0  0  0  0
   33.2130   39.4130    7.7610 H   0  0  0  0  0  0  0  0  0  0  0  0
   28.8820   42.5450    4.4600 O   0  0  0  0  0  0  0  0  0  0  0  0
   27.9300   42.6530    4.2030 H   0  0  0  0  0  0  0  0  0  0  0  0
   27.0810   40.6800    5.8060 N   0  0  0  0  0  0  0  0  0  0  0  0
   26.3320   41.7520    6.3470 C   0  0  0  0  0  0  0  0  0  0  0  0
   26.6380   39.8940    5.3050 H   0  0  0  0  0  0  0  0  0  0  0  0
   24.8600   41.7910    6.2140 C   0  0  0  0  0  0  0  0  0  0  0  0
   26.9080   42.6910    6.9500 O   0  0  0  0  0  0  0  0  0  0  0  0
   28.9430   38.1110    8.2570 O   0  0  0  0  0  0  0  0  0  0  0  0
   28.3990   38.2120    9.0890 H   0  0  0  0  0  0  0  0  0  0  0  0
   27.2830   37.5320    5.1430 O   0  0  0  0  0  0  0  0  0  0  0  0
   26.7140   38.3570    5.1840 H   0  0  0  0  0  0  0  0  0  0  0  0
   25.6310   35.9770   10.7710 O   0  0  0  0  0  0  0  0  0  0  0  0
   25.9140   36.9890   11.7450 C   0  0  0  0  0  0  0  0  0  0  0  0
   27.3710   37.2200   11.8530 C   0  0  0  0  0  0  0  0  0  0  0  0
   28.1660   36.8700   12.9550 C   0  0  0  0  0  0  0  0  0  0  0  0
   28.2300   37.7770   10.9920 N   0  0  0  0  0  0  0  0  0  0  0  0
   29.4350   37.2130   12.7330 N   0  0  0  0  0  0  0  0  0  0  0  0
   29.4480   37.7760   11.5040 N   0  0  0  0  0  0  0  0  0  0  0  0
   30.6420   37.0750   13.4960 C   0  0  0  0  0  0  0  0  0  0  0  0
   31.4030   35.8040   13.3200 C   0  0  1  0  0  0  0  0  0  0  0  0
   32.5420   35.9820   12.4190 C   0  0  0  0  0  0  0  0  0  0  0  0
   32.6960   36.9110   11.6080 O   0  0  0  0  0  0  0  0  0  0  0  0
   33.5900   35.0360   12.4350 O   0  0  0  0  0  0  0  0  0  0  0  0
   34.3860   35.1970   13.0580 H   0  0  0  0  0  0  0  0  0  0  0  0
   31.8100   35.1970   14.6510 C   0  0  0  0  0  0  0  0  0  0  0  0
   31.0050   33.9950   14.9710 C   0  0  0  0  0  0  0  0  0  0  0  0
   31.5540   32.9170   15.6760 C   0  0  0  0  0  0  0  0  0  0  0  0
   29.6810   33.8780   14.5940 C   0  0  0  0  0  0  0  0  0  0  0  0
   30.8050   31.8000   15.9750 C   0  0  0  0  0  0  0  0  0  0  0  0
   28.9230   32.7730   14.8840 C   0  0  0  0  0  0  0  0  0  0  0  0
   29.4700   31.7230   15.5750 C   0  0  0  0  0  0  0  0  0  0  0  0
   31.7290   36.1310   15.7780 C   0  0  0  0  0  0  0  0  0  0  0  0
   32.8480   36.9330   16.0370 C   0  0  0  0  0  0  0  0  0  0  0  0
   30.6230   36.2640   16.5880 C   0  0  0  0  0  0  0  0  0  0  0  0
   32.8100   37.8230   17.0850 C   0  0  0  0  0  0  0  0  0  0  0  0
   30.5820   37.1540   17.6380 C   0  0  0  0  0  0  0  0  0  0  0  0
   31.6890   37.9540   17.9030 C   0  0  0  0  0  0  0  0  0  0  0  0
   29.8670   25.5550   16.9770 C   0  0  0  0  0  0  0  0  0  0  0  0
   28.3450   25.7220   17.0260 C   0  0  0  0  0  0  0  0  0  0  0  0
   27.6050   24.3930   17.0400 C   0  0  0  0  0  0  0  0  0  0  0  0
   26.3950   24.4290   17.9320 C   0  0  0  0  0  0  0  0  0  0  0  0
   25.2350   23.7150   17.2440 C   0  0  0  0  0  0  0  0  0  0  0  0
   24.1670   24.6790   16.8920 N   0  0  0  0  0  0  0  0  0  0  0  0
  1  4  1  0  0  0  0
  1  2  1  0  0  0  0
  2 31  1  0  0  0  0
  3  2  2  0  0  0  0
  5  1  1  0  0  0  0
  6  7  1  0  0  0  0
  6  5  1  1  0  0  0
  7 27  1  1  0  0  0
  8 11  1  0  0  0  0
  8  7  1  1  0  0  0
  9 16  1  6  0  0  0
  9 11  1  0  0  0  0
  9 14  1  0  0  0  0
 10  9  1  0  0  0  0
 12 20  1  1  0  0  0
 12 10  1  0  0  0  0
 12 13  1  0  0  0  0
 13 22  1  6  0  0  0
 13  8  1  0  0  0  0
 14 15  1  0  0  0  0
 16 18  1  0  0  0  0
 17 16  2  0  0  0  0
 18 19  1  0  0  0  0
 21 20  1  0  0  0  0
 22 23  1  0  0  0  0
 23 26  2  0  0  0  0
 24 22  1  0  0  0  0
 25 23  1  0  0  0  0
 27 28  1  0  0  0  0
 29 30  1  0  0  0  0
 29  6  1  0  0  0  0
 31 32  1  0  0  0  0
 32 33  1  0  0  0  0
 33 34  2  0  0  0  0
 35 37  2  0  0  0  0
 35 33  1  0  0  0  0
 36 34  1  0  0  0  0
 36 38  1  0  0  0  0
 37 36  1  0  0  0  0
 39 38  1  1  0  0  0
 39 44  1  0  0  0  0
 40 42  1  0  0  0  0
 40 39  1  0  0  0  0
 41 40  2  0  0  0  0
 42 43  1  0  0  0  0
 44 45  1  0  0  0  0
 44 51  1  0  0  0  0
 45 46  2  0  0  0  0
 46 48  1  0  0  0  0
 47 49  2  0  0  0  0
 47 45  1  0  0  0  0
 49 50  1  0  0  0  0
 50 48  2  0  0  0  0
 51 52  2  0  0  0  0
 51 53  1  0  0  0  0
 52 54  1  0  0  0  0
 53 55  2  0  0  0  0
 54 56  2  0  0  0  0
 55 56  1  0  0  0  0
 57 58  1  0  0  0  0
 58 59  1  0  0  0  0
 59 60  1  0  0  0  0
 61 60  1  0  0  0  0
 62 61  1  0  0  0  0
M  END
>  <REMARK>
 VINA RESULT:    -5.240      4.820     10.829
 INTER + INTRA:         -17.052
 INTER:                 -10.754
 INTRA:                  -6.299
 UNBOUND:                -6.299
 SMILES CC(=O)N[C@@H]1[C@@H](O)C[C@](O)(C(=O)O)O[C@H]1C(O)[C@H](O)CNC(=O)OCc1cn(C[C@@H](C(=O)O)C(c2ccccc2)c2ccccc2)nn1
 SMILES IDX 21 1 22 2 23 3 20 5 18 6 16 7 15 8 9 9 8 10 14 11 6 12 5 13
 SMILES IDX 10 14 11 16 12 17 13 18 7 20 4 22 2 23 1 25 3 26 17 27 19 29
 SMILES IDX 24 31 25 32 26 33 27 34 48 35 28 36 47 37 29 38 30 39 31 40
 SMILES IDX 32 41 33 42 34 44 35 45 36 46 40 47 37 48 39 49 38 50 41 51
 SMILES IDX 42 52 46 53 43 54 45 55 44 56
 H PARENT 21 4 10 15 13 19 7 21 4 24 17 28 19 30 33 43
 Flexibility Score: inf
  4 active torsions:
  status: ('A' for Active; 'I' for Inactive)
    1  A    between atoms: CA   and  CB  
    2  A    between atoms: CB   and  CG  
    3  A    between atoms: CG   and  CD  
    4  A    between atoms: CD   and  CE  

>  <TORSDO>
F 21

>  <BEGIN_>
RES LYS A 131

$$$$
ligand_47_pose_18_2HRL.pdbqt
 OpenBabel07062320523D

  6  5  0  0  0  0  0  0  0  0999 V2000
   33.1930   34.6630    9.2900 C   0  0  0  0  0  0  0  0  0  0  0  0
   32.0600   35.3600   10.0340 C   0  0  0  0  0  0  0  0  0  0  0  0
   30.7900   35.4700    9.2310 C   0  0  0  0  0  0  0  0  0  0  0  0
   30.1900   34.0950    8.9830 C   0  0  0  0  0  0  0  0  0  0  0  0
   28.7170   34.2090    8.6430 C   0  0  0  0  0  0  0  0  0  0  0  0
   27.8710   33.6320    9.7240 N   0  0  0  0  0  0  0  0  0  0  0  0
  1  2  1  0  0  0  0
  3  2  1  0  0  0  0
  4  3  1  0  0  0  0
  5  4  1  0  0  0  0
  5  6  1  0  0  0  0
M  END
>  <EGIN_R>
ES LYS A 135

>  <REMARK>
  4 active torsions:
  status: ('A' for Active; 'I' for Inactive)
    5  A    between atoms: CA   and  CB  
    6  A    between atoms: CB   and  CG  
    7  A    between atoms: CG   and  CD  
    8  A    between atoms: CD   and  CE  

$$$$
