ligand_1_pose_7_2HRL.pdbqt
 OpenBabel07062320523D

 47 47  0  0  1  0  0  0  0  0999 V2000
   25.3380   36.6630   11.6410 N   0  0  0  0  0  0  0  0  0  0  0  0
   26.0000   35.4460   11.8360 C   0  0  0  0  0  0  0  0  0  0  0  0
   25.9880   34.5900   10.9550 O   0  0  0  0  0  0  0  0  0  0  0  0
   25.4050   37.3440   12.4700 H   0  0  0  0  0  0  0  0  0  0  0  0
   24.6010   37.1250   10.5280 C   0  0  0  0  0  0  0  0  0  0  0  0
   25.3550   37.7820    9.4160 C   0  0  2  0  0  0  0  0  0  0  0  0
   25.4380   36.9200    8.1930 C   0  0  1  0  0  0  0  0  0  0  0  0
   26.7570   36.6170    7.6210 C   0  0  2  0  0  0  0  0  0  0  0  0
   28.8730   35.7860    7.9970 C   0  0  2  0  0  0  0  0  0  0  0  0
   28.8420   35.6130    6.4940 C   0  0  0  0  0  0  0  0  0  0  0  0
   27.6300   36.1010    8.5450 O   0  0  0  0  0  0  0  0  0  0  0  0
   28.3660   36.8950    5.8240 C   0  0  1  0  0  0  0  0  0  0  0  0
   27.4390   37.6540    6.7950 C   0  0  1  0  0  0  0  0  0  0  0  0
   29.7360   36.8200    8.3530 O   0  0  0  0  0  0  0  0  0  0  0  0
   30.5440   36.8530    7.7930 H   0  0  0  0  0  0  0  0  0  0  0  0
   29.3160   34.5430    8.6690 C   0  0  0  0  0  0  0  0  0  0  0  0
   30.5000   34.1230    8.6150 O   0  0  0  0  0  0  0  0  0  0  0  0
   28.3970   33.8030    9.3900 O   0  0  0  0  0  0  0  0  0  0  0  0
   27.6720   33.2660    8.8910 H   0  0  0  0  0  0  0  0  0  0  0  0
   29.4680   37.6710    5.4920 O   0  0  0  0  0  0  0  0  0  0  0  0
   29.4060   38.5040    6.0300 H   0  0  0  0  0  0  0  0  0  0  0  0
   26.5450   38.4870    6.0170 N   0  0  0  0  0  0  0  0  0  0  0  0
   26.8690   39.8570    5.8450 C   0  0  0  0  0  0  0  0  0  0  0  0
   25.6700   38.1060    5.5810 H   0  0  0  0  0  0  0  0  0  0  0  0
   26.0110   40.7890    5.0650 C   0  0  0  0  0  0  0  0  0  0  0  0
   27.9140   40.3120    6.3650 O   0  0  0  0  0  0  0  0  0  0  0  0
   24.7960   35.6950    8.6100 O   0  0  0  0  0  0  0  0  0  0  0  0
   23.9360   35.6350    8.1610 H   0  0  0  0  0  0  0  0  0  0  0  0
   26.5530   38.2620    9.8290 O   0  0  0  0  0  0  0  0  0  0  0  0
   27.2820   37.6140    9.8910 H   0  0  0  0  0  0  0  0  0  0  0  0
   26.6850   35.1690   13.0170 O   0  0  0  0  0  0  0  0  0  0  0  0
   28.0890   35.2820   13.1060 C   0  0  0  0  0  0  0  0  0  0  0  0
   28.5130   36.6090   12.5980 C   0  0  0  0  0  0  0  0  0  0  0  0
   28.5250   37.8000   13.2810 C   0  0  0  0  0  0  0  0  0  0  0  0
   28.9580   36.8680   11.3770 N   0  0  0  0  0  0  0  0  0  0  0  0
   28.9850   38.7200   12.4150 N   0  0  0  0  0  0  0  0  0  0  0  0
   29.2520   38.1580   11.2480 N   0  0  0  0  0  0  0  0  0  0  0  0
   29.1560   40.1230   12.7330 C   0  0  0  0  0  0  0  0  0  0  0  0
   30.5380   40.3170   13.3500 C   0  0  0  0  0  0  0  0  0  0  0  0
   31.4830   39.6340   12.5570 O   0  0  0  0  0  0  0  0  0  0  0  0
   31.0320   38.8800   12.0680 H   0  0  0  0  0  0  0  0  0  0  0  0
   29.8670   25.5550   16.9770 C   0  0  0  0  0  0  0  0  0  0  0  0
   28.3450   25.7220   17.0260 C   0  0  0  0  0  0  0  0  0  0  0  0
   27.5990   24.4760   16.5730 C   0  0  0  0  0  0  0  0  0  0  0  0
   27.0150   23.7140   17.7300 C   0  0  0  0  0  0  0  0  0  0  0  0
   25.5040   23.6010   17.5540 C   0  0  0  0  0  0  0  0  0  0  0  0
   24.8270   24.8030   18.0970 N   0  0  0  0  0  0  0  0  0  0  0  0
  1  2  1  0  0  0  0
  1  4  1  0  0  0  0
  2 31  1  0  0  0  0
  3  2  2  0  0  0  0
  5  1  1  0  0  0  0
  6 29  1  0  0  0  0
  6  5  1  1  0  0  0
  7 27  1  1  0  0  0
  7  6  1  0  0  0  0
  8  7  1  1  0  0  0
  8 11  1  0  0  0  0
  9 14  1  1  0  0  0
  9 11  1  0  0  0  0
  9 16  1  0  0  0  0
 10  9  1  0  0  0  0
 12 20  1  1  0  0  0
 12 10  1  0  0  0  0
 12 13  1  0  0  0  0
 13 22  1  6  0  0  0
 13  8  1  0  0  0  0
 15 14  1  0  0  0  0
 16 18  1  0  0  0  0
 17 16  2  0  0  0  0
 19 18  1  0  0  0  0
 20 21  1  0  0  0  0
 23 22  1  0  0  0  0
 23 26  2  0  0  0  0
 24 22  1  0  0  0  0
 25 23  1  0  0  0  0
 28 27  1  0  0  0  0
 29 30  1  0  0  0  0
 31 32  1  0  0  0  0
 33 32  1  0  0  0  0
 33 34  2  0  0  0  0
 35 33  1  0  0  0  0
 36 38  1  0  0  0  0
 36 34  1  0  0  0  0
 37 35  2  0  0  0  0
 37 36  1  0  0  0  0
 38 39  1  0  0  0  0
 40 39  1  0  0  0  0
 41 40  1  0  0  0  0
 42 43  1  0  0  0  0
 44 43  1  0  0  0  0
 44 45  1  0  0  0  0
 46 45  1  0  0  0  0
 46 47  1  0  0  0  0
M  END
>  <REMARK>
 VINA RESULT:    -3.214      3.902      6.490
 INTER + INTRA:         -13.417
 INTER:                  -7.813
 INTRA:                  -5.604
 UNBOUND:                -7.572
 SMILES CC(=O)N[C@@H]1[C@@H](O)C[C@](O)(C(=O)O)O[C@H]1C(O)[C@H](O)CNC(=O)OCc1cn(CCO)nn1
 SMILES IDX 21 1 22 2 23 3 20 5 18 6 16 7 15 8 9 9 8 10 14 11 6 12 5 13
 SMILES IDX 10 14 11 16 12 17 13 18 7 20 4 22 2 23 1 25 3 26 17 27 19 29
 SMILES IDX 24 31 25 32 26 33 27 34 33 35 28 36 32 37 29 38 30 39 31 40
 H PARENT 21 4 10 15 13 19 7 21 4 24 17 28 19 30 31 41
 Flexibility Score: inf
  4 active torsions:
  status: ('A' for Active; 'I' for Inactive)
    1  A    between atoms: CA   and  CB  
    2  A    between atoms: CB   and  CG  
    3  A    between atoms: CG   and  CD  
    4  A    between atoms: CD   and  CE  

>  <TORSDO>
F 17

>  <BEGIN_>
RES LYS A 131

$$$$
ligand_1_pose_7_2HRL.pdbqt
 OpenBabel07062320523D

  6  5  0  0  0  0  0  0  0  0999 V2000
   33.1930   34.6630    9.2900 C   0  0  0  0  0  0  0  0  0  0  0  0
   32.0600   35.3600   10.0340 C   0  0  0  0  0  0  0  0  0  0  0  0
   32.4990   36.0260   11.3120 C   0  0  0  0  0  0  0  0  0  0  0  0
   31.8870   35.3300   12.5180 C   0  0  0  0  0  0  0  0  0  0  0  0
   32.6560   35.6740   13.7790 C   0  0  0  0  0  0  0  0  0  0  0  0
   33.8380   34.7840   13.9470 N   0  0  0  0  0  0  0  0  0  0  0  0
  1  2  1  0  0  0  0
  2  3  1  0  0  0  0
  3  4  1  0  0  0  0
  4  5  1  0  0  0  0
  5  6  1  0  0  0  0
M  END
>  <EGIN_R>
ES LYS A 135

>  <REMARK>
  4 active torsions:
  status: ('A' for Active; 'I' for Inactive)
    5  A    between atoms: CA   and  CB  
    6  A    between atoms: CB   and  CG  
    7  A    between atoms: CG   and  CD  
    8  A    between atoms: CD   and  CE  

$$$$
