ligand_72_pose_19_2HRL.pdbqt
 OpenBabel07062320523D

 49 49  0  0  1  0  0  0  0  0999 V2000
   25.4930   41.4110    7.1470 N   0  0  0  0  0  0  0  0  0  0  0  0
   26.6320   41.5510    6.2910 C   0  0  0  0  0  0  0  0  0  0  0  0
   26.6060   41.1460    5.0800 O   0  0  0  0  0  0  0  0  0  0  0  0
   25.5630   41.7690    8.1180 H   0  0  0  0  0  0  0  0  0  0  0  0
   24.2860   40.8000    6.6340 C   0  0  0  0  0  0  0  0  0  0  0  0
   23.7340   39.7610    7.5290 C   0  0  2  0  0  0  0  0  0  0  0  0
   24.0590   38.3430    7.2460 C   0  0  1  0  0  0  0  0  0  0  0  0
   25.0900   37.8070    8.2080 C   0  0  2  0  0  0  0  0  0  0  0  0
   27.0890   37.8650    6.9460 C   0  0  2  0  0  0  0  0  0  0  0  0
   27.1000   36.3250    6.9250 C   0  0  0  0  0  0  0  0  0  0  0  0
   26.3220   38.3690    7.9460 O   0  0  0  0  0  0  0  0  0  0  0  0
   26.6150   35.9080    8.2730 C   0  0  1  0  0  0  0  0  0  0  0  0
   25.1150   36.3140    8.3370 C   0  0  1  0  0  0  0  0  0  0  0  0
   26.8120   38.3200    5.6730 O   0  0  0  0  0  0  0  0  0  0  0  0
   27.6500   38.4310    5.1650 H   0  0  0  0  0  0  0  0  0  0  0  0
   28.5070   38.2960    7.2630 C   0  0  0  0  0  0  0  0  0  0  0  0
   28.7600   38.9620    8.2950 O   0  0  0  0  0  0  0  0  0  0  0  0
   29.5050   37.9330    6.3850 O   0  0  0  0  0  0  0  0  0  0  0  0
   29.2950   37.4920    5.4960 H   0  0  0  0  0  0  0  0  0  0  0  0
   26.7460   34.5560    8.5200 O   0  0  0  0  0  0  0  0  0  0  0  0
   27.5170   34.2380    7.9800 H   0  0  0  0  0  0  0  0  0  0  0  0
   24.7350   35.8460    9.6800 N   0  0  0  0  0  0  0  0  0  0  0  0
   23.4400   35.4350   10.0140 C   0  0  0  0  0  0  0  0  0  0  0  0
   25.4880   35.8290   10.3980 H   0  0  0  0  0  0  0  0  0  0  0  0
   23.0340   34.9640   11.3630 C   0  0  0  0  0  0  0  0  0  0  0  0
   22.5500   35.4630    9.1190 O   0  0  0  0  0  0  0  0  0  0  0  0
   23.0580   37.5010    6.8940 O   0  0  0  0  0  0  0  0  0  0  0  0
   22.5800   37.0760    7.6530 H   0  0  0  0  0  0  0  0  0  0  0  0
   22.3270   39.8890    7.5800 O   0  0  0  0  0  0  0  0  0  0  0  0
   21.9610   39.4640    6.7730 H   0  0  0  0  0  0  0  0  0  0  0  0
   27.7620   42.1350    6.8030 O   0  0  0  0  0  0  0  0  0  0  0  0
   28.8540   42.5170    6.0210 C   0  0  0  0  0  0  0  0  0  0  0  0
   30.0190   41.6220    6.2440 C   0  0  0  0  0  0  0  0  0  0  0  0
   30.8060   41.6340    7.3690 C   0  0  0  0  0  0  0  0  0  0  0  0
   30.5150   40.6770    5.4460 N   0  0  0  0  0  0  0  0  0  0  0  0
   31.7550   40.7020    7.2320 N   0  0  0  0  0  0  0  0  0  0  0  0
   31.5510   40.1310    6.0420 N   0  0  0  0  0  0  0  0  0  0  0  0
   32.7800   40.4010    8.1970 C   0  0  0  0  0  0  0  0  0  0  0  0
   33.0960   41.6170    9.0420 C   0  0  0  0  0  0  0  0  0  0  0  0
   34.0270   39.9390    7.4540 C   0  0  0  0  0  0  0  0  0  0  0  0
   32.3390   39.2510    9.0650 C   0  0  0  0  0  0  0  0  0  0  0  0
   31.7790   38.2430    8.2740 O   0  0  0  0  0  0  0  0  0  0  0  0
   32.1990   37.3800    8.5220 H   0  0  0  0  0  0  0  0  0  0  0  0
   29.8670   25.5550   16.9770 C   0  0  0  0  0  0  0  0  0  0  0  0
   28.3450   25.7220   17.0260 C   0  0  0  0  0  0  0  0  0  0  0  0
   27.6010   24.4020   16.8900 C   0  0  0  0  0  0  0  0  0  0  0  0
   26.1590   24.5200   17.2990 C   0  0  0  0  0  0  0  0  0  0  0  0
   25.7940   23.3600   18.2200 C   0  0  0  0  0  0  0  0  0  0  0  0
   24.8000   22.4740   17.5690 N   0  0  0  0  0  0  0  0  0  0  0  0
  1  4  1  0  0  0  0
  2 31  1  0  0  0  0
  2  1  1  0  0  0  0
  3  2  2  0  0  0  0
  5  1  1  0  0  0  0
  6  5  1  6  0  0  0
  6 29  1  0  0  0  0
  7 27  1  1  0  0  0
  7  6  1  0  0  0  0
  8  7  1  6  0  0  0
  8 13  1  0  0  0  0
  9 14  1  6  0  0  0
  9 16  1  0  0  0  0
  9 11  1  0  0  0  0
 10  9  1  0  0  0  0
 10 12  1  0  0  0  0
 11  8  1  0  0  0  0
 12 13  1  0  0  0  0
 12 20  1  6  0  0  0
 13 22  1  1  0  0  0
 15 14  1  0  0  0  0
 16 17  2  0  0  0  0
 18 16  1  0  0  0  0
 19 18  1  0  0  0  0
 21 20  1  0  0  0  0
 22 23  1  0  0  0  0
 22 24  1  0  0  0  0
 23 25  1  0  0  0  0
 26 23  2  0  0  0  0
 27 28  1  0  0  0  0
 30 29  1  0  0  0  0
 32 33  1  0  0  0  0
 32 31  1  0  0  0  0
 33 34  2  0  0  0  0
 35 37  2  0  0  0  0
 35 33  1  0  0  0  0
 36 34  1  0  0  0  0
 36 38  1  0  0  0  0
 37 36  1  0  0  0  0
 38 39  1  0  0  0  0
 38 41  1  0  0  0  0
 40 38  1  0  0  0  0
 42 43  1  0  0  0  0
 42 41  1  0  0  0  0
 44 45  1  0  0  0  0
 46 45  1  0  0  0  0
 46 47  1  0  0  0  0
 47 48  1  0  0  0  0
 49 48  1  0  0  0  0
M  END
>  <REMARK>
 VINA RESULT:    -4.125      2.084      3.086
 INTER + INTRA:         -13.646
 INTER:                  -8.057
 INTRA:                  -5.589
 UNBOUND:                -6.145
 SMILES CC(=O)N[C@@H]1[C@@H](O)C[C@](O)(C(=O)O)O[C@H]1C(O)[C@H](O)CNC(=O)OCc1cn(C(C)(C)CO)nn1
 SMILES IDX 21 1 22 2 23 3 20 5 18 6 16 7 15 8 9 9 8 10 14 11 6 12 5 13
 SMILES IDX 10 14 11 16 12 17 13 18 7 20 4 22 2 23 1 25 3 26 17 27 19 29
 SMILES IDX 24 31 25 32 26 33 27 34 35 35 28 36 34 37 29 38 30 39 31 40
 SMILES IDX 32 41 33 42
 H PARENT 21 4 10 15 13 19 7 21 4 24 17 28 19 30 33 43
 Flexibility Score: inf
  4 active torsions:
  status: ('A' for Active; 'I' for Inactive)
    1  A    between atoms: CA   and  CB  
    2  A    between atoms: CB   and  CG  
    3  A    between atoms: CG   and  CD  
    4  A    between atoms: CD   and  CE  

>  <TORSDO>
F 17

>  <BEGIN_>
RES LYS A 131

$$$$
ligand_72_pose_19_2HRL.pdbqt
 OpenBabel07062320523D

  6  5  0  0  0  0  0  0  0  0999 V2000
   33.1930   34.6630    9.2900 C   0  0  0  0  0  0  0  0  0  0  0  0
   32.0600   35.3600   10.0340 C   0  0  0  0  0  0  0  0  0  0  0  0
   32.5070   36.0640   11.2890 C   0  0  0  0  0  0  0  0  0  0  0  0
   31.3830   36.9180   11.8550 C   0  0  0  0  0  0  0  0  0  0  0  0
   30.1450   36.8140   10.9840 C   0  0  0  0  0  0  0  0  0  0  0  0
   28.9120   36.7150   11.8140 N   0  0  0  0  0  0  0  0  0  0  0  0
  1  2  1  0  0  0  0
  2  3  1  0  0  0  0
  3  4  1  0  0  0  0
  5  6  1  0  0  0  0
  5  4  1  0  0  0  0
M  END
>  <EGIN_R>
ES LYS A 135

>  <REMARK>
  4 active torsions:
  status: ('A' for Active; 'I' for Inactive)
    5  A    between atoms: CA   and  CB  
    6  A    between atoms: CB   and  CG  
    7  A    between atoms: CG   and  CD  
    8  A    between atoms: CD   and  CE  

$$$$
