ligand_11_pose_1_2HRL.pdbqt
 OpenBabel07062320523D

 54 54  0  0  1  0  0  0  0  0999 V2000
   28.1680   30.9740   16.8470 O   0  0  0  0  0  0  0  0  0  0  0  0
   27.5560   29.7720   17.2250 C   0  0  0  0  0  0  0  0  0  0  0  0
   28.0270   28.9830   18.2840 N   0  0  0  0  0  0  0  0  0  0  0  0
   28.9010   29.3590   18.7830 H   0  0  0  0  0  0  0  0  0  0  0  0
   26.5600   29.4260   16.5700 O   0  0  0  0  0  0  0  0  0  0  0  0
   27.4730   27.7480   18.7600 C   0  0  0  0  0  0  0  0  0  0  0  0
   27.7600   27.5330   20.1930 C   0  0  2  0  0  0  0  0  0  0  0  0
   29.2320   27.6670   20.5380 C   0  0  1  0  0  0  0  0  0  0  0  0
   29.4540   28.8720   21.4580 C   0  0  2  0  0  0  0  0  0  0  0  0
   30.6740   30.4610   20.2490 C   0  0  2  0  0  0  0  0  0  0  0  0
   31.8590   29.5910   20.5600 C   0  0  0  0  0  0  0  0  0  0  0  0
   29.4970   30.0550   20.7980 O   0  0  0  0  0  0  0  0  0  0  0  0
   31.9020   29.0350   21.9380 C   0  0  1  0  0  0  0  0  0  0  0  0
   30.5530   28.6110   22.4430 C   0  0  1  0  0  0  0  0  0  0  0  0
   30.5300   30.4330   18.8610 O   0  0  0  0  0  0  0  0  0  0  0  0
   30.4560   29.5180   18.5190 H   0  0  0  0  0  0  0  0  0  0  0  0
   30.9660   31.8640   20.6370 C   0  0  0  0  0  0  0  0  0  0  0  0
   30.8450   32.2230   21.8320 O   0  0  0  0  0  0  0  0  0  0  0  0
   31.3760   32.8170   19.7090 O   0  0  0  0  0  0  0  0  0  0  0  0
   31.5630   32.4730   18.7670 H   0  0  0  0  0  0  0  0  0  0  0  0
   32.7480   27.9270   21.9270 O   0  0  0  0  0  0  0  0  0  0  0  0
   33.6270   28.1510   21.5210 H   0  0  0  0  0  0  0  0  0  0  0  0
   30.2010   29.2370   23.6840 N   0  0  0  0  0  0  0  0  0  0  0  0
   29.5580   28.4790   24.6950 C   0  0  0  0  0  0  0  0  0  0  0  0
   30.4180   30.2640   23.8460 H   0  0  0  0  0  0  0  0  0  0  0  0
   29.1930   29.1220   25.9740 C   0  0  0  0  0  0  0  0  0  0  0  0
   29.2790   27.2580   24.5480 O   0  0  0  0  0  0  0  0  0  0  0  0
   29.6540   26.5190   21.1810 O   0  0  0  0  0  0  0  0  0  0  0  0
   28.8560   26.0050   21.4640 H   0  0  0  0  0  0  0  0  0  0  0  0
   27.1900   26.4070   20.6920 O   0  0  0  0  0  0  0  0  0  0  0  0
   26.2100   26.3580   20.6210 H   0  0  0  0  0  0  0  0  0  0  0  0
   28.9620   31.0170   15.6650 C   0  0  0  0  0  0  0  0  0  0  0  0
   30.0140   32.0220   15.7460 C   0  0  0  0  0  0  0  0  0  0  0  0
   30.5220   32.8080   14.7480 C   0  0  0  0  0  0  0  0  0  0  0  0
   30.6930   32.3720   16.8490 N   0  0  0  0  0  0  0  0  0  0  0  0
   31.4800   33.6070   15.2390 N   0  0  0  0  0  0  0  0  0  0  0  0
   31.5590   33.3160   16.5230 N   0  0  0  0  0  0  0  0  0  0  0  0
   32.3150   34.6070   14.5970 C   0  0  1  0  0  0  0  0  0  0  0  0
   31.6570   35.1220   13.3700 C   0  0  0  0  0  0  0  0  0  0  0  0
   32.4210   36.1220   12.5860 C   0  0  0  0  0  0  0  0  0  0  0  0
   31.7810   37.4350   12.5180 C   0  0  0  0  0  0  0  0  0  0  0  0
   31.1830   37.9390   13.5310 O   0  0  0  0  0  0  0  0  0  0  0  0
   31.8120   38.1640   11.3270 O   0  0  0  0  0  0  0  0  0  0  0  0
   31.8450   39.1710   11.4010 H   0  0  0  0  0  0  0  0  0  0  0  0
   32.8760   35.5800   15.5190 C   0  0  0  0  0  0  0  0  0  0  0  0
   34.0630   35.6960   15.8180 O   0  0  0  0  0  0  0  0  0  0  0  0
   31.9710   36.4680   16.1310 O   0  0  0  0  0  0  0  0  0  0  0  0
   31.4910   36.1690   16.9620 H   0  0  0  0  0  0  0  0  0  0  0  0
   29.8670   25.5550   16.9770 C   0  0  0  0  0  0  0  0  0  0  0  0
   28.3450   25.7220   17.0260 C   0  0  0  0  0  0  0  0  0  0  0  0
   27.6000   24.4120   16.8180 C   0  0  0  0  0  0  0  0  0  0  0  0
   26.6670   24.1040   17.9560 C   0  0  0  0  0  0  0  0  0  0  0  0
   25.5580   23.1780   17.4690 C   0  0  0  0  0  0  0  0  0  0  0  0
   24.2730   23.9100   17.3760 N   0  0  0  0  0  0  0  0  0  0  0  0
  1  2  1  0  0  0  0
  2  3  1  0  0  0  0
  3  6  1  0  0  0  0
  3  4  1  0  0  0  0
  5  2  2  0  0  0  0
  7  6  1  6  0  0  0
  7  8  1  0  0  0  0
  7 30  1  0  0  0  0
  8 28  1  1  0  0  0
  9  8  1  6  0  0  0
  9 14  1  0  0  0  0
 10 15  1  6  0  0  0
 10 11  1  0  0  0  0
 10 17  1  0  0  0  0
 10 12  1  0  0  0  0
 11 13  1  0  0  0  0
 12  9  1  0  0  0  0
 13 21  1  6  0  0  0
 13 14  1  0  0  0  0
 14 23  1  1  0  0  0
 16 15  1  0  0  0  0
 17 18  2  0  0  0  0
 19 17  1  0  0  0  0
 20 19  1  0  0  0  0
 22 21  1  0  0  0  0
 23 25  1  0  0  0  0
 23 24  1  0  0  0  0
 24 26  1  0  0  0  0
 27 24  2  0  0  0  0
 28 29  1  0  0  0  0
 31 30  1  0  0  0  0
 32 33  1  0  0  0  0
 32  1  1  0  0  0  0
 33 35  1  0  0  0  0
 34 36  1  0  0  0  0
 34 33  2  0  0  0  0
 36 37  1  0  0  0  0
 37 35  2  0  0  0  0
 38 39  1  6  0  0  0
 38 36  1  0  0  0  0
 38 45  1  0  0  0  0
 40 39  1  0  0  0  0
 41 40  1  0  0  0  0
 41 42  2  0  0  0  0
 43 44  1  0  0  0  0
 43 41  1  0  0  0  0
 45 46  2  0  0  0  0
 45 47  1  0  0  0  0
 47 48  1  0  0  0  0
 49 50  1  0  0  0  0
 51 50  1  0  0  0  0
 51 52  1  0  0  0  0
 53 52  1  0  0  0  0
 54 53  1  0  0  0  0
M  END
>  <REMARK>
 VINA RESULT:    -4.261      6.448     11.838
 INTER + INTRA:         -16.058
 INTER:                  -9.478
 INTRA:                  -6.580
 UNBOUND:                -7.438
 SMILES CC(=O)N[C@@H]1[C@@H](O)C[C@](O)(C(=O)O)O[C@H]1C(O)[C@H](O)CNC(=O)OCc1cn([C@@H](CCC(=O)O)C(=O)O)nn1
 SMILES IDX 24 1 22 2 21 3 23 5 20 6 18 7 16 8 15 9 9 10 8 11 14 12 6 13
 SMILES IDX 5 14 10 15 11 17 12 18 13 19 7 21 4 23 2 24 1 26 3 27 17 28
 SMILES IDX 19 30 25 32 26 33 27 34 39 35 28 36 38 37 29 38 30 39 31 40
 SMILES IDX 32 41 33 42 34 43 35 45 36 46 37 47
 H PARENT 21 4 10 16 13 20 7 22 4 25 17 29 19 31 34 44 37 48
 Flexibility Score: inf
  4 active torsions:
  status: ('A' for Active; 'I' for Inactive)
    1  A    between atoms: CA   and  CB  
    2  A    between atoms: CB   and  CG  
    3  A    between atoms: CG   and  CD  
    4  A    between atoms: CD   and  CE  

>  <TORSDO>
F 21

>  <BEGIN_>
RES LYS A 131

$$$$
ligand_11_pose_1_2HRL.pdbqt
 OpenBabel07062320523D

  6  5  0  0  0  0  0  0  0  0999 V2000
   33.1930   34.6630    9.2900 C   0  0  0  0  0  0  0  0  0  0  0  0
   32.0600   35.3600   10.0340 C   0  0  0  0  0  0  0  0  0  0  0  0
   30.7840   35.4530    9.2380 C   0  0  0  0  0  0  0  0  0  0  0  0
   30.2330   34.0670    8.9430 C   0  0  0  0  0  0  0  0  0  0  0  0
   28.7580   33.9950    9.2900 C   0  0  0  0  0  0  0  0  0  0  0  0
   28.4040   34.9930   10.3370 N   0  0  0  0  0  0  0  0  0  0  0  0
  1  2  1  0  0  0  0
  3  2  1  0  0  0  0
  4  3  1  0  0  0  0
  4  5  1  0  0  0  0
  5  6  1  0  0  0  0
M  END
>  <EGIN_R>
ES LYS A 135

>  <REMARK>
  4 active torsions:
  status: ('A' for Active; 'I' for Inactive)
    5  A    between atoms: CA   and  CB  
    6  A    between atoms: CB   and  CG  
    7  A    between atoms: CG   and  CD  
    8  A    between atoms: CD   and  CE  

$$$$
