ligand_85_pose_6_2HRL.pdbqt
 OpenBabel07062320523D

 55 56  0  0  1  0  0  0  0  0999 V2000
   26.3180   29.1540   18.2690 N   0  0  0  0  0  0  0  0  0  0  0  0
   26.9990   29.0100   17.0500 C   0  0  0  0  0  0  0  0  0  0  0  0
   27.4280   27.8940   16.6970 O   0  0  0  0  0  0  0  0  0  0  0  0
   25.9590   30.0930   18.5540 H   0  0  0  0  0  0  0  0  0  0  0  0
   26.0860   28.0480   19.1610 C   0  0  0  0  0  0  0  0  0  0  0  0
   26.6740   28.3520   20.5150 C   0  0  2  0  0  0  0  0  0  0  0  0
   28.1600   28.1070   20.5710 C   0  0  2  0  0  0  0  0  0  0  0  0
   28.9050   29.3840   20.6650 C   0  0  2  0  0  0  0  0  0  0  0  0
   29.5190   31.3550   19.6660 C   0  0  2  0  0  0  0  0  0  0  0  0
   29.9140   31.6700   21.0860 C   0  0  0  0  0  0  0  0  0  0  0  0
   29.0780   30.0690   19.4740 O   0  0  0  0  0  0  0  0  0  0  0  0
   30.7250   30.5930   21.7280 C   0  0  1  0  0  0  0  0  0  0  0  0
   30.2990   29.2030   21.2650 C   0  0  1  0  0  0  0  0  0  0  0  0
   30.6650   31.5060   18.8650 O   0  0  0  0  0  0  0  0  0  0  0  0
   30.4040   32.1640   18.1510 H   0  0  0  0  0  0  0  0  0  0  0  0
   28.4850   32.2740   19.1780 C   0  0  0  0  0  0  0  0  0  0  0  0
   27.2910   31.8910   19.1170 O   0  0  0  0  0  0  0  0  0  0  0  0
   28.7340   33.5740   18.7670 O   0  0  0  0  0  0  0  0  0  0  0  0
   29.7170   33.8880   18.7990 H   0  0  0  0  0  0  0  0  0  0  0  0
   32.0820   30.8200   21.4230 O   0  0  0  0  0  0  0  0  0  0  0  0
   32.1610   30.6750   20.4420 H   0  0  0  0  0  0  0  0  0  0  0  0
   30.3140   28.2490   22.3200 N   0  0  0  0  0  0  0  0  0  0  0  0
   31.5360   27.6760   22.7520 C   0  0  0  0  0  0  0  0  0  0  0  0
   29.4400   27.9530   22.7960 H   0  0  0  0  0  0  0  0  0  0  0  0
   31.5000   26.6740   23.8700 C   0  0  0  0  0  0  0  0  0  0  0  0
   32.6450   27.9510   22.2600 O   0  0  0  0  0  0  0  0  0  0  0  0
   28.5330   27.2690   19.5500 O   0  0  0  0  0  0  0  0  0  0  0  0
   29.5140   27.4290   19.3760 H   0  0  0  0  0  0  0  0  0  0  0  0
   26.0990   27.4720   21.4850 O   0  0  0  0  0  0  0  0  0  0  0  0
   26.2900   27.7810   22.3930 H   0  0  0  0  0  0  0  0  0  0  0  0
   27.2370   30.0670   16.1780 O   0  0  0  0  0  0  0  0  0  0  0  0
   28.5320   30.2470   15.6390 C   0  0  0  0  0  0  0  0  0  0  0  0
   28.9210   31.6640   15.6580 C   0  0  0  0  0  0  0  0  0  0  0  0
   30.1710   32.2380   15.5500 C   0  0  0  0  0  0  0  0  0  0  0  0
   28.0700   32.6960   15.7940 N   0  0  0  0  0  0  0  0  0  0  0  0
   30.0500   33.5910   15.6200 N   0  0  0  0  0  0  0  0  0  0  0  0
   28.7680   33.8200   15.7670 N   0  0  0  0  0  0  0  0  0  0  0  0
   31.0810   34.5660   15.5520 C   0  0  0  0  0  0  0  0  0  0  0  0
   31.9680   34.7340   16.6050 C   0  0  0  0  0  0  0  0  0  0  0  0
   31.1950   35.3470   14.4260 C   0  0  0  0  0  0  0  0  0  0  0  0
   32.9720   35.6690   16.5590 C   0  0  0  0  0  0  0  0  0  0  0  0
   32.1960   36.3010   14.3450 C   0  0  0  0  0  0  0  0  0  0  0  0
   34.1040   35.8920   17.8900 Cl  0  0  0  0  0  0  0  0  0  0  0  0
   33.0710   36.4440   15.4220 C   0  0  0  0  0  0  0  0  0  0  0  0
   30.2650   35.1600   13.3370 C   0  0  0  0  0  0  0  0  0  0  0  0
   30.3990   34.2590   12.4620 O   0  0  0  0  0  0  0  0  0  0  0  0
   29.1420   36.0100   13.2180 N   0  0  0  0  0  0  0  0  0  0  0  0
   28.9470   37.0540   14.1950 C   0  0  0  0  0  0  0  0  0  0  0  0
   28.1730   35.8670   12.1420 C   0  0  0  0  0  0  0  0  0  0  0  0
   29.8670   25.5550   16.9770 C   0  0  0  0  0  0  0  0  0  0  0  0
   28.3450   25.7220   17.0260 C   0  0  0  0  0  0  0  0  0  0  0  0
   27.6010   24.4010   16.9000 C   0  0  0  0  0  0  0  0  0  0  0  0
   26.4480   24.3070   17.8590 C   0  0  0  0  0  0  0  0  0  0  0  0
   25.6450   23.0430   17.5670 C   0  0  0  0  0  0  0  0  0  0  0  0
   24.2910   23.3920   17.0750 N   0  0  0  0  0  0  0  0  0  0  0  0
  1  4  1  0  0  0  0
  1  5  1  0  0  0  0
  2  1  1  0  0  0  0
  3  2  2  0  0  0  0
  6  5  1  6  0  0  0
  6  7  1  0  0  0  0
  6 29  1  0  0  0  0
  7 27  1  6  0  0  0
  8  7  1  6  0  0  0
  8 13  1  0  0  0  0
  9 14  1  6  0  0  0
  9 10  1  0  0  0  0
 10 12  1  0  0  0  0
 11  9  1  0  0  0  0
 11  8  1  0  0  0  0
 12 20  1  6  0  0  0
 13 12  1  0  0  0  0
 13 22  1  1  0  0  0
 15 14  1  0  0  0  0
 16  9  1  0  0  0  0
 17 16  2  0  0  0  0
 18 19  1  0  0  0  0
 18 16  1  0  0  0  0
 21 20  1  0  0  0  0
 22 23  1  0  0  0  0
 22 24  1  0  0  0  0
 23 25  1  0  0  0  0
 26 23  2  0  0  0  0
 28 27  1  0  0  0  0
 29 30  1  0  0  0  0
 31  2  1  0  0  0  0
 32 33  1  0  0  0  0
 32 31  1  0  0  0  0
 33 35  1  0  0  0  0
 34 36  1  0  0  0  0
 34 33  2  0  0  0  0
 36 37  1  0  0  0  0
 37 35  2  0  0  0  0
 38 36  1  0  0  0  0
 38 39  2  0  0  0  0
 40 38  1  0  0  0  0
 41 39  1  0  0  0  0
 41 43  1  0  0  0  0
 42 40  2  0  0  0  0
 42 44  1  0  0  0  0
 44 41  2  0  0  0  0
 45 40  1  0  0  0  0
 46 45  2  0  0  0  0
 47 45  1  0  0  0  0
 47 48  1  0  0  0  0
 49 47  1  0  0  0  0
 50 51  1  0  0  0  0
 52 51  1  0  0  0  0
 52 53  1  0  0  0  0
 54 53  1  0  0  0  0
 55 54  1  0  0  0  0
M  END
>  <REMARK>
 VINA RESULT:    -4.869      5.677     11.209
 INTER + INTRA:         -14.899
 INTER:                  -8.177
 INTRA:                  -6.722
 UNBOUND:                -6.187
 SMILES CC(=O)N[C@@H]1[C@@H](O)C[C@](O)(C(=O)O)O[C@H]1C(O)[C@H](O)CNC(=O)OCc1cn(-c2cc(Cl)ccc2C(=O)N(C)C)nn1
 SMILES IDX 21 1 22 2 23 3 20 5 18 6 16 7 15 8 9 9 8 10 14 11 6 12 5 13
 SMILES IDX 10 14 11 16 12 17 13 18 7 20 4 22 2 23 1 25 3 26 17 27 19 29
 SMILES IDX 24 31 25 32 26 33 27 34 42 35 28 36 41 37 29 38 30 39 35 40
 SMILES IDX 31 41 34 42 32 43 33 44 36 45 37 46 38 47 39 48 40 49
 H PARENT 21 4 10 15 13 19 7 21 4 24 17 28 19 30
 Flexibility Score: inf
  4 active torsions:
  status: ('A' for Active; 'I' for Inactive)
    1  A    between atoms: CA   and  CB  
    2  A    between atoms: CB   and  CG  
    3  A    between atoms: CG   and  CD  
    4  A    between atoms: CD   and  CE  

>  <TORSDO>
F 16

>  <BEGIN_>
RES LYS A 131

$$$$
ligand_85_pose_6_2HRL.pdbqt
 OpenBabel07062320523D

  6  5  0  0  0  0  0  0  0  0999 V2000
   33.1930   34.6630    9.2900 C   0  0  0  0  0  0  0  0  0  0  0  0
   32.0600   35.3600   10.0340 C   0  0  0  0  0  0  0  0  0  0  0  0
   30.8490   35.6250    9.1770 C   0  0  0  0  0  0  0  0  0  0  0  0
   30.3430   34.3350    8.5500 C   0  0  0  0  0  0  0  0  0  0  0  0
   28.9930   33.9560    9.1280 C   0  0  0  0  0  0  0  0  0  0  0  0
   27.8870   34.6340    8.3960 N   0  0  0  0  0  0  0  0  0  0  0  0
  1  2  1  0  0  0  0
  3  2  1  0  0  0  0
  4  5  1  0  0  0  0
  4  3  1  0  0  0  0
  6  5  1  0  0  0  0
M  END
>  <EGIN_R>
ES LYS A 135

>  <REMARK>
  4 active torsions:
  status: ('A' for Active; 'I' for Inactive)
    5  A    between atoms: CA   and  CB  
    6  A    between atoms: CB   and  CG  
    7  A    between atoms: CG   and  CD  
    8  A    between atoms: CD   and  CE  

$$$$
