ligand_39_pose_8_2HRL.pdbqt
 OpenBabel07062320523D

 51 52  0  0  1  0  0  0  0  0999 V2000
   27.1430   36.6300   15.7610 N   0  0  0  0  0  0  0  0  0  0  0  0
   28.2850   37.0110   15.0480 C   0  0  0  0  0  0  0  0  0  0  0  0
   29.3450   36.3390   15.1820 O   0  0  0  0  0  0  0  0  0  0  0  0
   26.2740   37.2180   15.6210 H   0  0  0  0  0  0  0  0  0  0  0  0
   27.0660   35.5050   16.6660 C   0  0  0  0  0  0  0  0  0  0  0  0
   26.2890   34.3830   16.0100 C   0  0  2  0  0  0  0  0  0  0  0  0
   27.2070   33.4450   15.2560 C   0  0  2  0  0  0  0  0  0  0  0  0
   28.3970   33.0170   16.0920 C   0  0  2  0  0  0  0  0  0  0  0  0
   30.6500   32.4750   15.8320 C   0  0  2  0  0  0  0  0  0  0  0  0
   30.4850   31.1790   16.5300 C   0  0  0  0  0  0  0  0  0  0  0  0
   29.4540   32.8590   15.2480 O   0  0  0  0  0  0  0  0  0  0  0  0
   29.1070   30.7220   16.8130 C   0  0  1  0  0  0  0  0  0  0  0  0
   28.0750   31.8070   16.9220 C   0  0  1  0  0  0  0  0  0  0  0  0
   31.5440   32.2920   14.7450 O   0  0  0  0  0  0  0  0  0  0  0  0
   32.3890   32.7940   14.8900 H   0  0  0  0  0  0  0  0  0  0  0  0
   31.2280   33.4970   16.7080 C   0  0  0  0  0  0  0  0  0  0  0  0
   31.3580   33.3460   17.9540 O   0  0  0  0  0  0  0  0  0  0  0  0
   31.6570   34.6970   16.1610 O   0  0  0  0  0  0  0  0  0  0  0  0
   32.2010   34.7510   15.3080 H   0  0  0  0  0  0  0  0  0  0  0  0
   28.7120   29.7500   15.8750 O   0  0  0  0  0  0  0  0  0  0  0  0
   28.2280   29.0550   16.4250 H   0  0  0  0  0  0  0  0  0  0  0  0
   27.8000   32.1400   18.3020 N   0  0  0  0  0  0  0  0  0  0  0  0
   26.5190   31.9820   18.8880 C   0  0  0  0  0  0  0  0  0  0  0  0
   28.5640   32.5120   18.9000 H   0  0  0  0  0  0  0  0  0  0  0  0
   26.2190   32.3210   20.3080 C   0  0  0  0  0  0  0  0  0  0  0  0
   25.5970   31.5230   18.1320 O   0  0  0  0  0  0  0  0  0  0  0  0
   27.5930   34.0280   14.0530 O   0  0  0  0  0  0  0  0  0  0  0  0
   27.3800   35.0110   14.0930 H   0  0  0  0  0  0  0  0  0  0  0  0
   25.4000   35.0220   15.1130 O   0  0  0  0  0  0  0  0  0  0  0  0
   24.4770   34.7720   15.2730 H   0  0  0  0  0  0  0  0  0  0  0  0
   28.3470   38.0940   14.1840 O   0  0  0  0  0  0  0  0  0  0  0  0
   27.3220   38.3040   13.2280 C   0  0  0  0  0  0  0  0  0  0  0  0
   27.0020   37.0610   12.4950 C   0  0  0  0  0  0  0  0  0  0  0  0
   27.7410   36.4860   11.4510 C   0  0  0  0  0  0  0  0  0  0  0  0
   25.9670   36.2270   12.6500 N   0  0  0  0  0  0  0  0  0  0  0  0
   27.1650   35.3760   11.0200 N   0  0  0  0  0  0  0  0  0  0  0  0
   26.0580   35.2380   11.7870 N   0  0  0  0  0  0  0  0  0  0  0  0
   27.4720   34.4130    9.9890 C   0  0  0  0  0  0  0  0  0  0  0  0
   27.7290   34.9600    8.6640 C   0  0  0  0  0  0  0  0  0  0  0  0
   26.7170   35.6010    7.9430 C   0  0  0  0  0  0  0  0  0  0  0  0
   28.9600   34.9050    8.0780 C   0  0  0  0  0  0  0  0  0  0  0  0
   26.9840   36.1370    6.7140 C   0  0  0  0  0  0  0  0  0  0  0  0
   29.2250   35.4490    6.8350 C   0  0  0  0  0  0  0  0  0  0  0  0
   30.4340   34.0060    8.9420 Br  0  0  0  0  0  0  0  0  0  0  0  0
   28.2270   36.0780    6.1340 C   0  0  0  0  0  0  0  0  0  0  0  0
   29.8670   25.5550   16.9770 C   0  0  0  0  0  0  0  0  0  0  0  0
   28.3450   25.7220   17.0260 C   0  0  0  0  0  0  0  0  0  0  0  0
   27.6010   24.4010   16.8980 C   0  0  0  0  0  0  0  0  0  0  0  0
   26.1970   24.4880   17.4290 C   0  0  0  0  0  0  0  0  0  0  0  0
   26.0130   23.4710   18.5500 C   0  0  0  0  0  0  0  0  0  0  0  0
   25.3960   24.1110   19.7360 N   0  0  0  0  0  0  0  0  0  0  0  0
  1  5  1  0  0  0  0
  2  3  2  0  0  0  0
  2  1  1  0  0  0  0
  4  1  1  0  0  0  0
  6  5  1  6  0  0  0
  7 27  1  6  0  0  0
  7  6  1  0  0  0  0
  8  7  1  6  0  0  0
  8 13  1  0  0  0  0
  9 14  1  6  0  0  0
  9 10  1  0  0  0  0
  9 16  1  0  0  0  0
 10 12  1  0  0  0  0
 11  9  1  0  0  0  0
 11  8  1  0  0  0  0
 12 20  1  6  0  0  0
 12 13  1  0  0  0  0
 13 22  1  1  0  0  0
 14 15  1  0  0  0  0
 16 17  2  0  0  0  0
 18 16  1  0  0  0  0
 19 18  1  0  0  0  0
 20 21  1  0  0  0  0
 22 23  1  0  0  0  0
 22 24  1  0  0  0  0
 23 25  1  0  0  0  0
 26 23  2  0  0  0  0
 27 28  1  0  0  0  0
 29 30  1  0  0  0  0
 29  6  1  0  0  0  0
 31  2  1  0  0  0  0
 32 31  1  0  0  0  0
 33 35  1  0  0  0  0
 33 32  1  0  0  0  0
 34 33  2  0  0  0  0
 36 34  1  0  0  0  0
 36 37  1  0  0  0  0
 37 35  2  0  0  0  0
 38 36  1  0  0  0  0
 39 38  1  0  0  0  0
 40 39  2  0  0  0  0
 41 39  1  0  0  0  0
 41 44  1  0  0  0  0
 42 40  1  0  0  0  0
 43 41  2  0  0  0  0
 45 42  2  0  0  0  0
 45 43  1  0  0  0  0
 46 47  1  0  0  0  0
 48 47  1  0  0  0  0
 48 49  1  0  0  0  0
 49 50  1  0  0  0  0
 50 51  1  0  0  0  0
M  END
>  <REMARK>
 VINA RESULT:    -4.057      3.646      7.180
 INTER + INTRA:         -14.684
 INTER:                  -9.550
 INTRA:                  -5.134
 UNBOUND:                -7.426
 SMILES CC(=O)N[C@@H]1[C@@H](O)C[C@](O)(C(=O)O)O[C@H]1C(O)[C@H](O)CNC(=O)OCc1cn(Cc2ccccc2Br)nn1
 SMILES IDX 21 1 22 2 23 3 20 5 18 6 16 7 15 8 9 9 8 10 14 11 6 12 5 13
 SMILES IDX 10 14 11 16 12 17 13 18 7 20 4 22 2 23 1 25 3 26 17 27 19 29
 SMILES IDX 24 31 25 32 26 33 27 34 38 35 28 36 37 37 29 38 30 39 31 40
 SMILES IDX 35 41 32 42 34 43 36 44 33 45
 H PARENT 21 4 10 15 13 19 7 21 4 24 17 28 19 30
 Flexibility Score: inf
  4 active torsions:
  status: ('A' for Active; 'I' for Inactive)
    1  A    between atoms: CA   and  CB  
    2  A    between atoms: CB   and  CG  
    3  A    between atoms: CG   and  CD  
    4  A    between atoms: CD   and  CE  

>  <TORSDO>
F 16

>  <BEGIN_>
RES LYS A 131

$$$$
ligand_39_pose_8_2HRL.pdbqt
 OpenBabel07062320523D

  6  5  0  0  0  0  0  0  0  0999 V2000
   33.1930   34.6630    9.2900 C   0  0  0  0  0  0  0  0  0  0  0  0
   32.0600   35.3600   10.0340 C   0  0  0  0  0  0  0  0  0  0  0  0
   32.5070   36.0630   11.2900 C   0  0  0  0  0  0  0  0  0  0  0  0
   31.3100   36.4300   12.1540 C   0  0  0  0  0  0  0  0  0  0  0  0
   31.2470   37.9310   12.3660 C   0  0  0  0  0  0  0  0  0  0  0  0
   30.7280   38.6230   11.1540 N   0  0  0  0  0  0  0  0  0  0  0  0
  1  2  1  0  0  0  0
  2  3  1  0  0  0  0
  3  4  1  0  0  0  0
  4  5  1  0  0  0  0
  6  5  1  0  0  0  0
M  END
>  <EGIN_R>
ES LYS A 135

>  <REMARK>
  4 active torsions:
  status: ('A' for Active; 'I' for Inactive)
    5  A    between atoms: CA   and  CB  
    6  A    between atoms: CB   and  CG  
    7  A    between atoms: CG   and  CD  
    8  A    between atoms: CD   and  CE  

$$$$
