ligand_19_pose_1_2HRL.pdbqt
 OpenBabel07062320523D

 49 49  0  0  1  0  0  0  0  0999 V2000
   27.1470   29.5250   18.6810 N   0  0  0  0  0  0  0  0  0  0  0  0
   27.2760   29.0540   17.3550 C   0  0  0  0  0  0  0  0  0  0  0  0
   27.2660   27.8390   17.1140 O   0  0  0  0  0  0  0  0  0  0  0  0
   27.1710   30.5760   18.7970 H   0  0  0  0  0  0  0  0  0  0  0  0
   26.9870   28.6840   19.8470 C   0  0  0  0  0  0  0  0  0  0  0  0
   28.2800   28.1330   20.3150 C   0  0  2  0  0  0  0  0  0  0  0  0
   29.3460   29.1430   20.6790 C   0  0  2  0  0  0  0  0  0  0  0  0
   30.0390   28.8930   21.9840 C   0  0  2  0  0  0  0  0  0  0  0  0
   31.8280   30.2630   21.4050 C   0  0  2  0  0  0  0  0  0  0  0  0
   32.4680   29.1240   20.7100 C   0  0  0  0  0  0  0  0  0  0  0  0
   30.8740   29.9520   22.3370 O   0  0  0  0  0  0  0  0  0  0  0  0
   32.0540   27.7610   21.1310 C   0  0  1  0  0  0  0  0  0  0  0  0
   30.8970   27.6720   22.0650 C   0  0  1  0  0  0  0  0  0  0  0  0
   31.2120   31.1560   20.4930 O   0  0  0  0  0  0  0  0  0  0  0  0
   31.8060   31.9120   20.2750 H   0  0  0  0  0  0  0  0  0  0  0  0
   32.8510   31.0910   22.1040 C   0  0  0  0  0  0  0  0  0  0  0  0
   34.0980   30.8410   21.9800 O   0  0  0  0  0  0  0  0  0  0  0  0
   32.5430   32.1690   22.9200 O   0  0  0  0  0  0  0  0  0  0  0  0
   31.5550   32.3090   23.1580 H   0  0  0  0  0  0  0  0  0  0  0  0
   31.7390   27.0290   19.9820 O   0  0  0  0  0  0  0  0  0  0  0  0
   32.1890   26.1290   20.0000 H   0  0  0  0  0  0  0  0  0  0  0  0
   31.2660   27.5120   23.4520 N   0  0  0  0  0  0  0  0  0  0  0  0
   30.7130   26.5340   24.2850 C   0  0  0  0  0  0  0  0  0  0  0  0
   31.9770   28.1670   23.8270 H   0  0  0  0  0  0  0  0  0  0  0  0
   31.0750   26.3460   25.7140 C   0  0  0  0  0  0  0  0  0  0  0  0
   29.8600   25.7760   23.7850 O   0  0  0  0  0  0  0  0  0  0  0  0
   28.5610   30.3280   20.9540 O   0  0  0  0  0  0  0  0  0  0  0  0
   27.6390   29.9460   21.0750 H   0  0  0  0  0  0  0  0  0  0  0  0
   28.7700   27.0200   19.6990 O   0  0  0  0  0  0  0  0  0  0  0  0
   29.4600   27.2080   19.0460 H   0  0  0  0  0  0  0  0  0  0  0  0
   27.4180   29.9680   16.2850 O   0  0  0  0  0  0  0  0  0  0  0  0
   28.6640   30.0630   15.5950 C   0  0  0  0  0  0  0  0  0  0  0  0
   29.5140   31.0230   16.3270 C   0  0  0  0  0  0  0  0  0  0  0  0
   30.1910   32.0960   15.7720 C   0  0  0  0  0  0  0  0  0  0  0  0
   29.7970   31.0420   17.6370 N   0  0  0  0  0  0  0  0  0  0  0  0
   30.8510   32.7160   16.7610 N   0  0  0  0  0  0  0  0  0  0  0  0
   30.5980   32.0630   17.8710 N   0  0  0  0  0  0  0  0  0  0  0  0
   31.6790   33.8890   16.5910 C   0  0  0  0  0  0  0  0  0  0  0  0
   32.1660   33.9260   15.1620 C   0  0  0  0  0  0  0  0  0  0  0  0
   31.5150   34.9490   14.4660 O   0  0  0  0  0  0  0  0  0  0  0  0
   31.5870   36.2490   14.8700 C   0  0  0  0  0  0  0  0  0  0  0  0
   32.6810   36.8160   15.0440 O   0  0  0  0  0  0  0  0  0  0  0  0
   30.3310   37.0410   15.1160 C   0  0  0  0  0  0  0  0  0  0  0  0
   29.8670   25.5550   16.9770 C   0  0  0  0  0  0  0  0  0  0  0  0
   28.3450   25.7220   17.0260 C   0  0  0  0  0  0  0  0  0  0  0  0
   27.6010   24.4010   16.8980 C   0  0  0  0  0  0  0  0  0  0  0  0
   26.1560   24.5240   17.2950 C   0  0  0  0  0  0  0  0  0  0  0  0
   25.9760   24.0180   18.7230 C   0  0  0  0  0  0  0  0  0  0  0  0
   25.6470   25.1390   19.6330 N   0  0  0  0  0  0  0  0  0  0  0  0
  1  4  1  0  0  0  0
  1  5  1  0  0  0  0
  2  1  1  0  0  0  0
  3  2  2  0  0  0  0
  6  5  1  6  0  0  0
  6  7  1  0  0  0  0
  7 27  1  1  0  0  0
  8  7  1  6  0  0  0
  8 13  1  0  0  0  0
  8 11  1  0  0  0  0
  9 14  1  6  0  0  0
  9 16  1  0  0  0  0
  9 11  1  0  0  0  0
 10 12  1  0  0  0  0
 10  9  1  0  0  0  0
 12 20  1  6  0  0  0
 12 13  1  0  0  0  0
 13 22  1  1  0  0  0
 15 14  1  0  0  0  0
 16 18  1  0  0  0  0
 17 16  2  0  0  0  0
 18 19  1  0  0  0  0
 20 21  1  0  0  0  0
 22 24  1  0  0  0  0
 22 23  1  0  0  0  0
 23 25  1  0  0  0  0
 26 23  2  0  0  0  0
 27 28  1  0  0  0  0
 29  6  1  0  0  0  0
 30 29  1  0  0  0  0
 31  2  1  0  0  0  0
 32 31  1  0  0  0  0
 32 33  1  0  0  0  0
 33 35  1  0  0  0  0
 34 33  2  0  0  0  0
 34 36  1  0  0  0  0
 35 37  2  0  0  0  0
 36 37  1  0  0  0  0
 38 36  1  0  0  0  0
 39 38  1  0  0  0  0
 40 41  1  0  0  0  0
 40 39  1  0  0  0  0
 41 42  2  0  0  0  0
 41 43  1  0  0  0  0
 44 45  1  0  0  0  0
 46 45  1  0  0  0  0
 46 47  1  0  0  0  0
 47 48  1  0  0  0  0
 48 49  1  0  0  0  0
M  END
>  <REMARK>
 VINA RESULT:    -4.372      2.540      6.312
 INTER + INTRA:         -14.393
 INTER:                  -8.481
 INTRA:                  -5.912
 UNBOUND:                -6.059
 SMILES CC(=O)N[C@@H]1[C@@H](O)C[C@](O)(C(=O)O)O[C@H]1C(O)[C@H](O)CNC(=O)OCc1cn(CCOC(C)=O)nn1
 SMILES IDX 21 1 22 2 23 3 20 5 18 6 16 7 15 8 9 9 8 10 14 11 6 12 5 13
 SMILES IDX 10 14 11 16 12 17 13 18 7 20 4 22 2 23 1 25 3 26 17 27 19 29
 SMILES IDX 24 31 25 32 26 33 27 34 36 35 28 36 35 37 29 38 30 39 31 40
 SMILES IDX 32 41 34 42 33 43
 H PARENT 21 4 10 15 13 19 7 21 4 24 17 28 19 30
 Flexibility Score: inf
  4 active torsions:
  status: ('A' for Active; 'I' for Inactive)
    1  A    between atoms: CA   and  CB  
    2  A    between atoms: CB   and  CG  
    3  A    between atoms: CG   and  CD  
    4  A    between atoms: CD   and  CE  

>  <TORSDO>
F 18

>  <BEGIN_>
RES LYS A 131

$$$$
ligand_19_pose_1_2HRL.pdbqt
 OpenBabel07062320523D

  6  5  0  0  0  0  0  0  0  0999 V2000
   33.1930   34.6630    9.2900 C   0  0  0  0  0  0  0  0  0  0  0  0
   32.0600   35.3600   10.0340 C   0  0  0  0  0  0  0  0  0  0  0  0
   30.8590   35.6470    9.1700 C   0  0  0  0  0  0  0  0  0  0  0  0
   30.3360   34.3670    8.5370 C   0  0  0  0  0  0  0  0  0  0  0  0
   28.8220   34.3980    8.4460 C   0  0  0  0  0  0  0  0  0  0  0  0
   28.2000   33.7890    9.6540 N   0  0  0  0  0  0  0  0  0  0  0  0
  1  2  1  0  0  0  0
  3  2  1  0  0  0  0
  4  3  1  0  0  0  0
  5  4  1  0  0  0  0
  5  6  1  0  0  0  0
M  END
>  <EGIN_R>
ES LYS A 135

>  <REMARK>
  4 active torsions:
  status: ('A' for Active; 'I' for Inactive)
    5  A    between atoms: CA   and  CB  
    6  A    between atoms: CB   and  CG  
    7  A    between atoms: CG   and  CD  
    8  A    between atoms: CD   and  CE  

$$$$
