ligand_11_pose_4_2HRL.pdbqt
 OpenBabel07062320523D

 54 54  0  0  1  0  0  0  0  0999 V2000
   25.3900   35.6550    9.3780 O   0  0  0  0  0  0  0  0  0  0  0  0
   25.3240   36.7100    8.4600 C   0  0  0  0  0  0  0  0  0  0  0  0
   26.4610   37.4040    8.0220 N   0  0  0  0  0  0  0  0  0  0  0  0
   27.3910   37.0780    8.4480 H   0  0  0  0  0  0  0  0  0  0  0  0
   24.1950   37.0120    8.0410 O   0  0  0  0  0  0  0  0  0  0  0  0
   26.5080   38.4860    7.0800 C   0  0  0  0  0  0  0  0  0  0  0  0
   27.6610   38.3670    6.1640 C   0  0  2  0  0  0  0  0  0  0  0  0
   28.6540   39.5060    6.2970 C   0  0  1  0  0  0  0  0  0  0  0  0
   29.9770   38.9930    6.8750 C   0  0  2  0  0  0  0  0  0  0  0  0
   29.8450   39.1820    9.2040 C   0  0  2  0  0  0  0  0  0  0  0  0
   30.1360   40.6370    8.9670 C   0  0  0  0  0  0  0  0  0  0  0  0
   29.8440   38.4030    8.0880 O   0  0  0  0  0  0  0  0  0  0  0  0
   31.1600   40.9260    7.9290 C   0  0  1  0  0  0  0  0  0  0  0  0
   31.0650   40.0150    6.7390 C   0  0  1  0  0  0  0  0  0  0  0  0
   28.5660   39.1320    9.7610 O   0  0  0  0  0  0  0  0  0  0  0  0
   28.5650   38.6980   10.6390 H   0  0  0  0  0  0  0  0  0  0  0  0
   30.7910   38.6380   10.2100 C   0  0  0  0  0  0  0  0  0  0  0  0
   31.8950   38.1700    9.8460 O   0  0  0  0  0  0  0  0  0  0  0  0
   30.4950   38.6260   11.5710 O   0  0  0  0  0  0  0  0  0  0  0  0
   31.0630   38.0030   12.1460 H   0  0  0  0  0  0  0  0  0  0  0  0
   30.9820   42.2420    7.5050 O   0  0  0  0  0  0  0  0  0  0  0  0
   31.2870   42.3620    6.5670 H   0  0  0  0  0  0  0  0  0  0  0  0
   32.2930   39.3280    6.4640 N   0  0  0  0  0  0  0  0  0  0  0  0
   33.3150   39.9840    5.7330 C   0  0  0  0  0  0  0  0  0  0  0  0
   32.4370   38.3330    6.8040 H   0  0  0  0  0  0  0  0  0  0  0  0
   34.5810   39.2790    5.4460 C   0  0  0  0  0  0  0  0  0  0  0  0
   33.1890   41.1640    5.3070 O   0  0  0  0  0  0  0  0  0  0  0  0
   28.8840   40.0560    5.0500 O   0  0  0  0  0  0  0  0  0  0  0  0
   29.8610   40.0740    4.8890 H   0  0  0  0  0  0  0  0  0  0  0  0
   27.3020   38.1120    4.8800 O   0  0  0  0  0  0  0  0  0  0  0  0
   27.9040   37.5160    4.3800 H   0  0  0  0  0  0  0  0  0  0  0  0
   25.2860   35.9280   10.7720 C   0  0  0  0  0  0  0  0  0  0  0  0
   26.5900   35.9980   11.4180 C   0  0  0  0  0  0  0  0  0  0  0  0
   27.0380   35.3110   12.5130 C   0  0  0  0  0  0  0  0  0  0  0  0
   27.6200   36.7720   11.0430 N   0  0  0  0  0  0  0  0  0  0  0  0
   28.3030   35.6630   12.7860 N   0  0  0  0  0  0  0  0  0  0  0  0
   28.6270   36.5550   11.8700 N   0  0  0  0  0  0  0  0  0  0  0  0
   29.2130   35.2290   13.8310 C   0  0  1  0  0  0  0  0  0  0  0  0
   28.9720   33.8040   14.1700 C   0  0  0  0  0  0  0  0  0  0  0  0
   29.4070   33.3660   15.5180 C   0  0  0  0  0  0  0  0  0  0  0  0
   30.3650   32.2630   15.5020 C   0  0  0  0  0  0  0  0  0  0  0  0
   30.1860   31.2130   16.2130 O   0  0  0  0  0  0  0  0  0  0  0  0
   31.5060   32.3420   14.7000 O   0  0  0  0  0  0  0  0  0  0  0  0
   32.3670   32.6260   15.1470 H   0  0  0  0  0  0  0  0  0  0  0  0
   30.5880   35.6460   13.6200 C   0  0  0  0  0  0  0  0  0  0  0  0
   31.5060   34.9380   13.2090 O   0  0  0  0  0  0  0  0  0  0  0  0
   30.8970   36.9860   13.9200 O   0  0  0  0  0  0  0  0  0  0  0  0
   31.0400   37.6290   13.1610 H   0  0  0  0  0  0  0  0  0  0  0  0
   29.8670   25.5550   16.9770 C   0  0  0  0  0  0  0  0  0  0  0  0
   28.3450   25.7220   17.0260 C   0  0  0  0  0  0  0  0  0  0  0  0
   27.6000   24.4080   16.8450 C   0  0  0  0  0  0  0  0  0  0  0  0
   26.1770   24.4940   17.3220 C   0  0  0  0  0  0  0  0  0  0  0  0
   26.0340   23.7350   18.6370 C   0  0  0  0  0  0  0  0  0  0  0  0
   24.7410   24.0590   19.2850 N   0  0  0  0  0  0  0  0  0  0  0  0
  1 32  1  0  0  0  0
  2  1  1  0  0  0  0
  3  4  1  0  0  0  0
  3  2  1  0  0  0  0
  5  2  2  0  0  0  0
  6  3  1  0  0  0  0
  7  8  1  0  0  0  0
  7  6  1  1  0  0  0
  8 28  1  6  0  0  0
  9  8  1  1  0  0  0
  9 12  1  0  0  0  0
 10 15  1  1  0  0  0
 10 17  1  0  0  0  0
 11 10  1  0  0  0  0
 12 10  1  0  0  0  0
 13 21  1  6  0  0  0
 13 11  1  0  0  0  0
 14 23  1  1  0  0  0
 14  9  1  0  0  0  0
 14 13  1  0  0  0  0
 15 16  1  0  0  0  0
 17 19  1  0  0  0  0
 18 17  2  0  0  0  0
 19 20  1  0  0  0  0
 22 21  1  0  0  0  0
 23 25  1  0  0  0  0
 24 23  1  0  0  0  0
 26 24  1  0  0  0  0
 27 24  2  0  0  0  0
 29 28  1  0  0  0  0
 30  7  1  0  0  0  0
 31 30  1  0  0  0  0
 32 33  1  0  0  0  0
 33 34  2  0  0  0  0
 34 36  1  0  0  0  0
 35 33  1  0  0  0  0
 35 37  2  0  0  0  0
 36 38  1  0  0  0  0
 37 36  1  0  0  0  0
 38 39  1  6  0  0  0
 39 40  1  0  0  0  0
 41 40  1  0  0  0  0
 41 42  2  0  0  0  0
 43 44  1  0  0  0  0
 43 41  1  0  0  0  0
 45 38  1  0  0  0  0
 45 47  1  0  0  0  0
 46 45  2  0  0  0  0
 48 47  1  0  0  0  0
 49 50  1  0  0  0  0
 51 50  1  0  0  0  0
 51 52  1  0  0  0  0
 52 53  1  0  0  0  0
 53 54  1  0  0  0  0
M  END
>  <REMARK>
 VINA RESULT:    -4.031      3.301      7.614
 INTER + INTRA:         -15.593
 INTER:                  -8.779
 INTRA:                  -6.814
 UNBOUND:                -7.438
 SMILES CC(=O)N[C@@H]1[C@@H](O)C[C@](O)(C(=O)O)O[C@H]1C(O)[C@H](O)CNC(=O)OCc1cn([C@@H](CCC(=O)O)C(=O)O)nn1
 SMILES IDX 24 1 22 2 21 3 23 5 20 6 18 7 16 8 15 9 9 10 8 11 14 12 6 13
 SMILES IDX 5 14 10 15 11 17 12 18 13 19 7 21 4 23 2 24 1 26 3 27 17 28
 SMILES IDX 19 30 25 32 26 33 27 34 39 35 28 36 38 37 29 38 30 39 31 40
 SMILES IDX 32 41 33 42 34 43 35 45 36 46 37 47
 H PARENT 21 4 10 16 13 20 7 22 4 25 17 29 19 31 34 44 37 48
 Flexibility Score: inf
  4 active torsions:
  status: ('A' for Active; 'I' for Inactive)
    1  A    between atoms: CA   and  CB  
    2  A    between atoms: CB   and  CG  
    3  A    between atoms: CG   and  CD  
    4  A    between atoms: CD   and  CE  

>  <TORSDO>
F 21

>  <BEGIN_>
RES LYS A 131

$$$$
ligand_11_pose_4_2HRL.pdbqt
 OpenBabel07062320523D

  6  5  0  0  0  0  0  0  0  0999 V2000
   33.1930   34.6630    9.2900 C   0  0  0  0  0  0  0  0  0  0  0  0
   32.0600   35.3600   10.0340 C   0  0  0  0  0  0  0  0  0  0  0  0
   30.7080   34.7420    9.7880 C   0  0  0  0  0  0  0  0  0  0  0  0
   30.4730   34.5390    8.2990 C   0  0  0  0  0  0  0  0  0  0  0  0
   29.0550   34.9250    7.9260 C   0  0  0  0  0  0  0  0  0  0  0  0
   28.9770   35.3760    6.5090 N   0  0  0  0  0  0  0  0  0  0  0  0
  1  2  1  0  0  0  0
  3  2  1  0  0  0  0
  4  3  1  0  0  0  0
  5  4  1  0  0  0  0
  6  5  1  0  0  0  0
M  END
>  <EGIN_R>
ES LYS A 135

>  <REMARK>
  4 active torsions:
  status: ('A' for Active; 'I' for Inactive)
    5  A    between atoms: CA   and  CB  
    6  A    between atoms: CB   and  CG  
    7  A    between atoms: CG   and  CD  
    8  A    between atoms: CD   and  CE  

$$$$
