ligand_48_pose_16_2HRL.pdbqt
 OpenBabel07062320523D

 49 50  0  0  1  0  0  0  0  0999 V2000
   30.7420   32.6060   17.2010 C   0  0  0  0  0  0  0  0  0  0  0  0
   30.2260   32.0360   15.8880 C   0  0  2  0  0  0  0  0  0  0  0  0
   29.4020   30.8310   16.2230 C   0  0  1  0  0  0  0  0  0  0  0  0
   28.4200   31.0240   17.3590 C   0  0  2  0  0  0  0  0  0  0  0  0
   27.3820   28.9780   17.8840 C   0  0  2  0  0  0  0  0  0  0  0  0
   26.0100   29.6310   17.8630 C   0  0  0  0  0  0  0  0  0  0  0  0
   28.3150   29.9200   18.1590 O   0  0  0  0  0  0  0  0  0  0  0  0
   25.9540   30.7490   16.8560 C   0  0  1  0  0  0  0  0  0  0  0  0
   27.1410   31.6830   16.9790 C   0  0  1  0  0  0  0  0  0  0  0  0
   27.5950   28.2390   16.7220 O   0  0  0  0  0  0  0  0  0  0  0  0
   28.2940   27.5400   16.9270 H   0  0  0  0  0  0  0  0  0  0  0  0
   27.3450   28.0280   19.0310 C   0  0  0  0  0  0  0  0  0  0  0  0
   26.3050   27.9170   19.7180 O   0  0  0  0  0  0  0  0  0  0  0  0
   28.4470   27.2800   19.3290 O   0  0  0  0  0  0  0  0  0  0  0  0
   29.0790   27.4660   20.0980 H   0  0  0  0  0  0  0  0  0  0  0  0
   25.8190   30.2540   15.5660 O   0  0  0  0  0  0  0  0  0  0  0  0
   26.3290   29.4130   15.4700 H   0  0  0  0  0  0  0  0  0  0  0  0
   26.8020   32.7600   17.9130 N   0  0  0  0  0  0  0  0  0  0  0  0
   27.1490   34.0830   17.5670 C   0  0  0  0  0  0  0  0  0  0  0  0
   26.3180   32.5720   18.8120 H   0  0  0  0  0  0  0  0  0  0  0  0
   26.8460   35.2490   18.4540 C   0  0  0  0  0  0  0  0  0  0  0  0
   27.7420   34.3730   16.4800 O   0  0  0  0  0  0  0  0  0  0  0  0
   28.9050   30.1870   15.1210 O   0  0  0  0  0  0  0  0  0  0  0  0
   29.5880   29.6090   14.6550 H   0  0  0  0  0  0  0  0  0  0  0  0
   31.3080   31.8070   15.0730 O   0  0  0  0  0  0  0  0  0  0  0  0
   32.1180   32.1030   15.5190 H   0  0  0  0  0  0  0  0  0  0  0  0
   31.8110   33.5300   16.9020 N   0  0  0  0  0  0  0  0  0  0  0  0
   31.9080   34.8550   17.3940 C   0  0  0  0  0  0  0  0  0  0  0  0
   32.6140   33.2360   16.2650 H   0  0  0  0  0  0  0  0  0  0  0  0
   31.0110   35.2980   18.1500 O   0  0  0  0  0  0  0  0  0  0  0  0
   32.9770   35.6790   17.0560 O   0  0  0  0  0  0  0  0  0  0  0  0
   33.4030   35.7560   15.7190 C   0  0  0  0  0  0  0  0  0  0  0  0
   32.3060   36.3580   14.9160 C   0  0  0  0  0  0  0  0  0  0  0  0
   31.6010   35.7310   13.8800 C   0  0  0  0  0  0  0  0  0  0  0  0
   31.7570   37.5850   14.9820 N   0  0  0  0  0  0  0  0  0  0  0  0
   30.6860   36.5810   13.3830 N   0  0  0  0  0  0  0  0  0  0  0  0
   30.8060   37.7020   14.0730 N   0  0  0  0  0  0  0  0  0  0  0  0
   29.7500   36.3190   12.2990 C   0  0  0  0  0  0  0  0  0  0  0  0
   29.0440   35.0060   12.5600 C   0  0  0  0  0  0  0  0  0  0  0  0
   28.7050   37.4110   12.2430 C   0  0  0  0  0  0  0  0  0  0  0  0
   27.6240   35.2230   13.0480 C   0  0  0  0  0  0  0  0  0  0  0  0
   27.6400   36.9490   11.2640 C   0  0  0  0  0  0  0  0  0  0  0  0
   26.8120   35.8970   11.9750 C   0  0  0  0  0  0  0  0  0  0  0  0
   29.8670   25.5550   16.9770 C   0  0  0  0  0  0  0  0  0  0  0  0
   28.3450   25.7220   17.0260 C   0  0  0  0  0  0  0  0  0  0  0  0
   27.5990   24.4480   16.6590 C   0  0  0  0  0  0  0  0  0  0  0  0
   27.0600   23.7390   17.8700 C   0  0  0  0  0  0  0  0  0  0  0  0
   26.0160   24.6160   18.5520 C   0  0  0  0  0  0  0  0  0  0  0  0
   24.6700   24.3520   17.9920 N   0  0  0  0  0  0  0  0  0  0  0  0
  2  3  1  0  0  0  0
  2  1  1  1  0  0  0
  3 23  1  6  0  0  0
  4  3  1  6  0  0  0
  4  7  1  0  0  0  0
  5 10  1  6  0  0  0
  5  7  1  0  0  0  0
  5 12  1  0  0  0  0
  6  5  1  0  0  0  0
  8 16  1  6  0  0  0
  8  9  1  0  0  0  0
  8  6  1  0  0  0  0
  9  4  1  0  0  0  0
  9 18  1  1  0  0  0
 10 11  1  0  0  0  0
 12 14  1  0  0  0  0
 12 13  2  0  0  0  0
 14 15  1  0  0  0  0
 17 16  1  0  0  0  0
 18 20  1  0  0  0  0
 19 18  1  0  0  0  0
 19 21  1  0  0  0  0
 22 19  2  0  0  0  0
 24 23  1  0  0  0  0
 25 26  1  0  0  0  0
 25  2  1  0  0  0  0
 27  1  1  0  0  0  0
 27 28  1  0  0  0  0
 28 30  2  0  0  0  0
 29 27  1  0  0  0  0
 31 28  1  0  0  0  0
 32 31  1  0  0  0  0
 33 35  1  0  0  0  0
 33 32  1  0  0  0  0
 34 33  2  0  0  0  0
 36 34  1  0  0  0  0
 36 37  1  0  0  0  0
 37 35  2  0  0  0  0
 38 39  1  0  0  0  0
 38 36  1  0  0  0  0
 39 41  1  0  0  0  0
 40 38  1  0  0  0  0
 42 43  1  0  0  0  0
 42 40  1  0  0  0  0
 43 41  1  0  0  0  0
 44 45  1  0  0  0  0
 46 45  1  0  0  0  0
 46 47  1  0  0  0  0
 47 48  1  0  0  0  0
 49 48  1  0  0  0  0
M  END
>  <REMARK>
 VINA RESULT:    -4.658      3.337      6.746
 INTER + INTRA:         -13.858
 INTER:                  -8.481
 INTRA:                  -5.377
 UNBOUND:                -5.796
 SMILES CC(=O)N[C@@H]1[C@@H](O)C[C@](O)(C(=O)O)O[C@H]1C(O)[C@H](O)CNC(=O)OCc1cn(C2CCCCC2)nn1
 SMILES IDX 20 1 18 2 16 3 15 4 9 5 8 6 14 7 6 8 5 9 10 10 11 12 12 13
 SMILES IDX 13 14 7 16 4 18 2 19 1 21 3 22 17 23 19 25 21 27 22 28 23 30
 SMILES IDX 24 31 25 32 26 33 27 34 36 35 28 36 35 37 29 38 30 39 34 40
 SMILES IDX 31 41 33 42 32 43
 H PARENT 10 11 13 15 7 17 4 20 17 24 19 26 21 29
 Flexibility Score: inf
  4 active torsions:
  status: ('A' for Active; 'I' for Inactive)
    1  A    between atoms: CA   and  CB  
    2  A    between atoms: CB   and  CG  
    3  A    between atoms: CG   and  CD  
    4  A    between atoms: CD   and  CE  

>  <TORSDO>
F 15

>  <BEGIN_>
RES LYS A 131

$$$$
ligand_48_pose_16_2HRL.pdbqt
 OpenBabel07062320523D

  6  5  0  0  0  0  0  0  0  0999 V2000
   33.1930   34.6630    9.2900 C   0  0  0  0  0  0  0  0  0  0  0  0
   32.0600   35.3600   10.0340 C   0  0  0  0  0  0  0  0  0  0  0  0
   30.8170   35.5440    9.2030 C   0  0  0  0  0  0  0  0  0  0  0  0
   30.1040   34.2150    9.0020 C   0  0  0  0  0  0  0  0  0  0  0  0
   28.6610   34.4410    8.5950 C   0  0  0  0  0  0  0  0  0  0  0  0
   27.7320   33.6590    9.4570 N   0  0  0  0  0  0  0  0  0  0  0  0
  1  2  1  0  0  0  0
  3  2  1  0  0  0  0
  4  3  1  0  0  0  0
  5  4  1  0  0  0  0
  5  6  1  0  0  0  0
M  END
>  <EGIN_R>
ES LYS A 135

>  <REMARK>
  4 active torsions:
  status: ('A' for Active; 'I' for Inactive)
    5  A    between atoms: CA   and  CB  
    6  A    between atoms: CB   and  CG  
    7  A    between atoms: CG   and  CD  
    8  A    between atoms: CD   and  CE  

$$$$
