ligand_59_pose_12_2HRL.pdbqt
 OpenBabel07062320523D

 52 53  0  0  1  0  0  0  0  0999 V2000
   27.8430   28.2140   21.0630 N   0  0  0  0  0  0  0  0  0  0  0  0
   26.7500   28.9520   20.4970 C   0  0  0  0  0  0  0  0  0  0  0  0
   25.6050   28.6340   20.8890 O   0  0  0  0  0  0  0  0  0  0  0  0
   28.7790   28.5200   20.7200 H   0  0  0  0  0  0  0  0  0  0  0  0
   27.6170   27.1770   22.0320 C   0  0  0  0  0  0  0  0  0  0  0  0
   28.2020   27.5960   23.3720 C   0  0  2  0  0  0  0  0  0  0  0  0
   29.6650   27.2660   23.3080 C   0  0  2  0  0  0  0  0  0  0  0  0
   30.5960   28.3630   22.8810 C   0  0  2  0  0  0  0  0  0  0  0  0
   31.7810   28.7930   20.8860 C   0  0  2  0  0  0  0  0  0  0  0  0
   33.0140   29.2420   21.6310 C   0  0  0  0  0  0  0  0  0  0  0  0
   30.9890   27.9840   21.6240 O   0  0  0  0  0  0  0  0  0  0  0  0
   33.0480   28.3820   22.8800 C   0  0  1  0  0  0  0  0  0  0  0  0
   31.7700   28.6450   23.7160 C   0  0  1  0  0  0  0  0  0  0  0  0
   32.2730   28.0620   19.7600 O   0  0  0  0  0  0  0  0  0  0  0  0
   31.5060   27.7820   19.1970 H   0  0  0  0  0  0  0  0  0  0  0  0
   30.9940   29.9080   20.3180 C   0  0  0  0  0  0  0  0  0  0  0  0
   31.2600   31.0790   20.6500 O   0  0  0  0  0  0  0  0  0  0  0  0
   29.9690   29.6750   19.4230 O   0  0  0  0  0  0  0  0  0  0  0  0
   29.3800   28.8620   19.5520 H   0  0  0  0  0  0  0  0  0  0  0  0
   33.2100   27.0470   22.6060 O   0  0  0  0  0  0  0  0  0  0  0  0
   32.6090   26.7870   21.8500 H   0  0  0  0  0  0  0  0  0  0  0  0
   31.9190   29.9910   24.1670 N   0  0  0  0  0  0  0  0  0  0  0  0
   32.0840   30.3150   25.5230 C   0  0  0  0  0  0  0  0  0  0  0  0
   31.9000   30.7550   23.4700 H   0  0  0  0  0  0  0  0  0  0  0  0
   32.2400   31.7130   25.9920 C   0  0  0  0  0  0  0  0  0  0  0  0
   32.1030   29.4000   26.3700 O   0  0  0  0  0  0  0  0  0  0  0  0
   29.8280   26.2420   22.3570 O   0  0  0  0  0  0  0  0  0  0  0  0
   29.9280   25.3520   22.7920 H   0  0  0  0  0  0  0  0  0  0  0  0
   27.5610   26.7160   24.2870 O   0  0  0  0  0  0  0  0  0  0  0  0
   27.3320   27.2170   25.0860 H   0  0  0  0  0  0  0  0  0  0  0  0
   26.9150   29.9530   19.5800 O   0  0  0  0  0  0  0  0  0  0  0  0
   26.3720   29.9450   18.2950 C   0  0  0  0  0  0  0  0  0  0  0  0
   27.3730   30.1680   17.2220 C   0  0  0  0  0  0  0  0  0  0  0  0
   28.0380   31.3780   17.0120 C   0  0  0  0  0  0  0  0  0  0  0  0
   27.8450   29.3610   16.2800 N   0  0  0  0  0  0  0  0  0  0  0  0
   28.8610   31.2450   15.9720 N   0  0  0  0  0  0  0  0  0  0  0  0
   28.7360   30.0150   15.5330 N   0  0  0  0  0  0  0  0  0  0  0  0
   29.7150   32.2650   15.4330 C   0  0  0  0  0  0  0  0  0  0  0  0
   31.0750   32.3000   15.6560 C   0  0  0  0  0  0  0  0  0  0  0  0
   29.1900   33.2480   14.6850 N   0  0  0  0  0  0  0  0  0  0  0  0
   31.8940   33.2770   15.1550 C   0  0  0  0  0  0  0  0  0  0  0  0
   29.9510   34.2260   14.1710 C   0  0  0  0  0  0  0  0  0  0  0  0
   31.3240   34.2740   14.3880 C   0  0  0  0  0  0  0  0  0  0  0  0
   32.1230   35.3840   13.7930 C   0  0  0  0  0  0  0  0  0  0  0  0
   33.0120   34.8520   12.8670 O   0  0  0  0  0  0  0  0  0  0  0  0
   33.7680   35.4780   12.7280 H   0  0  0  0  0  0  0  0  0  0  0  0
   29.8670   25.5550   16.9770 C   0  0  0  0  0  0  0  0  0  0  0  0
   28.3450   25.7220   17.0260 C   0  0  0  0  0  0  0  0  0  0  0  0
   27.6030   24.3960   16.9670 C   0  0  0  0  0  0  0  0  0  0  0  0
   26.2160   24.4970   17.5390 C   0  0  0  0  0  0  0  0  0  0  0  0
   26.1720   25.6170   18.5730 C   0  0  0  0  0  0  0  0  0  0  0  0
   25.5710   25.1320   19.8380 N   0  0  0  0  0  0  0  0  0  0  0  0
  1  5  1  0  0  0  0
  2  3  2  0  0  0  0
  2  1  1  0  0  0  0
  4  1  1  0  0  0  0
  6  5  1  6  0  0  0
  6 29  1  0  0  0  0
  7 27  1  6  0  0  0
  7  6  1  0  0  0  0
  8  7  1  1  0  0  0
  8 13  1  0  0  0  0
  9 14  1  6  0  0  0
  9 11  1  0  0  0  0
  9 10  1  0  0  0  0
 10 12  1  0  0  0  0
 11  8  1  0  0  0  0
 12 20  1  6  0  0  0
 12 13  1  0  0  0  0
 13 22  1  6  0  0  0
 15 14  1  0  0  0  0
 16 17  2  0  0  0  0
 16  9  1  0  0  0  0
 18 19  1  0  0  0  0
 18 16  1  0  0  0  0
 21 20  1  0  0  0  0
 22 23  1  0  0  0  0
 23 25  1  0  0  0  0
 23 26  2  0  0  0  0
 24 22  1  0  0  0  0
 27 28  1  0  0  0  0
 29 30  1  0  0  0  0
 31  2  1  0  0  0  0
 32 31  1  0  0  0  0
 33 32  1  0  0  0  0
 34 33  2  0  0  0  0
 35 33  1  0  0  0  0
 36 34  1  0  0  0  0
 37 36  1  0  0  0  0
 37 35  2  0  0  0  0
 38 39  1  0  0  0  0
 38 36  1  0  0  0  0
 40 38  2  0  0  0  0
 41 39  2  0  0  0  0
 42 43  2  0  0  0  0
 42 40  1  0  0  0  0
 43 41  1  0  0  0  0
 44 43  1  0  0  0  0
 45 44  1  0  0  0  0
 46 45  1  0  0  0  0
 47 48  1  0  0  0  0
 49 48  1  0  0  0  0
 49 50  1  0  0  0  0
 50 51  1  0  0  0  0
 51 52  1  0  0  0  0
M  END
>  <REMARK>
 VINA RESULT:    -4.908      2.098      2.993
 INTER + INTRA:         -14.659
 INTER:                  -9.332
 INTRA:                  -5.327
 UNBOUND:                -5.735
 SMILES CC(=O)N[C@@H]1[C@@H](O)C[C@](O)(C(=O)O)O[C@H]1C(O)[C@H](O)CNC(=O)OCc1cn(-c2ccc(CO)cn2)nn1
 SMILES IDX 21 1 22 2 23 3 20 5 18 6 16 7 15 8 9 9 8 10 14 11 6 12 5 13
 SMILES IDX 10 14 11 16 12 17 13 18 7 20 4 22 2 23 1 25 3 26 17 27 19 29
 SMILES IDX 24 31 25 32 26 33 27 34 38 35 28 36 37 37 29 38 30 39 36 40
 SMILES IDX 31 41 35 42 32 43 33 44 34 45
 H PARENT 21 4 10 15 13 19 7 21 4 24 17 28 19 30 34 46
 Flexibility Score: inf
  4 active torsions:
  status: ('A' for Active; 'I' for Inactive)
    1  A    between atoms: CA   and  CB  
    2  A    between atoms: CB   and  CG  
    3  A    between atoms: CG   and  CD  
    4  A    between atoms: CD   and  CE  

>  <TORSDO>
F 17

>  <BEGIN_>
RES LYS A 131

$$$$
ligand_59_pose_12_2HRL.pdbqt
 OpenBabel07062320523D

  6  5  0  0  0  0  0  0  0  0999 V2000
   33.1930   34.6630    9.2900 C   0  0  0  0  0  0  0  0  0  0  0  0
   32.0600   35.3600   10.0340 C   0  0  0  0  0  0  0  0  0  0  0  0
   30.7070   34.7450    9.7840 C   0  0  0  0  0  0  0  0  0  0  0  0
   30.4990   34.4910    8.2990 C   0  0  0  0  0  0  0  0  0  0  0  0
   29.0950   34.8830    7.8820 C   0  0  0  0  0  0  0  0  0  0  0  0
   28.9400   36.3640    7.8440 N   0  0  0  0  0  0  0  0  0  0  0  0
  1  2  1  0  0  0  0
  3  2  1  0  0  0  0
  4  3  1  0  0  0  0
  5  4  1  0  0  0  0
  6  5  1  0  0  0  0
M  END
>  <EGIN_R>
ES LYS A 135

>  <REMARK>
  4 active torsions:
  status: ('A' for Active; 'I' for Inactive)
    5  A    between atoms: CA   and  CB  
    6  A    between atoms: CB   and  CG  
    7  A    between atoms: CG   and  CD  
    8  A    between atoms: CD   and  CE  

$$$$
