ligand_5_pose_9_2HRL.pdbqt
 OpenBabel07062320523D

 51 52  0  0  1  0  0  0  0  0999 V2000
   27.9750   38.7370    4.9380 N   0  0  0  0  0  0  0  0  0  0  0  0
   29.0580   38.3610    5.7600 C   0  0  0  0  0  0  0  0  0  0  0  0
   30.0540   39.0830    5.9180 O   0  0  0  0  0  0  0  0  0  0  0  0
   27.1950   38.0050    4.8720 H   0  0  0  0  0  0  0  0  0  0  0  0
   27.7880   39.9250    4.2080 C   0  0  0  0  0  0  0  0  0  0  0  0
   26.7920   40.9030    4.6390 C   0  0  2  0  0  0  0  0  0  0  0  0
   26.7620   41.3550    6.0130 C   0  0  1  0  0  0  0  0  0  0  0  0
   25.8440   40.5670    6.9720 C   0  0  2  0  0  0  0  0  0  0  0  0
   23.5610   40.9010    7.4630 C   0  0  2  0  0  0  0  0  0  0  0  0
   23.9220   41.6260    8.7690 C   0  0  0  0  0  0  0  0  0  0  0  0
   24.5950   41.0570    6.6310 O   0  0  0  0  0  0  0  0  0  0  0  0
   25.0510   40.8710    9.3560 C   0  0  1  0  0  0  0  0  0  0  0  0
   26.2190   40.6420    8.3790 C   0  0  1  0  0  0  0  0  0  0  0  0
   22.5200   41.7090    6.9300 O   0  0  0  0  0  0  0  0  0  0  0  0
   22.2910   41.4300    6.0110 H   0  0  0  0  0  0  0  0  0  0  0  0
   23.0270   39.5680    7.6620 C   0  0  0  0  0  0  0  0  0  0  0  0
   22.2190   39.3410    8.5970 O   0  0  0  0  0  0  0  0  0  0  0  0
   23.3300   38.4480    6.8850 O   0  0  0  0  0  0  0  0  0  0  0  0
   23.7490   38.5240    5.9550 H   0  0  0  0  0  0  0  0  0  0  0  0
   25.6060   41.4790   10.4930 O   0  0  0  0  0  0  0  0  0  0  0  0
   26.2790   42.1350   10.1270 H   0  0  0  0  0  0  0  0  0  0  0  0
   26.8710   39.5080    8.9570 N   0  0  0  0  0  0  0  0  0  0  0  0
   28.2210   39.3730    9.2810 C   0  0  0  0  0  0  0  0  0  0  0  0
   26.2340   38.6800    9.1570 H   0  0  0  0  0  0  0  0  0  0  0  0
   28.7620   38.1140    9.8810 C   0  0  0  0  0  0  0  0  0  0  0  0
   28.9570   40.3380    9.0510 O   0  0  0  0  0  0  0  0  0  0  0  0
   28.0530   41.4260    6.5260 O   0  0  0  0  0  0  0  0  0  0  0  0
   28.3790   40.5490    6.8500 H   0  0  0  0  0  0  0  0  0  0  0  0
   25.5100   40.5280    4.1450 O   0  0  0  0  0  0  0  0  0  0  0  0
   25.4140   39.5400    4.1730 H   0  0  0  0  0  0  0  0  0  0  0  0
   29.0560   37.1310    6.4490 O   0  0  0  0  0  0  0  0  0  0  0  0
   28.0500   36.1850    6.1800 C   0  0  0  0  0  0  0  0  0  0  0  0
   26.9780   36.3020    7.1800 C   0  0  0  0  0  0  0  0  0  0  0  0
   26.8760   35.4750    8.3050 C   0  0  0  0  0  0  0  0  0  0  0  0
   25.9410   37.1300    7.2680 N   0  0  0  0  0  0  0  0  0  0  0  0
   25.7910   35.8470    9.0080 N   0  0  0  0  0  0  0  0  0  0  0  0
   25.2470   36.8620    8.3410 N   0  0  0  0  0  0  0  0  0  0  0  0
   25.3130   35.2790   10.2190 C   0  0  0  0  0  0  0  0  0  0  0  0
   26.1320   34.6480   11.1260 C   0  0  0  0  0  0  0  0  0  0  0  0
   23.9550   35.3460   10.5440 C   0  0  0  0  0  0  0  0  0  0  0  0
   25.6460   34.1000   12.3080 C   0  0  0  0  0  0  0  0  0  0  0  0
   23.4750   34.8010   11.7180 C   0  0  0  0  0  0  0  0  0  0  0  0
   24.3080   34.1730   12.6140 C   0  0  0  0  0  0  0  0  0  0  0  0
   23.8360   33.6350   13.7730 O   0  0  0  0  0  0  0  0  0  0  0  0
   24.6300   32.7220   14.5010 C   0  0  0  0  0  0  0  0  0  0  0  0
   29.8670   25.5550   16.9770 C   0  0  0  0  0  0  0  0  0  0  0  0
   28.3450   25.7220   17.0260 C   0  0  0  0  0  0  0  0  0  0  0  0
   27.6000   24.4080   16.8470 C   0  0  0  0  0  0  0  0  0  0  0  0
   26.5440   24.2080   17.8980 C   0  0  0  0  0  0  0  0  0  0  0  0
   25.1640   24.2800   17.2530 C   0  0  0  0  0  0  0  0  0  0  0  0
   24.4980   22.9570   17.3010 N   0  0  0  0  0  0  0  0  0  0  0  0
  1  2  1  0  0  0  0
  2  3  2  0  0  0  0
  2 31  1  0  0  0  0
  4  1  1  0  0  0  0
  5  1  1  0  0  0  0
  6  5  1  1  0  0  0
  6  7  1  0  0  0  0
  7 27  1  1  0  0  0
  8  7  1  6  0  0  0
  8 13  1  0  0  0  0
  9 14  1  6  0  0  0
  9 16  1  0  0  0  0
  9 10  1  0  0  0  0
 10 12  1  0  0  0  0
 11  8  1  0  0  0  0
 11  9  1  0  0  0  0
 12 20  1  1  0  0  0
 13 22  1  1  0  0  0
 13 12  1  0  0  0  0
 15 14  1  0  0  0  0
 16 17  2  0  0  0  0
 18 16  1  0  0  0  0
 19 18  1  0  0  0  0
 21 20  1  0  0  0  0
 22 24  1  0  0  0  0
 22 23  1  0  0  0  0
 23 25  1  0  0  0  0
 26 23  2  0  0  0  0
 27 28  1  0  0  0  0
 29 30  1  0  0  0  0
 29  6  1  0  0  0  0
 32 31  1  0  0  0  0
 32 33  1  0  0  0  0
 33 35  1  0  0  0  0
 33 34  2  0  0  0  0
 34 36  1  0  0  0  0
 35 37  2  0  0  0  0
 36 38  1  0  0  0  0
 37 36  1  0  0  0  0
 38 40  2  0  0  0  0
 38 39  1  0  0  0  0
 39 41  2  0  0  0  0
 40 42  1  0  0  0  0
 41 43  1  0  0  0  0
 42 43  2  0  0  0  0
 43 44  1  0  0  0  0
 44 45  1  0  0  0  0
 46 47  1  0  0  0  0
 48 47  1  0  0  0  0
 48 49  1  0  0  0  0
 50 51  1  0  0  0  0
 50 49  1  0  0  0  0
M  END
>  <REMARK>
 VINA RESULT:    -5.007      8.953     16.142
 INTER + INTRA:         -14.184
 INTER:                  -7.389
 INTRA:                  -6.795
 UNBOUND:                -5.226
 SMILES COc1ccc(-n2cc(COC(=O)NC[C@@H](O)C(O)[C@@H]3O[C@@](O)(C(=O)O)C[C@H](O)[C@H]3NC(C)=O)nn2)cc1
 SMILES IDX 14 1 12 2 13 3 15 5 16 6 18 7 20 8 22 9 27 10 21 11 28 12
 SMILES IDX 30 13 23 14 24 16 25 17 26 18 29 20 31 22 32 23 33 25 34 26
 SMILES IDX 19 27 17 29 11 31 10 32 9 33 8 34 35 35 7 36 36 37 6 38 5 39
 SMILES IDX 37 40 4 41 38 42 3 43 2 44 1 45
 H PARENT 14 4 23 15 26 19 29 21 31 24 19 28 17 30
 Flexibility Score: inf
  4 active torsions:
  status: ('A' for Active; 'I' for Inactive)
    1  A    between atoms: CA   and  CB  
    2  A    between atoms: CB   and  CG  
    3  A    between atoms: CG   and  CD  
    4  A    between atoms: CD   and  CE  

>  <TORSDO>
F 16

>  <BEGIN_>
RES LYS A 131

$$$$
ligand_5_pose_9_2HRL.pdbqt
 OpenBabel07062320523D

  6  5  0  0  0  0  0  0  0  0999 V2000
   33.1930   34.6630    9.2900 C   0  0  0  0  0  0  0  0  0  0  0  0
   32.0600   35.3600   10.0340 C   0  0  0  0  0  0  0  0  0  0  0  0
   30.7020   34.7690    9.7540 C   0  0  0  0  0  0  0  0  0  0  0  0
   29.8100   34.8680   10.9820 C   0  0  0  0  0  0  0  0  0  0  0  0
   30.6080   35.3390   12.1830 C   0  0  0  0  0  0  0  0  0  0  0  0
   30.5810   34.3270   13.2750 N   0  0  0  0  0  0  0  0  0  0  0  0
  1  2  1  0  0  0  0
  3  2  1  0  0  0  0
  3  4  1  0  0  0  0
  4  5  1  0  0  0  0
  5  6  1  0  0  0  0
M  END
>  <EGIN_R>
ES LYS A 135

>  <REMARK>
  4 active torsions:
  status: ('A' for Active; 'I' for Inactive)
    5  A    between atoms: CA   and  CB  
    6  A    between atoms: CB   and  CG  
    7  A    between atoms: CG   and  CD  
    8  A    between atoms: CD   and  CE  

$$$$
