ligand_47_pose_4_2HRL.pdbqt
 OpenBabel07062320523D

 62 64  0  0  1  0  0  0  0  0999 V2000
   30.4060   33.4580   17.0240 N   0  0  0  0  0  0  0  0  0  0  0  0
   31.3740   33.2950   15.9990 C   0  0  0  0  0  0  0  0  0  0  0  0
   31.5500   32.1540   15.4800 O   0  0  0  0  0  0  0  0  0  0  0  0
   30.3190   34.4450   17.4070 H   0  0  0  0  0  0  0  0  0  0  0  0
   29.5860   32.3800   17.5240 C   0  0  0  0  0  0  0  0  0  0  0  0
   28.2230   32.3120   16.8340 C   0  0  2  0  0  0  0  0  0  0  0  0
   28.2750   31.1260   15.9200 C   0  0  2  0  0  0  0  0  0  0  0  0
   26.9760   30.3750   15.8380 C   0  0  2  0  0  0  0  0  0  0  0  0
   24.7310   30.7630   15.4090 C   0  0  2  0  0  0  0  0  0  0  0  0
   24.5260   29.3190   15.7880 C   0  0  0  0  0  0  0  0  0  0  0  0
   26.0320   31.1210   15.1880 O   0  0  0  0  0  0  0  0  0  0  0  0
   25.4000   28.8720   16.9090 C   0  0  1  0  0  0  0  0  0  0  0  0
   26.4490   29.9470   17.1880 C   0  0  1  0  0  0  0  0  0  0  0  0
   24.1540   31.5500   16.4100 O   0  0  0  0  0  0  0  0  0  0  0  0
   23.8920   32.4420   16.0560 H   0  0  0  0  0  0  0  0  0  0  0  0
   23.9710   30.9940   14.1570 C   0  0  0  0  0  0  0  0  0  0  0  0
   24.2170   30.2880   13.1490 O   0  0  0  0  0  0  0  0  0  0  0  0
   22.9970   31.9660   14.0660 O   0  0  0  0  0  0  0  0  0  0  0  0
   22.2120   31.8410   13.4120 H   0  0  0  0  0  0  0  0  0  0  0  0
   24.7380   28.4770   18.0440 O   0  0  0  0  0  0  0  0  0  0  0  0
   25.3750   28.3060   18.7860 H   0  0  0  0  0  0  0  0  0  0  0  0
   27.5120   29.3960   18.0170 N   0  0  0  0  0  0  0  0  0  0  0  0
   27.5070   29.6860   19.4010 C   0  0  0  0  0  0  0  0  0  0  0  0
   28.2380   28.8100   17.5770 H   0  0  0  0  0  0  0  0  0  0  0  0
   28.5610   29.1520   20.2910 C   0  0  0  0  0  0  0  0  0  0  0  0
   26.6050   30.4040   19.9000 O   0  0  0  0  0  0  0  0  0  0  0  0
   29.3580   30.3270   16.2230 O   0  0  0  0  0  0  0  0  0  0  0  0
   29.1100   29.5230   16.7630 H   0  0  0  0  0  0  0  0  0  0  0  0
   28.1040   33.5070   16.1030 O   0  0  0  0  0  0  0  0  0  0  0  0
   27.6850   34.1510   16.7480 H   0  0  0  0  0  0  0  0  0  0  0  0
   32.1340   34.3570   15.5520 O   0  0  0  0  0  0  0  0  0  0  0  0
   31.9240   34.9350   14.2570 C   0  0  0  0  0  0  0  0  0  0  0  0
   30.5070   35.3190   14.0780 C   0  0  0  0  0  0  0  0  0  0  0  0
   29.7900   35.2270   12.8750 C   0  0  0  0  0  0  0  0  0  0  0  0
   29.6220   35.8130   14.9510 N   0  0  0  0  0  0  0  0  0  0  0  0
   28.5390   35.6520   13.0530 N   0  0  0  0  0  0  0  0  0  0  0  0
   28.4590   36.0100   14.3540 N   0  0  0  0  0  0  0  0  0  0  0  0
   27.3990   35.7530   12.1870 C   0  0  0  0  0  0  0  0  0  0  0  0
   26.8080   34.4710   11.7060 C   0  0  1  0  0  0  0  0  0  0  0  0
   25.7280   34.0160   12.5820 C   0  0  0  0  0  0  0  0  0  0  0  0
   24.5700   33.7340   12.2290 O   0  0  0  0  0  0  0  0  0  0  0  0
   25.9740   33.8700   13.9640 O   0  0  0  0  0  0  0  0  0  0  0  0
   25.8650   32.9440   14.3860 H   0  0  0  0  0  0  0  0  0  0  0  0
   26.3740   34.5550   10.2530 C   0  0  0  0  0  0  0  0  0  0  0  0
   27.5390   34.6350    9.3400 C   0  0  0  0  0  0  0  0  0  0  0  0
   27.4570   35.3020    8.1120 C   0  0  0  0  0  0  0  0  0  0  0  0
   28.7560   34.0620    9.6530 C   0  0  0  0  0  0  0  0  0  0  0  0
   28.5400   35.3780    7.2630 C   0  0  0  0  0  0  0  0  0  0  0  0
   29.8430   34.1280    8.8200 C   0  0  0  0  0  0  0  0  0  0  0  0
   29.7520   34.7840    7.6190 C   0  0  0  0  0  0  0  0  0  0  0  0
   25.4750   35.6780    9.9680 C   0  0  0  0  0  0  0  0  0  0  0  0
   24.2490   35.3880    9.3560 C   0  0  0  0  0  0  0  0  0  0  0  0
   25.7670   36.9920   10.2660 C   0  0  0  0  0  0  0  0  0  0  0  0
   23.3790   36.4140    9.0740 C   0  0  0  0  0  0  0  0  0  0  0  0
   24.8970   38.0210    9.9840 C   0  0  0  0  0  0  0  0  0  0  0  0
   23.6770   37.7420    9.3770 C   0  0  0  0  0  0  0  0  0  0  0  0
   29.8670   25.5550   16.9770 C   0  0  0  0  0  0  0  0  0  0  0  0
   28.3450   25.7220   17.0260 C   0  0  0  0  0  0  0  0  0  0  0  0
   27.6010   24.4020   16.8900 C   0  0  0  0  0  0  0  0  0  0  0  0
   26.4930   24.2700   17.8980 C   0  0  0  0  0  0  0  0  0  0  0  0
   25.1550   24.5500   17.2220 C   0  0  0  0  0  0  0  0  0  0  0  0
   24.1610   25.0200   18.2160 N   0  0  0  0  0  0  0  0  0  0  0  0
  1  4  1  0  0  0  0
  1  5  1  0  0  0  0
  2  1  1  0  0  0  0
  3  2  2  0  0  0  0
  6  5  1  6  0  0  0
  7 27  1  1  0  0  0
  7  6  1  0  0  0  0
  8  7  1  1  0  0  0
  8 13  1  0  0  0  0
  9 16  1  6  0  0  0
  9 10  1  0  0  0  0
  9 14  1  0  0  0  0
 10 12  1  0  0  0  0
 11  9  1  0  0  0  0
 11  8  1  0  0  0  0
 12 13  1  0  0  0  0
 12 20  1  1  0  0  0
 13 22  1  1  0  0  0
 15 14  1  0  0  0  0
 17 16  2  0  0  0  0
 18 16  1  0  0  0  0
 19 18  1  0  0  0  0
 20 21  1  0  0  0  0
 22 23  1  0  0  0  0
 23 26  2  0  0  0  0
 23 25  1  0  0  0  0
 24 22  1  0  0  0  0
 27 28  1  0  0  0  0
 29 30  1  0  0  0  0
 29  6  1  0  0  0  0
 31  2  1  0  0  0  0
 32 31  1  0  0  0  0
 33 32  1  0  0  0  0
 33 35  1  0  0  0  0
 34 36  1  0  0  0  0
 34 33  2  0  0  0  0
 36 37  1  0  0  0  0
 37 35  2  0  0  0  0
 38 36  1  0  0  0  0
 39 38  1  1  0  0  0
 39 40  1  0  0  0  0
 40 42  1  0  0  0  0
 41 40  2  0  0  0  0
 42 43  1  0  0  0  0
 44 39  1  0  0  0  0
 45 47  1  0  0  0  0
 45 44  1  0  0  0  0
 46 45  2  0  0  0  0
 48 50  2  0  0  0  0
 48 46  1  0  0  0  0
 49 47  2  0  0  0  0
 50 49  1  0  0  0  0
 51 44  1  0  0  0  0
 51 53  2  0  0  0  0
 52 51  1  0  0  0  0
 54 52  2  0  0  0  0
 54 56  1  0  0  0  0
 55 53  1  0  0  0  0
 56 55  2  0  0  0  0
 57 58  1  0  0  0  0
 59 58  1  0  0  0  0
 59 60  1  0  0  0  0
 61 60  1  0  0  0  0
 61 62  1  0  0  0  0
M  END
>  <REMARK>
 VINA RESULT:    -5.547      1.620      3.058
 INTER + INTRA:         -17.682
 INTER:                 -12.075
 INTRA:                  -5.608
 UNBOUND:                -6.299
 SMILES CC(=O)N[C@@H]1[C@@H](O)C[C@](O)(C(=O)O)O[C@H]1C(O)[C@H](O)CNC(=O)OCc1cn(C[C@@H](C(=O)O)C(c2ccccc2)c2ccccc2)nn1
 SMILES IDX 21 1 22 2 23 3 20 5 18 6 16 7 15 8 9 9 8 10 14 11 6 12 5 13
 SMILES IDX 10 14 11 16 12 17 13 18 7 20 4 22 2 23 1 25 3 26 17 27 19 29
 SMILES IDX 24 31 25 32 26 33 27 34 48 35 28 36 47 37 29 38 30 39 31 40
 SMILES IDX 32 41 33 42 34 44 35 45 36 46 40 47 37 48 39 49 38 50 41 51
 SMILES IDX 42 52 46 53 43 54 45 55 44 56
 H PARENT 21 4 10 15 13 19 7 21 4 24 17 28 19 30 33 43
 Flexibility Score: inf
  4 active torsions:
  status: ('A' for Active; 'I' for Inactive)
    1  A    between atoms: CA   and  CB  
    2  A    between atoms: CB   and  CG  
    3  A    between atoms: CG   and  CD  
    4  A    between atoms: CD   and  CE  

>  <TORSDO>
F 21

>  <BEGIN_>
RES LYS A 131

$$$$
ligand_47_pose_4_2HRL.pdbqt
 OpenBabel07062320523D

  6  5  0  0  0  0  0  0  0  0999 V2000
   33.1930   34.6630    9.2900 C   0  0  0  0  0  0  0  0  0  0  0  0
   32.0600   35.3600   10.0340 C   0  0  0  0  0  0  0  0  0  0  0  0
   32.5350   36.3800   11.0360 C   0  0  0  0  0  0  0  0  0  0  0  0
   31.8050   37.7000   10.8460 C   0  0  0  0  0  0  0  0  0  0  0  0
   30.7060   37.5570    9.8100 C   0  0  0  0  0  0  0  0  0  0  0  0
   30.9500   38.4480    8.6420 N   0  0  0  0  0  0  0  0  0  0  0  0
  1  2  1  0  0  0  0
  2  3  1  0  0  0  0
  4  3  1  0  0  0  0
  5  4  1  0  0  0  0
  6  5  1  0  0  0  0
M  END
>  <EGIN_R>
ES LYS A 135

>  <REMARK>
  4 active torsions:
  status: ('A' for Active; 'I' for Inactive)
    5  A    between atoms: CA   and  CB  
    6  A    between atoms: CB   and  CG  
    7  A    between atoms: CG   and  CD  
    8  A    between atoms: CD   and  CE  

$$$$
