ligand_62_pose_7_2HRL.pdbqt
 OpenBabel07062320523D

 52 52  0  0  1  0  0  0  0  0999 V2000
   31.3460   33.1980   19.8490 N   0  0  0  0  0  0  0  0  0  0  0  0
   30.5920   34.3670   20.0800 C   0  0  0  0  0  0  0  0  0  0  0  0
   30.0500   34.6010   21.1840 O   0  0  0  0  0  0  0  0  0  0  0  0
   31.7670   33.0940   18.8910 H   0  0  0  0  0  0  0  0  0  0  0  0
   31.5870   32.1550   20.7850 C   0  0  0  0  0  0  0  0  0  0  0  0
   30.7070   30.9610   20.7280 C   0  0  2  0  0  0  0  0  0  0  0  0
   29.6720   31.0370   19.6260 C   0  0  2  0  0  0  0  0  0  0  0  0
   28.5750   30.0250   19.7210 C   0  0  2  0  0  0  0  0  0  0  0  0
   28.2550   27.8270   20.3690 C   0  0  2  0  0  0  0  0  0  0  0  0
   26.8370   28.2990   20.1820 C   0  0  0  0  0  0  0  0  0  0  0  0
   29.1850   28.8320   20.1650 O   0  0  0  0  0  0  0  0  0  0  0  0
   26.5860   28.9440   18.8660 C   0  0  1  0  0  0  0  0  0  0  0  0
   27.8580   29.7040   18.4550 C   0  0  1  0  0  0  0  0  0  0  0  0
   28.4670   26.7210   19.5660 O   0  0  0  0  0  0  0  0  0  0  0  0
   28.7610   25.9200   20.0670 H   0  0  0  0  0  0  0  0  0  0  0  0
   28.3880   27.3840   21.7840 C   0  0  0  0  0  0  0  0  0  0  0  0
   29.2480   27.8840   22.5600 O   0  0  0  0  0  0  0  0  0  0  0  0
   27.5680   26.3900   22.3300 O   0  0  0  0  0  0  0  0  0  0  0  0
   27.0560   25.7440   21.7440 H   0  0  0  0  0  0  0  0  0  0  0  0
   26.2160   28.0420   17.8710 O   0  0  0  0  0  0  0  0  0  0  0  0
   26.8660   27.2880   17.9170 H   0  0  0  0  0  0  0  0  0  0  0  0
   27.4200   30.7930   17.6530 N   0  0  0  0  0  0  0  0  0  0  0  0
   27.9410   31.0460   16.3280 C   0  0  0  0  0  0  0  0  0  0  0  0
   26.6900   31.4690   17.9620 H   0  0  0  0  0  0  0  0  0  0  0  0
   27.4540   32.1940   15.5280 C   0  0  0  0  0  0  0  0  0  0  0  0
   28.8030   30.2960   15.8550 O   0  0  0  0  0  0  0  0  0  0  0  0
   30.4040   30.6730   18.4530 O   0  0  0  0  0  0  0  0  0  0  0  0
   30.1720   31.2470   17.7050 H   0  0  0  0  0  0  0  0  0  0  0  0
   29.9920   30.8350   21.9170 O   0  0  0  0  0  0  0  0  0  0  0  0
   30.4300   30.1740   22.5040 H   0  0  0  0  0  0  0  0  0  0  0  0
   30.4190   35.3180   19.0790 O   0  0  0  0  0  0  0  0  0  0  0  0
   29.4340   35.1780   18.0900 C   0  0  0  0  0  0  0  0  0  0  0  0
   30.0090   34.6370   16.8450 C   0  0  0  0  0  0  0  0  0  0  0  0
   29.9840   35.2060   15.5870 C   0  0  0  0  0  0  0  0  0  0  0  0
   30.6680   33.4630   16.7460 N   0  0  0  0  0  0  0  0  0  0  0  0
   30.6220   34.3690   14.7780 N   0  0  0  0  0  0  0  0  0  0  0  0
   31.0250   33.3390   15.4650 N   0  0  0  0  0  0  0  0  0  0  0  0
   30.8430   34.5570   13.3460 C   0  0  1  0  0  0  0  0  0  0  0  0
   29.7890   35.4890   12.8190 C   0  0  0  0  0  0  0  0  0  0  0  0
   28.7620   34.7870   12.2320 O   0  0  0  0  0  0  0  0  0  0  0  0
   27.6610   35.5470   11.8980 C   0  0  0  0  0  0  0  0  0  0  0  0
   32.1850   35.1960   13.1470 C   0  0  0  0  0  0  0  0  0  0  0  0
   32.3100   36.1990   12.4290 O   0  0  0  0  0  0  0  0  0  0  0  0
   33.2980   34.6100   13.8070 N   0  0  0  0  0  0  0  0  0  0  0  0
   34.1300   35.2100   14.0110 H   0  0  0  0  0  0  0  0  0  0  0  0
   33.2900   33.6210   14.0820 H   0  0  0  0  0  0  0  0  0  0  0  0
   29.8670   25.5550   16.9770 C   0  0  0  0  0  0  0  0  0  0  0  0
   28.3450   25.7220   17.0260 C   0  0  0  0  0  0  0  0  0  0  0  0
   27.6010   24.4060   16.8570 C   0  0  0  0  0  0  0  0  0  0  0  0
   26.4700   24.2660   17.8380 C   0  0  0  0  0  0  0  0  0  0  0  0
   25.1390   24.3790   17.1010 C   0  0  0  0  0  0  0  0  0  0  0  0
   24.3190   23.1640   17.3200 N   0  0  0  0  0  0  0  0  0  0  0  0
  1  2  1  0  0  0  0
  1  5  1  0  0  0  0
  2  3  2  0  0  0  0
  4  1  1  0  0  0  0
  6  5  1  1  0  0  0
  6 29  1  0  0  0  0
  7 27  1  6  0  0  0
  7  6  1  0  0  0  0
  8  7  1  6  0  0  0
  8 11  1  0  0  0  0
  9 14  1  6  0  0  0
  9 16  1  0  0  0  0
 10  9  1  0  0  0  0
 11  9  1  0  0  0  0
 12 20  1  6  0  0  0
 12 10  1  0  0  0  0
 13 22  1  1  0  0  0
 13 12  1  0  0  0  0
 13  8  1  0  0  0  0
 14 15  1  0  0  0  0
 16 18  1  0  0  0  0
 16 17  2  0  0  0  0
 19 18  1  0  0  0  0
 20 21  1  0  0  0  0
 22 24  1  0  0  0  0
 23 22  1  0  0  0  0
 25 23  1  0  0  0  0
 26 23  2  0  0  0  0
 28 27  1  0  0  0  0
 29 30  1  0  0  0  0
 31  2  1  0  0  0  0
 32 31  1  0  0  0  0
 33 32  1  0  0  0  0
 34 33  2  0  0  0  0
 35 33  1  0  0  0  0
 36 37  1  0  0  0  0
 36 34  1  0  0  0  0
 37 35  2  0  0  0  0
 38 39  1  1  0  0  0
 38 36  1  0  0  0  0
 40 39  1  0  0  0  0
 41 40  1  0  0  0  0
 42 38  1  0  0  0  0
 42 44  1  0  0  0  0
 43 42  2  0  0  0  0
 44 45  1  0  0  0  0
 44 46  1  0  0  0  0
 47 48  1  0  0  0  0
 49 48  1  0  0  0  0
 49 50  1  0  0  0  0
 51 52  1  0  0  0  0
 51 50  1  0  0  0  0
M  END
>  <REMARK>
 VINA RESULT:    -4.076      1.761      3.627
 INTER + INTRA:         -14.523
 INTER:                  -7.851
 INTRA:                  -6.672
 UNBOUND:                -6.753
 SMILES COCC(C(N)=O)n1cc(COC(=O)NC[C@@H](O)C(O)[C@@H]2O[C@@](O)(C(=O)O)C[C@H](O)[C@H]2NC(C)=O)nn1
 SMILES IDX 15 1 13 2 14 3 16 5 17 6 19 7 21 8 23 9 28 10 22 11 29 12
 SMILES IDX 31 13 24 14 25 16 26 17 27 18 30 20 32 22 33 23 34 25 35 26
 SMILES IDX 20 27 18 29 12 31 11 32 10 33 9 34 36 35 8 36 37 37 4 38
 SMILES IDX 3 39 2 40 1 41 5 42 7 43 6 44
 H PARENT 15 4 24 15 27 19 30 21 32 24 20 28 18 30 6 45 6 46
 Flexibility Score: inf
  4 active torsions:
  status: ('A' for Active; 'I' for Inactive)
    1  A    between atoms: CA   and  CB  
    2  A    between atoms: CB   and  CG  
    3  A    between atoms: CG   and  CD  
    4  A    between atoms: CD   and  CE  

>  <TORSDO>
F 18

>  <BEGIN_>
RES LYS A 131

$$$$
ligand_62_pose_7_2HRL.pdbqt
 OpenBabel07062320523D

  6  5  0  0  0  0  0  0  0  0999 V2000
   33.1930   34.6630    9.2900 C   0  0  0  0  0  0  0  0  0  0  0  0
   32.0600   35.3600   10.0340 C   0  0  0  0  0  0  0  0  0  0  0  0
   30.7990   35.4960    9.2200 C   0  0  0  0  0  0  0  0  0  0  0  0
   30.1610   34.1350    8.9870 C   0  0  0  0  0  0  0  0  0  0  0  0
   28.7040   34.2890    8.5950 C   0  0  0  0  0  0  0  0  0  0  0  0
   28.5530   35.2360    7.4560 N   0  0  0  0  0  0  0  0  0  0  0  0
  1  2  1  0  0  0  0
  3  2  1  0  0  0  0
  4  3  1  0  0  0  0
  5  4  1  0  0  0  0
  6  5  1  0  0  0  0
M  END
>  <EGIN_R>
ES LYS A 135

>  <REMARK>
  4 active torsions:
  status: ('A' for Active; 'I' for Inactive)
    5  A    between atoms: CA   and  CB  
    6  A    between atoms: CB   and  CG  
    7  A    between atoms: CG   and  CD  
    8  A    between atoms: CD   and  CE  

$$$$
