ligand_38_pose_10_2HRL.pdbqt
 OpenBabel07062320523D

 51 52  0  0  1  0  0  0  0  0999 V2000
   28.0220   31.0520   17.3340 N   0  0  0  0  0  0  0  0  0  0  0  0
   27.5120   30.0300   18.1690 C   0  0  0  0  0  0  0  0  0  0  0  0
   28.2460   29.4920   19.0600 O   0  0  0  0  0  0  0  0  0  0  0  0
   27.3860   31.4640   16.6190 H   0  0  0  0  0  0  0  0  0  0  0  0
   29.3890   31.4470   17.5370 C   0  0  0  0  0  0  0  0  0  0  0  0
   30.2470   31.1390   16.3000 C   0  0  2  0  0  0  0  0  0  0  0  0
   31.0370   32.3730   16.0410 C   0  0  2  0  0  0  0  0  0  0  0  0
   30.2480   33.6320   15.8270 C   0  0  2  0  0  0  0  0  0  0  0  0
   28.7720   34.4400   14.2070 C   0  0  2  0  0  0  0  0  0  0  0  0
   29.2720   35.8320   14.5430 C   0  0  0  0  0  0  0  0  0  0  0  0
   29.7310   33.5120   14.5320 O   0  0  0  0  0  0  0  0  0  0  0  0
   30.7600   35.8140   14.8530 C   0  0  1  0  0  0  0  0  0  0  0  0
   30.9570   34.9060   16.0820 C   0  0  1  0  0  0  0  0  0  0  0  0
   28.6840   34.4090   12.7980 O   0  0  0  0  0  0  0  0  0  0  0  0
   27.7880   34.1700   12.4930 H   0  0  0  0  0  0  0  0  0  0  0  0
   27.4330   34.1770   14.7390 C   0  0  0  0  0  0  0  0  0  0  0  0
   26.6250   35.1190   14.9100 O   0  0  0  0  0  0  0  0  0  0  0  0
   26.9910   32.9060   15.0770 O   0  0  0  0  0  0  0  0  0  0  0  0
   26.5430   32.7610   15.9600 H   0  0  0  0  0  0  0  0  0  0  0  0
   31.4960   35.3950   13.7750 O   0  0  0  0  0  0  0  0  0  0  0  0
   32.3460   34.9670   14.1120 H   0  0  0  0  0  0  0  0  0  0  0  0
   30.3360   35.6610   17.1780 N   0  0  0  0  0  0  0  0  0  0  0  0
   31.0980   36.1230   18.2840 C   0  0  0  0  0  0  0  0  0  0  0  0
   29.3190   35.8900   17.1960 H   0  0  0  0  0  0  0  0  0  0  0  0
   30.4400   36.8940   19.4000 C   0  0  0  0  0  0  0  0  0  0  0  0
   32.3180   35.9110   18.3740 O   0  0  0  0  0  0  0  0  0  0  0  0
   31.7040   32.1510   14.8070 O   0  0  0  0  0  0  0  0  0  0  0  0
   32.6650   32.3380   15.0070 H   0  0  0  0  0  0  0  0  0  0  0  0
   29.3460   30.8080   15.2920 O   0  0  0  0  0  0  0  0  0  0  0  0
   29.1370   29.8520   15.3640 H   0  0  0  0  0  0  0  0  0  0  0  0
   26.2120   29.5550   18.0800 O   0  0  0  0  0  0  0  0  0  0  0  0
   25.1180   30.3400   17.6390 C   0  0  0  0  0  0  0  0  0  0  0  0
   24.4680   29.7400   16.4440 C   0  0  0  0  0  0  0  0  0  0  0  0
   24.5850   30.1930   15.1250 C   0  0  0  0  0  0  0  0  0  0  0  0
   23.6570   28.6700   16.3680 N   0  0  0  0  0  0  0  0  0  0  0  0
   23.8570   29.3960   14.3370 N   0  0  0  0  0  0  0  0  0  0  0  0
   23.3050   28.4820   15.1120 N   0  0  0  0  0  0  0  0  0  0  0  0
   23.6690   29.4690   12.9050 C   0  0  0  0  0  0  0  0  0  0  0  0
   22.2580   29.8130   12.5900 C   0  0  0  0  0  0  0  0  0  0  0  0
   21.8110   31.1150   12.6520 C   0  0  0  0  0  0  0  0  0  0  0  0
   21.3770   28.8310   12.2310 C   0  0  0  0  0  0  0  0  0  0  0  0
   20.4840   31.4400   12.3570 C   0  0  0  0  0  0  0  0  0  0  0  0
   20.0510   29.1440   11.9340 C   0  0  0  0  0  0  0  0  0  0  0  0
   19.6060   30.4540   11.9980 C   0  0  0  0  0  0  0  0  0  0  0  0
   18.8560   27.7530   11.4390 Br  0  0  0  0  0  0  0  0  0  0  0  0
   29.8670   25.5550   16.9770 C   0  0  0  0  0  0  0  0  0  0  0  0
   28.3450   25.7220   17.0260 C   0  0  0  0  0  0  0  0  0  0  0  0
   27.5990   24.4550   16.6370 C   0  0  0  0  0  0  0  0  0  0  0  0
   27.0000   23.7620   17.8290 C   0  0  0  0  0  0  0  0  0  0  0  0
   26.0660   24.7210   18.5600 C   0  0  0  0  0  0  0  0  0  0  0  0
   24.8070   24.9000   17.7990 N   0  0  0  0  0  0  0  0  0  0  0  0
  1  5  1  0  0  0  0
  1  2  1  0  0  0  0
  2  3  2  0  0  0  0
  4  1  1  0  0  0  0
  6  5  1  1  0  0  0
  7 27  1  6  0  0  0
  7  6  1  0  0  0  0
  8  7  1  6  0  0  0
  8 13  1  0  0  0  0
  9 14  1  6  0  0  0
  9 11  1  0  0  0  0
  9 10  1  0  0  0  0
  9 16  1  0  0  0  0
 10 12  1  0  0  0  0
 11  8  1  0  0  0  0
 12 20  1  6  0  0  0
 12 13  1  0  0  0  0
 13 22  1  1  0  0  0
 15 14  1  0  0  0  0
 16 17  2  0  0  0  0
 16 18  1  0  0  0  0
 18 19  1  0  0  0  0
 20 21  1  0  0  0  0
 22 24  1  0  0  0  0
 22 23  1  0  0  0  0
 23 26  2  0  0  0  0
 23 25  1  0  0  0  0
 27 28  1  0  0  0  0
 29 30  1  0  0  0  0
 29  6  1  0  0  0  0
 31  2  1  0  0  0  0
 32 31  1  0  0  0  0
 33 32  1  0  0  0  0
 34 33  2  0  0  0  0
 35 33  1  0  0  0  0
 36 37  1  0  0  0  0
 36 34  1  0  0  0  0
 37 35  2  0  0  0  0
 38 36  1  0  0  0  0
 39 40  1  0  0  0  0
 39 38  1  0  0  0  0
 41 39  2  0  0  0  0
 42 40  2  0  0  0  0
 43 44  2  0  0  0  0
 43 41  1  0  0  0  0
 44 42  1  0  0  0  0
 45 43  1  0  0  0  0
 46 47  1  0  0  0  0
 48 47  1  0  0  0  0
 48 49  1  0  0  0  0
 49 50  1  0  0  0  0
 51 50  1  0  0  0  0
M  END
>  <REMARK>
 VINA RESULT:    -4.685      1.741      3.251
 INTER + INTRA:         -14.678
 INTER:                  -9.232
 INTRA:                  -5.445
 UNBOUND:                -6.295
 SMILES CC(=O)N[C@@H]1[C@@H](O)C[C@](O)(C(=O)O)O[C@H]1C(O)[C@H](O)CNC(=O)OCc1cn(Cc2cccc(Br)c2)nn1
 SMILES IDX 21 1 22 2 23 3 20 5 18 6 16 7 15 8 9 9 8 10 14 11 6 12 5 13
 SMILES IDX 10 14 11 16 12 17 13 18 7 20 4 22 2 23 1 25 3 26 17 27 19 29
 SMILES IDX 24 31 25 32 26 33 27 34 38 35 28 36 37 37 29 38 30 39 31 40
 SMILES IDX 36 41 32 42 34 43 33 44 35 45
 H PARENT 21 4 10 15 13 19 7 21 4 24 17 28 19 30
 Flexibility Score: inf
  4 active torsions:
  status: ('A' for Active; 'I' for Inactive)
    1  A    between atoms: CA   and  CB  
    2  A    between atoms: CB   and  CG  
    3  A    between atoms: CG   and  CD  
    4  A    between atoms: CD   and  CE  

>  <TORSDO>
F 16

>  <BEGIN_>
RES LYS A 131

$$$$
ligand_38_pose_10_2HRL.pdbqt
 OpenBabel07062320523D

  6  5  0  0  0  0  0  0  0  0999 V2000
   33.1930   34.6630    9.2900 C   0  0  0  0  0  0  0  0  0  0  0  0
   32.0600   35.3600   10.0340 C   0  0  0  0  0  0  0  0  0  0  0  0
   30.7210   34.6910    9.8560 C   0  0  0  0  0  0  0  0  0  0  0  0
   30.2900   34.7340    8.3990 C   0  0  0  0  0  0  0  0  0  0  0  0
   28.7890   34.5450    8.2820 C   0  0  0  0  0  0  0  0  0  0  0  0
   28.2510   33.7930    9.4490 N   0  0  0  0  0  0  0  0  0  0  0  0
  1  2  1  0  0  0  0
  3  2  1  0  0  0  0
  4  3  1  0  0  0  0
  5  4  1  0  0  0  0
  5  6  1  0  0  0  0
M  END
>  <EGIN_R>
ES LYS A 135

>  <REMARK>
  4 active torsions:
  status: ('A' for Active; 'I' for Inactive)
    5  A    between atoms: CA   and  CB  
    6  A    between atoms: CB   and  CG  
    7  A    between atoms: CG   and  CD  
    8  A    between atoms: CD   and  CE  

$$$$
