ligand_43_pose_16_2HRL.pdbqt
 OpenBabel07062320523D

 49 49  0  0  1  0  0  0  0  0999 V2000
   27.8480   40.3550   10.0080 O   0  0  0  0  0  0  0  0  0  0  0  0
   26.7960   39.5330   10.3600 C   0  0  0  0  0  0  0  0  0  0  0  0
   26.9720   38.1230   10.1630 N   0  0  0  0  0  0  0  0  0  0  0  0
   27.8720   37.7880    9.7700 H   0  0  0  0  0  0  0  0  0  0  0  0
   25.7120   39.9980   10.8400 O   0  0  0  0  0  0  0  0  0  0  0  0
   25.9510   37.1870   10.4920 C   0  0  0  0  0  0  0  0  0  0  0  0
   25.3610   36.4670    9.2770 C   0  0  2  0  0  0  0  0  0  0  0  0
   24.4730   37.4770    8.5950 C   0  0  2  0  0  0  0  0  0  0  0  0
   23.0660   37.4870    9.0950 C   0  0  2  0  0  0  0  0  0  0  0  0
   21.0780   36.5240    8.3830 C   0  0  2  0  0  0  0  0  0  0  0  0
   20.4430   37.5220    9.3290 C   0  0  0  0  0  0  0  0  0  0  0  0
   22.4140   36.3500    8.6990 O   0  0  0  0  0  0  0  0  0  0  0  0
   20.9830   38.8880    8.9730 C   0  0  1  0  0  0  0  0  0  0  0  0
   22.4150   38.7490    8.5120 C   0  0  1  0  0  0  0  0  0  0  0  0
   20.8910   36.9010    7.0560 O   0  0  0  0  0  0  0  0  0  0  0  0
   21.2740   36.2250    6.4540 H   0  0  0  0  0  0  0  0  0  0  0  0
   20.3640   35.2370    8.5730 C   0  0  0  0  0  0  0  0  0  0  0  0
   19.8540   34.9070    9.6750 O   0  0  0  0  0  0  0  0  0  0  0  0
   20.2130   34.3060    7.5310 O   0  0  0  0  0  0  0  0  0  0  0  0
   20.4180   33.3320    7.7420 H   0  0  0  0  0  0  0  0  0  0  0  0
   20.2500   39.4000    7.9190 O   0  0  0  0  0  0  0  0  0  0  0  0
   20.8410   39.5440    7.1400 H   0  0  0  0  0  0  0  0  0  0  0  0
   23.2230   39.8860    8.9150 N   0  0  0  0  0  0  0  0  0  0  0  0
   23.4030   41.0410    8.1030 C   0  0  0  0  0  0  0  0  0  0  0  0
   23.7240   39.9100    9.8470 H   0  0  0  0  0  0  0  0  0  0  0  0
   24.2370   42.2050    8.5290 C   0  0  0  0  0  0  0  0  0  0  0  0
   22.8180   41.0440    6.9850 O   0  0  0  0  0  0  0  0  0  0  0  0
   24.5550   37.2000    7.2200 O   0  0  0  0  0  0  0  0  0  0  0  0
   24.2090   37.9490    6.6740 H   0  0  0  0  0  0  0  0  0  0  0  0
   24.7130   35.3050    9.6390 O   0  0  0  0  0  0  0  0  0  0  0  0
   24.5180   35.2100   10.5860 H   0  0  0  0  0  0  0  0  0  0  0  0
   27.8450   41.0240    8.7740 C   0  0  0  0  0  0  0  0  0  0  0  0
   27.6650   39.9770    7.7160 C   0  0  0  0  0  0  0  0  0  0  0  0
   28.6730   39.1250    7.2940 C   0  0  0  0  0  0  0  0  0  0  0  0
   26.5900   39.6510    6.9980 N   0  0  0  0  0  0  0  0  0  0  0  0
   28.1790   38.3200    6.3450 N   0  0  0  0  0  0  0  0  0  0  0  0
   26.9150   38.6610    6.1860 N   0  0  0  0  0  0  0  0  0  0  0  0
   28.8360   37.2610    5.5940 C   0  0  0  0  0  0  0  0  0  0  0  0
   28.4120   35.9170    6.1230 C   0  0  0  0  0  0  0  0  0  0  0  0
   28.6400   35.8130    7.6100 C   0  0  0  0  0  0  0  0  0  0  0  0
   29.6200   34.7250    7.9640 C   0  0  0  0  0  0  0  0  0  0  0  0
   29.2510   34.1100    9.2590 C   0  0  0  0  0  0  0  0  0  0  0  0
   28.0170   33.7770    9.5650 C   0  0  0  0  0  0  0  0  0  0  0  0
   29.8670   25.5550   16.9770 C   0  0  0  0  0  0  0  0  0  0  0  0
   28.3450   25.7220   17.0260 C   0  0  0  0  0  0  0  0  0  0  0  0
   27.5990   24.4730   16.5810 C   0  0  0  0  0  0  0  0  0  0  0  0
   27.1380   23.6440   17.7480 C   0  0  0  0  0  0  0  0  0  0  0  0
   25.7400   24.0870   18.1670 C   0  0  0  0  0  0  0  0  0  0  0  0
   24.9070   24.3730   16.9750 N   0  0  0  0  0  0  0  0  0  0  0  0
  1  2  1  0  0  0  0
  2  5  2  0  0  0  0
  3  2  1  0  0  0  0
  3  6  1  0  0  0  0
  4  3  1  0  0  0  0
  7 30  1  0  0  0  0
  7  6  1  1  0  0  0
  8 28  1  6  0  0  0
  8  7  1  0  0  0  0
  9  8  1  6  0  0  0
 10 15  1  6  0  0  0
 10 17  1  0  0  0  0
 10 12  1  0  0  0  0
 10 11  1  0  0  0  0
 12  9  1  0  0  0  0
 13 21  1  6  0  0  0
 13 11  1  0  0  0  0
 14 23  1  1  0  0  0
 14 13  1  0  0  0  0
 14  9  1  0  0  0  0
 16 15  1  0  0  0  0
 17 18  2  0  0  0  0
 19 20  1  0  0  0  0
 19 17  1  0  0  0  0
 22 21  1  0  0  0  0
 23 25  1  0  0  0  0
 24 26  1  0  0  0  0
 24 23  1  0  0  0  0
 27 24  2  0  0  0  0
 29 28  1  0  0  0  0
 30 31  1  0  0  0  0
 32  1  1  0  0  0  0
 33 32  1  0  0  0  0
 34 33  2  0  0  0  0
 35 33  1  0  0  0  0
 36 34  1  0  0  0  0
 37 36  1  0  0  0  0
 37 35  2  0  0  0  0
 38 39  1  0  0  0  0
 38 36  1  0  0  0  0
 39 40  1  0  0  0  0
 40 41  1  0  0  0  0
 41 42  1  0  0  0  0
 42 43  2  0  0  0  0
 44 45  1  0  0  0  0
 46 45  1  0  0  0  0
 46 47  1  0  0  0  0
 47 48  1  0  0  0  0
 49 48  1  0  0  0  0
M  END
>  <REMARK>
 VINA RESULT:    -4.717      6.242     10.359
 INTER + INTRA:         -14.052
 INTER:                  -9.267
 INTRA:                  -4.785
 UNBOUND:                -4.785
 SMILES C=CCCCCn1cc(COC(=O)NC[C@@H](O)C(O)[C@@H]2O[C@@](O)(C(=O)O)C[C@H](O)[C@H]2NC(C)=O)nn1
 SMILES IDX 11 1 12 2 14 3 13 5 15 6 16 7 18 8 20 9 22 10 27 11 21 12
 SMILES IDX 28 13 30 14 23 15 24 17 25 18 26 19 29 21 31 23 32 24 33 26
 SMILES IDX 34 27 19 28 17 30 10 32 9 33 8 34 35 35 7 36 36 37 6 38 5 39
 SMILES IDX 4 40 3 41 2 42 1 43
 H PARENT 14 4 23 16 26 20 29 22 31 25 19 29 17 31
 Flexibility Score: inf
  4 active torsions:
  status: ('A' for Active; 'I' for Inactive)
    1  A    between atoms: CA   and  CB  
    2  A    between atoms: CB   and  CG  
    3  A    between atoms: CG   and  CD  
    4  A    between atoms: CD   and  CE  

>  <TORSDO>
F 19

>  <BEGIN_>
RES LYS A 131

$$$$
ligand_43_pose_16_2HRL.pdbqt
 OpenBabel07062320523D

  6  5  0  0  0  0  0  0  0  0999 V2000
   33.1930   34.6630    9.2900 C   0  0  0  0  0  0  0  0  0  0  0  0
   32.0600   35.3600   10.0340 C   0  0  0  0  0  0  0  0  0  0  0  0
   32.4740   35.9270   11.3670 C   0  0  0  0  0  0  0  0  0  0  0  0
   31.8980   37.3220   11.5590 C   0  0  0  0  0  0  0  0  0  0  0  0
   31.1110   37.4000   12.8530 C   0  0  0  0  0  0  0  0  0  0  0  0
   31.9410   36.9690   14.0120 N   0  0  0  0  0  0  0  0  0  0  0  0
  1  2  1  0  0  0  0
  2  3  1  0  0  0  0
  3  4  1  0  0  0  0
  4  5  1  0  0  0  0
  5  6  1  0  0  0  0
M  END
>  <EGIN_R>
ES LYS A 135

>  <REMARK>
  4 active torsions:
  status: ('A' for Active; 'I' for Inactive)
    5  A    between atoms: CA   and  CB  
    6  A    between atoms: CB   and  CG  
    7  A    between atoms: CG   and  CD  
    8  A    between atoms: CD   and  CE  

$$$$
