ligand_8_pose_11_2HRL.pdbqt
 OpenBabel07062320523D

 50 51  0  0  1  0  0  0  0  0999 V2000
   29.9690   28.7680   20.5370 C   0  0  0  0  0  0  0  0  0  0  0  0
   29.4820   27.3470   20.6570 C   0  0  2  0  0  0  0  0  0  0  0  0
   28.0110   27.3840   20.9340 C   0  0  1  0  0  0  0  0  0  0  0  0
   27.1350   26.6990   19.9130 C   0  0  2  0  0  0  0  0  0  0  0  0
   26.4030   28.2810   18.3450 C   0  0  2  0  0  0  0  0  0  0  0  0
   25.1540   27.4510   18.0460 C   0  0  0  0  0  0  0  0  0  0  0  0
   27.3480   27.3900   18.7270 O   0  0  0  0  0  0  0  0  0  0  0  0
   24.6630   26.9730   19.3830 C   0  0  1  0  0  0  0  0  0  0  0  0
   25.7400   26.4700   20.3070 C   0  0  1  0  0  0  0  0  0  0  0  0
   26.0370   29.2380   19.2570 O   0  0  0  0  0  0  0  0  0  0  0  0
   26.1100   30.1200   18.8140 H   0  0  0  0  0  0  0  0  0  0  0  0
   26.8400   28.9630   17.0960 C   0  0  0  0  0  0  0  0  0  0  0  0
   25.9740   29.2950   16.2480 O   0  0  0  0  0  0  0  0  0  0  0  0
   28.1800   29.2400   16.8480 O   0  0  0  0  0  0  0  0  0  0  0  0
   28.5220   29.5790   15.9530 H   0  0  0  0  0  0  0  0  0  0  0  0
   24.0100   28.0560   19.9730 O   0  0  0  0  0  0  0  0  0  0  0  0
   24.4250   28.9020   19.7320 H   0  0  0  0  0  0  0  0  0  0  0  0
   25.5450   25.0170   20.4920 N   0  0  0  0  0  0  0  0  0  0  0  0
   24.7890   24.5080   21.5710 C   0  0  0  0  0  0  0  0  0  0  0  0
   25.9730   24.3290   19.8070 H   0  0  0  0  0  0  0  0  0  0  0  0
   24.5940   23.0310   21.7710 C   0  0  0  0  0  0  0  0  0  0  0  0
   24.2770   25.3270   22.3740 O   0  0  0  0  0  0  0  0  0  0  0  0
   27.7540   27.0550   22.2400 O   0  0  0  0  0  0  0  0  0  0  0  0
   26.7710   27.0160   22.4450 H   0  0  0  0  0  0  0  0  0  0  0  0
   30.1550   26.6990   21.6610 O   0  0  0  0  0  0  0  0  0  0  0  0
   31.1450   26.7520   21.5600 H   0  0  0  0  0  0  0  0  0  0  0  0
   29.2560   29.6170   19.6450 N   0  0  0  0  0  0  0  0  0  0  0  0
   28.6790   30.8530   20.0120 C   0  0  0  0  0  0  0  0  0  0  0  0
   29.1270   29.3330   18.6170 H   0  0  0  0  0  0  0  0  0  0  0  0
   28.7290   31.3200   21.1730 O   0  0  0  0  0  0  0  0  0  0  0  0
   28.0150   31.5990   19.0270 O   0  0  0  0  0  0  0  0  0  0  0  0
   28.5370   32.8700   18.7140 C   0  0  0  0  0  0  0  0  0  0  0  0
   29.1340   32.7980   17.3580 C   0  0  0  0  0  0  0  0  0  0  0  0
   29.9920   33.7650   16.8180 C   0  0  0  0  0  0  0  0  0  0  0  0
   29.0210   31.8890   16.3830 N   0  0  0  0  0  0  0  0  0  0  0  0
   30.3540   33.4110   15.5730 N   0  0  0  0  0  0  0  0  0  0  0  0
   29.7460   32.2620   15.3340 N   0  0  0  0  0  0  0  0  0  0  0  0
   31.2190   34.1420   14.7050 C   0  0  0  0  0  0  0  0  0  0  0  0
   32.5800   34.1950   14.9140 C   0  0  0  0  0  0  0  0  0  0  0  0
   30.7230   34.8270   13.6160 C   0  0  0  0  0  0  0  0  0  0  0  0
   33.4120   34.9150   14.0550 C   0  0  0  0  0  0  0  0  0  0  0  0
   31.5450   35.5430   12.7610 C   0  0  0  0  0  0  0  0  0  0  0  0
   28.8280   34.7610   13.3160 Br  0  0  0  0  0  0  0  0  0  0  0  0
   32.9070   35.5980   12.9670 C   0  0  0  0  0  0  0  0  0  0  0  0
   29.8670   25.5550   16.9770 C   0  0  0  0  0  0  0  0  0  0  0  0
   28.3450   25.7220   17.0260 C   0  0  0  0  0  0  0  0  0  0  0  0
   27.5990   24.4900   16.5370 C   0  0  0  0  0  0  0  0  0  0  0  0
   26.8910   23.7760   17.6550 C   0  0  0  0  0  0  0  0  0  0  0  0
   25.4050   23.6660   17.3280 C   0  0  0  0  0  0  0  0  0  0  0  0
   24.8280   22.4460   17.9390 N   0  0  0  0  0  0  0  0  0  0  0  0
  2  1  1  1  0  0  0
  2  3  1  0  0  0  0
  2 25  1  0  0  0  0
  3 23  1  1  0  0  0
  4  9  1  0  0  0  0
  4  3  1  1  0  0  0
  5 12  1  6  0  0  0
  5  7  1  0  0  0  0
  5 10  1  0  0  0  0
  6  5  1  0  0  0  0
  6  8  1  0  0  0  0
  7  4  1  0  0  0  0
  8 16  1  1  0  0  0
  8  9  1  0  0  0  0
  9 18  1  6  0  0  0
 11 10  1  0  0  0  0
 13 12  2  0  0  0  0
 14 12  1  0  0  0  0
 15 14  1  0  0  0  0
 17 16  1  0  0  0  0
 18 19  1  0  0  0  0
 19 21  1  0  0  0  0
 19 22  2  0  0  0  0
 20 18  1  0  0  0  0
 23 24  1  0  0  0  0
 26 25  1  0  0  0  0
 27 28  1  0  0  0  0
 27  1  1  0  0  0  0
 28 30  2  0  0  0  0
 29 27  1  0  0  0  0
 31 28  1  0  0  0  0
 32 31  1  0  0  0  0
 33 32  1  0  0  0  0
 34 33  2  0  0  0  0
 35 33  1  0  0  0  0
 36 34  1  0  0  0  0
 37 36  1  0  0  0  0
 37 35  2  0  0  0  0
 38 39  1  0  0  0  0
 38 36  1  0  0  0  0
 40 38  2  0  0  0  0
 41 39  2  0  0  0  0
 42 44  2  0  0  0  0
 42 40  1  0  0  0  0
 43 40  1  0  0  0  0
 44 41  1  0  0  0  0
 45 46  1  0  0  0  0
 47 46  1  0  0  0  0
 47 48  1  0  0  0  0
 49 48  1  0  0  0  0
 49 50  1  0  0  0  0
M  END
>  <REMARK>
 VINA RESULT:    -5.509      1.904      3.944
 INTER + INTRA:         -13.931
 INTER:                  -8.559
 INTRA:                  -5.372
 UNBOUND:                -4.396
 SMILES CC(=O)N[C@@H]1[C@@H](O)C[C@](O)(C(=O)O)O[C@H]1C(O)[C@H](O)CNC(=O)OCc1cn(-c2ccccc2Br)nn1
 SMILES IDX 20 1 18 2 16 3 15 4 9 5 8 6 14 7 6 8 5 9 10 10 11 12 12 13
 SMILES IDX 13 14 7 16 4 18 2 19 1 21 3 22 17 23 19 25 21 27 22 28 23 30
 SMILES IDX 24 31 25 32 26 33 27 34 37 35 28 36 36 37 29 38 30 39 34 40
 SMILES IDX 31 41 33 42 35 43 32 44
 H PARENT 10 11 13 15 7 17 4 20 17 24 19 26 21 29
 Flexibility Score: inf
  4 active torsions:
  status: ('A' for Active; 'I' for Inactive)
    1  A    between atoms: CA   and  CB  
    2  A    between atoms: CB   and  CG  
    3  A    between atoms: CG   and  CD  
    4  A    between atoms: CD   and  CE  

>  <TORSDO>
F 15

>  <BEGIN_>
RES LYS A 131

$$$$
ligand_8_pose_11_2HRL.pdbqt
 OpenBabel07062320523D

  6  5  0  0  0  0  0  0  0  0999 V2000
   33.1930   34.6630    9.2900 C   0  0  0  0  0  0  0  0  0  0  0  0
   32.0600   35.3600   10.0340 C   0  0  0  0  0  0  0  0  0  0  0  0
   30.7930   35.4810    9.2260 C   0  0  0  0  0  0  0  0  0  0  0  0
   29.7980   34.4010    9.6240 C   0  0  0  0  0  0  0  0  0  0  0  0
   28.5040   34.5590    8.8500 C   0  0  0  0  0  0  0  0  0  0  0  0
   27.4210   33.7240    9.4410 N   0  0  0  0  0  0  0  0  0  0  0  0
  1  2  1  0  0  0  0
  3  4  1  0  0  0  0
  3  2  1  0  0  0  0
  5  6  1  0  0  0  0
  5  4  1  0  0  0  0
M  END
>  <EGIN_R>
ES LYS A 135

>  <REMARK>
  4 active torsions:
  status: ('A' for Active; 'I' for Inactive)
    5  A    between atoms: CA   and  CB  
    6  A    between atoms: CB   and  CG  
    7  A    between atoms: CG   and  CD  
    8  A    between atoms: CD   and  CE  

$$$$
