ligand_59_pose_3_2HRL.pdbqt
 OpenBabel07062320523D

 52 53  0  0  1  0  0  0  0  0999 V2000
   27.7550   27.7060   18.8030 N   0  0  0  0  0  0  0  0  0  0  0  0
   26.7610   27.9960   17.8090 C   0  0  0  0  0  0  0  0  0  0  0  0
   25.6420   27.4600   17.9710 O   0  0  0  0  0  0  0  0  0  0  0  0
   28.6670   28.1830   18.6370 H   0  0  0  0  0  0  0  0  0  0  0  0
   27.4600   26.8520   19.9220 C   0  0  0  0  0  0  0  0  0  0  0  0
   27.6010   27.6400   21.2140 C   0  0  2  0  0  0  0  0  0  0  0  0
   29.0330   27.4890   21.6390 C   0  0  2  0  0  0  0  0  0  0  0  0
   29.8630   28.7380   21.7040 C   0  0  2  0  0  0  0  0  0  0  0  0
   30.4000   30.4080   20.1270 C   0  0  2  0  0  0  0  0  0  0  0  0
   31.8320   30.4890   20.5940 C   0  0  0  0  0  0  0  0  0  0  0  0
   29.8190   29.2250   20.4240 O   0  0  0  0  0  0  0  0  0  0  0  0
   32.1890   29.0730   21.0050 C   0  0  1  0  0  0  0  0  0  0  0  0
   31.2560   28.6250   22.1570 C   0  0  1  0  0  0  0  0  0  0  0  0
   30.4640   30.5500   18.7050 O   0  0  0  0  0  0  0  0  0  0  0  0
   31.3360   30.9530   18.4590 H   0  0  0  0  0  0  0  0  0  0  0  0
   29.5590   31.5290   20.5960 C   0  0  0  0  0  0  0  0  0  0  0  0
   28.4790   31.7690   20.0230 O   0  0  0  0  0  0  0  0  0  0  0  0
   29.9470   32.3150   21.6630 O   0  0  0  0  0  0  0  0  0  0  0  0
   30.4810   33.1570   21.4840 H   0  0  0  0  0  0  0  0  0  0  0  0
   32.1600   28.1900   19.9540 O   0  0  0  0  0  0  0  0  0  0  0  0
   31.3630   28.3790   19.3820 H   0  0  0  0  0  0  0  0  0  0  0  0
   31.6340   29.4540   23.2550 N   0  0  0  0  0  0  0  0  0  0  0  0
   31.7020   28.9730   24.5720 C   0  0  0  0  0  0  0  0  0  0  0  0
   31.8630   30.4470   23.0740 H   0  0  0  0  0  0  0  0  0  0  0  0
   32.0970   29.8340   25.7130 C   0  0  0  0  0  0  0  0  0  0  0  0
   31.4220   27.7790   24.7990 O   0  0  0  0  0  0  0  0  0  0  0  0
   29.6700   26.6630   20.6950 O   0  0  0  0  0  0  0  0  0  0  0  0
   30.3940   26.1220   21.1130 H   0  0  0  0  0  0  0  0  0  0  0  0
   26.7650   26.9250   22.1150 O   0  0  0  0  0  0  0  0  0  0  0  0
   27.2870   26.2120   22.5180 H   0  0  0  0  0  0  0  0  0  0  0  0
   26.9910   28.8090   16.7340 O   0  0  0  0  0  0  0  0  0  0  0  0
   26.0940   29.7670   16.2610 C   0  0  0  0  0  0  0  0  0  0  0  0
   26.7370   31.0440   15.8640 C   0  0  0  0  0  0  0  0  0  0  0  0
   28.1170   31.2140   15.7220 C   0  0  0  0  0  0  0  0  0  0  0  0
   26.2240   32.2330   15.5720 N   0  0  0  0  0  0  0  0  0  0  0  0
   28.3630   32.4730   15.3610 N   0  0  0  0  0  0  0  0  0  0  0  0
   27.2060   33.0850   15.2730 N   0  0  0  0  0  0  0  0  0  0  0  0
   29.6570   33.0470   15.1240 C   0  0  0  0  0  0  0  0  0  0  0  0
   30.7460   32.8020   15.9340 C   0  0  0  0  0  0  0  0  0  0  0  0
   29.8400   33.8740   14.0830 N   0  0  0  0  0  0  0  0  0  0  0  0
   31.9810   33.3560   15.7210 C   0  0  0  0  0  0  0  0  0  0  0  0
   31.0300   34.4400   13.8330 C   0  0  0  0  0  0  0  0  0  0  0  0
   32.1370   34.2010   14.6400 C   0  0  0  0  0  0  0  0  0  0  0  0
   33.4370   34.8560   14.3150 C   0  0  0  0  0  0  0  0  0  0  0  0
   34.1480   34.0390   13.4450 O   0  0  0  0  0  0  0  0  0  0  0  0
   34.1430   34.4310   12.5350 H   0  0  0  0  0  0  0  0  0  0  0  0
   29.8670   25.5550   16.9770 C   0  0  0  0  0  0  0  0  0  0  0  0
   28.3450   25.7220   17.0260 C   0  0  0  0  0  0  0  0  0  0  0  0
   27.6000   24.4170   16.7900 C   0  0  0  0  0  0  0  0  0  0  0  0
   26.6940   24.0670   17.9390 C   0  0  0  0  0  0  0  0  0  0  0  0
   25.7700   22.9260   17.5280 C   0  0  0  0  0  0  0  0  0  0  0  0
   24.4460   23.4520   17.1170 N   0  0  0  0  0  0  0  0  0  0  0  0
  1  5  1  0  0  0  0
  2  3  2  0  0  0  0
  2  1  1  0  0  0  0
  4  1  1  0  0  0  0
  6  5  1  6  0  0  0
  6  7  1  0  0  0  0
  6 29  1  0  0  0  0
  7 27  1  6  0  0  0
  8  7  1  6  0  0  0
  8 13  1  0  0  0  0
  9 14  1  6  0  0  0
  9 11  1  0  0  0  0
  9 10  1  0  0  0  0
  9 16  1  0  0  0  0
 10 12  1  0  0  0  0
 11  8  1  0  0  0  0
 12 20  1  6  0  0  0
 12 13  1  0  0  0  0
 13 22  1  1  0  0  0
 15 14  1  0  0  0  0
 16 18  1  0  0  0  0
 17 16  2  0  0  0  0
 19 18  1  0  0  0  0
 21 20  1  0  0  0  0
 22 23  1  0  0  0  0
 23 26  2  0  0  0  0
 23 25  1  0  0  0  0
 24 22  1  0  0  0  0
 27 28  1  0  0  0  0
 29 30  1  0  0  0  0
 31  2  1  0  0  0  0
 32 31  1  0  0  0  0
 33 32  1  0  0  0  0
 34 33  2  0  0  0  0
 35 33  1  0  0  0  0
 36 34  1  0  0  0  0
 37 36  1  0  0  0  0
 37 35  2  0  0  0  0
 38 36  1  0  0  0  0
 38 39  2  0  0  0  0
 40 38  1  0  0  0  0
 41 39  1  0  0  0  0
 42 40  2  0  0  0  0
 42 43  1  0  0  0  0
 43 41  2  0  0  0  0
 44 43  1  0  0  0  0
 45 44  1  0  0  0  0
 46 45  1  0  0  0  0
 47 48  1  0  0  0  0
 49 48  1  0  0  0  0
 49 50  1  0  0  0  0
 51 50  1  0  0  0  0
 52 51  1  0  0  0  0
M  END
>  <REMARK>
 VINA RESULT:    -5.188      1.362      1.762
 INTER + INTRA:         -15.169
 INTER:                  -9.585
 INTRA:                  -5.584
 UNBOUND:                -5.735
 SMILES CC(=O)N[C@@H]1[C@@H](O)C[C@](O)(C(=O)O)O[C@H]1C(O)[C@H](O)CNC(=O)OCc1cn(-c2ccc(CO)cn2)nn1
 SMILES IDX 21 1 22 2 23 3 20 5 18 6 16 7 15 8 9 9 8 10 14 11 6 12 5 13
 SMILES IDX 10 14 11 16 12 17 13 18 7 20 4 22 2 23 1 25 3 26 17 27 19 29
 SMILES IDX 24 31 25 32 26 33 27 34 38 35 28 36 37 37 29 38 30 39 36 40
 SMILES IDX 31 41 35 42 32 43 33 44 34 45
 H PARENT 21 4 10 15 13 19 7 21 4 24 17 28 19 30 34 46
 Flexibility Score: inf
  4 active torsions:
  status: ('A' for Active; 'I' for Inactive)
    1  A    between atoms: CA   and  CB  
    2  A    between atoms: CB   and  CG  
    3  A    between atoms: CG   and  CD  
    4  A    between atoms: CD   and  CE  

>  <TORSDO>
F 17

>  <BEGIN_>
RES LYS A 131

$$$$
ligand_59_pose_3_2HRL.pdbqt
 OpenBabel07062320523D

  6  5  0  0  0  0  0  0  0  0999 V2000
   33.1930   34.6630    9.2900 C   0  0  0  0  0  0  0  0  0  0  0  0
   32.0600   35.3600   10.0340 C   0  0  0  0  0  0  0  0  0  0  0  0
   30.6970   34.8020    9.7150 C   0  0  0  0  0  0  0  0  0  0  0  0
   30.6030   34.4220    8.2450 C   0  0  0  0  0  0  0  0  0  0  0  0
   29.4280   35.1200    7.5880 C   0  0  0  0  0  0  0  0  0  0  0  0
   28.1360   34.6350    8.1470 N   0  0  0  0  0  0  0  0  0  0  0  0
  1  2  1  0  0  0  0
  3  2  1  0  0  0  0
  4  3  1  0  0  0  0
  5  6  1  0  0  0  0
  5  4  1  0  0  0  0
M  END
>  <EGIN_R>
ES LYS A 135

>  <REMARK>
  4 active torsions:
  status: ('A' for Active; 'I' for Inactive)
    5  A    between atoms: CA   and  CB  
    6  A    between atoms: CB   and  CG  
    7  A    between atoms: CG   and  CD  
    8  A    between atoms: CD   and  CE  

$$$$
