ligand_5_pose_11_2HRL.pdbqt
 OpenBabel07062320523D

 51 52  0  0  1  0  0  0  0  0999 V2000
   29.4560   30.7700   17.3090 N   0  0  0  0  0  0  0  0  0  0  0  0
   28.2730   31.0880   18.0110 C   0  0  0  0  0  0  0  0  0  0  0  0
   27.3660   31.7680   17.5080 O   0  0  0  0  0  0  0  0  0  0  0  0
   30.1640   30.1990   17.8740 H   0  0  0  0  0  0  0  0  0  0  0  0
   29.8180   31.0970   15.9900 C   0  0  0  0  0  0  0  0  0  0  0  0
   30.4610   32.3770   15.7010 C   0  0  2  0  0  0  0  0  0  0  0  0
   29.6630   33.5320   15.3570 C   0  0  1  0  0  0  0  0  0  0  0  0
   30.1940   34.4110   14.2040 C   0  0  2  0  0  0  0  0  0  0  0  0
   31.9010   36.0390   14.2350 C   0  0  2  0  0  0  0  0  0  0  0  0
   30.8590   37.1670   14.3100 C   0  0  0  0  0  0  0  0  0  0  0  0
   31.3380   34.9510   14.7670 O   0  0  0  0  0  0  0  0  0  0  0  0
   29.7630   36.7710   13.3990 C   0  0  1  0  0  0  0  0  0  0  0  0
   29.2250   35.3510   13.6540 C   0  0  1  0  0  0  0  0  0  0  0  0
   32.8850   36.4550   15.1720 O   0  0  0  0  0  0  0  0  0  0  0  0
   32.8030   35.9510   16.0180 H   0  0  0  0  0  0  0  0  0  0  0  0
   32.5440   35.9240   12.9410 C   0  0  0  0  0  0  0  0  0  0  0  0
   32.4420   36.8480   12.0960 O   0  0  0  0  0  0  0  0  0  0  0  0
   33.3080   34.8380   12.5080 O   0  0  0  0  0  0  0  0  0  0  0  0
   32.8940   34.0340   12.0290 H   0  0  0  0  0  0  0  0  0  0  0  0
   28.6500   37.6250   13.4490 O   0  0  0  0  0  0  0  0  0  0  0  0
   28.9250   38.4320   12.9100 H   0  0  0  0  0  0  0  0  0  0  0  0
   28.6250   35.0310   12.3960 N   0  0  0  0  0  0  0  0  0  0  0  0
   27.2990   34.6770   12.1480 C   0  0  0  0  0  0  0  0  0  0  0  0
   29.2840   35.0740   11.5620 H   0  0  0  0  0  0  0  0  0  0  0  0
   26.8150   34.3620   10.7680 C   0  0  0  0  0  0  0  0  0  0  0  0
   26.5350   34.6310   13.1180 O   0  0  0  0  0  0  0  0  0  0  0  0
   28.3470   33.1540   15.1120 O   0  0  0  0  0  0  0  0  0  0  0  0
   28.1330   33.1370   14.1450 H   0  0  0  0  0  0  0  0  0  0  0  0
   31.5580   32.1700   14.8160 O   0  0  0  0  0  0  0  0  0  0  0  0
   31.2410   32.1920   13.8760 H   0  0  0  0  0  0  0  0  0  0  0  0
   28.0670   30.6380   19.3310 O   0  0  0  0  0  0  0  0  0  0  0  0
   27.7480   29.2890   19.5650 C   0  0  0  0  0  0  0  0  0  0  0  0
   28.8450   28.6380   20.2980 C   0  0  0  0  0  0  0  0  0  0  0  0
   30.0270   29.2940   20.6630 C   0  0  0  0  0  0  0  0  0  0  0  0
   28.9860   27.3970   20.7540 N   0  0  0  0  0  0  0  0  0  0  0  0
   30.8120   28.4180   21.3180 N   0  0  0  0  0  0  0  0  0  0  0  0
   30.1400   27.2710   21.3520 N   0  0  0  0  0  0  0  0  0  0  0  0
   32.1000   28.6600   21.8660 C   0  0  0  0  0  0  0  0  0  0  0  0
   32.8580   29.7630   21.5430 C   0  0  0  0  0  0  0  0  0  0  0  0
   32.6590   27.7640   22.7790 C   0  0  0  0  0  0  0  0  0  0  0  0
   34.1160   29.9830   22.0920 C   0  0  0  0  0  0  0  0  0  0  0  0
   33.9090   27.9850   23.3230 C   0  0  0  0  0  0  0  0  0  0  0  0
   34.6530   29.0920   22.9900 C   0  0  0  0  0  0  0  0  0  0  0  0
   35.8860   29.3130   23.5260 O   0  0  0  0  0  0  0  0  0  0  0  0
   36.6480   28.2290   24.0110 C   0  0  0  0  0  0  0  0  0  0  0  0
   29.8670   25.5550   16.9770 C   0  0  0  0  0  0  0  0  0  0  0  0
   28.3450   25.7220   17.0260 C   0  0  0  0  0  0  0  0  0  0  0  0
   27.6010   24.4010   16.9020 C   0  0  0  0  0  0  0  0  0  0  0  0
   26.6440   24.1810   18.0400 C   0  0  0  0  0  0  0  0  0  0  0  0
   25.3940   25.0290   17.8250 C   0  0  0  0  0  0  0  0  0  0  0  0
   24.4650   24.3550   16.8890 N   0  0  0  0  0  0  0  0  0  0  0  0
  1  4  1  0  0  0  0
  1  2  1  0  0  0  0
  2 31  1  0  0  0  0
  3  2  2  0  0  0  0
  5  1  1  0  0  0  0
  6  5  1  6  0  0  0
  7 27  1  6  0  0  0
  7  6  1  0  0  0  0
  8 11  1  0  0  0  0
  8  7  1  1  0  0  0
  9 16  1  6  0  0  0
  9 10  1  0  0  0  0
  9 11  1  0  0  0  0
  9 14  1  0  0  0  0
 12 20  1  1  0  0  0
 12 13  1  0  0  0  0
 12 10  1  0  0  0  0
 13 22  1  6  0  0  0
 13  8  1  0  0  0  0
 14 15  1  0  0  0  0
 17 16  2  0  0  0  0
 18 16  1  0  0  0  0
 19 18  1  0  0  0  0
 21 20  1  0  0  0  0
 23 22  1  0  0  0  0
 23 26  2  0  0  0  0
 24 22  1  0  0  0  0
 25 23  1  0  0  0  0
 28 27  1  0  0  0  0
 29  6  1  0  0  0  0
 30 29  1  0  0  0  0
 31 32  1  0  0  0  0
 32 33  1  0  0  0  0
 33 34  2  0  0  0  0
 33 35  1  0  0  0  0
 34 36  1  0  0  0  0
 35 37  2  0  0  0  0
 36 37  1  0  0  0  0
 36 38  1  0  0  0  0
 38 40  1  0  0  0  0
 39 38  2  0  0  0  0
 39 41  1  0  0  0  0
 40 42  2  0  0  0  0
 41 43  2  0  0  0  0
 43 42  1  0  0  0  0
 43 44  1  0  0  0  0
 44 45  1  0  0  0  0
 46 47  1  0  0  0  0
 48 47  1  0  0  0  0
 48 49  1  0  0  0  0
 50 49  1  0  0  0  0
 51 50  1  0  0  0  0
M  END
>  <REMARK>
 VINA RESULT:    -4.972      2.788      9.265
 INTER + INTRA:         -14.122
 INTER:                  -9.549
 INTRA:                  -4.573
 UNBOUND:                -5.226
 SMILES COc1ccc(-n2cc(COC(=O)NC[C@@H](O)C(O)[C@@H]3O[C@@](O)(C(=O)O)C[C@H](O)[C@H]3NC(C)=O)nn2)cc1
 SMILES IDX 14 1 12 2 13 3 15 5 16 6 18 7 20 8 22 9 27 10 21 11 28 12
 SMILES IDX 30 13 23 14 24 16 25 17 26 18 29 20 31 22 32 23 33 25 34 26
 SMILES IDX 19 27 17 29 11 31 10 32 9 33 8 34 35 35 7 36 36 37 6 38 5 39
 SMILES IDX 37 40 4 41 38 42 3 43 2 44 1 45
 H PARENT 14 4 23 15 26 19 29 21 31 24 19 28 17 30
 Flexibility Score: inf
  4 active torsions:
  status: ('A' for Active; 'I' for Inactive)
    1  A    between atoms: CA   and  CB  
    2  A    between atoms: CB   and  CG  
    3  A    between atoms: CG   and  CD  
    4  A    between atoms: CD   and  CE  

>  <TORSDO>
F 16

>  <BEGIN_>
RES LYS A 131

$$$$
ligand_5_pose_11_2HRL.pdbqt
 OpenBabel07062320523D

  6  5  0  0  0  0  0  0  0  0999 V2000
   33.1930   34.6630    9.2900 C   0  0  0  0  0  0  0  0  0  0  0  0
   32.0600   35.3600   10.0340 C   0  0  0  0  0  0  0  0  0  0  0  0
   30.6990   34.7880    9.7310 C   0  0  0  0  0  0  0  0  0  0  0  0
   29.9440   35.6850    8.7630 C   0  0  0  0  0  0  0  0  0  0  0  0
   29.4370   34.8830    7.5790 C   0  0  0  0  0  0  0  0  0  0  0  0
   28.3890   35.6330    6.8320 N   0  0  0  0  0  0  0  0  0  0  0  0
  1  2  1  0  0  0  0
  3  2  1  0  0  0  0
  4  3  1  0  0  0  0
  5  4  1  0  0  0  0
  6  5  1  0  0  0  0
M  END
>  <EGIN_R>
ES LYS A 135

>  <REMARK>
  4 active torsions:
  status: ('A' for Active; 'I' for Inactive)
    5  A    between atoms: CA   and  CB  
    6  A    between atoms: CB   and  CG  
    7  A    between atoms: CG   and  CD  
    8  A    between atoms: CD   and  CE  

$$$$
