ligand_71_pose_2_2HRL.pdbqt
 OpenBabel07062320523D

 54 55  0  0  1  0  0  0  0  0999 V2000
   27.8490   27.6960   18.5290 N   0  0  0  0  0  0  0  0  0  0  0  0
   26.7930   28.4650   17.9300 C   0  0  0  0  0  0  0  0  0  0  0  0
   25.7860   28.8100   18.5960 O   0  0  0  0  0  0  0  0  0  0  0  0
   28.6700   27.4220   17.9640 H   0  0  0  0  0  0  0  0  0  0  0  0
   27.7110   27.3360   19.9130 C   0  0  0  0  0  0  0  0  0  0  0  0
   28.8860   27.7560   20.7610 C   0  0  2  0  0  0  0  0  0  0  0  0
   29.6260   28.8300   20.0020 C   0  0  1  0  0  0  0  0  0  0  0  0
   29.2630   30.2240   20.5200 C   0  0  2  0  0  0  0  0  0  0  0  0
   28.4530   32.2340   19.8880 C   0  0  2  0  0  0  0  0  0  0  0  0
   29.1940   32.8730   21.0050 C   0  0  0  0  0  0  0  0  0  0  0  0
   29.0580   31.0840   19.4680 O   0  0  0  0  0  0  0  0  0  0  0  0
   30.5010   32.2160   21.3840 C   0  0  1  0  0  0  0  0  0  0  0  0
   30.4180   30.7160   21.3760 C   0  0  1  0  0  0  0  0  0  0  0  0
   28.5070   33.1050   18.7470 O   0  0  0  0  0  0  0  0  0  0  0  0
   28.4710   34.0460   19.0710 H   0  0  0  0  0  0  0  0  0  0  0  0
   26.9970   32.0980   20.1800 C   0  0  0  0  0  0  0  0  0  0  0  0
   26.5460   32.3630   21.2950 O   0  0  0  0  0  0  0  0  0  0  0  0
   26.0930   31.6660   19.2060 O   0  0  0  0  0  0  0  0  0  0  0  0
   25.6590   30.7600   19.2420 H   0  0  0  0  0  0  0  0  0  0  0  0
   31.4610   32.6780   20.4800 O   0  0  0  0  0  0  0  0  0  0  0  0
   32.3660   32.7290   20.8990 H   0  0  0  0  0  0  0  0  0  0  0  0
   30.3320   30.1100   22.6590 N   0  0  0  0  0  0  0  0  0  0  0  0
   31.3510   29.3290   23.2600 C   0  0  0  0  0  0  0  0  0  0  0  0
   29.4590   30.2320   23.2280 H   0  0  0  0  0  0  0  0  0  0  0  0
   31.1900   28.7160   24.6150 C   0  0  0  0  0  0  0  0  0  0  0  0
   32.4030   29.1610   22.6180 O   0  0  0  0  0  0  0  0  0  0  0  0
   30.9940   28.6390   20.0340 O   0  0  0  0  0  0  0  0  0  0  0  0
   31.4060   29.2170   19.3210 H   0  0  0  0  0  0  0  0  0  0  0  0
   29.6820   26.6310   20.9680 O   0  0  0  0  0  0  0  0  0  0  0  0
   29.0840   25.8380   20.9160 H   0  0  0  0  0  0  0  0  0  0  0  0
   26.8490   28.8480   16.6100 O   0  0  0  0  0  0  0  0  0  0  0  0
   26.4480   30.0810   16.0890 C   0  0  0  0  0  0  0  0  0  0  0  0
   27.6090   30.9900   15.9760 C   0  0  0  0  0  0  0  0  0  0  0  0
   28.9460   30.6730   15.8610 C   0  0  0  0  0  0  0  0  0  0  0  0
   27.5280   32.3300   15.9580 N   0  0  0  0  0  0  0  0  0  0  0  0
   29.6180   31.8190   15.7800 N   0  0  0  0  0  0  0  0  0  0  0  0
   28.7350   32.8000   15.8410 N   0  0  0  0  0  0  0  0  0  0  0  0
   31.0750   31.9210   15.6360 C   0  0  0  0  0  0  0  0  0  0  0  0
   31.5410   33.2450   16.1430 C   0  0  0  0  0  0  0  0  0  0  0  0
   32.2690   34.0220   15.5030 O   0  0  0  0  0  0  0  0  0  0  0  0
   31.1190   33.6440   17.4530 N   0  0  0  0  0  0  0  0  0  0  0  0
   30.5060   33.0100   18.0140 H   0  0  0  0  0  0  0  0  0  0  0  0
   31.5030   34.8820   18.0170 C   0  0  0  0  0  0  0  0  0  0  0  0
   30.8470   36.0370   17.7910 N   0  0  0  0  0  0  0  0  0  0  0  0
   32.5750   34.9490   18.8300 N   0  0  0  0  0  0  0  0  0  0  0  0
   31.2350   37.2030   18.3440 C   0  0  0  0  0  0  0  0  0  0  0  0
   33.0080   36.0670   19.4070 C   0  0  0  0  0  0  0  0  0  0  0  0
   32.3370   37.2510   19.1740 C   0  0  0  0  0  0  0  0  0  0  0  0
   29.8670   25.5550   16.9770 C   0  0  0  0  0  0  0  0  0  0  0  0
   28.3450   25.7220   17.0260 C   0  0  0  0  0  0  0  0  0  0  0  0
   27.6000   24.4120   16.8180 C   0  0  0  0  0  0  0  0  0  0  0  0
   26.8570   23.9820   18.0520 C   0  0  0  0  0  0  0  0  0  0  0  0
   25.5100   24.6970   18.1110 C   0  0  0  0  0  0  0  0  0  0  0  0
   24.7040   24.3840   16.9070 N   0  0  0  0  0  0  0  0  0  0  0  0
  1  5  1  0  0  0  0
  2  1  1  0  0  0  0
  2  3  2  0  0  0  0
  4  1  1  0  0  0  0
  6  5  1  6  0  0  0
  6 29  1  0  0  0  0
  7 27  1  1  0  0  0
  7  6  1  0  0  0  0
  8  7  1  6  0  0  0
  8 13  1  0  0  0  0
  9 14  1  6  0  0  0
  9 16  1  0  0  0  0
  9 10  1  0  0  0  0
 10 12  1  0  0  0  0
 11  9  1  0  0  0  0
 11  8  1  0  0  0  0
 12 20  1  6  0  0  0
 13 12  1  0  0  0  0
 13 22  1  1  0  0  0
 14 15  1  0  0  0  0
 16 17  2  0  0  0  0
 18 19  1  0  0  0  0
 18 16  1  0  0  0  0
 20 21  1  0  0  0  0
 22 24  1  0  0  0  0
 22 23  1  0  0  0  0
 23 25  1  0  0  0  0
 26 23  2  0  0  0  0
 28 27  1  0  0  0  0
 30 29  1  0  0  0  0
 31  2  1  0  0  0  0
 32 31  1  0  0  0  0
 33 32  1  0  0  0  0
 34 33  2  0  0  0  0
 35 33  1  0  0  0  0
 36 37  1  0  0  0  0
 36 34  1  0  0  0  0
 37 35  2  0  0  0  0
 38 36  1  0  0  0  0
 38 39  1  0  0  0  0
 39 41  1  0  0  0  0
 40 39  2  0  0  0  0
 41 42  1  0  0  0  0
 41 43  1  0  0  0  0
 43 45  1  0  0  0  0
 44 43  2  0  0  0  0
 44 46  1  0  0  0  0
 45 47  2  0  0  0  0
 46 48  2  0  0  0  0
 48 47  1  0  0  0  0
 49 50  1  0  0  0  0
 51 50  1  0  0  0  0
 51 52  1  0  0  0  0
 52 53  1  0  0  0  0
 54 53  1  0  0  0  0
M  END
>  <REMARK>
 VINA RESULT:    -4.186      3.134      6.906
 INTER + INTRA:         -15.299
 INTER:                  -7.238
 INTRA:                  -8.061
 UNBOUND:                -7.565
 SMILES CC(=O)N[C@@H]1[C@@H](O)C[C@](O)(C(=O)O)O[C@H]1C(O)[C@H](O)CNC(=O)OCc1cn(CC(=O)Nc2ncccn2)nn1
 SMILES IDX 21 1 22 2 23 3 20 5 18 6 16 7 15 8 9 9 8 10 14 11 6 12 5 13
 SMILES IDX 10 14 11 16 12 17 13 18 7 20 4 22 2 23 1 25 3 26 17 27 19 29
 SMILES IDX 24 31 25 32 26 33 27 34 40 35 28 36 39 37 29 38 30 39 31 40
 SMILES IDX 32 41 33 43 34 44 38 45 35 46 37 47 36 48
 H PARENT 21 4 10 15 13 19 7 21 4 24 17 28 19 30 32 42
 Flexibility Score: inf
  4 active torsions:
  status: ('A' for Active; 'I' for Inactive)
    1  A    between atoms: CA   and  CB  
    2  A    between atoms: CB   and  CG  
    3  A    between atoms: CG   and  CD  
    4  A    between atoms: CD   and  CE  

>  <TORSDO>
F 17

>  <BEGIN_>
RES LYS A 131

$$$$
ligand_71_pose_2_2HRL.pdbqt
 OpenBabel07062320523D

  6  5  0  0  0  0  0  0  0  0999 V2000
   33.1930   34.6630    9.2900 C   0  0  0  0  0  0  0  0  0  0  0  0
   32.0600   35.3600   10.0340 C   0  0  0  0  0  0  0  0  0  0  0  0
   30.8030   35.5080    9.2160 C   0  0  0  0  0  0  0  0  0  0  0  0
   30.1300   34.1580    9.0190 C   0  0  0  0  0  0  0  0  0  0  0  0
   28.6740   34.3410    8.6340 C   0  0  0  0  0  0  0  0  0  0  0  0
   27.7710   33.7070    9.6350 N   0  0  0  0  0  0  0  0  0  0  0  0
  1  2  1  0  0  0  0
  3  2  1  0  0  0  0
  4  3  1  0  0  0  0
  5  4  1  0  0  0  0
  5  6  1  0  0  0  0
M  END
>  <EGIN_R>
ES LYS A 135

>  <REMARK>
  4 active torsions:
  status: ('A' for Active; 'I' for Inactive)
    5  A    between atoms: CA   and  CB  
    6  A    between atoms: CB   and  CG  
    7  A    between atoms: CG   and  CD  
    8  A    between atoms: CD   and  CE  

$$$$
