ligand_86_pose_5_2HRL.pdbqt
 OpenBabel07062320523D

 52 54  0  0  1  0  0  0  0  0999 V2000
   29.6890   28.9470   21.6290 C   0  0  0  0  0  0  0  0  0  0  0  0
   29.3800   27.8910   20.6250 C   0  0  2  0  0  0  0  0  0  0  0  0
   27.9290   27.7940   20.2700 C   0  0  2  0  0  0  0  0  0  0  0  0
   27.6390   28.2600   18.8620 C   0  0  2  0  0  0  0  0  0  0  0  0
   27.7480   30.1350   17.5140 C   0  0  2  0  0  0  0  0  0  0  0  0
   27.0500   29.1790   16.5840 C   0  0  0  0  0  0  0  0  0  0  0  0
   28.1420   29.5430   18.7040 O   0  0  0  0  0  0  0  0  0  0  0  0
   25.8790   28.4830   17.2080 C   0  0  1  0  0  0  0  0  0  0  0  0
   26.1370   28.3450   18.6840 C   0  0  1  0  0  0  0  0  0  0  0  0
   27.0010   31.2870   17.7560 O   0  0  0  0  0  0  0  0  0  0  0  0
   26.5410   31.5790   16.9350 H   0  0  0  0  0  0  0  0  0  0  0  0
   29.0000   30.5790   16.8220 C   0  0  0  0  0  0  0  0  0  0  0  0
   28.9730   30.9470   15.6000 O   0  0  0  0  0  0  0  0  0  0  0  0
   30.2260   30.6180   17.4450 O   0  0  0  0  0  0  0  0  0  0  0  0
   30.4320   31.4260   18.0450 H   0  0  0  0  0  0  0  0  0  0  0  0
   24.6650   29.0510   16.9030 O   0  0  0  0  0  0  0  0  0  0  0  0
   24.0160   28.3160   16.7460 H   0  0  0  0  0  0  0  0  0  0  0  0
   25.4480   27.2290   19.2820 N   0  0  0  0  0  0  0  0  0  0  0  0
   24.1280   27.3400   19.8140 C   0  0  0  0  0  0  0  0  0  0  0  0
   25.9020   26.2900   19.3440 H   0  0  0  0  0  0  0  0  0  0  0  0
   23.4770   26.1580   20.4140 C   0  0  0  0  0  0  0  0  0  0  0  0
   23.5660   28.4570   19.7490 O   0  0  0  0  0  0  0  0  0  0  0  0
   27.1930   28.5920   21.1440 O   0  0  0  0  0  0  0  0  0  0  0  0
   27.4510   28.4560   22.0730 H   0  0  0  0  0  0  0  0  0  0  0  0
   29.8010   26.6200   21.0810 O   0  0  0  0  0  0  0  0  0  0  0  0
   30.0880   26.1320   20.2580 H   0  0  0  0  0  0  0  0  0  0  0  0
   29.8240   30.2530   21.0300 N   0  0  0  0  0  0  0  0  0  0  0  0
   31.1150   30.7710   20.7500 C   0  0  0  0  0  0  0  0  0  0  0  0
   29.0010   30.8550   20.7840 H   0  0  0  0  0  0  0  0  0  0  0  0
   32.1790   30.1410   21.0010 O   0  0  0  0  0  0  0  0  0  0  0  0
   31.3030   32.0260   20.1710 O   0  0  0  0  0  0  0  0  0  0  0  0
   30.4390   33.1170   20.4190 C   0  0  0  0  0  0  0  0  0  0  0  0
   29.7810   33.5430   19.1550 C   0  0  0  0  0  0  0  0  0  0  0  0
   30.4410   33.9820   18.0260 C   0  0  0  0  0  0  0  0  0  0  0  0
   28.4740   33.5900   18.8420 N   0  0  0  0  0  0  0  0  0  0  0  0
   29.5260   34.2850   17.0630 N   0  0  0  0  0  0  0  0  0  0  0  0
   28.3510   34.0290   17.6120 N   0  0  0  0  0  0  0  0  0  0  0  0
   29.7960   34.7840   15.7180 C   0  0  2  0  0  0  0  0  0  0  0  0
   30.8200   33.9080   15.0970 C   0  0  0  0  0  0  0  0  0  0  0  0
   30.1660   36.2200   15.8320 C   0  0  0  0  0  0  0  0  0  0  0  0
   31.7500   34.5770   14.1510 C   0  0  1  0  0  0  0  0  0  0  0  0
   31.3650   36.6160   15.0100 C   0  0  2  0  0  0  0  0  0  0  0  0
   31.2850   35.8870   13.7570 N   0  0  0  0  0  0  0  0  0  0  0  0
   33.0300   34.9060   14.9030 C   0  0  0  0  0  0  0  0  0  0  0  0
   32.6010   36.1130   15.7120 C   0  0  0  0  0  0  0  0  0  0  0  0
   32.1550   36.4410   12.7490 C   0  0  0  0  0  0  0  0  0  0  0  0
   29.8670   25.5550   16.9770 C   0  0  0  0  0  0  0  0  0  0  0  0
   28.3450   25.7220   17.0260 C   0  0  0  0  0  0  0  0  0  0  0  0
   27.5990   24.4360   16.7060 C   0  0  0  0  0  0  0  0  0  0  0  0
   26.5890   24.0890   17.7640 C   0  0  0  0  0  0  0  0  0  0  0  0
   25.1830   24.3470   17.2310 C   0  0  0  0  0  0  0  0  0  0  0  0
   24.3840   23.0990   17.2490 N   0  0  0  0  0  0  0  0  0  0  0  0
  2 25  1  0  0  0  0
  2  1  1  1  0  0  0
  3  2  1  0  0  0  0
  3 23  1  1  0  0  0
  4  3  1  1  0  0  0
  5 12  1  6  0  0  0
  5 10  1  0  0  0  0
  5  7  1  0  0  0  0
  6  8  1  0  0  0  0
  6  5  1  0  0  0  0
  7  4  1  0  0  0  0
  8 16  1  1  0  0  0
  8  9  1  0  0  0  0
  9  4  1  0  0  0  0
  9 18  1  6  0  0  0
 11 10  1  0  0  0  0
 12 14  1  0  0  0  0
 13 12  2  0  0  0  0
 14 15  1  0  0  0  0
 17 16  1  0  0  0  0
 18 20  1  0  0  0  0
 18 19  1  0  0  0  0
 19 21  1  0  0  0  0
 22 19  2  0  0  0  0
 23 24  1  0  0  0  0
 26 25  1  0  0  0  0
 27  1  1  0  0  0  0
 28 30  2  0  0  0  0
 28 27  1  0  0  0  0
 29 27  1  0  0  0  0
 31 32  1  0  0  0  0
 31 28  1  0  0  0  0
 33 32  1  0  0  0  0
 34 33  2  0  0  0  0
 35 33  1  0  0  0  0
 36 37  1  0  0  0  0
 36 34  1  0  0  0  0
 37 35  2  0  0  0  0
 38 39  1  1  0  0  0
 38 40  1  0  0  0  0
 38 36  1  0  0  0  0
 41 44  1  1  0  0  0
 41 39  1  0  0  0  0
 42 45  1  1  0  0  0
 42 40  1  0  0  0  0
 43 41  1  0  0  0  0
 43 42  1  0  0  0  0
 44 45  1  0  0  0  0
 46 43  1  0  0  0  0
 47 48  1  0  0  0  0
 49 48  1  0  0  0  0
 49 50  1  0  0  0  0
 51 52  1  0  0  0  0
 51 50  1  0  0  0  0
M  END
>  <REMARK>
 VINA RESULT:    -4.593      1.903      4.172
 INTER + INTRA:         -14.505
 INTER:                  -7.542
 INTRA:                  -6.962
 UNBOUND:                -6.555
 SMILES CC(=O)N[C@@H]1[C@@H](O)C[C@](O)(C(=O)O)O[C@H]1C(O)[C@H](O)CNC(=O)OCc1cn([C@H]2C[C@H]3CC[C@@H](C2)N3C)nn1
 SMILES IDX 20 1 18 2 16 3 15 4 9 5 8 6 14 7 6 8 5 9 10 10 11 12 12 13
 SMILES IDX 13 14 7 16 4 18 2 19 1 21 3 22 17 23 19 25 21 27 22 28 23 30
 SMILES IDX 24 31 25 32 26 33 27 34 39 35 28 36 38 37 29 38 35 39 30 40
 SMILES IDX 34 41 31 42 36 43 33 44 32 45 37 46
 H PARENT 10 11 13 15 7 17 4 20 17 24 19 26 21 29
 Flexibility Score: inf
  4 active torsions:
  status: ('A' for Active; 'I' for Inactive)
    1  A    between atoms: CA   and  CB  
    2  A    between atoms: CB   and  CG  
    3  A    between atoms: CG   and  CD  
    4  A    between atoms: CD   and  CE  

>  <TORSDO>
F 15

>  <BEGIN_>
RES LYS A 131

$$$$
ligand_86_pose_5_2HRL.pdbqt
 OpenBabel07062320523D

  6  5  0  0  0  0  0  0  0  0999 V2000
   33.1930   34.6630    9.2900 C   0  0  0  0  0  0  0  0  0  0  0  0
   32.0600   35.3600   10.0340 C   0  0  0  0  0  0  0  0  0  0  0  0
   30.8730   35.6790    9.1620 C   0  0  0  0  0  0  0  0  0  0  0  0
   30.3540   34.4220    8.4810 C   0  0  0  0  0  0  0  0  0  0  0  0
   28.8380   34.4290    8.4340 C   0  0  0  0  0  0  0  0  0  0  0  0
   28.2610   33.7690    9.6370 N   0  0  0  0  0  0  0  0  0  0  0  0
  1  2  1  0  0  0  0
  3  2  1  0  0  0  0
  4  3  1  0  0  0  0
  5  4  1  0  0  0  0
  5  6  1  0  0  0  0
M  END
>  <EGIN_R>
ES LYS A 135

>  <REMARK>
  4 active torsions:
  status: ('A' for Active; 'I' for Inactive)
    5  A    between atoms: CA   and  CB  
    6  A    between atoms: CB   and  CG  
    7  A    between atoms: CG   and  CD  
    8  A    between atoms: CD   and  CE  

$$$$
