ligand_38_pose_12_2HRL.pdbqt
 OpenBabel07062320523D

 51 52  0  0  1  0  0  0  0  0999 V2000
   25.5290   29.5500   17.9650 N   0  0  0  0  0  0  0  0  0  0  0  0
   25.2320   30.9250   17.8110 C   0  0  0  0  0  0  0  0  0  0  0  0
   25.2830   31.7170   18.8080 O   0  0  0  0  0  0  0  0  0  0  0  0
   25.4750   28.9390   17.1230 H   0  0  0  0  0  0  0  0  0  0  0  0
   25.8860   29.0980   19.2830 C   0  0  0  0  0  0  0  0  0  0  0  0
   27.3650   28.6890   19.3490 C   0  0  2  0  0  0  0  0  0  0  0  0
   28.0660   29.8220   20.0090 C   0  0  2  0  0  0  0  0  0  0  0  0
   29.1390   29.4560   20.9930 C   0  0  2  0  0  0  0  0  0  0  0  0
   30.5200   27.6100   21.3690 C   0  0  2  0  0  0  0  0  0  0  0  0
   30.4960   27.9780   22.8400 C   0  0  0  0  0  0  0  0  0  0  0  0
   29.3970   28.1020   20.7500 O   0  0  0  0  0  0  0  0  0  0  0  0
   29.1300   28.5080   23.2450 C   0  0  1  0  0  0  0  0  0  0  0  0
   28.8720   29.7780   22.4120 C   0  0  1  0  0  0  0  0  0  0  0  0
   30.3800   26.2050   21.3360 O   0  0  0  0  0  0  0  0  0  0  0  0
   31.1950   25.7630   21.0310 H   0  0  0  0  0  0  0  0  0  0  0  0
   31.7920   27.9410   20.7240 C   0  0  0  0  0  0  0  0  0  0  0  0
   32.5310   28.8320   21.2050 O   0  0  0  0  0  0  0  0  0  0  0  0
   32.2440   27.3090   19.5750 O   0  0  0  0  0  0  0  0  0  0  0  0
   32.1290   27.7600   18.6890 H   0  0  0  0  0  0  0  0  0  0  0  0
   28.1500   27.5660   23.0720 O   0  0  0  0  0  0  0  0  0  0  0  0
   28.5860   26.6620   22.9630 H   0  0  0  0  0  0  0  0  0  0  0  0
   29.8420   30.7460   22.9400 N   0  0  0  0  0  0  0  0  0  0  0  0
   29.4500   31.7700   23.8440 C   0  0  0  0  0  0  0  0  0  0  0  0
   30.8510   30.7280   22.6780 H   0  0  0  0  0  0  0  0  0  0  0  0
   30.4630   32.7550   24.3710 C   0  0  0  0  0  0  0  0  0  0  0  0
   28.2760   31.8910   24.2270 O   0  0  0  0  0  0  0  0  0  0  0  0
   27.0790   30.4880   20.7840 O   0  0  0  0  0  0  0  0  0  0  0  0
   27.2950   31.4580   20.6820 H   0  0  0  0  0  0  0  0  0  0  0  0
   27.7500   28.4610   18.0310 O   0  0  0  0  0  0  0  0  0  0  0  0
   26.9490   28.2430   17.5070 H   0  0  0  0  0  0  0  0  0  0  0  0
   24.8740   31.4930   16.5970 O   0  0  0  0  0  0  0  0  0  0  0  0
   25.7490   32.2850   15.8140 C   0  0  0  0  0  0  0  0  0  0  0  0
   27.1100   31.6920   15.7530 C   0  0  0  0  0  0  0  0  0  0  0  0
   28.3130   32.3950   15.6160 C   0  0  0  0  0  0  0  0  0  0  0  0
   27.4740   30.3980   15.8170 N   0  0  0  0  0  0  0  0  0  0  0  0
   29.3190   31.5140   15.6020 N   0  0  0  0  0  0  0  0  0  0  0  0
   28.7860   30.3130   15.7250 N   0  0  0  0  0  0  0  0  0  0  0  0
   30.7370   31.7670   15.4780 C   0  0  0  0  0  0  0  0  0  0  0  0
   31.1630   32.7930   16.4660 C   0  0  0  0  0  0  0  0  0  0  0  0
   31.9150   33.8820   16.0830 C   0  0  0  0  0  0  0  0  0  0  0  0
   30.8090   32.6670   17.7800 C   0  0  0  0  0  0  0  0  0  0  0  0
   32.3160   34.8470   17.0100 C   0  0  0  0  0  0  0  0  0  0  0  0
   31.2040   33.6240   18.7140 C   0  0  0  0  0  0  0  0  0  0  0  0
   31.9600   34.7180   18.3240 C   0  0  0  0  0  0  0  0  0  0  0  0
   30.6930   33.4160   20.5310 Br  0  0  0  0  0  0  0  0  0  0  0  0
   29.8670   25.5550   16.9770 C   0  0  0  0  0  0  0  0  0  0  0  0
   28.3450   25.7220   17.0260 C   0  0  0  0  0  0  0  0  0  0  0  0
   27.6020   24.3990   16.9270 C   0  0  0  0  0  0  0  0  0  0  0  0
   26.1520   24.5340   17.3010 C   0  0  0  0  0  0  0  0  0  0  0  0
   26.0360   25.2580   18.6380 C   0  0  0  0  0  0  0  0  0  0  0  0
   25.4970   24.3470   19.6760 N   0  0  0  0  0  0  0  0  0  0  0  0
  1  5  1  0  0  0  0
  2  1  1  0  0  0  0
  2  3  2  0  0  0  0
  4  1  1  0  0  0  0
  6  5  1  6  0  0  0
  6  7  1  0  0  0  0
  7 27  1  1  0  0  0
  8  7  1  6  0  0  0
  8 13  1  0  0  0  0
  9 16  1  6  0  0  0
  9 10  1  0  0  0  0
 10 12  1  0  0  0  0
 11  8  1  0  0  0  0
 11  9  1  0  0  0  0
 12 20  1  6  0  0  0
 13 22  1  1  0  0  0
 13 12  1  0  0  0  0
 14  9  1  0  0  0  0
 15 14  1  0  0  0  0
 16 17  2  0  0  0  0
 18 16  1  0  0  0  0
 19 18  1  0  0  0  0
 21 20  1  0  0  0  0
 22 23  1  0  0  0  0
 23 26  2  0  0  0  0
 23 25  1  0  0  0  0
 24 22  1  0  0  0  0
 28 27  1  0  0  0  0
 29  6  1  0  0  0  0
 30 29  1  0  0  0  0
 31  2  1  0  0  0  0
 32 31  1  0  0  0  0
 33 32  1  0  0  0  0
 33 35  1  0  0  0  0
 34 33  2  0  0  0  0
 36 34  1  0  0  0  0
 36 37  1  0  0  0  0
 37 35  2  0  0  0  0
 38 36  1  0  0  0  0
 38 39  1  0  0  0  0
 39 41  1  0  0  0  0
 40 39  2  0  0  0  0
 40 42  1  0  0  0  0
 41 43  2  0  0  0  0
 42 44  2  0  0  0  0
 43 45  1  0  0  0  0
 44 43  1  0  0  0  0
 46 47  1  0  0  0  0
 48 47  1  0  0  0  0
 48 49  1  0  0  0  0
 49 50  1  0  0  0  0
 50 51  1  0  0  0  0
M  END
>  <REMARK>
 VINA RESULT:    -4.567      4.798      8.218
 INTER + INTRA:         -14.466
 INTER:                  -8.375
 INTRA:                  -6.091
 UNBOUND:                -6.295
 SMILES CC(=O)N[C@@H]1[C@@H](O)C[C@](O)(C(=O)O)O[C@H]1C(O)[C@H](O)CNC(=O)OCc1cn(Cc2cccc(Br)c2)nn1
 SMILES IDX 21 1 22 2 23 3 20 5 18 6 16 7 15 8 9 9 8 10 14 11 6 12 5 13
 SMILES IDX 10 14 11 16 12 17 13 18 7 20 4 22 2 23 1 25 3 26 17 27 19 29
 SMILES IDX 24 31 25 32 26 33 27 34 38 35 28 36 37 37 29 38 30 39 31 40
 SMILES IDX 36 41 32 42 34 43 33 44 35 45
 H PARENT 21 4 10 15 13 19 7 21 4 24 17 28 19 30
 Flexibility Score: inf
  4 active torsions:
  status: ('A' for Active; 'I' for Inactive)
    1  A    between atoms: CA   and  CB  
    2  A    between atoms: CB   and  CG  
    3  A    between atoms: CG   and  CD  
    4  A    between atoms: CD   and  CE  

>  <TORSDO>
F 16

>  <BEGIN_>
RES LYS A 131

$$$$
ligand_38_pose_12_2HRL.pdbqt
 OpenBabel07062320523D

  6  5  0  0  0  0  0  0  0  0999 V2000
   33.1930   34.6630    9.2900 C   0  0  0  0  0  0  0  0  0  0  0  0
   32.0600   35.3600   10.0340 C   0  0  0  0  0  0  0  0  0  0  0  0
   30.7880   35.4640    9.2330 C   0  0  0  0  0  0  0  0  0  0  0  0
   30.1560   34.0930    9.0500 C   0  0  0  0  0  0  0  0  0  0  0  0
   28.6890   34.1260    9.4360 C   0  0  0  0  0  0  0  0  0  0  0  0
   27.8460   34.5930    8.3010 N   0  0  0  0  0  0  0  0  0  0  0  0
  1  2  1  0  0  0  0
  3  2  1  0  0  0  0
  4  3  1  0  0  0  0
  4  5  1  0  0  0  0
  6  5  1  0  0  0  0
M  END
>  <EGIN_R>
ES LYS A 135

>  <REMARK>
  4 active torsions:
  status: ('A' for Active; 'I' for Inactive)
    5  A    between atoms: CA   and  CB  
    6  A    between atoms: CB   and  CG  
    7  A    between atoms: CG   and  CD  
    8  A    between atoms: CD   and  CE  

$$$$
