ligand_45_pose_13_2HRL.pdbqt
 OpenBabel07062320523D

 52 52  0  0  1  0  0  0  0  0999 V2000
   24.5820   38.1560   12.7860 O   0  0  0  0  0  0  0  0  0  0  0  0
   23.9700   38.1170   11.5500 C   0  0  0  0  0  0  0  0  0  0  0  0
   24.6180   38.5850   10.3630 N   0  0  0  0  0  0  0  0  0  0  0  0
   25.5710   38.9440   10.4830 H   0  0  0  0  0  0  0  0  0  0  0  0
   22.8070   37.6580   11.4690 O   0  0  0  0  0  0  0  0  0  0  0  0
   23.9240   38.5130    9.1310 C   0  0  0  0  0  0  0  0  0  0  0  0
   23.9990   37.2190    8.3900 C   0  0  2  0  0  0  0  0  0  0  0  0
   25.3680   36.6270    8.2560 C   0  0  1  0  0  0  0  0  0  0  0  0
   26.4280   37.5780    7.7900 C   0  0  2  0  0  0  0  0  0  0  0  0
   26.7930   39.3220    6.3360 C   0  0  2  0  0  0  0  0  0  0  0  0
   28.0460   39.3960    7.1880 C   0  0  0  0  0  0  0  0  0  0  0  0
   25.9080   38.3790    6.8020 O   0  0  0  0  0  0  0  0  0  0  0  0
   28.7490   38.0740    7.2120 C   0  0  1  0  0  0  0  0  0  0  0  0
   27.7080   36.9600    7.3480 C   0  0  1  0  0  0  0  0  0  0  0  0
   27.1970   38.9470    5.0420 O   0  0  0  0  0  0  0  0  0  0  0  0
   27.6110   39.7570    4.6450 H   0  0  0  0  0  0  0  0  0  0  0  0
   26.1590   40.6480    6.2640 C   0  0  0  0  0  0  0  0  0  0  0  0
   25.7430   41.2140    7.3140 O   0  0  0  0  0  0  0  0  0  0  0  0
   26.0010   41.3100    5.0640 O   0  0  0  0  0  0  0  0  0  0  0  0
   26.6850   41.2380    4.3350 H   0  0  0  0  0  0  0  0  0  0  0  0
   29.4680   37.9270    6.0190 O   0  0  0  0  0  0  0  0  0  0  0  0
   28.8710   38.0790    5.2550 H   0  0  0  0  0  0  0  0  0  0  0  0
   28.2660   36.0700    8.3720 N   0  0  0  0  0  0  0  0  0  0  0  0
   29.2300   35.0940    8.0260 C   0  0  0  0  0  0  0  0  0  0  0  0
   27.9400   36.1680    9.3600 H   0  0  0  0  0  0  0  0  0  0  0  0
   29.7880   34.1900    9.0820 C   0  0  0  0  0  0  0  0  0  0  0  0
   29.6640   34.9340    6.8430 O   0  0  0  0  0  0  0  0  0  0  0  0
   25.7330   36.0490    9.4820 O   0  0  0  0  0  0  0  0  0  0  0  0
   26.4940   36.5850    9.8420 H   0  0  0  0  0  0  0  0  0  0  0  0
   23.4490   37.4530    7.1120 O   0  0  0  0  0  0  0  0  0  0  0  0
   23.7750   36.8180    6.4430 H   0  0  0  0  0  0  0  0  0  0  0  0
   25.8930   38.6960   12.8870 C   0  0  0  0  0  0  0  0  0  0  0  0
   26.8890   37.6840   12.4690 C   0  0  0  0  0  0  0  0  0  0  0  0
   27.4530   36.6500   13.1850 C   0  0  0  0  0  0  0  0  0  0  0  0
   27.4510   37.5950   11.2450 N   0  0  0  0  0  0  0  0  0  0  0  0
   28.3210   35.9720   12.4090 N   0  0  0  0  0  0  0  0  0  0  0  0
   28.2890   36.5780   11.2410 N   0  0  0  0  0  0  0  0  0  0  0  0
   29.1290   34.8420   12.7320 C   0  0  0  0  0  0  0  0  0  0  0  0
   29.4660   34.7250   14.1690 C   0  0  0  0  0  0  0  0  0  0  0  0
   30.8050   34.2430   14.5460 C   0  0  0  0  0  0  0  0  0  0  0  0
   31.3490   34.5310   15.8100 N   0  0  0  0  0  0  0  0  0  0  0  0
   30.5810   35.3870   16.6730 C   0  0  0  0  0  0  0  0  0  0  0  0
   31.4060   33.2410   16.5260 C   0  0  0  0  0  0  0  0  0  0  0  0
   31.1270   32.0580   15.6810 C   0  0  0  0  0  0  0  0  0  0  0  0
   32.6980   35.0220   15.7690 C   0  0  0  0  0  0  0  0  0  0  0  0
   33.4250   34.7670   14.4990 C   0  0  0  0  0  0  0  0  0  0  0  0
   29.8670   25.5550   16.9770 C   0  0  0  0  0  0  0  0  0  0  0  0
   28.3450   25.7220   17.0260 C   0  0  0  0  0  0  0  0  0  0  0  0
   27.6010   24.4040   16.8790 C   0  0  0  0  0  0  0  0  0  0  0  0
   26.1890   24.4900   17.3880 C   0  0  0  0  0  0  0  0  0  0  0  0
   26.0570   25.6900   18.3210 C   0  0  0  0  0  0  0  0  0  0  0  0
   25.6360   25.2530   19.6730 N   0  0  0  0  0  0  0  0  0  0  0  0
  1 32  1  0  0  0  0
  2  1  1  0  0  0  0
  3  4  1  0  0  0  0
  3  2  1  0  0  0  0
  5  2  2  0  0  0  0
  6  3  1  0  0  0  0
  7  6  1  6  0  0  0
  8  7  1  0  0  0  0
  8 28  1  1  0  0  0
  9  8  1  6  0  0  0
 10 15  1  6  0  0  0
 10 12  1  0  0  0  0
 10 11  1  0  0  0  0
 11 13  1  0  0  0  0
 12  9  1  0  0  0  0
 13 21  1  6  0  0  0
 13 14  1  0  0  0  0
 14  9  1  0  0  0  0
 14 23  1  1  0  0  0
 16 15  1  0  0  0  0
 17 10  1  0  0  0  0
 17 18  2  0  0  0  0
 19 17  1  0  0  0  0
 20 19  1  0  0  0  0
 22 21  1  0  0  0  0
 23 25  1  0  0  0  0
 24 23  1  0  0  0  0
 24 26  1  0  0  0  0
 27 24  2  0  0  0  0
 28 29  1  0  0  0  0
 30  7  1  0  0  0  0
 31 30  1  0  0  0  0
 33 32  1  0  0  0  0
 33 34  2  0  0  0  0
 35 33  1  0  0  0  0
 36 38  1  0  0  0  0
 36 34  1  0  0  0  0
 37 35  2  0  0  0  0
 37 36  1  0  0  0  0
 38 39  1  0  0  0  0
 39 40  1  0  0  0  0
 40 41  1  0  0  0  0
 41 43  1  0  0  0  0
 41 42  1  0  0  0  0
 44 43  1  0  0  0  0
 45 41  1  0  0  0  0
 46 45  1  0  0  0  0
 47 48  1  0  0  0  0
 49 48  1  0  0  0  0
 49 50  1  0  0  0  0
 50 51  1  0  0  0  0
 51 52  1  0  0  0  0
M  END
>  <REMARK>
 VINA RESULT:    -4.089      7.864     13.063
 INTER + INTRA:         -14.147
 INTER:                  -9.409
 INTRA:                  -4.737
 UNBOUND:                -5.875
 SMILES CC[N+](C)(CC)CCCn1cc(COC(=O)NC[C@@H](O)C(O)[C@@H]2O[C@@](O)(C(=O)O)C[C@H](O)[C@H]2NC(C)=O)nn1
 SMILES IDX 14 1 15 2 17 3 16 5 18 6 19 7 21 8 23 9 25 10 30 11 24 12
 SMILES IDX 31 13 33 14 26 15 27 17 28 18 29 19 32 21 34 23 35 24 36 26
 SMILES IDX 37 27 22 28 20 30 13 32 12 33 11 34 38 35 10 36 39 37 9 38
 SMILES IDX 8 39 7 40 3 41 4 42 2 43 1 44 5 45 6 46
 H PARENT 17 4 26 16 29 20 32 22 34 25 22 29 20 31
 Flexibility Score: inf
  4 active torsions:
  status: ('A' for Active; 'I' for Inactive)
    1  A    between atoms: CA   and  CB  
    2  A    between atoms: CB   and  CG  
    3  A    between atoms: CG   and  CD  
    4  A    between atoms: CD   and  CE  

>  <TORSDO>
F 20

>  <BEGIN_>
RES LYS A 131

$$$$
ligand_45_pose_13_2HRL.pdbqt
 OpenBabel07062320523D

  6  5  0  0  0  0  0  0  0  0999 V2000
   33.1930   34.6630    9.2900 C   0  0  0  0  0  0  0  0  0  0  0  0
   32.0600   35.3600   10.0340 C   0  0  0  0  0  0  0  0  0  0  0  0
   32.4930   35.9990   11.3280 C   0  0  0  0  0  0  0  0  0  0  0  0
   31.8780   37.3830   11.4750 C   0  0  0  0  0  0  0  0  0  0  0  0
   31.5100   37.6510   12.9220 C   0  0  0  0  0  0  0  0  0  0  0  0
   30.5180   38.7570   13.0270 N   0  0  0  0  0  0  0  0  0  0  0  0
  1  2  1  0  0  0  0
  2  3  1  0  0  0  0
  3  4  1  0  0  0  0
  4  5  1  0  0  0  0
  5  6  1  0  0  0  0
M  END
>  <EGIN_R>
ES LYS A 135

>  <REMARK>
  4 active torsions:
  status: ('A' for Active; 'I' for Inactive)
    5  A    between atoms: CA   and  CB  
    6  A    between atoms: CB   and  CG  
    7  A    between atoms: CG   and  CD  
    8  A    between atoms: CD   and  CE  

$$$$
