ligand_62_pose_12_2HRL.pdbqt
 OpenBabel07062320523D

 52 52  0  0  1  0  0  0  0  0999 V2000
   30.6690   34.9190   12.6240 N   0  0  0  0  0  0  0  0  0  0  0  0
   29.5160   35.6160   13.0390 C   0  0  0  0  0  0  0  0  0  0  0  0
   29.5720   36.7710   13.5170 O   0  0  0  0  0  0  0  0  0  0  0  0
   30.5190   33.9560   12.2300 H   0  0  0  0  0  0  0  0  0  0  0  0
   32.0070   35.3970   12.6890 C   0  0  0  0  0  0  0  0  0  0  0  0
   32.9170   34.7640   13.6760 C   0  0  2  0  0  0  0  0  0  0  0  0
   33.0910   35.5840   14.9360 C   0  0  2  0  0  0  0  0  0  0  0  0
   32.4470   35.0090   16.1570 C   0  0  2  0  0  0  0  0  0  0  0  0
   30.7260   33.5740   16.7330 C   0  0  2  0  0  0  0  0  0  0  0  0
   31.4200   33.7630   18.0560 C   0  0  0  0  0  0  0  0  0  0  0  0
   31.3650   34.2300   15.6950 O   0  0  0  0  0  0  0  0  0  0  0  0
   31.6300   35.1880   18.4270 C   0  0  1  0  0  0  0  0  0  0  0  0
   31.8970   35.9840   17.1390 C   0  0  1  0  0  0  0  0  0  0  0  0
   29.3980   33.9380   16.8690 O   0  0  0  0  0  0  0  0  0  0  0  0
   29.1350   34.1290   17.8030 H   0  0  0  0  0  0  0  0  0  0  0  0
   30.7600   32.1190   16.4230 C   0  0  0  0  0  0  0  0  0  0  0  0
   30.4630   31.2470   17.2850 O   0  0  0  0  0  0  0  0  0  0  0  0
   31.1250   31.6390   15.1600 O   0  0  0  0  0  0  0  0  0  0  0  0
   32.0710   31.3450   14.9570 H   0  0  0  0  0  0  0  0  0  0  0  0
   30.5580   35.7390   19.1260 O   0  0  0  0  0  0  0  0  0  0  0  0
   30.4740   36.6830   18.8170 H   0  0  0  0  0  0  0  0  0  0  0  0
   32.7270   37.0740   17.5190 N   0  0  0  0  0  0  0  0  0  0  0  0
   32.2010   38.3830   17.8380 C   0  0  0  0  0  0  0  0  0  0  0  0
   33.7630   36.9980   17.6040 H   0  0  0  0  0  0  0  0  0  0  0  0
   33.1040   39.4890   18.2290 C   0  0  0  0  0  0  0  0  0  0  0  0
   30.9810   38.5820   17.7830 O   0  0  0  0  0  0  0  0  0  0  0  0
   32.3530   36.7780   14.6640 O   0  0  0  0  0  0  0  0  0  0  0  0
   31.8840   37.0860   15.4570 H   0  0  0  0  0  0  0  0  0  0  0  0
   34.1910   34.6210   13.1320 O   0  0  0  0  0  0  0  0  0  0  0  0
   34.1340   34.1850   12.2500 H   0  0  0  0  0  0  0  0  0  0  0  0
   28.2530   35.0390   12.9320 O   0  0  0  0  0  0  0  0  0  0  0  0
   27.1420   35.5640   13.6100 C   0  0  0  0  0  0  0  0  0  0  0  0
   26.7570   34.7000   14.7400 C   0  0  0  0  0  0  0  0  0  0  0  0
   26.4630   33.3500   14.7070 C   0  0  0  0  0  0  0  0  0  0  0  0
   26.6280   35.1120   16.0190 N   0  0  0  0  0  0  0  0  0  0  0  0
   26.1710   32.9950   15.9530 N   0  0  0  0  0  0  0  0  0  0  0  0
   26.2690   34.0370   16.7260 N   0  0  0  0  0  0  0  0  0  0  0  0
   25.7980   31.6550   16.3990 C   0  0  1  0  0  0  0  0  0  0  0  0
   25.4460   30.8310   15.1930 C   0  0  0  0  0  0  0  0  0  0  0  0
   24.0920   30.5950   15.1360 O   0  0  0  0  0  0  0  0  0  0  0  0
   23.7150   29.6030   14.2570 C   0  0  0  0  0  0  0  0  0  0  0  0
   26.9800   31.0270   17.0760 C   0  0  0  0  0  0  0  0  0  0  0  0
   27.3950   29.9140   16.7230 O   0  0  0  0  0  0  0  0  0  0  0  0
   27.5970   31.7510   18.1300 N   0  0  0  0  0  0  0  0  0  0  0  0
   28.5990   31.5530   18.3520 H   0  0  0  0  0  0  0  0  0  0  0  0
   27.0760   32.4560   18.6640 H   0  0  0  0  0  0  0  0  0  0  0  0
   29.8670   25.5550   16.9770 C   0  0  0  0  0  0  0  0  0  0  0  0
   28.3450   25.7220   17.0260 C   0  0  0  0  0  0  0  0  0  0  0  0
   27.5990   24.4390   16.6940 C   0  0  0  0  0  0  0  0  0  0  0  0
   27.0320   23.7800   17.9210 C   0  0  0  0  0  0  0  0  0  0  0  0
   25.6500   24.3520   18.2140 C   0  0  0  0  0  0  0  0  0  0  0  0
   24.8360   24.4040   16.9760 N   0  0  0  0  0  0  0  0  0  0  0  0
  1  5  1  0  0  0  0
  1  2  1  0  0  0  0
  2  3  2  0  0  0  0
  4  1  1  0  0  0  0
  6  5  1  6  0  0  0
  6  7  1  0  0  0  0
  7 27  1  6  0  0  0
  8  7  1  6  0  0  0
  8 13  1  0  0  0  0
  9 16  1  6  0  0  0
  9 14  1  0  0  0  0
  9 10  1  0  0  0  0
 10 12  1  0  0  0  0
 11  8  1  0  0  0  0
 11  9  1  0  0  0  0
 12 20  1  6  0  0  0
 13 22  1  1  0  0  0
 13 12  1  0  0  0  0
 14 15  1  0  0  0  0
 16 17  2  0  0  0  0
 18 16  1  0  0  0  0
 19 18  1  0  0  0  0
 21 20  1  0  0  0  0
 22 24  1  0  0  0  0
 22 23  1  0  0  0  0
 23 25  1  0  0  0  0
 26 23  2  0  0  0  0
 27 28  1  0  0  0  0
 29  6  1  0  0  0  0
 30 29  1  0  0  0  0
 31  2  1  0  0  0  0
 31 32  1  0  0  0  0
 32 33  1  0  0  0  0
 33 35  1  0  0  0  0
 34 33  2  0  0  0  0
 34 36  1  0  0  0  0
 35 37  2  0  0  0  0
 36 38  1  0  0  0  0
 36 37  1  0  0  0  0
 38 39  1  6  0  0  0
 38 42  1  0  0  0  0
 40 39  1  0  0  0  0
 41 40  1  0  0  0  0
 42 44  1  0  0  0  0
 43 42  2  0  0  0  0
 44 45  1  0  0  0  0
 44 46  1  0  0  0  0
 47 48  1  0  0  0  0
 49 48  1  0  0  0  0
 49 50  1  0  0  0  0
 50 51  1  0  0  0  0
 52 51  1  0  0  0  0
M  END
>  <REMARK>
 VINA RESULT:    -3.997      3.263      6.708
 INTER + INTRA:         -14.372
 INTER:                  -6.852
 INTRA:                  -7.520
 UNBOUND:                -6.753
 SMILES COCC(C(N)=O)n1cc(COC(=O)NC[C@@H](O)C(O)[C@@H]2O[C@@](O)(C(=O)O)C[C@H](O)[C@H]2NC(C)=O)nn1
 SMILES IDX 15 1 13 2 14 3 16 5 17 6 19 7 21 8 23 9 28 10 22 11 29 12
 SMILES IDX 31 13 24 14 25 16 26 17 27 18 30 20 32 22 33 23 34 25 35 26
 SMILES IDX 20 27 18 29 12 31 11 32 10 33 9 34 36 35 8 36 37 37 4 38
 SMILES IDX 3 39 2 40 1 41 5 42 7 43 6 44
 H PARENT 15 4 24 15 27 19 30 21 32 24 20 28 18 30 6 45 6 46
 Flexibility Score: inf
  4 active torsions:
  status: ('A' for Active; 'I' for Inactive)
    1  A    between atoms: CA   and  CB  
    2  A    between atoms: CB   and  CG  
    3  A    between atoms: CG   and  CD  
    4  A    between atoms: CD   and  CE  

>  <TORSDO>
F 18

>  <BEGIN_>
RES LYS A 131

$$$$
ligand_62_pose_12_2HRL.pdbqt
 OpenBabel07062320523D

  6  5  0  0  0  0  0  0  0  0999 V2000
   33.1930   34.6630    9.2900 C   0  0  0  0  0  0  0  0  0  0  0  0
   32.0600   35.3600   10.0340 C   0  0  0  0  0  0  0  0  0  0  0  0
   30.7980   35.4940    9.2210 C   0  0  0  0  0  0  0  0  0  0  0  0
   30.0640   34.1640    9.1460 C   0  0  0  0  0  0  0  0  0  0  0  0
   28.6210   34.3750    8.7290 C   0  0  0  0  0  0  0  0  0  0  0  0
   27.6900   33.6300    9.6200 N   0  0  0  0  0  0  0  0  0  0  0  0
  1  2  1  0  0  0  0
  3  2  1  0  0  0  0
  4  3  1  0  0  0  0
  5  4  1  0  0  0  0
  5  6  1  0  0  0  0
M  END
>  <EGIN_R>
ES LYS A 135

>  <REMARK>
  4 active torsions:
  status: ('A' for Active; 'I' for Inactive)
    5  A    between atoms: CA   and  CB  
    6  A    between atoms: CB   and  CG  
    7  A    between atoms: CG   and  CD  
    8  A    between atoms: CD   and  CE  

$$$$
