ligand_27_pose_14_2HRL.pdbqt
 OpenBabel07062320523D

 50 51  0  0  1  0  0  0  0  0999 V2000
   28.4470   27.3520   20.5440 C   0  0  0  0  0  0  0  0  0  0  0  0
   29.5910   28.2500   20.9160 C   0  0  2  0  0  0  0  0  0  0  0  0
   29.3540   29.6880   20.5580 C   0  0  2  0  0  0  0  0  0  0  0  0
   30.0390   30.6200   21.5610 C   0  0  2  0  0  0  0  0  0  0  0  0
   28.9790   32.7140   21.7100 C   0  0  2  0  0  0  0  0  0  0  0  0
   30.3440   33.3810   21.6080 C   0  0  0  0  0  0  0  0  0  0  0  0
   29.1120   31.4240   22.0930 O   0  0  0  0  0  0  0  0  0  0  0  0
   31.0190   32.6560   20.4450 C   0  0  1  0  0  0  0  0  0  0  0  0
   31.2160   31.2320   20.8880 C   0  0  1  0  0  0  0  0  0  0  0  0
   28.3770   32.8890   20.4710 O   0  0  0  0  0  0  0  0  0  0  0  0
   28.2120   33.8550   20.3360 H   0  0  0  0  0  0  0  0  0  0  0  0
   28.1660   33.4200   22.7270 C   0  0  0  0  0  0  0  0  0  0  0  0
   27.6990   32.7700   23.6900 O   0  0  0  0  0  0  0  0  0  0  0  0
   27.8960   34.7790   22.6620 O   0  0  0  0  0  0  0  0  0  0  0  0
   26.9330   35.0900   22.8290 H   0  0  0  0  0  0  0  0  0  0  0  0
   30.2100   32.6450   19.3130 O   0  0  0  0  0  0  0  0  0  0  0  0
   29.7760   33.5300   19.1500 H   0  0  0  0  0  0  0  0  0  0  0  0
   32.3740   31.2200   21.7570 N   0  0  0  0  0  0  0  0  0  0  0  0
   33.2660   30.1170   21.7210 C   0  0  0  0  0  0  0  0  0  0  0  0
   32.5720   32.0200   22.4260 H   0  0  0  0  0  0  0  0  0  0  0  0
   34.4520   30.1110   22.6150 C   0  0  0  0  0  0  0  0  0  0  0  0
   33.0480   29.1590   20.9350 O   0  0  0  0  0  0  0  0  0  0  0  0
   27.9570   29.8840   20.6150 O   0  0  0  0  0  0  0  0  0  0  0  0
   27.5910   30.0490   19.7350 H   0  0  0  0  0  0  0  0  0  0  0  0
   30.7480   27.8050   20.2530 O   0  0  0  0  0  0  0  0  0  0  0  0
   31.2470   27.2210   20.8520 H   0  0  0  0  0  0  0  0  0  0  0  0
   28.1720   27.4680   19.1160 N   0  0  0  0  0  0  0  0  0  0  0  0
   26.8660   27.7650   18.6520 C   0  0  0  0  0  0  0  0  0  0  0  0
   28.9610   27.3240   18.4550 H   0  0  0  0  0  0  0  0  0  0  0  0
   25.9420   27.9300   19.4880 O   0  0  0  0  0  0  0  0  0  0  0  0
   26.5610   27.8820   17.3050 O   0  0  0  0  0  0  0  0  0  0  0  0
   25.9100   29.0550   16.8680 C   0  0  0  0  0  0  0  0  0  0  0  0
   26.8500   30.2020   16.9630 C   0  0  0  0  0  0  0  0  0  0  0  0
   27.7220   30.6410   15.9830 C   0  0  0  0  0  0  0  0  0  0  0  0
   27.0460   31.0390   17.9990 N   0  0  0  0  0  0  0  0  0  0  0  0
   28.4130   31.7120   16.4400 N   0  0  0  0  0  0  0  0  0  0  0  0
   27.9750   31.9240   17.6700 N   0  0  0  0  0  0  0  0  0  0  0  0
   29.4050   32.4510   15.7380 C   0  0  0  0  0  0  0  0  0  0  0  0
   30.7320   32.2660   16.0580 C   0  0  0  0  0  0  0  0  0  0  0  0
   29.1100   33.3550   14.7390 C   0  0  0  0  0  0  0  0  0  0  0  0
   31.7340   32.9630   15.4030 C   0  0  0  0  0  0  0  0  0  0  0  0
   30.0810   34.0650   14.0670 C   0  0  0  0  0  0  0  0  0  0  0  0
   31.4010   33.8580   14.4110 C   0  0  0  0  0  0  0  0  0  0  0  0
   29.6590   35.2180   12.7910 Cl  0  0  0  0  0  0  0  0  0  0  0  0
   29.8670   25.5550   16.9770 C   0  0  0  0  0  0  0  0  0  0  0  0
   28.3450   25.7220   17.0260 C   0  0  0  0  0  0  0  0  0  0  0  0
   27.6000   24.4170   16.7910 C   0  0  0  0  0  0  0  0  0  0  0  0
   26.5970   24.1340   17.8760 C   0  0  0  0  0  0  0  0  0  0  0  0
   25.1990   24.0610   17.2700 C   0  0  0  0  0  0  0  0  0  0  0  0
   24.5540   22.7710   17.6110 N   0  0  0  0  0  0  0  0  0  0  0  0
  2  1  1  6  0  0  0
  3 23  1  1  0  0  0
  3  2  1  0  0  0  0
  4  3  1  6  0  0  0
  4  7  1  0  0  0  0
  5 10  1  6  0  0  0
  5  7  1  0  0  0  0
  5 12  1  0  0  0  0
  6  5  1  0  0  0  0
  8 16  1  6  0  0  0
  8  9  1  0  0  0  0
  8  6  1  0  0  0  0
  9  4  1  0  0  0  0
  9 18  1  1  0  0  0
 11 10  1  0  0  0  0
 12 13  2  0  0  0  0
 14 12  1  0  0  0  0
 14 15  1  0  0  0  0
 17 16  1  0  0  0  0
 18 20  1  0  0  0  0
 19 18  1  0  0  0  0
 19 21  1  0  0  0  0
 22 19  2  0  0  0  0
 24 23  1  0  0  0  0
 25 26  1  0  0  0  0
 25  2  1  0  0  0  0
 27  1  1  0  0  0  0
 28 27  1  0  0  0  0
 28 30  2  0  0  0  0
 29 27  1  0  0  0  0
 31 28  1  0  0  0  0
 32 33  1  0  0  0  0
 32 31  1  0  0  0  0
 33 35  1  0  0  0  0
 34 36  1  0  0  0  0
 34 33  2  0  0  0  0
 36 37  1  0  0  0  0
 37 35  2  0  0  0  0
 38 39  1  0  0  0  0
 38 36  1  0  0  0  0
 40 38  2  0  0  0  0
 41 39  2  0  0  0  0
 42 43  2  0  0  0  0
 42 40  1  0  0  0  0
 43 41  1  0  0  0  0
 44 42  1  0  0  0  0
 45 46  1  0  0  0  0
 47 46  1  0  0  0  0
 47 48  1  0  0  0  0
 49 50  1  0  0  0  0
 49 48  1  0  0  0  0
M  END
>  <REMARK>
 VINA RESULT:    -5.459      1.966      2.942
 INTER + INTRA:         -13.945
 INTER:                  -7.467
 INTRA:                  -6.478
 UNBOUND:                -4.497
 SMILES CC(=O)N[C@@H]1[C@@H](O)C[C@](O)(C(=O)O)O[C@H]1C(O)[C@H](O)CNC(=O)OCc1cn(-c2cccc(Cl)c2)nn1
 SMILES IDX 20 1 18 2 16 3 15 4 9 5 8 6 14 7 6 8 5 9 10 10 11 12 12 13
 SMILES IDX 13 14 7 16 4 18 2 19 1 21 3 22 17 23 19 25 21 27 22 28 23 30
 SMILES IDX 24 31 25 32 26 33 27 34 37 35 28 36 36 37 29 38 30 39 35 40
 SMILES IDX 31 41 33 42 32 43 34 44
 H PARENT 10 11 13 15 7 17 4 20 17 24 19 26 21 29
 Flexibility Score: inf
  4 active torsions:
  status: ('A' for Active; 'I' for Inactive)
    1  A    between atoms: CA   and  CB  
    2  A    between atoms: CB   and  CG  
    3  A    between atoms: CG   and  CD  
    4  A    between atoms: CD   and  CE  

>  <TORSDO>
F 15

>  <BEGIN_>
RES LYS A 131

$$$$
ligand_27_pose_14_2HRL.pdbqt
 OpenBabel07062320523D

  6  5  0  0  0  0  0  0  0  0999 V2000
   33.1930   34.6630    9.2900 C   0  0  0  0  0  0  0  0  0  0  0  0
   32.0600   35.3600   10.0340 C   0  0  0  0  0  0  0  0  0  0  0  0
   30.8020   35.5030    9.2180 C   0  0  0  0  0  0  0  0  0  0  0  0
   30.1270   34.1530    9.0300 C   0  0  0  0  0  0  0  0  0  0  0  0
   28.6680   34.3350    8.6560 C   0  0  0  0  0  0  0  0  0  0  0  0
   27.7720   33.7260    9.6790 N   0  0  0  0  0  0  0  0  0  0  0  0
  1  2  1  0  0  0  0
  3  2  1  0  0  0  0
  4  3  1  0  0  0  0
  5  4  1  0  0  0  0
  5  6  1  0  0  0  0
M  END
>  <EGIN_R>
ES LYS A 135

>  <REMARK>
  4 active torsions:
  status: ('A' for Active; 'I' for Inactive)
    5  A    between atoms: CA   and  CB  
    6  A    between atoms: CB   and  CG  
    7  A    between atoms: CG   and  CD  
    8  A    between atoms: CD   and  CE  

$$$$
