ligand_66_pose_3_2HRL.pdbqt
 OpenBabel07062320523D

 52 53  0  0  1  0  0  0  0  0999 V2000
   26.2920   29.7140   19.1760 N   0  0  0  0  0  0  0  0  0  0  0  0
   26.2510   28.4390   18.6000 C   0  0  0  0  0  0  0  0  0  0  0  0
   27.2780   27.7320   18.5400 O   0  0  0  0  0  0  0  0  0  0  0  0
   25.3750   30.2550   19.1950 H   0  0  0  0  0  0  0  0  0  0  0  0
   27.4800   30.3080   19.7290 C   0  0  0  0  0  0  0  0  0  0  0  0
   28.3520   30.9560   18.6900 C   0  0  2  0  0  0  0  0  0  0  0  0
   27.6440   31.5860   17.5550 C   0  0  2  0  0  0  0  0  0  0  0  0
   28.5050   32.5160   16.6850 C   0  0  2  0  0  0  0  0  0  0  0  0
   30.5160   33.5860   16.6680 C   0  0  2  0  0  0  0  0  0  0  0  0
   29.8400   34.9420   16.6600 C   0  0  0  0  0  0  0  0  0  0  0  0
   29.6750   32.7100   17.3030 O   0  0  0  0  0  0  0  0  0  0  0  0
   28.5470   34.9020   15.8910 C   0  0  1  0  0  0  0  0  0  0  0  0
   27.7320   33.6770   16.1870 C   0  0  1  0  0  0  0  0  0  0  0  0
   31.7120   33.7110   17.4200 O   0  0  0  0  0  0  0  0  0  0  0  0
   31.4310   33.5100   18.3580 H   0  0  0  0  0  0  0  0  0  0  0  0
   30.9220   33.2330   15.3040 C   0  0  0  0  0  0  0  0  0  0  0  0
   31.0610   34.0960   14.4060 O   0  0  0  0  0  0  0  0  0  0  0  0
   31.1830   31.9100   14.8930 O   0  0  0  0  0  0  0  0  0  0  0  0
   30.3820   31.4190   14.4890 H   0  0  0  0  0  0  0  0  0  0  0  0
   27.8280   36.0510   16.2170 O   0  0  0  0  0  0  0  0  0  0  0  0
   28.2960   36.8730   15.9600 H   0  0  0  0  0  0  0  0  0  0  0  0
   26.9710   33.3260   15.0040 N   0  0  0  0  0  0  0  0  0  0  0  0
   25.6980   33.9300   14.6950 C   0  0  0  0  0  0  0  0  0  0  0  0
   27.2800   32.6160   14.2920 H   0  0  0  0  0  0  0  0  0  0  0  0
   24.9480   33.5340   13.4620 C   0  0  0  0  0  0  0  0  0  0  0  0
   25.2130   34.7890   15.4580 O   0  0  0  0  0  0  0  0  0  0  0  0
   26.5320   32.3350   17.9450 O   0  0  0  0  0  0  0  0  0  0  0  0
   25.6900   32.0150   17.5390 H   0  0  0  0  0  0  0  0  0  0  0  0
   29.3560   30.0510   18.3480 O   0  0  0  0  0  0  0  0  0  0  0  0
   30.1870   30.5640   18.1980 H   0  0  0  0  0  0  0  0  0  0  0  0
   25.0860   27.8900   18.0650 O   0  0  0  0  0  0  0  0  0  0  0  0
   24.0320   28.7540   17.7240 C   0  0  0  0  0  0  0  0  0  0  0  0
   24.2890   29.3170   16.3830 C   0  0  0  0  0  0  0  0  0  0  0  0
   23.6740   28.9970   15.1930 C   0  0  0  0  0  0  0  0  0  0  0  0
   25.1930   30.2680   16.0870 N   0  0  0  0  0  0  0  0  0  0  0  0
   24.2140   29.7540   14.2200 N   0  0  0  0  0  0  0  0  0  0  0  0
   25.1320   30.5110   14.8080 N   0  0  0  0  0  0  0  0  0  0  0  0
   23.9240   29.8160   12.8120 C   0  0  0  0  0  0  0  0  0  0  0  0
   22.4550   30.0210   12.5830 C   0  0  0  0  0  0  0  0  0  0  0  0
   21.9150   31.2830   12.6860 C   0  0  0  0  0  0  0  0  0  0  0  0
   21.6230   28.9810   12.2640 C   0  0  0  0  0  0  0  0  0  0  0  0
   20.5470   31.4820   12.4660 C   0  0  0  0  0  0  0  0  0  0  0  0
   20.2720   29.1400   12.0400 C   0  0  0  0  0  0  0  0  0  0  0  0
   19.7330   30.4020   12.1430 C   0  0  0  0  0  0  0  0  0  0  0  0
   19.3820   28.0680   11.7050 C   0  0  0  0  0  0  0  0  0  0  0  0
   18.6510   27.2050   11.4160 N   0  0  0  0  0  0  0  0  0  0  0  0
   29.8670   25.5550   16.9770 C   0  0  0  0  0  0  0  0  0  0  0  0
   28.3450   25.7220   17.0260 C   0  0  0  0  0  0  0  0  0  0  0  0
   27.5990   24.4370   16.7000 C   0  0  0  0  0  0  0  0  0  0  0  0
   27.0360   23.7810   17.9300 C   0  0  0  0  0  0  0  0  0  0  0  0
   25.6630   24.3710   18.2390 C   0  0  0  0  0  0  0  0  0  0  0  0
   25.6170   24.8790   19.6300 N   0  0  0  0  0  0  0  0  0  0  0  0
  1  4  1  0  0  0  0
  1  5  1  0  0  0  0
  2  1  1  0  0  0  0
  3  2  2  0  0  0  0
  6  5  1  1  0  0  0
  7 27  1  1  0  0  0
  7  6  1  0  0  0  0
  8 11  1  0  0  0  0
  8  7  1  1  0  0  0
  9 16  1  6  0  0  0
  9 11  1  0  0  0  0
  9 14  1  0  0  0  0
 10  9  1  0  0  0  0
 12 13  1  0  0  0  0
 12 20  1  1  0  0  0
 12 10  1  0  0  0  0
 13 22  1  6  0  0  0
 13  8  1  0  0  0  0
 14 15  1  0  0  0  0
 17 16  2  0  0  0  0
 18 16  1  0  0  0  0
 19 18  1  0  0  0  0
 21 20  1  0  0  0  0
 23 22  1  0  0  0  0
 23 26  2  0  0  0  0
 24 22  1  0  0  0  0
 25 23  1  0  0  0  0
 28 27  1  0  0  0  0
 29  6  1  0  0  0  0
 30 29  1  0  0  0  0
 31  2  1  0  0  0  0
 32 31  1  0  0  0  0
 33 32  1  0  0  0  0
 34 33  2  0  0  0  0
 35 33  1  0  0  0  0
 36 37  1  0  0  0  0
 36 34  1  0  0  0  0
 37 35  2  0  0  0  0
 38 36  1  0  0  0  0
 39 40  1  0  0  0  0
 39 38  1  0  0  0  0
 41 39  2  0  0  0  0
 42 40  2  0  0  0  0
 43 44  2  0  0  0  0
 43 41  1  0  0  0  0
 44 42  1  0  0  0  0
 45 43  1  0  0  0  0
 46 45  3  0  0  0  0
 47 48  1  0  0  0  0
 49 48  1  0  0  0  0
 49 50  1  0  0  0  0
 50 51  1  0  0  0  0
 51 52  1  0  0  0  0
M  END
>  <REMARK>
 VINA RESULT:    -5.253      1.844      3.461
 INTER + INTRA:         -14.918
 INTER:                  -9.178
 INTRA:                  -5.739
 UNBOUND:                -5.212
 SMILES CC(=O)N[C@@H]1[C@@H](O)C[C@](O)(C(=O)O)O[C@H]1C(O)[C@H](O)CNC(=O)OCc1cn(Cc2cccc(C#N)c2)nn1
 SMILES IDX 21 1 22 2 23 3 20 5 18 6 16 7 15 8 9 9 8 10 14 11 6 12 5 13
 SMILES IDX 10 14 11 16 12 17 13 18 7 20 4 22 2 23 1 25 3 26 17 27 19 29
 SMILES IDX 24 31 25 32 26 33 27 34 39 35 28 36 38 37 29 38 30 39 31 40
 SMILES IDX 37 41 32 42 34 43 33 44 35 45 36 46
 H PARENT 21 4 10 15 13 19 7 21 4 24 17 28 19 30
 Flexibility Score: inf
  4 active torsions:
  status: ('A' for Active; 'I' for Inactive)
    1  A    between atoms: CA   and  CB  
    2  A    between atoms: CB   and  CG  
    3  A    between atoms: CG   and  CD  
    4  A    between atoms: CD   and  CE  

>  <TORSDO>
F 17

>  <BEGIN_>
RES LYS A 131

$$$$
ligand_66_pose_3_2HRL.pdbqt
 OpenBabel07062320523D

  6  5  0  0  0  0  0  0  0  0999 V2000
   33.1930   34.6630    9.2900 C   0  0  0  0  0  0  0  0  0  0  0  0
   32.0600   35.3600   10.0340 C   0  0  0  0  0  0  0  0  0  0  0  0
   30.7790   35.4390    9.2440 C   0  0  0  0  0  0  0  0  0  0  0  0
   30.2270   34.0470    8.9770 C   0  0  0  0  0  0  0  0  0  0  0  0
   28.7280   34.0150    9.2100 C   0  0  0  0  0  0  0  0  0  0  0  0
   28.0860   35.2760    8.7450 N   0  0  0  0  0  0  0  0  0  0  0  0
  1  2  1  0  0  0  0
  3  2  1  0  0  0  0
  4  5  1  0  0  0  0
  4  3  1  0  0  0  0
  6  5  1  0  0  0  0
M  END
>  <EGIN_R>
ES LYS A 135

>  <REMARK>
  4 active torsions:
  status: ('A' for Active; 'I' for Inactive)
    5  A    between atoms: CA   and  CB  
    6  A    between atoms: CB   and  CG  
    7  A    between atoms: CG   and  CD  
    8  A    between atoms: CD   and  CE  

$$$$
