ligand_32_pose_16_2HRL.pdbqt
 OpenBabel07062320523D

 49 49  0  0  1  0  0  0  0  0999 V2000
   21.8740   36.5780    8.2350 N   0  0  0  0  0  0  0  0  0  0  0  0
   22.6820   37.6050    8.7840 C   0  0  0  0  0  0  0  0  0  0  0  0
   22.2050   38.7510    9.0400 O   0  0  0  0  0  0  0  0  0  0  0  0
   22.3010   35.6520    8.0400 H   0  0  0  0  0  0  0  0  0  0  0  0
   20.4770   36.7860    7.9380 C   0  0  0  0  0  0  0  0  0  0  0  0
   19.6700   35.5180    7.8910 C   0  0  2  0  0  0  0  0  0  0  0  0
   19.1010   35.1810    9.2690 C   0  0  1  0  0  0  0  0  0  0  0  0
   17.8750   34.2980    9.1190 C   0  0  2  0  0  0  0  0  0  0  0  0
   17.1860   32.6630    7.6000 C   0  0  2  0  0  0  0  0  0  0  0  0
   15.7650   32.8450    8.0530 C   0  0  0  0  0  0  0  0  0  0  0  0
   18.1250   33.1170    8.5000 O   0  0  0  0  0  0  0  0  0  0  0  0
   15.4910   34.1150    8.7760 C   0  0  1  0  0  0  0  0  0  0  0  0
   16.6960   35.0410    8.5480 C   0  0  1  0  0  0  0  0  0  0  0  0
   17.3240   33.2390    6.3420 O   0  0  0  0  0  0  0  0  0  0  0  0
   17.1370   32.5090    5.6890 H   0  0  0  0  0  0  0  0  0  0  0  0
   17.4000   31.2050    7.4540 C   0  0  0  0  0  0  0  0  0  0  0  0
   17.2910   30.3910    8.3970 O   0  0  0  0  0  0  0  0  0  0  0  0
   17.7420   30.6950    6.2150 O   0  0  0  0  0  0  0  0  0  0  0  0
   18.1740   31.2450    5.4830 H   0  0  0  0  0  0  0  0  0  0  0  0
   14.3140   34.7370    8.3690 O   0  0  0  0  0  0  0  0  0  0  0  0
   13.5520   34.0980    8.3070 H   0  0  0  0  0  0  0  0  0  0  0  0
   16.4870   36.3120    9.2140 N   0  0  0  0  0  0  0  0  0  0  0  0
   16.4890   37.5250    8.4700 C   0  0  0  0  0  0  0  0  0  0  0  0
   16.3320   36.3830   10.2480 H   0  0  0  0  0  0  0  0  0  0  0  0
   16.2770   38.8640    9.1170 C   0  0  0  0  0  0  0  0  0  0  0  0
   16.6740   37.5010    7.2120 O   0  0  0  0  0  0  0  0  0  0  0  0
   20.0770   34.4860    9.9790 O   0  0  0  0  0  0  0  0  0  0  0  0
   20.5730   33.8380    9.4080 H   0  0  0  0  0  0  0  0  0  0  0  0
   20.5260   34.5020    7.4580 O   0  0  0  0  0  0  0  0  0  0  0  0
   19.9890   33.6910    7.2760 H   0  0  0  0  0  0  0  0  0  0  0  0
   24.0090   37.3480    9.0430 O   0  0  0  0  0  0  0  0  0  0  0  0
   24.4860   36.0960    9.5030 C   0  0  0  0  0  0  0  0  0  0  0  0
   25.7090   35.6930    8.7290 C   0  0  0  0  0  0  0  0  0  0  0  0
   26.3600   36.4270    7.7740 C   0  0  0  0  0  0  0  0  0  0  0  0
   26.3560   34.5180    8.8580 N   0  0  0  0  0  0  0  0  0  0  0  0
   27.4010   35.6760    7.3370 N   0  0  0  0  0  0  0  0  0  0  0  0
   27.3710   34.5340    8.0090 N   0  0  0  0  0  0  0  0  0  0  0  0
   28.3400   36.1040    6.3220 C   0  0  0  0  0  0  0  0  0  0  0  0
   28.8000   37.5150    6.6800 C   0  0  0  0  0  0  0  0  0  0  0  0
   28.4420   38.3870    5.5210 C   0  0  0  0  0  0  0  0  0  0  0  0
   28.9230   39.5140    5.3470 O   0  0  0  0  0  0  0  0  0  0  0  0
   27.5170   37.8680    4.6140 O   0  0  0  0  0  0  0  0  0  0  0  0
   27.8240   37.5990    3.6810 H   0  0  0  0  0  0  0  0  0  0  0  0
   29.8670   25.5550   16.9770 C   0  0  0  0  0  0  0  0  0  0  0  0
   28.3450   25.7220   17.0260 C   0  0  0  0  0  0  0  0  0  0  0  0
   27.6010   24.4060   16.8600 C   0  0  0  0  0  0  0  0  0  0  0  0
   26.1470   24.5280   17.2230 C   0  0  0  0  0  0  0  0  0  0  0  0
   25.6300   23.1800   17.7150 C   0  0  0  0  0  0  0  0  0  0  0  0
   25.4930   23.1850   19.1910 N   0  0  0  0  0  0  0  0  0  0  0  0
  1  2  1  0  0  0  0
  2  3  2  0  0  0  0
  2 31  1  0  0  0  0
  4  1  1  0  0  0  0
  5  1  1  0  0  0  0
  6  5  1  1  0  0  0
  6  7  1  0  0  0  0
  7 27  1  1  0  0  0
  8  7  1  6  0  0  0
  9 14  1  6  0  0  0
  9 10  1  0  0  0  0
  9 11  1  0  0  0  0
 10 12  1  0  0  0  0
 11  8  1  0  0  0  0
 12 20  1  6  0  0  0
 13 12  1  0  0  0  0
 13  8  1  0  0  0  0
 13 22  1  1  0  0  0
 15 14  1  0  0  0  0
 16  9  1  0  0  0  0
 16 17  2  0  0  0  0
 18 16  1  0  0  0  0
 19 18  1  0  0  0  0
 21 20  1  0  0  0  0
 22 24  1  0  0  0  0
 23 25  1  0  0  0  0
 23 22  1  0  0  0  0
 26 23  2  0  0  0  0
 28 27  1  0  0  0  0
 29  6  1  0  0  0  0
 30 29  1  0  0  0  0
 31 32  1  0  0  0  0
 33 35  1  0  0  0  0
 33 32  1  0  0  0  0
 34 33  2  0  0  0  0
 36 34  1  0  0  0  0
 36 37  1  0  0  0  0
 37 35  2  0  0  0  0
 38 39  1  0  0  0  0
 38 36  1  0  0  0  0
 40 39  1  0  0  0  0
 41 40  2  0  0  0  0
 42 40  1  0  0  0  0
 43 42  1  0  0  0  0
 44 45  1  0  0  0  0
 46 45  1  0  0  0  0
 46 47  1  0  0  0  0
 47 48  1  0  0  0  0
 48 49  1  0  0  0  0
M  END
>  <REMARK>
 VINA RESULT:    -4.177     10.064     15.372
 INTER + INTRA:         -13.483
 INTER:                  -9.448
 INTRA:                  -4.035
 UNBOUND:                -5.644
 SMILES CC(=O)N[C@@H]1[C@@H](O)C[C@](O)(C(=O)O)O[C@H]1C(O)[C@H](O)CNC(=O)OCc1cn(CCC(=O)O)nn1
 SMILES IDX 21 1 22 2 23 3 20 5 18 6 16 7 15 8 9 9 8 10 14 11 6 12 5 13
 SMILES IDX 10 14 11 16 12 17 13 18 7 20 4 22 2 23 1 25 3 26 17 27 19 29
 SMILES IDX 24 31 25 32 26 33 27 34 35 35 28 36 34 37 29 38 30 39 31 40
 SMILES IDX 32 41 33 42
 H PARENT 21 4 10 15 13 19 7 21 4 24 17 28 19 30 33 43
 Flexibility Score: inf
  4 active torsions:
  status: ('A' for Active; 'I' for Inactive)
    1  A    between atoms: CA   and  CB  
    2  A    between atoms: CB   and  CG  
    3  A    between atoms: CG   and  CD  
    4  A    between atoms: CD   and  CE  

>  <TORSDO>
F 18

>  <BEGIN_>
RES LYS A 131

$$$$
ligand_32_pose_16_2HRL.pdbqt
 OpenBabel07062320523D

  6  5  0  0  0  0  0  0  0  0999 V2000
   33.1930   34.6630    9.2900 C   0  0  0  0  0  0  0  0  0  0  0  0
   32.0600   35.3600   10.0340 C   0  0  0  0  0  0  0  0  0  0  0  0
   30.7120   35.1780    9.3860 C   0  0  0  0  0  0  0  0  0  0  0  0
   29.6140   35.7760   10.2530 C   0  0  0  0  0  0  0  0  0  0  0  0
   29.4040   34.9370   11.4990 C   0  0  0  0  0  0  0  0  0  0  0  0
   27.9650   34.8970   11.8810 N   0  0  0  0  0  0  0  0  0  0  0  0
  1  2  1  0  0  0  0
  3  2  1  0  0  0  0
  3  4  1  0  0  0  0
  4  5  1  0  0  0  0
  5  6  1  0  0  0  0
M  END
>  <EGIN_R>
ES LYS A 135

>  <REMARK>
  4 active torsions:
  status: ('A' for Active; 'I' for Inactive)
    5  A    between atoms: CA   and  CB  
    6  A    between atoms: CB   and  CG  
    7  A    between atoms: CG   and  CD  
    8  A    between atoms: CD   and  CE  

$$$$
