ligand_42_pose_13_2HRL.pdbqt
 OpenBabel07062320523D

 52 54  0  0  1  0  0  0  0  0999 V2000
   26.0560   42.4410    8.0280 C   0  0  0  0  0  0  0  0  0  0  0  0
   27.2750   42.5040    7.1700 C   0  0  2  0  0  0  0  0  0  0  0  0
   28.5270   42.0910    7.9600 C   0  0  1  0  0  0  0  0  0  0  0  0
   29.0040   40.8030    7.3910 C   0  0  2  0  0  0  0  0  0  0  0  0
   28.4170   38.7060    6.7190 C   0  0  2  0  0  0  0  0  0  0  0  0
   29.8720   38.7300    6.3010 C   0  0  0  0  0  0  0  0  0  0  0  0
   27.9570   39.9110    7.1900 O   0  0  0  0  0  0  0  0  0  0  0  0
   30.7850   39.1730    7.4280 C   0  0  1  0  0  0  0  0  0  0  0  0
   30.0010   40.0900    8.3050 C   0  0  1  0  0  0  0  0  0  0  0  0
   28.2960   37.6760    7.6550 O   0  0  0  0  0  0  0  0  0  0  0  0
   27.3270   37.4560    7.6910 H   0  0  0  0  0  0  0  0  0  0  0  0
   27.6320   38.3720    5.5090 C   0  0  0  0  0  0  0  0  0  0  0  0
   27.4820   39.2380    4.6150 O   0  0  0  0  0  0  0  0  0  0  0  0
   27.0470   37.1320    5.3140 O   0  0  0  0  0  0  0  0  0  0  0  0
   26.2130   36.8220    5.8020 H   0  0  0  0  0  0  0  0  0  0  0  0
   31.1560   37.9910    8.1060 O   0  0  0  0  0  0  0  0  0  0  0  0
   30.9850   37.2050    7.5550 H   0  0  0  0  0  0  0  0  0  0  0  0
   30.7600   40.9740    9.1120 N   0  0  0  0  0  0  0  0  0  0  0  0
   31.3680   40.6740   10.3600 C   0  0  0  0  0  0  0  0  0  0  0  0
   30.8950   41.9490    8.7660 H   0  0  0  0  0  0  0  0  0  0  0  0
   32.1510   41.6820   11.1340 C   0  0  0  0  0  0  0  0  0  0  0  0
   31.2250   39.5110   10.8020 O   0  0  0  0  0  0  0  0  0  0  0  0
   29.4460   43.0970    7.8360 O   0  0  0  0  0  0  0  0  0  0  0  0
   30.3780   42.8670    7.7720 H   0  0  0  0  0  0  0  0  0  0  0  0
   27.4880   43.7620    6.6720 O   0  0  0  0  0  0  0  0  0  0  0  0
   27.9810   44.3860    7.2470 H   0  0  0  0  0  0  0  0  0  0  0  0
   25.3530   41.2160    7.8760 N   0  0  0  0  0  0  0  0  0  0  0  0
   24.3980   40.9870    6.8720 C   0  0  0  0  0  0  0  0  0  0  0  0
   25.5340   40.4040    8.5420 H   0  0  0  0  0  0  0  0  0  0  0  0
   24.0460   41.8140    6.0160 O   0  0  0  0  0  0  0  0  0  0  0  0
   23.7750   39.7280    6.8080 O   0  0  0  0  0  0  0  0  0  0  0  0
   23.3540   39.1120    7.9880 C   0  0  0  0  0  0  0  0  0  0  0  0
   24.3420   38.0690    8.3710 C   0  0  0  0  0  0  0  0  0  0  0  0
   24.7620   37.7670    9.6620 C   0  0  0  0  0  0  0  0  0  0  0  0
   25.0180   37.2220    7.5770 N   0  0  0  0  0  0  0  0  0  0  0  0
   25.6610   36.7680    9.6190 N   0  0  0  0  0  0  0  0  0  0  0  0
   25.7870   36.4670    8.3390 N   0  0  0  0  0  0  0  0  0  0  0  0
   26.3170   36.1830   10.7380 C   0  0  0  0  0  0  0  0  0  0  0  0
   25.7140   35.1670   11.4510 C   0  0  0  0  0  0  0  0  0  0  0  0
   27.5640   36.5900   11.1650 C   0  0  0  0  0  0  0  0  0  0  0  0
   26.3390   34.5800   12.5510 C   0  0  0  0  0  0  0  0  0  0  0  0
   28.2080   36.0180   12.2620 C   0  0  0  0  0  0  0  0  0  0  0  0
   27.5850   35.0050   12.9570 C   0  0  0  0  0  0  0  0  0  0  0  0
   29.4370   36.2450   12.8760 O   0  0  0  0  0  0  0  0  0  0  0  0
   28.4610   34.6340   13.9920 O   0  0  0  0  0  0  0  0  0  0  0  0
   29.4080   35.6910   14.1790 C   0  0  0  0  0  0  0  0  0  0  0  0
   29.8670   25.5550   16.9770 C   0  0  0  0  0  0  0  0  0  0  0  0
   28.3450   25.7220   17.0260 C   0  0  0  0  0  0  0  0  0  0  0  0
   27.6010   24.4030   16.8880 C   0  0  0  0  0  0  0  0  0  0  0  0
   26.5600   24.2250   17.9580 C   0  0  0  0  0  0  0  0  0  0  0  0
   25.6270   23.0800   17.5760 C   0  0  0  0  0  0  0  0  0  0  0  0
   24.3720   23.6070   16.9900 N   0  0  0  0  0  0  0  0  0  0  0  0
  2  3  1  0  0  0  0
  2  1  1  1  0  0  0
  3 23  1  6  0  0  0
  4  3  1  1  0  0  0
  4  9  1  0  0  0  0
  5 12  1  6  0  0  0
  5  7  1  0  0  0  0
  5 10  1  0  0  0  0
  6  5  1  0  0  0  0
  6  8  1  0  0  0  0
  7  4  1  0  0  0  0
  8 16  1  1  0  0  0
  8  9  1  0  0  0  0
  9 18  1  6  0  0  0
 10 11  1  0  0  0  0
 13 12  2  0  0  0  0
 14 12  1  0  0  0  0
 14 15  1  0  0  0  0
 17 16  1  0  0  0  0
 18 19  1  0  0  0  0
 19 22  2  0  0  0  0
 19 21  1  0  0  0  0
 20 18  1  0  0  0  0
 24 23  1  0  0  0  0
 25  2  1  0  0  0  0
 25 26  1  0  0  0  0
 27  1  1  0  0  0  0
 27 29  1  0  0  0  0
 28 27  1  0  0  0  0
 30 28  2  0  0  0  0
 31 28  1  0  0  0  0
 31 32  1  0  0  0  0
 32 33  1  0  0  0  0
 33 34  2  0  0  0  0
 35 37  2  0  0  0  0
 35 33  1  0  0  0  0
 36 34  1  0  0  0  0
 36 38  1  0  0  0  0
 37 36  1  0  0  0  0
 38 40  2  0  0  0  0
 38 39  1  0  0  0  0
 39 41  2  0  0  0  0
 40 42  1  0  0  0  0
 41 43  1  0  0  0  0
 42 44  1  0  0  0  0
 42 43  2  0  0  0  0
 43 45  1  0  0  0  0
 44 46  1  0  0  0  0
 45 46  1  0  0  0  0
 47 48  1  0  0  0  0
 49 48  1  0  0  0  0
 49 50  1  0  0  0  0
 51 50  1  0  0  0  0
 52 51  1  0  0  0  0
M  END
>  <REMARK>
 VINA RESULT:    -5.428      7.560     14.295
 INTER + INTRA:         -13.942
 INTER:                  -7.432
 INTRA:                  -6.509
 UNBOUND:                -4.548
 SMILES CC(=O)N[C@@H]1[C@@H](O)C[C@](O)(C(=O)O)O[C@H]1C(O)[C@H](O)CNC(=O)OCc1cn(-c2ccc3c(c2)OCO3)nn1
 SMILES IDX 20 1 18 2 16 3 15 4 9 5 8 6 14 7 6 8 5 9 10 10 11 12 12 13
 SMILES IDX 13 14 7 16 4 18 2 19 1 21 3 22 17 23 19 25 21 27 22 28 23 30
 SMILES IDX 24 31 25 32 26 33 27 34 39 35 28 36 38 37 29 38 30 39 34 40
 SMILES IDX 31 41 33 42 32 43 35 44 37 45 36 46
 H PARENT 10 11 13 15 7 17 4 20 17 24 19 26 21 29
 Flexibility Score: inf
  4 active torsions:
  status: ('A' for Active; 'I' for Inactive)
    1  A    between atoms: CA   and  CB  
    2  A    between atoms: CB   and  CG  
    3  A    between atoms: CG   and  CD  
    4  A    between atoms: CD   and  CE  

>  <TORSDO>
F 15

>  <BEGIN_>
RES LYS A 131

$$$$
ligand_42_pose_13_2HRL.pdbqt
 OpenBabel07062320523D

  6  5  0  0  0  0  0  0  0  0999 V2000
   33.1930   34.6630    9.2900 C   0  0  0  0  0  0  0  0  0  0  0  0
   32.0600   35.3600   10.0340 C   0  0  0  0  0  0  0  0  0  0  0  0
   30.7340   34.6550    9.9090 C   0  0  0  0  0  0  0  0  0  0  0  0
   30.3250   34.5370    8.4490 C   0  0  0  0  0  0  0  0  0  0  0  0
   28.8140   34.4800    8.3220 C   0  0  0  0  0  0  0  0  0  0  0  0
   28.2210   33.6090    9.3740 N   0  0  0  0  0  0  0  0  0  0  0  0
  1  2  1  0  0  0  0
  3  2  1  0  0  0  0
  4  3  1  0  0  0  0
  5  4  1  0  0  0  0
  5  6  1  0  0  0  0
M  END
>  <EGIN_R>
ES LYS A 135

>  <REMARK>
  4 active torsions:
  status: ('A' for Active; 'I' for Inactive)
    5  A    between atoms: CA   and  CB  
    6  A    between atoms: CB   and  CG  
    7  A    between atoms: CG   and  CD  
    8  A    between atoms: CD   and  CE  

$$$$
