ligand_64_pose_3_2HRL.pdbqt
 OpenBabel07062320523D

 59 61  0  0  1  0  0  0  0  0999 V2000
   23.7960   37.7720   10.2040 N   0  0  0  0  0  0  0  0  0  0  0  0
   23.5680   37.6020   11.6060 C   0  0  0  0  0  0  0  0  0  0  0  0
   24.2010   38.3400   12.4050 O   0  0  0  0  0  0  0  0  0  0  0  0
   23.2320   37.1200    9.5850 H   0  0  0  0  0  0  0  0  0  0  0  0
   24.7090   38.7400    9.6590 C   0  0  0  0  0  0  0  0  0  0  0  0
   25.9890   38.0930    9.2240 C   0  0  2  0  0  0  0  0  0  0  0  0
   25.6450   36.9790    8.2430 C   0  0  2  0  0  0  0  0  0  0  0  0
   26.8620   36.5660    7.4910 C   0  0  2  0  0  0  0  0  0  0  0  0
   29.0240   35.7910    7.8530 C   0  0  2  0  0  0  0  0  0  0  0  0
   28.9320   35.5700    6.3480 C   0  0  0  0  0  0  0  0  0  0  0  0
   27.8220   36.1190    8.4240 O   0  0  0  0  0  0  0  0  0  0  0  0
   28.4980   36.8510    5.7280 C   0  0  1  0  0  0  0  0  0  0  0  0
   27.5430   37.6110    6.6760 C   0  0  1  0  0  0  0  0  0  0  0  0
   29.9740   36.8310    8.0010 O   0  0  0  0  0  0  0  0  0  0  0  0
   29.4510   37.6130    8.3160 H   0  0  0  0  0  0  0  0  0  0  0  0
   29.5440   34.5940    8.5390 C   0  0  0  0  0  0  0  0  0  0  0  0
   28.7640   33.8180    9.1210 O   0  0  0  0  0  0  0  0  0  0  0  0
   30.8950   34.3200    8.5420 O   0  0  0  0  0  0  0  0  0  0  0  0
   31.2680   33.3760    8.5970 H   0  0  0  0  0  0  0  0  0  0  0  0
   29.5350   37.6620    5.3230 O   0  0  0  0  0  0  0  0  0  0  0  0
   30.1620   37.1690    4.7490 H   0  0  0  0  0  0  0  0  0  0  0  0
   26.6910   38.4510    5.8790 N   0  0  0  0  0  0  0  0  0  0  0  0
   26.9630   39.8590    5.7170 C   0  0  0  0  0  0  0  0  0  0  0  0
   25.8770   38.0530    5.4050 H   0  0  0  0  0  0  0  0  0  0  0  0
   26.1180   40.7520    4.9110 C   0  0  0  0  0  0  0  0  0  0  0  0
   27.9930   40.2830    6.3230 O   0  0  0  0  0  0  0  0  0  0  0  0
   24.5650   37.2560    7.4490 O   0  0  0  0  0  0  0  0  0  0  0  0
   23.6900   37.1480    7.8620 H   0  0  0  0  0  0  0  0  0  0  0  0
   26.5380   37.5200   10.3890 O   0  0  0  0  0  0  0  0  0  0  0  0
   25.8930   36.8400   10.6750 H   0  0  0  0  0  0  0  0  0  0  0  0
   22.6720   36.6480   12.0640 O   0  0  0  0  0  0  0  0  0  0  0  0
   22.8800   35.3050   11.6750 C   0  0  0  0  0  0  0  0  0  0  0  0
   24.3130   34.9970   11.9200 C   0  0  0  0  0  0  0  0  0  0  0  0
   24.9130   34.7010   13.1500 C   0  0  0  0  0  0  0  0  0  0  0  0
   25.3430   34.9310   11.0440 N   0  0  0  0  0  0  0  0  0  0  0  0
   26.2270   34.4770   12.9740 N   0  0  0  0  0  0  0  0  0  0  0  0
   26.4600   34.6230   11.6910 N   0  0  0  0  0  0  0  0  0  0  0  0
   27.1340   34.1450   14.0450 C   0  0  0  0  0  0  0  0  0  0  0  0
   26.7670   33.3060   15.0660 C   0  0  0  0  0  0  0  0  0  0  0  0
   28.4180   34.6770   14.0680 C   0  0  0  0  0  0  0  0  0  0  0  0
   27.6090   32.9680   16.1050 C   0  0  0  0  0  0  0  0  0  0  0  0
   29.2650   34.3500   15.0950 C   0  0  0  0  0  0  0  0  0  0  0  0
   28.8340   33.5150   16.0680 N   0  0  0  0  0  0  0  0  0  0  0  0
   27.1990   32.0760   17.1760 C   0  0  0  0  0  0  0  0  0  0  0  0
   26.7650   30.9440   16.8870 O   0  0  0  0  0  0  0  0  0  0  0  0
   27.2800   32.4520   18.5000 O   0  0  0  0  0  0  0  0  0  0  0  0
   27.2230   31.7800   19.2730 H   0  0  0  0  0  0  0  0  0  0  0  0
   30.6320   34.9010   15.1450 C   0  0  0  0  0  0  0  0  0  0  0  0
   31.6850   34.0450   14.9060 C   0  0  0  0  0  0  0  0  0  0  0  0
   30.8370   36.2220   15.4230 C   0  0  0  0  0  0  0  0  0  0  0  0
   32.9620   34.5550   14.9520 C   0  0  0  0  0  0  0  0  0  0  0  0
   32.1350   36.6930   15.4600 C   0  0  0  0  0  0  0  0  0  0  0  0
   33.2220   35.8800   15.2270 C   0  0  0  0  0  0  0  0  0  0  0  0
   29.8670   25.5550   16.9770 C   0  0  0  0  0  0  0  0  0  0  0  0
   28.3450   25.7220   17.0260 C   0  0  0  0  0  0  0  0  0  0  0  0
   27.5990   24.4560   16.6340 C   0  0  0  0  0  0  0  0  0  0  0  0
   26.6570   23.9970   17.7130 C   0  0  0  0  0  0  0  0  0  0  0  0
   25.2260   24.3550   17.3250 C   0  0  0  0  0  0  0  0  0  0  0  0
   24.3630   23.1510   17.3570 N   0  0  0  0  0  0  0  0  0  0  0  0
  1  2  1  0  0  0  0
  2 31  1  0  0  0  0
  2  3  2  0  0  0  0
  4  1  1  0  0  0  0
  5  1  1  0  0  0  0
  6  5  1  1  0  0  0
  6 29  1  0  0  0  0
  7 27  1  6  0  0  0
  7  6  1  0  0  0  0
  8  7  1  1  0  0  0
  8 11  1  0  0  0  0
  9 14  1  1  0  0  0
  9 11  1  0  0  0  0
  9 16  1  0  0  0  0
 10  9  1  0  0  0  0
 12 20  1  1  0  0  0
 12 10  1  0  0  0  0
 12 13  1  0  0  0  0
 13 22  1  6  0  0  0
 13  8  1  0  0  0  0
 14 15  1  0  0  0  0
 16 18  1  0  0  0  0
 16 17  2  0  0  0  0
 18 19  1  0  0  0  0
 21 20  1  0  0  0  0
 23 22  1  0  0  0  0
 23 26  2  0  0  0  0
 24 22  1  0  0  0  0
 25 23  1  0  0  0  0
 27 28  1  0  0  0  0
 29 30  1  0  0  0  0
 32 33  1  0  0  0  0
 32 31  1  0  0  0  0
 33 34  2  0  0  0  0
 35 37  2  0  0  0  0
 35 33  1  0  0  0  0
 36 34  1  0  0  0  0
 36 38  1  0  0  0  0
 37 36  1  0  0  0  0
 38 40  2  0  0  0  0
 38 39  1  0  0  0  0
 39 41  2  0  0  0  0
 40 42  1  0  0  0  0
 41 44  1  0  0  0  0
 42 48  1  0  0  0  0
 42 43  2  0  0  0  0
 43 41  1  0  0  0  0
 44 46  1  0  0  0  0
 45 44  2  0  0  0  0
 46 47  1  0  0  0  0
 48 50  2  0  0  0  0
 49 51  2  0  0  0  0
 49 48  1  0  0  0  0
 50 52  1  0  0  0  0
 51 53  1  0  0  0  0
 53 52  2  0  0  0  0
 54 55  1  0  0  0  0
 56 55  1  0  0  0  0
 56 57  1  0  0  0  0
 58 59  1  0  0  0  0
 58 57  1  0  0  0  0
M  END
>  <REMARK>
 VINA RESULT:    -6.105      2.699      7.765
 INTER + INTRA:         -16.674
 INTER:                 -11.690
 INTRA:                  -4.984
 UNBOUND:                -5.216
 SMILES CC(=O)N[C@@H]1[C@@H](O)C[C@](O)(C(=O)O)O[C@H]1C(O)[C@H](O)CNC(=O)OCc1cn(-c2cc(C(=O)O)nc(-c3ccccc3)c2)nn1
 SMILES IDX 21 1 22 2 23 3 20 5 18 6 16 7 15 8 9 9 8 10 14 11 6 12 5 13
 SMILES IDX 10 14 11 16 12 17 13 18 7 20 4 22 2 23 1 25 3 26 17 27 19 29
 SMILES IDX 24 31 25 32 26 33 27 34 45 35 28 36 44 37 29 38 30 39 43 40
 SMILES IDX 31 41 36 42 35 43 32 44 33 45 34 46 37 48 38 49 42 50 39 51
 SMILES IDX 41 52 40 53
 H PARENT 21 4 10 15 13 19 7 21 4 24 17 28 19 30 34 47
 Flexibility Score: inf
  4 active torsions:
  status: ('A' for Active; 'I' for Inactive)
    1  A    between atoms: CA   and  CB  
    2  A    between atoms: CB   and  CG  
    3  A    between atoms: CG   and  CD  
    4  A    between atoms: CD   and  CE  

>  <TORSDO>
F 18

>  <BEGIN_>
RES LYS A 131

$$$$
ligand_64_pose_3_2HRL.pdbqt
 OpenBabel07062320523D

  6  5  0  0  0  0  0  0  0  0999 V2000
   33.1930   34.6630    9.2900 C   0  0  0  0  0  0  0  0  0  0  0  0
   32.0600   35.3600   10.0340 C   0  0  0  0  0  0  0  0  0  0  0  0
   32.4170   35.7510   11.4450 C   0  0  0  0  0  0  0  0  0  0  0  0
   31.7360   37.0560   11.8280 C   0  0  0  0  0  0  0  0  0  0  0  0
   30.2560   37.0010   11.5020 C   0  0  0  0  0  0  0  0  0  0  0  0
   29.7440   38.3400   11.0990 N   0  0  0  0  0  0  0  0  0  0  0  0
  1  2  1  0  0  0  0
  2  3  1  0  0  0  0
  3  4  1  0  0  0  0
  5  4  1  0  0  0  0
  6  5  1  0  0  0  0
M  END
>  <EGIN_R>
ES LYS A 135

>  <REMARK>
  4 active torsions:
  status: ('A' for Active; 'I' for Inactive)
    5  A    between atoms: CA   and  CB  
    6  A    between atoms: CB   and  CG  
    7  A    between atoms: CG   and  CD  
    8  A    between atoms: CD   and  CE  

$$$$
