ligand_27_pose_8_2HRL.pdbqt
 OpenBabel07062320523D

 50 50  0  0  1  0  0  0  0  0999 V2000
   26.6500   29.5320   19.9690 C   0  0  0  0  0  0  0  0  0  0  0  0
   27.9110   30.0090   20.6290 C   0  0  2  0  0  0  0  0  0  0  0  0
   29.0880   29.1140   20.3700 C   0  0  2  0  0  0  0  0  0  0  0  0
   29.7640   28.7090   21.6820 C   0  0  2  0  0  0  0  0  0  0  0  0
   32.0880   29.0630   21.6410 C   0  0  1  0  0  0  0  0  0  0  0  0
   32.2830   27.6670   22.2180 C   0  0  0  0  0  0  0  0  0  0  0  0
   30.8280   29.4960   21.8710 O   0  0  0  0  0  0  0  0  0  0  0  0
   31.3670   26.7900   21.3670 C   0  0  1  0  0  0  0  0  0  0  0  0
   29.9610   27.2340   21.6600 C   0  0  1  0  0  0  0  0  0  0  0  0
   32.4320   28.9710   20.2990 O   0  0  0  0  0  0  0  0  0  0  0  0
   33.0470   28.2050   20.1840 H   0  0  0  0  0  0  0  0  0  0  0  0
   33.0290   29.9990   22.3000 C   0  0  0  0  0  0  0  0  0  0  0  0
   34.0900   30.3090   21.7110 O   0  0  0  0  0  0  0  0  0  0  0  0
   32.7870   30.5510   23.5490 O   0  0  0  0  0  0  0  0  0  0  0  0
   32.5300   31.5430   23.5980 H   0  0  0  0  0  0  0  0  0  0  0  0
   31.6010   26.9740   20.0080 O   0  0  0  0  0  0  0  0  0  0  0  0
   31.9090   27.9020   19.8000 H   0  0  0  0  0  0  0  0  0  0  0  0
   29.5890   26.6430   22.9280 N   0  0  0  0  0  0  0  0  0  0  0  0
   28.2220   26.5820   23.3010 C   0  0  0  0  0  0  0  0  0  0  0  0
   30.3200   26.2530   23.5910 H   0  0  0  0  0  0  0  0  0  0  0  0
   27.8480   25.9740   24.6040 C   0  0  0  0  0  0  0  0  0  0  0  0
   27.3410   27.0400   22.5280 O   0  0  0  0  0  0  0  0  0  0  0  0
   29.9920   29.8660   19.5900 O   0  0  0  0  0  0  0  0  0  0  0  0
   30.1220   29.4640   18.7200 H   0  0  0  0  0  0  0  0  0  0  0  0
   27.6950   30.0800   22.0170 O   0  0  0  0  0  0  0  0  0  0  0  0
   26.7520   29.9210   22.1950 H   0  0  0  0  0  0  0  0  0  0  0  0
   26.8800   29.3380   18.5420 N   0  0  0  0  0  0  0  0  0  0  0  0
   25.9330   29.7860   17.5880 C   0  0  0  0  0  0  0  0  0  0  0  0
   27.7570   28.8630   18.2500 H   0  0  0  0  0  0  0  0  0  0  0  0
   24.8860   30.3560   17.9860 O   0  0  0  0  0  0  0  0  0  0  0  0
   26.1120   29.6220   16.2240 O   0  0  0  0  0  0  0  0  0  0  0  0
   26.5930   30.7170   15.4760 C   0  0  0  0  0  0  0  0  0  0  0  0
   27.9950   31.0060   15.8750 C   0  0  0  0  0  0  0  0  0  0  0  0
   28.6370   32.2310   15.8150 C   0  0  0  0  0  0  0  0  0  0  0  0
   28.9170   30.1580   16.3680 N   0  0  0  0  0  0  0  0  0  0  0  0
   29.9070   32.0970   16.2640 N   0  0  0  0  0  0  0  0  0  0  0  0
   30.0400   30.8230   16.5910 N   0  0  0  0  0  0  0  0  0  0  0  0
   30.8900   33.1210   16.3610 C   0  0  0  0  0  0  0  0  0  0  0  0
   31.0030   33.8340   17.5350 C   0  0  0  0  0  0  0  0  0  0  0  0
   31.7490   33.4450   15.3320 C   0  0  0  0  0  0  0  0  0  0  0  0
   31.9450   34.8410   17.6760 C   0  0  0  0  0  0  0  0  0  0  0  0
   32.6970   34.4400   15.4390 C   0  0  0  0  0  0  0  0  0  0  0  0
   32.7850   35.1360   16.6270 C   0  0  0  0  0  0  0  0  0  0  0  0
   33.7810   34.8240   14.0930 Cl  0  0  0  0  0  0  0  0  0  0  0  0
   29.8670   25.5550   16.9770 C   0  0  0  0  0  0  0  0  0  0  0  0
   28.3450   25.7220   17.0260 C   0  0  0  0  0  0  0  0  0  0  0  0
   27.6020   24.3990   16.9220 C   0  0  0  0  0  0  0  0  0  0  0  0
   26.3960   24.3550   17.8190 C   0  0  0  0  0  0  0  0  0  0  0  0
   26.0000   25.7750   18.2100 C   0  0  0  0  0  0  0  0  0  0  0  0
   25.7600   25.8630   19.6700 N   0  0  0  0  0  0  0  0  0  0  0  0
  2  1  1  6  0  0  0
  2 25  1  0  0  0  0
  3 23  1  6  0  0  0
  3  2  1  0  0  0  0
  4  3  1  6  0  0  0
  4  7  1  0  0  0  0
  5  7  1  0  0  0  0
  5  6  1  0  0  0  0
  5 12  1  1  0  0  0
  8 16  1  6  0  0  0
  8  9  1  0  0  0  0
  8  6  1  0  0  0  0
  9  4  1  0  0  0  0
  9 18  1  1  0  0  0
 11 10  1  0  0  0  0
 12 14  1  0  0  0  0
 13 12  2  0  0  0  0
 14 15  1  0  0  0  0
 17 16  1  0  0  0  0
 18 19  1  0  0  0  0
 18 20  1  0  0  0  0
 19 21  1  0  0  0  0
 22 19  2  0  0  0  0
 24 23  1  0  0  0  0
 25 26  1  0  0  0  0
 27  1  1  0  0  0  0
 28 30  2  0  0  0  0
 28 27  1  0  0  0  0
 29 27  1  0  0  0  0
 31 28  1  0  0  0  0
 32 33  1  0  0  0  0
 32 31  1  0  0  0  0
 33 35  1  0  0  0  0
 34 33  2  0  0  0  0
 34 36  1  0  0  0  0
 35 37  2  0  0  0  0
 36 38  1  0  0  0  0
 36 37  1  0  0  0  0
 38 39  2  0  0  0  0
 39 41  1  0  0  0  0
 40 42  2  0  0  0  0
 40 38  1  0  0  0  0
 42 43  1  0  0  0  0
 43 41  2  0  0  0  0
 44 42  1  0  0  0  0
 45 46  1  0  0  0  0
 47 46  1  0  0  0  0
 47 48  1  0  0  0  0
 48 49  1  0  0  0  0
 49 50  1  0  0  0  0
M  END
>  <REMARK>
 VINA RESULT:    -5.598      1.714      2.145
 INTER + INTRA:         -14.185
 INTER:                  -8.905
 INTRA:                  -5.280
 UNBOUND:                -4.497
 SMILES CC(=O)N[C@@H]1[C@@H](O)C[C@](O)(C(=O)O)O[C@H]1C(O)[C@H](O)CNC(=O)OCc1cn(-c2cccc(Cl)c2)nn1
 SMILES IDX 20 1 18 2 16 3 15 4 9 5 8 6 14 7 6 8 5 9 10 10 11 12 12 13
 SMILES IDX 13 14 7 16 4 18 2 19 1 21 3 22 17 23 19 25 21 27 22 28 23 30
 SMILES IDX 24 31 25 32 26 33 27 34 37 35 28 36 36 37 29 38 30 39 35 40
 SMILES IDX 31 41 33 42 32 43 34 44
 H PARENT 10 11 13 15 7 17 4 20 17 24 19 26 21 29
 Flexibility Score: inf
  4 active torsions:
  status: ('A' for Active; 'I' for Inactive)
    1  A    between atoms: CA   and  CB  
    2  A    between atoms: CB   and  CG  
    3  A    between atoms: CG   and  CD  
    4  A    between atoms: CD   and  CE  

>  <TORSDO>
F 15

>  <BEGIN_>
RES LYS A 131

$$$$
ligand_27_pose_8_2HRL.pdbqt
 OpenBabel07062320523D

  6  5  0  0  0  0  0  0  0  0999 V2000
   33.1930   34.6630    9.2900 C   0  0  0  0  0  0  0  0  0  0  0  0
   32.0600   35.3600   10.0340 C   0  0  0  0  0  0  0  0  0  0  0  0
   30.8040   35.5110    9.2150 C   0  0  0  0  0  0  0  0  0  0  0  0
   30.1640   34.1550    8.9600 C   0  0  0  0  0  0  0  0  0  0  0  0
   28.6880   34.3140    8.6490 C   0  0  0  0  0  0  0  0  0  0  0  0
   27.8470   33.6710    9.6960 N   0  0  0  0  0  0  0  0  0  0  0  0
  1  2  1  0  0  0  0
  3  2  1  0  0  0  0
  4  3  1  0  0  0  0
  5  4  1  0  0  0  0
  5  6  1  0  0  0  0
M  END
>  <EGIN_R>
ES LYS A 135

>  <REMARK>
  4 active torsions:
  status: ('A' for Active; 'I' for Inactive)
    5  A    between atoms: CA   and  CB  
    6  A    between atoms: CB   and  CG  
    7  A    between atoms: CG   and  CD  
    8  A    between atoms: CD   and  CE  

$$$$
