ligand_6_pose_13_2HRL.pdbqt
 OpenBabel07062320523D

 52 53  0  0  1  0  0  0  0  0999 V2000
   31.0110   34.1350   17.1170 N   0  0  0  0  0  0  0  0  0  0  0  0
   31.9470   34.0010   16.0750 C   0  0  0  0  0  0  0  0  0  0  0  0
   32.0900   32.9550   15.4160 O   0  0  0  0  0  0  0  0  0  0  0  0
   30.9670   35.1020   17.5910 H   0  0  0  0  0  0  0  0  0  0  0  0
   30.1530   33.1120   17.5710 C   0  0  0  0  0  0  0  0  0  0  0  0
   29.0130   32.6680   16.7440 C   0  0  2  0  0  0  0  0  0  0  0  0
   29.0740   31.5040   15.8680 C   0  0  2  0  0  0  0  0  0  0  0  0
   27.7770   30.6870   15.8870 C   0  0  2  0  0  0  0  0  0  0  0  0
   25.4900   31.0510   15.6700 C   0  0  2  0  0  0  0  0  0  0  0  0
   25.4350   29.5610   15.9190 C   0  0  0  0  0  0  0  0  0  0  0  0
   26.7530   31.5210   15.3910 O   0  0  0  0  0  0  0  0  0  0  0  0
   26.3280   29.1250   17.0380 C   0  0  1  0  0  0  0  0  0  0  0  0
   27.3610   30.2490   17.2440 C   0  0  1  0  0  0  0  0  0  0  0  0
   24.9040   31.6730   16.7600 O   0  0  0  0  0  0  0  0  0  0  0  0
   24.5530   32.5430   16.4810 H   0  0  0  0  0  0  0  0  0  0  0  0
   24.6470   31.3120   14.4740 C   0  0  0  0  0  0  0  0  0  0  0  0
   24.1370   32.4460   14.2810 O   0  0  0  0  0  0  0  0  0  0  0  0
   24.4020   30.3180   13.5420 O   0  0  0  0  0  0  0  0  0  0  0  0
   24.2880   30.5220   12.5460 H   0  0  0  0  0  0  0  0  0  0  0  0
   25.6720   28.8290   18.2110 O   0  0  0  0  0  0  0  0  0  0  0  0
   25.7030   29.6300   18.7930 H   0  0  0  0  0  0  0  0  0  0  0  0
   28.4080   29.6560   18.0490 N   0  0  0  0  0  0  0  0  0  0  0  0
   28.5190   29.9680   19.4450 C   0  0  0  0  0  0  0  0  0  0  0  0
   29.1100   28.9950   17.6660 H   0  0  0  0  0  0  0  0  0  0  0  0
   29.5620   29.4000   20.3260 C   0  0  0  0  0  0  0  0  0  0  0  0
   27.6830   30.7620   19.9230 O   0  0  0  0  0  0  0  0  0  0  0  0
   30.1620   30.7150   16.1360 O   0  0  0  0  0  0  0  0  0  0  0  0
   30.5250   30.1990   15.3820 H   0  0  0  0  0  0  0  0  0  0  0  0
   28.5610   33.8420   16.0750 O   0  0  0  0  0  0  0  0  0  0  0  0
   28.1650   33.5960   15.1990 H   0  0  0  0  0  0  0  0  0  0  0  0
   32.7530   35.1230   15.7810 O   0  0  0  0  0  0  0  0  0  0  0  0
   32.6130   35.6680   14.4840 C   0  0  0  0  0  0  0  0  0  0  0  0
   31.1610   35.9200   14.1870 C   0  0  0  0  0  0  0  0  0  0  0  0
   30.5180   35.7850   12.9760 C   0  0  0  0  0  0  0  0  0  0  0  0
   30.1950   36.3300   15.0440 N   0  0  0  0  0  0  0  0  0  0  0  0
   29.2080   36.1050   13.1110 N   0  0  0  0  0  0  0  0  0  0  0  0
   29.0690   36.4270   14.3800 N   0  0  0  0  0  0  0  0  0  0  0  0
   28.2130   36.0930   12.0910 C   0  0  0  0  0  0  0  0  0  0  0  0
   28.0550   37.1390   11.2070 C   0  0  0  0  0  0  0  0  0  0  0  0
   27.3560   35.0170   11.9430 C   0  0  0  0  0  0  0  0  0  0  0  0
   27.0850   37.1050   10.2250 C   0  0  0  0  0  0  0  0  0  0  0  0
   26.3850   34.9830   10.9610 C   0  0  0  0  0  0  0  0  0  0  0  0
   26.2250   36.0270   10.0760 C   0  0  0  0  0  0  0  0  0  0  0  0
   25.2290   35.9840    9.0730 N   0  0  0  0  0  0  0  0  0  0  0  0
   25.4710   36.5070    7.9710 O   0  0  0  0  0  0  0  0  0  0  0  0
   24.0070   35.3970    9.2410 O   0  0  0  0  0  0  0  0  0  0  0  0
   29.8670   25.5550   16.9770 C   0  0  0  0  0  0  0  0  0  0  0  0
   28.3450   25.7220   17.0260 C   0  0  0  0  0  0  0  0  0  0  0  0
   27.5990   24.4200   16.7750 C   0  0  0  0  0  0  0  0  0  0  0  0
   26.1710   24.4870   17.2410 C   0  0  0  0  0  0  0  0  0  0  0  0
   26.1270   24.3820   18.7620 C   0  0  0  0  0  0  0  0  0  0  0  0
   25.4630   25.5730   19.3450 N   0  0  0  0  0  0  0  0  0  0  0  0
  1  5  1  0  0  0  0
  1  4  1  0  0  0  0
  2  1  1  0  0  0  0
  3  2  2  0  0  0  0
  6  5  1  6  0  0  0
  7 27  1  1  0  0  0
  7  6  1  0  0  0  0
  8  7  1  1  0  0  0
  8 13  1  0  0  0  0
  9 16  1  6  0  0  0
  9 10  1  0  0  0  0
  9 14  1  0  0  0  0
 10 12  1  0  0  0  0
 11  9  1  0  0  0  0
 11  8  1  0  0  0  0
 12 13  1  0  0  0  0
 12 20  1  1  0  0  0
 13 22  1  1  0  0  0
 15 14  1  0  0  0  0
 17 16  2  0  0  0  0
 18 16  1  0  0  0  0
 19 18  1  0  0  0  0
 20 21  1  0  0  0  0
 22 23  1  0  0  0  0
 23 26  2  0  0  0  0
 23 25  1  0  0  0  0
 24 22  1  0  0  0  0
 28 27  1  0  0  0  0
 29  6  1  0  0  0  0
 30 29  1  0  0  0  0
 31  2  1  0  0  0  0
 32 31  1  0  0  0  0
 33 32  1  0  0  0  0
 33 35  1  0  0  0  0
 34 36  1  0  0  0  0
 34 33  2  0  0  0  0
 36 37  1  0  0  0  0
 37 35  2  0  0  0  0
 38 36  1  0  0  0  0
 39 38  2  0  0  0  0
 40 38  1  0  0  0  0
 41 39  1  0  0  0  0
 42 40  2  0  0  0  0
 43 41  2  0  0  0  0
 43 42  1  0  0  0  0
 44 46  2  0  0  0  0
 44 43  1  0  0  0  0
 45 44  2  0  0  0  0
 47 48  1  0  0  0  0
 49 48  1  0  0  0  0
 49 50  1  0  0  0  0
 50 51  1  0  0  0  0
 51 52  1  0  0  0  0
M  END
>  <REMARK>
 VINA RESULT:    -5.234      4.051      8.452
 INTER + INTRA:         -14.114
 INTER:                  -8.410
 INTRA:                  -5.704
 UNBOUND:                -4.749
 SMILES CC(=O)N[C@@H]1[C@@H](O)C[C@](O)(C(=O)O)O[C@H]1C(O)[C@H](O)CNC(=O)OCc1cn(-c2ccc([N+](=O)[O-])cc2)nn1
 SMILES IDX 21 1 22 2 23 3 20 5 18 6 16 7 15 8 9 9 8 10 14 11 6 12 5 13
 SMILES IDX 10 14 11 16 12 17 13 18 7 20 4 22 2 23 1 25 3 26 17 27 19 29
 SMILES IDX 24 31 25 32 26 33 27 34 39 35 28 36 38 37 29 38 30 39 37 40
 SMILES IDX 31 41 36 42 32 43 33 44 34 45 35 46
 H PARENT 21 4 10 15 13 19 7 21 4 24 17 28 19 30
 Flexibility Score: inf
  4 active torsions:
  status: ('A' for Active; 'I' for Inactive)
    1  A    between atoms: CA   and  CB  
    2  A    between atoms: CB   and  CG  
    3  A    between atoms: CG   and  CD  
    4  A    between atoms: CD   and  CE  

>  <TORSDO>
F 16

>  <BEGIN_>
RES LYS A 131

$$$$
ligand_6_pose_13_2HRL.pdbqt
 OpenBabel07062320523D

  6  5  0  0  0  0  0  0  0  0999 V2000
   33.1930   34.6630    9.2900 C   0  0  0  0  0  0  0  0  0  0  0  0
   32.0600   35.3600   10.0340 C   0  0  0  0  0  0  0  0  0  0  0  0
   30.8220   35.5580    9.1980 C   0  0  0  0  0  0  0  0  0  0  0  0
   30.1190   34.2310    8.9570 C   0  0  0  0  0  0  0  0  0  0  0  0
   28.7930   34.4510    8.2550 C   0  0  0  0  0  0  0  0  0  0  0  0
   28.9440   35.3770    7.0990 N   0  0  0  0  0  0  0  0  0  0  0  0
  1  2  1  0  0  0  0
  3  2  1  0  0  0  0
  4  3  1  0  0  0  0
  5  4  1  0  0  0  0
  6  5  1  0  0  0  0
M  END
>  <EGIN_R>
ES LYS A 135

>  <REMARK>
  4 active torsions:
  status: ('A' for Active; 'I' for Inactive)
    5  A    between atoms: CA   and  CB  
    6  A    between atoms: CB   and  CG  
    7  A    between atoms: CG   and  CD  
    8  A    between atoms: CD   and  CE  

$$$$
