ligand_85_pose_17_2HRL.pdbqt
 OpenBabel07062320523D

 55 56  0  0  1  0  0  0  0  0999 V2000
   28.1250   30.0030   18.0150 N   0  0  0  0  0  0  0  0  0  0  0  0
   28.1450   29.7730   16.6310 C   0  0  0  0  0  0  0  0  0  0  0  0
   27.6020   28.7570   16.1540 O   0  0  0  0  0  0  0  0  0  0  0  0
   28.5790   30.8600   18.4040 H   0  0  0  0  0  0  0  0  0  0  0  0
   27.4960   29.0980   18.9410 C   0  0  0  0  0  0  0  0  0  0  0  0
   28.3830   28.8990   20.1430 C   0  0  2  0  0  0  0  0  0  0  0  0
   29.2610   30.0920   20.4210 C   0  0  2  0  0  0  0  0  0  0  0  0
   30.4400   29.7060   21.2300 C   0  0  2  0  0  0  0  0  0  0  0  0
   31.2790   28.5050   22.9950 C   0  0  2  0  0  0  0  0  0  0  0  0
   32.5720   28.8520   22.3020 C   0  0  0  0  0  0  0  0  0  0  0  0
   30.1650   29.0800   22.4340 O   0  0  0  0  0  0  0  0  0  0  0  0
   32.6840   30.2990   21.9490 C   0  0  1  0  0  0  0  0  0  0  0  0
   31.3370   30.9000   21.5600 C   0  0  1  0  0  0  0  0  0  0  0  0
   31.3590   28.9950   24.3110 O   0  0  0  0  0  0  0  0  0  0  0  0
   30.4860   28.7440   24.7400 H   0  0  0  0  0  0  0  0  0  0  0  0
   31.0700   27.0540   23.0490 C   0  0  0  0  0  0  0  0  0  0  0  0
   31.4020   26.4170   24.0780 O   0  0  0  0  0  0  0  0  0  0  0  0
   30.5180   26.3100   22.0180 O   0  0  0  0  0  0  0  0  0  0  0  0
   29.7470   25.6730   22.2720 H   0  0  0  0  0  0  0  0  0  0  0  0
   33.2270   30.9830   23.0550 O   0  0  0  0  0  0  0  0  0  0  0  0
   34.1650   31.1960   22.8010 H   0  0  0  0  0  0  0  0  0  0  0  0
   31.4410   31.8130   20.4740 N   0  0  0  0  0  0  0  0  0  0  0  0
   31.7910   33.1670   20.7080 C   0  0  0  0  0  0  0  0  0  0  0  0
   31.2670   31.5150   19.4950 H   0  0  0  0  0  0  0  0  0  0  0  0
   31.8900   34.0930   19.5290 C   0  0  0  0  0  0  0  0  0  0  0  0
   32.0240   33.6410   21.8340 O   0  0  0  0  0  0  0  0  0  0  0  0
   28.5040   31.1230   20.9180 O   0  0  0  0  0  0  0  0  0  0  0  0
   28.0180   30.7710   21.7300 H   0  0  0  0  0  0  0  0  0  0  0  0
   29.2750   27.8100   19.8940 O   0  0  0  0  0  0  0  0  0  0  0  0
   30.2010   28.0670   20.0790 H   0  0  0  0  0  0  0  0  0  0  0  0
   28.7510   30.6330   15.7210 O   0  0  0  0  0  0  0  0  0  0  0  0
   30.0040   31.2080   16.0360 C   0  0  0  0  0  0  0  0  0  0  0  0
   30.0150   32.6490   15.7450 C   0  0  0  0  0  0  0  0  0  0  0  0
   30.2670   33.3090   14.5600 C   0  0  0  0  0  0  0  0  0  0  0  0
   29.7660   33.6180   16.6420 N   0  0  0  0  0  0  0  0  0  0  0  0
   30.1650   34.6490   14.7640 N   0  0  0  0  0  0  0  0  0  0  0  0
   29.8620   34.7880   16.0320 N   0  0  0  0  0  0  0  0  0  0  0  0
   30.3450   35.6940   13.8180 C   0  0  0  0  0  0  0  0  0  0  0  0
   29.2800   36.1520   13.0560 C   0  0  0  0  0  0  0  0  0  0  0  0
   31.5930   36.2510   13.6610 C   0  0  0  0  0  0  0  0  0  0  0  0
   29.4330   37.1590   12.1370 C   0  0  0  0  0  0  0  0  0  0  0  0
   31.7830   37.2700   12.7430 C   0  0  0  0  0  0  0  0  0  0  0  0
   28.0880   37.7480   11.1630 Cl  0  0  0  0  0  0  0  0  0  0  0  0
   30.6910   37.7070   11.9930 C   0  0  0  0  0  0  0  0  0  0  0  0
   32.6920   35.7650   14.4620 C   0  0  0  0  0  0  0  0  0  0  0  0
   33.3960   34.7680   14.1340 O   0  0  0  0  0  0  0  0  0  0  0  0
   33.0190   36.4130   15.6750 N   0  0  0  0  0  0  0  0  0  0  0  0
   32.2420   37.5560   16.0890 C   0  0  0  0  0  0  0  0  0  0  0  0
   34.1150   35.9660   16.5210 C   0  0  0  0  0  0  0  0  0  0  0  0
   29.8670   25.5550   16.9770 C   0  0  0  0  0  0  0  0  0  0  0  0
   28.3450   25.7220   17.0260 C   0  0  0  0  0  0  0  0  0  0  0  0
   27.6020   24.3970   16.9510 C   0  0  0  0  0  0  0  0  0  0  0  0
   26.6380   24.2230   18.0910 C   0  0  0  0  0  0  0  0  0  0  0  0
   25.9380   25.5480   18.3720 C   0  0  0  0  0  0  0  0  0  0  0  0
   25.9670   25.8530   19.8230 N   0  0  0  0  0  0  0  0  0  0  0  0
  1  4  1  0  0  0  0
  1  5  1  0  0  0  0
  2  1  1  0  0  0  0
  3  2  2  0  0  0  0
  6  5  1  6  0  0  0
  6  7  1  0  0  0  0
  7 27  1  1  0  0  0
  8  7  1  1  0  0  0
  8 13  1  0  0  0  0
  8 11  1  0  0  0  0
  9 16  1  1  0  0  0
  9 14  1  0  0  0  0
 10  9  1  0  0  0  0
 11  9  1  0  0  0  0
 12 10  1  0  0  0  0
 12 20  1  1  0  0  0
 13 22  1  6  0  0  0
 13 12  1  0  0  0  0
 14 15  1  0  0  0  0
 16 17  2  0  0  0  0
 18 19  1  0  0  0  0
 18 16  1  0  0  0  0
 21 20  1  0  0  0  0
 22 23  1  0  0  0  0
 23 26  2  0  0  0  0
 24 22  1  0  0  0  0
 25 23  1  0  0  0  0
 27 28  1  0  0  0  0
 29 30  1  0  0  0  0
 29  6  1  0  0  0  0
 31 32  1  0  0  0  0
 31  2  1  0  0  0  0
 33 32  1  0  0  0  0
 33 35  1  0  0  0  0
 34 36  1  0  0  0  0
 34 33  2  0  0  0  0
 36 37  1  0  0  0  0
 37 35  2  0  0  0  0
 38 36  1  0  0  0  0
 39 38  2  0  0  0  0
 40 38  1  0  0  0  0
 40 45  1  0  0  0  0
 41 39  1  0  0  0  0
 42 40  2  0  0  0  0
 43 41  1  0  0  0  0
 44 41  2  0  0  0  0
 44 42  1  0  0  0  0
 45 47  1  0  0  0  0
 46 45  2  0  0  0  0
 47 48  1  0  0  0  0
 47 49  1  0  0  0  0
 50 51  1  0  0  0  0
 52 51  1  0  0  0  0
 52 53  1  0  0  0  0
 53 54  1  0  0  0  0
 54 55  1  0  0  0  0
M  END
>  <REMARK>
 VINA RESULT:    -4.558      6.478     11.610
 INTER + INTRA:         -14.342
 INTER:                  -8.656
 INTRA:                  -5.686
 UNBOUND:                -6.187
 SMILES CC(=O)N[C@@H]1[C@@H](O)C[C@](O)(C(=O)O)O[C@H]1C(O)[C@H](O)CNC(=O)OCc1cn(-c2cc(Cl)ccc2C(=O)N(C)C)nn1
 SMILES IDX 21 1 22 2 23 3 20 5 18 6 16 7 15 8 9 9 8 10 14 11 6 12 5 13
 SMILES IDX 10 14 11 16 12 17 13 18 7 20 4 22 2 23 1 25 3 26 17 27 19 29
 SMILES IDX 24 31 25 32 26 33 27 34 42 35 28 36 41 37 29 38 30 39 35 40
 SMILES IDX 31 41 34 42 32 43 33 44 36 45 37 46 38 47 39 48 40 49
 H PARENT 21 4 10 15 13 19 7 21 4 24 17 28 19 30
 Flexibility Score: inf
  4 active torsions:
  status: ('A' for Active; 'I' for Inactive)
    1  A    between atoms: CA   and  CB  
    2  A    between atoms: CB   and  CG  
    3  A    between atoms: CG   and  CD  
    4  A    between atoms: CD   and  CE  

>  <TORSDO>
F 16

>  <BEGIN_>
RES LYS A 131

$$$$
ligand_85_pose_17_2HRL.pdbqt
 OpenBabel07062320523D

  6  5  0  0  0  0  0  0  0  0999 V2000
   33.1930   34.6630    9.2900 C   0  0  0  0  0  0  0  0  0  0  0  0
   32.0600   35.3600   10.0340 C   0  0  0  0  0  0  0  0  0  0  0  0
   30.7100   34.7330    9.7990 C   0  0  0  0  0  0  0  0  0  0  0  0
   30.4650   34.5280    8.3130 C   0  0  0  0  0  0  0  0  0  0  0  0
   29.0220   34.8380    7.9630 C   0  0  0  0  0  0  0  0  0  0  0  0
   28.9270   35.5570    6.6630 N   0  0  0  0  0  0  0  0  0  0  0  0
  1  2  1  0  0  0  0
  3  2  1  0  0  0  0
  4  3  1  0  0  0  0
  5  4  1  0  0  0  0
  6  5  1  0  0  0  0
M  END
>  <EGIN_R>
ES LYS A 135

>  <REMARK>
  4 active torsions:
  status: ('A' for Active; 'I' for Inactive)
    5  A    between atoms: CA   and  CB  
    6  A    between atoms: CB   and  CG  
    7  A    between atoms: CG   and  CD  
    8  A    between atoms: CD   and  CE  

$$$$
