ligand_53_pose_10_2HRL.pdbqt
 OpenBabel07062320523D

 48 48  0  0  1  0  0  0  0  0999 V2000
   27.6690   28.6630   17.0810 N   0  0  0  0  0  0  0  0  0  0  0  0
   27.7810   29.7670   16.2150 C   0  0  0  0  0  0  0  0  0  0  0  0
   26.7970   30.3640   15.7810 O   0  0  0  0  0  0  0  0  0  0  0  0
   28.5970   28.2410   17.3910 H   0  0  0  0  0  0  0  0  0  0  0  0
   26.4510   28.0690   17.5670 C   0  0  0  0  0  0  0  0  0  0  0  0
   26.2290   28.1570   19.0440 C   0  0  2  0  0  0  0  0  0  0  0  0
   27.3860   27.7110   19.8550 C   0  0  1  0  0  0  0  0  0  0  0  0
   27.0690   27.3220   21.2740 C   0  0  2  0  0  0  0  0  0  0  0  0
   25.6470   27.9270   23.0490 C   0  0  2  0  0  0  0  0  0  0  0  0
   26.6890   27.6070   24.0690 C   0  0  0  0  0  0  0  0  0  0  0  0
   26.0480   28.1420   21.7760 O   0  0  0  0  0  0  0  0  0  0  0  0
   27.7380   26.7050   23.4990 C   0  0  1  0  0  0  0  0  0  0  0  0
   28.2330   27.4120   22.2240 C   0  0  1  0  0  0  0  0  0  0  0  0
   24.9400   29.0600   23.5490 O   0  0  0  0  0  0  0  0  0  0  0  0
   24.3290   29.3290   22.8100 H   0  0  0  0  0  0  0  0  0  0  0  0
   24.6290   26.8340   23.0690 C   0  0  0  0  0  0  0  0  0  0  0  0
   23.9490   26.4810   22.0840 O   0  0  0  0  0  0  0  0  0  0  0  0
   24.4160   26.1600   24.2530 O   0  0  0  0  0  0  0  0  0  0  0  0
   24.5230   25.1520   24.3430 H   0  0  0  0  0  0  0  0  0  0  0  0
   28.7990   26.4940   24.3750 O   0  0  0  0  0  0  0  0  0  0  0  0
   29.3080   25.7150   24.0300 H   0  0  0  0  0  0  0  0  0  0  0  0
   29.4570   26.8080   21.8090 N   0  0  0  0  0  0  0  0  0  0  0  0
   30.6210   27.5730   21.4940 C   0  0  0  0  0  0  0  0  0  0  0  0
   29.5300   25.7770   21.7380 H   0  0  0  0  0  0  0  0  0  0  0  0
   31.9070   26.9820   21.0600 C   0  0  0  0  0  0  0  0  0  0  0  0
   30.5450   28.8190   21.5940 O   0  0  0  0  0  0  0  0  0  0  0  0
   28.1550   26.7750   19.1830 O   0  0  0  0  0  0  0  0  0  0  0  0
   27.8080   25.8540   19.2990 H   0  0  0  0  0  0  0  0  0  0  0  0
   25.0690   27.4310   19.3580 O   0  0  0  0  0  0  0  0  0  0  0  0
   24.2530   27.9590   19.2060 H   0  0  0  0  0  0  0  0  0  0  0  0
   29.0300   30.2350   15.8130 O   0  0  0  0  0  0  0  0  0  0  0  0
   29.8560   31.0640   16.5670 C   0  0  0  0  0  0  0  0  0  0  0  0
   30.4300   32.2090   15.8200 C   0  0  0  0  0  0  0  0  0  0  0  0
   31.5550   32.9350   16.0620 C   0  0  0  0  0  0  0  0  0  0  0  0
   29.8890   32.7580   14.6930 N   0  0  0  0  0  0  0  0  0  0  0  0
   31.6720   33.8780   15.1110 N   0  0  0  0  0  0  0  0  0  0  0  0
   30.6610   33.7600   14.2920 N   0  0  0  0  0  0  0  0  0  0  0  0
   32.7420   34.8510   15.0230 C   0  0  0  0  0  0  0  0  0  0  0  0
   32.6990   35.5240   13.7100 C   0  0  0  0  0  0  0  0  0  0  0  0
   32.2760   36.7130   13.6410 O   0  0  0  0  0  0  0  0  0  0  0  0
   33.1140   34.8690   12.5700 O   0  0  0  0  0  0  0  0  0  0  0  0
   33.1350   33.8450   12.6100 H   0  0  0  0  0  0  0  0  0  0  0  0
   29.8670   25.5550   16.9770 C   0  0  0  0  0  0  0  0  0  0  0  0
   28.3450   25.7220   17.0260 C   0  0  0  0  0  0  0  0  0  0  0  0
   27.5990   24.4770   16.5720 C   0  0  0  0  0  0  0  0  0  0  0  0
   27.2170   23.5930   17.7260 C   0  0  0  0  0  0  0  0  0  0  0  0
   26.0040   24.1820   18.4390 C   0  0  0  0  0  0  0  0  0  0  0  0
   25.4550   23.2140   19.4170 N   0  0  0  0  0  0  0  0  0  0  0  0
  1  4  1  0  0  0  0
  1  5  1  0  0  0  0
  2  1  1  0  0  0  0
  3  2  2  0  0  0  0
  6  5  1  6  0  0  0
  6 29  1  0  0  0  0
  6  7  1  0  0  0  0
  7 27  1  6  0  0  0
  8  7  1  6  0  0  0
  8 11  1  0  0  0  0
  8 13  1  0  0  0  0
  9 16  1  6  0  0  0
  9 14  1  0  0  0  0
  9 10  1  0  0  0  0
 11  9  1  0  0  0  0
 12 10  1  0  0  0  0
 12 20  1  1  0  0  0
 13 22  1  6  0  0  0
 13 12  1  0  0  0  0
 15 14  1  0  0  0  0
 16 18  1  0  0  0  0
 17 16  2  0  0  0  0
 18 19  1  0  0  0  0
 21 20  1  0  0  0  0
 23 26  2  0  0  0  0
 23 22  1  0  0  0  0
 24 22  1  0  0  0  0
 25 23  1  0  0  0  0
 27 28  1  0  0  0  0
 30 29  1  0  0  0  0
 31  2  1  0  0  0  0
 31 32  1  0  0  0  0
 33 34  2  0  0  0  0
 33 32  1  0  0  0  0
 35 33  1  0  0  0  0
 36 34  1  0  0  0  0
 37 35  2  0  0  0  0
 37 36  1  0  0  0  0
 38 36  1  0  0  0  0
 39 38  1  0  0  0  0
 40 39  2  0  0  0  0
 41 42  1  0  0  0  0
 41 39  1  0  0  0  0
 43 44  1  0  0  0  0
 45 44  1  0  0  0  0
 45 46  1  0  0  0  0
 46 47  1  0  0  0  0
 47 48  1  0  0  0  0
M  END
>  <REMARK>
 VINA RESULT:    -4.046      3.539      6.136
 INTER + INTRA:         -13.719
 INTER:                  -8.505
 INTRA:                  -5.214
 UNBOUND:                -6.362
 SMILES CC(=O)N[C@@H]1[C@@H](O)C[C@](O)(C(=O)O)O[C@H]1C(O)[C@H](O)CNC(=O)OCc1cn(CC(=O)O)nn1
 SMILES IDX 21 1 22 2 23 3 20 5 18 6 16 7 15 8 9 9 8 10 14 11 6 12 5 13
 SMILES IDX 10 14 11 16 12 17 13 18 7 20 4 22 2 23 1 25 3 26 17 27 19 29
 SMILES IDX 24 31 25 32 26 33 27 34 34 35 28 36 33 37 29 38 30 39 31 40
 SMILES IDX 32 41
 H PARENT 21 4 10 15 13 19 7 21 4 24 17 28 19 30 32 42
 Flexibility Score: inf
  4 active torsions:
  status: ('A' for Active; 'I' for Inactive)
    1  A    between atoms: CA   and  CB  
    2  A    between atoms: CB   and  CG  
    3  A    between atoms: CG   and  CD  
    4  A    between atoms: CD   and  CE  

>  <TORSDO>
F 17

>  <BEGIN_>
RES LYS A 131

$$$$
ligand_53_pose_10_2HRL.pdbqt
 OpenBabel07062320523D

  6  5  0  0  0  0  0  0  0  0999 V2000
   33.1930   34.6630    9.2900 C   0  0  0  0  0  0  0  0  0  0  0  0
   32.0600   35.3600   10.0340 C   0  0  0  0  0  0  0  0  0  0  0  0
   30.7380   34.6450    9.9250 C   0  0  0  0  0  0  0  0  0  0  0  0
   30.3250   34.4990    8.4680 C   0  0  0  0  0  0  0  0  0  0  0  0
   28.8150   34.5450    8.3350 C   0  0  0  0  0  0  0  0  0  0  0  0
   28.1560   33.8110    9.4500 N   0  0  0  0  0  0  0  0  0  0  0  0
  1  2  1  0  0  0  0
  3  2  1  0  0  0  0
  4  3  1  0  0  0  0
  5  4  1  0  0  0  0
  5  6  1  0  0  0  0
M  END
>  <EGIN_R>
ES LYS A 135

>  <REMARK>
  4 active torsions:
  status: ('A' for Active; 'I' for Inactive)
    5  A    between atoms: CA   and  CB  
    6  A    between atoms: CB   and  CG  
    7  A    between atoms: CG   and  CD  
    8  A    between atoms: CD   and  CE  

$$$$
