ligand_85_pose_13_2HRL.pdbqt
 OpenBabel07062320523D

 55 56  0  0  1  0  0  0  0  0999 V2000
   25.7590   33.8770   13.2200 N   0  0  0  0  0  0  0  0  0  0  0  0
   25.1660   32.7550   13.8180 C   0  0  0  0  0  0  0  0  0  0  0  0
   24.3640   32.0490   13.1750 O   0  0  0  0  0  0  0  0  0  0  0  0
   26.4330   34.4590   13.7680 H   0  0  0  0  0  0  0  0  0  0  0  0
   25.4790   34.2710   11.8650 C   0  0  0  0  0  0  0  0  0  0  0  0
   26.7440   34.7510   11.2000 C   0  0  2  0  0  0  0  0  0  0  0  0
   26.5300   35.9930   10.3730 C   0  0  2  0  0  0  0  0  0  0  0  0
   27.3230   35.9410    9.1230 C   0  0  2  0  0  0  0  0  0  0  0  0
   29.3850   35.7690    8.1340 C   0  0  2  0  0  0  0  0  0  0  0  0
   28.5170   35.5080    6.9300 C   0  0  0  0  0  0  0  0  0  0  0  0
   28.6900   36.1020    9.2700 O   0  0  0  0  0  0  0  0  0  0  0  0
   27.4210   36.5090    6.7630 C   0  0  1  0  0  0  0  0  0  0  0  0
   26.8730   36.9880    8.1040 C   0  0  1  0  0  0  0  0  0  0  0  0
   30.2060   36.8700    7.8330 O   0  0  0  0  0  0  0  0  0  0  0  0
   29.5730   37.6220    7.6220 H   0  0  0  0  0  0  0  0  0  0  0  0
   30.2420   34.6180    8.4390 C   0  0  0  0  0  0  0  0  0  0  0  0
   29.8250   33.7190    9.2090 O   0  0  0  0  0  0  0  0  0  0  0  0
   31.5170   34.4420    7.9240 O   0  0  0  0  0  0  0  0  0  0  0  0
   31.5900   34.3380    6.9000 H   0  0  0  0  0  0  0  0  0  0  0  0
   27.9250   37.5960    6.0200 O   0  0  0  0  0  0  0  0  0  0  0  0
   28.8950   37.4110    5.9030 H   0  0  0  0  0  0  0  0  0  0  0  0
   25.4600   37.1540    8.0870 N   0  0  0  0  0  0  0  0  0  0  0  0
   24.8860   38.3670    7.6290 C   0  0  0  0  0  0  0  0  0  0  0  0
   24.8220   36.4000    8.4050 H   0  0  0  0  0  0  0  0  0  0  0  0
   23.3900   38.4930    7.6290 C   0  0  0  0  0  0  0  0  0  0  0  0
   25.5470   39.3400    7.2230 O   0  0  0  0  0  0  0  0  0  0  0  0
   26.7090   37.1080   11.1520 O   0  0  0  0  0  0  0  0  0  0  0  0
   27.7040   37.2260   11.2790 H   0  0  0  0  0  0  0  0  0  0  0  0
   27.2040   33.7520   10.2870 O   0  0  0  0  0  0  0  0  0  0  0  0
   26.8220   32.8780   10.5040 H   0  0  0  0  0  0  0  0  0  0  0  0
   25.4200   32.3620   15.1280 O   0  0  0  0  0  0  0  0  0  0  0  0
   26.0750   31.1320   15.3710 C   0  0  0  0  0  0  0  0  0  0  0  0
   27.4980   31.3400   15.6720 C   0  0  0  0  0  0  0  0  0  0  0  0
   28.2160   32.5120   15.7800 C   0  0  0  0  0  0  0  0  0  0  0  0
   28.3870   30.3590   15.9060 N   0  0  0  0  0  0  0  0  0  0  0  0
   29.5120   32.2190   16.0740 N   0  0  0  0  0  0  0  0  0  0  0  0
   29.5670   30.9110   16.1400 N   0  0  0  0  0  0  0  0  0  0  0  0
   30.5900   33.1230   16.2710 C   0  0  0  0  0  0  0  0  0  0  0  0
   31.4080   33.4910   15.2130 C   0  0  0  0  0  0  0  0  0  0  0  0
   30.8180   33.6340   17.5270 C   0  0  0  0  0  0  0  0  0  0  0  0
   32.4550   34.3630   15.3810 C   0  0  0  0  0  0  0  0  0  0  0  0
   31.8650   34.5170   17.7330 C   0  0  0  0  0  0  0  0  0  0  0  0
   33.5010   34.8380   14.0460 Cl  0  0  0  0  0  0  0  0  0  0  0  0
   32.6690   34.8660   16.6490 C   0  0  0  0  0  0  0  0  0  0  0  0
   29.9570   33.2420   18.6180 C   0  0  0  0  0  0  0  0  0  0  0  0
   30.1340   32.1890   19.2930 O   0  0  0  0  0  0  0  0  0  0  0  0
   28.8560   34.0550   18.9710 N   0  0  0  0  0  0  0  0  0  0  0  0
   28.6150   35.2680   18.2290 C   0  0  0  0  0  0  0  0  0  0  0  0
   27.9560   33.7090   20.0620 C   0  0  0  0  0  0  0  0  0  0  0  0
   29.8670   25.5550   16.9770 C   0  0  0  0  0  0  0  0  0  0  0  0
   28.3450   25.7220   17.0260 C   0  0  0  0  0  0  0  0  0  0  0  0
   27.6000   24.4080   16.8440 C   0  0  0  0  0  0  0  0  0  0  0  0
   26.5710   24.1870   17.9180 C   0  0  0  0  0  0  0  0  0  0  0  0
   25.6910   23.0000   17.5420 C   0  0  0  0  0  0  0  0  0  0  0  0
   24.2810   23.4290   17.3830 N   0  0  0  0  0  0  0  0  0  0  0  0
  1  4  1  0  0  0  0
  1  2  1  0  0  0  0
  2 31  1  0  0  0  0
  3  2  2  0  0  0  0
  5  1  1  0  0  0  0
  6  5  1  6  0  0  0
  7 27  1  1  0  0  0
  7  6  1  0  0  0  0
  8 11  1  0  0  0  0
  8  7  1  1  0  0  0
  9 14  1  6  0  0  0
  9 16  1  0  0  0  0
  9 11  1  0  0  0  0
 10  9  1  0  0  0  0
 12 20  1  1  0  0  0
 12 10  1  0  0  0  0
 12 13  1  0  0  0  0
 13 22  1  6  0  0  0
 13  8  1  0  0  0  0
 15 14  1  0  0  0  0
 16 17  2  0  0  0  0
 18 16  1  0  0  0  0
 19 18  1  0  0  0  0
 21 20  1  0  0  0  0
 22 24  1  0  0  0  0
 23 25  1  0  0  0  0
 23 22  1  0  0  0  0
 26 23  2  0  0  0  0
 27 28  1  0  0  0  0
 29 30  1  0  0  0  0
 29  6  1  0  0  0  0
 31 32  1  0  0  0  0
 32 33  1  0  0  0  0
 33 34  2  0  0  0  0
 33 35  1  0  0  0  0
 34 36  1  0  0  0  0
 35 37  2  0  0  0  0
 36 37  1  0  0  0  0
 36 38  1  0  0  0  0
 38 40  2  0  0  0  0
 39 41  2  0  0  0  0
 39 38  1  0  0  0  0
 40 42  1  0  0  0  0
 40 45  1  0  0  0  0
 41 44  1  0  0  0  0
 43 41  1  0  0  0  0
 44 42  2  0  0  0  0
 45 47  1  0  0  0  0
 45 46  2  0  0  0  0
 47 49  1  0  0  0  0
 48 47  1  0  0  0  0
 50 51  1  0  0  0  0
 52 51  1  0  0  0  0
 52 53  1  0  0  0  0
 54 53  1  0  0  0  0
 55 54  1  0  0  0  0
M  END
>  <REMARK>
 VINA RESULT:    -4.766      3.027      4.296
 INTER + INTRA:         -14.714
 INTER:                 -11.114
 INTRA:                  -3.600
 UNBOUND:                -6.187
 SMILES CC(=O)N[C@@H]1[C@@H](O)C[C@](O)(C(=O)O)O[C@H]1C(O)[C@H](O)CNC(=O)OCc1cn(-c2cc(Cl)ccc2C(=O)N(C)C)nn1
 SMILES IDX 21 1 22 2 23 3 20 5 18 6 16 7 15 8 9 9 8 10 14 11 6 12 5 13
 SMILES IDX 10 14 11 16 12 17 13 18 7 20 4 22 2 23 1 25 3 26 17 27 19 29
 SMILES IDX 24 31 25 32 26 33 27 34 42 35 28 36 41 37 29 38 30 39 35 40
 SMILES IDX 31 41 34 42 32 43 33 44 36 45 37 46 38 47 39 48 40 49
 H PARENT 21 4 10 15 13 19 7 21 4 24 17 28 19 30
 Flexibility Score: inf
  4 active torsions:
  status: ('A' for Active; 'I' for Inactive)
    1  A    between atoms: CA   and  CB  
    2  A    between atoms: CB   and  CG  
    3  A    between atoms: CG   and  CD  
    4  A    between atoms: CD   and  CE  

>  <TORSDO>
F 16

>  <BEGIN_>
RES LYS A 131

$$$$
ligand_85_pose_13_2HRL.pdbqt
 OpenBabel07062320523D

  6  5  0  0  0  0  0  0  0  0999 V2000
   33.1930   34.6630    9.2900 C   0  0  0  0  0  0  0  0  0  0  0  0
   32.0600   35.3600   10.0340 C   0  0  0  0  0  0  0  0  0  0  0  0
   32.5350   36.2960   11.1150 C   0  0  0  0  0  0  0  0  0  0  0  0
   31.8970   37.6680   10.9560 C   0  0  0  0  0  0  0  0  0  0  0  0
   30.5710   37.7260   11.6900 C   0  0  0  0  0  0  0  0  0  0  0  0
   29.7160   38.8270   11.1660 N   0  0  0  0  0  0  0  0  0  0  0  0
  1  2  1  0  0  0  0
  2  3  1  0  0  0  0
  4  3  1  0  0  0  0
  4  5  1  0  0  0  0
  6  5  1  0  0  0  0
M  END
>  <EGIN_R>
ES LYS A 135

>  <REMARK>
  4 active torsions:
  status: ('A' for Active; 'I' for Inactive)
    5  A    between atoms: CA   and  CB  
    6  A    between atoms: CB   and  CG  
    7  A    between atoms: CG   and  CD  
    8  A    between atoms: CD   and  CE  

$$$$
