ligand_91_pose_11_2HRL.pdbqt
 OpenBabel07062320523D

 57 60  0  0  1  0  0  0  0  0999 V2000
   26.8430   28.9660   19.2920 C   0  0  0  0  0  0  0  0  0  0  0  0
   28.3070   29.0230   19.6380 C   0  0  2  0  0  0  0  0  0  0  0  0
   28.4220   29.7720   20.9290 C   0  0  2  0  0  0  0  0  0  0  0  0
   29.5550   29.2890   21.8230 C   0  0  2  0  0  0  0  0  0  0  0  0
   31.7970   29.5370   22.0370 C   0  0  2  0  0  0  0  0  0  0  0  0
   32.1260   28.0680   22.0650 C   0  0  0  0  0  0  0  0  0  0  0  0
   30.6980   29.8190   21.2930 O   0  0  0  0  0  0  0  0  0  0  0  0
   30.9740   27.2040   21.6410 C   0  0  1  0  0  0  0  0  0  0  0  0
   29.6320   27.8080   21.8900 C   0  0  1  0  0  0  0  0  0  0  0  0
   32.8740   30.2140   21.3750 O   0  0  0  0  0  0  0  0  0  0  0  0
   33.5630   29.5550   21.1150 H   0  0  0  0  0  0  0  0  0  0  0  0
   31.8150   30.0960   23.4110 C   0  0  0  0  0  0  0  0  0  0  0  0
   31.9220   29.3610   24.4290 O   0  0  0  0  0  0  0  0  0  0  0  0
   31.7150   31.4730   23.6670 O   0  0  0  0  0  0  0  0  0  0  0  0
   32.4460   31.9320   24.1880 H   0  0  0  0  0  0  0  0  0  0  0  0
   31.1370   26.8760   20.2910 O   0  0  0  0  0  0  0  0  0  0  0  0
   31.6320   27.5830   19.8060 H   0  0  0  0  0  0  0  0  0  0  0  0
   29.0850   27.2410   23.1270 N   0  0  0  0  0  0  0  0  0  0  0  0
   27.7630   26.7260   23.2150 C   0  0  0  0  0  0  0  0  0  0  0  0
   29.6500   27.1920   24.0030 H   0  0  0  0  0  0  0  0  0  0  0  0
   27.2230   26.1490   24.4840 C   0  0  0  0  0  0  0  0  0  0  0  0
   27.0120   26.7480   22.2050 O   0  0  0  0  0  0  0  0  0  0  0  0
   27.2370   29.6470   21.6360 O   0  0  0  0  0  0  0  0  0  0  0  0
   27.4200   29.0980   22.4370 H   0  0  0  0  0  0  0  0  0  0  0  0
   29.0200   29.5910   18.6090 O   0  0  0  0  0  0  0  0  0  0  0  0
   28.3770   29.7820   17.8620 H   0  0  0  0  0  0  0  0  0  0  0  0
   26.4520   29.6120   18.0870 N   0  0  0  0  0  0  0  0  0  0  0  0
   26.0060   30.9470   17.9970 C   0  0  0  0  0  0  0  0  0  0  0  0
   26.4760   29.0930   17.1390 H   0  0  0  0  0  0  0  0  0  0  0  0
   25.9100   31.6770   19.0050 O   0  0  0  0  0  0  0  0  0  0  0  0
   25.6470   31.5280   16.7710 O   0  0  0  0  0  0  0  0  0  0  0  0
   26.3420   31.1780   15.5740 C   0  0  0  0  0  0  0  0  0  0  0  0
   27.7880   31.3940   15.8160 C   0  0  0  0  0  0  0  0  0  0  0  0
   28.3990   32.5900   16.1320 C   0  0  0  0  0  0  0  0  0  0  0  0
   28.8040   30.4980   15.7820 N   0  0  0  0  0  0  0  0  0  0  0  0
   29.7210   32.4020   16.2790 N   0  0  0  0  0  0  0  0  0  0  0  0
   29.9470   31.1250   16.0620 N   0  0  0  0  0  0  0  0  0  0  0  0
   30.6970   33.3680   16.6050 C   0  0  0  0  0  0  0  0  0  0  0  0
   31.2480   34.1790   15.6080 C   0  0  0  0  0  0  0  0  0  0  0  0
   31.1410   33.5560   17.9030 C   0  0  0  0  0  0  0  0  0  0  0  0
   30.8490   34.0410   14.2960 C   0  0  0  0  0  0  0  0  0  0  0  0
   32.1860   35.1210   15.8920 C   0  0  0  0  0  0  0  0  0  0  0  0
   32.0920   34.5170   18.1700 C   0  0  0  0  0  0  0  0  0  0  0  0
   30.6010   32.7580   18.8810 C   0  0  0  0  0  0  0  0  0  0  0  0
   31.3610   34.8150   13.2760 C   0  0  0  0  0  0  0  0  0  0  0  0
   32.7120   35.9090   14.8740 C   0  0  0  0  0  0  0  0  0  0  0  0
   32.5910   35.2720   17.1680 N   0  0  0  0  0  0  0  0  0  0  0  0
   32.5030   34.6660   19.4730 C   0  0  0  0  0  0  0  0  0  0  0  0
   31.0400   32.9340   20.1950 C   0  0  0  0  0  0  0  0  0  0  0  0
   32.3270   35.7880   13.5580 C   0  0  0  0  0  0  0  0  0  0  0  0
   31.9890   33.8830   20.5050 C   0  0  0  0  0  0  0  0  0  0  0  0
   29.8670   25.5550   16.9770 C   0  0  0  0  0  0  0  0  0  0  0  0
   28.3450   25.7220   17.0260 C   0  0  0  0  0  0  0  0  0  0  0  0
   27.6010   24.4040   16.8760 C   0  0  0  0  0  0  0  0  0  0  0  0
   26.5860   24.1990   17.9660 C   0  0  0  0  0  0  0  0  0  0  0  0
   25.2630   23.7540   17.3520 C   0  0  0  0  0  0  0  0  0  0  0  0
   25.0530   22.3030   17.5680 N   0  0  0  0  0  0  0  0  0  0  0  0
  2  1  1  6  0  0  0
  2  3  1  0  0  0  0
  3 23  1  1  0  0  0
  4  3  1  6  0  0  0
  4  9  1  0  0  0  0
  5 10  1  6  0  0  0
  5  6  1  0  0  0  0
  5 12  1  0  0  0  0
  7  4  1  0  0  0  0
  7  5  1  0  0  0  0
  8 16  1  6  0  0  0
  8  9  1  0  0  0  0
  8  6  1  0  0  0  0
  9 18  1  1  0  0  0
 11 10  1  0  0  0  0
 12 14  1  0  0  0  0
 12 13  2  0  0  0  0
 14 15  1  0  0  0  0
 17 16  1  0  0  0  0
 18 19  1  0  0  0  0
 18 20  1  0  0  0  0
 19 21  1  0  0  0  0
 22 19  2  0  0  0  0
 23 24  1  0  0  0  0
 25  2  1  0  0  0  0
 26 25  1  0  0  0  0
 27  1  1  0  0  0  0
 28 27  1  0  0  0  0
 28 30  2  0  0  0  0
 29 27  1  0  0  0  0
 31 28  1  0  0  0  0
 32 33  1  0  0  0  0
 32 31  1  0  0  0  0
 33 34  2  0  0  0  0
 34 36  1  0  0  0  0
 35 33  1  0  0  0  0
 35 37  2  0  0  0  0
 36 38  1  0  0  0  0
 37 36  1  0  0  0  0
 38 40  2  0  0  0  0
 39 42  1  0  0  0  0
 39 38  1  0  0  0  0
 40 43  1  0  0  0  0
 40 44  1  0  0  0  0
 41 39  2  0  0  0  0
 42 47  1  0  0  0  0
 43 48  1  0  0  0  0
 44 49  2  0  0  0  0
 45 50  2  0  0  0  0
 45 41  1  0  0  0  0
 46 42  2  0  0  0  0
 47 43  2  0  0  0  0
 48 51  2  0  0  0  0
 49 51  1  0  0  0  0
 50 46  1  0  0  0  0
 52 53  1  0  0  0  0
 54 53  1  0  0  0  0
 54 55  1  0  0  0  0
 56 57  1  0  0  0  0
 56 55  1  0  0  0  0
M  END
>  <REMARK>
 VINA RESULT:    -5.347      6.646     11.476
 INTER + INTRA:         -15.339
 INTER:                  -8.748
 INTRA:                  -6.591
 UNBOUND:                -6.084
 SMILES CC(=O)N[C@@H]1[C@@H](O)C[C@](O)(C(=O)O)O[C@H]1C(O)[C@H](O)CNC(=O)OCc1cn(-c2c3ccccc3nc3ccccc23)nn1
 SMILES IDX 20 1 18 2 16 3 15 4 9 5 8 6 14 7 6 8 5 9 10 10 11 12 12 13
 SMILES IDX 13 14 7 16 4 18 2 19 1 21 3 22 17 23 19 25 21 27 22 28 23 30
 SMILES IDX 24 31 25 32 26 33 27 34 44 35 28 36 43 37 29 38 30 39 42 40
 SMILES IDX 31 41 35 42 37 43 41 44 32 45 34 46 36 47 38 48 40 49 33 50
 SMILES IDX 39 51
 H PARENT 10 11 13 15 7 17 4 20 17 24 19 26 21 29
 Flexibility Score: inf
  4 active torsions:
  status: ('A' for Active; 'I' for Inactive)
    1  A    between atoms: CA   and  CB  
    2  A    between atoms: CB   and  CG  
    3  A    between atoms: CG   and  CD  
    4  A    between atoms: CD   and  CE  

>  <TORSDO>
F 15

>  <BEGIN_>
RES LYS A 131

$$$$
ligand_91_pose_11_2HRL.pdbqt
 OpenBabel07062320523D

  6  5  0  0  0  0  0  0  0  0999 V2000
   33.1930   34.6630    9.2900 C   0  0  0  0  0  0  0  0  0  0  0  0
   32.0600   35.3600   10.0340 C   0  0  0  0  0  0  0  0  0  0  0  0
   30.6920   34.8470    9.6650 C   0  0  0  0  0  0  0  0  0  0  0  0
   30.6230   34.5210    8.1810 C   0  0  0  0  0  0  0  0  0  0  0  0
   29.3140   35.0060    7.5890 C   0  0  0  0  0  0  0  0  0  0  0  0
   28.1540   34.5370    8.3960 N   0  0  0  0  0  0  0  0  0  0  0  0
  1  2  1  0  0  0  0
  3  2  1  0  0  0  0
  4  3  1  0  0  0  0
  5  4  1  0  0  0  0
  5  6  1  0  0  0  0
M  END
>  <EGIN_R>
ES LYS A 135

>  <REMARK>
  4 active torsions:
  status: ('A' for Active; 'I' for Inactive)
    5  A    between atoms: CA   and  CB  
    6  A    between atoms: CB   and  CG  
    7  A    between atoms: CG   and  CD  
    8  A    between atoms: CD   and  CE  

$$$$
