ligand_39_pose_11_2HRL.pdbqt
 OpenBabel07062320523D

 51 52  0  0  1  0  0  0  0  0999 V2000
   26.4600   38.7330   11.9420 N   0  0  0  0  0  0  0  0  0  0  0  0
   27.6880   38.1560   11.6020 C   0  0  0  0  0  0  0  0  0  0  0  0
   28.5320   38.8390   10.9580 O   0  0  0  0  0  0  0  0  0  0  0  0
   25.7810   38.1280   12.4820 H   0  0  0  0  0  0  0  0  0  0  0  0
   26.0570   40.0820   11.6100 C   0  0  0  0  0  0  0  0  0  0  0  0
   24.7500   40.0430   10.8480 C   0  0  2  0  0  0  0  0  0  0  0  0
   24.9810   39.8280    9.3670 C   0  0  2  0  0  0  0  0  0  0  0  0
   24.3190   38.5610    8.8660 C   0  0  2  0  0  0  0  0  0  0  0  0
   22.5270   37.1620    9.3910 C   0  0  2  0  0  0  0  0  0  0  0  0
   23.3910   35.9590    9.4140 C   0  0  0  0  0  0  0  0  0  0  0  0
   23.2720   38.2910    9.6950 O   0  0  0  0  0  0  0  0  0  0  0  0
   24.8550   36.1630    9.3710 C   0  0  1  0  0  0  0  0  0  0  0  0
   25.3120   37.4410    8.7300 C   0  0  1  0  0  0  0  0  0  0  0  0
   21.5790   37.0590   10.4420 O   0  0  0  0  0  0  0  0  0  0  0  0
   20.7340   36.6460   10.1200 H   0  0  0  0  0  0  0  0  0  0  0  0
   21.7820   37.2740    8.1350 C   0  0  0  0  0  0  0  0  0  0  0  0
   21.9470   36.4910    7.1600 O   0  0  0  0  0  0  0  0  0  0  0  0
   20.8440   38.2860    7.9910 O   0  0  0  0  0  0  0  0  0  0  0  0
   19.8600   38.1600    8.1960 H   0  0  0  0  0  0  0  0  0  0  0  0
   25.4060   36.0260   10.6590 O   0  0  0  0  0  0  0  0  0  0  0  0
   25.3140   35.0420   10.8660 H   0  0  0  0  0  0  0  0  0  0  0  0
   25.7210   37.2300    7.3590 N   0  0  0  0  0  0  0  0  0  0  0  0
   27.0650   37.3720    6.9310 C   0  0  0  0  0  0  0  0  0  0  0  0
   25.0120   36.9620    6.6490 H   0  0  0  0  0  0  0  0  0  0  0  0
   27.5040   37.1580    5.5220 C   0  0  0  0  0  0  0  0  0  0  0  0
   27.9180   37.7020    7.8230 O   0  0  0  0  0  0  0  0  0  0  0  0
   26.3450   39.8500    9.0950 O   0  0  0  0  0  0  0  0  0  0  0  0
   26.8110   40.3420    9.8400 H   0  0  0  0  0  0  0  0  0  0  0  0
   24.1540   41.3080   11.0700 O   0  0  0  0  0  0  0  0  0  0  0  0
   24.5550   42.0020   10.5230 H   0  0  0  0  0  0  0  0  0  0  0  0
   28.0640   36.8600   11.9240 O   0  0  0  0  0  0  0  0  0  0  0  0
   29.4350   36.5290   12.0620 C   0  0  0  0  0  0  0  0  0  0  0  0
   29.6280   35.3840   12.9760 C   0  0  0  0  0  0  0  0  0  0  0  0
   30.8470   34.8910   13.4640 C   0  0  0  0  0  0  0  0  0  0  0  0
   28.7150   34.5770   13.5280 N   0  0  0  0  0  0  0  0  0  0  0  0
   30.6540   33.8520   14.2570 N   0  0  0  0  0  0  0  0  0  0  0  0
   29.3110   33.6770   14.2800 N   0  0  0  0  0  0  0  0  0  0  0  0
   31.5250   32.9730   15.0010 C   0  0  0  0  0  0  0  0  0  0  0  0
   31.0980   32.6540   16.3570 C   0  0  0  0  0  0  0  0  0  0  0  0
   30.4590   31.4450   16.6450 C   0  0  0  0  0  0  0  0  0  0  0  0
   31.3240   33.4950   17.4090 C   0  0  0  0  0  0  0  0  0  0  0  0
   30.0940   31.1490   17.9290 C   0  0  0  0  0  0  0  0  0  0  0  0
   30.9530   33.1910   18.7060 C   0  0  0  0  0  0  0  0  0  0  0  0
   32.1520   35.2180   17.1450 Br  0  0  0  0  0  0  0  0  0  0  0  0
   30.3280   32.0010   18.9800 C   0  0  0  0  0  0  0  0  0  0  0  0
   29.8670   25.5550   16.9770 C   0  0  0  0  0  0  0  0  0  0  0  0
   28.3450   25.7220   17.0260 C   0  0  0  0  0  0  0  0  0  0  0  0
   27.5990   24.4450   16.6710 C   0  0  0  0  0  0  0  0  0  0  0  0
   27.0180   23.7730   17.8850 C   0  0  0  0  0  0  0  0  0  0  0  0
   25.6000   23.3030   17.5760 C   0  0  0  0  0  0  0  0  0  0  0  0
   24.8190   24.3910   16.9410 N   0  0  0  0  0  0  0  0  0  0  0  0
  1  4  1  0  0  0  0
  2 31  1  0  0  0  0
  2  1  1  0  0  0  0
  3  2  2  0  0  0  0
  5  1  1  0  0  0  0
  6 29  1  0  0  0  0
  6  5  1  1  0  0  0
  7 27  1  1  0  0  0
  7  6  1  0  0  0  0
  8  7  1  1  0  0  0
  8 11  1  0  0  0  0
  9 16  1  6  0  0  0
  9 10  1  0  0  0  0
  9 11  1  0  0  0  0
  9 14  1  0  0  0  0
 12 10  1  0  0  0  0
 12 20  1  1  0  0  0
 13 22  1  6  0  0  0
 13  8  1  0  0  0  0
 13 12  1  0  0  0  0
 15 14  1  0  0  0  0
 17 16  2  0  0  0  0
 18 16  1  0  0  0  0
 18 19  1  0  0  0  0
 20 21  1  0  0  0  0
 23 22  1  0  0  0  0
 23 26  2  0  0  0  0
 24 22  1  0  0  0  0
 25 23  1  0  0  0  0
 27 28  1  0  0  0  0
 30 29  1  0  0  0  0
 31 32  1  0  0  0  0
 32 33  1  0  0  0  0
 33 34  2  0  0  0  0
 33 35  1  0  0  0  0
 34 36  1  0  0  0  0
 35 37  2  0  0  0  0
 36 37  1  0  0  0  0
 36 38  1  0  0  0  0
 38 39  1  0  0  0  0
 39 40  2  0  0  0  0
 39 41  1  0  0  0  0
 40 42  1  0  0  0  0
 41 43  2  0  0  0  0
 42 45  2  0  0  0  0
 43 45  1  0  0  0  0
 44 41  1  0  0  0  0
 46 47  1  0  0  0  0
 48 47  1  0  0  0  0
 48 49  1  0  0  0  0
 50 49  1  0  0  0  0
 51 50  1  0  0  0  0
M  END
>  <REMARK>
 VINA RESULT:    -3.960      6.656     11.087
 INTER + INTRA:         -14.511
 INTER:                  -8.415
 INTRA:                  -6.096
 UNBOUND:                -7.426
 SMILES CC(=O)N[C@@H]1[C@@H](O)C[C@](O)(C(=O)O)O[C@H]1C(O)[C@H](O)CNC(=O)OCc1cn(Cc2ccccc2Br)nn1
 SMILES IDX 21 1 22 2 23 3 20 5 18 6 16 7 15 8 9 9 8 10 14 11 6 12 5 13
 SMILES IDX 10 14 11 16 12 17 13 18 7 20 4 22 2 23 1 25 3 26 17 27 19 29
 SMILES IDX 24 31 25 32 26 33 27 34 38 35 28 36 37 37 29 38 30 39 31 40
 SMILES IDX 35 41 32 42 34 43 36 44 33 45
 H PARENT 21 4 10 15 13 19 7 21 4 24 17 28 19 30
 Flexibility Score: inf
  4 active torsions:
  status: ('A' for Active; 'I' for Inactive)
    1  A    between atoms: CA   and  CB  
    2  A    between atoms: CB   and  CG  
    3  A    between atoms: CG   and  CD  
    4  A    between atoms: CD   and  CE  

>  <TORSDO>
F 16

>  <BEGIN_>
RES LYS A 131

$$$$
ligand_39_pose_11_2HRL.pdbqt
 OpenBabel07062320523D

  6  5  0  0  0  0  0  0  0  0999 V2000
   33.1930   34.6630    9.2900 C   0  0  0  0  0  0  0  0  0  0  0  0
   32.0600   35.3600   10.0340 C   0  0  0  0  0  0  0  0  0  0  0  0
   30.8220   35.5590    9.1970 C   0  0  0  0  0  0  0  0  0  0  0  0
   30.0900   34.2410    9.0010 C   0  0  0  0  0  0  0  0  0  0  0  0
   28.6030   34.4790    8.8240 C   0  0  0  0  0  0  0  0  0  0  0  0
   27.8070   33.5930    9.7170 N   0  0  0  0  0  0  0  0  0  0  0  0
  1  2  1  0  0  0  0
  3  2  1  0  0  0  0
  4  3  1  0  0  0  0
  5  4  1  0  0  0  0
  5  6  1  0  0  0  0
M  END
>  <EGIN_R>
ES LYS A 135

>  <REMARK>
  4 active torsions:
  status: ('A' for Active; 'I' for Inactive)
    5  A    between atoms: CA   and  CB  
    6  A    between atoms: CB   and  CG  
    7  A    between atoms: CG   and  CD  
    8  A    between atoms: CD   and  CE  

$$$$
