ligand_9_pose_18_2HRL.pdbqt
 OpenBabel07062320523D

 54 55  0  0  1  0  0  0  0  0999 V2000
   28.1180   27.9720   18.8790 N   0  0  0  0  0  0  0  0  0  0  0  0
   27.1400   28.0740   17.8530 C   0  0  0  0  0  0  0  0  0  0  0  0
   25.9870   27.6310   18.0800 O   0  0  0  0  0  0  0  0  0  0  0  0
   29.0660   28.3450   18.6690 H   0  0  0  0  0  0  0  0  0  0  0  0
   27.8120   27.3710   20.1610 C   0  0  0  0  0  0  0  0  0  0  0  0
   28.8370   27.6690   21.2030 C   0  0  2  0  0  0  0  0  0  0  0  0
   30.1590   28.0870   20.6450 C   0  0  1  0  0  0  0  0  0  0  0  0
   30.7650   29.2360   21.4920 C   0  0  2  0  0  0  0  0  0  0  0  0
   31.4790   31.3780   21.3470 C   0  0  2  0  0  0  0  0  0  0  0  0
   32.9100   31.0340   21.6940 C   0  0  0  0  0  0  0  0  0  0  0  0
   30.9150   30.3330   20.6850 O   0  0  0  0  0  0  0  0  0  0  0  0
   33.0210   29.7840   22.5120 C   0  0  1  0  0  0  0  0  0  0  0  0
   31.9850   28.7490   22.1810 C   0  0  1  0  0  0  0  0  0  0  0  0
   31.5790   32.4440   20.4080 O   0  0  0  0  0  0  0  0  0  0  0  0
   30.8250   33.0570   20.4690 H   0  0  0  0  0  0  0  0  0  0  0  0
   30.7590   31.8860   22.5230 C   0  0  0  0  0  0  0  0  0  0  0  0
   31.3330   32.1580   23.6310 O   0  0  0  0  0  0  0  0  0  0  0  0
   29.3680   32.0800   22.4180 O   0  0  0  0  0  0  0  0  0  0  0  0
   29.0060   32.3790   21.5040 H   0  0  0  0  0  0  0  0  0  0  0  0
   34.3130   29.2780   22.3810 O   0  0  0  0  0  0  0  0  0  0  0  0
   34.3610   28.5140   21.7530 H   0  0  0  0  0  0  0  0  0  0  0  0
   31.6070   27.9780   23.3510 N   0  0  0  0  0  0  0  0  0  0  0  0
   32.4440   26.9620   23.8840 C   0  0  0  0  0  0  0  0  0  0  0  0
   30.6730   28.1950   23.8090 H   0  0  0  0  0  0  0  0  0  0  0  0
   31.9880   26.2140   25.0850 C   0  0  0  0  0  0  0  0  0  0  0  0
   33.5720   26.6880   23.3500 O   0  0  0  0  0  0  0  0  0  0  0  0
   31.0990   27.0910   20.5620 O   0  0  0  0  0  0  0  0  0  0  0  0
   30.7550   26.2030   20.3600 H   0  0  0  0  0  0  0  0  0  0  0  0
   28.9300   26.6290   22.1230 O   0  0  0  0  0  0  0  0  0  0  0  0
   29.8990   26.4740   22.2930 H   0  0  0  0  0  0  0  0  0  0  0  0
   27.3820   28.6370   16.6120 O   0  0  0  0  0  0  0  0  0  0  0  0
   27.1270   30.0030   16.3450 C   0  0  0  0  0  0  0  0  0  0  0  0
   28.2740   30.8350   16.7540 C   0  0  0  0  0  0  0  0  0  0  0  0
   29.0440   31.6890   15.9840 C   0  0  0  0  0  0  0  0  0  0  0  0
   28.8070   30.9240   17.9920 N   0  0  0  0  0  0  0  0  0  0  0  0
   29.9940   32.2530   16.7580 N   0  0  0  0  0  0  0  0  0  0  0  0
   29.8130   31.7560   17.9850 N   0  0  0  0  0  0  0  0  0  0  0  0
   30.9970   33.1810   16.4020 C   0  0  0  0  0  0  0  0  0  0  0  0
   31.5140   34.0750   17.3210 C   0  0  0  0  0  0  0  0  0  0  0  0
   31.5030   33.2300   15.1220 C   0  0  0  0  0  0  0  0  0  0  0  0
   32.4950   34.9970   17.0150 C   0  0  0  0  0  0  0  0  0  0  0  0
   32.4930   34.1470   14.7820 C   0  0  0  0  0  0  0  0  0  0  0  0
   32.9760   35.0180   15.7260 C   0  0  0  0  0  0  0  0  0  0  0  0
   33.0220   35.9280   18.0060 C   0  0  0  0  0  0  0  0  0  0  0  0
   32.2250   36.6370   18.6690 O   0  0  0  0  0  0  0  0  0  0  0  0
   34.3770   36.0670   18.2530 O   0  0  0  0  0  0  0  0  0  0  0  0
   34.9520   37.2780   18.7010 C   0  0  0  0  0  0  0  0  0  0  0  0
   35.4160   38.0600   17.5070 C   0  0  0  0  0  0  0  0  0  0  0  0
   29.8670   25.5550   16.9770 C   0  0  0  0  0  0  0  0  0  0  0  0
   28.3450   25.7220   17.0260 C   0  0  0  0  0  0  0  0  0  0  0  0
   27.6000   24.4070   16.8560 C   0  0  0  0  0  0  0  0  0  0  0  0
   26.6180   24.1640   17.9680 C   0  0  0  0  0  0  0  0  0  0  0  0
   25.2350   23.9080   17.3780 C   0  0  0  0  0  0  0  0  0  0  0  0
   24.8880   22.4710   17.4740 N   0  0  0  0  0  0  0  0  0  0  0  0
  1  5  1  0  0  0  0
  2  3  2  0  0  0  0
  2  1  1  0  0  0  0
  4  1  1  0  0  0  0
  6  5  1  6  0  0  0
  6 29  1  0  0  0  0
  7 27  1  1  0  0  0
  7  6  1  0  0  0  0
  8  7  1  6  0  0  0
  8 13  1  0  0  0  0
  9 14  1  6  0  0  0
  9 10  1  0  0  0  0
  9 16  1  0  0  0  0
 10 12  1  0  0  0  0
 11  9  1  0  0  0  0
 11  8  1  0  0  0  0
 12 20  1  6  0  0  0
 13 12  1  0  0  0  0
 13 22  1  1  0  0  0
 14 15  1  0  0  0  0
 16 17  2  0  0  0  0
 18 16  1  0  0  0  0
 19 18  1  0  0  0  0
 21 20  1  0  0  0  0
 22 24  1  0  0  0  0
 22 23  1  0  0  0  0
 23 25  1  0  0  0  0
 26 23  2  0  0  0  0
 28 27  1  0  0  0  0
 29 30  1  0  0  0  0
 31  2  1  0  0  0  0
 32 31  1  0  0  0  0
 32 33  1  0  0  0  0
 33 35  1  0  0  0  0
 34 33  2  0  0  0  0
 34 36  1  0  0  0  0
 36 37  1  0  0  0  0
 37 35  2  0  0  0  0
 38 36  1  0  0  0  0
 38 39  2  0  0  0  0
 40 38  1  0  0  0  0
 41 39  1  0  0  0  0
 41 44  1  0  0  0  0
 42 40  2  0  0  0  0
 42 43  1  0  0  0  0
 43 41  2  0  0  0  0
 44 46  1  0  0  0  0
 44 45  2  0  0  0  0
 46 47  1  0  0  0  0
 48 47  1  0  0  0  0
 49 50  1  0  0  0  0
 51 50  1  0  0  0  0
 51 52  1  0  0  0  0
 53 54  1  0  0  0  0
 53 52  1  0  0  0  0
M  END
>  <REMARK>
 VINA RESULT:    -4.772      2.447      4.045
 INTER + INTRA:         -14.768
 INTER:                  -8.960
 INTRA:                  -5.808
 UNBOUND:                -5.671
 SMILES CCOC(=O)c1cccc(-n2cc(COC(=O)NC[C@@H](O)C(O)[C@@H]3O[C@@](O)(C(=O)O)C[C@H](O)[C@H]3NC(C)=O)nn2)c1
 SMILES IDX 18 1 16 2 17 3 19 5 20 6 22 7 24 8 26 9 31 10 25 11 32 12
 SMILES IDX 34 13 27 14 28 16 29 17 30 18 33 20 35 22 36 23 37 25 38 26
 SMILES IDX 23 27 21 29 15 31 14 32 13 33 12 34 39 35 11 36 40 37 10 38
 SMILES IDX 41 39 9 40 6 41 8 42 7 43 4 44 5 45 3 46 2 47 1 48
 H PARENT 18 4 27 15 30 19 33 21 35 24 23 28 21 30
 Flexibility Score: inf
  4 active torsions:
  status: ('A' for Active; 'I' for Inactive)
    1  A    between atoms: CA   and  CB  
    2  A    between atoms: CB   and  CG  
    3  A    between atoms: CG   and  CD  
    4  A    between atoms: CD   and  CE  

>  <TORSDO>
F 18

>  <BEGIN_>
RES LYS A 131

$$$$
ligand_9_pose_18_2HRL.pdbqt
 OpenBabel07062320523D

  6  5  0  0  0  0  0  0  0  0999 V2000
   33.1930   34.6630    9.2900 C   0  0  0  0  0  0  0  0  0  0  0  0
   32.0600   35.3600   10.0340 C   0  0  0  0  0  0  0  0  0  0  0  0
   30.7120   34.7230    9.8130 C   0  0  0  0  0  0  0  0  0  0  0  0
   30.3980   34.6330    8.3280 C   0  0  0  0  0  0  0  0  0  0  0  0
   29.1630   35.4470    7.9950 C   0  0  0  0  0  0  0  0  0  0  0  0
   28.9450   35.5130    6.5230 N   0  0  0  0  0  0  0  0  0  0  0  0
  1  2  1  0  0  0  0
  3  2  1  0  0  0  0
  4  3  1  0  0  0  0
  5  4  1  0  0  0  0
  6  5  1  0  0  0  0
M  END
>  <EGIN_R>
ES LYS A 135

>  <REMARK>
  4 active torsions:
  status: ('A' for Active; 'I' for Inactive)
    5  A    between atoms: CA   and  CB  
    6  A    between atoms: CB   and  CG  
    7  A    between atoms: CG   and  CD  
    8  A    between atoms: CD   and  CE  

$$$$
