ligand_78_pose_8_2HRL.pdbqt
 OpenBabel07062320523D

 53 54  0  0  1  0  0  0  0  0999 V2000
   30.0050   31.2400   17.1950 N   0  0  0  0  0  0  0  0  0  0  0  0
   28.5800   31.0560   17.0780 C   0  0  0  0  0  0  0  0  0  0  0  0
   27.8580   32.0520   16.9260 O   0  0  0  0  0  0  0  0  0  0  0  0
   30.5370   30.3580   17.3130 H   0  0  0  0  0  0  0  0  0  0  0  0
   30.5820   32.5710   17.1370 C   0  0  0  0  0  0  0  0  0  0  0  0
   31.2170   32.8660   15.8200 C   0  0  2  0  0  0  0  0  0  0  0  0
   30.6410   34.0400   15.1050 C   0  0  2  0  0  0  0  0  0  0  0  0
   31.2950   35.3560   15.3310 C   0  0  2  0  0  0  0  0  0  0  0  0
   31.0120   36.1020   13.1330 C   0  0  2  0  0  0  0  0  0  0  0  0
   32.3080   35.4540   12.7700 C   0  0  0  0  0  0  0  0  0  0  0  0
   30.7780   36.3180   14.4670 O   0  0  0  0  0  0  0  0  0  0  0  0
   33.3020   35.2910   13.8510 C   0  0  1  0  0  0  0  0  0  0  0  0
   32.7650   35.4670   15.2440 C   0  0  1  0  0  0  0  0  0  0  0  0
   29.9260   35.3740   12.6460 O   0  0  0  0  0  0  0  0  0  0  0  0
   30.1700   34.6090   12.1010 H   0  0  0  0  0  0  0  0  0  0  0  0
   30.9520   37.4380   12.4840 C   0  0  0  0  0  0  0  0  0  0  0  0
   31.8990   37.8090   11.7590 O   0  0  0  0  0  0  0  0  0  0  0  0
   29.8820   38.3110   12.6440 O   0  0  0  0  0  0  0  0  0  0  0  0
   29.1540   38.3900   11.9200 H   0  0  0  0  0  0  0  0  0  0  0  0
   33.9360   34.0580   13.7110 O   0  0  0  0  0  0  0  0  0  0  0  0
   33.8610   33.4980   14.5050 H   0  0  0  0  0  0  0  0  0  0  0  0
   33.1580   36.7630   15.8060 N   0  0  0  0  0  0  0  0  0  0  0  0
   34.2980   36.9050   16.6270 C   0  0  0  0  0  0  0  0  0  0  0  0
   32.5900   37.6080   15.6040 H   0  0  0  0  0  0  0  0  0  0  0  0
   34.7120   38.2180   17.2080 C   0  0  0  0  0  0  0  0  0  0  0  0
   34.9710   35.8710   16.8600 O   0  0  0  0  0  0  0  0  0  0  0  0
   29.3620   34.2210   15.7940 O   0  0  0  0  0  0  0  0  0  0  0  0
   29.5760   34.6840   16.6220 H   0  0  0  0  0  0  0  0  0  0  0  0
   31.4370   31.7770   15.0010 O   0  0  0  0  0  0  0  0  0  0  0  0
   32.3230   31.3660   15.1460 H   0  0  0  0  0  0  0  0  0  0  0  0
   28.0130   29.7970   17.1310 O   0  0  0  0  0  0  0  0  0  0  0  0
   27.2020   29.3680   18.2100 C   0  0  0  0  0  0  0  0  0  0  0  0
   28.0070   28.8590   19.3300 C   0  0  0  0  0  0  0  0  0  0  0  0
   28.8170   29.5160   20.2120 C   0  0  0  0  0  0  0  0  0  0  0  0
   28.0720   27.5580   19.6840 N   0  0  0  0  0  0  0  0  0  0  0  0
   29.3470   28.6040   21.0660 N   0  0  0  0  0  0  0  0  0  0  0  0
   28.8740   27.4190   20.7180 N   0  0  0  0  0  0  0  0  0  0  0  0
   30.2520   28.9170   22.1400 C   0  0  0  0  0  0  0  0  0  0  0  0
   31.9340   28.5430   21.6660 S   0  0  0  0  0  0  0  0  0  0  0  0
   31.9110   28.0380   20.2450 O   0  0  0  0  0  0  0  0  0  0  0  0
   32.4340   27.4820   22.5730 O   0  0  0  0  0  0  0  0  0  0  0  0
   32.8870   30.0110   21.7860 C   0  0  0  0  0  0  0  0  0  0  0  0
   34.2400   29.8870   22.0840 C   0  0  0  0  0  0  0  0  0  0  0  0
   32.3000   31.2380   21.5900 C   0  0  0  0  0  0  0  0  0  0  0  0
   34.9840   31.0370   22.1780 C   0  0  0  0  0  0  0  0  0  0  0  0
   33.0910   32.3610   21.6960 C   0  0  0  0  0  0  0  0  0  0  0  0
   34.4330   32.3010   21.9870 C   0  0  0  0  0  0  0  0  0  0  0  0
   29.8670   25.5550   16.9770 C   0  0  0  0  0  0  0  0  0  0  0  0
   28.3450   25.7220   17.0260 C   0  0  0  0  0  0  0  0  0  0  0  0
   27.6070   24.3940   17.1060 C   0  0  0  0  0  0  0  0  0  0  0  0
   26.1150   24.5710   17.0480 C   0  0  0  0  0  0  0  0  0  0  0  0
   25.5540   24.6270   18.4650 C   0  0  0  0  0  0  0  0  0  0  0  0
   25.8290   23.3600   19.1830 N   0  0  0  0  0  0  0  0  0  0  0  0
  1  4  1  0  0  0  0
  2 31  1  0  0  0  0
  2  1  1  0  0  0  0
  3  2  2  0  0  0  0
  5  1  1  0  0  0  0
  6  5  1  1  0  0  0
  7 27  1  1  0  0  0
  7  6  1  0  0  0  0
  8  7  1  6  0  0  0
  9 16  1  6  0  0  0
  9 11  1  0  0  0  0
 10  9  1  0  0  0  0
 10 12  1  0  0  0  0
 11  8  1  0  0  0  0
 12 20  1  1  0  0  0
 12 13  1  0  0  0  0
 13  8  1  0  0  0  0
 13 22  1  6  0  0  0
 14  9  1  0  0  0  0
 15 14  1  0  0  0  0
 16 18  1  0  0  0  0
 17 16  2  0  0  0  0
 19 18  1  0  0  0  0
 20 21  1  0  0  0  0
 22 23  1  0  0  0  0
 23 26  2  0  0  0  0
 23 25  1  0  0  0  0
 24 22  1  0  0  0  0
 27 28  1  0  0  0  0
 29 30  1  0  0  0  0
 29  6  1  0  0  0  0
 31 32  1  0  0  0  0
 32 33  1  0  0  0  0
 33 35  1  0  0  0  0
 33 34  2  0  0  0  0
 34 36  1  0  0  0  0
 35 37  2  0  0  0  0
 36 38  1  0  0  0  0
 37 36  1  0  0  0  0
 39 42  1  0  0  0  0
 39 38  1  0  0  0  0
 39 41  2  0  0  0  0
 40 39  2  0  0  0  0
 42 43  2  0  0  0  0
 43 45  1  0  0  0  0
 44 46  2  0  0  0  0
 44 42  1  0  0  0  0
 46 47  1  0  0  0  0
 47 45  2  0  0  0  0
 48 49  1  0  0  0  0
 49 50  1  0  0  0  0
 51 50  1  0  0  0  0
 51 52  1  0  0  0  0
 52 53  1  0  0  0  0
M  END
>  <REMARK>
 VINA RESULT:    -5.342      3.488      8.183
 INTER + INTRA:         -14.881
 INTER:                  -9.839
 INTRA:                  -5.042
 UNBOUND:                -5.011
 SMILES CC(=O)N[C@@H]1[C@@H](O)C[C@](O)(C(=O)O)O[C@H]1C(O)[C@H](O)CNC(=O)OCc1cn(CS(=O)(=O)c2ccccc2)nn1
 SMILES IDX 21 1 22 2 23 3 20 5 18 6 16 7 15 8 9 9 8 10 14 11 6 12 5 13
 SMILES IDX 10 14 11 16 12 17 13 18 7 20 4 22 2 23 1 25 3 26 17 27 19 29
 SMILES IDX 24 31 25 32 26 33 27 34 40 35 28 36 39 37 29 38 30 39 31 40
 SMILES IDX 32 41 33 42 34 43 38 44 35 45 37 46 36 47
 H PARENT 21 4 10 15 13 19 7 21 4 24 17 28 19 30
 Flexibility Score: inf
  4 active torsions:
  status: ('A' for Active; 'I' for Inactive)
    1  A    between atoms: CA   and  CB  
    2  A    between atoms: CB   and  CG  
    3  A    between atoms: CG   and  CD  
    4  A    between atoms: CD   and  CE  

>  <TORSDO>
F 17

>  <BEGIN_>
RES LYS A 131

$$$$
ligand_78_pose_8_2HRL.pdbqt
 OpenBabel07062320523D

  6  5  0  0  0  0  0  0  0  0999 V2000
   33.1930   34.6630    9.2900 C   0  0  0  0  0  0  0  0  0  0  0  0
   32.0600   35.3600   10.0340 C   0  0  0  0  0  0  0  0  0  0  0  0
   30.8000   35.5000    9.2190 C   0  0  0  0  0  0  0  0  0  0  0  0
   30.1330   34.1480    9.0240 C   0  0  0  0  0  0  0  0  0  0  0  0
   28.6760   34.3220    8.6430 C   0  0  0  0  0  0  0  0  0  0  0  0
   27.7780   33.6970    9.6540 N   0  0  0  0  0  0  0  0  0  0  0  0
  1  2  1  0  0  0  0
  3  2  1  0  0  0  0
  4  3  1  0  0  0  0
  5  4  1  0  0  0  0
  5  6  1  0  0  0  0
M  END
>  <EGIN_R>
ES LYS A 135

>  <REMARK>
  4 active torsions:
  status: ('A' for Active; 'I' for Inactive)
    5  A    between atoms: CA   and  CB  
    6  A    between atoms: CB   and  CG  
    7  A    between atoms: CG   and  CD  
    8  A    between atoms: CD   and  CE  

$$$$
