ligand_41_pose_7_2HRL.pdbqt
 OpenBabel07062320523D

 52 53  0  0  1  0  0  0  0  0999 V2000
   27.4070   28.6970   23.9740 N   0  0  0  0  0  0  0  0  0  0  0  0
   27.1100   28.4680   22.5860 C   0  0  0  0  0  0  0  0  0  0  0  0
   27.0300   27.2870   22.1720 O   0  0  0  0  0  0  0  0  0  0  0  0
   27.4570   29.6880   24.2810 H   0  0  0  0  0  0  0  0  0  0  0  0
   27.6200   27.5840   24.8520 C   0  0  0  0  0  0  0  0  0  0  0  0
   29.0380   27.1750   25.0790 C   0  0  2  0  0  0  0  0  0  0  0  0
   30.0150   28.3130   25.0910 C   0  0  2  0  0  0  0  0  0  0  0  0
   30.7450   28.5250   23.7900 C   0  0  2  0  0  0  0  0  0  0  0  0
   32.4920   27.7620   22.4880 C   0  0  2  0  0  0  0  0  0  0  0  0
   33.1420   29.1280   22.3760 C   0  0  0  0  0  0  0  0  0  0  0  0
   31.7820   27.6730   23.6290 O   0  0  0  0  0  0  0  0  0  0  0  0
   32.6460   30.0720   23.4200 C   0  0  1  0  0  0  0  0  0  0  0  0
   31.1890   29.9670   23.6790 C   0  0  1  0  0  0  0  0  0  0  0  0
   33.6100   26.8630   22.5550 O   0  0  0  0  0  0  0  0  0  0  0  0
   33.2810   25.9780   22.9050 H   0  0  0  0  0  0  0  0  0  0  0  0
   31.8210   27.4360   21.2240 C   0  0  0  0  0  0  0  0  0  0  0  0
   30.8770   26.6190   21.1330 O   0  0  0  0  0  0  0  0  0  0  0  0
   32.2090   28.0390   20.0250 O   0  0  0  0  0  0  0  0  0  0  0  0
   33.1900   28.1800   19.8150 H   0  0  0  0  0  0  0  0  0  0  0  0
   33.3330   29.8000   24.6160 O   0  0  0  0  0  0  0  0  0  0  0  0
   33.0660   30.4010   25.3520 H   0  0  0  0  0  0  0  0  0  0  0  0
   30.4270   30.7440   22.7540 N   0  0  0  0  0  0  0  0  0  0  0  0
   29.4780   31.7230   23.1610 C   0  0  0  0  0  0  0  0  0  0  0  0
   30.5630   30.6020   21.7360 H   0  0  0  0  0  0  0  0  0  0  0  0
   28.7100   32.5050   22.1570 C   0  0  0  0  0  0  0  0  0  0  0  0
   29.2600   31.9570   24.3770 O   0  0  0  0  0  0  0  0  0  0  0  0
   30.7910   28.3840   26.2190 O   0  0  0  0  0  0  0  0  0  0  0  0
   31.0020   29.3530   26.3690 H   0  0  0  0  0  0  0  0  0  0  0  0
   29.3960   26.3880   23.9080 O   0  0  0  0  0  0  0  0  0  0  0  0
   28.7820   25.6080   23.9700 H   0  0  0  0  0  0  0  0  0  0  0  0
   26.9120   29.4870   21.6860 O   0  0  0  0  0  0  0  0  0  0  0  0
   27.0530   29.2870   20.2820 C   0  0  0  0  0  0  0  0  0  0  0  0
   28.3130   29.8840   19.7720 C   0  0  0  0  0  0  0  0  0  0  0  0
   28.4690   30.8210   18.7850 C   0  0  0  0  0  0  0  0  0  0  0  0
   29.5720   29.6000   20.2050 N   0  0  0  0  0  0  0  0  0  0  0  0
   29.8130   31.0750   18.6500 N   0  0  0  0  0  0  0  0  0  0  0  0
   30.4350   30.3130   19.5290 N   0  0  0  0  0  0  0  0  0  0  0  0
   30.4560   31.9360   17.7270 C   0  0  0  0  0  0  0  0  0  0  0  0
   30.9810   33.1450   18.0280 C   0  0  0  0  0  0  0  0  0  0  0  0
   30.5280   31.4230   16.4130 C   0  0  0  0  0  0  0  0  0  0  0  0
   31.5990   33.8840   17.0140 C   0  0  0  0  0  0  0  0  0  0  0  0
   31.1380   32.1590   15.4270 C   0  0  0  0  0  0  0  0  0  0  0  0
   31.6650   33.3810   15.7490 C   0  0  0  0  0  0  0  0  0  0  0  0
   30.9410   33.7450   19.3430 C   0  0  1  0  0  0  0  0  0  0  0  0
   29.9560   34.5560   19.5760 O   0  0  0  0  0  0  0  0  0  0  0  0
   31.8780   33.5500   20.4500 C   0  0  0  0  0  0  0  0  0  0  0  0
   29.8670   25.5550   16.9770 C   0  0  0  0  0  0  0  0  0  0  0  0
   28.3450   25.7220   17.0260 C   0  0  0  0  0  0  0  0  0  0  0  0
   27.6010   24.4020   16.8970 C   0  0  0  0  0  0  0  0  0  0  0  0
   26.1560   24.5250   17.2910 C   0  0  0  0  0  0  0  0  0  0  0  0
   25.8010   23.4180   18.2790 C   0  0  0  0  0  0  0  0  0  0  0  0
   25.0580   22.3320   17.5970 N   0  0  0  0  0  0  0  0  0  0  0  0
  1  4  1  0  0  0  0
  1  5  1  0  0  0  0
  2  1  1  0  0  0  0
  3  2  2  0  0  0  0
  6  5  1  6  0  0  0
  6  7  1  0  0  0  0
  7 27  1  1  0  0  0
  8  7  1  1  0  0  0
  9 16  1  6  0  0  0
  9 14  1  0  0  0  0
  9 11  1  0  0  0  0
 10  9  1  0  0  0  0
 10 12  1  0  0  0  0
 11  8  1  0  0  0  0
 12 13  1  0  0  0  0
 12 20  1  1  0  0  0
 13 22  1  6  0  0  0
 13  8  1  0  0  0  0
 14 15  1  0  0  0  0
 17 16  2  0  0  0  0
 18 16  1  0  0  0  0
 19 18  1  0  0  0  0
 20 21  1  0  0  0  0
 22 23  1  0  0  0  0
 23 26  2  0  0  0  0
 24 22  1  0  0  0  0
 25 23  1  0  0  0  0
 27 28  1  0  0  0  0
 29 30  1  0  0  0  0
 29  6  1  0  0  0  0
 31  2  1  0  0  0  0
 32 31  1  0  0  0  0
 33 35  1  0  0  0  0
 33 32  1  0  0  0  0
 34 33  2  0  0  0  0
 36 34  1  0  0  0  0
 36 37  1  0  0  0  0
 37 35  2  0  0  0  0
 38 39  1  0  0  0  0
 38 36  1  0  0  0  0
 39 44  1  0  0  0  0
 40 38  2  0  0  0  0
 41 39  2  0  0  0  0
 42 43  2  0  0  0  0
 42 40  1  0  0  0  0
 43 41  1  0  0  0  0
 44 45  1  0  0  0  0
 44 46  1  1  0  0  0
 47 48  1  0  0  0  0
 49 48  1  0  0  0  0
 49 50  1  0  0  0  0
 50 51  1  0  0  0  0
 52 51  1  0  0  0  0
M  END
>  <REMARK>
 VINA RESULT:    -4.570      4.944      8.390
 INTER + INTRA:         -14.980
 INTER:                  -7.608
 INTRA:                  -7.373
 UNBOUND:                -6.804
 SMILES CC(=O)N[C@@H]1[C@@H](O)C[C@](O)(C(=O)O)O[C@H]1C(O)[C@H](O)CNC(=O)OCc1cn(-c2ccccc2C(C)=O)nn1
 SMILES IDX 21 1 22 2 23 3 20 5 18 6 16 7 15 8 9 9 8 10 14 11 6 12 5 13
 SMILES IDX 10 14 11 16 12 17 13 18 7 20 4 22 2 23 1 25 3 26 17 27 19 29
 SMILES IDX 24 31 25 32 26 33 27 34 39 35 28 36 38 37 29 38 34 39 30 40
 SMILES IDX 33 41 31 42 32 43 35 44 37 45 36 46
 H PARENT 21 4 10 15 13 19 7 21 4 24 17 28 19 30
 Flexibility Score: inf
  4 active torsions:
  status: ('A' for Active; 'I' for Inactive)
    1  A    between atoms: CA   and  CB  
    2  A    between atoms: CB   and  CG  
    3  A    between atoms: CG   and  CD  
    4  A    between atoms: CD   and  CE  

>  <TORSDO>
F 16

>  <BEGIN_>
RES LYS A 131

$$$$
ligand_41_pose_7_2HRL.pdbqt
 OpenBabel07062320523D

  6  5  0  0  0  0  0  0  0  0999 V2000
   33.1930   34.6630    9.2900 C   0  0  0  0  0  0  0  0  0  0  0  0
   32.0600   35.3600   10.0340 C   0  0  0  0  0  0  0  0  0  0  0  0
   30.7890   35.4680    9.2320 C   0  0  0  0  0  0  0  0  0  0  0  0
   30.0470   34.1410    9.2210 C   0  0  0  0  0  0  0  0  0  0  0  0
   28.6420   34.3200    8.6770 C   0  0  0  0  0  0  0  0  0  0  0  0
   28.6420   35.1930    7.4700 N   0  0  0  0  0  0  0  0  0  0  0  0
  1  2  1  0  0  0  0
  3  2  1  0  0  0  0
  4  3  1  0  0  0  0
  5  4  1  0  0  0  0
  6  5  1  0  0  0  0
M  END
>  <EGIN_R>
ES LYS A 135

>  <REMARK>
  4 active torsions:
  status: ('A' for Active; 'I' for Inactive)
    5  A    between atoms: CA   and  CB  
    6  A    between atoms: CB   and  CG  
    7  A    between atoms: CG   and  CD  
    8  A    between atoms: CD   and  CE  

$$$$
