ligand_70_pose_3_2HRL.pdbqt
 OpenBabel07062320523D

 53 55  0  0  1  0  0  0  0  0999 V2000
   25.7350   40.4740    8.1950 C   0  0  0  0  0  0  0  0  0  0  0  0
   25.1660   39.4240    7.2820 C   0  0  2  0  0  0  0  0  0  0  0  0
   25.3430   38.0180    7.7860 C   0  0  1  0  0  0  0  0  0  0  0  0
   24.0600   37.2960    8.0790 C   0  0  2  0  0  0  0  0  0  0  0  0
   21.9720   37.8190    8.9430 C   0  0  2  0  0  0  0  0  0  0  0  0
   21.6350   36.3490    8.9530 C   0  0  0  0  0  0  0  0  0  0  0  0
   22.9590   38.1400    8.0460 O   0  0  0  0  0  0  0  0  0  0  0  0
   22.8550   35.5320    9.2160 C   0  0  1  0  0  0  0  0  0  0  0  0
   24.1220   36.4130    9.2770 C   0  0  1  0  0  0  0  0  0  0  0  0
   22.2470   38.2030   10.2520 O   0  0  0  0  0  0  0  0  0  0  0  0
   21.7770   39.0130   10.5240 H   0  0  0  0  0  0  0  0  0  0  0  0
   20.7360   38.5490    8.5290 C   0  0  0  0  0  0  0  0  0  0  0  0
   19.6290   37.9790    8.7050 O   0  0  0  0  0  0  0  0  0  0  0  0
   20.7690   39.8120    7.9670 O   0  0  0  0  0  0  0  0  0  0  0  0
   20.3440   39.9700    7.0480 H   0  0  0  0  0  0  0  0  0  0  0  0
   22.7300   34.8210   10.4240 O   0  0  0  0  0  0  0  0  0  0  0  0
   21.8080   34.4830   10.5170 H   0  0  0  0  0  0  0  0  0  0  0  0
   25.2850   35.5330    9.1290 N   0  0  0  0  0  0  0  0  0  0  0  0
   26.0090   35.0120   10.2330 C   0  0  0  0  0  0  0  0  0  0  0  0
   25.6120   35.2680    8.1820 H   0  0  0  0  0  0  0  0  0  0  0  0
   27.1910   34.1240   10.0630 C   0  0  0  0  0  0  0  0  0  0  0  0
   25.6650   35.2920   11.4080 O   0  0  0  0  0  0  0  0  0  0  0  0
   26.1010   37.3310    6.8160 O   0  0  0  0  0  0  0  0  0  0  0  0
   25.6240   36.4830    6.6400 H   0  0  0  0  0  0  0  0  0  0  0  0
   25.6860   39.5610    5.9780 O   0  0  0  0  0  0  0  0  0  0  0  0
   24.8990   39.3610    5.3790 H   0  0  0  0  0  0  0  0  0  0  0  0
   27.0390   40.0580    8.6520 N   0  0  0  0  0  0  0  0  0  0  0  0
   28.2370   40.4030    7.9930 C   0  0  0  0  0  0  0  0  0  0  0  0
   27.1540   39.4640    9.5200 H   0  0  0  0  0  0  0  0  0  0  0  0
   28.2390   41.0990    6.9570 O   0  0  0  0  0  0  0  0  0  0  0  0
   29.4940   39.9900    8.4550 O   0  0  0  0  0  0  0  0  0  0  0  0
   29.9000   40.2980    9.7970 C   0  0  0  0  0  0  0  0  0  0  0  0
   29.6850   39.1310   10.6780 C   0  0  0  0  0  0  0  0  0  0  0  0
   30.6080   38.4310   11.3900 C   0  0  0  0  0  0  0  0  0  0  0  0
   28.4930   38.5710   10.9100 N   0  0  0  0  0  0  0  0  0  0  0  0
   29.9210   37.4490   12.0420 N   0  0  0  0  0  0  0  0  0  0  0  0
   28.6480   37.5520   11.7390 N   0  0  0  0  0  0  0  0  0  0  0  0
   30.4770   36.4760   12.9040 C   0  0  0  0  0  0  0  0  0  0  0  0
   31.7540   36.6680   13.4000 C   0  0  0  0  0  0  0  0  0  0  0  0
   29.7370   35.3620   13.2310 C   0  0  0  0  0  0  0  0  0  0  0  0
   32.2810   35.7430   14.2190 N   0  0  0  0  0  0  0  0  0  0  0  0
   30.3020   34.4160   14.0800 C   0  0  0  0  0  0  0  0  0  0  0  0
   31.5760   34.6290   14.5620 C   0  0  0  0  0  0  0  0  0  0  0  0
   29.5930   33.3040   14.4190 C   0  0  0  0  0  0  0  0  0  0  0  0
   32.1390   33.6920   15.4050 C   0  0  0  0  0  0  0  0  0  0  0  0
   30.1530   32.3520   15.2710 C   0  0  0  0  0  0  0  0  0  0  0  0
   31.4230   32.5530   15.7580 C   0  0  0  0  0  0  0  0  0  0  0  0
   29.8670   25.5550   16.9770 C   0  0  0  0  0  0  0  0  0  0  0  0
   28.3450   25.7220   17.0260 C   0  0  0  0  0  0  0  0  0  0  0  0
   27.6010   24.4020   16.8890 C   0  0  0  0  0  0  0  0  0  0  0  0
   26.5350   24.2420   17.9360 C   0  0  0  0  0  0  0  0  0  0  0  0
   25.1600   24.3110   17.2790 C   0  0  0  0  0  0  0  0  0  0  0  0
   24.5000   22.9850   17.3150 N   0  0  0  0  0  0  0  0  0  0  0  0
  1 27  1  0  0  0  0
  2  3  1  0  0  0  0
  2  1  1  1  0  0  0
  3 23  1  6  0  0  0
  4  3  1  1  0  0  0
  4  9  1  0  0  0  0
  5 12  1  6  0  0  0
  5  6  1  0  0  0  0
  5 10  1  0  0  0  0
  6  8  1  0  0  0  0
  7  4  1  0  0  0  0
  7  5  1  0  0  0  0
  8  9  1  0  0  0  0
  8 16  1  1  0  0  0
  9 18  1  6  0  0  0
 10 11  1  0  0  0  0
 12 13  2  0  0  0  0
 14 12  1  0  0  0  0
 15 14  1  0  0  0  0
 16 17  1  0  0  0  0
 18 19  1  0  0  0  0
 19 22  2  0  0  0  0
 20 18  1  0  0  0  0
 21 19  1  0  0  0  0
 24 23  1  0  0  0  0
 25  2  1  0  0  0  0
 26 25  1  0  0  0  0
 27 29  1  0  0  0  0
 28 31  1  0  0  0  0
 28 27  1  0  0  0  0
 30 28  2  0  0  0  0
 31 32  1  0  0  0  0
 32 33  1  0  0  0  0
 33 35  1  0  0  0  0
 33 34  2  0  0  0  0
 34 36  1  0  0  0  0
 35 37  2  0  0  0  0
 36 38  1  0  0  0  0
 37 36  1  0  0  0  0
 38 40  2  0  0  0  0
 38 39  1  0  0  0  0
 39 41  2  0  0  0  0
 40 42  1  0  0  0  0
 41 43  1  0  0  0  0
 42 44  2  0  0  0  0
 42 43  1  0  0  0  0
 43 45  2  0  0  0  0
 44 46  1  0  0  0  0
 45 47  1  0  0  0  0
 46 47  2  0  0  0  0
 48 49  1  0  0  0  0
 50 49  1  0  0  0  0
 50 51  1  0  0  0  0
 52 53  1  0  0  0  0
 52 51  1  0  0  0  0
M  END
>  <REMARK>
 VINA RESULT:    -6.101      8.088     13.653
 INTER + INTRA:         -15.092
 INTER:                  -9.576
 INTRA:                  -5.516
 UNBOUND:                -4.533
 SMILES CC(=O)N[C@@H]1[C@@H](O)C[C@](O)(C(=O)O)O[C@H]1C(O)[C@H](O)CNC(=O)OCc1cn(-c2cnc3ccccc3c2)nn1
 SMILES IDX 20 1 18 2 16 3 15 4 9 5 8 6 14 7 6 8 5 9 10 10 11 12 12 13
 SMILES IDX 13 14 7 16 4 18 2 19 1 21 3 22 17 23 19 25 21 27 22 28 23 30
 SMILES IDX 24 31 25 32 26 33 27 34 40 35 28 36 39 37 29 38 30 39 38 40
 SMILES IDX 31 41 37 42 32 43 36 44 33 45 35 46 34 47
 H PARENT 10 11 13 15 7 17 4 20 17 24 19 26 21 29
 Flexibility Score: inf
  4 active torsions:
  status: ('A' for Active; 'I' for Inactive)
    1  A    between atoms: CA   and  CB  
    2  A    between atoms: CB   and  CG  
    3  A    between atoms: CG   and  CD  
    4  A    between atoms: CD   and  CE  

>  <TORSDO>
F 15

>  <BEGIN_>
RES LYS A 131

$$$$
ligand_70_pose_3_2HRL.pdbqt
 OpenBabel07062320523D

  6  5  0  0  0  0  0  0  0  0999 V2000
   33.1930   34.6630    9.2900 C   0  0  0  0  0  0  0  0  0  0  0  0
   32.0600   35.3600   10.0340 C   0  0  0  0  0  0  0  0  0  0  0  0
   30.6920   34.8410    9.6710 C   0  0  0  0  0  0  0  0  0  0  0  0
   30.6140   34.5290    8.1850 C   0  0  0  0  0  0  0  0  0  0  0  0
   29.4000   35.1940    7.5650 C   0  0  0  0  0  0  0  0  0  0  0  0
   29.2410   36.5900    8.0600 N   0  0  0  0  0  0  0  0  0  0  0  0
  1  2  1  0  0  0  0
  3  2  1  0  0  0  0
  4  3  1  0  0  0  0
  5  6  1  0  0  0  0
  5  4  1  0  0  0  0
M  END
>  <EGIN_R>
ES LYS A 135

>  <REMARK>
  4 active torsions:
  status: ('A' for Active; 'I' for Inactive)
    5  A    between atoms: CA   and  CB  
    6  A    between atoms: CB   and  CG  
    7  A    between atoms: CG   and  CD  
    8  A    between atoms: CD   and  CE  

$$$$
