ligand_28_pose_9_2HRL.pdbqt
 OpenBabel07062320523D

 53 55  0  0  1  0  0  0  0  0999 V2000
   25.9490   36.1670   11.4760 N   0  0  0  0  0  0  0  0  0  0  0  0
   25.8320   35.0430   12.3400 C   0  0  0  0  0  0  0  0  0  0  0  0
   24.7240   34.4170   12.4080 O   0  0  0  0  0  0  0  0  0  0  0  0
   26.8570   36.6540   11.4420 H   0  0  0  0  0  0  0  0  0  0  0  0
   24.7860   36.5400   10.7120 C   0  0  0  0  0  0  0  0  0  0  0  0
   24.7800   35.9860    9.3220 C   0  0  2  0  0  0  0  0  0  0  0  0
   25.3140   36.9650    8.3010 C   0  0  2  0  0  0  0  0  0  0  0  0
   26.4410   36.3320    7.4880 C   0  0  2  0  0  0  0  0  0  0  0  0
   28.3210   35.4800    8.5470 C   0  0  2  0  0  0  0  0  0  0  0  0
   29.2620   35.9090    7.4450 C   0  0  0  0  0  0  0  0  0  0  0  0
   27.0320   35.2920    8.1400 O   0  0  0  0  0  0  0  0  0  0  0  0
   28.5370   36.6270    6.3250 C   0  0  1  0  0  0  0  0  0  0  0  0
   27.3880   37.3770    6.9590 C   0  0  1  0  0  0  0  0  0  0  0  0
   28.3870   36.3790    9.6300 O   0  0  0  0  0  0  0  0  0  0  0  0
   29.2270   36.8720    9.6560 H   0  0  0  0  0  0  0  0  0  0  0  0
   28.8330   34.1810    9.0640 C   0  0  0  0  0  0  0  0  0  0  0  0
   28.0490   33.3690    9.6420 O   0  0  0  0  0  0  0  0  0  0  0  0
   30.1530   33.7810    8.9530 O   0  0  0  0  0  0  0  0  0  0  0  0
   30.4270   33.2720    8.1070 H   0  0  0  0  0  0  0  0  0  0  0  0
   29.3930   37.4620    5.6140 O   0  0  0  0  0  0  0  0  0  0  0  0
   30.1480   37.6880    6.2090 H   0  0  0  0  0  0  0  0  0  0  0  0
   26.7150   38.2570    6.0730 N   0  0  0  0  0  0  0  0  0  0  0  0
   27.0120   39.6430    6.0030 C   0  0  0  0  0  0  0  0  0  0  0  0
   25.9630   37.8380    5.4490 H   0  0  0  0  0  0  0  0  0  0  0  0
   26.2830   40.5450    5.0550 C   0  0  0  0  0  0  0  0  0  0  0  0
   27.9130   40.0650    6.7720 O   0  0  0  0  0  0  0  0  0  0  0  0
   25.8680   38.0390    8.9950 O   0  0  0  0  0  0  0  0  0  0  0  0
   26.6720   37.7400    9.4870 H   0  0  0  0  0  0  0  0  0  0  0  0
   23.4650   35.6450    9.0080 O   0  0  0  0  0  0  0  0  0  0  0  0
   23.0280   36.3270    8.4420 H   0  0  0  0  0  0  0  0  0  0  0  0
   26.8830   34.5870   13.1280 O   0  0  0  0  0  0  0  0  0  0  0  0
   26.6710   34.4500   14.5290 C   0  0  0  0  0  0  0  0  0  0  0  0
   27.7440   33.6310   15.1370 C   0  0  0  0  0  0  0  0  0  0  0  0
   29.0360   33.5900   14.6990 C   0  0  0  0  0  0  0  0  0  0  0  0
   27.6740   32.8060   16.1820 N   0  0  0  0  0  0  0  0  0  0  0  0
   29.7110   32.7420   15.4890 N   0  0  0  0  0  0  0  0  0  0  0  0
   28.8730   32.2750   16.3830 N   0  0  0  0  0  0  0  0  0  0  0  0
   31.1150   32.4170   15.3580 C   0  0  0  0  0  0  0  0  0  0  0  0
   31.8810   33.6460   15.7100 C   0  0  0  0  0  0  0  0  0  0  0  0
   32.6450   34.2480   14.7370 C   0  0  0  0  0  0  0  0  0  0  0  0
   31.8480   34.1910   16.9680 C   0  0  0  0  0  0  0  0  0  0  0  0
   33.3690   35.3960   15.0430 C   0  0  0  0  0  0  0  0  0  0  0  0
   32.5680   35.3310   17.2680 C   0  0  0  0  0  0  0  0  0  0  0  0
   33.3320   35.9410   16.3100 C   0  0  0  0  0  0  0  0  0  0  0  0
   32.6810   36.0410   18.4480 O   0  0  0  0  0  0  0  0  0  0  0  0
   33.9470   37.0490   16.8550 O   0  0  0  0  0  0  0  0  0  0  0  0
   33.3610   37.2370   18.1360 C   0  0  0  0  0  0  0  0  0  0  0  0
   29.8670   25.5550   16.9770 C   0  0  0  0  0  0  0  0  0  0  0  0
   28.3450   25.7220   17.0260 C   0  0  0  0  0  0  0  0  0  0  0  0
   27.6010   24.4030   16.8880 C   0  0  0  0  0  0  0  0  0  0  0  0
   26.6630   24.1590   18.0370 C   0  0  0  0  0  0  0  0  0  0  0  0
   25.5640   23.1940   17.6020 C   0  0  0  0  0  0  0  0  0  0  0  0
   24.4500   23.9320   16.9610 N   0  0  0  0  0  0  0  0  0  0  0  0
  1  2  1  0  0  0  0
  2  3  2  0  0  0  0
  2 31  1  0  0  0  0
  4  1  1  0  0  0  0
  5  1  1  0  0  0  0
  6  5  1  1  0  0  0
  7 27  1  1  0  0  0
  7  6  1  0  0  0  0
  8 11  1  0  0  0  0
  8  7  1  1  0  0  0
  9 16  1  1  0  0  0
  9 14  1  0  0  0  0
 10  9  1  0  0  0  0
 11  9  1  0  0  0  0
 12 20  1  1  0  0  0
 12 13  1  0  0  0  0
 12 10  1  0  0  0  0
 13 22  1  6  0  0  0
 13  8  1  0  0  0  0
 14 15  1  0  0  0  0
 16 17  2  0  0  0  0
 18 16  1  0  0  0  0
 19 18  1  0  0  0  0
 20 21  1  0  0  0  0
 23 22  1  0  0  0  0
 23 26  2  0  0  0  0
 24 22  1  0  0  0  0
 25 23  1  0  0  0  0
 27 28  1  0  0  0  0
 29  6  1  0  0  0  0
 30 29  1  0  0  0  0
 31 32  1  0  0  0  0
 32 33  1  0  0  0  0
 33 35  1  0  0  0  0
 34 33  2  0  0  0  0
 34 36  1  0  0  0  0
 35 37  2  0  0  0  0
 36 37  1  0  0  0  0
 38 36  1  0  0  0  0
 38 39  1  0  0  0  0
 39 41  2  0  0  0  0
 40 42  2  0  0  0  0
 40 39  1  0  0  0  0
 41 43  1  0  0  0  0
 42 44  1  0  0  0  0
 43 45  1  0  0  0  0
 44 46  1  0  0  0  0
 44 43  2  0  0  0  0
 46 47  1  0  0  0  0
 47 45  1  0  0  0  0
 48 49  1  0  0  0  0
 50 49  1  0  0  0  0
 50 51  1  0  0  0  0
 52 51  1  0  0  0  0
 53 52  1  0  0  0  0
M  END
>  <REMARK>
 VINA RESULT:    -5.071      2.328      3.269
 INTER + INTRA:         -15.076
 INTER:                 -10.640
 INTRA:                  -4.436
 UNBOUND:                -6.003
 SMILES CC(=O)N[C@@H]1[C@@H](O)C[C@](O)(C(=O)O)O[C@H]1C(O)[C@H](O)CNC(=O)OCc1cn(Cc2ccc3c(c2)OCO3)nn1
 SMILES IDX 21 1 22 2 23 3 20 5 18 6 16 7 15 8 9 9 8 10 14 11 6 12 5 13
 SMILES IDX 10 14 11 16 12 17 13 18 7 20 4 22 2 23 1 25 3 26 17 27 19 29
 SMILES IDX 24 31 25 32 26 33 27 34 40 35 28 36 39 37 29 38 30 39 31 40
 SMILES IDX 35 41 32 42 34 43 33 44 36 45 38 46 37 47
 H PARENT 21 4 10 15 13 19 7 21 4 24 17 28 19 30
 Flexibility Score: inf
  4 active torsions:
  status: ('A' for Active; 'I' for Inactive)
    1  A    between atoms: CA   and  CB  
    2  A    between atoms: CB   and  CG  
    3  A    between atoms: CG   and  CD  
    4  A    between atoms: CD   and  CE  

>  <TORSDO>
F 16

>  <BEGIN_>
RES LYS A 131

$$$$
ligand_28_pose_9_2HRL.pdbqt
 OpenBabel07062320523D

  6  5  0  0  0  0  0  0  0  0999 V2000
   33.1930   34.6630    9.2900 C   0  0  0  0  0  0  0  0  0  0  0  0
   32.0600   35.3600   10.0340 C   0  0  0  0  0  0  0  0  0  0  0  0
   32.4960   36.0160   11.3190 C   0  0  0  0  0  0  0  0  0  0  0  0
   31.7640   37.3330   11.5250 C   0  0  0  0  0  0  0  0  0  0  0  0
   31.9690   38.2480   10.3330 C   0  0  0  0  0  0  0  0  0  0  0  0
   30.6850   38.8710    9.9080 N   0  0  0  0  0  0  0  0  0  0  0  0
  1  2  1  0  0  0  0
  2  3  1  0  0  0  0
  3  4  1  0  0  0  0
  5  4  1  0  0  0  0
  6  5  1  0  0  0  0
M  END
>  <EGIN_R>
ES LYS A 135

>  <REMARK>
  4 active torsions:
  status: ('A' for Active; 'I' for Inactive)
    5  A    between atoms: CA   and  CB  
    6  A    between atoms: CB   and  CG  
    7  A    between atoms: CG   and  CD  
    8  A    between atoms: CD   and  CE  

$$$$
