ligand_35_pose_8_2HRL.pdbqt
 OpenBabel07062320523D

 49 49  0  0  1  0  0  0  0  0999 V2000
   30.9650   35.2950   15.2420 N   0  0  0  0  0  0  0  0  0  0  0  0
   30.2440   35.2030   14.0290 C   0  0  0  0  0  0  0  0  0  0  0  0
   30.4520   34.2770   13.2050 O   0  0  0  0  0  0  0  0  0  0  0  0
   30.7560   36.0790   15.8880 H   0  0  0  0  0  0  0  0  0  0  0  0
   31.9700   34.3390   15.6030 C   0  0  0  0  0  0  0  0  0  0  0  0
   31.5450   33.4370   16.7670 C   0  0  2  0  0  0  0  0  0  0  0  0
   30.5830   32.4380   16.2240 C   0  0  2  0  0  0  0  0  0  0  0  0
   30.3830   31.1980   17.0280 C   0  0  2  0  0  0  0  0  0  0  0  0
   28.1220   30.8350   16.5710 C   0  0  2  0  0  0  0  0  0  0  0  0
   27.8370   31.8040   17.6490 C   0  0  0  0  0  0  0  0  0  0  0  0
   29.4190   30.4370   16.3830 O   0  0  0  0  0  0  0  0  0  0  0  0
   28.7520   31.8120   18.8220 C   0  0  1  0  0  0  0  0  0  0  0  0
   30.1410   31.3520   18.4800 C   0  0  1  0  0  0  0  0  0  0  0  0
   27.7510   31.4750   15.3590 O   0  0  0  0  0  0  0  0  0  0  0  0
   28.4010   31.1980   14.6790 H   0  0  0  0  0  0  0  0  0  0  0  0
   27.2160   29.6620   16.7090 C   0  0  0  0  0  0  0  0  0  0  0  0
   25.9820   29.7380   16.4590 O   0  0  0  0  0  0  0  0  0  0  0  0
   27.7030   28.4340   17.1210 O   0  0  0  0  0  0  0  0  0  0  0  0
   27.9510   28.2230   18.0820 H   0  0  0  0  0  0  0  0  0  0  0  0
   28.7540   33.1210   19.3410 O   0  0  0  0  0  0  0  0  0  0  0  0
   29.0010   33.7120   18.5890 H   0  0  0  0  0  0  0  0  0  0  0  0
   30.3470   30.0170   19.0780 N   0  0  0  0  0  0  0  0  0  0  0  0
   31.1260   29.8510   20.2440 C   0  0  0  0  0  0  0  0  0  0  0  0
   29.9330   29.1610   18.6670 H   0  0  0  0  0  0  0  0  0  0  0  0
   31.3590   28.5390   20.8760 C   0  0  0  0  0  0  0  0  0  0  0  0
   31.6620   30.8670   20.7970 O   0  0  0  0  0  0  0  0  0  0  0  0
   31.1790   31.9810   15.0030 O   0  0  0  0  0  0  0  0  0  0  0  0
   31.2080   30.9970   15.1010 H   0  0  0  0  0  0  0  0  0  0  0  0
   30.9420   34.2900   17.6840 O   0  0  0  0  0  0  0  0  0  0  0  0
   31.2970   34.0540   18.5790 H   0  0  0  0  0  0  0  0  0  0  0  0
   29.2600   36.1540   13.6990 O   0  0  0  0  0  0  0  0  0  0  0  0
   28.7710   36.2580   12.3740 C   0  0  0  0  0  0  0  0  0  0  0  0
   27.5470   35.4390   12.1880 C   0  0  0  0  0  0  0  0  0  0  0  0
   26.5810   35.1650   13.1600 C   0  0  0  0  0  0  0  0  0  0  0  0
   27.1070   34.7980   11.0820 N   0  0  0  0  0  0  0  0  0  0  0  0
   25.6300   34.3970   12.6200 N   0  0  0  0  0  0  0  0  0  0  0  0
   25.9530   34.1800   11.3700 N   0  0  0  0  0  0  0  0  0  0  0  0
   24.4320   33.8790   13.2900 C   0  0  1  0  0  0  0  0  0  0  0  0
   23.2370   33.9850   12.3570 C   0  0  0  0  0  0  0  0  0  0  0  0
   24.6100   32.5000   13.7400 C   0  0  0  0  0  0  0  0  0  0  0  0
   24.2740   31.5510   12.9970 O   0  0  0  0  0  0  0  0  0  0  0  0
   25.1430   32.1530   14.9800 O   0  0  0  0  0  0  0  0  0  0  0  0
   26.1440   32.1380   15.1340 H   0  0  0  0  0  0  0  0  0  0  0  0
   29.8670   25.5550   16.9770 C   0  0  0  0  0  0  0  0  0  0  0  0
   28.3450   25.7220   17.0260 C   0  0  0  0  0  0  0  0  0  0  0  0
   27.6020   24.4000   16.9120 C   0  0  0  0  0  0  0  0  0  0  0  0
   26.6630   24.1760   18.0650 C   0  0  0  0  0  0  0  0  0  0  0  0
   26.2090   25.5220   18.6200 C   0  0  0  0  0  0  0  0  0  0  0  0
   25.6640   25.3620   19.9890 N   0  0  0  0  0  0  0  0  0  0  0  0
  1  5  1  0  0  0  0
  1  4  1  0  0  0  0
  2  1  1  0  0  0  0
  3  2  2  0  0  0  0
  6  5  1  6  0  0  0
  6 29  1  0  0  0  0
  7 27  1  6  0  0  0
  7  6  1  0  0  0  0
  8  7  1  6  0  0  0
  8 13  1  0  0  0  0
  9 14  1  6  0  0  0
  9 16  1  0  0  0  0
  9 10  1  0  0  0  0
 10 12  1  0  0  0  0
 11  9  1  0  0  0  0
 11  8  1  0  0  0  0
 12 20  1  6  0  0  0
 13 12  1  0  0  0  0
 13 22  1  1  0  0  0
 15 14  1  0  0  0  0
 16 18  1  0  0  0  0
 17 16  2  0  0  0  0
 18 19  1  0  0  0  0
 21 20  1  0  0  0  0
 22 23  1  0  0  0  0
 23 26  2  0  0  0  0
 23 25  1  0  0  0  0
 24 22  1  0  0  0  0
 27 28  1  0  0  0  0
 29 30  1  0  0  0  0
 31  2  1  0  0  0  0
 32 31  1  0  0  0  0
 33 32  1  0  0  0  0
 33 34  2  0  0  0  0
 35 37  2  0  0  0  0
 35 33  1  0  0  0  0
 36 34  1  0  0  0  0
 36 38  1  0  0  0  0
 37 36  1  0  0  0  0
 38 39  1  6  0  0  0
 38 40  1  0  0  0  0
 40 42  1  0  0  0  0
 41 40  2  0  0  0  0
 42 43  1  0  0  0  0
 44 45  1  0  0  0  0
 46 45  1  0  0  0  0
 46 47  1  0  0  0  0
 47 48  1  0  0  0  0
 48 49  1  0  0  0  0
M  END
>  <REMARK>
 VINA RESULT:    -5.002      2.280      5.486
 INTER + INTRA:         -13.821
 INTER:                  -7.986
 INTRA:                  -5.835
 UNBOUND:                -4.724
 SMILES CC(=O)N[C@@H]1[C@@H](O)C[C@](O)(C(=O)O)O[C@H]1C(O)[C@H](O)CNC(=O)OCc1cn([C@@H](C)C(=O)O)nn1
 SMILES IDX 21 1 22 2 23 3 20 5 18 6 16 7 15 8 9 9 8 10 14 11 6 12 5 13
 SMILES IDX 10 14 11 16 12 17 13 18 7 20 4 22 2 23 1 25 3 26 17 27 19 29
 SMILES IDX 24 31 25 32 26 33 27 34 35 35 28 36 34 37 29 38 30 39 31 40
 SMILES IDX 32 41 33 42
 H PARENT 21 4 10 15 13 19 7 21 4 24 17 28 19 30 33 43
 Flexibility Score: inf
  4 active torsions:
  status: ('A' for Active; 'I' for Inactive)
    1  A    between atoms: CA   and  CB  
    2  A    between atoms: CB   and  CG  
    3  A    between atoms: CG   and  CD  
    4  A    between atoms: CD   and  CE  

>  <TORSDO>
F 17

>  <BEGIN_>
RES LYS A 131

$$$$
ligand_35_pose_8_2HRL.pdbqt
 OpenBabel07062320523D

  6  5  0  0  0  0  0  0  0  0999 V2000
   33.1930   34.6630    9.2900 C   0  0  0  0  0  0  0  0  0  0  0  0
   32.0600   35.3600   10.0340 C   0  0  0  0  0  0  0  0  0  0  0  0
   30.7080   34.7420    9.7890 C   0  0  0  0  0  0  0  0  0  0  0  0
   30.4540   34.5800    8.2980 C   0  0  0  0  0  0  0  0  0  0  0  0
   29.0250   34.9570    7.9570 C   0  0  0  0  0  0  0  0  0  0  0  0
   28.9310   35.5160    6.5800 N   0  0  0  0  0  0  0  0  0  0  0  0
  1  2  1  0  0  0  0
  3  2  1  0  0  0  0
  4  3  1  0  0  0  0
  5  4  1  0  0  0  0
  6  5  1  0  0  0  0
M  END
>  <EGIN_R>
ES LYS A 135

>  <REMARK>
  4 active torsions:
  status: ('A' for Active; 'I' for Inactive)
    5  A    between atoms: CA   and  CB  
    6  A    between atoms: CB   and  CG  
    7  A    between atoms: CG   and  CD  
    8  A    between atoms: CD   and  CE  

$$$$
