ligand_91_pose_1_2HRL.pdbqt
 OpenBabel07062320523D

 57 60  0  0  1  0  0  0  0  0999 V2000
   24.6010   37.1000    9.1290 C   0  0  0  0  0  0  0  0  0  0  0  0
   25.7130   37.2620    8.1270 C   0  0  2  0  0  0  0  0  0  0  0  0
   26.8920   37.8120    8.8670 C   0  0  2  0  0  0  0  0  0  0  0  0
   28.1100   38.0590    7.9890 C   0  0  2  0  0  0  0  0  0  0  0  0
   28.8650   39.5820    6.4900 C   0  0  2  0  0  0  0  0  0  0  0  0
   29.1860   38.5950    5.3990 C   0  0  0  0  0  0  0  0  0  0  0  0
   27.8270   39.1870    7.2700 O   0  0  0  0  0  0  0  0  0  0  0  0
   28.6040   37.2350    5.6510 C   0  0  1  0  0  0  0  0  0  0  0  0
   28.4050   36.9130    7.0940 C   0  0  1  0  0  0  0  0  0  0  0  0
   28.4170   40.7930    5.8660 O   0  0  0  0  0  0  0  0  0  0  0  0
   27.7130   40.5800    5.2070 H   0  0  0  0  0  0  0  0  0  0  0  0
   30.1010   39.9830    7.2040 C   0  0  0  0  0  0  0  0  0  0  0  0
   30.1610   41.0360    7.8940 O   0  0  0  0  0  0  0  0  0  0  0  0
   31.2800   39.2220    7.1580 O   0  0  0  0  0  0  0  0  0  0  0  0
   32.0860   39.5310    7.6790 H   0  0  0  0  0  0  0  0  0  0  0  0
   27.4050   37.1260    4.9400 O   0  0  0  0  0  0  0  0  0  0  0  0
   27.5040   37.4570    4.0120 H   0  0  0  0  0  0  0  0  0  0  0  0
   29.5250   36.0800    7.5470 N   0  0  0  0  0  0  0  0  0  0  0  0
   29.3360   34.8600    8.2510 C   0  0  0  0  0  0  0  0  0  0  0  0
   30.5170   36.3530    7.3690 H   0  0  0  0  0  0  0  0  0  0  0  0
   30.4900   34.0220    8.7030 C   0  0  0  0  0  0  0  0  0  0  0  0
   28.1720   34.4570    8.5100 O   0  0  0  0  0  0  0  0  0  0  0  0
   27.2580   36.9240    9.8660 O   0  0  0  0  0  0  0  0  0  0  0  0
   26.6680   37.0860   10.6430 H   0  0  0  0  0  0  0  0  0  0  0  0
   25.3030   38.0550    7.0820 O   0  0  0  0  0  0  0  0  0  0  0  0
   25.9640   38.8050    6.9910 H   0  0  0  0  0  0  0  0  0  0  0  0
   24.5520   35.8610    9.8250 N   0  0  0  0  0  0  0  0  0  0  0  0
   23.8800   35.6490   11.0470 C   0  0  0  0  0  0  0  0  0  0  0  0
   25.0470   34.9800    9.4390 H   0  0  0  0  0  0  0  0  0  0  0  0
   23.2700   36.5690   11.6290 O   0  0  0  0  0  0  0  0  0  0  0  0
   23.8600   34.3940   11.6750 O   0  0  0  0  0  0  0  0  0  0  0  0
   24.4970   34.2080   12.9390 C   0  0  0  0  0  0  0  0  0  0  0  0
   25.9250   34.5720   12.7790 C   0  0  0  0  0  0  0  0  0  0  0  0
   26.7560   35.0860   13.7520 C   0  0  0  0  0  0  0  0  0  0  0  0
   26.7110   34.4860   11.6790 N   0  0  0  0  0  0  0  0  0  0  0  0
   27.9820   35.2930   13.2430 N   0  0  0  0  0  0  0  0  0  0  0  0
   27.9340   34.9220   11.9820 N   0  0  0  0  0  0  0  0  0  0  0  0
   29.1170   35.8040   13.9090 C   0  0  0  0  0  0  0  0  0  0  0  0
   30.0390   34.9350   14.5000 C   0  0  0  0  0  0  0  0  0  0  0  0
   29.3650   37.1630   13.9990 C   0  0  0  0  0  0  0  0  0  0  0  0
   29.8490   33.5710   14.4450 C   0  0  0  0  0  0  0  0  0  0  0  0
   31.1440   35.3980   15.1430 C   0  0  0  0  0  0  0  0  0  0  0  0
   30.4910   37.6110   14.6560 C   0  0  0  0  0  0  0  0  0  0  0  0
   28.4580   38.0150   13.4210 C   0  0  0  0  0  0  0  0  0  0  0  0
   30.7280   32.6730   15.0120 C   0  0  0  0  0  0  0  0  0  0  0  0
   32.0400   34.5040   15.7200 C   0  0  0  0  0  0  0  0  0  0  0  0
   31.3490   36.7280   15.2100 N   0  0  0  0  0  0  0  0  0  0  0  0
   30.6940   38.9690   14.7220 C   0  0  0  0  0  0  0  0  0  0  0  0
   28.6930   39.3890   13.5060 C   0  0  0  0  0  0  0  0  0  0  0  0
   31.8680   33.1380   15.6760 C   0  0  0  0  0  0  0  0  0  0  0  0
   29.8060   39.8800   14.1530 C   0  0  0  0  0  0  0  0  0  0  0  0
   29.8670   25.5550   16.9770 C   0  0  0  0  0  0  0  0  0  0  0  0
   28.3450   25.7220   17.0260 C   0  0  0  0  0  0  0  0  0  0  0  0
   27.6020   24.3990   16.9270 C   0  0  0  0  0  0  0  0  0  0  0  0
   26.1770   24.5130   17.3940 C   0  0  0  0  0  0  0  0  0  0  0  0
   25.7210   23.1750   17.9680 C   0  0  0  0  0  0  0  0  0  0  0  0
   24.4770   22.7220   17.3030 N   0  0  0  0  0  0  0  0  0  0  0  0
  1 27  1  0  0  0  0
  2  3  1  0  0  0  0
  2  1  1  1  0  0  0
  3 23  1  1  0  0  0
  4  3  1  6  0  0  0
  5 10  1  6  0  0  0
  5 12  1  0  0  0  0
  5  7  1  0  0  0  0
  6  8  1  0  0  0  0
  6  5  1  0  0  0  0
  7  4  1  0  0  0  0
  8 16  1  6  0  0  0
  8  9  1  0  0  0  0
  9 18  1  1  0  0  0
  9  4  1  0  0  0  0
 11 10  1  0  0  0  0
 12 13  2  0  0  0  0
 14 12  1  0  0  0  0
 14 15  1  0  0  0  0
 17 16  1  0  0  0  0
 18 19  1  0  0  0  0
 19 22  2  0  0  0  0
 19 21  1  0  0  0  0
 20 18  1  0  0  0  0
 23 24  1  0  0  0  0
 25  2  1  0  0  0  0
 26 25  1  0  0  0  0
 27 28  1  0  0  0  0
 28 30  2  0  0  0  0
 28 31  1  0  0  0  0
 29 27  1  0  0  0  0
 31 32  1  0  0  0  0
 33 32  1  0  0  0  0
 33 34  2  0  0  0  0
 35 37  2  0  0  0  0
 35 33  1  0  0  0  0
 36 34  1  0  0  0  0
 36 38  1  0  0  0  0
 37 36  1  0  0  0  0
 38 40  2  0  0  0  0
 38 39  1  0  0  0  0
 39 42  1  0  0  0  0
 40 43  1  0  0  0  0
 41 39  2  0  0  0  0
 41 45  1  0  0  0  0
 42 47  1  0  0  0  0
 42 46  2  0  0  0  0
 43 48  1  0  0  0  0
 43 47  2  0  0  0  0
 44 49  2  0  0  0  0
 44 40  1  0  0  0  0
 45 50  2  0  0  0  0
 49 51  1  0  0  0  0
 50 46  1  0  0  0  0
 51 48  2  0  0  0  0
 52 53  1  0  0  0  0
 54 53  1  0  0  0  0
 54 55  1  0  0  0  0
 55 56  1  0  0  0  0
 57 56  1  0  0  0  0
M  END
>  <REMARK>
 VINA RESULT:    -6.012      0.499      2.539
 INTER + INTRA:         -16.488
 INTER:                 -11.271
 INTRA:                  -5.217
 UNBOUND:                -6.084
 SMILES CC(=O)N[C@@H]1[C@@H](O)C[C@](O)(C(=O)O)O[C@H]1C(O)[C@H](O)CNC(=O)OCc1cn(-c2c3ccccc3nc3ccccc23)nn1
 SMILES IDX 20 1 18 2 16 3 15 4 9 5 8 6 14 7 6 8 5 9 10 10 11 12 12 13
 SMILES IDX 13 14 7 16 4 18 2 19 1 21 3 22 17 23 19 25 21 27 22 28 23 30
 SMILES IDX 24 31 25 32 26 33 27 34 44 35 28 36 43 37 29 38 30 39 42 40
 SMILES IDX 31 41 35 42 37 43 41 44 32 45 34 46 36 47 38 48 40 49 33 50
 SMILES IDX 39 51
 H PARENT 10 11 13 15 7 17 4 20 17 24 19 26 21 29
 Flexibility Score: inf
  4 active torsions:
  status: ('A' for Active; 'I' for Inactive)
    1  A    between atoms: CA   and  CB  
    2  A    between atoms: CB   and  CG  
    3  A    between atoms: CG   and  CD  
    4  A    between atoms: CD   and  CE  

>  <TORSDO>
F 15

>  <BEGIN_>
RES LYS A 131

$$$$
ligand_91_pose_1_2HRL.pdbqt
 OpenBabel07062320523D

  6  5  0  0  0  0  0  0  0  0999 V2000
   33.1930   34.6630    9.2900 C   0  0  0  0  0  0  0  0  0  0  0  0
   32.0600   35.3600   10.0340 C   0  0  0  0  0  0  0  0  0  0  0  0
   32.4020   35.7130   11.4590 C   0  0  0  0  0  0  0  0  0  0  0  0
   32.2410   37.2060   11.6950 C   0  0  0  0  0  0  0  0  0  0  0  0
   31.8290   37.9070   10.4150 C   0  0  0  0  0  0  0  0  0  0  0  0
   30.4990   38.5600   10.5640 N   0  0  0  0  0  0  0  0  0  0  0  0
  1  2  1  0  0  0  0
  2  3  1  0  0  0  0
  3  4  1  0  0  0  0
  5  6  1  0  0  0  0
  5  4  1  0  0  0  0
M  END
>  <EGIN_R>
ES LYS A 135

>  <REMARK>
  4 active torsions:
  status: ('A' for Active; 'I' for Inactive)
    5  A    between atoms: CA   and  CB  
    6  A    between atoms: CB   and  CG  
    7  A    between atoms: CG   and  CD  
    8  A    between atoms: CD   and  CE  

$$$$
