ligand_79_pose_14_2HRL.pdbqt
 OpenBabel07062320523D

 58 60  0  0  1  0  0  0  0  0999 V2000
   25.5510   35.8850   10.7330 N   0  0  0  0  0  0  0  0  0  0  0  0
   26.0680   35.9030   12.0500 C   0  0  0  0  0  0  0  0  0  0  0  0
   25.6660   36.7190   12.8830 O   0  0  0  0  0  0  0  0  0  0  0  0
   25.9670   35.1270   10.0930 H   0  0  0  0  0  0  0  0  0  0  0  0
   24.5510   36.7710   10.2040 C   0  0  0  0  0  0  0  0  0  0  0  0
   24.3880   36.7610    8.7300 C   0  0  2  0  0  0  0  0  0  0  0  0
   25.4600   37.5500    7.9940 C   0  0  1  0  0  0  0  0  0  0  0  0
   26.3710   36.6480    7.2020 C   0  0  2  0  0  0  0  0  0  0  0  0
   28.0690   35.6270    8.4040 C   0  0  2  0  0  0  0  0  0  0  0  0
   29.1070   35.8040    7.3170 C   0  0  0  0  0  0  0  0  0  0  0  0
   26.7840   35.5400    7.8840 O   0  0  0  0  0  0  0  0  0  0  0  0
   28.4990   36.3830    6.0560 C   0  0  1  0  0  0  0  0  0  0  0  0
   27.4840   37.4240    6.5320 C   0  0  1  0  0  0  0  0  0  0  0  0
   28.1440   36.6180    9.3820 O   0  0  0  0  0  0  0  0  0  0  0  0
   28.1320   36.2150   10.2970 H   0  0  0  0  0  0  0  0  0  0  0  0
   28.3590   34.3320    9.0760 C   0  0  0  0  0  0  0  0  0  0  0  0
   29.5290   33.8400    9.0030 O   0  0  0  0  0  0  0  0  0  0  0  0
   27.4210   33.6210    9.7860 O   0  0  0  0  0  0  0  0  0  0  0  0
   26.5940   33.2150    9.3650 H   0  0  0  0  0  0  0  0  0  0  0  0
   29.4410   36.9390    5.2230 O   0  0  0  0  0  0  0  0  0  0  0  0
   29.0560   36.9550    4.2900 H   0  0  0  0  0  0  0  0  0  0  0  0
   26.9540   38.1850    5.4330 N   0  0  0  0  0  0  0  0  0  0  0  0
   27.4970   39.4660    5.0610 C   0  0  0  0  0  0  0  0  0  0  0  0
   26.1500   37.8620    4.8410 H   0  0  0  0  0  0  0  0  0  0  0  0
   26.9870   40.2720    3.9510 C   0  0  0  0  0  0  0  0  0  0  0  0
   28.4730   39.8830    5.7630 O   0  0  0  0  0  0  0  0  0  0  0  0
   24.7670   38.3960    7.1230 O   0  0  0  0  0  0  0  0  0  0  0  0
   24.7330   38.0570    6.2080 H   0  0  0  0  0  0  0  0  0  0  0  0
   23.1750   37.3110    8.3630 O   0  0  0  0  0  0  0  0  0  0  0  0
   22.7380   37.6520    9.1860 H   0  0  0  0  0  0  0  0  0  0  0  0
   27.0500   35.0030   12.4710 O   0  0  0  0  0  0  0  0  0  0  0  0
   28.3150   35.4510   12.8580 C   0  0  0  0  0  0  0  0  0  0  0  0
   28.9880   34.4360   13.7100 C   0  0  0  0  0  0  0  0  0  0  0  0
   28.4080   33.7330   14.7550 C   0  0  0  0  0  0  0  0  0  0  0  0
   30.2580   33.9850   13.6600 N   0  0  0  0  0  0  0  0  0  0  0  0
   29.3210   32.9000   15.2920 N   0  0  0  0  0  0  0  0  0  0  0  0
   30.4360   33.0780   14.6040 N   0  0  0  0  0  0  0  0  0  0  0  0
   29.0990   31.9810   16.4240 C   0  0  0  0  0  0  0  0  0  0  0  0
   27.9280   31.1090   16.1240 C   0  0  0  0  0  0  0  0  0  0  0  0
   30.3960   31.1520   16.4750 C   0  0  0  0  0  0  0  0  0  0  0  0
   29.0200   32.7930   17.6360 C   0  0  0  0  0  0  0  0  0  0  0  0
   27.9010   33.2690   18.0380 O   0  0  0  0  0  0  0  0  0  0  0  0
   30.1520   33.1430   18.4870 C   0  0  0  0  0  0  0  0  0  0  0  0
   30.5180   32.4620   19.6470 C   0  0  0  0  0  0  0  0  0  0  0  0
   31.0000   34.2010   18.2870 C   0  0  0  0  0  0  0  0  0  0  0  0
   31.5750   33.1050   20.1390 N   0  0  0  0  0  0  0  0  0  0  0  0
   31.9000   34.1560   19.3560 C   0  0  0  0  0  0  0  0  0  0  0  0
   31.1210   35.1940   17.3190 C   0  0  0  0  0  0  0  0  0  0  0  0
   32.0860   32.8500   20.9970 H   0  0  0  0  0  0  0  0  0  0  0  0
   32.8900   35.1160   19.4140 C   0  0  0  0  0  0  0  0  0  0  0  0
   32.1120   36.1270   17.4090 C   0  0  0  0  0  0  0  0  0  0  0  0
   32.9920   36.0890   18.4490 C   0  0  0  0  0  0  0  0  0  0  0  0
   29.8670   25.5550   16.9770 C   0  0  0  0  0  0  0  0  0  0  0  0
   28.3450   25.7220   17.0260 C   0  0  0  0  0  0  0  0  0  0  0  0
   27.6010   24.4010   16.9020 C   0  0  0  0  0  0  0  0  0  0  0  0
   26.2590   24.4410   17.5770 C   0  0  0  0  0  0  0  0  0  0  0  0
   26.0630   25.8010   18.2400 C   0  0  0  0  0  0  0  0  0  0  0  0
   24.7790   26.4050   17.8130 N   0  0  0  0  0  0  0  0  0  0  0  0
  1  2  1  0  0  0  0
  2 31  1  0  0  0  0
  2  3  2  0  0  0  0
  4  1  1  0  0  0  0
  5  1  1  0  0  0  0
  6  5  1  1  0  0  0
  7 27  1  6  0  0  0
  7  6  1  0  0  0  0
  8 11  1  0  0  0  0
  8  7  1  1  0  0  0
  9 16  1  1  0  0  0
  9 14  1  0  0  0  0
 10  9  1  0  0  0  0
 11  9  1  0  0  0  0
 12 20  1  6  0  0  0
 12 13  1  0  0  0  0
 12 10  1  0  0  0  0
 13 22  1  6  0  0  0
 13  8  1  0  0  0  0
 14 15  1  0  0  0  0
 16 18  1  0  0  0  0
 17 16  2  0  0  0  0
 19 18  1  0  0  0  0
 21 20  1  0  0  0  0
 23 22  1  0  0  0  0
 23 26  2  0  0  0  0
 24 22  1  0  0  0  0
 25 23  1  0  0  0  0
 28 27  1  0  0  0  0
 29  6  1  0  0  0  0
 29 30  1  0  0  0  0
 31 32  1  0  0  0  0
 32 33  1  0  0  0  0
 33 34  2  0  0  0  0
 34 36  1  0  0  0  0
 35 33  1  0  0  0  0
 35 37  2  0  0  0  0
 36 38  1  0  0  0  0
 37 36  1  0  0  0  0
 38 40  1  0  0  0  0
 38 41  1  0  0  0  0
 39 38  1  0  0  0  0
 41 42  2  0  0  0  0
 41 43  1  0  0  0  0
 43 44  2  0  0  0  0
 44 46  1  0  0  0  0
 45 43  1  0  0  0  0
 45 47  2  0  0  0  0
 46 49  1  0  0  0  0
 47 50  1  0  0  0  0
 47 46  1  0  0  0  0
 48 51  2  0  0  0  0
 48 45  1  0  0  0  0
 51 52  1  0  0  0  0
 52 50  2  0  0  0  0
 53 54  1  0  0  0  0
 55 54  1  0  0  0  0
 55 56  1  0  0  0  0
 56 57  1  0  0  0  0
 58 57  1  0  0  0  0
M  END
>  <REMARK>
 VINA RESULT:    -5.945      1.838      3.033
 INTER + INTRA:         -15.762
 INTER:                 -10.985
 INTRA:                  -4.777
 UNBOUND:                -4.777
 SMILES CC(=O)N[C@@H]1[C@@H](O)C[C@](O)(C(=O)O)O[C@H]1C(O)[C@H](O)CNC(=O)OCc1cn(C(C)(C)C(=O)c2c[nH]c3ccccc23)nn1
 SMILES IDX 21 1 22 2 23 3 20 5 18 6 16 7 15 8 9 9 8 10 14 11 6 12 5 13
 SMILES IDX 10 14 11 16 12 17 13 18 7 20 4 22 2 23 1 25 3 26 17 27 19 29
 SMILES IDX 24 31 25 32 26 33 27 34 44 35 28 36 43 37 29 38 30 39 31 40
 SMILES IDX 32 41 33 42 34 43 35 44 42 45 36 46 37 47 41 48 38 50 40 51
 SMILES IDX 39 52
 H PARENT 21 4 10 15 13 19 7 21 4 24 17 28 19 30 36 49
 Flexibility Score: inf
  4 active torsions:
  status: ('A' for Active; 'I' for Inactive)
    1  A    between atoms: CA   and  CB  
    2  A    between atoms: CB   and  CG  
    3  A    between atoms: CG   and  CD  
    4  A    between atoms: CD   and  CE  

>  <TORSDO>
F 17

>  <BEGIN_>
RES LYS A 131

$$$$
ligand_79_pose_14_2HRL.pdbqt
 OpenBabel07062320523D

  6  5  0  0  0  0  0  0  0  0999 V2000
   33.1930   34.6630    9.2900 C   0  0  0  0  0  0  0  0  0  0  0  0
   32.0600   35.3600   10.0340 C   0  0  0  0  0  0  0  0  0  0  0  0
   32.4920   35.9950   11.3310 C   0  0  0  0  0  0  0  0  0  0  0  0
   31.8630   37.3710   11.4900 C   0  0  0  0  0  0  0  0  0  0  0  0
   31.4660   37.6110   12.9340 C   0  0  0  0  0  0  0  0  0  0  0  0
   32.2560   36.7510   13.8580 N   0  0  0  0  0  0  0  0  0  0  0  0
  1  2  1  0  0  0  0
  2  3  1  0  0  0  0
  3  4  1  0  0  0  0
  4  5  1  0  0  0  0
  5  6  1  0  0  0  0
M  END
>  <EGIN_R>
ES LYS A 135

>  <REMARK>
  4 active torsions:
  status: ('A' for Active; 'I' for Inactive)
    5  A    between atoms: CA   and  CB  
    6  A    between atoms: CB   and  CG  
    7  A    between atoms: CG   and  CD  
    8  A    between atoms: CD   and  CE  

$$$$
