ligand_70_pose_11_2HRL.pdbqt
 OpenBabel07062320523D

 53 55  0  0  1  0  0  0  0  0999 V2000
   20.5440   35.7940   12.9570 C   0  0  0  0  0  0  0  0  0  0  0  0
   21.0580   34.5020   12.3860 C   0  0  2  0  0  0  0  0  0  0  0  0
   22.4980   34.2190   12.7190 C   0  0  1  0  0  0  0  0  0  0  0  0
   22.8920   32.7760   12.5960 C   0  0  2  0  0  0  0  0  0  0  0  0
   21.9040   30.7060   12.9400 C   0  0  2  0  0  0  0  0  0  0  0  0
   23.2450   30.0550   12.7150 C   0  0  0  0  0  0  0  0  0  0  0  0
   21.8040   31.9480   12.3650 O   0  0  0  0  0  0  0  0  0  0  0  0
   24.3460   30.9380   13.2020 C   0  0  1  0  0  0  0  0  0  0  0  0
   23.8050   32.3050   13.6750 C   0  0  1  0  0  0  0  0  0  0  0  0
   21.6460   30.6910   14.3080 O   0  0  0  0  0  0  0  0  0  0  0  0
   22.3750   31.0560   14.8430 H   0  0  0  0  0  0  0  0  0  0  0  0
   20.8790   29.8300   12.2970 C   0  0  0  0  0  0  0  0  0  0  0  0
   19.7320   30.3080   12.1080 O   0  0  0  0  0  0  0  0  0  0  0  0
   21.1470   28.5300   11.9090 O   0  0  0  0  0  0  0  0  0  0  0  0
   20.4210   27.8120   12.0030 H   0  0  0  0  0  0  0  0  0  0  0  0
   25.0460   30.3280   14.2590 O   0  0  0  0  0  0  0  0  0  0  0  0
   24.9600   29.3470   14.1930 H   0  0  0  0  0  0  0  0  0  0  0  0
   24.9380   33.2330   13.7460 N   0  0  0  0  0  0  0  0  0  0  0  0
   25.6840   33.4590   14.9320 C   0  0  0  0  0  0  0  0  0  0  0  0
   25.2230   33.7600   12.9010 H   0  0  0  0  0  0  0  0  0  0  0  0
   26.8280   34.4080   14.9850 C   0  0  0  0  0  0  0  0  0  0  0  0
   25.3920   32.8500   15.9910 O   0  0  0  0  0  0  0  0  0  0  0  0
   23.2770   35.0310   11.8710 O   0  0  0  0  0  0  0  0  0  0  0  0
   24.1550   35.1360   12.3150 H   0  0  0  0  0  0  0  0  0  0  0  0
   20.8440   34.4510   10.9940 O   0  0  0  0  0  0  0  0  0  0  0  0
   19.8620   34.2300   10.9060 H   0  0  0  0  0  0  0  0  0  0  0  0
   20.4990   36.7950   11.9170 N   0  0  0  0  0  0  0  0  0  0  0  0
   21.4310   37.8480   11.8160 C   0  0  0  0  0  0  0  0  0  0  0  0
   19.7490   36.7800   11.1720 H   0  0  0  0  0  0  0  0  0  0  0  0
   22.3650   37.9790   12.6330 O   0  0  0  0  0  0  0  0  0  0  0  0
   21.3700   38.8090   10.7970 O   0  0  0  0  0  0  0  0  0  0  0  0
   21.3500   38.3950    9.4220 C   0  0  0  0  0  0  0  0  0  0  0  0
   22.4060   37.3920    9.1730 C   0  0  0  0  0  0  0  0  0  0  0  0
   23.7200   37.6030    8.8930 C   0  0  0  0  0  0  0  0  0  0  0  0
   22.2090   36.0690    9.1880 N   0  0  0  0  0  0  0  0  0  0  0  0
   24.2810   36.3680    8.7460 N   0  0  0  0  0  0  0  0  0  0  0  0
   23.3520   35.4580    8.9280 N   0  0  0  0  0  0  0  0  0  0  0  0
   25.6360   36.0990    8.4460 C   0  0  0  0  0  0  0  0  0  0  0  0
   26.2360   36.7620    7.3890 C   0  0  0  0  0  0  0  0  0  0  0  0
   26.3290   35.1870    9.2100 C   0  0  0  0  0  0  0  0  0  0  0  0
   27.5230   36.5060    7.1050 N   0  0  0  0  0  0  0  0  0  0  0  0
   27.6610   34.9360    8.8980 C   0  0  0  0  0  0  0  0  0  0  0  0
   28.2370   35.6090    7.8410 C   0  0  0  0  0  0  0  0  0  0  0  0
   28.3700   34.0390    9.6370 C   0  0  0  0  0  0  0  0  0  0  0  0
   29.5580   35.3620    7.5300 C   0  0  0  0  0  0  0  0  0  0  0  0
   29.7070   33.7840    9.3300 C   0  0  0  0  0  0  0  0  0  0  0  0
   30.2910   34.4480    8.2780 C   0  0  0  0  0  0  0  0  0  0  0  0
   29.8670   25.5550   16.9770 C   0  0  0  0  0  0  0  0  0  0  0  0
   28.3450   25.7220   17.0260 C   0  0  0  0  0  0  0  0  0  0  0  0
   27.6020   24.3980   16.9280 C   0  0  0  0  0  0  0  0  0  0  0  0
   26.5190   24.2790   17.9640 C   0  0  0  0  0  0  0  0  0  0  0  0
   25.2360   23.7840   17.3040 C   0  0  0  0  0  0  0  0  0  0  0  0
   24.9790   22.3700   17.6660 N   0  0  0  0  0  0  0  0  0  0  0  0
  2  3  1  0  0  0  0
  2  1  1  6  0  0  0
  3 23  1  6  0  0  0
  4  3  1  1  0  0  0
  4  9  1  0  0  0  0
  5 12  1  6  0  0  0
  5 10  1  0  0  0  0
  6  5  1  0  0  0  0
  6  8  1  0  0  0  0
  7  4  1  0  0  0  0
  7  5  1  0  0  0  0
  8  9  1  0  0  0  0
  8 16  1  1  0  0  0
  9 18  1  6  0  0  0
 10 11  1  0  0  0  0
 13 12  2  0  0  0  0
 14 15  1  0  0  0  0
 14 12  1  0  0  0  0
 17 16  1  0  0  0  0
 18 19  1  0  0  0  0
 19 21  1  0  0  0  0
 19 22  2  0  0  0  0
 20 18  1  0  0  0  0
 23 24  1  0  0  0  0
 25  2  1  0  0  0  0
 26 25  1  0  0  0  0
 27  1  1  0  0  0  0
 28 27  1  0  0  0  0
 28 30  2  0  0  0  0
 29 27  1  0  0  0  0
 31 28  1  0  0  0  0
 32 31  1  0  0  0  0
 33 35  1  0  0  0  0
 33 32  1  0  0  0  0
 34 33  2  0  0  0  0
 36 34  1  0  0  0  0
 36 37  1  0  0  0  0
 37 35  2  0  0  0  0
 38 36  1  0  0  0  0
 38 40  2  0  0  0  0
 39 38  1  0  0  0  0
 41 39  2  0  0  0  0
 41 43  1  0  0  0  0
 42 40  1  0  0  0  0
 42 44  2  0  0  0  0
 43 42  1  0  0  0  0
 45 43  2  0  0  0  0
 45 47  1  0  0  0  0
 46 44  1  0  0  0  0
 47 46  2  0  0  0  0
 48 49  1  0  0  0  0
 50 49  1  0  0  0  0
 50 51  1  0  0  0  0
 52 53  1  0  0  0  0
 52 51  1  0  0  0  0
M  END
>  <REMARK>
 VINA RESULT:    -5.945      7.290     11.922
 INTER + INTRA:         -14.822
 INTER:                  -9.547
 INTRA:                  -5.275
 UNBOUND:                -4.533
 SMILES CC(=O)N[C@@H]1[C@@H](O)C[C@](O)(C(=O)O)O[C@H]1C(O)[C@H](O)CNC(=O)OCc1cn(-c2cnc3ccccc3c2)nn1
 SMILES IDX 20 1 18 2 16 3 15 4 9 5 8 6 14 7 6 8 5 9 10 10 11 12 12 13
 SMILES IDX 13 14 7 16 4 18 2 19 1 21 3 22 17 23 19 25 21 27 22 28 23 30
 SMILES IDX 24 31 25 32 26 33 27 34 40 35 28 36 39 37 29 38 30 39 38 40
 SMILES IDX 31 41 37 42 32 43 36 44 33 45 35 46 34 47
 H PARENT 10 11 13 15 7 17 4 20 17 24 19 26 21 29
 Flexibility Score: inf
  4 active torsions:
  status: ('A' for Active; 'I' for Inactive)
    1  A    between atoms: CA   and  CB  
    2  A    between atoms: CB   and  CG  
    3  A    between atoms: CG   and  CD  
    4  A    between atoms: CD   and  CE  

>  <TORSDO>
F 15

>  <BEGIN_>
RES LYS A 131

$$$$
ligand_70_pose_11_2HRL.pdbqt
 OpenBabel07062320523D

  6  5  0  0  0  0  0  0  0  0999 V2000
   33.1930   34.6630    9.2900 C   0  0  0  0  0  0  0  0  0  0  0  0
   32.0600   35.3600   10.0340 C   0  0  0  0  0  0  0  0  0  0  0  0
   32.4930   36.0030   11.3260 C   0  0  0  0  0  0  0  0  0  0  0  0
   31.8840   37.3890   11.4670 C   0  0  0  0  0  0  0  0  0  0  0  0
   31.3920   37.6120   12.8850 C   0  0  0  0  0  0  0  0  0  0  0  0
   29.9750   38.0730   12.8940 N   0  0  0  0  0  0  0  0  0  0  0  0
  1  2  1  0  0  0  0
  2  3  1  0  0  0  0
  3  4  1  0  0  0  0
  4  5  1  0  0  0  0
  5  6  1  0  0  0  0
M  END
>  <EGIN_R>
ES LYS A 135

>  <REMARK>
  4 active torsions:
  status: ('A' for Active; 'I' for Inactive)
    5  A    between atoms: CA   and  CB  
    6  A    between atoms: CB   and  CG  
    7  A    between atoms: CG   and  CD  
    8  A    between atoms: CD   and  CE  

$$$$
