ligand_67_pose_11_2HRL.pdbqt
 OpenBabel07062320523D

 50 51  0  0  1  0  0  0  0  0999 V2000
   28.8490   31.4380   17.3390 N   0  0  0  0  0  0  0  0  0  0  0  0
   27.7420   30.5620   17.4520 C   0  0  0  0  0  0  0  0  0  0  0  0
   27.7500   29.4640   16.7990 O   0  0  0  0  0  0  0  0  0  0  0  0
   28.8520   32.3290   17.8640 H   0  0  0  0  0  0  0  0  0  0  0  0
   29.9470   31.0830   16.5040 C   0  0  0  0  0  0  0  0  0  0  0  0
   30.7460   32.2620   16.0200 C   0  0  2  0  0  0  0  0  0  0  0  0
   29.8910   33.4280   15.6220 C   0  0  1  0  0  0  0  0  0  0  0  0
   30.6750   34.3900   14.7570 C   0  0  2  0  0  0  0  0  0  0  0  0
   32.6860   35.5580   14.7620 C   0  0  2  0  0  0  0  0  0  0  0  0
   31.9580   36.7400   14.1910 C   0  0  0  0  0  0  0  0  0  0  0  0
   31.8840   34.6220   15.3590 O   0  0  0  0  0  0  0  0  0  0  0  0
   30.6470   36.8730   14.9390 C   0  0  1  0  0  0  0  0  0  0  0  0
   29.8210   35.6400   14.5990 C   0  0  1  0  0  0  0  0  0  0  0  0
   33.5480   36.0520   15.7690 O   0  0  0  0  0  0  0  0  0  0  0  0
   33.0520   36.3900   16.5390 H   0  0  0  0  0  0  0  0  0  0  0  0
   33.5950   34.9670   13.7290 C   0  0  0  0  0  0  0  0  0  0  0  0
   34.7130   34.4670   13.9850 O   0  0  0  0  0  0  0  0  0  0  0  0
   33.1530   34.9860   12.4140 O   0  0  0  0  0  0  0  0  0  0  0  0
   32.1830   34.8660   12.1390 H   0  0  0  0  0  0  0  0  0  0  0  0
   30.9220   36.8560   16.3140 O   0  0  0  0  0  0  0  0  0  0  0  0
   30.3190   37.4500   16.8210 H   0  0  0  0  0  0  0  0  0  0  0  0
   29.3350   35.7830   13.2350 N   0  0  0  0  0  0  0  0  0  0  0  0
   27.9440   35.9450   13.0120 C   0  0  0  0  0  0  0  0  0  0  0  0
   30.0050   35.7670   12.4140 H   0  0  0  0  0  0  0  0  0  0  0  0
   27.3510   36.0970   11.6590 C   0  0  0  0  0  0  0  0  0  0  0  0
   27.1810   35.9600   14.0210 O   0  0  0  0  0  0  0  0  0  0  0  0
   28.7100   33.0040   15.0140 O   0  0  0  0  0  0  0  0  0  0  0  0
   28.7900   32.8650   14.0460 H   0  0  0  0  0  0  0  0  0  0  0  0
   31.5260   31.8680   14.9430 O   0  0  0  0  0  0  0  0  0  0  0  0
   31.8960   32.6090   14.4290 H   0  0  0  0  0  0  0  0  0  0  0  0
   26.6390   30.8020   18.2210 O   0  0  0  0  0  0  0  0  0  0  0  0
   25.6470   31.7800   17.9750 C   0  0  0  0  0  0  0  0  0  0  0  0
   25.4790   32.0630   16.5300 C   0  0  0  0  0  0  0  0  0  0  0  0
   24.7670   31.3110   15.6240 C   0  0  0  0  0  0  0  0  0  0  0  0
   25.9860   33.0950   15.8370 N   0  0  0  0  0  0  0  0  0  0  0  0
   24.8620   31.9050   14.4150 N   0  0  0  0  0  0  0  0  0  0  0  0
   25.6070   32.9830   14.5730 N   0  0  0  0  0  0  0  0  0  0  0  0
   24.2750   31.4860   13.1480 C   0  0  0  0  0  0  0  0  0  0  0  0
   23.9220   30.0150   13.1860 C   0  0  0  0  0  0  0  0  0  0  0  0
   22.4490   29.8130   13.2910 C   0  0  0  0  0  0  0  0  0  0  0  0
   22.0740   28.7840   14.1450 O   0  0  0  0  0  0  0  0  0  0  0  0
   21.8190   29.5740   12.0780 O   0  0  0  0  0  0  0  0  0  0  0  0
   20.7970   28.3930   13.7510 C   0  0  0  0  0  0  0  0  0  0  0  0
   20.6730   28.8580   12.3300 C   0  0  0  0  0  0  0  0  0  0  0  0
   29.8670   25.5550   16.9770 C   0  0  0  0  0  0  0  0  0  0  0  0
   28.3450   25.7220   17.0260 C   0  0  0  0  0  0  0  0  0  0  0  0
   27.6010   24.4060   16.8620 C   0  0  0  0  0  0  0  0  0  0  0  0
   26.5270   24.2290   17.9000 C   0  0  0  0  0  0  0  0  0  0  0  0
   26.1200   25.5930   18.4490 C   0  0  0  0  0  0  0  0  0  0  0  0
   24.6450   25.7300   18.4540 N   0  0  0  0  0  0  0  0  0  0  0  0
  1  2  1  0  0  0  0
  1  4  1  0  0  0  0
  2 31  1  0  0  0  0
  3  2  2  0  0  0  0
  5  1  1  0  0  0  0
  6  5  1  6  0  0  0
  7 27  1  6  0  0  0
  7  6  1  0  0  0  0
  8 11  1  0  0  0  0
  8  7  1  1  0  0  0
  9 16  1  6  0  0  0
  9 11  1  0  0  0  0
  9 14  1  0  0  0  0
 10  9  1  0  0  0  0
 10 12  1  0  0  0  0
 12 20  1  1  0  0  0
 13 22  1  6  0  0  0
 13  8  1  0  0  0  0
 13 12  1  0  0  0  0
 14 15  1  0  0  0  0
 16 17  2  0  0  0  0
 18 16  1  0  0  0  0
 19 18  1  0  0  0  0
 20 21  1  0  0  0  0
 23 22  1  0  0  0  0
 23 26  2  0  0  0  0
 24 22  1  0  0  0  0
 25 23  1  0  0  0  0
 28 27  1  0  0  0  0
 29  6  1  0  0  0  0
 30 29  1  0  0  0  0
 32 31  1  0  0  0  0
 33 32  1  0  0  0  0
 34 33  2  0  0  0  0
 35 33  1  0  0  0  0
 36 37  1  0  0  0  0
 36 34  1  0  0  0  0
 37 35  2  0  0  0  0
 38 39  1  0  0  0  0
 38 36  1  0  0  0  0
 39 40  1  0  0  0  0
 40 41  1  0  0  0  0
 42 44  1  0  0  0  0
 42 40  1  0  0  0  0
 43 41  1  0  0  0  0
 44 43  1  0  0  0  0
 45 46  1  0  0  0  0
 47 46  1  0  0  0  0
 47 48  1  0  0  0  0
 48 49  1  0  0  0  0
 49 50  1  0  0  0  0
M  END
>  <REMARK>
 VINA RESULT:    -4.286      2.472      6.418
 INTER + INTRA:         -14.212
 INTER:                  -8.641
 INTRA:                  -5.571
 UNBOUND:                -6.292
 SMILES CC(=O)N[C@@H]1[C@@H](O)C[C@](O)(C(=O)O)O[C@H]1C(O)[C@H](O)CNC(=O)OCc1cn(CCC2OCCO2)nn1
 SMILES IDX 21 1 22 2 23 3 20 5 18 6 16 7 15 8 9 9 8 10 14 11 6 12 5 13
 SMILES IDX 10 14 11 16 12 17 13 18 7 20 4 22 2 23 1 25 3 26 17 27 19 29
 SMILES IDX 24 31 25 32 26 33 27 34 37 35 28 36 36 37 29 38 30 39 31 40
 SMILES IDX 32 41 35 42 33 43 34 44
 H PARENT 21 4 10 15 13 19 7 21 4 24 17 28 19 30
 Flexibility Score: inf
  4 active torsions:
  status: ('A' for Active; 'I' for Inactive)
    1  A    between atoms: CA   and  CB  
    2  A    between atoms: CB   and  CG  
    3  A    between atoms: CG   and  CD  
    4  A    between atoms: CD   and  CE  

>  <TORSDO>
F 17

>  <BEGIN_>
RES LYS A 131

$$$$
ligand_67_pose_11_2HRL.pdbqt
 OpenBabel07062320523D

  6  5  0  0  0  0  0  0  0  0999 V2000
   33.1930   34.6630    9.2900 C   0  0  0  0  0  0  0  0  0  0  0  0
   32.0600   35.3600   10.0340 C   0  0  0  0  0  0  0  0  0  0  0  0
   30.7130   34.7200    9.8160 C   0  0  0  0  0  0  0  0  0  0  0  0
   30.4810   34.4470    8.3380 C   0  0  0  0  0  0  0  0  0  0  0  0
   29.2420   35.1720    7.8500 C   0  0  0  0  0  0  0  0  0  0  0  0
   28.0040   34.5290    8.3710 N   0  0  0  0  0  0  0  0  0  0  0  0
  1  2  1  0  0  0  0
  3  2  1  0  0  0  0
  4  3  1  0  0  0  0
  5  4  1  0  0  0  0
  5  6  1  0  0  0  0
M  END
>  <EGIN_R>
ES LYS A 135

>  <REMARK>
  4 active torsions:
  status: ('A' for Active; 'I' for Inactive)
    5  A    between atoms: CA   and  CB  
    6  A    between atoms: CB   and  CG  
    7  A    between atoms: CG   and  CD  
    8  A    between atoms: CD   and  CE  

$$$$
