ligand_15_pose_8_2HRL.pdbqt
 OpenBabel07062320523D

 50 51  0  0  1  0  0  0  0  0999 V2000
   28.1150   33.7520    9.6430 C   0  0  0  0  0  0  0  0  0  0  0  0
   28.7980   34.3500    8.4500 C   0  0  2  0  0  0  0  0  0  0  0  0
   29.7660   35.4410    8.7450 C   0  0  2  0  0  0  0  0  0  0  0  0
   29.2350   36.8340    8.4750 C   0  0  2  0  0  0  0  0  0  0  0  0
   29.1070   38.2610    6.6170 C   0  0  2  0  0  0  0  0  0  0  0  0
   29.2970   39.3780    7.6050 C   0  0  0  0  0  0  0  0  0  0  0  0
   29.4880   37.0710    7.1290 O   0  0  0  0  0  0  0  0  0  0  0  0
   30.4420   39.0020    8.5170 C   0  0  1  0  0  0  0  0  0  0  0  0
   29.9770   37.8020    9.3520 C   0  0  1  0  0  0  0  0  0  0  0  0
   29.9380   38.5050    5.4870 O   0  0  0  0  0  0  0  0  0  0  0  0
   30.2610   39.4360    5.6100 H   0  0  0  0  0  0  0  0  0  0  0  0
   27.6960   38.1790    6.1490 C   0  0  0  0  0  0  0  0  0  0  0  0
   26.8350   39.0360    6.4130 O   0  0  0  0  0  0  0  0  0  0  0  0
   27.3120   37.0940    5.3790 O   0  0  0  0  0  0  0  0  0  0  0  0
   26.3970   37.0280    4.9310 H   0  0  0  0  0  0  0  0  0  0  0  0
   31.4810   38.5360    7.7130 O   0  0  0  0  0  0  0  0  0  0  0  0
   32.3650   38.8180    8.0160 H   0  0  0  0  0  0  0  0  0  0  0  0
   29.0750   38.3470   10.3270 N   0  0  0  0  0  0  0  0  0  0  0  0
   29.4720   38.8310   11.5970 C   0  0  0  0  0  0  0  0  0  0  0  0
   28.0450   38.4070   10.1150 H   0  0  0  0  0  0  0  0  0  0  0  0
   28.4950   39.3860   12.5800 C   0  0  0  0  0  0  0  0  0  0  0  0
   30.6800   38.7920   11.9080 O   0  0  0  0  0  0  0  0  0  0  0  0
   30.9290   35.2140    7.9690 O   0  0  0  0  0  0  0  0  0  0  0  0
   30.8210   35.7170    7.1340 H   0  0  0  0  0  0  0  0  0  0  0  0
   27.7920   34.8580    7.6000 O   0  0  0  0  0  0  0  0  0  0  0  0
   27.2190   35.5040    8.0820 H   0  0  0  0  0  0  0  0  0  0  0  0
   26.8940   34.3770   10.0330 N   0  0  0  0  0  0  0  0  0  0  0  0
   26.8810   35.3190   11.1260 C   0  0  0  0  0  0  0  0  0  0  0  0
   25.9590   34.2200    9.6040 H   0  0  0  0  0  0  0  0  0  0  0  0
   27.9700   35.5550   11.7010 O   0  0  0  0  0  0  0  0  0  0  0  0
   25.7100   35.9420   11.5260 O   0  0  0  0  0  0  0  0  0  0  0  0
   25.3930   35.8520   12.9090 C   0  0  0  0  0  0  0  0  0  0  0  0
   24.9460   34.4510   13.1590 C   0  0  0  0  0  0  0  0  0  0  0  0
   23.8280   33.8360   12.6280 C   0  0  0  0  0  0  0  0  0  0  0  0
   25.5300   33.5170   13.9340 N   0  0  0  0  0  0  0  0  0  0  0  0
   23.7660   32.5750   13.0880 N   0  0  0  0  0  0  0  0  0  0  0  0
   24.8090   32.4240   13.8700 N   0  0  0  0  0  0  0  0  0  0  0  0
   22.8030   31.5580   12.8260 C   0  0  0  0  0  0  0  0  0  0  0  0
   21.4610   31.8390   12.6500 C   0  0  0  0  0  0  0  0  0  0  0  0
   23.1790   30.2340   12.7350 C   0  0  0  0  0  0  0  0  0  0  0  0
   20.5380   30.8410   12.3950 C   0  0  0  0  0  0  0  0  0  0  0  0
   22.2560   29.2280   12.4790 C   0  0  0  0  0  0  0  0  0  0  0  0
   20.9220   29.5150   12.3050 C   0  0  0  0  0  0  0  0  0  0  0  0
   19.6080   28.1800   11.9520 Br  0  0  0  0  0  0  0  0  0  0  0  0
   29.8670   25.5550   16.9770 C   0  0  0  0  0  0  0  0  0  0  0  0
   28.3450   25.7220   17.0260 C   0  0  0  0  0  0  0  0  0  0  0  0
   27.6020   24.3990   16.9250 C   0  0  0  0  0  0  0  0  0  0  0  0
   26.4300   24.3340   17.8650 C   0  0  0  0  0  0  0  0  0  0  0  0
   25.1320   24.3760   17.0640 C   0  0  0  0  0  0  0  0  0  0  0  0
   24.2390   23.2640   17.4660 N   0  0  0  0  0  0  0  0  0  0  0  0
  1 27  1  0  0  0  0
  2  3  1  0  0  0  0
  2  1  1  1  0  0  0
  3 23  1  6  0  0  0
  4  3  1  1  0  0  0
  4  9  1  0  0  0  0
  5 10  1  6  0  0  0
  5  7  1  0  0  0  0
  5  6  1  0  0  0  0
  6  8  1  0  0  0  0
  7  4  1  0  0  0  0
  8 16  1  6  0  0  0
  8  9  1  0  0  0  0
  9 18  1  1  0  0  0
 10 11  1  0  0  0  0
 12 13  2  0  0  0  0
 12  5  1  0  0  0  0
 14 12  1  0  0  0  0
 15 14  1  0  0  0  0
 16 17  1  0  0  0  0
 18 19  1  0  0  0  0
 19 22  2  0  0  0  0
 19 21  1  0  0  0  0
 20 18  1  0  0  0  0
 24 23  1  0  0  0  0
 25 26  1  0  0  0  0
 25  2  1  0  0  0  0
 27 28  1  0  0  0  0
 28 31  1  0  0  0  0
 28 30  2  0  0  0  0
 29 27  1  0  0  0  0
 31 32  1  0  0  0  0
 32 33  1  0  0  0  0
 33 35  1  0  0  0  0
 34 36  1  0  0  0  0
 34 33  2  0  0  0  0
 36 37  1  0  0  0  0
 37 35  2  0  0  0  0
 38 36  1  0  0  0  0
 39 38  2  0  0  0  0
 40 38  1  0  0  0  0
 41 39  1  0  0  0  0
 42 40  2  0  0  0  0
 43 41  2  0  0  0  0
 43 42  1  0  0  0  0
 44 43  1  0  0  0  0
 45 46  1  0  0  0  0
 47 46  1  0  0  0  0
 47 48  1  0  0  0  0
 49 50  1  0  0  0  0
 49 48  1  0  0  0  0
M  END
>  <REMARK>
 VINA RESULT:    -5.303      8.614     12.968
 INTER + INTRA:         -14.339
 INTER:                 -10.358
 INTRA:                  -3.981
 UNBOUND:                -5.161
 SMILES CC(=O)N[C@@H]1[C@@H](O)C[C@](O)(C(=O)O)O[C@H]1C(O)[C@H](O)CNC(=O)OCc1cn(-c2ccc(Br)cc2)nn1
 SMILES IDX 20 1 18 2 16 3 15 4 9 5 8 6 14 7 6 8 5 9 10 10 11 12 12 13
 SMILES IDX 13 14 7 16 4 18 2 19 1 21 3 22 17 23 19 25 21 27 22 28 23 30
 SMILES IDX 24 31 25 32 26 33 27 34 37 35 28 36 36 37 29 38 30 39 35 40
 SMILES IDX 31 41 34 42 32 43 33 44
 H PARENT 10 11 13 15 7 17 4 20 17 24 19 26 21 29
 Flexibility Score: inf
  4 active torsions:
  status: ('A' for Active; 'I' for Inactive)
    1  A    between atoms: CA   and  CB  
    2  A    between atoms: CB   and  CG  
    3  A    between atoms: CG   and  CD  
    4  A    between atoms: CD   and  CE  

>  <TORSDO>
F 15

>  <BEGIN_>
RES LYS A 131

$$$$
ligand_15_pose_8_2HRL.pdbqt
 OpenBabel07062320523D

  6  5  0  0  0  0  0  0  0  0999 V2000
   33.1930   34.6630    9.2900 C   0  0  0  0  0  0  0  0  0  0  0  0
   32.0600   35.3600   10.0340 C   0  0  0  0  0  0  0  0  0  0  0  0
   32.4420   35.8230   11.4160 C   0  0  0  0  0  0  0  0  0  0  0  0
   31.4560   35.2990   12.4490 C   0  0  0  0  0  0  0  0  0  0  0  0
   32.0220   35.4470   13.8490 C   0  0  0  0  0  0  0  0  0  0  0  0
   33.4340   34.9780   13.9090 N   0  0  0  0  0  0  0  0  0  0  0  0
  1  2  1  0  0  0  0
  2  3  1  0  0  0  0
  3  4  1  0  0  0  0
  4  5  1  0  0  0  0
  5  6  1  0  0  0  0
M  END
>  <EGIN_R>
ES LYS A 135

>  <REMARK>
  4 active torsions:
  status: ('A' for Active; 'I' for Inactive)
    5  A    between atoms: CA   and  CB  
    6  A    between atoms: CB   and  CG  
    7  A    between atoms: CG   and  CD  
    8  A    between atoms: CD   and  CE  

$$$$
