ligand_0_pose_13_2HRL.pdbqt
 OpenBabel07062320523D

 54 55  0  0  1  0  0  0  0  0999 V2000
   26.7630   32.6760   15.2280 N   0  0  0  0  0  0  0  0  0  0  0  0
   25.9520   31.9290   16.1220 C   0  0  0  0  0  0  0  0  0  0  0  0
   25.4960   32.4880   17.1350 O   0  0  0  0  0  0  0  0  0  0  0  0
   27.1190   32.1390   14.3860 H   0  0  0  0  0  0  0  0  0  0  0  0
   27.1110   34.0650   15.3960 C   0  0  0  0  0  0  0  0  0  0  0  0
   28.5130   34.3760   14.9010 C   0  0  2  0  0  0  0  0  0  0  0  0
   28.4950   35.2530   13.6840 C   0  0  1  0  0  0  0  0  0  0  0  0
   29.8250   35.7420   13.2510 C   0  0  2  0  0  0  0  0  0  0  0  0
   32.0020   35.8540   14.1020 C   0  0  2  0  0  0  0  0  0  0  0  0
   32.2920   36.2940   12.6970 C   0  0  0  0  0  0  0  0  0  0  0  0
   30.7200   35.4590   14.3170 O   0  0  0  0  0  0  0  0  0  0  0  0
   31.3190   37.2800   12.1500 C   0  0  1  0  0  0  0  0  0  0  0  0
   30.0090   37.1680   12.9220 C   0  0  1  0  0  0  0  0  0  0  0  0
   32.4160   36.8680   14.9970 O   0  0  0  0  0  0  0  0  0  0  0  0
   31.6860   36.9860   15.6730 H   0  0  0  0  0  0  0  0  0  0  0  0
   32.8930   34.6900   14.3800 C   0  0  0  0  0  0  0  0  0  0  0  0
   34.1470   34.8730   14.3230 O   0  0  0  0  0  0  0  0  0  0  0  0
   32.4320   33.4300   14.6950 O   0  0  0  0  0  0  0  0  0  0  0  0
   31.7840   32.9460   14.0950 H   0  0  0  0  0  0  0  0  0  0  0  0
   31.8590   38.5530   12.2530 O   0  0  0  0  0  0  0  0  0  0  0  0
   32.7180   38.5810   12.7440 H   0  0  0  0  0  0  0  0  0  0  0  0
   28.9510   37.8820   12.3190 N   0  0  0  0  0  0  0  0  0  0  0  0
   28.6130   39.1950   12.7060 C   0  0  0  0  0  0  0  0  0  0  0  0
   28.3950   37.4640   11.5460 H   0  0  0  0  0  0  0  0  0  0  0  0
   27.5170   39.9880   12.1100 C   0  0  0  0  0  0  0  0  0  0  0  0
   29.2860   39.7260   13.6160 O   0  0  0  0  0  0  0  0  0  0  0  0
   27.6060   34.8850   12.7020 O   0  0  0  0  0  0  0  0  0  0  0  0
   27.4880   33.8870   12.7040 H   0  0  0  0  0  0  0  0  0  0  0  0
   29.3040   33.2650   14.8280 O   0  0  0  0  0  0  0  0  0  0  0  0
   29.8460   33.1510   15.6570 H   0  0  0  0  0  0  0  0  0  0  0  0
   25.6470   30.5900   15.9070 O   0  0  0  0  0  0  0  0  0  0  0  0
   26.5220   29.5440   16.2950 C   0  0  0  0  0  0  0  0  0  0  0  0
   27.8570   30.0990   16.6720 C   0  0  0  0  0  0  0  0  0  0  0  0
   28.2800   30.3690   17.9600 C   0  0  0  0  0  0  0  0  0  0  0  0
   28.8740   30.4330   15.8630 N   0  0  0  0  0  0  0  0  0  0  0  0
   29.5520   30.8620   17.8770 N   0  0  0  0  0  0  0  0  0  0  0  0
   29.8760   30.8860   16.6180 N   0  0  0  0  0  0  0  0  0  0  0  0
   30.3450   31.2730   18.9970 C   0  0  0  0  0  0  0  0  0  0  0  0
   30.6830   32.5890   19.2090 C   0  0  0  0  0  0  0  0  0  0  0  0
   30.7750   30.2930   19.8860 C   0  0  0  0  0  0  0  0  0  0  0  0
   31.4590   32.9100   20.3260 C   0  0  0  0  0  0  0  0  0  0  0  0
   31.5380   30.6280   20.9780 C   0  0  0  0  0  0  0  0  0  0  0  0
   31.8740   31.9400   21.1870 C   0  0  0  0  0  0  0  0  0  0  0  0
   30.2650   33.6620   18.3200 C   0  0  0  0  0  0  0  0  0  0  0  0
   29.1530   34.2300   18.5710 O   0  0  0  0  0  0  0  0  0  0  0  0
   31.0370   34.0880   17.2070 N   0  0  0  0  0  0  0  0  0  0  0  0
   31.9180   34.6170   17.3120 H   0  0  0  0  0  0  0  0  0  0  0  0
   30.6550   33.8390   16.2450 H   0  0  0  0  0  0  0  0  0  0  0  0
   29.8670   25.5550   16.9770 C   0  0  0  0  0  0  0  0  0  0  0  0
   28.3450   25.7220   17.0260 C   0  0  0  0  0  0  0  0  0  0  0  0
   27.6010   24.4010   16.8980 C   0  0  0  0  0  0  0  0  0  0  0  0
   26.6690   24.1620   18.0540 C   0  0  0  0  0  0  0  0  0  0  0  0
   26.2470   25.5000   18.6530 C   0  0  0  0  0  0  0  0  0  0  0  0
   25.5870   25.2970   19.9640 N   0  0  0  0  0  0  0  0  0  0  0  0
  1  5  1  0  0  0  0
  1  2  1  0  0  0  0
  2  3  2  0  0  0  0
  4  1  1  0  0  0  0
  6  5  1  6  0  0  0
  7 27  1  6  0  0  0
  7  6  1  0  0  0  0
  8  7  1  1  0  0  0
  8 11  1  0  0  0  0
  9 11  1  0  0  0  0
  9 16  1  1  0  0  0
  9 14  1  0  0  0  0
 10  9  1  0  0  0  0
 12 20  1  1  0  0  0
 12 10  1  0  0  0  0
 12 13  1  0  0  0  0
 13 22  1  6  0  0  0
 13  8  1  0  0  0  0
 14 15  1  0  0  0  0
 16 18  1  0  0  0  0
 17 16  2  0  0  0  0
 19 18  1  0  0  0  0
 20 21  1  0  0  0  0
 22 23  1  0  0  0  0
 23 26  2  0  0  0  0
 24 22  1  0  0  0  0
 25 23  1  0  0  0  0
 27 28  1  0  0  0  0
 29  6  1  0  0  0  0
 29 30  1  0  0  0  0
 31  2  1  0  0  0  0
 31 32  1  0  0  0  0
 32 33  1  0  0  0  0
 33 34  2  0  0  0  0
 35 37  2  0  0  0  0
 35 33  1  0  0  0  0
 36 34  1  0  0  0  0
 36 38  1  0  0  0  0
 37 36  1  0  0  0  0
 38 39  2  0  0  0  0
 38 40  1  0  0  0  0
 39 41  1  0  0  0  0
 40 42  2  0  0  0  0
 41 43  2  0  0  0  0
 42 43  1  0  0  0  0
 44 45  2  0  0  0  0
 44 39  1  0  0  0  0
 46 47  1  0  0  0  0
 46 44  1  0  0  0  0
 48 46  1  0  0  0  0
 49 50  1  0  0  0  0
 51 50  1  0  0  0  0
 51 52  1  0  0  0  0
 52 53  1  0  0  0  0
 53 54  1  0  0  0  0
M  END
>  <REMARK>
 VINA RESULT:    -5.237      3.913      8.303
 INTER + INTRA:         -14.784
 INTER:                  -8.032
 INTRA:                  -6.752
 UNBOUND:                -5.414
 SMILES CC(=O)N[C@@H]1[C@@H](O)C[C@](O)(C(=O)O)O[C@H]1C(O)[C@H](O)CNC(=O)OCc1cn(-c2ccccc2C(N)=O)nn1
 SMILES IDX 21 1 22 2 23 3 20 5 18 6 16 7 15 8 9 9 8 10 14 11 6 12 5 13
 SMILES IDX 10 14 11 16 12 17 13 18 7 20 4 22 2 23 1 25 3 26 17 27 19 29
 SMILES IDX 24 31 25 32 26 33 27 34 39 35 28 36 38 37 29 38 34 39 30 40
 SMILES IDX 33 41 31 42 32 43 35 44 37 45 36 46
 H PARENT 21 4 10 15 13 19 7 21 4 24 17 28 19 30 36 47 36 48
 Flexibility Score: inf
  4 active torsions:
  status: ('A' for Active; 'I' for Inactive)
    1  A    between atoms: CA   and  CB  
    2  A    between atoms: CB   and  CG  
    3  A    between atoms: CG   and  CD  
    4  A    between atoms: CD   and  CE  

>  <TORSDO>
F 16

>  <BEGIN_>
RES LYS A 131

$$$$
ligand_0_pose_13_2HRL.pdbqt
 OpenBabel07062320523D

  6  5  0  0  0  0  0  0  0  0999 V2000
   33.1930   34.6630    9.2900 C   0  0  0  0  0  0  0  0  0  0  0  0
   32.0600   35.3600   10.0340 C   0  0  0  0  0  0  0  0  0  0  0  0
   30.8080   35.5200    9.2110 C   0  0  0  0  0  0  0  0  0  0  0  0
   30.0820   34.1900    9.0740 C   0  0  0  0  0  0  0  0  0  0  0  0
   28.6610   34.4060    8.5910 C   0  0  0  0  0  0  0  0  0  0  0  0
   27.6860   33.6730    9.4450 N   0  0  0  0  0  0  0  0  0  0  0  0
  1  2  1  0  0  0  0
  3  2  1  0  0  0  0
  4  3  1  0  0  0  0
  5  4  1  0  0  0  0
  5  6  1  0  0  0  0
M  END
>  <EGIN_R>
ES LYS A 135

>  <REMARK>
  4 active torsions:
  status: ('A' for Active; 'I' for Inactive)
    5  A    between atoms: CA   and  CB  
    6  A    between atoms: CB   and  CG  
    7  A    between atoms: CG   and  CD  
    8  A    between atoms: CD   and  CE  

$$$$
