ligand_55_pose_14_2HRL.pdbqt
 OpenBabel07062320523D

 51 51  0  0  1  0  0  0  0  0999 V2000
   26.0930   29.2280   22.0740 N   0  0  0  0  0  0  0  0  0  0  0  0
   24.7750   29.2120   21.5760 C   0  0  0  0  0  0  0  0  0  0  0  0
   24.0890   30.2350   21.4180 O   0  0  0  0  0  0  0  0  0  0  0  0
   26.5840   28.2870   22.1570 H   0  0  0  0  0  0  0  0  0  0  0  0
   26.8190   30.3760   22.4690 C   0  0  0  0  0  0  0  0  0  0  0  0
   28.2760   30.4350   22.0840 C   0  0  2  0  0  0  0  0  0  0  0  0
   29.0560   29.8770   23.2340 C   0  0  2  0  0  0  0  0  0  0  0  0
   30.0130   28.7680   22.9350 C   0  0  2  0  0  0  0  0  0  0  0  0
   32.0590   28.4190   21.8450 C   0  0  2  0  0  0  0  0  0  0  0  0
   31.6440   27.0430   21.4480 C   0  0  0  0  0  0  0  0  0  0  0  0
   31.1210   29.2310   22.3510 O   0  0  0  0  0  0  0  0  0  0  0  0
   30.1600   26.8950   21.2490 C   0  0  1  0  0  0  0  0  0  0  0  0
   29.3820   27.5460   22.3420 C   0  0  1  0  0  0  0  0  0  0  0  0
   32.6380   29.0390   20.7310 O   0  0  0  0  0  0  0  0  0  0  0  0
   32.8350   28.3530   20.0590 H   0  0  0  0  0  0  0  0  0  0  0  0
   33.1500   28.2930   22.8540 C   0  0  0  0  0  0  0  0  0  0  0  0
   33.5010   29.2100   23.6190 O   0  0  0  0  0  0  0  0  0  0  0  0
   33.8490   27.0780   22.9810 O   0  0  0  0  0  0  0  0  0  0  0  0
   33.4000   26.1900   22.7960 H   0  0  0  0  0  0  0  0  0  0  0  0
   29.8380   27.3460   19.9750 O   0  0  0  0  0  0  0  0  0  0  0  0
   29.1380   26.7380   19.6240 H   0  0  0  0  0  0  0  0  0  0  0  0
   29.0970   26.5350   23.3440 N   0  0  0  0  0  0  0  0  0  0  0  0
   27.7820   26.1580   23.7270 C   0  0  0  0  0  0  0  0  0  0  0  0
   29.8770   26.0160   23.8490 H   0  0  0  0  0  0  0  0  0  0  0  0
   27.5390   25.1060   24.7700 C   0  0  0  0  0  0  0  0  0  0  0  0
   26.8310   26.7470   23.1520 O   0  0  0  0  0  0  0  0  0  0  0  0
   28.0610   29.4400   24.1570 O   0  0  0  0  0  0  0  0  0  0  0  0
   27.5280   30.1970   24.4790 H   0  0  0  0  0  0  0  0  0  0  0  0
   28.5910   31.7110   21.7030 O   0  0  0  0  0  0  0  0  0  0  0  0
   28.1260   32.3800   22.2200 H   0  0  0  0  0  0  0  0  0  0  0  0
   24.1840   27.9990   21.2370 O   0  0  0  0  0  0  0  0  0  0  0  0
   24.0820   27.5180   19.9210 C   0  0  0  0  0  0  0  0  0  0  0  0
   25.3320   27.7590   19.1760 C   0  0  0  0  0  0  0  0  0  0  0  0
   25.5230   28.4930   18.0220 C   0  0  0  0  0  0  0  0  0  0  0  0
   26.5310   27.2880   19.5080 N   0  0  0  0  0  0  0  0  0  0  0  0
   26.8210   28.4460   17.6910 N   0  0  0  0  0  0  0  0  0  0  0  0
   27.4110   27.7020   18.6200 N   0  0  0  0  0  0  0  0  0  0  0  0
   27.5230   29.0430   16.5850 C   0  0  0  0  0  0  0  0  0  0  0  0
   27.7080   30.5390   16.7650 C   0  0  0  0  0  0  0  0  0  0  0  0
   28.1190   30.7640   18.1340 N   0  0  0  0  0  0  0  0  0  0  0  0
   27.9350   29.9490   18.7360 H   0  0  0  0  0  0  0  0  0  0  0  0
   29.7690   31.2320   18.2510 S   0  0  0  0  0  0  0  0  0  0  0  0
   30.3890   30.4170   19.3560 O   0  0  0  0  0  0  0  0  0  0  0  0
   30.4500   31.0000   16.9410 O   0  0  0  0  0  0  0  0  0  0  0  0
   29.9090   32.9490   18.6930 C   0  0  0  0  0  0  0  0  0  0  0  0
   29.8670   25.5550   16.9770 C   0  0  0  0  0  0  0  0  0  0  0  0
   28.3450   25.7220   17.0260 C   0  0  0  0  0  0  0  0  0  0  0  0
   27.5990   24.4210   16.7730 C   0  0  0  0  0  0  0  0  0  0  0  0
   26.7140   24.0420   17.9280 C   0  0  0  0  0  0  0  0  0  0  0  0
   25.2540   24.2530   17.5400 C   0  0  0  0  0  0  0  0  0  0  0  0
   24.3760   24.1080   18.7250 N   0  0  0  0  0  0  0  0  0  0  0  0
  1  4  1  0  0  0  0
  1  5  1  0  0  0  0
  2  1  1  0  0  0  0
  3  2  2  0  0  0  0
  6  5  1  1  0  0  0
  6  7  1  0  0  0  0
  7 27  1  1  0  0  0
  8  7  1  6  0  0  0
  9 14  1  6  0  0  0
  9 11  1  0  0  0  0
  9 16  1  0  0  0  0
 10  9  1  0  0  0  0
 11  8  1  0  0  0  0
 12 20  1  6  0  0  0
 12 10  1  0  0  0  0
 12 13  1  0  0  0  0
 13  8  1  0  0  0  0
 13 22  1  1  0  0  0
 15 14  1  0  0  0  0
 16 18  1  0  0  0  0
 16 17  2  0  0  0  0
 19 18  1  0  0  0  0
 21 20  1  0  0  0  0
 22 23  1  0  0  0  0
 22 24  1  0  0  0  0
 23 25  1  0  0  0  0
 26 23  2  0  0  0  0
 27 28  1  0  0  0  0
 29  6  1  0  0  0  0
 29 30  1  0  0  0  0
 31  2  1  0  0  0  0
 32 31  1  0  0  0  0
 33 35  1  0  0  0  0
 33 32  1  0  0  0  0
 34 33  2  0  0  0  0
 36 34  1  0  0  0  0
 36 37  1  0  0  0  0
 37 35  2  0  0  0  0
 38 39  1  0  0  0  0
 38 36  1  0  0  0  0
 39 40  1  0  0  0  0
 40 42  1  0  0  0  0
 40 41  1  0  0  0  0
 42 45  1  0  0  0  0
 42 43  2  0  0  0  0
 44 42  2  0  0  0  0
 46 47  1  0  0  0  0
 48 47  1  0  0  0  0
 48 49  1  0  0  0  0
 50 49  1  0  0  0  0
 50 51  1  0  0  0  0
M  END
>  <REMARK>
 VINA RESULT:    -4.262      2.704      6.483
 INTER + INTRA:         -14.401
 INTER:                  -6.970
 INTRA:                  -7.431
 UNBOUND:                -6.277
 SMILES CC(=O)N[C@@H]1[C@@H](O)C[C@](O)(C(=O)O)O[C@H]1C(O)[C@H](O)CNC(=O)OCc1cn(CCNS(C)(=O)=O)nn1
 SMILES IDX 21 1 22 2 23 3 20 5 18 6 16 7 15 8 9 9 8 10 14 11 6 12 5 13
 SMILES IDX 10 14 11 16 12 17 13 18 7 20 4 22 2 23 1 25 3 26 17 27 19 29
 SMILES IDX 24 31 25 32 26 33 27 34 37 35 28 36 36 37 29 38 30 39 31 40
 SMILES IDX 32 42 34 43 35 44 33 45
 H PARENT 21 4 10 15 13 19 7 21 4 24 17 28 19 30 31 41
 Flexibility Score: inf
  4 active torsions:
  status: ('A' for Active; 'I' for Inactive)
    1  A    between atoms: CA   and  CB  
    2  A    between atoms: CB   and  CG  
    3  A    between atoms: CG   and  CD  
    4  A    between atoms: CD   and  CE  

>  <TORSDO>
F 18

>  <BEGIN_>
RES LYS A 131

$$$$
ligand_55_pose_14_2HRL.pdbqt
 OpenBabel07062320523D

  6  5  0  0  0  0  0  0  0  0999 V2000
   33.1930   34.6630    9.2900 C   0  0  0  0  0  0  0  0  0  0  0  0
   32.0600   35.3600   10.0340 C   0  0  0  0  0  0  0  0  0  0  0  0
   30.7820   35.4470    9.2410 C   0  0  0  0  0  0  0  0  0  0  0  0
   30.2060   34.0600    8.9980 C   0  0  0  0  0  0  0  0  0  0  0  0
   28.6980   34.0750    9.1580 C   0  0  0  0  0  0  0  0  0  0  0  0
   28.3110   34.3810   10.5640 N   0  0  0  0  0  0  0  0  0  0  0  0
  1  2  1  0  0  0  0
  3  2  1  0  0  0  0
  4  5  1  0  0  0  0
  4  3  1  0  0  0  0
  5  6  1  0  0  0  0
M  END
>  <EGIN_R>
ES LYS A 135

>  <REMARK>
  4 active torsions:
  status: ('A' for Active; 'I' for Inactive)
    5  A    between atoms: CA   and  CB  
    6  A    between atoms: CB   and  CG  
    7  A    between atoms: CG   and  CD  
    8  A    between atoms: CD   and  CE  

$$$$
