ligand_37_pose_5_2HRL.pdbqt
 OpenBabel07062320523D

 55 56  0  0  1  0  0  0  0  0999 V2000
   28.1420   40.4970    7.2670 O   0  0  0  0  0  0  0  0  0  0  0  0
   26.9040   40.4350    6.5850 C   0  0  0  0  0  0  0  0  0  0  0  0
   25.7210   40.8840    7.2090 N   0  0  0  0  0  0  0  0  0  0  0  0
   25.8390   41.2460    8.2080 H   0  0  0  0  0  0  0  0  0  0  0  0
   26.9480   39.9670    5.4320 O   0  0  0  0  0  0  0  0  0  0  0  0
   24.4400   40.8680    6.5770 C   0  0  0  0  0  0  0  0  0  0  0  0
   23.3660   40.3730    7.4870 C   0  0  2  0  0  0  0  0  0  0  0  0
   23.4000   38.8480    7.5550 C   0  0  2  0  0  0  0  0  0  0  0  0
   23.4940   38.3150    8.9500 C   0  0  2  0  0  0  0  0  0  0  0  0
   21.3440   37.3990    9.1110 C   0  0  2  0  0  0  0  0  0  0  0  0
   20.9270   38.5870    9.9170 C   0  0  0  0  0  0  0  0  0  0  0  0
   22.6970   37.1670    9.1050 O   0  0  0  0  0  0  0  0  0  0  0  0
   22.0370   38.9360   10.8880 C   0  0  1  0  0  0  0  0  0  0  0  0
   23.2490   39.3010   10.0450 C   0  0  1  0  0  0  0  0  0  0  0  0
   20.8420   37.4870    7.8330 O   0  0  0  0  0  0  0  0  0  0  0  0
   20.1840   36.7680    7.6220 H   0  0  0  0  0  0  0  0  0  0  0  0
   20.7290   36.1740    9.7410 C   0  0  0  0  0  0  0  0  0  0  0  0
   19.5040   36.1430   10.0210 O   0  0  0  0  0  0  0  0  0  0  0  0
   21.4780   35.0440   10.0340 O   0  0  0  0  0  0  0  0  0  0  0  0
   21.0390   34.1720   10.3670 H   0  0  0  0  0  0  0  0  0  0  0  0
   21.6550   39.9710   11.7190 O   0  0  0  0  0  0  0  0  0  0  0  0
   22.3660   40.2430   12.3520 H   0  0  0  0  0  0  0  0  0  0  0  0
   24.4090   39.4740   10.9250 N   0  0  0  0  0  0  0  0  0  0  0  0
   25.1630   40.6830   10.9750 C   0  0  0  0  0  0  0  0  0  0  0  0
   24.7270   38.6940   11.5590 H   0  0  0  0  0  0  0  0  0  0  0  0
   26.3360   40.7990   11.8940 C   0  0  0  0  0  0  0  0  0  0  0  0
   24.8340   41.6470   10.2450 O   0  0  0  0  0  0  0  0  0  0  0  0
   24.5100   38.3920    6.8330 O   0  0  0  0  0  0  0  0  0  0  0  0
   25.2450   38.1810    7.4710 H   0  0  0  0  0  0  0  0  0  0  0  0
   22.1220   40.7900    7.0170 O   0  0  0  0  0  0  0  0  0  0  0  0
   22.1880   41.2700    6.1400 H   0  0  0  0  0  0  0  0  0  0  0  0
   28.8250   39.2920    7.5400 C   0  0  0  0  0  0  0  0  0  0  0  0
   28.2600   38.5850    8.7060 C   0  0  0  0  0  0  0  0  0  0  0  0
   28.9130   38.0360    9.7830 C   0  0  0  0  0  0  0  0  0  0  0  0
   26.9540   38.3530    8.9190 N   0  0  0  0  0  0  0  0  0  0  0  0
   28.0000   37.4860   10.6190 N   0  0  0  0  0  0  0  0  0  0  0  0
   26.8320   37.6920   10.0740 N   0  0  0  0  0  0  0  0  0  0  0  0
   28.2910   36.8150   11.8570 C   0  0  1  0  0  0  0  0  0  0  0  0
   28.0650   37.7510   13.0240 C   0  0  0  0  0  0  0  0  0  0  0  0
   27.4900   35.5870   11.9480 C   0  0  0  0  0  0  0  0  0  0  0  0
   26.4480   35.5730   12.6690 O   0  0  0  0  0  0  0  0  0  0  0  0
   27.8220   34.4300   11.2760 O   0  0  0  0  0  0  0  0  0  0  0  0
   27.2110   33.9280   10.1280 C   0  0  0  0  0  0  0  0  0  0  0  0
   27.9180   34.4560    8.9290 C   0  0  0  0  0  0  0  0  0  0  0  0
   29.2940   34.4330    8.8650 C   0  0  0  0  0  0  0  0  0  0  0  0
   27.2020   34.9650    7.8800 C   0  0  0  0  0  0  0  0  0  0  0  0
   29.9500   34.9150    7.7590 C   0  0  0  0  0  0  0  0  0  0  0  0
   27.8280   35.4530    6.7670 C   0  0  0  0  0  0  0  0  0  0  0  0
   29.2000   35.4270    6.7080 C   0  0  0  0  0  0  0  0  0  0  0  0
   29.8670   25.5550   16.9770 C   0  0  0  0  0  0  0  0  0  0  0  0
   28.3450   25.7220   17.0260 C   0  0  0  0  0  0  0  0  0  0  0  0
   27.6010   24.4020   16.8890 C   0  0  0  0  0  0  0  0  0  0  0  0
   26.7520   24.1030   18.0930 C   0  0  0  0  0  0  0  0  0  0  0  0
   25.5600   23.2480   17.6750 C   0  0  0  0  0  0  0  0  0  0  0  0
   24.5680   24.0660   16.9360 N   0  0  0  0  0  0  0  0  0  0  0  0
  1 32  1  0  0  0  0
  2  3  1  0  0  0  0
  2  1  1  0  0  0  0
  3  4  1  0  0  0  0
  5  2  2  0  0  0  0
  6  3  1  0  0  0  0
  7  6  1  6  0  0  0
  7  8  1  0  0  0  0
  8 28  1  6  0  0  0
  9  8  1  6  0  0  0
  9 12  1  0  0  0  0
  9 14  1  0  0  0  0
 10 15  1  6  0  0  0
 10 17  1  0  0  0  0
 10 11  1  0  0  0  0
 11 13  1  0  0  0  0
 12 10  1  0  0  0  0
 13 21  1  6  0  0  0
 14 13  1  0  0  0  0
 14 23  1  1  0  0  0
 16 15  1  0  0  0  0
 17 18  2  0  0  0  0
 17 19  1  0  0  0  0
 19 20  1  0  0  0  0
 21 22  1  0  0  0  0
 23 24  1  0  0  0  0
 23 25  1  0  0  0  0
 24 26  1  0  0  0  0
 27 24  2  0  0  0  0
 28 29  1  0  0  0  0
 30  7  1  0  0  0  0
 31 30  1  0  0  0  0
 32 33  1  0  0  0  0
 33 35  1  0  0  0  0
 33 34  2  0  0  0  0
 34 36  1  0  0  0  0
 35 37  2  0  0  0  0
 36 38  1  0  0  0  0
 37 36  1  0  0  0  0
 38 40  1  0  0  0  0
 38 39  1  1  0  0  0
 40 41  2  0  0  0  0
 42 40  1  0  0  0  0
 43 42  1  0  0  0  0
 44 43  1  0  0  0  0
 45 44  1  0  0  0  0
 46 44  2  0  0  0  0
 47 45  2  0  0  0  0
 48 46  1  0  0  0  0
 49 48  2  0  0  0  0
 49 47  1  0  0  0  0
 50 51  1  0  0  0  0
 52 51  1  0  0  0  0
 52 53  1  0  0  0  0
 54 53  1  0  0  0  0
 55 54  1  0  0  0  0
M  END
>  <REMARK>
 VINA RESULT:    -5.710      1.998      3.812
 INTER + INTRA:         -16.328
 INTER:                  -9.625
 INTRA:                  -6.703
 UNBOUND:                -5.110
 SMILES CC(=O)N[C@@H]1[C@@H](O)C[C@](O)(C(=O)O)O[C@H]1C(O)[C@H](O)CNC(=O)OCc1cn([C@@H](C)C(=O)OCc2ccccc2)nn1
 SMILES IDX 24 1 22 2 21 3 23 5 20 6 18 7 16 8 15 9 9 10 8 11 14 12 6 13
 SMILES IDX 5 14 10 15 11 17 12 18 13 19 7 21 4 23 2 24 1 26 3 27 17 28
 SMILES IDX 19 30 25 32 26 33 27 34 42 35 28 36 41 37 29 38 30 39 31 40
 SMILES IDX 32 41 33 42 34 43 35 44 36 45 40 46 37 47 39 48 38 49
 H PARENT 21 4 10 16 13 20 7 22 4 25 17 29 19 31
 Flexibility Score: inf
  4 active torsions:
  status: ('A' for Active; 'I' for Inactive)
    1  A    between atoms: CA   and  CB  
    2  A    between atoms: CB   and  CG  
    3  A    between atoms: CG   and  CD  
    4  A    between atoms: CD   and  CE  

>  <TORSDO>
F 19

>  <BEGIN_>
RES LYS A 131

$$$$
ligand_37_pose_5_2HRL.pdbqt
 OpenBabel07062320523D

  6  5  0  0  0  0  0  0  0  0999 V2000
   33.1930   34.6630    9.2900 C   0  0  0  0  0  0  0  0  0  0  0  0
   32.0600   35.3600   10.0340 C   0  0  0  0  0  0  0  0  0  0  0  0
   32.5350   36.3790   11.0370 C   0  0  0  0  0  0  0  0  0  0  0  0
   32.1760   35.9490   12.4510 C   0  0  0  0  0  0  0  0  0  0  0  0
   31.1500   34.8320   12.4230 C   0  0  0  0  0  0  0  0  0  0  0  0
   30.5510   34.6200   13.7700 N   0  0  0  0  0  0  0  0  0  0  0  0
  1  2  1  0  0  0  0
  2  3  1  0  0  0  0
  3  4  1  0  0  0  0
  5  4  1  0  0  0  0
  5  6  1  0  0  0  0
M  END
>  <EGIN_R>
ES LYS A 135

>  <REMARK>
  4 active torsions:
  status: ('A' for Active; 'I' for Inactive)
    5  A    between atoms: CA   and  CB  
    6  A    between atoms: CB   and  CG  
    7  A    between atoms: CG   and  CD  
    8  A    between atoms: CD   and  CE  

$$$$
