ligand_28_pose_16_2HRL.pdbqt
 OpenBabel07062320523D

 53 55  0  0  1  0  0  0  0  0999 V2000
   27.2360   37.6770   11.0380 N   0  0  0  0  0  0  0  0  0  0  0  0
   28.2470   36.8200   11.5560 C   0  0  0  0  0  0  0  0  0  0  0  0
   28.0000   35.5800   11.7100 O   0  0  0  0  0  0  0  0  0  0  0  0
   27.4650   38.6750   10.9240 H   0  0  0  0  0  0  0  0  0  0  0  0
   25.9660   37.0810   10.7100 C   0  0  0  0  0  0  0  0  0  0  0  0
   25.7540   36.8930    9.2410 C   0  0  2  0  0  0  0  0  0  0  0  0
   25.1230   38.0990    8.5830 C   0  0  2  0  0  0  0  0  0  0  0  0
   25.9870   38.5940    7.4270 C   0  0  2  0  0  0  0  0  0  0  0  0
   28.1910   39.2240    7.7890 C   0  0  2  0  0  0  0  0  0  0  0  0
   28.1430   40.3450    6.7770 C   0  0  0  0  0  0  0  0  0  0  0  0
   27.2920   38.2220    7.5560 O   0  0  0  0  0  0  0  0  0  0  0  0
   26.7820   40.4660    6.1230 C   0  0  1  0  0  0  0  0  0  0  0  0
   25.7620   40.0590    7.1620 C   0  0  1  0  0  0  0  0  0  0  0  0
   28.0600   39.7320    9.0960 O   0  0  0  0  0  0  0  0  0  0  0  0
   27.1540   40.0340    9.2910 H   0  0  0  0  0  0  0  0  0  0  0  0
   29.5570   38.6380    7.7140 C   0  0  0  0  0  0  0  0  0  0  0  0
   30.0980   38.1410    8.7480 O   0  0  0  0  0  0  0  0  0  0  0  0
   30.3080   38.5970    6.5520 O   0  0  0  0  0  0  0  0  0  0  0  0
   29.8950   38.9990    5.7050 H   0  0  0  0  0  0  0  0  0  0  0  0
   26.5620   41.7480    5.6310 O   0  0  0  0  0  0  0  0  0  0  0  0
   25.5890   41.8470    5.4890 H   0  0  0  0  0  0  0  0  0  0  0  0
   24.4170   40.2940    6.7730 N   0  0  0  0  0  0  0  0  0  0  0  0
   23.7000   41.4520    7.1710 C   0  0  0  0  0  0  0  0  0  0  0  0
   23.9530   39.5600    6.1600 H   0  0  0  0  0  0  0  0  0  0  0  0
   22.2820   41.6710    6.7410 C   0  0  0  0  0  0  0  0  0  0  0  0
   24.3170   42.2750    7.8950 O   0  0  0  0  0  0  0  0  0  0  0  0
   25.0840   39.1240    9.5280 O   0  0  0  0  0  0  0  0  0  0  0  0
   24.1480   39.4100    9.6710 H   0  0  0  0  0  0  0  0  0  0  0  0
   24.9330   35.7780    9.0720 O   0  0  0  0  0  0  0  0  0  0  0  0
   24.8200   35.2670    9.9090 H   0  0  0  0  0  0  0  0  0  0  0  0
   29.5120   37.2770   11.9080 O   0  0  0  0  0  0  0  0  0  0  0  0
   29.6740   37.9190   13.1680 C   0  0  0  0  0  0  0  0  0  0  0  0
   30.7510   37.2670   13.9470 C   0  0  0  0  0  0  0  0  0  0  0  0
   31.0890   35.9470   13.8570 C   0  0  0  0  0  0  0  0  0  0  0  0
   31.5690   37.8040   14.8520 N   0  0  0  0  0  0  0  0  0  0  0  0
   32.0990   35.7220   14.7090 N   0  0  0  0  0  0  0  0  0  0  0  0
   32.3800   36.8570   15.3050 N   0  0  0  0  0  0  0  0  0  0  0  0
   32.7490   34.4460   14.9160 C   0  0  0  0  0  0  0  0  0  0  0  0
   31.8720   33.6550   15.8250 C   0  0  0  0  0  0  0  0  0  0  0  0
   31.7710   34.0360   17.1430 C   0  0  0  0  0  0  0  0  0  0  0  0
   31.1670   32.5620   15.3890 C   0  0  0  0  0  0  0  0  0  0  0  0
   30.9590   33.3120   18.0090 C   0  0  0  0  0  0  0  0  0  0  0  0
   30.3620   31.8450   16.2520 C   0  0  0  0  0  0  0  0  0  0  0  0
   30.2520   32.2130   17.5650 C   0  0  0  0  0  0  0  0  0  0  0  0
   29.5750   30.7300   16.0330 O   0  0  0  0  0  0  0  0  0  0  0  0
   29.3960   31.3460   18.2120 O   0  0  0  0  0  0  0  0  0  0  0  0
   28.7990   30.5490   17.1980 C   0  0  0  0  0  0  0  0  0  0  0  0
   29.8670   25.5550   16.9770 C   0  0  0  0  0  0  0  0  0  0  0  0
   28.3450   25.7220   17.0260 C   0  0  0  0  0  0  0  0  0  0  0  0
   27.5990   24.4410   16.6850 C   0  0  0  0  0  0  0  0  0  0  0  0
   27.0200   23.7810   17.9050 C   0  0  0  0  0  0  0  0  0  0  0  0
   25.6270   23.2490   17.5830 C   0  0  0  0  0  0  0  0  0  0  0  0
   24.7720   24.3290   17.0360 N   0  0  0  0  0  0  0  0  0  0  0  0
  1  2  1  0  0  0  0
  2  3  2  0  0  0  0
  2 31  1  0  0  0  0
  4  1  1  0  0  0  0
  5  1  1  0  0  0  0
  6  5  1  1  0  0  0
  7  6  1  0  0  0  0
  7 27  1  1  0  0  0
  8 11  1  0  0  0  0
  8  7  1  1  0  0  0
  9 16  1  6  0  0  0
  9 14  1  0  0  0  0
 10  9  1  0  0  0  0
 11  9  1  0  0  0  0
 12 20  1  1  0  0  0
 12 10  1  0  0  0  0
 12 13  1  0  0  0  0
 13 22  1  6  0  0  0
 13  8  1  0  0  0  0
 14 15  1  0  0  0  0
 16 17  2  0  0  0  0
 18 16  1  0  0  0  0
 19 18  1  0  0  0  0
 21 20  1  0  0  0  0
 22 23  1  0  0  0  0
 23 26  2  0  0  0  0
 24 22  1  0  0  0  0
 25 23  1  0  0  0  0
 27 28  1  0  0  0  0
 29  6  1  0  0  0  0
 29 30  1  0  0  0  0
 31 32  1  0  0  0  0
 32 33  1  0  0  0  0
 33 35  1  0  0  0  0
 34 33  2  0  0  0  0
 34 36  1  0  0  0  0
 35 37  2  0  0  0  0
 36 38  1  0  0  0  0
 36 37  1  0  0  0  0
 38 39  1  0  0  0  0
 39 40  1  0  0  0  0
 40 42  2  0  0  0  0
 41 39  2  0  0  0  0
 41 43  1  0  0  0  0
 43 44  2  0  0  0  0
 44 42  1  0  0  0  0
 44 46  1  0  0  0  0
 45 43  1  0  0  0  0
 45 47  1  0  0  0  0
 47 46  1  0  0  0  0
 48 49  1  0  0  0  0
 50 49  1  0  0  0  0
 50 51  1  0  0  0  0
 52 51  1  0  0  0  0
 53 52  1  0  0  0  0
M  END
>  <REMARK>
 VINA RESULT:    -4.795      2.038      3.126
 INTER + INTRA:         -14.583
 INTER:                  -8.580
 INTRA:                  -6.003
 UNBOUND:                -6.003
 SMILES CC(=O)N[C@@H]1[C@@H](O)C[C@](O)(C(=O)O)O[C@H]1C(O)[C@H](O)CNC(=O)OCc1cn(Cc2ccc3c(c2)OCO3)nn1
 SMILES IDX 21 1 22 2 23 3 20 5 18 6 16 7 15 8 9 9 8 10 14 11 6 12 5 13
 SMILES IDX 10 14 11 16 12 17 13 18 7 20 4 22 2 23 1 25 3 26 17 27 19 29
 SMILES IDX 24 31 25 32 26 33 27 34 40 35 28 36 39 37 29 38 30 39 31 40
 SMILES IDX 35 41 32 42 34 43 33 44 36 45 38 46 37 47
 H PARENT 21 4 10 15 13 19 7 21 4 24 17 28 19 30
 Flexibility Score: inf
  4 active torsions:
  status: ('A' for Active; 'I' for Inactive)
    1  A    between atoms: CA   and  CB  
    2  A    between atoms: CB   and  CG  
    3  A    between atoms: CG   and  CD  
    4  A    between atoms: CD   and  CE  

>  <TORSDO>
F 16

>  <BEGIN_>
RES LYS A 131

$$$$
ligand_28_pose_16_2HRL.pdbqt
 OpenBabel07062320523D

  6  5  0  0  0  0  0  0  0  0999 V2000
   33.1930   34.6630    9.2900 C   0  0  0  0  0  0  0  0  0  0  0  0
   32.0600   35.3600   10.0340 C   0  0  0  0  0  0  0  0  0  0  0  0
   30.7070   34.7470    9.7820 C   0  0  0  0  0  0  0  0  0  0  0  0
   30.4630   34.5780    8.2900 C   0  0  0  0  0  0  0  0  0  0  0  0
   29.0130   34.8630    7.9520 C   0  0  0  0  0  0  0  0  0  0  0  0
   28.8840   35.4410    6.5860 N   0  0  0  0  0  0  0  0  0  0  0  0
  1  2  1  0  0  0  0
  3  2  1  0  0  0  0
  4  3  1  0  0  0  0
  5  4  1  0  0  0  0
  6  5  1  0  0  0  0
M  END
>  <EGIN_R>
ES LYS A 135

>  <REMARK>
  4 active torsions:
  status: ('A' for Active; 'I' for Inactive)
    5  A    between atoms: CA   and  CB  
    6  A    between atoms: CB   and  CG  
    7  A    between atoms: CG   and  CD  
    8  A    between atoms: CD   and  CE  

$$$$
