ligand_46_pose_4_2HRL.pdbqt
 OpenBabel07062320523D

 50 51  0  0  1  0  0  0  0  0999 V2000
   25.9140   41.9230    6.7600 N   0  0  0  0  0  0  0  0  0  0  0  0
   27.1420   42.1030    7.4290 C   0  0  0  0  0  0  0  0  0  0  0  0
   27.2050   42.3570    8.6430 O   0  0  0  0  0  0  0  0  0  0  0  0
   25.9870   41.7080    5.7310 H   0  0  0  0  0  0  0  0  0  0  0  0
   24.6440   42.0210    7.4110 C   0  0  0  0  0  0  0  0  0  0  0  0
   23.9970   40.6570    7.4760 C   0  0  2  0  0  0  0  0  0  0  0  0
   24.3560   39.9370    8.7440 C   0  0  2  0  0  0  0  0  0  0  0  0
   24.2170   38.4360    8.6440 C   0  0  2  0  0  0  0  0  0  0  0  0
   22.4790   36.9570    9.1470 C   0  0  2  0  0  0  0  0  0  0  0  0
   23.5470   35.8590    9.0180 C   0  0  0  0  0  0  0  0  0  0  0  0
   22.9360   38.0260    8.4360 O   0  0  0  0  0  0  0  0  0  0  0  0
   24.6530   36.3250    9.9630 C   0  0  1  0  0  0  0  0  0  0  0  0
   24.9780   37.7850    9.7450 C   0  0  1  0  0  0  0  0  0  0  0  0
   22.1920   37.1990   10.4740 O   0  0  0  0  0  0  0  0  0  0  0  0
   21.3350   36.7750   10.6910 H   0  0  0  0  0  0  0  0  0  0  0  0
   21.2590   36.4380    8.4320 C   0  0  0  0  0  0  0  0  0  0  0  0
   20.2840   35.9710    9.0560 O   0  0  0  0  0  0  0  0  0  0  0  0
   21.1990   36.4690    7.0520 O   0  0  0  0  0  0  0  0  0  0  0  0
   21.2200   35.5980    6.5480 H   0  0  0  0  0  0  0  0  0  0  0  0
   24.1720   36.0900   11.2510 O   0  0  0  0  0  0  0  0  0  0  0  0
   24.2130   36.9250   11.7670 H   0  0  0  0  0  0  0  0  0  0  0  0
   26.4070   37.9220    9.4100 N   0  0  0  0  0  0  0  0  0  0  0  0
   27.4380   37.7010   10.3560 C   0  0  0  0  0  0  0  0  0  0  0  0
   26.6820   38.1970    8.4230 H   0  0  0  0  0  0  0  0  0  0  0  0
   28.8870   37.8260   10.0660 C   0  0  0  0  0  0  0  0  0  0  0  0
   27.1050   37.3750   11.5230 O   0  0  0  0  0  0  0  0  0  0  0  0
   23.6330   40.4710    9.7930 O   0  0  0  0  0  0  0  0  0  0  0  0
   23.8960   41.4160    9.9010 H   0  0  0  0  0  0  0  0  0  0  0  0
   24.4300   39.9780    6.3370 O   0  0  0  0  0  0  0  0  0  0  0  0
   23.7150   39.4640    5.9020 H   0  0  0  0  0  0  0  0  0  0  0  0
   28.3470   41.9980    6.7360 O   0  0  0  0  0  0  0  0  0  0  0  0
   29.2260   40.9390    7.0270 C   0  0  0  0  0  0  0  0  0  0  0  0
   28.6040   39.6200    6.7530 C   0  0  0  0  0  0  0  0  0  0  0  0
   29.2690   38.4470    6.5190 C   0  0  0  0  0  0  0  0  0  0  0  0
   27.2960   39.3570    6.6880 N   0  0  0  0  0  0  0  0  0  0  0  0
   28.3420   37.4960    6.3150 N   0  0  0  0  0  0  0  0  0  0  0  0
   27.1450   38.0830    6.4240 N   0  0  0  0  0  0  0  0  0  0  0  0
   28.5300   36.0970    6.0300 C   0  0  0  0  0  0  0  0  0  0  0  0
   28.5370   35.2910    7.2800 C   0  0  0  0  0  0  0  0  0  0  0  0
   27.3530   34.8890    7.8870 C   0  0  0  0  0  0  0  0  0  0  0  0
   29.7050   34.9070    7.8910 C   0  0  0  0  0  0  0  0  0  0  0  0
   27.3670   34.1460    9.0410 C   0  0  0  0  0  0  0  0  0  0  0  0
   29.7300   34.1580    9.0540 C   0  0  0  0  0  0  0  0  0  0  0  0
   28.5490   33.7670    9.6420 C   0  0  0  0  0  0  0  0  0  0  0  0
   29.8670   25.5550   16.9770 C   0  0  0  0  0  0  0  0  0  0  0  0
   28.3450   25.7220   17.0260 C   0  0  0  0  0  0  0  0  0  0  0  0
   27.5990   24.4190   16.7810 C   0  0  0  0  0  0  0  0  0  0  0  0
   26.8740   23.9430   18.0090 C   0  0  0  0  0  0  0  0  0  0  0  0
   25.5240   24.6460   18.1080 C   0  0  0  0  0  0  0  0  0  0  0  0
   24.6850   24.3270   16.9290 N   0  0  0  0  0  0  0  0  0  0  0  0
  1  5  1  0  0  0  0
  1  2  1  0  0  0  0
  2  3  2  0  0  0  0
  4  1  1  0  0  0  0
  6  5  1  1  0  0  0
  6  7  1  0  0  0  0
  7 27  1  1  0  0  0
  8  7  1  1  0  0  0
  8 13  1  0  0  0  0
  9 16  1  6  0  0  0
  9 14  1  0  0  0  0
 10  9  1  0  0  0  0
 10 12  1  0  0  0  0
 11  8  1  0  0  0  0
 11  9  1  0  0  0  0
 12 20  1  1  0  0  0
 13 22  1  6  0  0  0
 13 12  1  0  0  0  0
 14 15  1  0  0  0  0
 16 17  2  0  0  0  0
 18 16  1  0  0  0  0
 19 18  1  0  0  0  0
 20 21  1  0  0  0  0
 22 23  1  0  0  0  0
 23 26  2  0  0  0  0
 24 22  1  0  0  0  0
 25 23  1  0  0  0  0
 27 28  1  0  0  0  0
 29  6  1  0  0  0  0
 30 29  1  0  0  0  0
 31 32  1  0  0  0  0
 31  2  1  0  0  0  0
 33 32  1  0  0  0  0
 34 33  2  0  0  0  0
 35 33  1  0  0  0  0
 36 37  1  0  0  0  0
 36 34  1  0  0  0  0
 37 35  2  0  0  0  0
 38 36  1  0  0  0  0
 38 39  1  0  0  0  0
 39 40  2  0  0  0  0
 39 41  1  0  0  0  0
 40 42  1  0  0  0  0
 41 43  2  0  0  0  0
 42 44  2  0  0  0  0
 43 44  1  0  0  0  0
 45 46  1  0  0  0  0
 47 46  1  0  0  0  0
 47 48  1  0  0  0  0
 48 49  1  0  0  0  0
 50 49  1  0  0  0  0
M  END
>  <REMARK>
 VINA RESULT:    -5.488      1.541      2.047
 INTER + INTRA:         -15.109
 INTER:                  -9.709
 INTRA:                  -5.399
 UNBOUND:                -5.290
 SMILES CC(=O)N[C@@H]1[C@@H](O)C[C@](O)(C(=O)O)O[C@H]1C(O)[C@H](O)CNC(=O)OCc1cn(Cc2ccccc2)nn1
 SMILES IDX 21 1 22 2 23 3 20 5 18 6 16 7 15 8 9 9 8 10 14 11 6 12 5 13
 SMILES IDX 10 14 11 16 12 17 13 18 7 20 4 22 2 23 1 25 3 26 17 27 19 29
 SMILES IDX 24 31 25 32 26 33 27 34 37 35 28 36 36 37 29 38 30 39 31 40
 SMILES IDX 35 41 32 42 34 43 33 44
 H PARENT 21 4 10 15 13 19 7 21 4 24 17 28 19 30
 Flexibility Score: inf
  4 active torsions:
  status: ('A' for Active; 'I' for Inactive)
    1  A    between atoms: CA   and  CB  
    2  A    between atoms: CB   and  CG  
    3  A    between atoms: CG   and  CD  
    4  A    between atoms: CD   and  CE  

>  <TORSDO>
F 16

>  <BEGIN_>
RES LYS A 131

$$$$
ligand_46_pose_4_2HRL.pdbqt
 OpenBabel07062320523D

  6  5  0  0  0  0  0  0  0  0999 V2000
   33.1930   34.6630    9.2900 C   0  0  0  0  0  0  0  0  0  0  0  0
   32.0600   35.3600   10.0340 C   0  0  0  0  0  0  0  0  0  0  0  0
   32.4070   35.7270   11.4540 C   0  0  0  0  0  0  0  0  0  0  0  0
   32.2220   37.2190   11.6830 C   0  0  0  0  0  0  0  0  0  0  0  0
   31.4670   37.4690   12.9750 C   0  0  0  0  0  0  0  0  0  0  0  0
   30.8640   38.8310   12.9880 N   0  0  0  0  0  0  0  0  0  0  0  0
  1  2  1  0  0  0  0
  2  3  1  0  0  0  0
  3  4  1  0  0  0  0
  4  5  1  0  0  0  0
  5  6  1  0  0  0  0
M  END
>  <EGIN_R>
ES LYS A 135

>  <REMARK>
  4 active torsions:
  status: ('A' for Active; 'I' for Inactive)
    5  A    between atoms: CA   and  CB  
    6  A    between atoms: CB   and  CG  
    7  A    between atoms: CG   and  CD  
    8  A    between atoms: CD   and  CE  

$$$$
