ligand_83_pose_11_2HRL.pdbqt
 OpenBabel07062320523D

 56 57  0  0  1  0  0  0  0  0999 V2000
   24.7840   40.3210    7.7350 O   0  0  0  0  0  0  0  0  0  0  0  0
   25.6140   40.1200    6.6190 C   0  0  0  0  0  0  0  0  0  0  0  0
   26.7810   39.3510    6.6660 N   0  0  0  0  0  0  0  0  0  0  0  0
   27.0360   38.9090    7.6010 H   0  0  0  0  0  0  0  0  0  0  0  0
   25.2550   40.6670    5.5670 O   0  0  0  0  0  0  0  0  0  0  0  0
   27.6580   39.1180    5.5440 C   0  0  0  0  0  0  0  0  0  0  0  0
   29.0680   39.0140    6.0590 C   0  0  2  0  0  0  0  0  0  0  0  0
   29.8490   40.1950    5.5310 C   0  0  2  0  0  0  0  0  0  0  0  0
   31.0540   40.4920    6.4140 C   0  0  2  0  0  0  0  0  0  0  0  0
   33.2780   39.8320    6.6160 C   0  0  2  0  0  0  0  0  0  0  0  0
   33.0480   39.9840    8.1080 C   0  0  0  0  0  0  0  0  0  0  0  0
   32.0720   39.6920    5.9740 O   0  0  0  0  0  0  0  0  0  0  0  0
   31.7240   39.3560    8.4790 C   0  0  1  0  0  0  0  0  0  0  0  0
   30.6450   40.2340    7.8530 C   0  0  1  0  0  0  0  0  0  0  0  0
   34.0180   38.6620    6.3540 O   0  0  0  0  0  0  0  0  0  0  0  0
   33.9990   38.5290    5.3790 H   0  0  0  0  0  0  0  0  0  0  0  0
   34.0030   40.9740    6.0430 C   0  0  0  0  0  0  0  0  0  0  0  0
   34.6390   41.7500    6.7740 O   0  0  0  0  0  0  0  0  0  0  0  0
   33.9850   41.1970    4.6790 O   0  0  0  0  0  0  0  0  0  0  0  0
   34.3170   40.5000    4.0380 H   0  0  0  0  0  0  0  0  0  0  0  0
   31.5530   38.0870    7.9490 O   0  0  0  0  0  0  0  0  0  0  0  0
   30.7080   38.0320    7.4590 H   0  0  0  0  0  0  0  0  0  0  0  0
   30.5380   41.4490    8.6100 N   0  0  0  0  0  0  0  0  0  0  0  0
   29.2820   42.0430    8.8460 C   0  0  0  0  0  0  0  0  0  0  0  0
   31.3700   41.9510    9.0190 H   0  0  0  0  0  0  0  0  0  0  0  0
   29.1770   43.3090    9.6340 C   0  0  0  0  0  0  0  0  0  0  0  0
   28.2270   41.5220    8.4000 O   0  0  0  0  0  0  0  0  0  0  0  0
   29.0370   41.3100    5.5790 O   0  0  0  0  0  0  0  0  0  0  0  0
   28.9630   41.7720    4.7120 H   0  0  0  0  0  0  0  0  0  0  0  0
   29.6650   37.8020    5.7250 O   0  0  0  0  0  0  0  0  0  0  0  0
   30.5450   38.0200    5.3270 H   0  0  0  0  0  0  0  0  0  0  0  0
   23.7690   39.3520    8.0420 C   0  0  0  0  0  0  0  0  0  0  0  0
   24.3400   38.1440    8.6280 C   0  0  0  0  0  0  0  0  0  0  0  0
   24.5650   37.9230    9.9640 C   0  0  0  0  0  0  0  0  0  0  0  0
   24.7350   37.0560    7.9510 N   0  0  0  0  0  0  0  0  0  0  0  0
   25.0960   36.6960   10.0590 N   0  0  0  0  0  0  0  0  0  0  0  0
   25.1880   36.1970    8.8500 N   0  0  0  0  0  0  0  0  0  0  0  0
   25.4900   36.0630   11.3300 C   0  0  0  0  0  0  0  0  0  0  0  0
   26.3370   34.8410   11.0560 C   0  0  2  0  0  0  0  0  0  0  0  0
   25.8600   33.8500   11.9420 O   0  0  0  0  0  0  0  0  0  0  0  0
   26.5560   33.5180   12.5390 H   0  0  0  0  0  0  0  0  0  0  0  0
   27.7720   35.1630   11.3280 C   0  0  0  0  0  0  0  0  0  0  0  0
   28.4850   35.1840   10.0480 N   0  0  0  0  0  0  0  0  0  0  0  0
   28.8020   34.1090    9.2900 C   0  0  0  0  0  0  0  0  0  0  0  0
   28.9100   36.2830    9.4500 C   0  0  0  0  0  0  0  0  0  0  0  0
   29.4450   34.5650    8.1850 C   0  0  0  0  0  0  0  0  0  0  0  0
   29.5070   35.8910    8.2900 N   0  0  0  0  0  0  0  0  0  0  0  0
   28.7930   37.6450    9.8950 N   0  0  0  0  0  0  0  0  0  0  0  0
   29.4740   38.1180   10.8190 O   0  0  0  0  0  0  0  0  0  0  0  0
   27.8840   38.4750    9.2710 O   0  0  0  0  0  0  0  0  0  0  0  0
   29.8670   25.5550   16.9770 C   0  0  0  0  0  0  0  0  0  0  0  0
   28.3450   25.7220   17.0260 C   0  0  0  0  0  0  0  0  0  0  0  0
   27.6000   24.4070   16.8550 C   0  0  0  0  0  0  0  0  0  0  0  0
   26.1440   24.5300   17.2080 C   0  0  0  0  0  0  0  0  0  0  0  0
   26.0000   24.7410   18.7110 C   0  0  0  0  0  0  0  0  0  0  0  0
   25.4840   23.5120   19.3600 N   0  0  0  0  0  0  0  0  0  0  0  0
  1 32  1  0  0  0  0
  2  3  1  0  0  0  0
  2  1  1  0  0  0  0
  3  4  1  0  0  0  0
  5  2  2  0  0  0  0
  6  3  1  0  0  0  0
  7  6  1  6  0  0  0
  8 28  1  1  0  0  0
  8  7  1  0  0  0  0
  9  8  1  6  0  0  0
  9 14  1  0  0  0  0
 10 17  1  6  0  0  0
 10 11  1  0  0  0  0
 11 13  1  0  0  0  0
 12  9  1  0  0  0  0
 12 10  1  0  0  0  0
 13 21  1  6  0  0  0
 14 13  1  0  0  0  0
 14 23  1  1  0  0  0
 15 10  1  0  0  0  0
 16 15  1  0  0  0  0
 17 18  2  0  0  0  0
 19 17  1  0  0  0  0
 20 19  1  0  0  0  0
 22 21  1  0  0  0  0
 23 24  1  0  0  0  0
 23 25  1  0  0  0  0
 24 26  1  0  0  0  0
 27 24  2  0  0  0  0
 29 28  1  0  0  0  0
 30  7  1  0  0  0  0
 31 30  1  0  0  0  0
 32 33  1  0  0  0  0
 33 34  2  0  0  0  0
 34 36  1  0  0  0  0
 35 33  1  0  0  0  0
 35 37  2  0  0  0  0
 36 38  1  0  0  0  0
 37 36  1  0  0  0  0
 39 42  1  1  0  0  0
 39 38  1  0  0  0  0
 39 40  1  0  0  0  0
 40 41  1  0  0  0  0
 43 42  1  0  0  0  0
 44 43  1  0  0  0  0
 45 48  1  0  0  0  0
 45 43  1  0  0  0  0
 46 47  1  0  0  0  0
 46 44  2  0  0  0  0
 47 45  2  0  0  0  0
 48 49  2  0  0  0  0
 50 48  2  0  0  0  0
 51 52  1  0  0  0  0
 53 52  1  0  0  0  0
 53 54  1  0  0  0  0
 54 55  1  0  0  0  0
 55 56  1  0  0  0  0
M  END
>  <REMARK>
 VINA RESULT:    -3.625      7.500     15.191
 INTER + INTRA:         -15.673
 INTER:                  -8.720
 INTRA:                  -6.953
 UNBOUND:                -8.446
 SMILES CC(=O)N[C@@H]1[C@@H](O)C[C@](O)(C(=O)O)O[C@H]1C(O)[C@H](O)CNC(=O)OCc1cn(CC(O)Cn2ccnc2[N+](=O)[O-])nn1
 SMILES IDX 24 1 22 2 21 3 23 5 20 6 18 7 16 8 15 9 9 10 8 11 14 12 6 13
 SMILES IDX 5 14 10 15 11 17 12 18 13 19 7 21 4 23 2 24 1 26 3 27 17 28
 SMILES IDX 19 30 25 32 26 33 27 34 42 35 28 36 41 37 29 38 30 39 31 40
 SMILES IDX 32 42 33 43 34 44 37 45 35 46 36 47 38 48 39 49 40 50
 H PARENT 21 4 10 16 13 20 7 22 4 25 17 29 19 31 31 41
 Flexibility Score: inf
  4 active torsions:
  status: ('A' for Active; 'I' for Inactive)
    1  A    between atoms: CA   and  CB  
    2  A    between atoms: CB   and  CG  
    3  A    between atoms: CG   and  CD  
    4  A    between atoms: CD   and  CE  

>  <TORSDO>
F 20

>  <BEGIN_>
RES LYS A 131

$$$$
ligand_83_pose_11_2HRL.pdbqt
 OpenBabel07062320523D

  6  5  0  0  0  0  0  0  0  0999 V2000
   33.1930   34.6630    9.2900 C   0  0  0  0  0  0  0  0  0  0  0  0
   32.0600   35.3600   10.0340 C   0  0  0  0  0  0  0  0  0  0  0  0
   32.5340   36.2630   11.1440 C   0  0  0  0  0  0  0  0  0  0  0  0
   32.2360   35.6460   12.5020 C   0  0  0  0  0  0  0  0  0  0  0  0
   31.3270   36.5500   13.3100 C   0  0  0  0  0  0  0  0  0  0  0  0
   32.0460   37.1290   14.4780 N   0  0  0  0  0  0  0  0  0  0  0  0
  1  2  1  0  0  0  0
  2  3  1  0  0  0  0
  3  4  1  0  0  0  0
  4  5  1  0  0  0  0
  5  6  1  0  0  0  0
M  END
>  <EGIN_R>
ES LYS A 135

>  <REMARK>
  4 active torsions:
  status: ('A' for Active; 'I' for Inactive)
    5  A    between atoms: CA   and  CB  
    6  A    between atoms: CB   and  CG  
    7  A    between atoms: CG   and  CD  
    8  A    between atoms: CD   and  CE  

$$$$
