ligand_2_pose_14_2HRL.pdbqt
 OpenBabel07062320523D

 50 51  0  0  1  0  0  0  0  0999 V2000
   22.9520   35.1200   12.7290 C   0  0  0  0  0  0  0  0  0  0  0  0
   22.3770   34.6050   11.4480 C   0  0  2  0  0  0  0  0  0  0  0  0
   21.8090   35.8040   10.6710 C   0  0  2  0  0  0  0  0  0  0  0  0
   22.4310   35.8990    9.2800 C   0  0  2  0  0  0  0  0  0  0  0  0
   24.7610   36.1770    9.3350 C   0  0  2  0  0  0  0  0  0  0  0  0
   24.8390   37.0710    8.1170 C   0  0  0  0  0  0  0  0  0  0  0  0
   23.6930   35.3500    9.3830 O   0  0  0  0  0  0  0  0  0  0  0  0
   23.4650   37.3130    7.6050 C   0  0  1  0  0  0  0  0  0  0  0  0
   22.5000   37.2810    8.7750 C   0  0  1  0  0  0  0  0  0  0  0  0
   24.8990   37.0130   10.4410 O   0  0  0  0  0  0  0  0  0  0  0  0
   24.1120   36.8410   11.0170 H   0  0  0  0  0  0  0  0  0  0  0  0
   25.9780   35.3250    9.2850 C   0  0  0  0  0  0  0  0  0  0  0  0
   26.1600   34.6200    8.2670 O   0  0  0  0  0  0  0  0  0  0  0  0
   26.8870   35.2950   10.3060 O   0  0  0  0  0  0  0  0  0  0  0  0
   26.7770   35.9300   11.1000 H   0  0  0  0  0  0  0  0  0  0  0  0
   23.3470   38.4810    6.8610 O   0  0  0  0  0  0  0  0  0  0  0  0
   23.9940   39.1510    7.1610 H   0  0  0  0  0  0  0  0  0  0  0  0
   21.2910   37.8960    8.3490 N   0  0  0  0  0  0  0  0  0  0  0  0
   20.7310   39.0340    8.9790 C   0  0  0  0  0  0  0  0  0  0  0  0
   20.8190   37.4480    7.5190 H   0  0  0  0  0  0  0  0  0  0  0  0
   19.4720   39.6450    8.5080 C   0  0  0  0  0  0  0  0  0  0  0  0
   21.3940   39.4700    9.9600 O   0  0  0  0  0  0  0  0  0  0  0  0
   22.0540   36.9830   11.3830 O   0  0  0  0  0  0  0  0  0  0  0  0
   21.4150   37.7050   11.1250 H   0  0  0  0  0  0  0  0  0  0  0  0
   21.4190   33.6340   11.6320 O   0  0  0  0  0  0  0  0  0  0  0  0
   21.0940   33.1820   10.8340 H   0  0  0  0  0  0  0  0  0  0  0  0
   24.3700   35.2540   12.7780 N   0  0  0  0  0  0  0  0  0  0  0  0
   25.2580   34.3030   13.3390 C   0  0  0  0  0  0  0  0  0  0  0  0
   24.8150   36.1230   12.3710 H   0  0  0  0  0  0  0  0  0  0  0  0
   24.8510   33.2410   13.8380 O   0  0  0  0  0  0  0  0  0  0  0  0
   26.6450   34.5480   13.3400 O   0  0  0  0  0  0  0  0  0  0  0  0
   27.1860   35.6560   14.0550 C   0  0  0  0  0  0  0  0  0  0  0  0
   27.5630   36.6740   13.0440 C   0  0  0  0  0  0  0  0  0  0  0  0
   28.8140   36.8810   12.5410 C   0  0  0  0  0  0  0  0  0  0  0  0
   26.7570   37.5490   12.4610 N   0  0  0  0  0  0  0  0  0  0  0  0
   28.7210   37.8940   11.6540 N   0  0  0  0  0  0  0  0  0  0  0  0
   27.4620   38.2900   11.6170 N   0  0  0  0  0  0  0  0  0  0  0  0
   29.8420   38.3950   10.9200 C   0  0  0  0  0  0  0  0  0  0  0  0
   31.0840   37.8440   11.1230 C   0  0  0  0  0  0  0  0  0  0  0  0
   29.6210   39.4190   10.0340 C   0  0  0  0  0  0  0  0  0  0  0  0
   32.1390   38.3580   10.3930 C   0  0  0  0  0  0  0  0  0  0  0  0
   30.6970   39.9100    9.3210 C   0  0  0  0  0  0  0  0  0  0  0  0
   31.9570   39.3930    9.4880 C   0  0  0  0  0  0  0  0  0  0  0  0
   33.2730   40.0570    8.5580 Cl  0  0  0  0  0  0  0  0  0  0  0  0
   29.8670   25.5550   16.9770 C   0  0  0  0  0  0  0  0  0  0  0  0
   28.3450   25.7220   17.0260 C   0  0  0  0  0  0  0  0  0  0  0  0
   27.5990   24.4850   16.5490 C   0  0  0  0  0  0  0  0  0  0  0  0
   27.1950   23.5930   17.6900 C   0  0  0  0  0  0  0  0  0  0  0  0
   25.6810   23.4100   17.6820 C   0  0  0  0  0  0  0  0  0  0  0  0
   25.1410   23.4960   19.0600 N   0  0  0  0  0  0  0  0  0  0  0  0
  1 27  1  0  0  0  0
  2 25  1  0  0  0  0
  2  1  1  1  0  0  0
  3 23  1  1  0  0  0
  3  2  1  0  0  0  0
  4  7  1  0  0  0  0
  4  3  1  1  0  0  0
  5 12  1  6  0  0  0
  5  7  1  0  0  0  0
  5 10  1  0  0  0  0
  6  5  1  0  0  0  0
  8 16  1  1  0  0  0
  8  6  1  0  0  0  0
  8  9  1  0  0  0  0
  9 18  1  6  0  0  0
  9  4  1  0  0  0  0
 10 11  1  0  0  0  0
 12 14  1  0  0  0  0
 13 12  2  0  0  0  0
 14 15  1  0  0  0  0
 16 17  1  0  0  0  0
 18 19  1  0  0  0  0
 19 22  2  0  0  0  0
 20 18  1  0  0  0  0
 21 19  1  0  0  0  0
 24 23  1  0  0  0  0
 26 25  1  0  0  0  0
 27 28  1  0  0  0  0
 28 31  1  0  0  0  0
 28 30  2  0  0  0  0
 29 27  1  0  0  0  0
 31 32  1  0  0  0  0
 33 32  1  0  0  0  0
 34 33  2  0  0  0  0
 35 33  1  0  0  0  0
 36 34  1  0  0  0  0
 37 36  1  0  0  0  0
 37 35  2  0  0  0  0
 38 39  1  0  0  0  0
 38 36  1  0  0  0  0
 40 38  2  0  0  0  0
 41 39  2  0  0  0  0
 42 43  2  0  0  0  0
 42 40  1  0  0  0  0
 43 41  1  0  0  0  0
 44 43  1  0  0  0  0
 45 46  1  0  0  0  0
 47 46  1  0  0  0  0
 47 48  1  0  0  0  0
 49 48  1  0  0  0  0
 49 50  1  0  0  0  0
M  END
>  <REMARK>
 VINA RESULT:    -4.013      8.489     13.296
 INTER + INTRA:         -13.952
 INTER:                  -6.945
 INTRA:                  -7.007
 UNBOUND:                -7.007
 SMILES CC(=O)N[C@@H]1[C@@H](O)C[C@](O)(C(=O)O)O[C@H]1C(O)[C@H](O)CNC(=O)OCc1cn(-c2ccc(Cl)cc2)nn1
 SMILES IDX 20 1 18 2 16 3 15 4 9 5 8 6 14 7 6 8 5 9 10 10 11 12 12 13
 SMILES IDX 13 14 7 16 4 18 2 19 1 21 3 22 17 23 19 25 21 27 22 28 23 30
 SMILES IDX 24 31 25 32 26 33 27 34 37 35 28 36 36 37 29 38 30 39 35 40
 SMILES IDX 31 41 34 42 32 43 33 44
 H PARENT 10 11 13 15 7 17 4 20 17 24 19 26 21 29
 Flexibility Score: inf
  4 active torsions:
  status: ('A' for Active; 'I' for Inactive)
    1  A    between atoms: CA   and  CB  
    2  A    between atoms: CB   and  CG  
    3  A    between atoms: CG   and  CD  
    4  A    between atoms: CD   and  CE  

>  <TORSDO>
F 15

>  <BEGIN_>
RES LYS A 131

$$$$
ligand_2_pose_14_2HRL.pdbqt
 OpenBabel07062320523D

  6  5  0  0  0  0  0  0  0  0999 V2000
   33.1930   34.6630    9.2900 C   0  0  0  0  0  0  0  0  0  0  0  0
   32.0600   35.3600   10.0340 C   0  0  0  0  0  0  0  0  0  0  0  0
   30.7090   34.7350    9.7970 C   0  0  0  0  0  0  0  0  0  0  0  0
   30.3940   34.6860    8.3100 C   0  0  0  0  0  0  0  0  0  0  0  0
   29.4470   35.8070    7.9290 C   0  0  0  0  0  0  0  0  0  0  0  0
   28.9630   35.6490    6.5290 N   0  0  0  0  0  0  0  0  0  0  0  0
  1  2  1  0  0  0  0
  3  2  1  0  0  0  0
  4  3  1  0  0  0  0
  5  4  1  0  0  0  0
  6  5  1  0  0  0  0
M  END
>  <EGIN_R>
ES LYS A 135

>  <REMARK>
  4 active torsions:
  status: ('A' for Active; 'I' for Inactive)
    5  A    between atoms: CA   and  CB  
    6  A    between atoms: CB   and  CG  
    7  A    between atoms: CG   and  CD  
    8  A    between atoms: CD   and  CE  

$$$$
