ligand_50_pose_4_2HRL.pdbqt
 OpenBabel07062320523D

 50 50  0  0  1  0  0  0  0  0999 V2000
   28.8130   29.7380   16.0400 N   0  0  0  0  0  0  0  0  0  0  0  0
   27.6120   29.6660   16.7900 C   0  0  0  0  0  0  0  0  0  0  0  0
   26.9100   30.6740   16.9840 O   0  0  0  0  0  0  0  0  0  0  0  0
   29.3430   28.8210   15.9330 H   0  0  0  0  0  0  0  0  0  0  0  0
   29.2700   30.9610   15.4750 C   0  0  0  0  0  0  0  0  0  0  0  0
   30.5800   31.4470   16.0550 C   0  0  2  0  0  0  0  0  0  0  0  0
   30.2240   32.5090   17.0880 C   0  0  1  0  0  0  0  0  0  0  0  0
   31.2150   33.6760   17.0080 C   0  0  2  0  0  0  0  0  0  0  0  0
   31.3130   35.0150   18.9040 C   0  0  2  0  0  0  0  0  0  0  0  0
   31.8740   36.1730   18.1020 C   0  0  0  0  0  0  0  0  0  0  0  0
   31.7110   33.8650   18.2670 O   0  0  0  0  0  0  0  0  0  0  0  0
   31.1830   36.1810   16.7830 C   0  0  1  0  0  0  0  0  0  0  0  0
   30.5550   34.8680   16.3920 C   0  0  1  0  0  0  0  0  0  0  0  0
   29.9310   35.1860   18.9400 O   0  0  0  0  0  0  0  0  0  0  0  0
   29.6470   36.0600   18.5880 H   0  0  0  0  0  0  0  0  0  0  0  0
   31.8520   35.0030   20.2880 C   0  0  0  0  0  0  0  0  0  0  0  0
   32.5460   35.9790   20.6710 O   0  0  0  0  0  0  0  0  0  0  0  0
   31.5900   33.9410   21.1200 O   0  0  0  0  0  0  0  0  0  0  0  0
   31.2260   34.0930   22.0550 H   0  0  0  0  0  0  0  0  0  0  0  0
   30.1550   37.1290   16.8430 O   0  0  0  0  0  0  0  0  0  0  0  0
   29.5960   36.9550   17.6230 H   0  0  0  0  0  0  0  0  0  0  0  0
   30.6230   34.7970   14.9480 N   0  0  0  0  0  0  0  0  0  0  0  0
   29.4210   34.7930   14.1950 C   0  0  0  0  0  0  0  0  0  0  0  0
   31.5290   34.7480   14.4260 H   0  0  0  0  0  0  0  0  0  0  0  0
   29.4320   34.7200   12.6920 C   0  0  0  0  0  0  0  0  0  0  0  0
   28.2810   34.8490   14.7230 O   0  0  0  0  0  0  0  0  0  0  0  0
   28.9220   32.9060   16.9030 O   0  0  0  0  0  0  0  0  0  0  0  0
   28.4180   32.9280   17.7640 H   0  0  0  0  0  0  0  0  0  0  0  0
   31.3900   31.9790   15.0520 O   0  0  0  0  0  0  0  0  0  0  0  0
   31.5740   31.2610   14.4150 H   0  0  0  0  0  0  0  0  0  0  0  0
   27.1750   28.4510   17.3390 O   0  0  0  0  0  0  0  0  0  0  0  0
   26.8020   28.4300   18.6870 C   0  0  0  0  0  0  0  0  0  0  0  0
   27.9800   28.3930   19.5900 C   0  0  0  0  0  0  0  0  0  0  0  0
   28.4400   27.3200   20.2960 C   0  0  0  0  0  0  0  0  0  0  0  0
   28.7960   29.4120   19.8700 N   0  0  0  0  0  0  0  0  0  0  0  0
   29.5340   27.7420   20.9830 N   0  0  0  0  0  0  0  0  0  0  0  0
   29.7390   29.0240   20.7130 N   0  0  0  0  0  0  0  0  0  0  0  0
   30.3350   26.9000   21.8690 C   0  0  0  0  0  0  0  0  0  0  0  0
   31.7610   26.9900   21.3610 C   0  0  1  0  0  0  0  0  0  0  0  0
   31.7480   27.2020   19.9880 O   0  0  0  0  0  0  0  0  0  0  0  0
   31.2640   28.0530   19.8150 H   0  0  0  0  0  0  0  0  0  0  0  0
   32.4940   28.1440   22.0530 C   0  0  0  0  0  0  0  0  0  0  0  0
   32.8960   29.0750   21.0930 O   0  0  0  0  0  0  0  0  0  0  0  0
   32.7490   30.0010   21.4510 H   0  0  0  0  0  0  0  0  0  0  0  0
   29.8670   25.5550   16.9770 C   0  0  0  0  0  0  0  0  0  0  0  0
   28.3450   25.7220   17.0260 C   0  0  0  0  0  0  0  0  0  0  0  0
   27.6020   24.4000   16.9150 C   0  0  0  0  0  0  0  0  0  0  0  0
   26.1500   24.5330   17.2840 C   0  0  0  0  0  0  0  0  0  0  0  0
   26.0260   24.7670   18.7860 C   0  0  0  0  0  0  0  0  0  0  0  0
   24.7240   24.2640   19.2830 N   0  0  0  0  0  0  0  0  0  0  0  0
  1  2  1  0  0  0  0
  2  3  2  0  0  0  0
  2 31  1  0  0  0  0
  4  1  1  0  0  0  0
  5  1  1  0  0  0  0
  6  5  1  6  0  0  0
  6  7  1  0  0  0  0
  7 27  1  6  0  0  0
  8  7  1  1  0  0  0
  8 11  1  0  0  0  0
  9 14  1  1  0  0  0
  9 16  1  0  0  0  0
 10  9  1  0  0  0  0
 11  9  1  0  0  0  0
 12 20  1  1  0  0  0
 12 10  1  0  0  0  0
 13 22  1  6  0  0  0
 13 12  1  0  0  0  0
 13  8  1  0  0  0  0
 15 14  1  0  0  0  0
 16 17  2  0  0  0  0
 16 18  1  0  0  0  0
 18 19  1  0  0  0  0
 20 21  1  0  0  0  0
 23 26  2  0  0  0  0
 23 22  1  0  0  0  0
 24 22  1  0  0  0  0
 25 23  1  0  0  0  0
 27 28  1  0  0  0  0
 29  6  1  0  0  0  0
 30 29  1  0  0  0  0
 31 32  1  0  0  0  0
 32 33  1  0  0  0  0
 33 35  1  0  0  0  0
 33 34  2  0  0  0  0
 34 36  1  0  0  0  0
 35 37  2  0  0  0  0
 36 38  1  0  0  0  0
 37 36  1  0  0  0  0
 39 38  1  1  0  0  0
 39 42  1  0  0  0  0
 40 39  1  0  0  0  0
 41 40  1  0  0  0  0
 43 44  1  0  0  0  0
 43 42  1  0  0  0  0
 45 46  1  0  0  0  0
 47 46  1  0  0  0  0
 47 48  1  0  0  0  0
 48 49  1  0  0  0  0
 49 50  1  0  0  0  0
M  END
>  <REMARK>
 VINA RESULT:    -4.741      2.183      6.168
 INTER + INTRA:         -14.513
 INTER:                  -8.473
 INTRA:                  -6.040
 UNBOUND:                -5.477
 SMILES CC(=O)N[C@@H]1[C@@H](O)C[C@](O)(C(=O)O)O[C@H]1C(O)[C@H](O)CNC(=O)OCc1cn(CC(O)CO)nn1
 SMILES IDX 21 1 22 2 23 3 20 5 18 6 16 7 15 8 9 9 8 10 14 11 6 12 5 13
 SMILES IDX 10 14 11 16 12 17 13 18 7 20 4 22 2 23 1 25 3 26 17 27 19 29
 SMILES IDX 24 31 25 32 26 33 27 34 35 35 28 36 34 37 29 38 30 39 31 40
 SMILES IDX 32 42 33 43
 H PARENT 21 4 10 15 13 19 7 21 4 24 17 28 19 30 31 41 33 44
 Flexibility Score: inf
  4 active torsions:
  status: ('A' for Active; 'I' for Inactive)
    1  A    between atoms: CA   and  CB  
    2  A    between atoms: CB   and  CG  
    3  A    between atoms: CG   and  CD  
    4  A    between atoms: CD   and  CE  

>  <TORSDO>
F 19

>  <BEGIN_>
RES LYS A 131

$$$$
ligand_50_pose_4_2HRL.pdbqt
 OpenBabel07062320523D

  6  5  0  0  0  0  0  0  0  0999 V2000
   33.1930   34.6630    9.2900 C   0  0  0  0  0  0  0  0  0  0  0  0
   32.0600   35.3600   10.0340 C   0  0  0  0  0  0  0  0  0  0  0  0
   30.8100   35.5270    9.2090 C   0  0  0  0  0  0  0  0  0  0  0  0
   30.1550   34.1800    8.9470 C   0  0  0  0  0  0  0  0  0  0  0  0
   28.6820   34.3560    8.6350 C   0  0  0  0  0  0  0  0  0  0  0  0
   27.8340   33.6280    9.6200 N   0  0  0  0  0  0  0  0  0  0  0  0
  1  2  1  0  0  0  0
  3  2  1  0  0  0  0
  4  3  1  0  0  0  0
  5  4  1  0  0  0  0
  5  6  1  0  0  0  0
M  END
>  <EGIN_R>
ES LYS A 135

>  <REMARK>
  4 active torsions:
  status: ('A' for Active; 'I' for Inactive)
    5  A    between atoms: CA   and  CB  
    6  A    between atoms: CB   and  CG  
    7  A    between atoms: CG   and  CD  
    8  A    between atoms: CD   and  CE  

$$$$
