ligand_9_pose_13_2HRL.pdbqt
 OpenBabel07062320523D

 54 55  0  0  1  0  0  0  0  0999 V2000
   22.3870   39.2140    7.5670 N   0  0  0  0  0  0  0  0  0  0  0  0
   21.7730   39.4930    8.8180 C   0  0  0  0  0  0  0  0  0  0  0  0
   22.3850   40.2270    9.6340 O   0  0  0  0  0  0  0  0  0  0  0  0
   21.8630   38.6060    6.9070 H   0  0  0  0  0  0  0  0  0  0  0  0
   23.6880   39.7530    7.2250 C   0  0  0  0  0  0  0  0  0  0  0  0
   24.8090   38.8340    7.5790 C   0  0  2  0  0  0  0  0  0  0  0  0
   26.1320   39.2570    7.0260 C   0  0  1  0  0  0  0  0  0  0  0  0
   27.2090   39.2590    8.1410 C   0  0  2  0  0  0  0  0  0  0  0  0
   28.7850   40.5680    9.1010 C   0  0  2  0  0  0  0  0  0  0  0  0
   29.9310   39.6770    8.6810 C   0  0  0  0  0  0  0  0  0  0  0  0
   27.7970   40.4960    8.1700 O   0  0  0  0  0  0  0  0  0  0  0  0
   29.5110   38.2520    8.4830 C   0  0  1  0  0  0  0  0  0  0  0  0
   28.1150   38.1000    7.9520 C   0  0  1  0  0  0  0  0  0  0  0  0
   29.3090   41.8900    9.0320 O   0  0  0  0  0  0  0  0  0  0  0  0
   30.0470   41.9590    8.4000 H   0  0  0  0  0  0  0  0  0  0  0  0
   28.4020   40.3130   10.4960 C   0  0  0  0  0  0  0  0  0  0  0  0
   29.0550   39.5350   11.2700 O   0  0  0  0  0  0  0  0  0  0  0  0
   27.2580   40.9620   11.0000 O   0  0  0  0  0  0  0  0  0  0  0  0
   26.6000   41.3510   10.3130 H   0  0  0  0  0  0  0  0  0  0  0  0
   30.4450   37.6210    7.6630 O   0  0  0  0  0  0  0  0  0  0  0  0
   30.4320   37.9660    6.7350 H   0  0  0  0  0  0  0  0  0  0  0  0
   27.4790   36.8980    8.4580 N   0  0  0  0  0  0  0  0  0  0  0  0
   27.4820   35.6800    7.7270 C   0  0  0  0  0  0  0  0  0  0  0  0
   27.0010   36.9500    9.4060 H   0  0  0  0  0  0  0  0  0  0  0  0
   26.8080   34.4910    8.3100 C   0  0  0  0  0  0  0  0  0  0  0  0
   28.0530   35.5970    6.5860 O   0  0  0  0  0  0  0  0  0  0  0  0
   26.6050   38.4900    5.9910 O   0  0  0  0  0  0  0  0  0  0  0  0
   26.3990   38.8150    5.0970 H   0  0  0  0  0  0  0  0  0  0  0  0
   24.4840   37.5130    7.2840 O   0  0  0  0  0  0  0  0  0  0  0  0
   23.4910   37.4530    7.2620 H   0  0  0  0  0  0  0  0  0  0  0  0
   20.5350   39.0030    9.1930 O   0  0  0  0  0  0  0  0  0  0  0  0
   20.2380   37.6200    9.1750 C   0  0  0  0  0  0  0  0  0  0  0  0
   21.4630   36.8240    9.3860 C   0  0  0  0  0  0  0  0  0  0  0  0
   22.1750   36.6230   10.5560 C   0  0  0  0  0  0  0  0  0  0  0  0
   22.1400   36.1210    8.4520 N   0  0  0  0  0  0  0  0  0  0  0  0
   23.2340   35.8270   10.3010 N   0  0  0  0  0  0  0  0  0  0  0  0
   23.1750   35.5410    8.9970 N   0  0  0  0  0  0  0  0  0  0  0  0
   24.2300   35.3600   11.1860 C   0  0  0  0  0  0  0  0  0  0  0  0
   24.0580   34.2030   11.9220 C   0  0  0  0  0  0  0  0  0  0  0  0
   25.4160   36.0420   11.3490 C   0  0  0  0  0  0  0  0  0  0  0  0
   25.0060   33.7120   12.7980 C   0  0  0  0  0  0  0  0  0  0  0  0
   26.3920   35.5720   12.2240 C   0  0  0  0  0  0  0  0  0  0  0  0
   26.1790   34.4180   12.9360 C   0  0  0  0  0  0  0  0  0  0  0  0
   24.7980   32.4870   13.5610 C   0  0  0  0  0  0  0  0  0  0  0  0
   25.3830   32.3410   14.6620 O   0  0  0  0  0  0  0  0  0  0  0  0
   23.9720   31.4660   13.1220 O   0  0  0  0  0  0  0  0  0  0  0  0
   24.1420   30.1210   13.5220 C   0  0  0  0  0  0  0  0  0  0  0  0
   23.3480   29.2410   12.6010 C   0  0  0  0  0  0  0  0  0  0  0  0
   29.8670   25.5550   16.9770 C   0  0  0  0  0  0  0  0  0  0  0  0
   28.3450   25.7220   17.0260 C   0  0  0  0  0  0  0  0  0  0  0  0
   27.5990   24.4270   16.7430 C   0  0  0  0  0  0  0  0  0  0  0  0
   26.1870   24.4620   17.2590 C   0  0  0  0  0  0  0  0  0  0  0  0
   26.1980   24.3530   18.7800 C   0  0  0  0  0  0  0  0  0  0  0  0
   25.5530   25.5390   19.3910 N   0  0  0  0  0  0  0  0  0  0  0  0
  1  2  1  0  0  0  0
  2 31  1  0  0  0  0
  2  3  2  0  0  0  0
  4  1  1  0  0  0  0
  5  1  1  0  0  0  0
  6  5  1  6  0  0  0
  7 27  1  6  0  0  0
  7  6  1  0  0  0  0
  8  7  1  6  0  0  0
  8 11  1  0  0  0  0
  9 14  1  6  0  0  0
  9 16  1  0  0  0  0
 10  9  1  0  0  0  0
 11  9  1  0  0  0  0
 12 20  1  6  0  0  0
 12 10  1  0  0  0  0
 13  8  1  0  0  0  0
 13 22  1  1  0  0  0
 13 12  1  0  0  0  0
 15 14  1  0  0  0  0
 16 18  1  0  0  0  0
 16 17  2  0  0  0  0
 19 18  1  0  0  0  0
 21 20  1  0  0  0  0
 22 24  1  0  0  0  0
 23 25  1  0  0  0  0
 23 22  1  0  0  0  0
 26 23  2  0  0  0  0
 28 27  1  0  0  0  0
 29  6  1  0  0  0  0
 30 29  1  0  0  0  0
 32 31  1  0  0  0  0
 32 33  1  0  0  0  0
 33 34  2  0  0  0  0
 35 37  2  0  0  0  0
 35 33  1  0  0  0  0
 36 34  1  0  0  0  0
 36 38  1  0  0  0  0
 37 36  1  0  0  0  0
 38 40  2  0  0  0  0
 38 39  1  0  0  0  0
 39 41  2  0  0  0  0
 40 42  1  0  0  0  0
 41 43  1  0  0  0  0
 41 44  1  0  0  0  0
 42 43  2  0  0  0  0
 44 45  2  0  0  0  0
 46 47  1  0  0  0  0
 46 44  1  0  0  0  0
 48 47  1  0  0  0  0
 49 50  1  0  0  0  0
 51 50  1  0  0  0  0
 51 52  1  0  0  0  0
 52 53  1  0  0  0  0
 53 54  1  0  0  0  0
M  END
>  <REMARK>
 VINA RESULT:    -4.853      5.695     12.208
 INTER + INTRA:         -14.922
 INTER:                  -9.432
 INTRA:                  -5.490
 UNBOUND:                -5.671
 SMILES CCOC(=O)c1cccc(-n2cc(COC(=O)NC[C@@H](O)C(O)[C@@H]3O[C@@](O)(C(=O)O)C[C@H](O)[C@H]3NC(C)=O)nn2)c1
 SMILES IDX 18 1 16 2 17 3 19 5 20 6 22 7 24 8 26 9 31 10 25 11 32 12
 SMILES IDX 34 13 27 14 28 16 29 17 30 18 33 20 35 22 36 23 37 25 38 26
 SMILES IDX 23 27 21 29 15 31 14 32 13 33 12 34 39 35 11 36 40 37 10 38
 SMILES IDX 41 39 9 40 6 41 8 42 7 43 4 44 5 45 3 46 2 47 1 48
 H PARENT 18 4 27 15 30 19 33 21 35 24 23 28 21 30
 Flexibility Score: inf
  4 active torsions:
  status: ('A' for Active; 'I' for Inactive)
    1  A    between atoms: CA   and  CB  
    2  A    between atoms: CB   and  CG  
    3  A    between atoms: CG   and  CD  
    4  A    between atoms: CD   and  CE  

>  <TORSDO>
F 18

>  <BEGIN_>
RES LYS A 131

$$$$
ligand_9_pose_13_2HRL.pdbqt
 OpenBabel07062320523D

  6  5  0  0  0  0  0  0  0  0999 V2000
   33.1930   34.6630    9.2900 C   0  0  0  0  0  0  0  0  0  0  0  0
   32.0600   35.3600   10.0340 C   0  0  0  0  0  0  0  0  0  0  0  0
   30.6930   34.8330    9.6800 C   0  0  0  0  0  0  0  0  0  0  0  0
   29.6900   35.1690   10.7730 C   0  0  0  0  0  0  0  0  0  0  0  0
   30.3950   35.3690   12.1010 C   0  0  0  0  0  0  0  0  0  0  0  0
   29.9040   34.4010   13.1200 N   0  0  0  0  0  0  0  0  0  0  0  0
  1  2  1  0  0  0  0
  3  2  1  0  0  0  0
  3  4  1  0  0  0  0
  4  5  1  0  0  0  0
  5  6  1  0  0  0  0
M  END
>  <EGIN_R>
ES LYS A 135

>  <REMARK>
  4 active torsions:
  status: ('A' for Active; 'I' for Inactive)
    5  A    between atoms: CA   and  CB  
    6  A    between atoms: CB   and  CG  
    7  A    between atoms: CG   and  CD  
    8  A    between atoms: CD   and  CE  

$$$$
