ligand_32_pose_0_2HRL.pdbqt
 OpenBabel07062320523D

 49 49  0  0  1  0  0  0  0  0999 V2000
   31.1450   33.5990   19.8240 N   0  0  0  0  0  0  0  0  0  0  0  0
   30.2050   34.4880   19.2450 C   0  0  0  0  0  0  0  0  0  0  0  0
   29.1340   34.7960   19.8490 O   0  0  0  0  0  0  0  0  0  0  0  0
   32.0120   33.3720   19.2980 H   0  0  0  0  0  0  0  0  0  0  0  0
   30.9290   33.0010   21.1190 C   0  0  0  0  0  0  0  0  0  0  0  0
   30.3900   31.5980   21.0580 C   0  0  2  0  0  0  0  0  0  0  0  0
   31.1550   30.7620   20.0320 C   0  0  1  0  0  0  0  0  0  0  0  0
   31.0740   29.2920   20.4010 C   0  0  2  0  0  0  0  0  0  0  0  0
   29.5580   27.9590   21.5750 C   0  0  2  0  0  0  0  0  0  0  0  0
   30.6260   26.9190   21.7680 C   0  0  0  0  0  0  0  0  0  0  0  0
   29.8050   28.8330   20.5390 O   0  0  0  0  0  0  0  0  0  0  0  0
   32.0180   27.4010   21.5700 C   0  0  1  0  0  0  0  0  0  0  0  0
   31.9740   28.9370   21.5560 C   0  0  1  0  0  0  0  0  0  0  0  0
   29.3500   28.6060   22.7880 O   0  0  0  0  0  0  0  0  0  0  0  0
   28.8690   29.4500   22.5650 H   0  0  0  0  0  0  0  0  0  0  0  0
   28.3150   27.2300   21.2340 C   0  0  0  0  0  0  0  0  0  0  0  0
   27.3540   27.0930   22.0220 O   0  0  0  0  0  0  0  0  0  0  0  0
   28.1900   26.6600   19.9800 O   0  0  0  0  0  0  0  0  0  0  0  0
   28.9280   26.1350   19.5280 H   0  0  0  0  0  0  0  0  0  0  0  0
   32.9010   26.9490   22.5470 O   0  0  0  0  0  0  0  0  0  0  0  0
   33.4850   27.6780   22.8940 H   0  0  0  0  0  0  0  0  0  0  0  0
   33.3080   29.4770   21.3840 N   0  0  0  0  0  0  0  0  0  0  0  0
   33.8380   30.4030   22.3260 C   0  0  0  0  0  0  0  0  0  0  0  0
   33.9190   29.2140   20.5750 H   0  0  0  0  0  0  0  0  0  0  0  0
   35.2140   30.9890   22.1890 C   0  0  0  0  0  0  0  0  0  0  0  0
   33.1410   30.7610   23.3290 O   0  0  0  0  0  0  0  0  0  0  0  0
   30.5550   30.9530   18.7900 O   0  0  0  0  0  0  0  0  0  0  0  0
   29.5610   30.8960   18.8350 H   0  0  0  0  0  0  0  0  0  0  0  0
   29.0420   31.6910   20.7020 O   0  0  0  0  0  0  0  0  0  0  0  0
   28.9220   32.4840   20.1210 H   0  0  0  0  0  0  0  0  0  0  0  0
   30.4640   35.0250   18.0050 O   0  0  0  0  0  0  0  0  0  0  0  0
   29.6700   34.7670   16.8600 C   0  0  0  0  0  0  0  0  0  0  0  0
   29.7840   33.3210   16.4690 C   0  0  0  0  0  0  0  0  0  0  0  0
   28.7580   32.4610   16.1760 C   0  0  0  0  0  0  0  0  0  0  0  0
   30.9390   32.6370   16.3520 N   0  0  0  0  0  0  0  0  0  0  0  0
   29.3160   31.2610   15.8850 N   0  0  0  0  0  0  0  0  0  0  0  0
   30.6290   31.4000   15.9990 N   0  0  0  0  0  0  0  0  0  0  0  0
   28.5600   30.0830   15.5180 C   0  0  0  0  0  0  0  0  0  0  0  0
   27.2400   30.1210   16.2850 C   0  0  0  0  0  0  0  0  0  0  0  0
   27.4930   29.4570   17.5990 C   0  0  0  0  0  0  0  0  0  0  0  0
   27.6910   30.0840   18.6470 O   0  0  0  0  0  0  0  0  0  0  0  0
   27.4960   28.0620   17.6010 O   0  0  0  0  0  0  0  0  0  0  0  0
   27.6880   27.5600   18.4660 H   0  0  0  0  0  0  0  0  0  0  0  0
   29.8670   25.5550   16.9770 C   0  0  0  0  0  0  0  0  0  0  0  0
   28.3450   25.7220   17.0260 C   0  0  0  0  0  0  0  0  0  0  0  0
   27.6010   24.4020   16.8910 C   0  0  0  0  0  0  0  0  0  0  0  0
   26.1590   24.5210   17.2980 C   0  0  0  0  0  0  0  0  0  0  0  0
   25.9720   23.9250   18.6900 C   0  0  0  0  0  0  0  0  0  0  0  0
   25.2980   24.8970   19.5830 N   0  0  0  0  0  0  0  0  0  0  0  0
  1  5  1  0  0  0  0
  2  1  1  0  0  0  0
  2  3  2  0  0  0  0
  4  1  1  0  0  0  0
  6  5  1  6  0  0  0
  7 27  1  6  0  0  0
  7  6  1  0  0  0  0
  8  7  1  1  0  0  0
  8 11  1  0  0  0  0
  8 13  1  0  0  0  0
  9 16  1  6  0  0  0
  9 10  1  0  0  0  0
  9 14  1  0  0  0  0
 11  9  1  0  0  0  0
 12 10  1  0  0  0  0
 12 20  1  1  0  0  0
 13 22  1  6  0  0  0
 13 12  1  0  0  0  0
 15 14  1  0  0  0  0
 16 17  2  0  0  0  0
 18 16  1  0  0  0  0
 19 18  1  0  0  0  0
 20 21  1  0  0  0  0
 22 23  1  0  0  0  0
 23 26  2  0  0  0  0
 24 22  1  0  0  0  0
 25 23  1  0  0  0  0
 27 28  1  0  0  0  0
 29  6  1  0  0  0  0
 30 29  1  0  0  0  0
 31  2  1  0  0  0  0
 32 31  1  0  0  0  0
 33 32  1  0  0  0  0
 34 33  2  0  0  0  0
 35 33  1  0  0  0  0
 36 37  1  0  0  0  0
 36 34  1  0  0  0  0
 37 35  2  0  0  0  0
 38 36  1  0  0  0  0
 38 39  1  0  0  0  0
 39 40  1  0  0  0  0
 40 42  1  0  0  0  0
 40 41  2  0  0  0  0
 42 43  1  0  0  0  0
 44 45  1  0  0  0  0
 46 45  1  0  0  0  0
 46 47  1  0  0  0  0
 47 48  1  0  0  0  0
 48 49  1  0  0  0  0
M  END
>  <REMARK>
 VINA RESULT:    -4.618      0.000      0.000
 INTER + INTRA:         -14.312
 INTER:                  -7.384
 INTRA:                  -6.928
 UNBOUND:                -5.644
 SMILES CC(=O)N[C@@H]1[C@@H](O)C[C@](O)(C(=O)O)O[C@H]1C(O)[C@H](O)CNC(=O)OCc1cn(CCC(=O)O)nn1
 SMILES IDX 21 1 22 2 23 3 20 5 18 6 16 7 15 8 9 9 8 10 14 11 6 12 5 13
 SMILES IDX 10 14 11 16 12 17 13 18 7 20 4 22 2 23 1 25 3 26 17 27 19 29
 SMILES IDX 24 31 25 32 26 33 27 34 35 35 28 36 34 37 29 38 30 39 31 40
 SMILES IDX 32 41 33 42
 H PARENT 21 4 10 15 13 19 7 21 4 24 17 28 19 30 33 43
 Flexibility Score: inf
  4 active torsions:
  status: ('A' for Active; 'I' for Inactive)
    1  A    between atoms: CA   and  CB  
    2  A    between atoms: CB   and  CG  
    3  A    between atoms: CG   and  CD  
    4  A    between atoms: CD   and  CE  

>  <TORSDO>
F 18

>  <BEGIN_>
RES LYS A 131

$$$$
ligand_32_pose_0_2HRL.pdbqt
 OpenBabel07062320523D

  6  5  0  0  0  0  0  0  0  0999 V2000
   33.1930   34.6630    9.2900 C   0  0  0  0  0  0  0  0  0  0  0  0
   32.0600   35.3600   10.0340 C   0  0  0  0  0  0  0  0  0  0  0  0
   30.7760   35.4280    9.2490 C   0  0  0  0  0  0  0  0  0  0  0  0
   30.2250   34.0330    8.9970 C   0  0  0  0  0  0  0  0  0  0  0  0
   28.7280   34.0000    9.2360 C   0  0  0  0  0  0  0  0  0  0  0  0
   27.9950   34.6980    8.1430 N   0  0  0  0  0  0  0  0  0  0  0  0
  1  2  1  0  0  0  0
  3  2  1  0  0  0  0
  4  5  1  0  0  0  0
  4  3  1  0  0  0  0
  6  5  1  0  0  0  0
M  END
>  <EGIN_R>
ES LYS A 135

>  <REMARK>
  4 active torsions:
  status: ('A' for Active; 'I' for Inactive)
    5  A    between atoms: CA   and  CB  
    6  A    between atoms: CB   and  CG  
    7  A    between atoms: CG   and  CD  
    8  A    between atoms: CD   and  CE  

$$$$
