ligand_63_pose_6_2HRL.pdbqt
 OpenBabel07062320523D

 51 52  0  0  1  0  0  0  0  0999 V2000
   23.1000   37.2310   11.0170 N   0  0  0  0  0  0  0  0  0  0  0  0
   23.1100   38.6270   10.6830 C   0  0  0  0  0  0  0  0  0  0  0  0
   24.1580   39.2810   10.6630 O   0  0  0  0  0  0  0  0  0  0  0  0
   22.1180   36.8000   10.9680 H   0  0  0  0  0  0  0  0  0  0  0  0
   24.2180   36.4760   11.3250 C   0  0  0  0  0  0  0  0  0  0  0  0
   24.7020   35.4320   10.2880 C   0  0  2  0  0  0  0  0  0  0  0  0
   26.0660   35.8850    9.9330 C   0  0  1  0  0  0  0  0  0  0  0  0
   26.6230   35.5710    8.5910 C   0  0  2  0  0  0  0  0  0  0  0  0
   28.9600   35.5070    8.3280 C   0  0  2  0  0  0  0  0  0  0  0  0
   28.9120   35.7210    6.8350 C   0  0  0  0  0  0  0  0  0  0  0  0
   27.8260   34.8410    8.7990 O   0  0  0  0  0  0  0  0  0  0  0  0
   27.4610   35.9760    6.3810 C   0  0  1  0  0  0  0  0  0  0  0  0
   26.8180   36.6450    7.6210 C   0  0  1  0  0  0  0  0  0  0  0  0
   29.2260   36.7000    8.9820 O   0  0  0  0  0  0  0  0  0  0  0  0
   28.5770   37.4020    8.8310 H   0  0  0  0  0  0  0  0  0  0  0  0
   30.0590   34.5490    8.5630 C   0  0  0  0  0  0  0  0  0  0  0  0
   30.2180   33.7160    9.3700 O   0  0  0  0  0  0  0  0  0  0  0  0
   31.1410   34.7010    7.5660 O   0  0  0  0  0  0  0  0  0  0  0  0
   30.8450   35.0400    6.6480 H   0  0  0  0  0  0  0  0  0  0  0  0
   27.4210   36.7990    5.2850 O   0  0  0  0  0  0  0  0  0  0  0  0
   28.0920   37.5020    5.3330 H   0  0  0  0  0  0  0  0  0  0  0  0
   25.5690   37.2680    7.1600 N   0  0  0  0  0  0  0  0  0  0  0  0
   25.3620   38.6300    7.4280 C   0  0  0  0  0  0  0  0  0  0  0  0
   24.8990   36.7240    6.6500 H   0  0  0  0  0  0  0  0  0  0  0  0
   24.3500   39.5770    7.1380 C   0  0  0  0  0  0  0  0  0  0  0  0
   26.4330   39.1060    8.1250 O   0  0  0  0  0  0  0  0  0  0  0  0
   26.3420   37.1140   10.4570 O   0  0  0  0  0  0  0  0  0  0  0  0
   26.5370   37.7950    9.7590 H   0  0  0  0  0  0  0  0  0  0  0  0
   23.7420   35.4220    9.3160 O   0  0  0  0  0  0  0  0  0  0  0  0
   24.1700   35.4790    8.4260 H   0  0  0  0  0  0  0  0  0  0  0  0
   21.8990   39.2490   10.3700 O   0  0  0  0  0  0  0  0  0  0  0  0
   21.3990   39.2610    9.0160 C   0  0  0  0  0  0  0  0  0  0  0  0
   21.0490   37.8130    8.7780 C   0  0  0  0  0  0  0  0  0  0  0  0
   19.9590   37.1510    9.2600 C   0  0  0  0  0  0  0  0  0  0  0  0
   21.7240   36.9890    7.9780 N   0  0  0  0  0  0  0  0  0  0  0  0
   20.0130   35.9010    8.7050 N   0  0  0  0  0  0  0  0  0  0  0  0
   21.1050   35.8450    7.9300 N   0  0  0  0  0  0  0  0  0  0  0  0
   19.1000   34.8650    8.8750 C   0  0  0  0  0  0  0  0  0  0  0  0
   18.1590   34.5810    7.8810 N   0  0  0  0  0  0  0  0  0  0  0  0
   18.9470   34.1030   10.0150 C   0  0  0  0  0  0  0  0  0  0  0  0
   17.2720   33.6980    8.0750 C   0  0  0  0  0  0  0  0  0  0  0  0
   18.0140   33.1860   10.2030 C   0  0  0  0  0  0  0  0  0  0  0  0
   17.0420   32.8770    9.2080 C   0  0  0  0  0  0  0  0  0  0  0  0
   19.8760   34.3880   11.1760 C   0  0  0  0  0  0  0  0  0  0  0  0
   20.4880   34.5640   11.9600 N   0  0  0  0  0  0  0  0  0  0  0  0
   29.8670   25.5550   16.9770 C   0  0  0  0  0  0  0  0  0  0  0  0
   28.3450   25.7220   17.0260 C   0  0  0  0  0  0  0  0  0  0  0  0
   27.6010   24.4040   16.8760 C   0  0  0  0  0  0  0  0  0  0  0  0
   26.6960   24.1280   18.0440 C   0  0  0  0  0  0  0  0  0  0  0  0
   25.4280   23.4350   17.5540 C   0  0  0  0  0  0  0  0  0  0  0  0
   24.5620   24.3930   16.8260 N   0  0  0  0  0  0  0  0  0  0  0  0
  1  5  1  0  0  0  0
  2  1  1  0  0  0  0
  3  2  2  0  0  0  0
  4  1  1  0  0  0  0
  6  5  1  1  0  0  0
  7  6  1  0  0  0  0
  7 27  1  6  0  0  0
  8 11  1  0  0  0  0
  8  7  1  1  0  0  0
  9 16  1  1  0  0  0
  9 11  1  0  0  0  0
  9 14  1  0  0  0  0
 10  9  1  0  0  0  0
 12 20  1  6  0  0  0
 12 10  1  0  0  0  0
 12 13  1  0  0  0  0
 13 22  1  6  0  0  0
 13  8  1  0  0  0  0
 15 14  1  0  0  0  0
 16 17  2  0  0  0  0
 18 16  1  0  0  0  0
 19 18  1  0  0  0  0
 20 21  1  0  0  0  0
 22 23  1  0  0  0  0
 23 26  2  0  0  0  0
 24 22  1  0  0  0  0
 25 23  1  0  0  0  0
 28 27  1  0  0  0  0
 29  6  1  0  0  0  0
 30 29  1  0  0  0  0
 31  2  1  0  0  0  0
 32 31  1  0  0  0  0
 33 32  1  0  0  0  0
 33 34  2  0  0  0  0
 35 33  1  0  0  0  0
 36 38  1  0  0  0  0
 36 34  1  0  0  0  0
 37 35  2  0  0  0  0
 37 36  1  0  0  0  0
 38 40  2  0  0  0  0
 39 41  2  0  0  0  0
 39 38  1  0  0  0  0
 40 42  1  0  0  0  0
 40 44  1  0  0  0  0
 41 43  1  0  0  0  0
 43 42  2  0  0  0  0
 44 45  3  0  0  0  0
 46 47  1  0  0  0  0
 48 47  1  0  0  0  0
 48 49  1  0  0  0  0
 50 49  1  0  0  0  0
 51 50  1  0  0  0  0
M  END
>  <REMARK>
 VINA RESULT:    -4.229      3.036      6.322
 INTER + INTRA:         -14.609
 INTER:                  -9.524
 INTRA:                  -5.085
 UNBOUND:                -7.042
 SMILES CC(=O)N[C@@H]1[C@@H](O)C[C@](O)(C(=O)O)O[C@H]1C(O)[C@H](O)CNC(=O)OCc1cn(-c2ncccc2C#N)nn1
 SMILES IDX 21 1 22 2 23 3 20 5 18 6 16 7 15 8 9 9 8 10 14 11 6 12 5 13
 SMILES IDX 10 14 11 16 12 17 13 18 7 20 4 22 2 23 1 25 3 26 17 27 19 29
 SMILES IDX 24 31 25 32 26 33 27 34 38 35 28 36 37 37 29 38 30 39 34 40
 SMILES IDX 31 41 33 42 32 43 35 44 36 45
 H PARENT 21 4 10 15 13 19 7 21 4 24 17 28 19 30
 Flexibility Score: inf
  4 active torsions:
  status: ('A' for Active; 'I' for Inactive)
    1  A    between atoms: CA   and  CB  
    2  A    between atoms: CB   and  CG  
    3  A    between atoms: CG   and  CD  
    4  A    between atoms: CD   and  CE  

>  <TORSDO>
F 16

>  <BEGIN_>
RES LYS A 131

$$$$
ligand_63_pose_6_2HRL.pdbqt
 OpenBabel07062320523D

  6  5  0  0  0  0  0  0  0  0999 V2000
   33.1930   34.6630    9.2900 C   0  0  0  0  0  0  0  0  0  0  0  0
   32.0600   35.3600   10.0340 C   0  0  0  0  0  0  0  0  0  0  0  0
   32.4330   35.7960   11.4280 C   0  0  0  0  0  0  0  0  0  0  0  0
   31.4470   35.2410   12.4450 C   0  0  0  0  0  0  0  0  0  0  0  0
   30.1510   36.0280   12.4140 C   0  0  0  0  0  0  0  0  0  0  0  0
   28.9870   35.1360   12.1550 N   0  0  0  0  0  0  0  0  0  0  0  0
  1  2  1  0  0  0  0
  2  3  1  0  0  0  0
  3  4  1  0  0  0  0
  5  4  1  0  0  0  0
  6  5  1  0  0  0  0
M  END
>  <EGIN_R>
ES LYS A 135

>  <REMARK>
  4 active torsions:
  status: ('A' for Active; 'I' for Inactive)
    5  A    between atoms: CA   and  CB  
    6  A    between atoms: CB   and  CG  
    7  A    between atoms: CG   and  CD  
    8  A    between atoms: CD   and  CE  

$$$$
