ligand_40_pose_1_2HRL.pdbqt
 OpenBabel07062320523D

 50 51  0  0  1  0  0  0  0  0999 V2000
   26.6390   32.8390   16.2180 C   0  0  0  0  0  0  0  0  0  0  0  0
   28.0790   32.7470   15.9240 C   0  0  2  0  0  0  0  0  0  0  0  0
   28.7590   33.8730   15.2150 C   0  0  2  0  0  0  0  0  0  0  0  0
   29.9140   34.5140   15.9170 C   0  0  2  0  0  0  0  0  0  0  0  0
   31.3370   35.0120   14.1230 C   0  0  2  0  0  0  0  0  0  0  0  0
   32.4870   34.2010   14.6930 C   0  0  0  0  0  0  0  0  0  0  0  0
   30.4680   35.4760   15.0580 O   0  0  0  0  0  0  0  0  0  0  0  0
   31.9260   33.1320   15.6170 C   0  0  1  0  0  0  0  0  0  0  0  0
   30.9350   33.6890   16.5870 C   0  0  1  0  0  0  0  0  0  0  0  0
   30.7760   34.2580   13.1210 O   0  0  0  0  0  0  0  0  0  0  0  0
   30.0350   33.6680   13.4140 H   0  0  0  0  0  0  0  0  0  0  0  0
   31.9790   36.2100   13.4960 C   0  0  0  0  0  0  0  0  0  0  0  0
   32.5150   36.1610   12.3490 O   0  0  0  0  0  0  0  0  0  0  0  0
   32.0010   37.4140   14.1700 O   0  0  0  0  0  0  0  0  0  0  0  0
   31.1220   37.8060   14.5180 H   0  0  0  0  0  0  0  0  0  0  0  0
   31.2430   32.2640   14.7640 O   0  0  0  0  0  0  0  0  0  0  0  0
   30.3480   32.6170   14.5210 H   0  0  0  0  0  0  0  0  0  0  0  0
   31.5290   34.5180   17.6190 N   0  0  0  0  0  0  0  0  0  0  0  0
   31.6190   34.1330   18.9660 C   0  0  0  0  0  0  0  0  0  0  0  0
   31.8950   35.4380   17.2960 H   0  0  0  0  0  0  0  0  0  0  0  0
   32.2180   34.9530   20.0370 C   0  0  0  0  0  0  0  0  0  0  0  0
   31.1510   33.0130   19.2470 O   0  0  0  0  0  0  0  0  0  0  0  0
   27.7790   34.9680   15.2920 O   0  0  0  0  0  0  0  0  0  0  0  0
   27.5710   35.0850   16.2570 H   0  0  0  0  0  0  0  0  0  0  0  0
   28.4440   31.4910   15.4640 O   0  0  0  0  0  0  0  0  0  0  0  0
   27.7600   30.7940   15.7060 H   0  0  0  0  0  0  0  0  0  0  0  0
   25.7590   32.6470   15.0630 N   0  0  0  0  0  0  0  0  0  0  0  0
   24.8090   33.6200   14.6800 C   0  0  0  0  0  0  0  0  0  0  0  0
   25.7900   31.7740   14.4750 H   0  0  0  0  0  0  0  0  0  0  0  0
   24.7050   34.6660   15.3300 O   0  0  0  0  0  0  0  0  0  0  0  0
   23.9610   33.4580   13.5830 O   0  0  0  0  0  0  0  0  0  0  0  0
   23.1580   34.5380   13.1660 C   0  0  0  0  0  0  0  0  0  0  0  0
   23.3840   34.9190   11.7690 C   0  0  0  0  0  0  0  0  0  0  0  0
   24.6330   34.9940   11.1890 C   0  0  0  0  0  0  0  0  0  0  0  0
   22.5250   35.2610   10.7870 N   0  0  0  0  0  0  0  0  0  0  0  0
   24.5170   35.3710    9.8980 N   0  0  0  0  0  0  0  0  0  0  0  0
   23.2260   35.5230    9.6900 N   0  0  0  0  0  0  0  0  0  0  0  0
   25.5380   35.5760    8.9230 C   0  0  0  0  0  0  0  0  0  0  0  0
   25.5870   36.7380    8.1790 C   0  0  0  0  0  0  0  0  0  0  0  0
   26.5150   34.6340    8.6760 C   0  0  0  0  0  0  0  0  0  0  0  0
   26.5700   36.9500    7.2310 C   0  0  0  0  0  0  0  0  0  0  0  0
   27.4980   34.8400    7.7310 C   0  0  0  0  0  0  0  0  0  0  0  0
   27.5430   36.0020    6.9920 C   0  0  0  0  0  0  0  0  0  0  0  0
   28.6190   36.1850    5.9830 C   0  0  0  0  0  0  0  0  0  0  0  0
   29.8670   25.5550   16.9770 C   0  0  0  0  0  0  0  0  0  0  0  0
   28.3450   25.7220   17.0260 C   0  0  0  0  0  0  0  0  0  0  0  0
   27.6010   24.4040   16.8790 C   0  0  0  0  0  0  0  0  0  0  0  0
   26.6230   24.1770   17.9980 C   0  0  0  0  0  0  0  0  0  0  0  0
   25.2830   23.7330   17.4220 C   0  0  0  0  0  0  0  0  0  0  0  0
   24.5350   22.9230   18.4120 N   0  0  0  0  0  0  0  0  0  0  0  0
  2  1  1  6  0  0  0
  3 23  1  1  0  0  0
  3  2  1  0  0  0  0
  4  3  1  6  0  0  0
  4  9  1  0  0  0  0
  5 10  1  6  0  0  0
  5  6  1  0  0  0  0
  5  7  1  0  0  0  0
  6  8  1  0  0  0  0
  7  4  1  0  0  0  0
  8 16  1  6  0  0  0
  8  9  1  0  0  0  0
  9 18  1  1  0  0  0
 10 11  1  0  0  0  0
 12  5  1  0  0  0  0
 12 14  1  0  0  0  0
 13 12  2  0  0  0  0
 14 15  1  0  0  0  0
 17 16  1  0  0  0  0
 18 19  1  0  0  0  0
 19 22  2  0  0  0  0
 19 21  1  0  0  0  0
 20 18  1  0  0  0  0
 23 24  1  0  0  0  0
 25 26  1  0  0  0  0
 25  2  1  0  0  0  0
 27  1  1  0  0  0  0
 28 27  1  0  0  0  0
 28 30  2  0  0  0  0
 29 27  1  0  0  0  0
 31 28  1  0  0  0  0
 32 31  1  0  0  0  0
 33 32  1  0  0  0  0
 34 33  2  0  0  0  0
 35 33  1  0  0  0  0
 36 34  1  0  0  0  0
 37 36  1  0  0  0  0
 37 35  2  0  0  0  0
 38 36  1  0  0  0  0
 39 38  2  0  0  0  0
 40 38  1  0  0  0  0
 41 39  1  0  0  0  0
 42 40  2  0  0  0  0
 43 41  2  0  0  0  0
 43 42  1  0  0  0  0
 44 43  1  0  0  0  0
 45 46  1  0  0  0  0
 47 46  1  0  0  0  0
 47 48  1  0  0  0  0
 49 48  1  0  0  0  0
 49 50  1  0  0  0  0
M  END
>  <REMARK>
 VINA RESULT:    -5.554      2.876      5.848
 INTER + INTRA:         -14.624
 INTER:                 -10.685
 INTRA:                  -3.939
 UNBOUND:                -5.012
 SMILES CC(=O)N[C@@H]1[C@@H](O)C[C@](O)(C(=O)O)O[C@H]1C(O)[C@H](O)CNC(=O)OCc1cn(-c2ccc(C)cc2)nn1
 SMILES IDX 20 1 18 2 16 3 15 4 9 5 8 6 14 7 6 8 5 9 10 10 11 12 12 13
 SMILES IDX 13 14 7 16 4 18 2 19 1 21 3 22 17 23 19 25 21 27 22 28 23 30
 SMILES IDX 24 31 25 32 26 33 27 34 37 35 28 36 36 37 29 38 30 39 35 40
 SMILES IDX 31 41 34 42 32 43 33 44
 H PARENT 10 11 13 15 7 17 4 20 17 24 19 26 21 29
 Flexibility Score: inf
  4 active torsions:
  status: ('A' for Active; 'I' for Inactive)
    1  A    between atoms: CA   and  CB  
    2  A    between atoms: CB   and  CG  
    3  A    between atoms: CG   and  CD  
    4  A    between atoms: CD   and  CE  

>  <TORSDO>
F 15

>  <BEGIN_>
RES LYS A 131

$$$$
ligand_40_pose_1_2HRL.pdbqt
 OpenBabel07062320523D

  6  5  0  0  0  0  0  0  0  0999 V2000
   33.1930   34.6630    9.2900 C   0  0  0  0  0  0  0  0  0  0  0  0
   32.0600   35.3600   10.0340 C   0  0  0  0  0  0  0  0  0  0  0  0
   30.7960   35.4880    9.2240 C   0  0  0  0  0  0  0  0  0  0  0  0
   30.1260   36.8280    9.4820 C   0  0  0  0  0  0  0  0  0  0  0  0
   29.1350   36.7160   10.6250 C   0  0  0  0  0  0  0  0  0  0  0  0
   29.2940   37.8440   11.5860 N   0  0  0  0  0  0  0  0  0  0  0  0
  1  2  1  0  0  0  0
  3  4  1  0  0  0  0
  3  2  1  0  0  0  0
  4  5  1  0  0  0  0
  5  6  1  0  0  0  0
M  END
>  <EGIN_R>
ES LYS A 135

>  <REMARK>
  4 active torsions:
  status: ('A' for Active; 'I' for Inactive)
    5  A    between atoms: CA   and  CB  
    6  A    between atoms: CB   and  CG  
    7  A    between atoms: CG   and  CD  
    8  A    between atoms: CD   and  CE  

$$$$
