ligand_53_pose_12_2HRL.pdbqt
 OpenBabel07062320523D

 48 48  0  0  1  0  0  0  0  0999 V2000
   27.8770   35.1350    7.4170 N   0  0  0  0  0  0  0  0  0  0  0  0
   28.6630   34.5660    8.4370 C   0  0  0  0  0  0  0  0  0  0  0  0
   29.8640   34.3410    8.2920 O   0  0  0  0  0  0  0  0  0  0  0  0
   26.8530   35.2860    7.6720 H   0  0  0  0  0  0  0  0  0  0  0  0
   28.3170   35.5180    6.1010 C   0  0  0  0  0  0  0  0  0  0  0  0
   27.8850   36.8720    5.6380 C   0  0  2  0  0  0  0  0  0  0  0  0
   28.8210   37.9620    6.0030 C   0  0  1  0  0  0  0  0  0  0  0  0
   28.2300   39.3460    6.0090 C   0  0  2  0  0  0  0  0  0  0  0  0
   26.6560   40.6540    4.8470 C   0  0  2  0  0  0  0  0  0  0  0  0
   27.4650   41.8950    5.0320 C   0  0  0  0  0  0  0  0  0  0  0  0
   27.2790   39.4630    4.9840 O   0  0  0  0  0  0  0  0  0  0  0  0
   28.4410   41.7370    6.1550 C   0  0  1  0  0  0  0  0  0  0  0  0
   29.2310   40.4550    5.8280 C   0  0  1  0  0  0  0  0  0  0  0  0
   26.0600   40.7610    3.5550 O   0  0  0  0  0  0  0  0  0  0  0  0
   26.5700   40.1260    2.9830 H   0  0  0  0  0  0  0  0  0  0  0  0
   25.4940   40.7160    5.7820 C   0  0  0  0  0  0  0  0  0  0  0  0
   24.8970   41.7650    6.1020 O   0  0  0  0  0  0  0  0  0  0  0  0
   25.0380   39.5400    6.3400 O   0  0  0  0  0  0  0  0  0  0  0  0
   25.6520   38.7600    6.5680 H   0  0  0  0  0  0  0  0  0  0  0  0
   29.3070   42.8200    6.2710 O   0  0  0  0  0  0  0  0  0  0  0  0
   29.5320   42.9070    7.2340 H   0  0  0  0  0  0  0  0  0  0  0  0
   30.3990   40.4140    6.6470 N   0  0  0  0  0  0  0  0  0  0  0  0
   31.7010   40.1710    6.1130 C   0  0  0  0  0  0  0  0  0  0  0  0
   30.3240   40.5770    7.6670 H   0  0  0  0  0  0  0  0  0  0  0  0
   32.9340   40.1200    6.9300 C   0  0  0  0  0  0  0  0  0  0  0  0
   31.8000   39.9910    4.8770 O   0  0  0  0  0  0  0  0  0  0  0  0
   29.5370   37.6610    7.1500 O   0  0  0  0  0  0  0  0  0  0  0  0
   28.9610   37.2800    7.8610 H   0  0  0  0  0  0  0  0  0  0  0  0
   26.5930   37.1150    6.1310 O   0  0  0  0  0  0  0  0  0  0  0  0
   26.1350   37.8250    5.6280 H   0  0  0  0  0  0  0  0  0  0  0  0
   28.1040   34.2330    9.6680 O   0  0  0  0  0  0  0  0  0  0  0  0
   27.5960   35.1440   10.5910 C   0  0  0  0  0  0  0  0  0  0  0  0
   26.7010   36.1760   10.0110 C   0  0  0  0  0  0  0  0  0  0  0  0
   25.3470   36.2890   10.0660 C   0  0  0  0  0  0  0  0  0  0  0  0
   27.1180   37.2520    9.2810 N   0  0  0  0  0  0  0  0  0  0  0  0
   24.9790   37.3920    9.3910 N   0  0  0  0  0  0  0  0  0  0  0  0
   26.0570   37.9630    8.9240 N   0  0  0  0  0  0  0  0  0  0  0  0
   23.6160   37.8540    9.2220 C   0  0  0  0  0  0  0  0  0  0  0  0
   22.9680   37.1070    8.1260 C   0  0  0  0  0  0  0  0  0  0  0  0
   22.3010   36.0690    8.3980 O   0  0  0  0  0  0  0  0  0  0  0  0
   23.0850   37.5330    6.8200 O   0  0  0  0  0  0  0  0  0  0  0  0
   23.7400   37.0170    6.2250 H   0  0  0  0  0  0  0  0  0  0  0  0
   29.8670   25.5550   16.9770 C   0  0  0  0  0  0  0  0  0  0  0  0
   28.3450   25.7220   17.0260 C   0  0  0  0  0  0  0  0  0  0  0  0
   27.6010   24.4040   16.8760 C   0  0  0  0  0  0  0  0  0  0  0  0
   26.5160   24.2460   17.9040 C   0  0  0  0  0  0  0  0  0  0  0  0
   25.1530   24.3620   17.2290 C   0  0  0  0  0  0  0  0  0  0  0  0
   24.4700   23.0470   17.2100 N   0  0  0  0  0  0  0  0  0  0  0  0
  1  4  1  0  0  0  0
  1  2  1  0  0  0  0
  2 31  1  0  0  0  0
  3  2  2  0  0  0  0
  5  1  1  0  0  0  0
  6  7  1  0  0  0  0
  6  5  1  1  0  0  0
  6 29  1  0  0  0  0
  7 27  1  1  0  0  0
  8  7  1  6  0  0  0
  9 14  1  6  0  0  0
  9 11  1  0  0  0  0
  9 10  1  0  0  0  0
  9 16  1  0  0  0  0
 10 12  1  0  0  0  0
 11  8  1  0  0  0  0
 12 20  1  6  0  0  0
 13  8  1  0  0  0  0
 13 12  1  0  0  0  0
 13 22  1  1  0  0  0
 15 14  1  0  0  0  0
 16 17  2  0  0  0  0
 16 18  1  0  0  0  0
 18 19  1  0  0  0  0
 20 21  1  0  0  0  0
 22 24  1  0  0  0  0
 23 22  1  0  0  0  0
 23 25  1  0  0  0  0
 26 23  2  0  0  0  0
 27 28  1  0  0  0  0
 30 29  1  0  0  0  0
 31 32  1  0  0  0  0
 33 34  2  0  0  0  0
 33 32  1  0  0  0  0
 35 33  1  0  0  0  0
 36 34  1  0  0  0  0
 37 35  2  0  0  0  0
 37 36  1  0  0  0  0
 38 36  1  0  0  0  0
 39 40  2  0  0  0  0
 39 38  1  0  0  0  0
 41 39  1  0  0  0  0
 42 41  1  0  0  0  0
 43 44  1  0  0  0  0
 45 44  1  0  0  0  0
 45 46  1  0  0  0  0
 47 46  1  0  0  0  0
 48 47  1  0  0  0  0
M  END
>  <REMARK>
 VINA RESULT:    -3.980      5.639     11.047
 INTER + INTRA:         -13.599
 INTER:                  -8.270
 INTRA:                  -5.330
 UNBOUND:                -6.362
 SMILES CC(=O)N[C@@H]1[C@@H](O)C[C@](O)(C(=O)O)O[C@H]1C(O)[C@H](O)CNC(=O)OCc1cn(CC(=O)O)nn1
 SMILES IDX 21 1 22 2 23 3 20 5 18 6 16 7 15 8 9 9 8 10 14 11 6 12 5 13
 SMILES IDX 10 14 11 16 12 17 13 18 7 20 4 22 2 23 1 25 3 26 17 27 19 29
 SMILES IDX 24 31 25 32 26 33 27 34 34 35 28 36 33 37 29 38 30 39 31 40
 SMILES IDX 32 41
 H PARENT 21 4 10 15 13 19 7 21 4 24 17 28 19 30 32 42
 Flexibility Score: inf
  4 active torsions:
  status: ('A' for Active; 'I' for Inactive)
    1  A    between atoms: CA   and  CB  
    2  A    between atoms: CB   and  CG  
    3  A    between atoms: CG   and  CD  
    4  A    between atoms: CD   and  CE  

>  <TORSDO>
F 17

>  <BEGIN_>
RES LYS A 131

$$$$
ligand_53_pose_12_2HRL.pdbqt
 OpenBabel07062320523D

  6  5  0  0  0  0  0  0  0  0999 V2000
   33.1930   34.6630    9.2900 C   0  0  0  0  0  0  0  0  0  0  0  0
   32.0600   35.3600   10.0340 C   0  0  0  0  0  0  0  0  0  0  0  0
   32.5230   36.1630   11.2220 C   0  0  0  0  0  0  0  0  0  0  0  0
   31.4520   36.1930   12.3010 C   0  0  0  0  0  0  0  0  0  0  0  0
   30.8630   34.8100   12.5060 C   0  0  0  0  0  0  0  0  0  0  0  0
   29.7410   34.8430   13.4840 N   0  0  0  0  0  0  0  0  0  0  0  0
  1  2  1  0  0  0  0
  2  3  1  0  0  0  0
  3  4  1  0  0  0  0
  4  5  1  0  0  0  0
  5  6  1  0  0  0  0
M  END
>  <EGIN_R>
ES LYS A 135

>  <REMARK>
  4 active torsions:
  status: ('A' for Active; 'I' for Inactive)
    5  A    between atoms: CA   and  CB  
    6  A    between atoms: CB   and  CG  
    7  A    between atoms: CG   and  CD  
    8  A    between atoms: CD   and  CE  

$$$$
