ligand_43_pose_12_2HRL.pdbqt
 OpenBabel07062320523D

 49 49  0  0  1  0  0  0  0  0999 V2000
   29.1640   34.8970   14.4600 O   0  0  0  0  0  0  0  0  0  0  0  0
   29.9260   34.2530   15.4160 C   0  0  0  0  0  0  0  0  0  0  0  0
   30.3130   32.8990   15.1410 N   0  0  0  0  0  0  0  0  0  0  0  0
   30.0070   32.4690   14.2470 H   0  0  0  0  0  0  0  0  0  0  0  0
   30.2750   34.8280   16.4960 O   0  0  0  0  0  0  0  0  0  0  0  0
   31.0970   32.1430   16.0570 C   0  0  0  0  0  0  0  0  0  0  0  0
   30.2750   31.4470   17.1440 C   0  0  2  0  0  0  0  0  0  0  0  0
   28.9040   31.2400   16.5520 C   0  0  2  0  0  0  0  0  0  0  0  0
   27.8850   30.7530   17.5300 C   0  0  2  0  0  0  0  0  0  0  0  0
   27.4460   28.7120   18.5420 C   0  0  2  0  0  0  0  0  0  0  0  0
   26.1130   29.3470   18.8780 C   0  0  0  0  0  0  0  0  0  0  0  0
   28.3770   29.6880   18.2360 O   0  0  0  0  0  0  0  0  0  0  0  0
   25.5290   29.8800   17.5890 C   0  0  1  0  0  0  0  0  0  0  0  0
   26.6510   30.3660   16.7020 C   0  0  1  0  0  0  0  0  0  0  0  0
   27.3110   27.7700   17.5260 O   0  0  0  0  0  0  0  0  0  0  0  0
   26.3880   27.4310   17.4980 H   0  0  0  0  0  0  0  0  0  0  0  0
   27.8920   27.9810   19.7550 C   0  0  0  0  0  0  0  0  0  0  0  0
   27.6720   28.4110   20.9170 O   0  0  0  0  0  0  0  0  0  0  0  0
   28.5880   26.7630   19.6790 O   0  0  0  0  0  0  0  0  0  0  0  0
   28.7930   26.4000   18.7510 H   0  0  0  0  0  0  0  0  0  0  0  0
   24.8870   28.8500   16.9280 O   0  0  0  0  0  0  0  0  0  0  0  0
   25.4580   28.5180   16.1920 H   0  0  0  0  0  0  0  0  0  0  0  0
   26.2590   31.5300   15.9280 N   0  0  0  0  0  0  0  0  0  0  0  0
   25.4540   31.4520   14.7570 C   0  0  0  0  0  0  0  0  0  0  0  0
   26.5580   32.5080   16.2020 H   0  0  0  0  0  0  0  0  0  0  0  0
   25.0570   32.6570   13.9680 C   0  0  0  0  0  0  0  0  0  0  0  0
   25.0800   30.3000   14.4020 O   0  0  0  0  0  0  0  0  0  0  0  0
   29.0770   30.3610   15.4700 O   0  0  0  0  0  0  0  0  0  0  0  0
   28.8580   30.7940   14.6070 H   0  0  0  0  0  0  0  0  0  0  0  0
   30.2750   32.1650   18.3210 O   0  0  0  0  0  0  0  0  0  0  0  0
   30.1920   31.6400   19.1340 H   0  0  0  0  0  0  0  0  0  0  0  0
   29.1310   34.4220   13.1400 C   0  0  0  0  0  0  0  0  0  0  0  0
   28.2550   35.3620   12.3650 C   0  0  0  0  0  0  0  0  0  0  0  0
   27.4370   34.9680   11.3180 C   0  0  0  0  0  0  0  0  0  0  0  0
   28.0770   36.6760   12.4920 N   0  0  0  0  0  0  0  0  0  0  0  0
   26.7970   36.0470   10.8520 N   0  0  0  0  0  0  0  0  0  0  0  0
   27.2040   37.0690   11.5810 N   0  0  0  0  0  0  0  0  0  0  0  0
   25.8350   36.1560    9.7650 C   0  0  0  0  0  0  0  0  0  0  0  0
   26.5560   36.4050    8.4660 C   0  0  0  0  0  0  0  0  0  0  0  0
   27.0320   35.1160    7.8440 C   0  0  0  0  0  0  0  0  0  0  0  0
   28.4660   35.1950    7.3880 C   0  0  0  0  0  0  0  0  0  0  0  0
   29.3580   34.6090    8.4140 C   0  0  0  0  0  0  0  0  0  0  0  0
   30.6550   34.4820    8.2420 C   0  0  0  0  0  0  0  0  0  0  0  0
   29.8670   25.5550   16.9770 C   0  0  0  0  0  0  0  0  0  0  0  0
   28.3450   25.7220   17.0260 C   0  0  0  0  0  0  0  0  0  0  0  0
   27.6010   24.4030   16.8880 C   0  0  0  0  0  0  0  0  0  0  0  0
   26.5140   24.2550   17.9160 C   0  0  0  0  0  0  0  0  0  0  0  0
   25.1620   24.1580   17.2170 C   0  0  0  0  0  0  0  0  0  0  0  0
   24.4220   25.4370   17.3390 N   0  0  0  0  0  0  0  0  0  0  0  0
  1  2  1  0  0  0  0
  2  5  2  0  0  0  0
  3  2  1  0  0  0  0
  3  6  1  0  0  0  0
  4  3  1  0  0  0  0
  7  6  1  6  0  0  0
  7 30  1  0  0  0  0
  8 28  1  6  0  0  0
  8  7  1  0  0  0  0
  9  8  1  6  0  0  0
  9 12  1  0  0  0  0
 10 15  1  6  0  0  0
 10 11  1  0  0  0  0
 10 17  1  0  0  0  0
 12 10  1  0  0  0  0
 13 21  1  6  0  0  0
 13 11  1  0  0  0  0
 14 23  1  1  0  0  0
 14  9  1  0  0  0  0
 14 13  1  0  0  0  0
 16 15  1  0  0  0  0
 17 18  2  0  0  0  0
 19 17  1  0  0  0  0
 20 19  1  0  0  0  0
 22 21  1  0  0  0  0
 23 25  1  0  0  0  0
 24 23  1  0  0  0  0
 26 24  1  0  0  0  0
 27 24  2  0  0  0  0
 29 28  1  0  0  0  0
 30 31  1  0  0  0  0
 32  1  1  0  0  0  0
 33 35  1  0  0  0  0
 33 32  1  0  0  0  0
 34 33  2  0  0  0  0
 36 34  1  0  0  0  0
 36 37  1  0  0  0  0
 37 35  2  0  0  0  0
 38 36  1  0  0  0  0
 39 38  1  0  0  0  0
 40 39  1  0  0  0  0
 41 40  1  0  0  0  0
 41 42  1  0  0  0  0
 43 42  2  0  0  0  0
 44 45  1  0  0  0  0
 46 45  1  0  0  0  0
 46 47  1  0  0  0  0
 48 49  1  0  0  0  0
 48 47  1  0  0  0  0
M  END
>  <REMARK>
 VINA RESULT:    -4.844      3.426      7.515
 INTER + INTRA:         -14.301
 INTER:                 -10.561
 INTRA:                  -3.740
 UNBOUND:                -4.785
 SMILES C=CCCCCn1cc(COC(=O)NC[C@@H](O)C(O)[C@@H]2O[C@@](O)(C(=O)O)C[C@H](O)[C@H]2NC(C)=O)nn1
 SMILES IDX 11 1 12 2 14 3 13 5 15 6 16 7 18 8 20 9 22 10 27 11 21 12
 SMILES IDX 28 13 30 14 23 15 24 17 25 18 26 19 29 21 31 23 32 24 33 26
 SMILES IDX 34 27 19 28 17 30 10 32 9 33 8 34 35 35 7 36 36 37 6 38 5 39
 SMILES IDX 4 40 3 41 2 42 1 43
 H PARENT 14 4 23 16 26 20 29 22 31 25 19 29 17 31
 Flexibility Score: inf
  4 active torsions:
  status: ('A' for Active; 'I' for Inactive)
    1  A    between atoms: CA   and  CB  
    2  A    between atoms: CB   and  CG  
    3  A    between atoms: CG   and  CD  
    4  A    between atoms: CD   and  CE  

>  <TORSDO>
F 19

>  <BEGIN_>
RES LYS A 131

$$$$
ligand_43_pose_12_2HRL.pdbqt
 OpenBabel07062320523D

  6  5  0  0  0  0  0  0  0  0999 V2000
   33.1930   34.6630    9.2900 C   0  0  0  0  0  0  0  0  0  0  0  0
   32.0600   35.3600   10.0340 C   0  0  0  0  0  0  0  0  0  0  0  0
   32.2300   35.3550   11.5310 C   0  0  0  0  0  0  0  0  0  0  0  0
   32.0660   36.7590   12.0940 C   0  0  0  0  0  0  0  0  0  0  0  0
   32.0920   36.7310   13.6110 C   0  0  0  0  0  0  0  0  0  0  0  0
   32.9030   35.5870   14.1120 N   0  0  0  0  0  0  0  0  0  0  0  0
  1  2  1  0  0  0  0
  2  3  1  0  0  0  0
  3  4  1  0  0  0  0
  4  5  1  0  0  0  0
  5  6  1  0  0  0  0
M  END
>  <EGIN_R>
ES LYS A 135

>  <REMARK>
  4 active torsions:
  status: ('A' for Active; 'I' for Inactive)
    5  A    between atoms: CA   and  CB  
    6  A    between atoms: CB   and  CG  
    7  A    between atoms: CG   and  CD  
    8  A    between atoms: CD   and  CE  

$$$$
