ligand_3_pose_0_2HRL.pdbqt
 OpenBabel07062320523D

 49 50  0  0  1  0  0  0  0  0999 V2000
   23.6290   36.7910    8.5590 C   0  0  0  0  0  0  0  0  0  0  0  0
   22.2450   36.9610    7.9670 C   0  0  2  0  0  0  0  0  0  0  0  0
   21.2270   36.0750    8.6520 C   0  0  1  0  0  0  0  0  0  0  0  0
   20.0650   35.7460    7.7750 C   0  0  2  0  0  0  0  0  0  0  0  0
   18.3930   37.3550    8.1400 C   0  0  2  0  0  0  0  0  0  0  0  0
   17.6360   36.4770    9.0720 C   0  0  0  0  0  0  0  0  0  0  0  0
   19.3250   36.7890    7.3560 O   0  0  0  0  0  0  0  0  0  0  0  0
   18.3230   35.1910    9.4270 C   0  0  1  0  0  0  0  0  0  0  0  0
   19.1860   34.6620    8.3270 C   0  0  1  0  0  0  0  0  0  0  0  0
   19.0260   38.3320    8.9380 O   0  0  0  0  0  0  0  0  0  0  0  0
   18.5730   39.2000    8.7440 H   0  0  0  0  0  0  0  0  0  0  0  0
   17.4460   38.1080    7.2740 C   0  0  0  0  0  0  0  0  0  0  0  0
   16.3510   38.5450    7.6920 O   0  0  0  0  0  0  0  0  0  0  0  0
   17.7670   38.3460    5.9560 O   0  0  0  0  0  0  0  0  0  0  0  0
   18.2640   37.6950    5.3610 H   0  0  0  0  0  0  0  0  0  0  0  0
   19.0850   35.3560   10.5960 O   0  0  0  0  0  0  0  0  0  0  0  0
   19.3310   34.5030   11.0060 H   0  0  0  0  0  0  0  0  0  0  0  0
   18.3010   34.2300    7.2430 N   0  0  0  0  0  0  0  0  0  0  0  0
   17.4710   33.0820    7.3680 C   0  0  0  0  0  0  0  0  0  0  0  0
   18.2530   34.7540    6.3440 H   0  0  0  0  0  0  0  0  0  0  0  0
   16.5650   32.6270    6.2800 C   0  0  0  0  0  0  0  0  0  0  0  0
   17.4750   32.3960    8.4270 O   0  0  0  0  0  0  0  0  0  0  0  0
   21.9320   34.9150    9.0110 O   0  0  0  0  0  0  0  0  0  0  0  0
   21.5790   34.2050    8.3960 H   0  0  0  0  0  0  0  0  0  0  0  0
   22.2620   36.8240    6.5900 O   0  0  0  0  0  0  0  0  0  0  0  0
   22.7060   37.5670    6.1330 H   0  0  0  0  0  0  0  0  0  0  0  0
   23.6740   36.9720    9.9760 N   0  0  0  0  0  0  0  0  0  0  0  0
   24.6390   36.3580   10.8190 C   0  0  0  0  0  0  0  0  0  0  0  0
   22.9710   37.5860   10.4510 H   0  0  0  0  0  0  0  0  0  0  0  0
   25.5160   35.6140   10.3610 O   0  0  0  0  0  0  0  0  0  0  0  0
   24.6360   36.5670   12.1940 O   0  0  0  0  0  0  0  0  0  0  0  0
   23.4130   36.5330   12.9130 C   0  0  0  0  0  0  0  0  0  0  0  0
   22.7750   35.2260   12.6390 C   0  0  0  0  0  0  0  0  0  0  0  0
   23.2670   33.9770   12.9490 C   0  0  0  0  0  0  0  0  0  0  0  0
   21.5870   35.0450   12.0280 N   0  0  0  0  0  0  0  0  0  0  0  0
   22.3530   33.0960   12.5120 N   0  0  0  0  0  0  0  0  0  0  0  0
   21.3500   33.7500   11.9620 N   0  0  0  0  0  0  0  0  0  0  0  0
   22.4650   31.6830   12.6320 C   0  0  0  0  0  0  0  0  0  0  0  0
   21.3510   30.8940   12.4060 C   0  0  0  0  0  0  0  0  0  0  0  0
   23.6710   31.0970   12.9700 C   0  0  0  0  0  0  0  0  0  0  0  0
   21.4950   29.5240   12.5310 C   0  0  0  0  0  0  0  0  0  0  0  0
   23.7960   29.7360   13.0900 C   0  0  0  0  0  0  0  0  0  0  0  0
   22.6900   28.9450   12.8660 C   0  0  0  0  0  0  0  0  0  0  0  0
   29.8670   25.5550   16.9770 C   0  0  0  0  0  0  0  0  0  0  0  0
   28.3450   25.7220   17.0260 C   0  0  0  0  0  0  0  0  0  0  0  0
   27.6010   24.4030   16.8860 C   0  0  0  0  0  0  0  0  0  0  0  0
   26.6340   24.1760   18.0150 C   0  0  0  0  0  0  0  0  0  0  0  0
   26.0790   25.5160   18.4870 C   0  0  0  0  0  0  0  0  0  0  0  0
   25.7040   25.4460   19.9190 N   0  0  0  0  0  0  0  0  0  0  0  0
  1 27  1  0  0  0  0
  2  1  1  1  0  0  0
  2  3  1  0  0  0  0
  3 23  1  6  0  0  0
  4  9  1  0  0  0  0
  4  3  1  1  0  0  0
  5 12  1  6  0  0  0
  5 10  1  0  0  0  0
  5  6  1  0  0  0  0
  6  8  1  0  0  0  0
  7  4  1  0  0  0  0
  7  5  1  0  0  0  0
  8 16  1  1  0  0  0
  9 18  1  6  0  0  0
  9  8  1  0  0  0  0
 11 10  1  0  0  0  0
 12 13  2  0  0  0  0
 14 12  1  0  0  0  0
 15 14  1  0  0  0  0
 16 17  1  0  0  0  0
 18 19  1  0  0  0  0
 19 22  2  0  0  0  0
 20 18  1  0  0  0  0
 21 19  1  0  0  0  0
 24 23  1  0  0  0  0
 25  2  1  0  0  0  0
 26 25  1  0  0  0  0
 27 29  1  0  0  0  0
 27 28  1  0  0  0  0
 28 31  1  0  0  0  0
 30 28  2  0  0  0  0
 31 32  1  0  0  0  0
 33 32  1  0  0  0  0
 33 34  2  0  0  0  0
 35 33  1  0  0  0  0
 36 38  1  0  0  0  0
 36 34  1  0  0  0  0
 37 35  2  0  0  0  0
 37 36  1  0  0  0  0
 38 40  2  0  0  0  0
 39 41  2  0  0  0  0
 39 38  1  0  0  0  0
 40 42  1  0  0  0  0
 41 43  1  0  0  0  0
 43 42  2  0  0  0  0
 44 45  1  0  0  0  0
 46 45  1  0  0  0  0
 46 47  1  0  0  0  0
 47 48  1  0  0  0  0
 48 49  1  0  0  0  0
M  END
>  <REMARK>
 VINA RESULT:    -6.053      0.000      0.000
 INTER + INTRA:         -14.961
 INTER:                  -9.005
 INTRA:                  -5.956
 UNBOUND:                -4.485
 SMILES CC(=O)N[C@@H]1[C@@H](O)C[C@](O)(C(=O)O)O[C@H]1C(O)[C@H](O)CNC(=O)OCc1cn(-c2ccccc2)nn1
 SMILES IDX 20 1 18 2 16 3 15 4 9 5 8 6 14 7 6 8 5 9 10 10 11 12 12 13
 SMILES IDX 13 14 7 16 4 18 2 19 1 21 3 22 17 23 19 25 21 27 22 28 23 30
 SMILES IDX 24 31 25 32 26 33 27 34 36 35 28 36 35 37 29 38 30 39 34 40
 SMILES IDX 31 41 33 42 32 43
 H PARENT 10 11 13 15 7 17 4 20 17 24 19 26 21 29
 Flexibility Score: inf
  4 active torsions:
  status: ('A' for Active; 'I' for Inactive)
    1  A    between atoms: CA   and  CB  
    2  A    between atoms: CB   and  CG  
    3  A    between atoms: CG   and  CD  
    4  A    between atoms: CD   and  CE  

>  <TORSDO>
F 15

>  <BEGIN_>
RES LYS A 131

$$$$
ligand_3_pose_0_2HRL.pdbqt
 OpenBabel07062320523D

  6  5  0  0  0  0  0  0  0  0999 V2000
   33.1930   34.6630    9.2900 C   0  0  0  0  0  0  0  0  0  0  0  0
   32.0600   35.3600   10.0340 C   0  0  0  0  0  0  0  0  0  0  0  0
   30.8710   35.6740    9.1630 C   0  0  0  0  0  0  0  0  0  0  0  0
   30.3710   34.4190    8.4640 C   0  0  0  0  0  0  0  0  0  0  0  0
   28.8550   34.4030    8.4180 C   0  0  0  0  0  0  0  0  0  0  0  0
   28.2900   33.7030    9.6050 N   0  0  0  0  0  0  0  0  0  0  0  0
  1  2  1  0  0  0  0
  3  2  1  0  0  0  0
  4  3  1  0  0  0  0
  5  4  1  0  0  0  0
  5  6  1  0  0  0  0
M  END
>  <EGIN_R>
ES LYS A 135

>  <REMARK>
  4 active torsions:
  status: ('A' for Active; 'I' for Inactive)
    5  A    between atoms: CA   and  CB  
    6  A    between atoms: CB   and  CG  
    7  A    between atoms: CG   and  CD  
    8  A    between atoms: CD   and  CE  

$$$$
