ligand_27_pose_12_2HRL.pdbqt
 OpenBabel07062320523D

 50 51  0  0  1  0  0  0  0  0999 V2000
   28.2820   36.1070   12.0310 C   0  0  0  0  0  0  0  0  0  0  0  0
   29.3380   35.9800   13.0910 C   0  0  2  0  0  0  0  0  0  0  0  0
   29.5230   34.5710   13.5740 C   0  0  2  0  0  0  0  0  0  0  0  0
   29.6360   34.5280   15.1000 C   0  0  2  0  0  0  0  0  0  0  0  0
   31.8690   34.4430   15.8320 C   0  0  2  0  0  0  0  0  0  0  0  0
   31.4860   33.3170   16.7820 C   0  0  0  0  0  0  0  0  0  0  0  0
   30.7720   35.1380   15.4570 O   0  0  0  0  0  0  0  0  0  0  0  0
   30.6580   32.3720   15.9120 C   0  0  1  0  0  0  0  0  0  0  0  0
   29.4110   33.1240   15.5370 C   0  0  1  0  0  0  0  0  0  0  0  0
   32.5570   33.8410   14.7860 O   0  0  0  0  0  0  0  0  0  0  0  0
   32.6920   32.8870   15.0080 H   0  0  0  0  0  0  0  0  0  0  0  0
   32.7940   35.3710   16.5240 C   0  0  0  0  0  0  0  0  0  0  0  0
   32.9830   35.2360   17.7550 O   0  0  0  0  0  0  0  0  0  0  0  0
   33.4650   36.3910   15.8670 O   0  0  0  0  0  0  0  0  0  0  0  0
   34.0780   36.1410   15.0830 H   0  0  0  0  0  0  0  0  0  0  0  0
   31.3280   32.0390   14.7400 O   0  0  0  0  0  0  0  0  0  0  0  0
   31.4060   31.0500   14.6170 H   0  0  0  0  0  0  0  0  0  0  0  0
   28.5290   33.0740   16.6840 N   0  0  0  0  0  0  0  0  0  0  0  0
   27.4310   32.1750   16.6870 C   0  0  0  0  0  0  0  0  0  0  0  0
   28.6840   33.7000   17.5270 H   0  0  0  0  0  0  0  0  0  0  0  0
   26.5310   32.1300   17.8680 C   0  0  0  0  0  0  0  0  0  0  0  0
   27.2310   31.4270   15.6960 O   0  0  0  0  0  0  0  0  0  0  0  0
   30.7290   34.1120   13.0020 O   0  0  0  0  0  0  0  0  0  0  0  0
   31.0570   33.3260   13.4600 H   0  0  0  0  0  0  0  0  0  0  0  0
   28.9790   36.7880   14.1840 O   0  0  0  0  0  0  0  0  0  0  0  0
   28.4640   36.2530   14.8130 H   0  0  0  0  0  0  0  0  0  0  0  0
   27.5170   34.8670   11.9430 N   0  0  0  0  0  0  0  0  0  0  0  0
   26.1540   34.8280   12.3280 C   0  0  0  0  0  0  0  0  0  0  0  0
   28.0040   34.0190   11.5910 H   0  0  0  0  0  0  0  0  0  0  0  0
   25.6070   35.8790   12.7490 O   0  0  0  0  0  0  0  0  0  0  0  0
   25.3920   33.6730   12.2610 O   0  0  0  0  0  0  0  0  0  0  0  0
   25.0020   33.0590   13.4690 C   0  0  0  0  0  0  0  0  0  0  0  0
   24.1220   31.8990   13.1680 C   0  0  0  0  0  0  0  0  0  0  0  0
   22.7730   31.9420   12.8620 C   0  0  0  0  0  0  0  0  0  0  0  0
   24.4430   30.5930   13.1290 N   0  0  0  0  0  0  0  0  0  0  0  0
   22.3190   30.6850   12.6490 N   0  0  0  0  0  0  0  0  0  0  0  0
   23.3630   29.8910   12.8210 N   0  0  0  0  0  0  0  0  0  0  0  0
   20.9910   30.3030   12.3130 C   0  0  0  0  0  0  0  0  0  0  0  0
   19.9990   31.2590   12.3030 C   0  0  0  0  0  0  0  0  0  0  0  0
   20.6330   29.0100   11.9900 C   0  0  0  0  0  0  0  0  0  0  0  0
   18.6900   30.9360   11.9830 C   0  0  0  0  0  0  0  0  0  0  0  0
   19.3420   28.6530   11.6670 C   0  0  0  0  0  0  0  0  0  0  0  0
   18.3710   29.6350   11.6670 C   0  0  0  0  0  0  0  0  0  0  0  0
   18.9260   26.9820   11.2590 Cl  0  0  0  0  0  0  0  0  0  0  0  0
   29.8670   25.5550   16.9770 C   0  0  0  0  0  0  0  0  0  0  0  0
   28.3450   25.7220   17.0260 C   0  0  0  0  0  0  0  0  0  0  0  0
   27.6010   24.4030   16.8860 C   0  0  0  0  0  0  0  0  0  0  0  0
   26.5790   24.2110   17.9720 C   0  0  0  0  0  0  0  0  0  0  0  0
   25.2990   23.6390   17.3720 C   0  0  0  0  0  0  0  0  0  0  0  0
   24.4160   24.7310   16.8980 N   0  0  0  0  0  0  0  0  0  0  0  0
  2  1  1  6  0  0  0
  2  3  1  0  0  0  0
  2 25  1  0  0  0  0
  3 23  1  6  0  0  0
  4  3  1  6  0  0  0
  4  7  1  0  0  0  0
  4  9  1  0  0  0  0
  5 10  1  6  0  0  0
  5 12  1  0  0  0  0
  5  6  1  0  0  0  0
  7  5  1  0  0  0  0
  8 16  1  6  0  0  0
  8  6  1  0  0  0  0
  9  8  1  0  0  0  0
  9 18  1  1  0  0  0
 10 11  1  0  0  0  0
 12 13  2  0  0  0  0
 14 12  1  0  0  0  0
 15 14  1  0  0  0  0
 17 16  1  0  0  0  0
 18 19  1  0  0  0  0
 18 20  1  0  0  0  0
 19 21  1  0  0  0  0
 22 19  2  0  0  0  0
 23 24  1  0  0  0  0
 25 26  1  0  0  0  0
 27  1  1  0  0  0  0
 27 28  1  0  0  0  0
 28 30  2  0  0  0  0
 29 27  1  0  0  0  0
 31 28  1  0  0  0  0
 31 32  1  0  0  0  0
 33 32  1  0  0  0  0
 34 33  2  0  0  0  0
 35 33  1  0  0  0  0
 36 37  1  0  0  0  0
 36 34  1  0  0  0  0
 37 35  2  0  0  0  0
 38 36  1  0  0  0  0
 39 38  1  0  0  0  0
 40 38  2  0  0  0  0
 41 39  2  0  0  0  0
 42 43  2  0  0  0  0
 42 40  1  0  0  0  0
 43 41  1  0  0  0  0
 44 42  1  0  0  0  0
 45 46  1  0  0  0  0
 47 46  1  0  0  0  0
 47 48  1  0  0  0  0
 49 48  1  0  0  0  0
 50 49  1  0  0  0  0
M  END
>  <REMARK>
 VINA RESULT:    -5.476      5.536      8.892
 INTER + INTRA:         -13.974
 INTER:                  -9.598
 INTRA:                  -4.377
 UNBOUND:                -4.497
 SMILES CC(=O)N[C@@H]1[C@@H](O)C[C@](O)(C(=O)O)O[C@H]1C(O)[C@H](O)CNC(=O)OCc1cn(-c2cccc(Cl)c2)nn1
 SMILES IDX 20 1 18 2 16 3 15 4 9 5 8 6 14 7 6 8 5 9 10 10 11 12 12 13
 SMILES IDX 13 14 7 16 4 18 2 19 1 21 3 22 17 23 19 25 21 27 22 28 23 30
 SMILES IDX 24 31 25 32 26 33 27 34 37 35 28 36 36 37 29 38 30 39 35 40
 SMILES IDX 31 41 33 42 32 43 34 44
 H PARENT 10 11 13 15 7 17 4 20 17 24 19 26 21 29
 Flexibility Score: inf
  4 active torsions:
  status: ('A' for Active; 'I' for Inactive)
    1  A    between atoms: CA   and  CB  
    2  A    between atoms: CB   and  CG  
    3  A    between atoms: CG   and  CD  
    4  A    between atoms: CD   and  CE  

>  <TORSDO>
F 15

>  <BEGIN_>
RES LYS A 131

$$$$
ligand_27_pose_12_2HRL.pdbqt
 OpenBabel07062320523D

  6  5  0  0  0  0  0  0  0  0999 V2000
   33.1930   34.6630    9.2900 C   0  0  0  0  0  0  0  0  0  0  0  0
   32.0600   35.3600   10.0340 C   0  0  0  0  0  0  0  0  0  0  0  0
   30.8190   35.5490    9.2010 C   0  0  0  0  0  0  0  0  0  0  0  0
   29.9470   34.3040    9.2450 C   0  0  0  0  0  0  0  0  0  0  0  0
   28.7540   34.4550    8.3220 C   0  0  0  0  0  0  0  0  0  0  0  0
   28.1350   35.8030    8.4620 N   0  0  0  0  0  0  0  0  0  0  0  0
  1  2  1  0  0  0  0
  3  4  1  0  0  0  0
  3  2  1  0  0  0  0
  5  6  1  0  0  0  0
  5  4  1  0  0  0  0
M  END
>  <EGIN_R>
ES LYS A 135

>  <REMARK>
  4 active torsions:
  status: ('A' for Active; 'I' for Inactive)
    5  A    between atoms: CA   and  CB  
    6  A    between atoms: CB   and  CG  
    7  A    between atoms: CG   and  CD  
    8  A    between atoms: CD   and  CE  

$$$$
