ligand_79_pose_2_2HRL.pdbqt
 OpenBabel07062320523D

 58 60  0  0  1  0  0  0  0  0999 V2000
   25.7840   28.1460   17.6700 N   0  0  0  0  0  0  0  0  0  0  0  0
   24.8660   29.1050   17.1820 C   0  0  0  0  0  0  0  0  0  0  0  0
   24.0010   29.5910   17.9140 O   0  0  0  0  0  0  0  0  0  0  0  0
   26.5000   27.7950   16.9480 H   0  0  0  0  0  0  0  0  0  0  0  0
   25.8310   27.6240   19.0080 C   0  0  0  0  0  0  0  0  0  0  0  0
   27.1590   27.6460   19.6680 C   0  0  2  0  0  0  0  0  0  0  0  0
   27.7270   29.0460   19.8480 C   0  0  1  0  0  0  0  0  0  0  0  0
   28.3890   29.2090   21.1920 C   0  0  2  0  0  0  0  0  0  0  0  0
   30.5030   28.2820   21.3920 C   0  0  2  0  0  0  0  0  0  0  0  0
   30.2730   27.7600   22.7940 C   0  0  0  0  0  0  0  0  0  0  0  0
   29.7380   29.4100   21.1250 O   0  0  0  0  0  0  0  0  0  0  0  0
   28.9340   28.2100   23.3410 C   0  0  1  0  0  0  0  0  0  0  0  0
   27.9620   28.1280   22.1620 C   0  0  1  0  0  0  0  0  0  0  0  0
   30.3040   27.3040   20.4180 O   0  0  0  0  0  0  0  0  0  0  0  0
   31.1360   27.1650   19.8800 H   0  0  0  0  0  0  0  0  0  0  0  0
   31.9310   28.6920   21.3090 C   0  0  0  0  0  0  0  0  0  0  0  0
   32.2390   29.7550   20.6840 O   0  0  0  0  0  0  0  0  0  0  0  0
   32.9590   27.9770   21.8780 O   0  0  0  0  0  0  0  0  0  0  0  0
   33.9350   28.2220   21.7660 H   0  0  0  0  0  0  0  0  0  0  0  0
   28.5110   27.4400   24.3990 O   0  0  0  0  0  0  0  0  0  0  0  0
   28.2820   28.0620   25.1600 H   0  0  0  0  0  0  0  0  0  0  0  0
   26.6060   28.3570   22.5790 N   0  0  0  0  0  0  0  0  0  0  0  0
   25.7050   27.2730   22.8720 C   0  0  0  0  0  0  0  0  0  0  0  0
   26.1900   29.3140   22.6950 H   0  0  0  0  0  0  0  0  0  0  0  0
   24.3180   27.4620   23.3000 C   0  0  0  0  0  0  0  0  0  0  0  0
   26.1830   26.1000   22.7400 O   0  0  0  0  0  0  0  0  0  0  0  0
   28.6790   29.1940   18.8360 O   0  0  0  0  0  0  0  0  0  0  0  0
   29.5960   29.1820   19.1710 H   0  0  0  0  0  0  0  0  0  0  0  0
   28.0890   26.9380   18.9310 O   0  0  0  0  0  0  0  0  0  0  0  0
   28.9150   26.8670   19.4780 H   0  0  0  0  0  0  0  0  0  0  0  0
   24.8930   29.5470   15.8570 O   0  0  0  0  0  0  0  0  0  0  0  0
   25.3030   30.8450   15.5410 C   0  0  0  0  0  0  0  0  0  0  0  0
   26.7740   30.9780   15.7010 C   0  0  0  0  0  0  0  0  0  0  0  0
   27.5000   32.1560   15.6240 C   0  0  0  0  0  0  0  0  0  0  0  0
   27.6960   30.0250   15.9480 N   0  0  0  0  0  0  0  0  0  0  0  0
   28.8060   31.8880   15.8220 N   0  0  0  0  0  0  0  0  0  0  0  0
   28.8910   30.5830   16.0160 N   0  0  0  0  0  0  0  0  0  0  0  0
   29.9060   32.8720   15.8180 C   0  0  0  0  0  0  0  0  0  0  0  0
   31.1970   32.1620   15.6020 C   0  0  0  0  0  0  0  0  0  0  0  0
   29.5730   33.7770   14.6170 C   0  0  0  0  0  0  0  0  0  0  0  0
   29.7870   33.6630   17.0410 C   0  0  0  0  0  0  0  0  0  0  0  0
   29.1650   34.7830   17.0430 O   0  0  0  0  0  0  0  0  0  0  0  0
   30.3400   33.2910   18.3380 C   0  0  0  0  0  0  0  0  0  0  0  0
   29.8320   32.2890   19.1640 C   0  0  0  0  0  0  0  0  0  0  0  0
   31.4160   33.8860   18.9430 C   0  0  0  0  0  0  0  0  0  0  0  0
   30.5950   32.2830   20.2540 N   0  0  0  0  0  0  0  0  0  0  0  0
   31.5590   33.2240   20.1670 C   0  0  0  0  0  0  0  0  0  0  0  0
   32.2990   34.9060   18.5990 C   0  0  0  0  0  0  0  0  0  0  0  0
   30.4800   31.6530   21.0620 H   0  0  0  0  0  0  0  0  0  0  0  0
   32.5860   33.6150   21.0030 C   0  0  0  0  0  0  0  0  0  0  0  0
   33.3020   35.2660   19.4500 C   0  0  0  0  0  0  0  0  0  0  0  0
   33.4460   34.6260   20.6450 C   0  0  0  0  0  0  0  0  0  0  0  0
   29.8670   25.5550   16.9770 C   0  0  0  0  0  0  0  0  0  0  0  0
   28.3450   25.7220   17.0260 C   0  0  0  0  0  0  0  0  0  0  0  0
   27.6000   24.4120   16.8220 C   0  0  0  0  0  0  0  0  0  0  0  0
   26.1650   24.5020   17.2630 C   0  0  0  0  0  0  0  0  0  0  0  0
   25.8810   23.4170   18.2970 C   0  0  0  0  0  0  0  0  0  0  0  0
   25.4870   24.0240   19.5900 N   0  0  0  0  0  0  0  0  0  0  0  0
  1  5  1  0  0  0  0
  2  1  1  0  0  0  0
  2  3  2  0  0  0  0
  4  1  1  0  0  0  0
  6  5  1  6  0  0  0
  6  7  1  0  0  0  0
  7 27  1  6  0  0  0
  8  7  1  6  0  0  0
  8 13  1  0  0  0  0
  9 14  1  6  0  0  0
  9 10  1  0  0  0  0
 10 12  1  0  0  0  0
 11  8  1  0  0  0  0
 11  9  1  0  0  0  0
 12 20  1  1  0  0  0
 13 22  1  1  0  0  0
 13 12  1  0  0  0  0
 15 14  1  0  0  0  0
 16  9  1  0  0  0  0
 16 18  1  0  0  0  0
 17 16  2  0  0  0  0
 19 18  1  0  0  0  0
 20 21  1  0  0  0  0
 22 24  1  0  0  0  0
 22 23  1  0  0  0  0
 23 25  1  0  0  0  0
 26 23  2  0  0  0  0
 27 28  1  0  0  0  0
 29 30  1  0  0  0  0
 29  6  1  0  0  0  0
 31  2  1  0  0  0  0
 32 33  1  0  0  0  0
 32 31  1  0  0  0  0
 33 35  1  0  0  0  0
 34 33  2  0  0  0  0
 34 36  1  0  0  0  0
 35 37  2  0  0  0  0
 36 37  1  0  0  0  0
 38 36  1  0  0  0  0
 38 41  1  0  0  0  0
 39 38  1  0  0  0  0
 40 38  1  0  0  0  0
 41 42  2  0  0  0  0
 41 43  1  0  0  0  0
 43 45  1  0  0  0  0
 43 44  2  0  0  0  0
 44 46  1  0  0  0  0
 45 47  1  0  0  0  0
 46 49  1  0  0  0  0
 47 46  1  0  0  0  0
 47 50  2  0  0  0  0
 48 45  2  0  0  0  0
 48 51  1  0  0  0  0
 51 52  2  0  0  0  0
 52 50  1  0  0  0  0
 53 54  1  0  0  0  0
 55 54  1  0  0  0  0
 55 56  1  0  0  0  0
 56 57  1  0  0  0  0
 57 58  1  0  0  0  0
M  END
>  <REMARK>
 VINA RESULT:    -6.467      5.595     11.233
 INTER + INTRA:         -16.726
 INTER:                  -9.482
 INTRA:                  -7.244
 UNBOUND:                -4.777
 SMILES CC(=O)N[C@@H]1[C@@H](O)C[C@](O)(C(=O)O)O[C@H]1C(O)[C@H](O)CNC(=O)OCc1cn(C(C)(C)C(=O)c2c[nH]c3ccccc23)nn1
 SMILES IDX 21 1 22 2 23 3 20 5 18 6 16 7 15 8 9 9 8 10 14 11 6 12 5 13
 SMILES IDX 10 14 11 16 12 17 13 18 7 20 4 22 2 23 1 25 3 26 17 27 19 29
 SMILES IDX 24 31 25 32 26 33 27 34 44 35 28 36 43 37 29 38 30 39 31 40
 SMILES IDX 32 41 33 42 34 43 35 44 42 45 36 46 37 47 41 48 38 50 40 51
 SMILES IDX 39 52
 H PARENT 21 4 10 15 13 19 7 21 4 24 17 28 19 30 36 49
 Flexibility Score: inf
  4 active torsions:
  status: ('A' for Active; 'I' for Inactive)
    1  A    between atoms: CA   and  CB  
    2  A    between atoms: CB   and  CG  
    3  A    between atoms: CG   and  CD  
    4  A    between atoms: CD   and  CE  

>  <TORSDO>
F 17

>  <BEGIN_>
RES LYS A 131

$$$$
ligand_79_pose_2_2HRL.pdbqt
 OpenBabel07062320523D

  6  5  0  0  0  0  0  0  0  0999 V2000
   33.1930   34.6630    9.2900 C   0  0  0  0  0  0  0  0  0  0  0  0
   32.0600   35.3600   10.0340 C   0  0  0  0  0  0  0  0  0  0  0  0
   30.8790   35.6920    9.1590 C   0  0  0  0  0  0  0  0  0  0  0  0
   30.3650   34.4450    8.4560 C   0  0  0  0  0  0  0  0  0  0  0  0
   28.8500   34.4570    8.3900 C   0  0  0  0  0  0  0  0  0  0  0  0
   28.2560   33.7710    9.5710 N   0  0  0  0  0  0  0  0  0  0  0  0
  1  2  1  0  0  0  0
  3  2  1  0  0  0  0
  4  3  1  0  0  0  0
  5  4  1  0  0  0  0
  5  6  1  0  0  0  0
M  END
>  <EGIN_R>
ES LYS A 135

>  <REMARK>
  4 active torsions:
  status: ('A' for Active; 'I' for Inactive)
    5  A    between atoms: CA   and  CB  
    6  A    between atoms: CB   and  CG  
    7  A    between atoms: CG   and  CD  
    8  A    between atoms: CD   and  CE  

$$$$
