ligand_80_pose_16_2HRL.pdbqt
 OpenBabel07062320523D

 56 54  0  0  1  0  0  0  0  0999 V2000
   27.9830   37.6230   16.1080 O   0  0  0  0  0  0  0  0  0  0  0  0
   28.1590   37.0330   17.3360 C   0  0  0  0  0  0  0  0  0  0  0  0
   28.4790   35.6370   17.4230 N   0  0  0  0  0  0  0  0  0  0  0  0
   28.5650   35.1260   16.5130 H   0  0  0  0  0  0  0  0  0  0  0  0
   28.0500   37.6750   18.4110 O   0  0  0  0  0  0  0  0  0  0  0  0
   28.6710   34.9730   18.6990 C   0  0  0  0  0  0  0  0  0  0  0  0
   27.4910   34.0630   18.9430 C   0  0  2  0  0  0  0  0  0  0  0  0
   27.9080   32.6880   19.4190 C   0  0  2  0  0  0  0  0  0  0  0  0
   28.6600   31.9400   18.3080 C   0  0  2  0  0  0  0  0  0  0  0  0
   29.4810   32.5050   16.1840 C   0  0  2  0  0  0  0  0  0  0  0  0
   29.1660   31.0920   15.8010 C   0  0  0  0  0  0  0  0  0  0  0  0
   29.1470   32.8600   17.4620 O   0  0  0  0  0  0  0  0  0  0  0  0
   27.7350   30.8410   16.2490 C   0  0  1  0  0  0  0  0  0  0  0  0
   27.7090   30.9300   17.7540 C   0  0  1  0  0  0  0  0  0  0  0  0
   28.7400   33.3590   15.3420 O   0  0  0  0  0  0  0  0  0  0  0  0
   28.0200   33.7260   15.9170 H   0  0  0  0  0  0  0  0  0  0  0  0
   30.9130   32.8390   15.9800 C   0  0  0  0  0  0  0  0  0  0  0  0
   31.5630   32.2380   15.0990 O   0  0  0  0  0  0  0  0  0  0  0  0
   31.5650   33.8070   16.7400 O   0  0  0  0  0  0  0  0  0  0  0  0
   32.5450   34.0000   16.4840 H   0  0  0  0  0  0  0  0  0  0  0  0
   26.9550   31.8680   15.7270 O   0  0  0  0  0  0  0  0  0  0  0  0
   26.3570   31.4720   15.0480 H   0  0  0  0  0  0  0  0  0  0  0  0
   28.1010   29.6260   18.2590 N   0  0  0  0  0  0  0  0  0  0  0  0
   27.2400   28.7860   19.0130 C   0  0  0  0  0  0  0  0  0  0  0  0
   29.0870   29.2770   18.0560 H   0  0  0  0  0  0  0  0  0  0  0  0
   27.7550   27.4760   19.4760 C   0  0  0  0  0  0  0  0  0  0  0  0
   26.0730   29.1900   19.2590 O   0  0  0  0  0  0  0  0  0  0  0  0
   26.7260   31.9870   19.6820 O   0  0  0  0  0  0  0  0  0  0  0  0
   25.9660   32.5700   19.8940 H   0  0  0  0  0  0  0  0  0  0  0  0
   26.6830   33.9700   17.8170 O   0  0  0  0  0  0  0  0  0  0  0  0
   25.7280   33.9380   18.0350 H   0  0  0  0  0  0  0  0  0  0  0  0
   26.7310   37.6010   15.4420 C   0  0  0  0  0  0  0  0  0  0  0  0
   26.5730   36.3650   14.6360 C   0  0  0  0  0  0  0  0  0  0  0  0
   26.8480   36.2730   13.2670 C   0  0  0  0  0  0  0  0  0  0  0  0
   26.1600   35.1350   14.9920 N   0  0  0  0  0  0  0  0  0  0  0  0
   26.5940   35.0200   12.8550 N   0  0  0  0  0  0  0  0  0  0  0  0
   26.1830   34.3650   13.9190 N   0  0  0  0  0  0  0  0  0  0  0  0
   26.7350   34.5010   11.5130 *   0  0  0  0  0  0  0  0  0  0  0  0
   25.7420   35.1140   10.5870 C   0  0  0  0  0  0  0  0  0  0  0  0
   25.8750   35.7140    9.3120 N   0  0  0  0  0  0  0  0  0  0  0  0
   24.5760   35.0780   11.0510 O   0  0  0  0  0  0  0  0  0  0  0  0
   25.0970   36.3060    8.9490 H   0  0  0  0  0  0  0  0  0  0  0  0
   26.9920   35.6080    8.4110 C   0  0  0  0  0  0  0  0  0  0  0  0
   28.1410   34.8600    8.5900 C   0  0  0  0  0  0  0  0  0  0  0  0
   26.7830   36.3740    7.2810 C   0  0  0  0  0  0  0  0  0  0  0  0
   29.0900   34.8890    7.6150 C   0  0  0  0  0  0  0  0  0  0  0  0
   27.7450   36.4010    6.2950 C   0  0  0  0  0  0  0  0  0  0  0  0
   28.8890   35.6560    6.4750 C   0  0  0  0  0  0  0  0  0  0  0  0
   28.4710   34.0030    9.7600 C   0  0  0  0  0  0  0  0  0  0  0  0
   28.1710   34.6890   11.0820 *   0  0  0  0  0  0  0  0  0  0  0  0
   29.8670   25.5550   16.9770 C   0  0  0  0  0  0  0  0  0  0  0  0
   28.3450   25.7220   17.0260 C   0  0  0  0  0  0  0  0  0  0  0  0
   27.5990   24.4250   16.7530 C   0  0  0  0  0  0  0  0  0  0  0  0
   27.0030   23.8400   18.0030 C   0  0  0  0  0  0  0  0  0  0  0  0
   25.6000   24.4010   18.2090 C   0  0  0  0  0  0  0  0  0  0  0  0
   24.8370   24.3680   16.9400 N   0  0  0  0  0  0  0  0  0  0  0  0
  1  2  1  0  0  0  0
  2  3  1  0  0  0  0
  2  5  2  0  0  0  0
  3  6  1  0  0  0  0
  4  3  1  0  0  0  0
  7  6  1  6  0  0  0
  7  8  1  0  0  0  0
  8 28  1  6  0  0  0
  9  8  1  1  0  0  0
 10 15  1  6  0  0  0
 10 12  1  0  0  0  0
 11 10  1  0  0  0  0
 11 13  1  0  0  0  0
 12  9  1  0  0  0  0
 13 21  1  6  0  0  0
 13 14  1  0  0  0  0
 14 23  1  1  0  0  0
 14  9  1  0  0  0  0
 15 16  1  0  0  0  0
 17 10  1  0  0  0  0
 17 19  1  0  0  0  0
 18 17  2  0  0  0  0
 20 19  1  0  0  0  0
 22 21  1  0  0  0  0
 23 24  1  0  0  0  0
 24 27  2  0  0  0  0
 24 26  1  0  0  0  0
 25 23  1  0  0  0  0
 28 29  1  0  0  0  0
 30 31  1  0  0  0  0
 30  7  1  0  0  0  0
 32  1  1  0  0  0  0
 33 35  1  0  0  0  0
 33 32  1  0  0  0  0
 34 33  2  0  0  0  0
 36 34  1  0  0  0  0
 36 37  2  0  0  0  0
 37 35  1  0  0  0  0
 39 41  2  0  0  0  0
 40 39  1  0  0  0  0
 42 40  1  0  0  0  0
 43 44  1  0  0  0  0
 43 40  1  0  0  0  0
 44 49  1  0  0  0  0
 45 43  2  0  0  0  0
 46 44  2  0  0  0  0
 47 48  2  0  0  0  0
 47 45  1  0  0  0  0
 48 46  1  0  0  0  0
 51 52  1  0  0  0  0
 53 52  1  0  0  0  0
 53 54  1  0  0  0  0
 54 55  1  0  0  0  0
 56 55  1  0  0  0  0
M  END
>  <REMARK>
 VINA RESULT:    -9.079      3.465      5.922
 INTER + INTRA:         -13.281
 INTER:                  -8.941
 INTRA:                  -4.340
 UNBOUND:                 4.555
 SMILES CC(=O)N[C@@H]1[C@@H](O)C[C@](O)(C(=O)O)O[C@H]1C(O)[C@H](O)CNC(=O)OCc1cn(C2CCc3ccccc3NC2=O)nn1
 SMILES IDX 24 1 22 2 21 3 23 5 20 6 18 7 16 8 15 9 9 10 8 11 14 12 6 13
 SMILES IDX 5 14 10 15 11 17 12 18 13 19 7 21 4 23 2 24 1 26 3 27 17 28
 SMILES IDX 19 30 25 32 26 33 27 34 42 35 28 36 41 37 29 38 39 40 38 41
 SMILES IDX 40 42 37 44 32 45 36 46 33 47 35 48 34 49 31 50 30 51
 H PARENT 21 4 10 16 13 20 7 22 4 25 17 29 19 31 38 43
 Flexibility Score: 80.00
  4 active torsions:
  status: ('A' for Active; 'I' for Inactive)
    1  A    between atoms: CA   and  CB  
    2  A    between atoms: CB   and  CG  
    3  A    between atoms: CG   and  CD  
    4  A    between atoms: CD   and  CE  

>  <TORSDO>
F 15

>  <BEGIN_>
RES LYS A 131

$$$$
ligand_80_pose_16_2HRL.pdbqt
 OpenBabel07062320523D

  6  5  0  0  0  0  0  0  0  0999 V2000
   33.1930   34.6630    9.2900 C   0  0  0  0  0  0  0  0  0  0  0  0
   32.0600   35.3600   10.0340 C   0  0  0  0  0  0  0  0  0  0  0  0
   32.5000   36.0300   11.3100 C   0  0  0  0  0  0  0  0  0  0  0  0
   32.0160   37.4710   11.3530 C   0  0  0  0  0  0  0  0  0  0  0  0
   31.3370   37.7660   12.6770 C   0  0  0  0  0  0  0  0  0  0  0  0
   30.9080   36.5090   13.3510 N   0  0  0  0  0  0  0  0  0  0  0  0
  1  2  1  0  0  0  0
  2  3  1  0  0  0  0
  3  4  1  0  0  0  0
  4  5  1  0  0  0  0
  5  6  1  0  0  0  0
M  END
>  <EGIN_R>
ES LYS A 135

>  <REMARK>
  4 active torsions:
  status: ('A' for Active; 'I' for Inactive)
    5  A    between atoms: CA   and  CB  
    6  A    between atoms: CB   and  CG  
    7  A    between atoms: CG   and  CD  
    8  A    between atoms: CD   and  CE  

$$$$
