ligand_47_pose_14_2HRL.pdbqt
 OpenBabel07062320523D

 62 64  0  0  1  0  0  0  0  0999 V2000
   31.3520   32.4970   14.9810 N   0  0  0  0  0  0  0  0  0  0  0  0
   31.5480   33.8760   15.2540 C   0  0  0  0  0  0  0  0  0  0  0  0
   31.1060   34.3700   16.3330 O   0  0  0  0  0  0  0  0  0  0  0  0
   31.7520   32.1610   14.0560 H   0  0  0  0  0  0  0  0  0  0  0  0
   30.6640   31.5980   15.8760 C   0  0  0  0  0  0  0  0  0  0  0  0
   29.2260   31.3190   15.4360 C   0  0  2  0  0  0  0  0  0  0  0  0
   28.3460   32.1060   16.3580 C   0  0  2  0  0  0  0  0  0  0  0  0
   27.0180   31.4550   16.6190 C   0  0  2  0  0  0  0  0  0  0  0  0
   24.9540   31.1700   15.6020 C   0  0  2  0  0  0  0  0  0  0  0  0
   24.5290   30.5310   16.8990 C   0  0  0  0  0  0  0  0  0  0  0  0
   26.3030   31.3420   15.4590 O   0  0  0  0  0  0  0  0  0  0  0  0
   25.1140   31.1890   18.1010 C   0  0  1  0  0  0  0  0  0  0  0  0
   26.1940   32.1760   17.6590 C   0  0  1  0  0  0  0  0  0  0  0  0
   24.2760   32.3880   15.4870 O   0  0  0  0  0  0  0  0  0  0  0  0
   23.3180   32.2870   15.7380 H   0  0  0  0  0  0  0  0  0  0  0  0
   24.4830   30.2860   14.5080 C   0  0  0  0  0  0  0  0  0  0  0  0
   23.8650   29.2320   14.7940 O   0  0  0  0  0  0  0  0  0  0  0  0
   24.7040   30.5880   13.1820 O   0  0  0  0  0  0  0  0  0  0  0  0
   23.9080   30.6380   12.5310 H   0  0  0  0  0  0  0  0  0  0  0  0
   24.2040   31.7550   18.9580 O   0  0  0  0  0  0  0  0  0  0  0  0
   23.3530   31.2450   18.9600 H   0  0  0  0  0  0  0  0  0  0  0  0
   27.0090   32.5590   18.8030 N   0  0  0  0  0  0  0  0  0  0  0  0
   27.1770   33.9360   19.0810 C   0  0  0  0  0  0  0  0  0  0  0  0
   27.4420   31.8220   19.3800 H   0  0  0  0  0  0  0  0  0  0  0  0
   27.9940   34.3830   20.2300 C   0  0  0  0  0  0  0  0  0  0  0  0
   26.6330   34.8050   18.3550 O   0  0  0  0  0  0  0  0  0  0  0  0
   28.2460   33.4150   15.9330 O   0  0  0  0  0  0  0  0  0  0  0  0
   27.8560   34.0210   16.6250 H   0  0  0  0  0  0  0  0  0  0  0  0
   29.0330   29.9370   15.6130 O   0  0  0  0  0  0  0  0  0  0  0  0
   28.0870   29.8590   15.9380 H   0  0  0  0  0  0  0  0  0  0  0  0
   32.2140   34.6970   14.3670 O   0  0  0  0  0  0  0  0  0  0  0  0
   31.7630   34.8610   13.0160 C   0  0  0  0  0  0  0  0  0  0  0  0
   30.5020   35.6340   12.9750 C   0  0  0  0  0  0  0  0  0  0  0  0
   29.2550   35.1280   12.5760 C   0  0  0  0  0  0  0  0  0  0  0  0
   30.2540   36.9120   13.2840 N   0  0  0  0  0  0  0  0  0  0  0  0
   28.3270   36.0810   12.6550 N   0  0  0  0  0  0  0  0  0  0  0  0
   28.9740   37.1820   13.0990 N   0  0  0  0  0  0  0  0  0  0  0  0
   26.9160   36.1080   12.3950 C   0  0  0  0  0  0  0  0  0  0  0  0
   26.3220   34.8750   11.8000 C   0  0  1  0  0  0  0  0  0  0  0  0
   25.6410   34.0670   12.8120 C   0  0  0  0  0  0  0  0  0  0  0  0
   24.6090   33.3950   12.6400 O   0  0  0  0  0  0  0  0  0  0  0  0
   26.1660   34.0120   14.1210 O   0  0  0  0  0  0  0  0  0  0  0  0
   26.3190   34.8900   14.6250 H   0  0  0  0  0  0  0  0  0  0  0  0
   25.4240   35.1910   10.6170 C   0  0  0  0  0  0  0  0  0  0  0  0
   26.2040   35.3340    9.3650 C   0  0  0  0  0  0  0  0  0  0  0  0
   27.2250   34.4350    9.0360 C   0  0  0  0  0  0  0  0  0  0  0  0
   25.9640   36.3540    8.4640 C   0  0  0  0  0  0  0  0  0  0  0  0
   27.9490   34.5670    7.8720 C   0  0  0  0  0  0  0  0  0  0  0  0
   26.6750   36.5000    7.3010 C   0  0  0  0  0  0  0  0  0  0  0  0
   27.6740   35.6130    6.9890 C   0  0  0  0  0  0  0  0  0  0  0  0
   24.6030   36.3930   10.8000 C   0  0  0  0  0  0  0  0  0  0  0  0
   23.2150   36.2230   10.8750 C   0  0  0  0  0  0  0  0  0  0  0  0
   25.1180   37.6670   10.9020 C   0  0  0  0  0  0  0  0  0  0  0  0
   22.4120   37.3260   11.0480 C   0  0  0  0  0  0  0  0  0  0  0  0
   24.3150   38.7720   11.0740 C   0  0  0  0  0  0  0  0  0  0  0  0
   22.9360   38.6140   11.1500 C   0  0  0  0  0  0  0  0  0  0  0  0
   29.8670   25.5550   16.9770 C   0  0  0  0  0  0  0  0  0  0  0  0
   28.3450   25.7220   17.0260 C   0  0  0  0  0  0  0  0  0  0  0  0
   27.5990   24.4750   16.5770 C   0  0  0  0  0  0  0  0  0  0  0  0
   26.8070   23.8560   17.6950 C   0  0  0  0  0  0  0  0  0  0  0  0
   25.3160   24.0260   17.4180 C   0  0  0  0  0  0  0  0  0  0  0  0
   24.7380   25.0590   18.3090 N   0  0  0  0  0  0  0  0  0  0  0  0
  1  2  1  0  0  0  0
  1  5  1  0  0  0  0
  2  3  2  0  0  0  0
  4  1  1  0  0  0  0
  6 29  1  0  0  0  0
  6  5  1  1  0  0  0
  6  7  1  0  0  0  0
  7 27  1  6  0  0  0
  8  7  1  6  0  0  0
  8 13  1  0  0  0  0
  9 16  1  6  0  0  0
  9 10  1  0  0  0  0
 10 12  1  0  0  0  0
 11  9  1  0  0  0  0
 11  8  1  0  0  0  0
 12 20  1  6  0  0  0
 13 12  1  0  0  0  0
 13 22  1  1  0  0  0
 14  9  1  0  0  0  0
 14 15  1  0  0  0  0
 16 17  2  0  0  0  0
 18 16  1  0  0  0  0
 19 18  1  0  0  0  0
 20 21  1  0  0  0  0
 22 23  1  0  0  0  0
 22 24  1  0  0  0  0
 23 25  1  0  0  0  0
 26 23  2  0  0  0  0
 27 28  1  0  0  0  0
 29 30  1  0  0  0  0
 31  2  1  0  0  0  0
 32 31  1  0  0  0  0
 33 32  1  0  0  0  0
 33 35  1  0  0  0  0
 34 36  1  0  0  0  0
 34 33  2  0  0  0  0
 36 37  1  0  0  0  0
 37 35  2  0  0  0  0
 38 36  1  0  0  0  0
 39 38  1  1  0  0  0
 39 40  1  0  0  0  0
 40 42  1  0  0  0  0
 41 40  2  0  0  0  0
 42 43  1  0  0  0  0
 44 51  1  0  0  0  0
 44 39  1  0  0  0  0
 45 44  1  0  0  0  0
 46 45  1  0  0  0  0
 47 45  2  0  0  0  0
 48 46  2  0  0  0  0
 49 47  1  0  0  0  0
 50 49  2  0  0  0  0
 50 48  1  0  0  0  0
 51 52  2  0  0  0  0
 51 53  1  0  0  0  0
 52 54  1  0  0  0  0
 53 55  2  0  0  0  0
 54 56  2  0  0  0  0
 55 56  1  0  0  0  0
 57 58  1  0  0  0  0
 59 58  1  0  0  0  0
 59 60  1  0  0  0  0
 61 60  1  0  0  0  0
 61 62  1  0  0  0  0
M  END
>  <REMARK>
 VINA RESULT:    -5.331      1.880      3.147
 INTER + INTRA:         -17.239
 INTER:                 -10.842
 INTRA:                  -6.398
 UNBOUND:                -6.299
 SMILES CC(=O)N[C@@H]1[C@@H](O)C[C@](O)(C(=O)O)O[C@H]1C(O)[C@H](O)CNC(=O)OCc1cn(C[C@@H](C(=O)O)C(c2ccccc2)c2ccccc2)nn1
 SMILES IDX 21 1 22 2 23 3 20 5 18 6 16 7 15 8 9 9 8 10 14 11 6 12 5 13
 SMILES IDX 10 14 11 16 12 17 13 18 7 20 4 22 2 23 1 25 3 26 17 27 19 29
 SMILES IDX 24 31 25 32 26 33 27 34 48 35 28 36 47 37 29 38 30 39 31 40
 SMILES IDX 32 41 33 42 34 44 35 45 36 46 40 47 37 48 39 49 38 50 41 51
 SMILES IDX 42 52 46 53 43 54 45 55 44 56
 H PARENT 21 4 10 15 13 19 7 21 4 24 17 28 19 30 33 43
 Flexibility Score: inf
  4 active torsions:
  status: ('A' for Active; 'I' for Inactive)
    1  A    between atoms: CA   and  CB  
    2  A    between atoms: CB   and  CG  
    3  A    between atoms: CG   and  CD  
    4  A    between atoms: CD   and  CE  

>  <TORSDO>
F 21

>  <BEGIN_>
RES LYS A 131

$$$$
ligand_47_pose_14_2HRL.pdbqt
 OpenBabel07062320523D

  6  5  0  0  0  0  0  0  0  0999 V2000
   33.1930   34.6630    9.2900 C   0  0  0  0  0  0  0  0  0  0  0  0
   32.0600   35.3600   10.0340 C   0  0  0  0  0  0  0  0  0  0  0  0
   30.8410   35.6050    9.1820 C   0  0  0  0  0  0  0  0  0  0  0  0
   30.1960   36.9350    9.5400 C   0  0  0  0  0  0  0  0  0  0  0  0
   30.2690   37.8950    8.3670 C   0  0  0  0  0  0  0  0  0  0  0  0
   29.3310   39.0370    8.5500 N   0  0  0  0  0  0  0  0  0  0  0  0
  1  2  1  0  0  0  0
  3  4  1  0  0  0  0
  3  2  1  0  0  0  0
  5  6  1  0  0  0  0
  5  4  1  0  0  0  0
M  END
>  <EGIN_R>
ES LYS A 135

>  <REMARK>
  4 active torsions:
  status: ('A' for Active; 'I' for Inactive)
    5  A    between atoms: CA   and  CB  
    6  A    between atoms: CB   and  CG  
    7  A    between atoms: CG   and  CD  
    8  A    between atoms: CD   and  CE  

$$$$
