ligand_54_pose_13_2HRL.pdbqt
 OpenBabel07062320523D

 52 52  0  0  1  0  0  0  0  0999 V2000
   31.0600   31.8420   21.8060 O   0  0  0  0  0  0  0  0  0  0  0  0
   30.8040   32.8840   20.9020 C   0  0  0  0  0  0  0  0  0  0  0  0
   29.7210   33.7710   21.0780 N   0  0  0  0  0  0  0  0  0  0  0  0
   29.1280   33.5950   21.9510 H   0  0  0  0  0  0  0  0  0  0  0  0
   31.5630   33.0010   19.9370 O   0  0  0  0  0  0  0  0  0  0  0  0
   29.3390   34.8580   20.2350 C   0  0  0  0  0  0  0  0  0  0  0  0
   28.0900   34.5430   19.4630 C   0  0  2  0  0  0  0  0  0  0  0  0
   28.5530   34.0870   18.0820 C   0  0  2  0  0  0  0  0  0  0  0  0
   28.2680   32.6370   17.8470 C   0  0  2  0  0  0  0  0  0  0  0  0
   28.9790   30.5620   18.6020 C   0  0  2  0  0  0  0  0  0  0  0  0
   28.3700   29.9640   17.3770 C   0  0  0  0  0  0  0  0  0  0  0  0
   28.5210   31.8320   18.9200 O   0  0  0  0  0  0  0  0  0  0  0  0
   28.3100   30.8780   16.1890 C   0  0  1  0  0  0  0  0  0  0  0  0
   28.9810   32.1760   16.5810 C   0  0  1  0  0  0  0  0  0  0  0  0
   30.3740   30.5170   18.5290 O   0  0  0  0  0  0  0  0  0  0  0  0
   30.6710   31.4070   18.1740 H   0  0  0  0  0  0  0  0  0  0  0  0
   28.5780   29.6900   19.7440 C   0  0  0  0  0  0  0  0  0  0  0  0
   28.0720   30.1740   20.7780 O   0  0  0  0  0  0  0  0  0  0  0  0
   28.7810   28.3020   19.6370 O   0  0  0  0  0  0  0  0  0  0  0  0
   28.4540   27.7500   20.4290 H   0  0  0  0  0  0  0  0  0  0  0  0
   28.8540   30.3230   15.0370 O   0  0  0  0  0  0  0  0  0  0  0  0
   28.8010   29.3390   15.1500 H   0  0  0  0  0  0  0  0  0  0  0  0
   28.8030   33.2080   15.5800 N   0  0  0  0  0  0  0  0  0  0  0  0
   29.8220   33.4250   14.6150 C   0  0  0  0  0  0  0  0  0  0  0  0
   27.9650   33.8110   15.5170 H   0  0  0  0  0  0  0  0  0  0  0  0
   29.7260   34.4530   13.5590 C   0  0  0  0  0  0  0  0  0  0  0  0
   30.8580   32.7070   14.6610 O   0  0  0  0  0  0  0  0  0  0  0  0
   29.8980   34.3900   17.9480 O   0  0  0  0  0  0  0  0  0  0  0  0
   30.0920   34.9360   17.1380 H   0  0  0  0  0  0  0  0  0  0  0  0
   27.3310   35.6700   19.2780 O   0  0  0  0  0  0  0  0  0  0  0  0
   27.3060   36.2600   20.0740 H   0  0  0  0  0  0  0  0  0  0  0  0
   32.2410   31.0540   21.6780 C   0  0  0  0  0  0  0  0  0  0  0  0
   31.8650   29.6450   21.4620 C   0  0  0  0  0  0  0  0  0  0  0  0
   31.2420   28.8820   22.4550 C   0  0  0  0  0  0  0  0  0  0  0  0
   31.9920   28.8270   20.4260 N   0  0  0  0  0  0  0  0  0  0  0  0
   31.0240   27.6430   21.9690 N   0  0  0  0  0  0  0  0  0  0  0  0
   31.4810   27.6320   20.7500 N   0  0  0  0  0  0  0  0  0  0  0  0
   30.4030   26.5870   22.7180 C   0  0  0  0  0  0  0  0  0  0  0  0
   29.8570   27.0480   24.0490 C   0  0  0  0  0  0  0  0  0  0  0  0
   28.3620   26.9930   24.1200 C   0  0  0  0  0  0  0  0  0  0  0  0
   27.8570   28.1560   23.5480 O   0  0  0  0  0  0  0  0  0  0  0  0
   26.5800   27.9210   23.0240 C   0  0  0  0  0  0  0  0  0  0  0  0
   26.5960   26.8180   21.9980 C   0  0  0  0  0  0  0  0  0  0  0  0
   27.8930   26.8870   25.4030 O   0  0  0  0  0  0  0  0  0  0  0  0
   27.9230   25.5730   25.8710 C   0  0  0  0  0  0  0  0  0  0  0  0
   26.8340   24.7760   25.1620 C   0  0  0  0  0  0  0  0  0  0  0  0
   29.8670   25.5550   16.9770 C   0  0  0  0  0  0  0  0  0  0  0  0
   28.3450   25.7220   17.0260 C   0  0  0  0  0  0  0  0  0  0  0  0
   27.6020   24.3990   16.9240 C   0  0  0  0  0  0  0  0  0  0  0  0
   26.6530   24.1920   18.0720 C   0  0  0  0  0  0  0  0  0  0  0  0
   25.4420   23.3980   17.5950 C   0  0  0  0  0  0  0  0  0  0  0  0
   24.4800   24.2860   16.9000 N   0  0  0  0  0  0  0  0  0  0  0  0
  2  3  1  0  0  0  0
  2  1  1  0  0  0  0
  3  4  1  0  0  0  0
  5  2  2  0  0  0  0
  6  3  1  0  0  0  0
  7  6  1  1  0  0  0
  8 28  1  1  0  0  0
  8  7  1  0  0  0  0
  9  8  1  1  0  0  0
  9 12  1  0  0  0  0
 10 15  1  6  0  0  0
 10 12  1  0  0  0  0
 10 17  1  0  0  0  0
 11 10  1  0  0  0  0
 13 21  1  6  0  0  0
 13 14  1  0  0  0  0
 13 11  1  0  0  0  0
 14 23  1  6  0  0  0
 14  9  1  0  0  0  0
 16 15  1  0  0  0  0
 17 18  2  0  0  0  0
 19 17  1  0  0  0  0
 19 20  1  0  0  0  0
 21 22  1  0  0  0  0
 24 27  2  0  0  0  0
 24 23  1  0  0  0  0
 25 23  1  0  0  0  0
 26 24  1  0  0  0  0
 29 28  1  0  0  0  0
 30  7  1  0  0  0  0
 30 31  1  0  0  0  0
 32  1  1  0  0  0  0
 33 32  1  0  0  0  0
 33 34  2  0  0  0  0
 35 37  2  0  0  0  0
 35 33  1  0  0  0  0
 36 34  1  0  0  0  0
 36 38  1  0  0  0  0
 37 36  1  0  0  0  0
 38 39  1  0  0  0  0
 39 40  1  0  0  0  0
 40 44  1  0  0  0  0
 41 40  1  0  0  0  0
 42 41  1  0  0  0  0
 43 42  1  0  0  0  0
 44 45  1  0  0  0  0
 46 45  1  0  0  0  0
 47 48  1  0  0  0  0
 49 48  1  0  0  0  0
 49 50  1  0  0  0  0
 51 50  1  0  0  0  0
 52 51  1  0  0  0  0
M  END
>  <REMARK>
 VINA RESULT:    -4.119      2.414      7.862
 INTER + INTRA:         -14.512
 INTER:                  -6.455
 INTRA:                  -8.056
 UNBOUND:                -5.938
 SMILES CCOC(CCn1cc(COC(=O)NC[C@@H](O)C(O)[C@@H]2O[C@@](O)(C(=O)O)C[C@H](O)[C@H]2NC(C)=O)nn1)OCC
 SMILES IDX 11 1 12 2 14 3 13 5 15 6 16 7 18 8 20 9 22 10 27 11 21 12
 SMILES IDX 28 13 30 14 23 15 24 17 25 18 26 19 29 21 31 23 32 24 33 26
 SMILES IDX 34 27 19 28 17 30 10 32 9 33 8 34 35 35 7 36 36 37 6 38 5 39
 SMILES IDX 4 40 3 41 2 42 1 43 37 44 38 45 39 46
 H PARENT 14 4 23 16 26 20 29 22 31 25 19 29 17 31
 Flexibility Score: inf
  4 active torsions:
  status: ('A' for Active; 'I' for Inactive)
    1  A    between atoms: CA   and  CB  
    2  A    between atoms: CB   and  CG  
    3  A    between atoms: CG   and  CD  
    4  A    between atoms: CD   and  CE  

>  <TORSDO>
F 21

>  <BEGIN_>
RES LYS A 131

$$$$
ligand_54_pose_13_2HRL.pdbqt
 OpenBabel07062320523D

  6  5  0  0  0  0  0  0  0  0999 V2000
   33.1930   34.6630    9.2900 C   0  0  0  0  0  0  0  0  0  0  0  0
   32.0600   35.3600   10.0340 C   0  0  0  0  0  0  0  0  0  0  0  0
   30.8730   35.6780    9.1620 C   0  0  0  0  0  0  0  0  0  0  0  0
   30.2540   34.4020    8.6120 C   0  0  0  0  0  0  0  0  0  0  0  0
   28.7420   34.5140    8.5810 C   0  0  0  0  0  0  0  0  0  0  0  0
   28.1190   33.6580    9.6290 N   0  0  0  0  0  0  0  0  0  0  0  0
  1  2  1  0  0  0  0
  3  2  1  0  0  0  0
  4  3  1  0  0  0  0
  5  4  1  0  0  0  0
  5  6  1  0  0  0  0
M  END
>  <EGIN_R>
ES LYS A 135

>  <REMARK>
  4 active torsions:
  status: ('A' for Active; 'I' for Inactive)
    5  A    between atoms: CA   and  CB  
    6  A    between atoms: CB   and  CG  
    7  A    between atoms: CG   and  CD  
    8  A    between atoms: CD   and  CE  

$$$$
