ligand_79_pose_7_2HRL.pdbqt
 OpenBabel07062320523D

 58 60  0  0  1  0  0  0  0  0999 V2000
   29.2140   40.5540   12.8690 N   0  0  0  0  0  0  0  0  0  0  0  0
   30.5940   40.7580   13.1050 C   0  0  0  0  0  0  0  0  0  0  0  0
   31.3930   40.8600   12.1710 O   0  0  0  0  0  0  0  0  0  0  0  0
   28.6070   40.4860   13.7550 H   0  0  0  0  0  0  0  0  0  0  0  0
   28.5840   40.4330   11.5830 C   0  0  0  0  0  0  0  0  0  0  0  0
   28.7550   39.1300   10.8950 C   0  0  2  0  0  0  0  0  0  0  0  0
   27.6400   38.8080    9.9130 C   0  0  1  0  0  0  0  0  0  0  0  0
   28.1540   38.0540    8.7140 C   0  0  2  0  0  0  0  0  0  0  0  0
   29.4280   39.2850    7.2210 C   0  0  2  0  0  0  0  0  0  0  0  0
   28.8230   38.6450    5.9900 C   0  0  0  0  0  0  0  0  0  0  0  0
   29.4040   38.4310    8.3160 O   0  0  0  0  0  0  0  0  0  0  0  0
   27.8770   37.5200    6.3580 C   0  0  1  0  0  0  0  0  0  0  0  0
   27.1290   38.0040    7.6020 C   0  0  1  0  0  0  0  0  0  0  0  0
   28.8390   40.5090    7.5320 O   0  0  0  0  0  0  0  0  0  0  0  0
   27.8710   40.3910    7.7520 H   0  0  0  0  0  0  0  0  0  0  0  0
   30.8570   39.5590    6.9100 C   0  0  0  0  0  0  0  0  0  0  0  0
   31.6080   40.0490    7.8120 O   0  0  0  0  0  0  0  0  0  0  0  0
   31.4280   39.3090    5.6840 O   0  0  0  0  0  0  0  0  0  0  0  0
   31.5330   38.3790    5.2980 H   0  0  0  0  0  0  0  0  0  0  0  0
   27.0110   37.2030    5.3380 O   0  0  0  0  0  0  0  0  0  0  0  0
   26.7100   36.2490    5.4740 H   0  0  0  0  0  0  0  0  0  0  0  0
   26.0650   37.1060    7.9600 N   0  0  0  0  0  0  0  0  0  0  0  0
   24.6870   37.5240    7.9770 C   0  0  0  0  0  0  0  0  0  0  0  0
   26.2210   36.1030    8.2290 H   0  0  0  0  0  0  0  0  0  0  0  0
   23.5760   36.6430    8.3350 C   0  0  0  0  0  0  0  0  0  0  0  0
   24.4690   38.7360    7.6540 O   0  0  0  0  0  0  0  0  0  0  0  0
   26.7400   38.0060   10.6200 O   0  0  0  0  0  0  0  0  0  0  0  0
   26.7680   37.0690   10.3460 H   0  0  0  0  0  0  0  0  0  0  0  0
   28.7860   38.0910   11.8060 O   0  0  0  0  0  0  0  0  0  0  0  0
   28.3210   38.3970   12.6270 H   0  0  0  0  0  0  0  0  0  0  0  0
   31.1160   40.8530   14.3970 O   0  0  0  0  0  0  0  0  0  0  0  0
   30.6890   39.9910   15.4100 C   0  0  0  0  0  0  0  0  0  0  0  0
   30.5170   38.6130   14.8810 C   0  0  0  0  0  0  0  0  0  0  0  0
   31.5200   37.8030   14.3710 C   0  0  0  0  0  0  0  0  0  0  0  0
   29.3960   37.8700   14.7840 N   0  0  0  0  0  0  0  0  0  0  0  0
   30.9880   36.6240   13.9900 N   0  0  0  0  0  0  0  0  0  0  0  0
   29.6950   36.6980   14.2540 N   0  0  0  0  0  0  0  0  0  0  0  0
   31.7240   35.4910   13.3980 C   0  0  0  0  0  0  0  0  0  0  0  0
   30.7540   34.5540   12.7660 C   0  0  0  0  0  0  0  0  0  0  0  0
   32.6120   36.1580   12.3300 C   0  0  0  0  0  0  0  0  0  0  0  0
   32.5880   34.9390   14.4390 C   0  0  0  0  0  0  0  0  0  0  0  0
   33.8290   34.7180   14.2160 O   0  0  0  0  0  0  0  0  0  0  0  0
   32.1570   34.5880   15.7880 C   0  0  0  0  0  0  0  0  0  0  0  0
   32.3450   35.3840   16.9170 C   0  0  0  0  0  0  0  0  0  0  0  0
   31.5330   33.4210   16.1450 C   0  0  0  0  0  0  0  0  0  0  0  0
   31.8390   34.7020   17.9420 N   0  0  0  0  0  0  0  0  0  0  0  0
   31.3400   33.5180   17.5260 C   0  0  0  0  0  0  0  0  0  0  0  0
   31.0960   32.2910   15.4600 C   0  0  0  0  0  0  0  0  0  0  0  0
   31.8220   35.0180   18.9230 H   0  0  0  0  0  0  0  0  0  0  0  0
   30.7160   32.4680   18.1720 C   0  0  0  0  0  0  0  0  0  0  0  0
   30.4830   31.2730   16.1310 C   0  0  0  0  0  0  0  0  0  0  0  0
   30.2940   31.3600   17.4780 C   0  0  0  0  0  0  0  0  0  0  0  0
   29.8670   25.5550   16.9770 C   0  0  0  0  0  0  0  0  0  0  0  0
   28.3450   25.7220   17.0260 C   0  0  0  0  0  0  0  0  0  0  0  0
   27.6020   24.3990   16.9170 C   0  0  0  0  0  0  0  0  0  0  0  0
   26.1570   24.5280   17.3120 C   0  0  0  0  0  0  0  0  0  0  0  0
   26.0630   25.1290   18.7110 C   0  0  0  0  0  0  0  0  0  0  0  0
   24.8200   25.9250   18.8510 N   0  0  0  0  0  0  0  0  0  0  0  0
  1  2  1  0  0  0  0
  1  4  1  0  0  0  0
  2 31  1  0  0  0  0
  3  2  2  0  0  0  0
  5  1  1  0  0  0  0
  6  5  1  1  0  0  0
  6 29  1  0  0  0  0
  7 27  1  1  0  0  0
  7  6  1  0  0  0  0
  8  7  1  1  0  0  0
  9 16  1  6  0  0  0
  9 14  1  0  0  0  0
  9 11  1  0  0  0  0
 10 12  1  0  0  0  0
 10  9  1  0  0  0  0
 11  8  1  0  0  0  0
 12 20  1  6  0  0  0
 12 13  1  0  0  0  0
 13 22  1  1  0  0  0
 13  8  1  0  0  0  0
 14 15  1  0  0  0  0
 16 17  2  0  0  0  0
 18 16  1  0  0  0  0
 19 18  1  0  0  0  0
 20 21  1  0  0  0  0
 22 23  1  0  0  0  0
 22 24  1  0  0  0  0
 23 25  1  0  0  0  0
 26 23  2  0  0  0  0
 28 27  1  0  0  0  0
 29 30  1  0  0  0  0
 31 32  1  0  0  0  0
 33 32  1  0  0  0  0
 34 33  2  0  0  0  0
 35 33  1  0  0  0  0
 36 37  1  0  0  0  0
 36 34  1  0  0  0  0
 37 35  2  0  0  0  0
 38 36  1  0  0  0  0
 38 41  1  0  0  0  0
 39 38  1  0  0  0  0
 40 38  1  0  0  0  0
 41 43  1  0  0  0  0
 42 41  2  0  0  0  0
 43 45  1  0  0  0  0
 43 44  2  0  0  0  0
 44 46  1  0  0  0  0
 45 47  2  0  0  0  0
 46 49  1  0  0  0  0
 47 46  1  0  0  0  0
 47 50  1  0  0  0  0
 48 51  2  0  0  0  0
 48 45  1  0  0  0  0
 51 52  1  0  0  0  0
 52 50  2  0  0  0  0
 53 54  1  0  0  0  0
 55 54  1  0  0  0  0
 55 56  1  0  0  0  0
 56 57  1  0  0  0  0
 57 58  1  0  0  0  0
M  END
>  <REMARK>
 VINA RESULT:    -6.197      2.420      4.082
 INTER + INTRA:         -16.228
 INTER:                 -10.595
 INTRA:                  -5.633
 UNBOUND:                -4.777
 SMILES CC(=O)N[C@@H]1[C@@H](O)C[C@](O)(C(=O)O)O[C@H]1C(O)[C@H](O)CNC(=O)OCc1cn(C(C)(C)C(=O)c2c[nH]c3ccccc23)nn1
 SMILES IDX 21 1 22 2 23 3 20 5 18 6 16 7 15 8 9 9 8 10 14 11 6 12 5 13
 SMILES IDX 10 14 11 16 12 17 13 18 7 20 4 22 2 23 1 25 3 26 17 27 19 29
 SMILES IDX 24 31 25 32 26 33 27 34 44 35 28 36 43 37 29 38 30 39 31 40
 SMILES IDX 32 41 33 42 34 43 35 44 42 45 36 46 37 47 41 48 38 50 40 51
 SMILES IDX 39 52
 H PARENT 21 4 10 15 13 19 7 21 4 24 17 28 19 30 36 49
 Flexibility Score: inf
  4 active torsions:
  status: ('A' for Active; 'I' for Inactive)
    1  A    between atoms: CA   and  CB  
    2  A    between atoms: CB   and  CG  
    3  A    between atoms: CG   and  CD  
    4  A    between atoms: CD   and  CE  

>  <TORSDO>
F 17

>  <BEGIN_>
RES LYS A 131

$$$$
ligand_79_pose_7_2HRL.pdbqt
 OpenBabel07062320523D

  6  5  0  0  0  0  0  0  0  0999 V2000
   33.1930   34.6630    9.2900 C   0  0  0  0  0  0  0  0  0  0  0  0
   32.0600   35.3600   10.0340 C   0  0  0  0  0  0  0  0  0  0  0  0
   30.8090   35.5230    9.2100 C   0  0  0  0  0  0  0  0  0  0  0  0
   30.0760   34.1960    9.0790 C   0  0  0  0  0  0  0  0  0  0  0  0
   28.7440   34.3910    8.3810 C   0  0  0  0  0  0  0  0  0  0  0  0
   27.6090   34.1250    9.3080 N   0  0  0  0  0  0  0  0  0  0  0  0
  1  2  1  0  0  0  0
  3  2  1  0  0  0  0
  4  3  1  0  0  0  0
  5  4  1  0  0  0  0
  5  6  1  0  0  0  0
M  END
>  <EGIN_R>
ES LYS A 135

>  <REMARK>
  4 active torsions:
  status: ('A' for Active; 'I' for Inactive)
    5  A    between atoms: CA   and  CB  
    6  A    between atoms: CB   and  CG  
    7  A    between atoms: CG   and  CD  
    8  A    between atoms: CD   and  CE  

$$$$
