ligand_35_pose_13_2HRL.pdbqt
 OpenBabel07062320523D

 49 49  0  0  1  0  0  0  0  0999 V2000
   32.9030   34.7680   19.6510 N   0  0  0  0  0  0  0  0  0  0  0  0
   32.5820   34.1950   20.9020 C   0  0  0  0  0  0  0  0  0  0  0  0
   31.5990   34.5900   21.5780 O   0  0  0  0  0  0  0  0  0  0  0  0
   33.7250   34.4060   19.1320 H   0  0  0  0  0  0  0  0  0  0  0  0
   32.1280   35.8300   19.0800 C   0  0  0  0  0  0  0  0  0  0  0  0
   31.6520   35.5230   17.6560 C   0  0  2  0  0  0  0  0  0  0  0  0
   30.6980   34.3830   17.7450 C   0  0  2  0  0  0  0  0  0  0  0  0
   29.7040   34.2570   16.6400 C   0  0  2  0  0  0  0  0  0  0  0  0
   29.5940   31.9270   16.5220 C   0  0  2  0  0  0  0  0  0  0  0  0
   30.8030   31.9980   15.6780 C   0  0  0  0  0  0  0  0  0  0  0  0
   28.9750   33.0990   16.8690 O   0  0  0  0  0  0  0  0  0  0  0  0
   30.9270   33.1580   14.7550 C   0  0  1  0  0  0  0  0  0  0  0  0
   30.2020   34.3760   15.2510 C   0  0  1  0  0  0  0  0  0  0  0  0
   30.0050   31.3460   17.7510 O   0  0  0  0  0  0  0  0  0  0  0  0
   30.5550   30.5660   17.5290 H   0  0  0  0  0  0  0  0  0  0  0  0
   28.6270   30.9680   15.9210 C   0  0  0  0  0  0  0  0  0  0  0  0
   27.4210   31.2760   15.7160 O   0  0  0  0  0  0  0  0  0  0  0  0
   29.0230   29.6920   15.5610 O   0  0  0  0  0  0  0  0  0  0  0  0
   29.5660   29.4880   14.7280 H   0  0  0  0  0  0  0  0  0  0  0  0
   32.3010   33.4090   14.5810 O   0  0  0  0  0  0  0  0  0  0  0  0
   32.7730   32.6900   15.0670 H   0  0  0  0  0  0  0  0  0  0  0  0
   29.0110   34.5850   14.4020 N   0  0  0  0  0  0  0  0  0  0  0  0
   29.0860   35.3430   13.2120 C   0  0  0  0  0  0  0  0  0  0  0  0
   28.0860   34.1880   14.6460 H   0  0  0  0  0  0  0  0  0  0  0  0
   27.9250   35.5780   12.3340 C   0  0  0  0  0  0  0  0  0  0  0  0
   30.1970   35.8580   12.8580 O   0  0  0  0  0  0  0  0  0  0  0  0
   29.9070   34.6560   18.9090 O   0  0  0  0  0  0  0  0  0  0  0  0
   29.1140   34.0740   18.8040 H   0  0  0  0  0  0  0  0  0  0  0  0
   32.8030   35.1810   16.9560 O   0  0  0  0  0  0  0  0  0  0  0  0
   32.5260   34.5970   16.2050 H   0  0  0  0  0  0  0  0  0  0  0  0
   33.3590   33.1510   21.4400 O   0  0  0  0  0  0  0  0  0  0  0  0
   32.7880   32.2100   22.3310 C   0  0  0  0  0  0  0  0  0  0  0  0
   32.0610   31.1460   21.5950 C   0  0  0  0  0  0  0  0  0  0  0  0
   32.1550   29.7710   21.8260 C   0  0  0  0  0  0  0  0  0  0  0  0
   31.1800   31.2600   20.5770 N   0  0  0  0  0  0  0  0  0  0  0  0
   31.3540   29.1330   20.9680 N   0  0  0  0  0  0  0  0  0  0  0  0
   30.7700   30.0340   20.2190 N   0  0  0  0  0  0  0  0  0  0  0  0
   31.1500   27.6830   20.8650 C   0  0  1  0  0  0  0  0  0  0  0  0
   31.9630   26.9740   21.9340 C   0  0  0  0  0  0  0  0  0  0  0  0
   29.7380   27.3210   20.9710 C   0  0  0  0  0  0  0  0  0  0  0  0
   29.1630   27.3620   22.0820 O   0  0  0  0  0  0  0  0  0  0  0  0
   28.9590   26.9180   19.8880 O   0  0  0  0  0  0  0  0  0  0  0  0
   28.9440   27.4510   19.0260 H   0  0  0  0  0  0  0  0  0  0  0  0
   29.8670   25.5550   16.9770 C   0  0  0  0  0  0  0  0  0  0  0  0
   28.3450   25.7220   17.0260 C   0  0  0  0  0  0  0  0  0  0  0  0
   27.6010   24.4000   16.9090 C   0  0  0  0  0  0  0  0  0  0  0  0
   26.5370   24.2540   17.9600 C   0  0  0  0  0  0  0  0  0  0  0  0
   25.2450   23.7670   17.3130 C   0  0  0  0  0  0  0  0  0  0  0  0
   24.9890   22.3510   17.6650 N   0  0  0  0  0  0  0  0  0  0  0  0
  1  2  1  0  0  0  0
  2 31  1  0  0  0  0
  2  3  2  0  0  0  0
  4  1  1  0  0  0  0
  5  1  1  0  0  0  0
  6  7  1  0  0  0  0
  6  5  1  1  0  0  0
  7 27  1  1  0  0  0
  8 11  1  0  0  0  0
  8  7  1  1  0  0  0
  9 16  1  6  0  0  0
  9 11  1  0  0  0  0
  9 14  1  0  0  0  0
 10  9  1  0  0  0  0
 12 20  1  1  0  0  0
 12 13  1  0  0  0  0
 12 10  1  0  0  0  0
 13 22  1  6  0  0  0
 13  8  1  0  0  0  0
 15 14  1  0  0  0  0
 17 16  2  0  0  0  0
 18 16  1  0  0  0  0
 19 18  1  0  0  0  0
 20 21  1  0  0  0  0
 22 24  1  0  0  0  0
 23 22  1  0  0  0  0
 25 23  1  0  0  0  0
 26 23  2  0  0  0  0
 28 27  1  0  0  0  0
 29  6  1  0  0  0  0
 30 29  1  0  0  0  0
 31 32  1  0  0  0  0
 33 34  2  0  0  0  0
 33 32  1  0  0  0  0
 35 33  1  0  0  0  0
 36 34  1  0  0  0  0
 37 35  2  0  0  0  0
 37 36  1  0  0  0  0
 38 36  1  0  0  0  0
 38 40  1  0  0  0  0
 38 39  1  1  0  0  0
 40 41  2  0  0  0  0
 42 40  1  0  0  0  0
 43 42  1  0  0  0  0
 44 45  1  0  0  0  0
 46 45  1  0  0  0  0
 46 47  1  0  0  0  0
 48 49  1  0  0  0  0
 48 47  1  0  0  0  0
M  END
>  <REMARK>
 VINA RESULT:    -4.920      2.799      5.410
 INTER + INTRA:         -13.671
 INTER:                  -8.039
 INTRA:                  -5.632
 UNBOUND:                -4.724
 SMILES CC(=O)N[C@@H]1[C@@H](O)C[C@](O)(C(=O)O)O[C@H]1C(O)[C@H](O)CNC(=O)OCc1cn([C@@H](C)C(=O)O)nn1
 SMILES IDX 21 1 22 2 23 3 20 5 18 6 16 7 15 8 9 9 8 10 14 11 6 12 5 13
 SMILES IDX 10 14 11 16 12 17 13 18 7 20 4 22 2 23 1 25 3 26 17 27 19 29
 SMILES IDX 24 31 25 32 26 33 27 34 35 35 28 36 34 37 29 38 30 39 31 40
 SMILES IDX 32 41 33 42
 H PARENT 21 4 10 15 13 19 7 21 4 24 17 28 19 30 33 43
 Flexibility Score: inf
  4 active torsions:
  status: ('A' for Active; 'I' for Inactive)
    1  A    between atoms: CA   and  CB  
    2  A    between atoms: CB   and  CG  
    3  A    between atoms: CG   and  CD  
    4  A    between atoms: CD   and  CE  

>  <TORSDO>
F 17

>  <BEGIN_>
RES LYS A 131

$$$$
ligand_35_pose_13_2HRL.pdbqt
 OpenBabel07062320523D

  6  5  0  0  0  0  0  0  0  0999 V2000
   33.1930   34.6630    9.2900 C   0  0  0  0  0  0  0  0  0  0  0  0
   32.0600   35.3600   10.0340 C   0  0  0  0  0  0  0  0  0  0  0  0
   30.7780   35.4360    9.2450 C   0  0  0  0  0  0  0  0  0  0  0  0
   30.1950   34.0480    9.0330 C   0  0  0  0  0  0  0  0  0  0  0  0
   28.6800   34.0970    9.0610 C   0  0  0  0  0  0  0  0  0  0  0  0
   28.1480   34.9070    7.9300 N   0  0  0  0  0  0  0  0  0  0  0  0
  1  2  1  0  0  0  0
  3  2  1  0  0  0  0
  4  5  1  0  0  0  0
  4  3  1  0  0  0  0
  6  5  1  0  0  0  0
M  END
>  <EGIN_R>
ES LYS A 135

>  <REMARK>
  4 active torsions:
  status: ('A' for Active; 'I' for Inactive)
    5  A    between atoms: CA   and  CB  
    6  A    between atoms: CB   and  CG  
    7  A    between atoms: CG   and  CD  
    8  A    between atoms: CD   and  CE  

$$$$
