ligand_88_pose_15_2HRL.pdbqt
 OpenBabel07062320523D

 54 55  0  0  1  0  0  0  0  0999 V2000
   32.6270   28.8620   20.8120 N   0  0  0  0  0  0  0  0  0  0  0  0
   33.2730   29.2630   22.0160 C   0  0  0  0  0  0  0  0  0  0  0  0
   32.9590   28.6990   23.0890 O   0  0  0  0  0  0  0  0  0  0  0  0
   32.9040   29.3430   19.9380 H   0  0  0  0  0  0  0  0  0  0  0  0
   31.6240   27.8320   20.7890 C   0  0  0  0  0  0  0  0  0  0  0  0
   30.2460   28.4160   20.9130 C   0  0  2  0  0  0  0  0  0  0  0  0
   29.1690   27.3540   20.8720 C   0  0  1  0  0  0  0  0  0  0  0  0
   27.9350   27.8500   21.6480 C   0  0  2  0  0  0  0  0  0  0  0  0
   26.9130   29.9480   21.3490 C   0  0  2  0  0  0  0  0  0  0  0  0
   26.5560   29.8580   22.8400 C   0  0  0  0  0  0  0  0  0  0  0  0
   27.3130   28.7450   20.8730 O   0  0  0  0  0  0  0  0  0  0  0  0
   27.8920   29.5590   23.5030 C   0  0  1  0  0  0  0  0  0  0  0  0
   28.3080   28.1980   23.0270 C   0  0  1  0  0  0  0  0  0  0  0  0
   27.8500   30.9570   21.2510 O   0  0  0  0  0  0  0  0  0  0  0  0
   27.5370   31.7450   20.7440 H   0  0  0  0  0  0  0  0  0  0  0  0
   25.7040   30.3580   20.5910 C   0  0  0  0  0  0  0  0  0  0  0  0
   24.7280   29.5680   20.5380 O   0  0  0  0  0  0  0  0  0  0  0  0
   25.6140   31.5840   19.9390 O   0  0  0  0  0  0  0  0  0  0  0  0
   26.0060   31.6050   18.9860 H   0  0  0  0  0  0  0  0  0  0  0  0
   28.8300   30.5400   23.1900 O   0  0  0  0  0  0  0  0  0  0  0  0
   28.3410   31.3260   22.8690 H   0  0  0  0  0  0  0  0  0  0  0  0
   27.8200   27.2370   24.0150 N   0  0  0  0  0  0  0  0  0  0  0  0
   28.5800   26.1280   24.4630 C   0  0  0  0  0  0  0  0  0  0  0  0
   26.8570   27.3390   24.4420 H   0  0  0  0  0  0  0  0  0  0  0  0
   28.0390   25.1710   25.4750 C   0  0  0  0  0  0  0  0  0  0  0  0
   29.7340   25.9410   24.0000 O   0  0  0  0  0  0  0  0  0  0  0  0
   28.8540   26.9230   19.6070 O   0  0  0  0  0  0  0  0  0  0  0  0
   28.6200   27.6590   19.0040 H   0  0  0  0  0  0  0  0  0  0  0  0
   30.0720   29.4300   19.9980 O   0  0  0  0  0  0  0  0  0  0  0  0
   30.7740   29.4910   19.3230 H   0  0  0  0  0  0  0  0  0  0  0  0
   34.2270   30.2500   22.0060 O   0  0  0  0  0  0  0  0  0  0  0  0
   33.9460   31.5690   22.4410 C   0  0  0  0  0  0  0  0  0  0  0  0
   32.6710   32.0140   21.8190 C   0  0  0  0  0  0  0  0  0  0  0  0
   32.5180   32.9770   20.8300 C   0  0  0  0  0  0  0  0  0  0  0  0
   31.4150   31.5980   22.0640 N   0  0  0  0  0  0  0  0  0  0  0  0
   31.2180   33.1000   20.5280 N   0  0  0  0  0  0  0  0  0  0  0  0
   30.5500   32.2340   21.3070 N   0  0  0  0  0  0  0  0  0  0  0  0
   30.6140   33.9760   19.5620 C   0  0  0  0  0  0  0  0  0  0  0  0
   30.6860   33.4500   18.1750 C   0  0  0  0  0  0  0  0  0  0  0  0
   31.5670   34.0470   17.2960 C   0  0  0  0  0  0  0  0  0  0  0  0
   29.9190   32.4010   17.7250 C   0  0  0  0  0  0  0  0  0  0  0  0
   31.7140   33.6420   15.9880 C   0  0  0  0  0  0  0  0  0  0  0  0
   30.0480   31.9700   16.4010 C   0  0  0  0  0  0  0  0  0  0  0  0
   32.9370   34.4820   14.8010 Br  0  0  0  0  0  0  0  0  0  0  0  0
   30.9320   32.5820   15.5460 C   0  0  0  0  0  0  0  0  0  0  0  0
   28.9400   30.5000   15.8550 Br  0  0  0  0  0  0  0  0  0  0  0  0
   29.0270   31.7810   18.5800 O   0  0  0  0  0  0  0  0  0  0  0  0
   28.0790   31.6180   18.2690 H   0  0  0  0  0  0  0  0  0  0  0  0
   29.8670   25.5550   16.9770 C   0  0  0  0  0  0  0  0  0  0  0  0
   28.3450   25.7220   17.0260 C   0  0  0  0  0  0  0  0  0  0  0  0
   27.6020   24.3990   16.9210 C   0  0  0  0  0  0  0  0  0  0  0  0
   26.1540   24.5310   17.3030 C   0  0  0  0  0  0  0  0  0  0  0  0
   25.9400   25.8480   18.0430 C   0  0  0  0  0  0  0  0  0  0  0  0
   25.6670   25.5980   19.4780 N   0  0  0  0  0  0  0  0  0  0  0  0
  1  2  1  0  0  0  0
  2  3  2  0  0  0  0
  4  1  1  0  0  0  0
  5  1  1  0  0  0  0
  6  5  1  6  0  0  0
  7 27  1  6  0  0  0
  7  6  1  0  0  0  0
  8  7  1  6  0  0  0
  8 13  1  0  0  0  0
  9 16  1  6  0  0  0
  9 10  1  0  0  0  0
 10 12  1  0  0  0  0
 11  9  1  0  0  0  0
 11  8  1  0  0  0  0
 12 20  1  6  0  0  0
 13 12  1  0  0  0  0
 13 22  1  1  0  0  0
 14  9  1  0  0  0  0
 15 14  1  0  0  0  0
 17 16  2  0  0  0  0
 18 16  1  0  0  0  0
 19 18  1  0  0  0  0
 21 20  1  0  0  0  0
 22 24  1  0  0  0  0
 22 23  1  0  0  0  0
 23 25  1  0  0  0  0
 26 23  2  0  0  0  0
 28 27  1  0  0  0  0
 29  6  1  0  0  0  0
 30 29  1  0  0  0  0
 31  2  1  0  0  0  0
 31 32  1  0  0  0  0
 33 35  1  0  0  0  0
 33 32  1  0  0  0  0
 34 33  2  0  0  0  0
 36 34  1  0  0  0  0
 36 37  1  0  0  0  0
 37 35  2  0  0  0  0
 38 36  1  0  0  0  0
 39 38  1  0  0  0  0
 40 39  2  0  0  0  0
 41 39  1  0  0  0  0
 41 47  1  0  0  0  0
 42 40  1  0  0  0  0
 43 41  2  0  0  0  0
 44 42  1  0  0  0  0
 45 42  2  0  0  0  0
 45 43  1  0  0  0  0
 46 43  1  0  0  0  0
 48 47  1  0  0  0  0
 49 50  1  0  0  0  0
 51 50  1  0  0  0  0
 51 52  1  0  0  0  0
 52 53  1  0  0  0  0
 53 54  1  0  0  0  0
M  END
>  <REMARK>
 VINA RESULT:    -5.036      2.671      5.257
 INTER + INTRA:         -14.952
 INTER:                  -7.691
 INTRA:                  -7.262
 UNBOUND:                -5.794
 SMILES CC(=O)N[C@@H]1[C@@H](O)C[C@](O)(C(=O)O)O[C@H]1C(O)[C@H](O)CNC(=O)OCc1cn(Cc2cc(Br)cc(Br)c2O)nn1
 SMILES IDX 21 1 22 2 23 3 20 5 18 6 16 7 15 8 9 9 8 10 14 11 6 12 5 13
 SMILES IDX 10 14 11 16 12 17 13 18 7 20 4 22 2 23 1 25 3 26 17 27 19 29
 SMILES IDX 24 31 25 32 26 33 27 34 40 35 28 36 39 37 29 38 30 39 31 40
 SMILES IDX 37 41 32 42 35 43 33 44 34 45 36 46 38 47
 H PARENT 21 4 10 15 13 19 7 21 4 24 17 28 19 30 38 48
 Flexibility Score: inf
  4 active torsions:
  status: ('A' for Active; 'I' for Inactive)
    1  A    between atoms: CA   and  CB  
    2  A    between atoms: CB   and  CG  
    3  A    between atoms: CG   and  CD  
    4  A    between atoms: CD   and  CE  

>  <TORSDO>
F 17

>  <BEGIN_>
RES LYS A 131

$$$$
ligand_88_pose_15_2HRL.pdbqt
 OpenBabel07062320523D

  6  5  0  0  0  0  0  0  0  0999 V2000
   33.1930   34.6630    9.2900 C   0  0  0  0  0  0  0  0  0  0  0  0
   32.0600   35.3600   10.0340 C   0  0  0  0  0  0  0  0  0  0  0  0
   30.7280   34.6710    9.8850 C   0  0  0  0  0  0  0  0  0  0  0  0
   30.3590   34.5280    8.4160 C   0  0  0  0  0  0  0  0  0  0  0  0
   28.8530   34.5650    8.2390 C   0  0  0  0  0  0  0  0  0  0  0  0
   28.4330   35.7680    7.4680 N   0  0  0  0  0  0  0  0  0  0  0  0
  1  2  1  0  0  0  0
  3  2  1  0  0  0  0
  4  3  1  0  0  0  0
  5  4  1  0  0  0  0
  6  5  1  0  0  0  0
M  END
>  <EGIN_R>
ES LYS A 135

>  <REMARK>
  4 active torsions:
  status: ('A' for Active; 'I' for Inactive)
    5  A    between atoms: CA   and  CB  
    6  A    between atoms: CB   and  CG  
    7  A    between atoms: CG   and  CD  
    8  A    between atoms: CD   and  CE  

$$$$
