ligand_45_pose_3_2HRL.pdbqt
 OpenBabel07062320523D

 52 52  0  0  1  0  0  0  0  0999 V2000
   25.7280   31.1080   16.8790 O   0  0  0  0  0  0  0  0  0  0  0  0
   25.9730   30.6390   18.1540 C   0  0  0  0  0  0  0  0  0  0  0  0
   26.7630   29.4700   18.3980 N   0  0  0  0  0  0  0  0  0  0  0  0
   27.1450   29.0050   17.5680 H   0  0  0  0  0  0  0  0  0  0  0  0
   25.4850   31.2590   19.1270 O   0  0  0  0  0  0  0  0  0  0  0  0
   26.9690   29.0510   19.7350 C   0  0  0  0  0  0  0  0  0  0  0  0
   28.3840   28.8670   20.1730 C   0  0  2  0  0  0  0  0  0  0  0  0
   29.3030   30.0160   19.8980 C   0  0  1  0  0  0  0  0  0  0  0  0
   30.6300   29.9470   20.5910 C   0  0  2  0  0  0  0  0  0  0  0  0
   31.7980   28.7430   22.1630 C   0  0  2  0  0  0  0  0  0  0  0  0
   32.9130   29.5740   21.5570 C   0  0  0  0  0  0  0  0  0  0  0  0
   30.6060   28.9200   21.5030 O   0  0  0  0  0  0  0  0  0  0  0  0
   32.5720   31.0310   21.6010 C   0  0  1  0  0  0  0  0  0  0  0  0
   31.0970   31.2080   21.2300 C   0  0  1  0  0  0  0  0  0  0  0  0
   31.6370   29.1780   23.4910 O   0  0  0  0  0  0  0  0  0  0  0  0
   31.6560   28.3560   24.0470 H   0  0  0  0  0  0  0  0  0  0  0  0
   32.1860   27.3240   22.1790 C   0  0  0  0  0  0  0  0  0  0  0  0
   31.4280   26.4500   21.6730 O   0  0  0  0  0  0  0  0  0  0  0  0
   33.3760   26.9050   22.7370 O   0  0  0  0  0  0  0  0  0  0  0  0
   34.1320   26.5780   22.1660 H   0  0  0  0  0  0  0  0  0  0  0  0
   32.8080   31.5080   22.8980 O   0  0  0  0  0  0  0  0  0  0  0  0
   32.6190   30.7970   23.5470 H   0  0  0  0  0  0  0  0  0  0  0  0
   31.0980   32.3300   20.2850 N   0  0  0  0  0  0  0  0  0  0  0  0
   31.1010   33.6640   20.7560 C   0  0  0  0  0  0  0  0  0  0  0  0
   31.0940   32.1280   19.2590 H   0  0  0  0  0  0  0  0  0  0  0  0
   31.0980   34.7990   19.7790 C   0  0  0  0  0  0  0  0  0  0  0  0
   31.1090   33.9660   21.9890 O   0  0  0  0  0  0  0  0  0  0  0  0
   29.4810   30.1320   18.5110 O   0  0  0  0  0  0  0  0  0  0  0  0
   30.4140   30.4500   18.3620 H   0  0  0  0  0  0  0  0  0  0  0  0
   28.8590   27.7060   19.5250 O   0  0  0  0  0  0  0  0  0  0  0  0
   29.6250   27.8890   18.9450 H   0  0  0  0  0  0  0  0  0  0  0  0
   26.1490   32.4210   16.5380 C   0  0  0  0  0  0  0  0  0  0  0  0
   27.6240   32.5160   16.6240 C   0  0  0  0  0  0  0  0  0  0  0  0
   28.5860   32.2020   15.6890 C   0  0  0  0  0  0  0  0  0  0  0  0
   28.3210   32.9510   17.6950 N   0  0  0  0  0  0  0  0  0  0  0  0
   29.8130   32.4410   16.1910 N   0  0  0  0  0  0  0  0  0  0  0  0
   29.6070   32.8950   17.4100 N   0  0  0  0  0  0  0  0  0  0  0  0
   31.0900   32.2580   15.5830 C   0  0  0  0  0  0  0  0  0  0  0  0
   31.9320   33.4760   15.5560 C   0  0  0  0  0  0  0  0  0  0  0  0
   31.6940   34.4780   14.5040 C   0  0  0  0  0  0  0  0  0  0  0  0
   31.0390   35.6870   14.7910 N   0  0  0  0  0  0  0  0  0  0  0  0
   30.8920   36.0380   16.1770 C   0  0  0  0  0  0  0  0  0  0  0  0
   31.8950   36.7510   14.2300 C   0  0  0  0  0  0  0  0  0  0  0  0
   31.1530   37.8790   13.6230 C   0  0  0  0  0  0  0  0  0  0  0  0
   29.7610   35.8270   14.1500 C   0  0  0  0  0  0  0  0  0  0  0  0
   29.4120   34.7460   13.1930 C   0  0  0  0  0  0  0  0  0  0  0  0
   29.8670   25.5550   16.9770 C   0  0  0  0  0  0  0  0  0  0  0  0
   28.3450   25.7220   17.0260 C   0  0  0  0  0  0  0  0  0  0  0  0
   27.6010   24.4030   16.8870 C   0  0  0  0  0  0  0  0  0  0  0  0
   26.1620   24.5170   17.3060 C   0  0  0  0  0  0  0  0  0  0  0  0
   25.9940   25.7210   18.2280 C   0  0  0  0  0  0  0  0  0  0  0  0
   24.8330   26.5400   17.8060 N   0  0  0  0  0  0  0  0  0  0  0  0
  1  2  1  0  0  0  0
  2  3  1  0  0  0  0
  2  5  2  0  0  0  0
  3  6  1  0  0  0  0
  4  3  1  0  0  0  0
  7  6  1  6  0  0  0
  8 28  1  6  0  0  0
  8  7  1  0  0  0  0
  9  8  1  1  0  0  0
  9 14  1  0  0  0  0
  9 12  1  0  0  0  0
 10 17  1  6  0  0  0
 10 15  1  0  0  0  0
 11 13  1  0  0  0  0
 11 10  1  0  0  0  0
 12 10  1  0  0  0  0
 13 21  1  1  0  0  0
 14 23  1  6  0  0  0
 14 13  1  0  0  0  0
 15 16  1  0  0  0  0
 17 19  1  0  0  0  0
 18 17  2  0  0  0  0
 20 19  1  0  0  0  0
 21 22  1  0  0  0  0
 23 24  1  0  0  0  0
 24 27  2  0  0  0  0
 25 23  1  0  0  0  0
 26 24  1  0  0  0  0
 29 28  1  0  0  0  0
 30  7  1  0  0  0  0
 31 30  1  0  0  0  0
 32 33  1  0  0  0  0
 32  1  1  0  0  0  0
 33 35  1  0  0  0  0
 34 36  1  0  0  0  0
 34 33  2  0  0  0  0
 36 37  1  0  0  0  0
 37 35  2  0  0  0  0
 38 36  1  0  0  0  0
 39 38  1  0  0  0  0
 40 41  1  0  0  0  0
 40 39  1  0  0  0  0
 41 42  1  0  0  0  0
 43 41  1  0  0  0  0
 44 43  1  0  0  0  0
 45 41  1  0  0  0  0
 46 45  1  0  0  0  0
 47 48  1  0  0  0  0
 49 48  1  0  0  0  0
 49 50  1  0  0  0  0
 50 51  1  0  0  0  0
 52 51  1  0  0  0  0
M  END
>  <REMARK>
 VINA RESULT:    -4.373      1.735      2.512
 INTER + INTRA:         -14.722
 INTER:                  -7.993
 INTRA:                  -6.729
 UNBOUND:                -5.875
 SMILES CC[N+](C)(CC)CCCn1cc(COC(=O)NC[C@@H](O)C(O)[C@@H]2O[C@@](O)(C(=O)O)C[C@H](O)[C@H]2NC(C)=O)nn1
 SMILES IDX 14 1 15 2 17 3 16 5 18 6 19 7 21 8 23 9 25 10 30 11 24 12
 SMILES IDX 31 13 33 14 26 15 27 17 28 18 29 19 32 21 34 23 35 24 36 26
 SMILES IDX 37 27 22 28 20 30 13 32 12 33 11 34 38 35 10 36 39 37 9 38
 SMILES IDX 8 39 7 40 3 41 4 42 2 43 1 44 5 45 6 46
 H PARENT 17 4 26 16 29 20 32 22 34 25 22 29 20 31
 Flexibility Score: inf
  4 active torsions:
  status: ('A' for Active; 'I' for Inactive)
    1  A    between atoms: CA   and  CB  
    2  A    between atoms: CB   and  CG  
    3  A    between atoms: CG   and  CD  
    4  A    between atoms: CD   and  CE  

>  <TORSDO>
F 20

>  <BEGIN_>
RES LYS A 131

$$$$
ligand_45_pose_3_2HRL.pdbqt
 OpenBabel07062320523D

  6  5  0  0  0  0  0  0  0  0999 V2000
   33.1930   34.6630    9.2900 C   0  0  0  0  0  0  0  0  0  0  0  0
   32.0600   35.3600   10.0340 C   0  0  0  0  0  0  0  0  0  0  0  0
   30.6960   34.8100    9.7060 C   0  0  0  0  0  0  0  0  0  0  0  0
   30.5880   34.4910    8.2230 C   0  0  0  0  0  0  0  0  0  0  0  0
   29.3130   35.0750    7.6440 C   0  0  0  0  0  0  0  0  0  0  0  0
   29.1640   36.5090    8.0160 N   0  0  0  0  0  0  0  0  0  0  0  0
  1  2  1  0  0  0  0
  3  2  1  0  0  0  0
  4  3  1  0  0  0  0
  5  6  1  0  0  0  0
  5  4  1  0  0  0  0
M  END
>  <EGIN_R>
ES LYS A 135

>  <REMARK>
  4 active torsions:
  status: ('A' for Active; 'I' for Inactive)
    5  A    between atoms: CA   and  CB  
    6  A    between atoms: CB   and  CG  
    7  A    between atoms: CG   and  CD  
    8  A    between atoms: CD   and  CE  

$$$$
