ligand_10_pose_19_2HRL.pdbqt
 OpenBabel07062320523D

 53 53  0  0  1  0  0  0  0  0999 V2000
   27.0130   31.3400   16.7640 N   0  0  0  0  0  0  0  0  0  0  0  0
   27.4810   30.0130   17.0030 C   0  0  0  0  0  0  0  0  0  0  0  0
   28.1510   29.4540   16.1280 O   0  0  0  0  0  0  0  0  0  0  0  0
   26.4490   31.7520   17.5530 H   0  0  0  0  0  0  0  0  0  0  0  0
   27.2620   32.0880   15.5720 C   0  0  0  0  0  0  0  0  0  0  0  0
   28.0850   33.3250   15.8700 C   0  0  2  0  0  0  0  0  0  0  0  0
   29.4670   33.2260   15.2500 C   0  0  2  0  0  0  0  0  0  0  0  0
   29.6650   34.0890   14.0570 C   0  0  2  0  0  0  0  0  0  0  0  0
   31.9030   34.4910   14.5340 C   0  0  2  0  0  0  0  0  0  0  0  0
   31.5250   35.5990   15.4240 C   0  0  0  0  0  0  0  0  0  0  0  0
   30.9880   34.0660   13.6050 O   0  0  0  0  0  0  0  0  0  0  0  0
   30.1870   36.2070   15.2770 C   0  0  1  0  0  0  0  0  0  0  0  0
   29.2730   35.5190   14.3030 C   0  0  1  0  0  0  0  0  0  0  0  0
   32.2490   33.3340   15.2790 O   0  0  0  0  0  0  0  0  0  0  0  0
   31.4620   32.7320   15.1910 H   0  0  0  0  0  0  0  0  0  0  0  0
   33.1430   34.8140   13.7770 C   0  0  0  0  0  0  0  0  0  0  0  0
   34.2930   34.8100   14.2720 O   0  0  0  0  0  0  0  0  0  0  0  0
   33.0100   35.1400   12.4370 O   0  0  0  0  0  0  0  0  0  0  0  0
   32.4690   34.5600   11.7830 H   0  0  0  0  0  0  0  0  0  0  0  0
   29.5570   36.3080   16.5140 O   0  0  0  0  0  0  0  0  0  0  0  0
   28.6480   36.6500   16.4780 H   0  0  0  0  0  0  0  0  0  0  0  0
   29.2800   36.2380   13.0050 N   0  0  0  0  0  0  0  0  0  0  0  0
   28.0990   36.3660   12.2390 C   0  0  0  0  0  0  0  0  0  0  0  0
   30.1510   36.6640   12.6250 H   0  0  0  0  0  0  0  0  0  0  0  0
   28.0600   37.0780   10.9290 C   0  0  0  0  0  0  0  0  0  0  0  0
   27.0470   35.8590   12.6820 O   0  0  0  0  0  0  0  0  0  0  0  0
   29.5410   31.8570   14.8640 O   0  0  0  0  0  0  0  0  0  0  0  0
   29.0440   31.2930   15.5010 H   0  0  0  0  0  0  0  0  0  0  0  0
   28.1030   33.5110   17.2460 O   0  0  0  0  0  0  0  0  0  0  0  0
   27.3050   33.9830   17.5890 H   0  0  0  0  0  0  0  0  0  0  0  0
   27.2120   29.3320   18.1790 O   0  0  0  0  0  0  0  0  0  0  0  0
   28.1600   29.3100   19.2160 C   0  0  0  0  0  0  0  0  0  0  0  0
   28.5020   30.6670   19.7060 C   0  0  0  0  0  0  0  0  0  0  0  0
   29.7260   30.9740   20.2520 C   0  0  0  0  0  0  0  0  0  0  0  0
   27.7810   31.7850   19.7300 N   0  0  0  0  0  0  0  0  0  0  0  0
   29.7090   32.2870   20.5940 N   0  0  0  0  0  0  0  0  0  0  0  0
   28.5300   32.7340   20.2660 N   0  0  0  0  0  0  0  0  0  0  0  0
   30.8540   32.9560   21.2050 C   0  0  1  0  0  0  0  0  0  0  0  0
   31.7650   33.4770   20.1270 C   0  0  0  0  0  0  0  0  0  0  0  0
   31.0420   33.8010   18.8880 C   0  0  0  0  0  0  0  0  0  0  0  0
   31.1590   33.0370   17.8980 O   0  0  0  0  0  0  0  0  0  0  0  0
   30.2520   34.9400   18.8410 O   0  0  0  0  0  0  0  0  0  0  0  0
   29.7890   35.1890   17.9530 H   0  0  0  0  0  0  0  0  0  0  0  0
   30.3560   34.1350   21.9640 C   0  0  0  0  0  0  0  0  0  0  0  0
   30.8340   35.2920   21.8550 O   0  0  0  0  0  0  0  0  0  0  0  0
   29.3040   33.9480   22.8440 O   0  0  0  0  0  0  0  0  0  0  0  0
   28.3630   33.7320   22.5340 H   0  0  0  0  0  0  0  0  0  0  0  0
   29.8670   25.5550   16.9770 C   0  0  0  0  0  0  0  0  0  0  0  0
   28.3450   25.7220   17.0260 C   0  0  0  0  0  0  0  0  0  0  0  0
   27.6020   24.4000   16.9140 C   0  0  0  0  0  0  0  0  0  0  0  0
   26.2280   24.4690   17.5220 C   0  0  0  0  0  0  0  0  0  0  0  0
   25.9850   25.8710   18.0720 C   0  0  0  0  0  0  0  0  0  0  0  0
   24.7420   25.9030   18.8790 N   0  0  0  0  0  0  0  0  0  0  0  0
  1  2  1  0  0  0  0
  1  4  1  0  0  0  0
  2 31  1  0  0  0  0
  3  2  2  0  0  0  0
  5  1  1  0  0  0  0
  6  5  1  1  0  0  0
  6 29  1  0  0  0  0
  7 27  1  6  0  0  0
  7  6  1  0  0  0  0
  8 13  1  0  0  0  0
  8  7  1  1  0  0  0
  9 16  1  6  0  0  0
  9 14  1  0  0  0  0
  9 10  1  0  0  0  0
 11  8  1  0  0  0  0
 11  9  1  0  0  0  0
 12 10  1  0  0  0  0
 12 20  1  1  0  0  0
 13 22  1  6  0  0  0
 13 12  1  0  0  0  0
 15 14  1  0  0  0  0
 16 17  2  0  0  0  0
 18 16  1  0  0  0  0
 19 18  1  0  0  0  0
 21 20  1  0  0  0  0
 23 26  2  0  0  0  0
 23 22  1  0  0  0  0
 24 22  1  0  0  0  0
 25 23  1  0  0  0  0
 27 28  1  0  0  0  0
 29 30  1  0  0  0  0
 31 32  1  0  0  0  0
 32 33  1  0  0  0  0
 33 35  1  0  0  0  0
 33 34  2  0  0  0  0
 34 36  1  0  0  0  0
 35 37  2  0  0  0  0
 36 38  1  0  0  0  0
 37 36  1  0  0  0  0
 38 39  1  6  0  0  0
 38 44  1  0  0  0  0
 40 39  1  0  0  0  0
 41 40  2  0  0  0  0
 42 40  1  0  0  0  0
 43 42  1  0  0  0  0
 44 46  1  0  0  0  0
 45 44  2  0  0  0  0
 47 46  1  0  0  0  0
 48 49  1  0  0  0  0
 50 49  1  0  0  0  0
 50 51  1  0  0  0  0
 51 52  1  0  0  0  0
 52 53  1  0  0  0  0
M  END
>  <REMARK>
 VINA RESULT:    -4.302      2.648      5.800
 INTER + INTRA:         -14.196
 INTER:                  -7.017
 INTRA:                  -7.179
 UNBOUND:                -5.744
 SMILES CC(=O)N[C@@H]1[C@@H](O)C[C@](O)(C(=O)O)O[C@H]1C(O)[C@H](O)CNC(=O)OCc1cn([C@@H](CC(=O)O)C(=O)O)nn1
 SMILES IDX 21 1 22 2 23 3 20 5 18 6 16 7 15 8 9 9 8 10 14 11 6 12 5 13
 SMILES IDX 10 14 11 16 12 17 13 18 7 20 4 22 2 23 1 25 3 26 17 27 19 29
 SMILES IDX 24 31 25 32 26 33 27 34 38 35 28 36 37 37 29 38 30 39 31 40
 SMILES IDX 32 41 33 42 34 44 35 45 36 46
 H PARENT 21 4 10 15 13 19 7 21 4 24 17 28 19 30 33 43 36 47
 Flexibility Score: inf
  4 active torsions:
  status: ('A' for Active; 'I' for Inactive)
    1  A    between atoms: CA   and  CB  
    2  A    between atoms: CB   and  CG  
    3  A    between atoms: CG   and  CD  
    4  A    between atoms: CD   and  CE  

>  <TORSDO>
F 20

>  <BEGIN_>
RES LYS A 131

$$$$
ligand_10_pose_19_2HRL.pdbqt
 OpenBabel07062320523D

  6  5  0  0  0  0  0  0  0  0999 V2000
   33.1930   34.6630    9.2900 C   0  0  0  0  0  0  0  0  0  0  0  0
   32.0600   35.3600   10.0340 C   0  0  0  0  0  0  0  0  0  0  0  0
   30.7090   34.7370    9.7940 C   0  0  0  0  0  0  0  0  0  0  0  0
   30.4880   34.4900    8.3100 C   0  0  0  0  0  0  0  0  0  0  0  0
   29.2300   35.1900    7.8340 C   0  0  0  0  0  0  0  0  0  0  0  0
   28.0100   34.5160    8.3600 N   0  0  0  0  0  0  0  0  0  0  0  0
  1  2  1  0  0  0  0
  3  2  1  0  0  0  0
  4  3  1  0  0  0  0
  5  4  1  0  0  0  0
  5  6  1  0  0  0  0
M  END
>  <EGIN_R>
ES LYS A 135

>  <REMARK>
  4 active torsions:
  status: ('A' for Active; 'I' for Inactive)
    5  A    between atoms: CA   and  CB  
    6  A    between atoms: CB   and  CG  
    7  A    between atoms: CG   and  CD  
    8  A    between atoms: CD   and  CE  

$$$$
