ligand_19_pose_7_2HRL.pdbqt
 OpenBabel07062320523D

 49 49  0  0  1  0  0  0  0  0999 V2000
   31.4960   41.0360    8.8620 N   0  0  0  0  0  0  0  0  0  0  0  0
   30.9830   41.8550    9.8930 C   0  0  0  0  0  0  0  0  0  0  0  0
   29.8310   42.3070    9.8240 O   0  0  0  0  0  0  0  0  0  0  0  0
   32.4890   40.6980    8.9980 H   0  0  0  0  0  0  0  0  0  0  0  0
   30.7680   40.6440    7.6750 C   0  0  0  0  0  0  0  0  0  0  0  0
   30.5360   39.1820    7.6230 C   0  0  2  0  0  0  0  0  0  0  0  0
   29.1650   38.7060    8.0480 C   0  0  2  0  0  0  0  0  0  0  0  0
   28.0490   39.0740    7.1170 C   0  0  2  0  0  0  0  0  0  0  0  0
   26.6950   37.3560    7.9100 C   0  0  2  0  0  0  0  0  0  0  0  0
   27.3370   36.4190    6.9620 C   0  0  0  0  0  0  0  0  0  0  0  0
   26.8070   38.6900    7.6220 O   0  0  0  0  0  0  0  0  0  0  0  0
   27.9890   37.0140    5.7670 C   0  0  1  0  0  0  0  0  0  0  0  0
   28.1080   38.4990    5.7390 C   0  0  1  0  0  0  0  0  0  0  0  0
   27.1920   37.1930    9.2270 O   0  0  0  0  0  0  0  0  0  0  0  0
   26.4650   36.9980    9.8640 H   0  0  0  0  0  0  0  0  0  0  0  0
   25.2370   37.0670    8.0240 C   0  0  0  0  0  0  0  0  0  0  0  0
   24.7890   36.2820    8.9280 O   0  0  0  0  0  0  0  0  0  0  0  0
   24.2760   37.6110    7.1850 O   0  0  0  0  0  0  0  0  0  0  0  0
   24.5370   37.7500    6.2030 H   0  0  0  0  0  0  0  0  0  0  0  0
   29.2750   36.4760    5.6620 O   0  0  0  0  0  0  0  0  0  0  0  0
   29.2320   35.4880    5.4740 H   0  0  0  0  0  0  0  0  0  0  0  0
   27.0830   39.1610    4.9660 N   0  0  0  0  0  0  0  0  0  0  0  0
   27.3240   40.2940    4.1830 C   0  0  0  0  0  0  0  0  0  0  0  0
   26.1280   38.7590    5.0110 H   0  0  0  0  0  0  0  0  0  0  0  0
   26.2900   40.9930    3.3780 C   0  0  0  0  0  0  0  0  0  0  0  0
   28.4880   40.7380    4.1680 O   0  0  0  0  0  0  0  0  0  0  0  0
   28.9010   39.5320    9.2070 O   0  0  0  0  0  0  0  0  0  0  0  0
   28.8860   38.8530    9.9490 H   0  0  0  0  0  0  0  0  0  0  0  0
   31.5460   38.3540    8.0110 O   0  0  0  0  0  0  0  0  0  0  0  0
   31.9830   38.6290    8.8310 H   0  0  0  0  0  0  0  0  0  0  0  0
   31.7800   42.1690   11.0170 O   0  0  0  0  0  0  0  0  0  0  0  0
   31.5070   41.5510   12.2750 C   0  0  0  0  0  0  0  0  0  0  0  0
   31.0610   40.1680   12.0120 C   0  0  0  0  0  0  0  0  0  0  0  0
   29.9890   39.5320   12.6150 C   0  0  0  0  0  0  0  0  0  0  0  0
   31.5960   39.2770   11.1660 N   0  0  0  0  0  0  0  0  0  0  0  0
   29.9190   38.2900   12.1130 N   0  0  0  0  0  0  0  0  0  0  0  0
   30.8960   38.1620   11.2450 N   0  0  0  0  0  0  0  0  0  0  0  0
   28.9310   37.3040   12.4880 C   0  0  0  0  0  0  0  0  0  0  0  0
   29.4330   36.5630   13.7040 C   0  0  0  0  0  0  0  0  0  0  0  0
   29.9590   35.3250   13.3200 O   0  0  0  0  0  0  0  0  0  0  0  0
   31.2840   35.0350   13.4580 C   0  0  0  0  0  0  0  0  0  0  0  0
   32.0980   35.2660   12.5450 O   0  0  0  0  0  0  0  0  0  0  0  0
   31.8010   34.4250   14.7320 C   0  0  0  0  0  0  0  0  0  0  0  0
   29.8670   25.5550   16.9770 C   0  0  0  0  0  0  0  0  0  0  0  0
   28.3450   25.7220   17.0260 C   0  0  0  0  0  0  0  0  0  0  0  0
   27.6010   24.4050   16.8660 C   0  0  0  0  0  0  0  0  0  0  0  0
   26.7300   24.0990   18.0530 C   0  0  0  0  0  0  0  0  0  0  0  0
   25.7290   25.2330   18.2560 C   0  0  0  0  0  0  0  0  0  0  0  0
   24.6080   25.1130   17.2940 N   0  0  0  0  0  0  0  0  0  0  0  0
  1  4  1  0  0  0  0
  1  2  1  0  0  0  0
  2 31  1  0  0  0  0
  3  2  2  0  0  0  0
  5  1  1  0  0  0  0
  6  5  1  1  0  0  0
  6 29  1  0  0  0  0
  6  7  1  0  0  0  0
  7 27  1  1  0  0  0
  8 11  1  0  0  0  0
  8  7  1  1  0  0  0
  9 16  1  1  0  0  0
  9 14  1  0  0  0  0
 10  9  1  0  0  0  0
 11  9  1  0  0  0  0
 12 20  1  1  0  0  0
 12 10  1  0  0  0  0
 13 22  1  6  0  0  0
 13 12  1  0  0  0  0
 13  8  1  0  0  0  0
 14 15  1  0  0  0  0
 16 17  2  0  0  0  0
 18 16  1  0  0  0  0
 19 18  1  0  0  0  0
 21 20  1  0  0  0  0
 22 24  1  0  0  0  0
 23 22  1  0  0  0  0
 25 23  1  0  0  0  0
 26 23  2  0  0  0  0
 27 28  1  0  0  0  0
 29 30  1  0  0  0  0
 31 32  1  0  0  0  0
 33 32  1  0  0  0  0
 33 34  2  0  0  0  0
 35 37  2  0  0  0  0
 35 33  1  0  0  0  0
 36 38  1  0  0  0  0
 36 34  1  0  0  0  0
 37 36  1  0  0  0  0
 38 39  1  0  0  0  0
 40 41  1  0  0  0  0
 40 39  1  0  0  0  0
 41 43  1  0  0  0  0
 42 41  2  0  0  0  0
 44 45  1  0  0  0  0
 46 45  1  0  0  0  0
 46 47  1  0  0  0  0
 47 48  1  0  0  0  0
 49 48  1  0  0  0  0
M  END
>  <REMARK>
 VINA RESULT:    -4.196      5.099      9.863
 INTER + INTRA:         -14.057
 INTER:                  -8.265
 INTRA:                  -5.792
 UNBOUND:                -6.059
 SMILES CC(=O)N[C@@H]1[C@@H](O)C[C@](O)(C(=O)O)O[C@H]1C(O)[C@H](O)CNC(=O)OCc1cn(CCOC(C)=O)nn1
 SMILES IDX 21 1 22 2 23 3 20 5 18 6 16 7 15 8 9 9 8 10 14 11 6 12 5 13
 SMILES IDX 10 14 11 16 12 17 13 18 7 20 4 22 2 23 1 25 3 26 17 27 19 29
 SMILES IDX 24 31 25 32 26 33 27 34 36 35 28 36 35 37 29 38 30 39 31 40
 SMILES IDX 32 41 34 42 33 43
 H PARENT 21 4 10 15 13 19 7 21 4 24 17 28 19 30
 Flexibility Score: inf
  4 active torsions:
  status: ('A' for Active; 'I' for Inactive)
    1  A    between atoms: CA   and  CB  
    2  A    between atoms: CB   and  CG  
    3  A    between atoms: CG   and  CD  
    4  A    between atoms: CD   and  CE  

>  <TORSDO>
F 18

>  <BEGIN_>
RES LYS A 131

$$$$
ligand_19_pose_7_2HRL.pdbqt
 OpenBabel07062320523D

  6  5  0  0  0  0  0  0  0  0999 V2000
   33.1930   34.6630    9.2900 C   0  0  0  0  0  0  0  0  0  0  0  0
   32.0600   35.3600   10.0340 C   0  0  0  0  0  0  0  0  0  0  0  0
   30.7750   35.4270    9.2490 C   0  0  0  0  0  0  0  0  0  0  0  0
   30.0180   34.1110    9.3450 C   0  0  0  0  0  0  0  0  0  0  0  0
   28.7550   34.2830   10.1660 C   0  0  0  0  0  0  0  0  0  0  0  0
   27.5670   33.7540    9.4400 N   0  0  0  0  0  0  0  0  0  0  0  0
  1  2  1  0  0  0  0
  3  4  1  0  0  0  0
  3  2  1  0  0  0  0
  4  5  1  0  0  0  0
  6  5  1  0  0  0  0
M  END
>  <EGIN_R>
ES LYS A 135

>  <REMARK>
  4 active torsions:
  status: ('A' for Active; 'I' for Inactive)
    5  A    between atoms: CA   and  CB  
    6  A    between atoms: CB   and  CG  
    7  A    between atoms: CG   and  CD  
    8  A    between atoms: CD   and  CE  

$$$$
