ligand_55_pose_3_2HRL.pdbqt
 OpenBabel07062320523D

 51 51  0  0  1  0  0  0  0  0999 V2000
   28.8710   30.3210   16.1770 N   0  0  0  0  0  0  0  0  0  0  0  0
   27.5630   29.7940   16.2040 C   0  0  0  0  0  0  0  0  0  0  0  0
   26.5990   30.3250   15.6300 O   0  0  0  0  0  0  0  0  0  0  0  0
   29.6180   29.7710   16.6990 H   0  0  0  0  0  0  0  0  0  0  0  0
   29.2760   31.5070   15.5220 C   0  0  0  0  0  0  0  0  0  0  0  0
   30.6050   32.0960   15.9250 C   0  0  2  0  0  0  0  0  0  0  0  0
   30.3500   33.5150   16.3300 C   0  0  2  0  0  0  0  0  0  0  0  0
   30.8660   34.5860   15.4230 C   0  0  2  0  0  0  0  0  0  0  0  0
   31.0440   35.0570   13.1330 C   0  0  2  0  0  0  0  0  0  0  0  0
   32.3200   35.7950   13.3560 C   0  0  0  0  0  0  0  0  0  0  0  0
   30.5590   34.3300   14.1500 O   0  0  0  0  0  0  0  0  0  0  0  0
   33.1200   35.2770   14.5200 C   0  0  1  0  0  0  0  0  0  0  0  0
   32.2670   35.0270   15.7170 C   0  0  1  0  0  0  0  0  0  0  0  0
   31.2100   34.2220   12.0210 O   0  0  0  0  0  0  0  0  0  0  0  0
   32.0110   34.5080   11.5330 H   0  0  0  0  0  0  0  0  0  0  0  0
   30.0030   36.0520   12.7440 C   0  0  0  0  0  0  0  0  0  0  0  0
   30.1760   37.2850   12.7670 O   0  0  0  0  0  0  0  0  0  0  0  0
   28.7370   35.6110   12.3160 O   0  0  0  0  0  0  0  0  0  0  0  0
   28.5700   34.6420   12.0810 H   0  0  0  0  0  0  0  0  0  0  0  0
   33.8480   34.1710   14.0980 O   0  0  0  0  0  0  0  0  0  0  0  0
   34.1170   34.3460   13.1600 H   0  0  0  0  0  0  0  0  0  0  0  0
   32.3040   36.2200   16.5430 N   0  0  0  0  0  0  0  0  0  0  0  0
   32.8730   36.2580   17.8440 C   0  0  0  0  0  0  0  0  0  0  0  0
   31.8980   37.1440   16.2040 H   0  0  0  0  0  0  0  0  0  0  0  0
   32.8870   37.5180   18.6600 C   0  0  0  0  0  0  0  0  0  0  0  0
   33.3650   35.1860   18.2810 O   0  0  0  0  0  0  0  0  0  0  0  0
   30.9460   33.6270   17.6210 O   0  0  0  0  0  0  0  0  0  0  0  0
   31.3670   34.5040   17.7340 H   0  0  0  0  0  0  0  0  0  0  0  0
   31.5070   31.9080   14.9130 O   0  0  0  0  0  0  0  0  0  0  0  0
   32.2140   32.5640   14.9180 H   0  0  0  0  0  0  0  0  0  0  0  0
   27.3120   28.6180   16.9040 O   0  0  0  0  0  0  0  0  0  0  0  0
   26.8050   28.5800   18.2140 C   0  0  0  0  0  0  0  0  0  0  0  0
   27.9010   28.5470   19.2000 C   0  0  0  0  0  0  0  0  0  0  0  0
   28.3560   27.4820   19.9520 C   0  0  0  0  0  0  0  0  0  0  0  0
   28.6630   29.5830   19.5410 N   0  0  0  0  0  0  0  0  0  0  0  0
   29.3720   27.8990   20.7200 N   0  0  0  0  0  0  0  0  0  0  0  0
   29.5360   29.1880   20.4460 N   0  0  0  0  0  0  0  0  0  0  0  0
   30.1780   27.1790   21.6710 C   0  0  0  0  0  0  0  0  0  0  0  0
   31.5940   26.9580   21.1710 C   0  0  0  0  0  0  0  0  0  0  0  0
   32.2520   28.2470   21.1520 N   0  0  0  0  0  0  0  0  0  0  0  0
   31.6420   28.9920   20.7880 H   0  0  0  0  0  0  0  0  0  0  0  0
   32.8720   28.6850   22.6950 S   0  0  0  0  0  0  0  0  0  0  0  0
   31.8280   29.5330   23.3730 O   0  0  0  0  0  0  0  0  0  0  0  0
   33.1810   27.4510   23.4790 O   0  0  0  0  0  0  0  0  0  0  0  0
   34.3480   29.6630   22.5290 C   0  0  0  0  0  0  0  0  0  0  0  0
   29.8670   25.5550   16.9770 C   0  0  0  0  0  0  0  0  0  0  0  0
   28.3450   25.7220   17.0260 C   0  0  0  0  0  0  0  0  0  0  0  0
   27.6010   24.4030   16.8880 C   0  0  0  0  0  0  0  0  0  0  0  0
   26.5810   24.2110   17.9750 C   0  0  0  0  0  0  0  0  0  0  0  0
   25.4750   23.2850   17.4790 C   0  0  0  0  0  0  0  0  0  0  0  0
   24.3880   24.0680   16.8450 N   0  0  0  0  0  0  0  0  0  0  0  0
  1  2  1  0  0  0  0
  1  4  1  0  0  0  0
  2 31  1  0  0  0  0
  3  2  2  0  0  0  0
  5  1  1  0  0  0  0
  6  5  1  6  0  0  0
  6  7  1  0  0  0  0
  7 27  1  1  0  0  0
  8 13  1  0  0  0  0
  8  7  1  1  0  0  0
  9 14  1  6  0  0  0
  9 10  1  0  0  0  0
  9 11  1  0  0  0  0
 10 12  1  0  0  0  0
 11  8  1  0  0  0  0
 12 20  1  6  0  0  0
 12 13  1  0  0  0  0
 13 22  1  6  0  0  0
 15 14  1  0  0  0  0
 16 17  2  0  0  0  0
 16  9  1  0  0  0  0
 18 16  1  0  0  0  0
 19 18  1  0  0  0  0
 21 20  1  0  0  0  0
 22 23  1  0  0  0  0
 23 26  2  0  0  0  0
 23 25  1  0  0  0  0
 24 22  1  0  0  0  0
 27 28  1  0  0  0  0
 29 30  1  0  0  0  0
 29  6  1  0  0  0  0
 31 32  1  0  0  0  0
 32 33  1  0  0  0  0
 33 35  1  0  0  0  0
 33 34  2  0  0  0  0
 34 36  1  0  0  0  0
 35 37  2  0  0  0  0
 36 38  1  0  0  0  0
 37 36  1  0  0  0  0
 39 38  1  0  0  0  0
 40 39  1  0  0  0  0
 40 42  1  0  0  0  0
 41 40  1  0  0  0  0
 42 43  2  0  0  0  0
 42 44  2  0  0  0  0
 45 42  1  0  0  0  0
 46 47  1  0  0  0  0
 48 47  1  0  0  0  0
 48 49  1  0  0  0  0
 50 49  1  0  0  0  0
 51 50  1  0  0  0  0
M  END
>  <REMARK>
 VINA RESULT:    -4.603      1.932      3.879
 INTER + INTRA:         -15.051
 INTER:                  -9.658
 INTRA:                  -5.393
 UNBOUND:                -6.277
 SMILES CC(=O)N[C@@H]1[C@@H](O)C[C@](O)(C(=O)O)O[C@H]1C(O)[C@H](O)CNC(=O)OCc1cn(CCNS(C)(=O)=O)nn1
 SMILES IDX 21 1 22 2 23 3 20 5 18 6 16 7 15 8 9 9 8 10 14 11 6 12 5 13
 SMILES IDX 10 14 11 16 12 17 13 18 7 20 4 22 2 23 1 25 3 26 17 27 19 29
 SMILES IDX 24 31 25 32 26 33 27 34 37 35 28 36 36 37 29 38 30 39 31 40
 SMILES IDX 32 42 34 43 35 44 33 45
 H PARENT 21 4 10 15 13 19 7 21 4 24 17 28 19 30 31 41
 Flexibility Score: inf
  4 active torsions:
  status: ('A' for Active; 'I' for Inactive)
    1  A    between atoms: CA   and  CB  
    2  A    between atoms: CB   and  CG  
    3  A    between atoms: CG   and  CD  
    4  A    between atoms: CD   and  CE  

>  <TORSDO>
F 18

>  <BEGIN_>
RES LYS A 131

$$$$
ligand_55_pose_3_2HRL.pdbqt
 OpenBabel07062320523D

  6  5  0  0  0  0  0  0  0  0999 V2000
   33.1930   34.6630    9.2900 C   0  0  0  0  0  0  0  0  0  0  0  0
   32.0600   35.3600   10.0340 C   0  0  0  0  0  0  0  0  0  0  0  0
   30.8660   35.6630    9.1660 C   0  0  0  0  0  0  0  0  0  0  0  0
   30.3330   34.3920    8.5240 C   0  0  0  0  0  0  0  0  0  0  0  0
   29.0220   33.9800    9.1650 C   0  0  0  0  0  0  0  0  0  0  0  0
   27.8600   34.5350    8.4160 N   0  0  0  0  0  0  0  0  0  0  0  0
  1  2  1  0  0  0  0
  3  2  1  0  0  0  0
  4  5  1  0  0  0  0
  4  3  1  0  0  0  0
  6  5  1  0  0  0  0
M  END
>  <EGIN_R>
ES LYS A 135

>  <REMARK>
  4 active torsions:
  status: ('A' for Active; 'I' for Inactive)
    5  A    between atoms: CA   and  CB  
    6  A    between atoms: CB   and  CG  
    7  A    between atoms: CG   and  CD  
    8  A    between atoms: CD   and  CE  

$$$$
