ligand_92_pose_14_2HRL.pdbqt
 OpenBabel07062320523D

 59 61  0  0  1  0  0  0  0  0999 V2000
   25.3030   41.8860    7.1070 N   0  0  0  0  0  0  0  0  0  0  0  0
   24.5870   40.7900    7.6360 C   0  0  0  0  0  0  0  0  0  0  0  0
   24.4190   39.7580    6.9000 O   0  0  0  0  0  0  0  0  0  0  0  0
   25.4440   42.7240    7.6970 H   0  0  0  0  0  0  0  0  0  0  0  0
   25.8420   41.8670    5.7740 C   0  0  0  0  0  0  0  0  0  0  0  0
   27.3390   41.6770    5.7520 C   0  0  2  0  0  0  0  0  0  0  0  0
   27.7250   40.2270    5.7050 C   0  0  1  0  0  0  0  0  0  0  0  0
   28.0160   39.6950    7.1200 C   0  0  2  0  0  0  0  0  0  0  0  0
   30.3440   39.3110    7.0870 C   0  0  2  0  0  0  0  0  0  0  0  0
   30.0920   37.8640    7.4640 C   0  0  0  0  0  0  0  0  0  0  0  0
   29.2850   40.0750    7.4330 O   0  0  0  0  0  0  0  0  0  0  0  0
   28.8780   37.4400    6.6740 C   0  0  1  0  0  0  0  0  0  0  0  0
   27.7030   38.2510    7.1610 C   0  0  1  0  0  0  0  0  0  0  0  0
   30.4870   39.3190    5.6930 O   0  0  0  0  0  0  0  0  0  0  0  0
   29.6600   39.1040    5.2220 H   0  0  0  0  0  0  0  0  0  0  0  0
   31.6260   39.7950    7.6600 C   0  0  0  0  0  0  0  0  0  0  0  0
   31.9280   40.9930    7.5610 O   0  0  0  0  0  0  0  0  0  0  0  0
   32.4870   38.9260    8.3010 O   0  0  0  0  0  0  0  0  0  0  0  0
   33.3640   39.2770    8.7140 H   0  0  0  0  0  0  0  0  0  0  0  0
   29.1200   37.5910    5.3130 O   0  0  0  0  0  0  0  0  0  0  0  0
   28.5150   36.9540    4.8320 H   0  0  0  0  0  0  0  0  0  0  0  0
   27.3180   37.7320    8.4340 N   0  0  0  0  0  0  0  0  0  0  0  0
   26.1160   37.0060    8.5760 C   0  0  0  0  0  0  0  0  0  0  0  0
   27.9150   37.8850    9.2640 H   0  0  0  0  0  0  0  0  0  0  0  0
   25.6390   36.4320    9.8600 C   0  0  0  0  0  0  0  0  0  0  0  0
   25.4180   36.8390    7.5680 O   0  0  0  0  0  0  0  0  0  0  0  0
   26.7270   39.4260    5.1040 O   0  0  0  0  0  0  0  0  0  0  0  0
   26.0440   40.0260    4.7520 H   0  0  0  0  0  0  0  0  0  0  0  0
   27.8110   42.2960    6.9300 O   0  0  0  0  0  0  0  0  0  0  0  0
   27.9480   43.2490    6.7030 H   0  0  0  0  0  0  0  0  0  0  0  0
   24.0520   40.7620    8.9070 O   0  0  0  0  0  0  0  0  0  0  0  0
   24.4880   41.6660    9.9320 C   0  0  0  0  0  0  0  0  0  0  0  0
   25.9440   41.4020   10.1270 C   0  0  0  0  0  0  0  0  0  0  0  0
   26.5190   40.2570   10.6830 C   0  0  0  0  0  0  0  0  0  0  0  0
   26.9960   42.1870    9.8180 N   0  0  0  0  0  0  0  0  0  0  0  0
   27.8560   40.3890   10.6900 N   0  0  0  0  0  0  0  0  0  0  0  0
   28.1010   41.5700   10.1580 N   0  0  0  0  0  0  0  0  0  0  0  0
   28.7720   39.4210   11.1820 C   0  0  0  0  0  0  0  0  0  0  0  0
   30.1350   39.5500   11.0410 C   0  0  0  0  0  0  0  0  0  0  0  0
   28.2990   38.2990   11.8270 C   0  0  0  0  0  0  0  0  0  0  0  0
   31.0170   38.5870   11.5300 C   0  0  0  0  0  0  0  0  0  0  0  0
   29.1670   37.3470   12.3110 C   0  0  0  0  0  0  0  0  0  0  0  0
   30.5550   37.4640   12.1760 C   0  0  0  0  0  0  0  0  0  0  0  0
   31.6160   36.2440   12.8130 S   0  0  0  0  0  0  0  0  0  0  0  0
   31.9640   36.6610   14.2370 O   0  0  0  0  0  0  0  0  0  0  0  0
   32.8880   36.2940   12.0380 O   0  0  0  0  0  0  0  0  0  0  0  0
   30.9580   34.6770   12.8360 N   0  0  0  0  0  0  0  0  0  0  0  0
   31.2030   34.0330   12.0360 H   0  0  0  0  0  0  0  0  0  0  0  0
   30.1090   34.1280   13.8100 C   0  0  0  0  0  0  0  0  0  0  0  0
   28.9480   34.1320   14.1890 N   0  0  0  0  0  0  0  0  0  0  0  0
   30.8250   32.9220   15.0760 S   0  0  0  0  0  0  0  0  0  0  0  0
   28.4150   33.4830   15.1740 C   0  0  0  0  0  0  0  0  0  0  0  0
   29.1910   32.6720   15.9280 C   0  0  0  0  0  0  0  0  0  0  0  0
   29.8670   25.5550   16.9770 C   0  0  0  0  0  0  0  0  0  0  0  0
   28.3450   25.7220   17.0260 C   0  0  0  0  0  0  0  0  0  0  0  0
   27.6010   24.4010   16.9040 C   0  0  0  0  0  0  0  0  0  0  0  0
   26.1520   24.5290   17.2840 C   0  0  0  0  0  0  0  0  0  0  0  0
   25.7860   23.4290   18.2750 C   0  0  0  0  0  0  0  0  0  0  0  0
   25.1120   22.3080   17.5790 N   0  0  0  0  0  0  0  0  0  0  0  0
  1  2  1  0  0  0  0
  1  4  1  0  0  0  0
  2 31  1  0  0  0  0
  3  2  2  0  0  0  0
  5  1  1  0  0  0  0
  6  5  1  1  0  0  0
  6 29  1  0  0  0  0
  7 27  1  1  0  0  0
  7  6  1  0  0  0  0
  8  7  1  6  0  0  0
  8 13  1  0  0  0  0
  8 11  1  0  0  0  0
  9 14  1  6  0  0  0
  9 11  1  0  0  0  0
  9 10  1  0  0  0  0
  9 16  1  0  0  0  0
 12 20  1  6  0  0  0
 12 13  1  0  0  0  0
 12 10  1  0  0  0  0
 13 22  1  1  0  0  0
 15 14  1  0  0  0  0
 16 18  1  0  0  0  0
 17 16  2  0  0  0  0
 18 19  1  0  0  0  0
 21 20  1  0  0  0  0
 22 23  1  0  0  0  0
 22 24  1  0  0  0  0
 23 25  1  0  0  0  0
 26 23  2  0  0  0  0
 28 27  1  0  0  0  0
 30 29  1  0  0  0  0
 31 32  1  0  0  0  0
 32 33  1  0  0  0  0
 33 34  2  0  0  0  0
 34 36  1  0  0  0  0
 35 33  1  0  0  0  0
 35 37  2  0  0  0  0
 36 38  1  0  0  0  0
 37 36  1  0  0  0  0
 38 40  1  0  0  0  0
 39 38  2  0  0  0  0
 39 41  1  0  0  0  0
 40 42  2  0  0  0  0
 41 43  2  0  0  0  0
 43 42  1  0  0  0  0
 43 44  1  0  0  0  0
 44 47  1  0  0  0  0
 44 45  2  0  0  0  0
 46 44  2  0  0  0  0
 47 49  1  0  0  0  0
 48 47  1  0  0  0  0
 49 50  2  0  0  0  0
 49 51  1  0  0  0  0
 50 52  1  0  0  0  0
 51 53  1  0  0  0  0
 52 53  2  0  0  0  0
 54 55  1  0  0  0  0
 56 55  1  0  0  0  0
 56 57  1  0  0  0  0
 57 58  1  0  0  0  0
 59 58  1  0  0  0  0
M  END
>  <REMARK>
 VINA RESULT:    -4.912      6.943     14.046
 INTER + INTRA:         -15.770
 INTER:                  -7.907
 INTRA:                  -7.863
 UNBOUND:                -6.408
 SMILES CC(=O)N[C@@H]1[C@@H](O)C[C@](O)(C(=O)O)O[C@H]1C(O)[C@H](O)CNC(=O)OCc1cn(-c2ccc(S(=O)(=O)Nc3nccs3)cc2)nn1
 SMILES IDX 21 1 22 2 23 3 20 5 18 6 16 7 15 8 9 9 8 10 14 11 6 12 5 13
 SMILES IDX 10 14 11 16 12 17 13 18 7 20 4 22 2 23 1 25 3 26 17 27 19 29
 SMILES IDX 24 31 25 32 26 33 27 34 45 35 28 36 44 37 29 38 30 39 43 40
 SMILES IDX 31 41 42 42 32 43 33 44 34 45 35 46 36 47 37 49 38 50 41 51
 SMILES IDX 39 52 40 53
 H PARENT 21 4 10 15 13 19 7 21 4 24 17 28 19 30 36 48
 Flexibility Score: inf
  4 active torsions:
  status: ('A' for Active; 'I' for Inactive)
    1  A    between atoms: CA   and  CB  
    2  A    between atoms: CB   and  CG  
    3  A    between atoms: CG   and  CD  
    4  A    between atoms: CD   and  CE  

>  <TORSDO>
F 18

>  <BEGIN_>
RES LYS A 131

$$$$
ligand_92_pose_14_2HRL.pdbqt
 OpenBabel07062320523D

  6  5  0  0  0  0  0  0  0  0999 V2000
   33.1930   34.6630    9.2900 C   0  0  0  0  0  0  0  0  0  0  0  0
   32.0600   35.3600   10.0340 C   0  0  0  0  0  0  0  0  0  0  0  0
   30.7950   35.4870    9.2240 C   0  0  0  0  0  0  0  0  0  0  0  0
   30.1680   34.1210    8.9920 C   0  0  0  0  0  0  0  0  0  0  0  0
   28.7010   34.2620    8.6350 C   0  0  0  0  0  0  0  0  0  0  0  0
   27.8330   33.6550    9.6810 N   0  0  0  0  0  0  0  0  0  0  0  0
  1  2  1  0  0  0  0
  3  2  1  0  0  0  0
  4  3  1  0  0  0  0
  5  4  1  0  0  0  0
  5  6  1  0  0  0  0
M  END
>  <EGIN_R>
ES LYS A 135

>  <REMARK>
  4 active torsions:
  status: ('A' for Active; 'I' for Inactive)
    5  A    between atoms: CA   and  CB  
    6  A    between atoms: CB   and  CG  
    7  A    between atoms: CG   and  CD  
    8  A    between atoms: CD   and  CE  

$$$$
