ligand_62_pose_4_2HRL.pdbqt
 OpenBabel07062320523D

 52 52  0  0  1  0  0  0  0  0999 V2000
   28.0210   38.7900   12.0880 N   0  0  0  0  0  0  0  0  0  0  0  0
   28.6260   40.0510   11.9150 C   0  0  0  0  0  0  0  0  0  0  0  0
   28.0470   40.9930   11.3280 O   0  0  0  0  0  0  0  0  0  0  0  0
   28.5860   38.0650   12.5990 H   0  0  0  0  0  0  0  0  0  0  0  0
   26.7260   38.4110   11.6360 C   0  0  0  0  0  0  0  0  0  0  0  0
   26.6320   37.2600   10.7040 C   0  0  2  0  0  0  0  0  0  0  0  0
   26.4270   37.6760    9.2640 C   0  0  2  0  0  0  0  0  0  0  0  0
   27.2550   36.9280    8.2680 C   0  0  2  0  0  0  0  0  0  0  0  0
   29.2000   35.6790    8.1740 C   0  0  2  0  0  0  0  0  0  0  0  0
   28.6150   35.4340    6.8090 C   0  0  0  0  0  0  0  0  0  0  0  0
   28.3840   36.4600    8.9730 O   0  0  0  0  0  0  0  0  0  0  0  0
   28.2510   36.6760    6.0780 C   0  0  1  0  0  0  0  0  0  0  0  0
   27.7590   37.7090    7.1040 C   0  0  1  0  0  0  0  0  0  0  0  0
   30.4740   36.1990    8.0280 O   0  0  0  0  0  0  0  0  0  0  0  0
   30.8260   36.1270    7.1070 H   0  0  0  0  0  0  0  0  0  0  0  0
   29.3320   34.3550    8.8400 C   0  0  0  0  0  0  0  0  0  0  0  0
   30.4530   33.7930    8.9880 O   0  0  0  0  0  0  0  0  0  0  0  0
   28.2240   33.6610    9.3380 O   0  0  0  0  0  0  0  0  0  0  0  0
   27.4800   33.3440    8.7320 H   0  0  0  0  0  0  0  0  0  0  0  0
   29.3010   37.2000    5.3250 O   0  0  0  0  0  0  0  0  0  0  0  0
   29.5150   36.5220    4.6280 H   0  0  0  0  0  0  0  0  0  0  0  0
   26.8300   38.5340    6.4130 N   0  0  0  0  0  0  0  0  0  0  0  0
   27.2090   39.7790    5.7810 C   0  0  0  0  0  0  0  0  0  0  0  0
   25.8220   38.2910    6.3070 H   0  0  0  0  0  0  0  0  0  0  0  0
   26.2050   40.6050    5.0720 C   0  0  0  0  0  0  0  0  0  0  0  0
   28.3850   40.1580    5.8330 O   0  0  0  0  0  0  0  0  0  0  0  0
   26.9320   39.0130    9.2250 O   0  0  0  0  0  0  0  0  0  0  0  0
   27.4590   39.2090   10.0160 H   0  0  0  0  0  0  0  0  0  0  0  0
   25.5370   36.4640   11.0330 O   0  0  0  0  0  0  0  0  0  0  0  0
   25.8450   35.6110   11.4200 H   0  0  0  0  0  0  0  0  0  0  0  0
   29.9070   40.3040   12.3970 O   0  0  0  0  0  0  0  0  0  0  0  0
   30.9900   39.4630   12.0920 C   0  0  0  0  0  0  0  0  0  0  0  0
   31.2770   39.4760   10.6470 C   0  0  0  0  0  0  0  0  0  0  0  0
   31.8700   40.4850    9.9130 C   0  0  0  0  0  0  0  0  0  0  0  0
   30.9900   38.4680    9.7940 N   0  0  0  0  0  0  0  0  0  0  0  0
   31.9240   40.0590    8.6560 N   0  0  0  0  0  0  0  0  0  0  0  0
   31.4030   38.8690    8.5880 N   0  0  0  0  0  0  0  0  0  0  0  0
   32.4740   40.7970    7.5220 C   0  0  1  0  0  0  0  0  0  0  0  0
   33.8620   41.2510    7.8770 C   0  0  0  0  0  0  0  0  0  0  0  0
   33.9850   42.6150    7.7340 O   0  0  0  0  0  0  0  0  0  0  0  0
   32.7930   43.2860    7.5650 C   0  0  0  0  0  0  0  0  0  0  0  0
   32.5620   39.8740    6.3440 C   0  0  0  0  0  0  0  0  0  0  0  0
   33.6600   39.4640    5.9400 O   0  0  0  0  0  0  0  0  0  0  0  0
   31.3480   39.4910    5.7150 N   0  0  0  0  0  0  0  0  0  0  0  0
   31.3260   38.5940    5.1780 H   0  0  0  0  0  0  0  0  0  0  0  0
   30.5080   40.0780    5.7830 H   0  0  0  0  0  0  0  0  0  0  0  0
   29.8670   25.5550   16.9770 C   0  0  0  0  0  0  0  0  0  0  0  0
   28.3450   25.7220   17.0260 C   0  0  0  0  0  0  0  0  0  0  0  0
   27.6010   24.4060   16.8640 C   0  0  0  0  0  0  0  0  0  0  0  0
   26.5510   24.2150   17.9230 C   0  0  0  0  0  0  0  0  0  0  0  0
   25.1660   24.3410   17.2960 C   0  0  0  0  0  0  0  0  0  0  0  0
   24.5040   23.0170   17.2270 N   0  0  0  0  0  0  0  0  0  0  0  0
  1  4  1  0  0  0  0
  2  1  1  0  0  0  0
  2 31  1  0  0  0  0
  3  2  2  0  0  0  0
  5  1  1  0  0  0  0
  6 29  1  0  0  0  0
  6  5  1  1  0  0  0
  7 27  1  1  0  0  0
  7  6  1  0  0  0  0
  8 11  1  0  0  0  0
  8  7  1  1  0  0  0
  9 14  1  6  0  0  0
  9 16  1  0  0  0  0
  9 11  1  0  0  0  0
 10  9  1  0  0  0  0
 12 20  1  1  0  0  0
 12 10  1  0  0  0  0
 12 13  1  0  0  0  0
 13 22  1  6  0  0  0
 13  8  1  0  0  0  0
 15 14  1  0  0  0  0
 16 17  2  0  0  0  0
 16 18  1  0  0  0  0
 19 18  1  0  0  0  0
 21 20  1  0  0  0  0
 23 26  2  0  0  0  0
 23 22  1  0  0  0  0
 24 22  1  0  0  0  0
 25 23  1  0  0  0  0
 27 28  1  0  0  0  0
 29 30  1  0  0  0  0
 32 31  1  0  0  0  0
 33 32  1  0  0  0  0
 34 33  2  0  0  0  0
 35 33  1  0  0  0  0
 36 34  1  0  0  0  0
 37 36  1  0  0  0  0
 37 35  2  0  0  0  0
 38 39  1  1  0  0  0
 38 36  1  0  0  0  0
 40 39  1  0  0  0  0
 41 40  1  0  0  0  0
 42 38  1  0  0  0  0
 43 42  2  0  0  0  0
 44 46  1  0  0  0  0
 44 42  1  0  0  0  0
 45 44  1  0  0  0  0
 47 48  1  0  0  0  0
 49 48  1  0  0  0  0
 49 50  1  0  0  0  0
 51 50  1  0  0  0  0
 52 51  1  0  0  0  0
M  END
>  <REMARK>
 VINA RESULT:    -4.183      7.197     11.488
 INTER + INTRA:         -14.726
 INTER:                  -8.826
 INTRA:                  -5.900
 UNBOUND:                -6.753
 SMILES COCC(C(N)=O)n1cc(COC(=O)NC[C@@H](O)C(O)[C@@H]2O[C@@](O)(C(=O)O)C[C@H](O)[C@H]2NC(C)=O)nn1
 SMILES IDX 15 1 13 2 14 3 16 5 17 6 19 7 21 8 23 9 28 10 22 11 29 12
 SMILES IDX 31 13 24 14 25 16 26 17 27 18 30 20 32 22 33 23 34 25 35 26
 SMILES IDX 20 27 18 29 12 31 11 32 10 33 9 34 36 35 8 36 37 37 4 38
 SMILES IDX 3 39 2 40 1 41 5 42 7 43 6 44
 H PARENT 15 4 24 15 27 19 30 21 32 24 20 28 18 30 6 45 6 46
 Flexibility Score: inf
  4 active torsions:
  status: ('A' for Active; 'I' for Inactive)
    1  A    between atoms: CA   and  CB  
    2  A    between atoms: CB   and  CG  
    3  A    between atoms: CG   and  CD  
    4  A    between atoms: CD   and  CE  

>  <TORSDO>
F 18

>  <BEGIN_>
RES LYS A 131

$$$$
ligand_62_pose_4_2HRL.pdbqt
 OpenBabel07062320523D

  6  5  0  0  0  0  0  0  0  0999 V2000
   33.1930   34.6630    9.2900 C   0  0  0  0  0  0  0  0  0  0  0  0
   32.0600   35.3600   10.0340 C   0  0  0  0  0  0  0  0  0  0  0  0
   32.4100   35.7340   11.4510 C   0  0  0  0  0  0  0  0  0  0  0  0
   31.3560   35.2190   12.4180 C   0  0  0  0  0  0  0  0  0  0  0  0
   30.0020   35.8240   12.1030 C   0  0  0  0  0  0  0  0  0  0  0  0
   28.8990   34.8910   12.4640 N   0  0  0  0  0  0  0  0  0  0  0  0
  1  2  1  0  0  0  0
  2  3  1  0  0  0  0
  3  4  1  0  0  0  0
  5  4  1  0  0  0  0
  5  6  1  0  0  0  0
M  END
>  <EGIN_R>
ES LYS A 135

>  <REMARK>
  4 active torsions:
  status: ('A' for Active; 'I' for Inactive)
    5  A    between atoms: CA   and  CB  
    6  A    between atoms: CB   and  CG  
    7  A    between atoms: CG   and  CD  
    8  A    between atoms: CD   and  CE  

$$$$
