ligand_54_pose_14_2HRL.pdbqt
 OpenBabel07062320523D

 52 52  0  0  1  0  0  0  0  0999 V2000
   26.2650   27.7650   22.5280 O   0  0  0  0  0  0  0  0  0  0  0  0
   27.6350   27.9720   22.7440 C   0  0  0  0  0  0  0  0  0  0  0  0
   28.5910   26.9740   22.4600 N   0  0  0  0  0  0  0  0  0  0  0  0
   28.1940   26.0650   22.0600 H   0  0  0  0  0  0  0  0  0  0  0  0
   27.9830   29.0650   23.1960 O   0  0  0  0  0  0  0  0  0  0  0  0
   30.0060   27.0450   22.6430 C   0  0  0  0  0  0  0  0  0  0  0  0
   30.7380   26.8500   21.3460 C   0  0  2  0  0  0  0  0  0  0  0  0
   31.7710   27.9730   21.2740 C   0  0  2  0  0  0  0  0  0  0  0  0
   31.2240   29.2690   21.7850 C   0  0  2  0  0  0  0  0  0  0  0  0
   30.2720   31.2180   20.9650 C   0  0  2  0  0  0  0  0  0  0  0  0
   30.5950   31.8660   22.2710 C   0  0  0  0  0  0  0  0  0  0  0  0
   30.2720   29.8320   20.9860 O   0  0  0  0  0  0  0  0  0  0  0  0
   31.7840   31.2920   22.9850 C   0  0  1  0  0  0  0  0  0  0  0  0
   32.3740   30.2200   22.0940 C   0  0  1  0  0  0  0  0  0  0  0  0
   31.0920   31.7210   19.9510 O   0  0  0  0  0  0  0  0  0  0  0  0
   30.7140   31.3850   19.0850 H   0  0  0  0  0  0  0  0  0  0  0  0
   28.8750   31.6180   20.6290 C   0  0  0  0  0  0  0  0  0  0  0  0
   28.0040   30.7620   20.3660 O   0  0  0  0  0  0  0  0  0  0  0  0
   28.5500   32.9880   20.6120 O   0  0  0  0  0  0  0  0  0  0  0  0
   28.8960   33.5080   19.8070 H   0  0  0  0  0  0  0  0  0  0  0  0
   32.7190   32.2490   23.3590 O   0  0  0  0  0  0  0  0  0  0  0  0
   32.4250   32.5970   24.2390 H   0  0  0  0  0  0  0  0  0  0  0  0
   33.4040   29.4560   22.7670 N   0  0  0  0  0  0  0  0  0  0  0  0
   34.7640   29.8400   22.6210 C   0  0  0  0  0  0  0  0  0  0  0  0
   33.2140   28.6300   23.3610 H   0  0  0  0  0  0  0  0  0  0  0  0
   35.8780   29.1200   23.2700 C   0  0  0  0  0  0  0  0  0  0  0  0
   35.0320   30.8430   21.9040 O   0  0  0  0  0  0  0  0  0  0  0  0
   32.2250   28.0680   19.9690 O   0  0  0  0  0  0  0  0  0  0  0  0
   32.9410   27.4080   19.7600 H   0  0  0  0  0  0  0  0  0  0  0  0
   29.8950   27.0150   20.2780 O   0  0  0  0  0  0  0  0  0  0  0  0
   30.1000   26.4090   19.5200 H   0  0  0  0  0  0  0  0  0  0  0  0
   25.8250   26.8250   21.5510 C   0  0  0  0  0  0  0  0  0  0  0  0
   26.3440   27.2190   20.2290 C   0  0  0  0  0  0  0  0  0  0  0  0
   25.8550   28.3330   19.5410 C   0  0  0  0  0  0  0  0  0  0  0  0
   27.2780   26.7070   19.4390 N   0  0  0  0  0  0  0  0  0  0  0  0
   26.5170   28.4380   18.3700 N   0  0  0  0  0  0  0  0  0  0  0  0
   27.3660   27.4530   18.3300 N   0  0  0  0  0  0  0  0  0  0  0  0
   26.2710   29.4690   17.4010 C   0  0  0  0  0  0  0  0  0  0  0  0
   27.4410   29.7040   16.4760 C   0  0  0  0  0  0  0  0  0  0  0  0
   27.6860   31.1540   16.1960 C   0  0  0  0  0  0  0  0  0  0  0  0
   28.8480   31.2620   15.4410 O   0  0  0  0  0  0  0  0  0  0  0  0
   29.9730   31.1580   16.2680 C   0  0  0  0  0  0  0  0  0  0  0  0
   31.0590   32.1160   15.8500 C   0  0  0  0  0  0  0  0  0  0  0  0
   27.8240   31.9010   17.3370 O   0  0  0  0  0  0  0  0  0  0  0  0
   27.1820   33.1360   17.2440 C   0  0  0  0  0  0  0  0  0  0  0  0
   25.8790   33.0690   18.0320 C   0  0  0  0  0  0  0  0  0  0  0  0
   29.8670   25.5550   16.9770 C   0  0  0  0  0  0  0  0  0  0  0  0
   28.3450   25.7220   17.0260 C   0  0  0  0  0  0  0  0  0  0  0  0
   27.5990   24.4740   16.5800 C   0  0  0  0  0  0  0  0  0  0  0  0
   27.0200   23.7140   17.7410 C   0  0  0  0  0  0  0  0  0  0  0  0
   25.5260   24.0040   17.8450 C   0  0  0  0  0  0  0  0  0  0  0  0
   24.7380   22.8350   17.3910 N   0  0  0  0  0  0  0  0  0  0  0  0
  1  2  1  0  0  0  0
  2  5  2  0  0  0  0
  3  6  1  0  0  0  0
  3  2  1  0  0  0  0
  4  3  1  0  0  0  0
  7  6  1  1  0  0  0
  8 28  1  6  0  0  0
  8  7  1  0  0  0  0
  9  8  1  6  0  0  0
  9 14  1  0  0  0  0
 10 15  1  6  0  0  0
 10 12  1  0  0  0  0
 10 11  1  0  0  0  0
 11 13  1  0  0  0  0
 12  9  1  0  0  0  0
 13 21  1  6  0  0  0
 14 23  1  1  0  0  0
 14 13  1  0  0  0  0
 16 15  1  0  0  0  0
 17 10  1  0  0  0  0
 18 17  2  0  0  0  0
 19 17  1  0  0  0  0
 20 19  1  0  0  0  0
 21 22  1  0  0  0  0
 23 25  1  0  0  0  0
 24 23  1  0  0  0  0
 24 26  1  0  0  0  0
 27 24  2  0  0  0  0
 29 28  1  0  0  0  0
 30  7  1  0  0  0  0
 31 30  1  0  0  0  0
 32  1  1  0  0  0  0
 33 32  1  0  0  0  0
 34 33  2  0  0  0  0
 35 33  1  0  0  0  0
 36 34  1  0  0  0  0
 37 36  1  0  0  0  0
 37 35  2  0  0  0  0
 38 36  1  0  0  0  0
 39 38  1  0  0  0  0
 40 39  1  0  0  0  0
 40 44  1  0  0  0  0
 41 40  1  0  0  0  0
 41 42  1  0  0  0  0
 43 42  1  0  0  0  0
 45 44  1  0  0  0  0
 45 46  1  0  0  0  0
 47 48  1  0  0  0  0
 49 48  1  0  0  0  0
 49 50  1  0  0  0  0
 50 51  1  0  0  0  0
 52 51  1  0  0  0  0
M  END
>  <REMARK>
 VINA RESULT:    -4.105      2.415      4.497
 INTER + INTRA:         -14.483
 INTER:                  -7.845
 INTRA:                  -6.638
 UNBOUND:                -5.938
 SMILES CCOC(CCn1cc(COC(=O)NC[C@@H](O)C(O)[C@@H]2O[C@@](O)(C(=O)O)C[C@H](O)[C@H]2NC(C)=O)nn1)OCC
 SMILES IDX 11 1 12 2 14 3 13 5 15 6 16 7 18 8 20 9 22 10 27 11 21 12
 SMILES IDX 28 13 30 14 23 15 24 17 25 18 26 19 29 21 31 23 32 24 33 26
 SMILES IDX 34 27 19 28 17 30 10 32 9 33 8 34 35 35 7 36 36 37 6 38 5 39
 SMILES IDX 4 40 3 41 2 42 1 43 37 44 38 45 39 46
 H PARENT 14 4 23 16 26 20 29 22 31 25 19 29 17 31
 Flexibility Score: inf
  4 active torsions:
  status: ('A' for Active; 'I' for Inactive)
    1  A    between atoms: CA   and  CB  
    2  A    between atoms: CB   and  CG  
    3  A    between atoms: CG   and  CD  
    4  A    between atoms: CD   and  CE  

>  <TORSDO>
F 21

>  <BEGIN_>
RES LYS A 131

$$$$
ligand_54_pose_14_2HRL.pdbqt
 OpenBabel07062320523D

  6  5  0  0  0  0  0  0  0  0999 V2000
   33.1930   34.6630    9.2900 C   0  0  0  0  0  0  0  0  0  0  0  0
   32.0600   35.3600   10.0340 C   0  0  0  0  0  0  0  0  0  0  0  0
   30.7090   34.7350    9.7970 C   0  0  0  0  0  0  0  0  0  0  0  0
   30.4820   34.4930    8.3130 C   0  0  0  0  0  0  0  0  0  0  0  0
   29.0640   34.8650    7.9240 C   0  0  0  0  0  0  0  0  0  0  0  0
   28.9770   36.2940    7.5160 N   0  0  0  0  0  0  0  0  0  0  0  0
  1  2  1  0  0  0  0
  3  2  1  0  0  0  0
  4  3  1  0  0  0  0
  5  4  1  0  0  0  0
  6  5  1  0  0  0  0
M  END
>  <EGIN_R>
ES LYS A 135

>  <REMARK>
  4 active torsions:
  status: ('A' for Active; 'I' for Inactive)
    5  A    between atoms: CA   and  CB  
    6  A    between atoms: CB   and  CG  
    7  A    between atoms: CG   and  CD  
    8  A    between atoms: CD   and  CE  

$$$$
