ligand_65_pose_4_2HRL.pdbqt
 OpenBabel07062320523D

 53 54  0  0  1  0  0  0  0  0999 V2000
   25.7770   29.0950   18.4850 N   0  0  0  0  0  0  0  0  0  0  0  0
   26.4660   28.7730   17.2990 C   0  0  0  0  0  0  0  0  0  0  0  0
   27.2520   27.8060   17.1840 O   0  0  0  0  0  0  0  0  0  0  0  0
   25.1110   29.9220   18.5450 H   0  0  0  0  0  0  0  0  0  0  0  0
   25.9710   28.2850   19.6690 C   0  0  0  0  0  0  0  0  0  0  0  0
   27.1700   28.7890   20.4080 C   0  0  2  0  0  0  0  0  0  0  0  0
   28.1180   27.6450   20.7090 C   0  0  2  0  0  0  0  0  0  0  0  0
   29.2000   28.1700   21.6400 C   0  0  2  0  0  0  0  0  0  0  0  0
   30.6630   29.7070   20.6160 C   0  0  2  0  0  0  0  0  0  0  0  0
   31.7230   28.6610   20.4680 C   0  0  0  0  0  0  0  0  0  0  0  0
   29.5400   29.3990   21.2560 O   0  0  0  0  0  0  0  0  0  0  0  0
   31.6720   27.7820   21.7120 C   0  0  1  0  0  0  0  0  0  0  0  0
   30.2910   27.1330   21.6400 C   0  0  1  0  0  0  0  0  0  0  0  0
   30.3280   30.1110   19.3020 O   0  0  0  0  0  0  0  0  0  0  0  0
   30.0980   31.0680   19.2670 H   0  0  0  0  0  0  0  0  0  0  0  0
   31.2960   30.8850   21.2620 C   0  0  0  0  0  0  0  0  0  0  0  0
   32.5470   30.9690   21.3610 O   0  0  0  0  0  0  0  0  0  0  0  0
   30.5500   31.9310   21.7790 O   0  0  0  0  0  0  0  0  0  0  0  0
   30.2290   31.9540   22.7490 H   0  0  0  0  0  0  0  0  0  0  0  0
   32.6220   26.7810   21.6710 O   0  0  0  0  0  0  0  0  0  0  0  0
   33.0070   26.7000   22.5900 H   0  0  0  0  0  0  0  0  0  0  0  0
   30.1100   26.1830   22.7160 N   0  0  0  0  0  0  0  0  0  0  0  0
   30.0660   26.6070   24.0680 C   0  0  0  0  0  0  0  0  0  0  0  0
   30.0160   25.1810   22.4320 H   0  0  0  0  0  0  0  0  0  0  0  0
   29.8790   25.5850   25.1210 C   0  0  0  0  0  0  0  0  0  0  0  0
   30.1800   27.8090   24.3940 O   0  0  0  0  0  0  0  0  0  0  0  0
   28.7220   27.2380   19.4900 O   0  0  0  0  0  0  0  0  0  0  0  0
   29.1900   26.3870   19.7280 H   0  0  0  0  0  0  0  0  0  0  0  0
   26.7480   29.4170   21.5890 O   0  0  0  0  0  0  0  0  0  0  0  0
   26.8140   30.3860   21.5160 H   0  0  0  0  0  0  0  0  0  0  0  0
   26.2640   29.5810   16.1670 O   0  0  0  0  0  0  0  0  0  0  0  0
   26.4310   30.9740   16.3220 C   0  0  0  0  0  0  0  0  0  0  0  0
   27.8960   31.2720   16.4290 C   0  0  0  0  0  0  0  0  0  0  0  0
   28.4910   32.3400   17.0740 C   0  0  0  0  0  0  0  0  0  0  0  0
   28.9320   30.5650   15.9200 N   0  0  0  0  0  0  0  0  0  0  0  0
   29.8310   32.2620   16.9490 N   0  0  0  0  0  0  0  0  0  0  0  0
   30.0660   31.1770   16.2460 N   0  0  0  0  0  0  0  0  0  0  0  0
   30.7920   33.1800   17.4810 C   0  0  0  0  0  0  0  0  0  0  0  0
   31.0330   33.2690   18.8020 N   0  0  0  0  0  0  0  0  0  0  0  0
   31.4920   33.9950   16.6680 N   0  0  0  0  0  0  0  0  0  0  0  0
   31.9250   34.1160   19.3400 C   0  0  0  0  0  0  0  0  0  0  0  0
   32.4070   34.8740   17.1510 C   0  0  0  0  0  0  0  0  0  0  0  0
   32.6040   34.9160   18.4720 N   0  0  0  0  0  0  0  0  0  0  0  0
   33.1860   35.7780   16.2630 C   0  0  0  0  0  0  0  0  0  0  0  0
   32.1800   34.2120   20.7230 N   0  0  0  0  0  0  0  0  0  0  0  0
   32.2410   35.1340   21.1740 H   0  0  0  0  0  0  0  0  0  0  0  0
   32.3070   33.3550   21.2800 H   0  0  0  0  0  0  0  0  0  0  0  0
   29.8670   25.5550   16.9770 C   0  0  0  0  0  0  0  0  0  0  0  0
   28.3450   25.7220   17.0260 C   0  0  0  0  0  0  0  0  0  0  0  0
   27.6010   24.4050   16.8660 C   0  0  0  0  0  0  0  0  0  0  0  0
   26.1620   24.5130   17.2900 C   0  0  0  0  0  0  0  0  0  0  0  0
   26.0890   24.6720   18.8050 C   0  0  0  0  0  0  0  0  0  0  0  0
   25.4400   23.4900   19.4200 N   0  0  0  0  0  0  0  0  0  0  0  0
  1  4  1  0  0  0  0
  1  5  1  0  0  0  0
  2  1  1  0  0  0  0
  3  2  2  0  0  0  0
  6  5  1  1  0  0  0
  6  7  1  0  0  0  0
  6 29  1  0  0  0  0
  7 27  1  6  0  0  0
  8  7  1  6  0  0  0
  9 14  1  6  0  0  0
  9 11  1  0  0  0  0
  9 16  1  0  0  0  0
 10  9  1  0  0  0  0
 10 12  1  0  0  0  0
 11  8  1  0  0  0  0
 12 20  1  6  0  0  0
 13  8  1  0  0  0  0
 13 12  1  0  0  0  0
 13 22  1  1  0  0  0
 15 14  1  0  0  0  0
 16 17  2  0  0  0  0
 16 18  1  0  0  0  0
 18 19  1  0  0  0  0
 20 21  1  0  0  0  0
 22 23  1  0  0  0  0
 23 26  2  0  0  0  0
 23 25  1  0  0  0  0
 24 22  1  0  0  0  0
 27 28  1  0  0  0  0
 30 29  1  0  0  0  0
 31 32  1  0  0  0  0
 31  2  1  0  0  0  0
 32 33  1  0  0  0  0
 33 34  2  0  0  0  0
 35 37  2  0  0  0  0
 35 33  1  0  0  0  0
 36 34  1  0  0  0  0
 36 38  1  0  0  0  0
 37 36  1  0  0  0  0
 38 39  2  0  0  0  0
 39 41  2  0  0  0  0
 40 42  2  0  0  0  0
 40 38  1  0  0  0  0
 41 45  1  0  0  0  0
 42 43  1  0  0  0  0
 43 41  1  0  0  0  0
 44 42  1  0  0  0  0
 45 46  1  0  0  0  0
 45 47  1  0  0  0  0
 48 49  1  0  0  0  0
 50 49  1  0  0  0  0
 50 51  1  0  0  0  0
 51 52  1  0  0  0  0
 52 53  1  0  0  0  0
M  END
>  <REMARK>
 VINA RESULT:    -5.227      1.678      2.331
 INTER + INTRA:         -14.333
 INTER:                  -8.358
 INTRA:                  -5.975
 UNBOUND:                -5.134
 SMILES CC(=O)N[C@@H]1[C@@H](O)C[C@](O)(C(=O)O)O[C@H]1C(O)[C@H](O)CNC(=O)OCc1cn(-c2nc(C)nc(N)n2)nn1
 SMILES IDX 21 1 22 2 23 3 20 5 18 6 16 7 15 8 9 9 8 10 14 11 6 12 5 13
 SMILES IDX 10 14 11 16 12 17 13 18 7 20 4 22 2 23 1 25 3 26 17 27 19 29
 SMILES IDX 24 31 25 32 26 33 27 34 38 35 28 36 37 37 29 38 36 39 30 40
 SMILES IDX 34 41 31 42 33 43 32 44 35 45
 H PARENT 21 4 10 15 13 19 7 21 4 24 17 28 19 30 35 46 35 47
 Flexibility Score: inf
  4 active torsions:
  status: ('A' for Active; 'I' for Inactive)
    1  A    between atoms: CA   and  CB  
    2  A    between atoms: CB   and  CG  
    3  A    between atoms: CG   and  CD  
    4  A    between atoms: CD   and  CE  

>  <TORSDO>
F 16

>  <BEGIN_>
RES LYS A 131

$$$$
ligand_65_pose_4_2HRL.pdbqt
 OpenBabel07062320523D

  6  5  0  0  0  0  0  0  0  0999 V2000
   33.1930   34.6630    9.2900 C   0  0  0  0  0  0  0  0  0  0  0  0
   32.0600   35.3600   10.0340 C   0  0  0  0  0  0  0  0  0  0  0  0
   30.8030   35.5080    9.2160 C   0  0  0  0  0  0  0  0  0  0  0  0
   30.1330   34.1580    9.0110 C   0  0  0  0  0  0  0  0  0  0  0  0
   28.6740   34.3380    8.6420 C   0  0  0  0  0  0  0  0  0  0  0  0
   27.7840   33.6550    9.6220 N   0  0  0  0  0  0  0  0  0  0  0  0
  1  2  1  0  0  0  0
  3  2  1  0  0  0  0
  4  3  1  0  0  0  0
  5  4  1  0  0  0  0
  5  6  1  0  0  0  0
M  END
>  <EGIN_R>
ES LYS A 135

>  <REMARK>
  4 active torsions:
  status: ('A' for Active; 'I' for Inactive)
    5  A    between atoms: CA   and  CB  
    6  A    between atoms: CB   and  CG  
    7  A    between atoms: CG   and  CD  
    8  A    between atoms: CD   and  CE  

$$$$
