ligand_11_pose_3_2HRL.pdbqt
 OpenBabel07062320523D

 54 54  0  0  1  0  0  0  0  0999 V2000
   26.0930   35.6070   12.3070 O   0  0  0  0  0  0  0  0  0  0  0  0
   27.3490   35.5400   11.6910 C   0  0  0  0  0  0  0  0  0  0  0  0
   27.6830   34.5460   10.7600 N   0  0  0  0  0  0  0  0  0  0  0  0
   26.9110   33.8280   10.5580 H   0  0  0  0  0  0  0  0  0  0  0  0
   28.1710   36.4150   12.0100 O   0  0  0  0  0  0  0  0  0  0  0  0
   28.9290   34.3930   10.0650 C   0  0  0  0  0  0  0  0  0  0  0  0
   28.7490   34.4380    8.5980 C   0  0  2  0  0  0  0  0  0  0  0  0
   29.4800   35.5920    7.9380 C   0  0  1  0  0  0  0  0  0  0  0  0
   29.0820   36.9180    8.5930 C   0  0  2  0  0  0  0  0  0  0  0  0
   27.1990   37.7230    7.4600 C   0  0  2  0  0  0  0  0  0  0  0  0
   28.1830   38.1600    6.4120 C   0  0  0  0  0  0  0  0  0  0  0  0
   27.7470   37.1540    8.5680 O   0  0  0  0  0  0  0  0  0  0  0  0
   29.4500   38.7430    6.9250 C   0  0  1  0  0  0  0  0  0  0  0  0
   29.9720   38.0380    8.1430 C   0  0  1  0  0  0  0  0  0  0  0  0
   26.3850   36.7680    6.8490 O   0  0  0  0  0  0  0  0  0  0  0  0
   26.8630   36.2680    6.1540 H   0  0  0  0  0  0  0  0  0  0  0  0
   26.3320   38.8660    7.8430 C   0  0  0  0  0  0  0  0  0  0  0  0
   26.2030   39.8420    7.0670 O   0  0  0  0  0  0  0  0  0  0  0  0
   25.6450   38.8990    9.0530 O   0  0  0  0  0  0  0  0  0  0  0  0
   24.6950   39.2700    9.0180 H   0  0  0  0  0  0  0  0  0  0  0  0
   30.4030   38.6580    5.9120 O   0  0  0  0  0  0  0  0  0  0  0  0
   31.2760   39.0300    6.2070 H   0  0  0  0  0  0  0  0  0  0  0  0
   30.1760   38.9210    9.2540 N   0  0  0  0  0  0  0  0  0  0  0  0
   31.4080   39.6090    9.3850 C   0  0  0  0  0  0  0  0  0  0  0  0
   29.4100   39.0590    9.9760 H   0  0  0  0  0  0  0  0  0  0  0  0
   31.6230   40.5190   10.5290 C   0  0  0  0  0  0  0  0  0  0  0  0
   32.3470   39.4770    8.5540 O   0  0  0  0  0  0  0  0  0  0  0  0
   30.8420   35.4050    8.0770 O   0  0  0  0  0  0  0  0  0  0  0  0
   30.9960   34.5460    8.5450 H   0  0  0  0  0  0  0  0  0  0  0  0
   27.4520   34.3310    8.2130 O   0  0  0  0  0  0  0  0  0  0  0  0
   27.0500   35.1460    7.8360 H   0  0  0  0  0  0  0  0  0  0  0  0
   25.0040   34.8650   11.7650 C   0  0  0  0  0  0  0  0  0  0  0  0
   24.4100   35.5240   10.6100 C   0  0  0  0  0  0  0  0  0  0  0  0
   23.2200   36.1960   10.5280 C   0  0  0  0  0  0  0  0  0  0  0  0
   24.9400   35.5970    9.3790 N   0  0  0  0  0  0  0  0  0  0  0  0
   23.0420   36.6580    9.2820 N   0  0  0  0  0  0  0  0  0  0  0  0
   24.1090   36.2760    8.6070 N   0  0  0  0  0  0  0  0  0  0  0  0
   21.9570   37.4200    8.6900 C   0  0  1  0  0  0  0  0  0  0  0  0
   20.7370   37.3240    9.5300 C   0  0  0  0  0  0  0  0  0  0  0  0
   19.9290   36.0910    9.3770 C   0  0  0  0  0  0  0  0  0  0  0  0
   19.7520   35.6670    7.9900 C   0  0  0  0  0  0  0  0  0  0  0  0
   19.0630   36.3600    7.1630 O   0  0  0  0  0  0  0  0  0  0  0  0
   20.3390   34.4810    7.5430 O   0  0  0  0  0  0  0  0  0  0  0  0
   20.4870   33.7520    8.2260 H   0  0  0  0  0  0  0  0  0  0  0  0
   22.3520   38.7390    8.2270 C   0  0  0  0  0  0  0  0  0  0  0  0
   22.0310   39.8130    8.7340 O   0  0  0  0  0  0  0  0  0  0  0  0
   23.1760   38.7900    7.0860 O   0  0  0  0  0  0  0  0  0  0  0  0
   22.7500   38.9650    6.1930 H   0  0  0  0  0  0  0  0  0  0  0  0
   29.8670   25.5550   16.9770 C   0  0  0  0  0  0  0  0  0  0  0  0
   28.3450   25.7220   17.0260 C   0  0  0  0  0  0  0  0  0  0  0  0
   27.6000   24.4070   16.8550 C   0  0  0  0  0  0  0  0  0  0  0  0
   26.6200   24.1620   17.9680 C   0  0  0  0  0  0  0  0  0  0  0  0
   26.2860   25.4840   18.6520 C   0  0  0  0  0  0  0  0  0  0  0  0
   25.5780   25.2420   19.9320 N   0  0  0  0  0  0  0  0  0  0  0  0
  2  5  2  0  0  0  0
  2  1  1  0  0  0  0
  3  2  1  0  0  0  0
  4  3  1  0  0  0  0
  6  3  1  0  0  0  0
  7  6  1  1  0  0  0
  8 28  1  1  0  0  0
  8  7  1  0  0  0  0
  9  8  1  6  0  0  0
 10 15  1  6  0  0  0
 10 17  1  0  0  0  0
 10 12  1  0  0  0  0
 11 13  1  0  0  0  0
 11 10  1  0  0  0  0
 12  9  1  0  0  0  0
 13 21  1  6  0  0  0
 13 14  1  0  0  0  0
 14  9  1  0  0  0  0
 14 23  1  1  0  0  0
 16 15  1  0  0  0  0
 17 19  1  0  0  0  0
 18 17  2  0  0  0  0
 20 19  1  0  0  0  0
 21 22  1  0  0  0  0
 23 24  1  0  0  0  0
 23 25  1  0  0  0  0
 24 26  1  0  0  0  0
 27 24  2  0  0  0  0
 28 29  1  0  0  0  0
 30  7  1  0  0  0  0
 31 30  1  0  0  0  0
 32  1  1  0  0  0  0
 33 32  1  0  0  0  0
 34 33  2  0  0  0  0
 35 33  1  0  0  0  0
 36 34  1  0  0  0  0
 37 36  1  0  0  0  0
 37 35  2  0  0  0  0
 38 36  1  0  0  0  0
 38 39  1  1  0  0  0
 40 39  1  0  0  0  0
 41 40  1  0  0  0  0
 42 41  2  0  0  0  0
 43 41  1  0  0  0  0
 43 44  1  0  0  0  0
 45 38  1  0  0  0  0
 45 46  2  0  0  0  0
 47 45  1  0  0  0  0
 48 47  1  0  0  0  0
 49 50  1  0  0  0  0
 51 50  1  0  0  0  0
 51 52  1  0  0  0  0
 52 53  1  0  0  0  0
 53 54  1  0  0  0  0
M  END
>  <REMARK>
 VINA RESULT:    -4.091      2.224      6.133
 INTER + INTRA:         -15.714
 INTER:                  -9.654
 INTRA:                  -6.060
 UNBOUND:                -7.438
 SMILES CC(=O)N[C@@H]1[C@@H](O)C[C@](O)(C(=O)O)O[C@H]1C(O)[C@H](O)CNC(=O)OCc1cn([C@@H](CCC(=O)O)C(=O)O)nn1
 SMILES IDX 24 1 22 2 21 3 23 5 20 6 18 7 16 8 15 9 9 10 8 11 14 12 6 13
 SMILES IDX 5 14 10 15 11 17 12 18 13 19 7 21 4 23 2 24 1 26 3 27 17 28
 SMILES IDX 19 30 25 32 26 33 27 34 39 35 28 36 38 37 29 38 30 39 31 40
 SMILES IDX 32 41 33 42 34 43 35 45 36 46 37 47
 H PARENT 21 4 10 16 13 20 7 22 4 25 17 29 19 31 34 44 37 48
 Flexibility Score: inf
  4 active torsions:
  status: ('A' for Active; 'I' for Inactive)
    1  A    between atoms: CA   and  CB  
    2  A    between atoms: CB   and  CG  
    3  A    between atoms: CG   and  CD  
    4  A    between atoms: CD   and  CE  

>  <TORSDO>
F 21

>  <BEGIN_>
RES LYS A 131

$$$$
ligand_11_pose_3_2HRL.pdbqt
 OpenBabel07062320523D

  6  5  0  0  0  0  0  0  0  0999 V2000
   33.1930   34.6630    9.2900 C   0  0  0  0  0  0  0  0  0  0  0  0
   32.0600   35.3600   10.0340 C   0  0  0  0  0  0  0  0  0  0  0  0
   32.5350   36.3720   11.0450 C   0  0  0  0  0  0  0  0  0  0  0  0
   31.4920   36.5750   12.1320 C   0  0  0  0  0  0  0  0  0  0  0  0
   31.5320   35.4330   13.1290 C   0  0  0  0  0  0  0  0  0  0  0  0
   32.9240   35.1710   13.5890 N   0  0  0  0  0  0  0  0  0  0  0  0
  1  2  1  0  0  0  0
  2  3  1  0  0  0  0
  3  4  1  0  0  0  0
  4  5  1  0  0  0  0
  5  6  1  0  0  0  0
M  END
>  <EGIN_R>
ES LYS A 135

>  <REMARK>
  4 active torsions:
  status: ('A' for Active; 'I' for Inactive)
    5  A    between atoms: CA   and  CB  
    6  A    between atoms: CB   and  CG  
    7  A    between atoms: CG   and  CD  
    8  A    between atoms: CD   and  CE  

$$$$
