ligand_39_pose_19_2HRL.pdbqt
 OpenBabel07062320523D

 51 52  0  0  1  0  0  0  0  0999 V2000
   22.0630   37.8260    7.9170 N   0  0  0  0  0  0  0  0  0  0  0  0
   21.2330   38.1630    8.9920 C   0  0  0  0  0  0  0  0  0  0  0  0
   21.4830   39.2050    9.6600 O   0  0  0  0  0  0  0  0  0  0  0  0
   21.8190   36.9470    7.3820 H   0  0  0  0  0  0  0  0  0  0  0  0
   23.2190   38.5850    7.4920 C   0  0  0  0  0  0  0  0  0  0  0  0
   24.4480   38.0770    8.2150 C   0  0  2  0  0  0  0  0  0  0  0  0
   25.0260   39.1360    9.1290 C   0  0  2  0  0  0  0  0  0  0  0  0
   25.3890   38.5760   10.4900 C   0  0  2  0  0  0  0  0  0  0  0  0
   25.7030   36.5180   11.5410 C   0  0  2  0  0  0  0  0  0  0  0  0
   24.7510   36.8540   12.6250 C   0  0  0  0  0  0  0  0  0  0  0  0
   25.3820   37.2180   10.3890 O   0  0  0  0  0  0  0  0  0  0  0  0
   23.9200   38.0660   12.4580 C   0  0  1  0  0  0  0  0  0  0  0  0
   24.4940   39.1270   11.5640 C   0  0  1  0  0  0  0  0  0  0  0  0
   25.5310   35.1520   11.1960 O   0  0  0  0  0  0  0  0  0  0  0  0
   25.8810   34.5570   11.9100 H   0  0  0  0  0  0  0  0  0  0  0  0
   27.0940   36.6930   11.9630 C   0  0  0  0  0  0  0  0  0  0  0  0
   27.4230   37.0790   13.1190 O   0  0  0  0  0  0  0  0  0  0  0  0
   28.1160   36.4270   11.0630 O   0  0  0  0  0  0  0  0  0  0  0  0
   27.9760   36.4100   10.0600 H   0  0  0  0  0  0  0  0  0  0  0  0
   22.6210   37.7150   12.0440 O   0  0  0  0  0  0  0  0  0  0  0  0
   22.1780   37.3670   12.8820 H   0  0  0  0  0  0  0  0  0  0  0  0
   25.1300   40.1760   12.3290 N   0  0  0  0  0  0  0  0  0  0  0  0
   24.6200   41.4980   12.3880 C   0  0  0  0  0  0  0  0  0  0  0  0
   25.9970   39.9670   12.8610 H   0  0  0  0  0  0  0  0  0  0  0  0
   25.2630   42.5910   13.1710 C   0  0  0  0  0  0  0  0  0  0  0  0
   23.5520   41.7290   11.7250 O   0  0  0  0  0  0  0  0  0  0  0  0
   24.1480   40.2110    9.2210 O   0  0  0  0  0  0  0  0  0  0  0  0
   24.6150   41.0340    8.8770 H   0  0  0  0  0  0  0  0  0  0  0  0
   25.3730   37.7570    7.1930 O   0  0  0  0  0  0  0  0  0  0  0  0
   24.9710   37.7950    6.3100 H   0  0  0  0  0  0  0  0  0  0  0  0
   20.1270   37.4270    9.3920 O   0  0  0  0  0  0  0  0  0  0  0  0
   20.1070   36.0200    9.2180 C   0  0  0  0  0  0  0  0  0  0  0  0
   20.9660   35.3390   10.2090 C   0  0  0  0  0  0  0  0  0  0  0  0
   20.5420   34.5760   11.3070 C   0  0  0  0  0  0  0  0  0  0  0  0
   22.3000   35.2970   10.2880 N   0  0  0  0  0  0  0  0  0  0  0  0
   21.5760   34.1140   11.9890 N   0  0  0  0  0  0  0  0  0  0  0  0
   22.6640   34.5800   11.3300 N   0  0  0  0  0  0  0  0  0  0  0  0
   21.7250   33.3080   13.1780 C   0  0  0  0  0  0  0  0  0  0  0  0
   22.1180   31.9220   12.9600 C   0  0  0  0  0  0  0  0  0  0  0  0
   21.1930   30.9730   12.5180 C   0  0  0  0  0  0  0  0  0  0  0  0
   23.4000   31.4910   13.1440 C   0  0  0  0  0  0  0  0  0  0  0  0
   21.5860   29.6840   12.2880 C   0  0  0  0  0  0  0  0  0  0  0  0
   23.7940   30.1870   12.9110 C   0  0  0  0  0  0  0  0  0  0  0  0
   24.7670   32.6850   13.8000 Br  0  0  0  0  0  0  0  0  0  0  0  0
   22.8790   29.2610   12.4750 C   0  0  0  0  0  0  0  0  0  0  0  0
   29.8670   25.5550   16.9770 C   0  0  0  0  0  0  0  0  0  0  0  0
   28.3450   25.7220   17.0260 C   0  0  0  0  0  0  0  0  0  0  0  0
   27.6020   24.3980   16.9330 C   0  0  0  0  0  0  0  0  0  0  0  0
   26.1350   24.5500   17.2230 C   0  0  0  0  0  0  0  0  0  0  0  0
   25.9360   25.6140   18.2980 C   0  0  0  0  0  0  0  0  0  0  0  0
   25.6780   24.9810   19.6130 N   0  0  0  0  0  0  0  0  0  0  0  0
  1  2  1  0  0  0  0
  2 31  1  0  0  0  0
  2  3  2  0  0  0  0
  4  1  1  0  0  0  0
  5  1  1  0  0  0  0
  6  5  1  6  0  0  0
  6  7  1  0  0  0  0
  7 27  1  1  0  0  0
  8  7  1  6  0  0  0
  8 13  1  0  0  0  0
  9 14  1  6  0  0  0
  9 16  1  0  0  0  0
  9 10  1  0  0  0  0
 11  8  1  0  0  0  0
 11  9  1  0  0  0  0
 12 20  1  6  0  0  0
 12 10  1  0  0  0  0
 13 22  1  1  0  0  0
 13 12  1  0  0  0  0
 14 15  1  0  0  0  0
 16 17  2  0  0  0  0
 18 16  1  0  0  0  0
 19 18  1  0  0  0  0
 20 21  1  0  0  0  0
 22 23  1  0  0  0  0
 22 24  1  0  0  0  0
 23 25  1  0  0  0  0
 26 23  2  0  0  0  0
 28 27  1  0  0  0  0
 29  6  1  0  0  0  0
 30 29  1  0  0  0  0
 32 31  1  0  0  0  0
 32 33  1  0  0  0  0
 33 35  1  0  0  0  0
 33 34  2  0  0  0  0
 34 36  1  0  0  0  0
 35 37  2  0  0  0  0
 36 38  1  0  0  0  0
 37 36  1  0  0  0  0
 39 41  1  0  0  0  0
 39 38  1  0  0  0  0
 40 39  2  0  0  0  0
 41 44  1  0  0  0  0
 42 45  2  0  0  0  0
 42 40  1  0  0  0  0
 43 41  2  0  0  0  0
 45 43  1  0  0  0  0
 46 47  1  0  0  0  0
 48 47  1  0  0  0  0
 48 49  1  0  0  0  0
 49 50  1  0  0  0  0
 50 51  1  0  0  0  0
M  END
>  <REMARK>
 VINA RESULT:    -3.759      7.444     11.361
 INTER + INTRA:         -14.151
 INTER:                  -6.725
 INTRA:                  -7.426
 UNBOUND:                -7.426
 SMILES CC(=O)N[C@@H]1[C@@H](O)C[C@](O)(C(=O)O)O[C@H]1C(O)[C@H](O)CNC(=O)OCc1cn(Cc2ccccc2Br)nn1
 SMILES IDX 21 1 22 2 23 3 20 5 18 6 16 7 15 8 9 9 8 10 14 11 6 12 5 13
 SMILES IDX 10 14 11 16 12 17 13 18 7 20 4 22 2 23 1 25 3 26 17 27 19 29
 SMILES IDX 24 31 25 32 26 33 27 34 38 35 28 36 37 37 29 38 30 39 31 40
 SMILES IDX 35 41 32 42 34 43 36 44 33 45
 H PARENT 21 4 10 15 13 19 7 21 4 24 17 28 19 30
 Flexibility Score: inf
  4 active torsions:
  status: ('A' for Active; 'I' for Inactive)
    1  A    between atoms: CA   and  CB  
    2  A    between atoms: CB   and  CG  
    3  A    between atoms: CG   and  CD  
    4  A    between atoms: CD   and  CE  

>  <TORSDO>
F 16

>  <BEGIN_>
RES LYS A 131

$$$$
ligand_39_pose_19_2HRL.pdbqt
 OpenBabel07062320523D

  6  5  0  0  0  0  0  0  0  0999 V2000
   33.1930   34.6630    9.2900 C   0  0  0  0  0  0  0  0  0  0  0  0
   32.0600   35.3600   10.0340 C   0  0  0  0  0  0  0  0  0  0  0  0
   30.7080   34.7420    9.7890 C   0  0  0  0  0  0  0  0  0  0  0  0
   30.4560   34.5760    8.2980 C   0  0  0  0  0  0  0  0  0  0  0  0
   28.9970   34.8340    7.9720 C   0  0  0  0  0  0  0  0  0  0  0  0
   28.8570   35.5710    6.6850 N   0  0  0  0  0  0  0  0  0  0  0  0
  1  2  1  0  0  0  0
  3  2  1  0  0  0  0
  4  3  1  0  0  0  0
  5  4  1  0  0  0  0
  6  5  1  0  0  0  0
M  END
>  <EGIN_R>
ES LYS A 135

>  <REMARK>
  4 active torsions:
  status: ('A' for Active; 'I' for Inactive)
    5  A    between atoms: CA   and  CB  
    6  A    between atoms: CB   and  CG  
    7  A    between atoms: CG   and  CD  
    8  A    between atoms: CD   and  CE  

$$$$
