ligand_2_pose_12_2HRL.pdbqt
 OpenBabel07062320523D

 50 51  0  0  1  0  0  0  0  0999 V2000
   32.7540   34.9740   14.8580 C   0  0  0  0  0  0  0  0  0  0  0  0
   32.0780   36.2490   15.2500 C   0  0  2  0  0  0  0  0  0  0  0  0
   31.8840   37.0900   13.9780 C   0  0  2  0  0  0  0  0  0  0  0  0
   30.4120   37.4450   13.7770 C   0  0  2  0  0  0  0  0  0  0  0  0
   29.0630   35.5640   13.3810 C   0  0  2  0  0  0  0  0  0  0  0  0
   28.1180   36.2520   12.4200 C   0  0  0  0  0  0  0  0  0  0  0  0
   29.6880   36.3760   14.2640 O   0  0  0  0  0  0  0  0  0  0  0  0
   28.5640   37.6560   12.2230 C   0  0  1  0  0  0  0  0  0  0  0  0
   30.0730   37.7090   12.3680 C   0  0  1  0  0  0  0  0  0  0  0  0
   29.9170   34.7890   12.6000 O   0  0  0  0  0  0  0  0  0  0  0  0
   29.3740   34.0290   12.2690 H   0  0  0  0  0  0  0  0  0  0  0  0
   28.2220   34.6230   14.1640 C   0  0  0  0  0  0  0  0  0  0  0  0
   27.1770   34.1860   13.6320 O   0  0  0  0  0  0  0  0  0  0  0  0
   28.5560   34.2300   15.4310 O   0  0  0  0  0  0  0  0  0  0  0  0
   29.4760   34.4720   15.8090 H   0  0  0  0  0  0  0  0  0  0  0  0
   28.1340   38.2120   11.0250 O   0  0  0  0  0  0  0  0  0  0  0  0
   27.3500   37.7370   10.6810 H   0  0  0  0  0  0  0  0  0  0  0  0
   30.5160   38.9330   11.7940 N   0  0  0  0  0  0  0  0  0  0  0  0
   31.5770   39.0180   10.8610 C   0  0  0  0  0  0  0  0  0  0  0  0
   29.9990   39.7970   12.1090 H   0  0  0  0  0  0  0  0  0  0  0  0
   32.0090   40.3080   10.2870 C   0  0  0  0  0  0  0  0  0  0  0  0
   32.1090   37.9120   10.5700 O   0  0  0  0  0  0  0  0  0  0  0  0
   32.3580   36.3820   12.8690 O   0  0  0  0  0  0  0  0  0  0  0  0
   32.2290   35.3980   12.9810 H   0  0  0  0  0  0  0  0  0  0  0  0
   32.7640   36.9550   16.2120 O   0  0  0  0  0  0  0  0  0  0  0  0
   33.5730   37.4140   15.9260 H   0  0  0  0  0  0  0  0  0  0  0  0
   31.9140   33.8350   14.6950 N   0  0  0  0  0  0  0  0  0  0  0  0
   31.4200   33.0300   15.7520 C   0  0  0  0  0  0  0  0  0  0  0  0
   31.6230   33.5500   13.7190 H   0  0  0  0  0  0  0  0  0  0  0  0
   31.6880   33.2730   16.9400 O   0  0  0  0  0  0  0  0  0  0  0  0
   30.6020   31.9190   15.4690 O   0  0  0  0  0  0  0  0  0  0  0  0
   30.0330   31.1490   16.5240 C   0  0  0  0  0  0  0  0  0  0  0  0
   28.5620   31.3130   16.4290 C   0  0  0  0  0  0  0  0  0  0  0  0
   27.7400   30.6860   15.5390 C   0  0  0  0  0  0  0  0  0  0  0  0
   27.8010   32.0900   17.1850 N   0  0  0  0  0  0  0  0  0  0  0  0
   26.4860   31.1130   15.7900 N   0  0  0  0  0  0  0  0  0  0  0  0
   26.5390   31.9680   16.7950 N   0  0  0  0  0  0  0  0  0  0  0  0
   25.3450   30.6690   15.0500 C   0  0  0  0  0  0  0  0  0  0  0  0
   24.5660   29.6550   15.5530 C   0  0  0  0  0  0  0  0  0  0  0  0
   25.0780   31.2850   13.8540 C   0  0  0  0  0  0  0  0  0  0  0  0
   23.4740   29.2560   14.8060 C   0  0  0  0  0  0  0  0  0  0  0  0
   23.9790   30.8640   13.1320 C   0  0  0  0  0  0  0  0  0  0  0  0
   23.1700   29.8540   13.5920 C   0  0  0  0  0  0  0  0  0  0  0  0
   21.7990   29.3680   12.6330 Cl  0  0  0  0  0  0  0  0  0  0  0  0
   29.8670   25.5550   16.9770 C   0  0  0  0  0  0  0  0  0  0  0  0
   28.3450   25.7220   17.0260 C   0  0  0  0  0  0  0  0  0  0  0  0
   27.6010   24.4020   16.8910 C   0  0  0  0  0  0  0  0  0  0  0  0
   26.7080   24.1320   18.0700 C   0  0  0  0  0  0  0  0  0  0  0  0
   25.9950   25.4190   18.4740 C   0  0  0  0  0  0  0  0  0  0  0  0
   24.7410   25.5820   17.7020 N   0  0  0  0  0  0  0  0  0  0  0  0
  2  1  1  6  0  0  0
  2 25  1  0  0  0  0
  3 23  1  6  0  0  0
  3  2  1  0  0  0  0
  4  3  1  6  0  0  0
  4  7  1  0  0  0  0
  5 10  1  6  0  0  0
  5 12  1  0  0  0  0
  5  7  1  0  0  0  0
  6  5  1  0  0  0  0
  8 16  1  6  0  0  0
  8  9  1  0  0  0  0
  8  6  1  0  0  0  0
  9 18  1  1  0  0  0
  9  4  1  0  0  0  0
 11 10  1  0  0  0  0
 12 14  1  0  0  0  0
 13 12  2  0  0  0  0
 14 15  1  0  0  0  0
 17 16  1  0  0  0  0
 18 20  1  0  0  0  0
 19 18  1  0  0  0  0
 21 19  1  0  0  0  0
 22 19  2  0  0  0  0
 23 24  1  0  0  0  0
 26 25  1  0  0  0  0
 27  1  1  0  0  0  0
 27 28  1  0  0  0  0
 28 30  2  0  0  0  0
 29 27  1  0  0  0  0
 31 28  1  0  0  0  0
 31 32  1  0  0  0  0
 33 32  1  0  0  0  0
 33 35  1  0  0  0  0
 34 36  1  0  0  0  0
 34 33  2  0  0  0  0
 36 37  1  0  0  0  0
 37 35  2  0  0  0  0
 38 39  1  0  0  0  0
 38 36  1  0  0  0  0
 40 38  2  0  0  0  0
 41 39  2  0  0  0  0
 42 43  2  0  0  0  0
 42 40  1  0  0  0  0
 43 41  1  0  0  0  0
 44 43  1  0  0  0  0
 45 46  1  0  0  0  0
 47 46  1  0  0  0  0
 47 48  1  0  0  0  0
 48 49  1  0  0  0  0
 50 49  1  0  0  0  0
M  END
>  <REMARK>
 VINA RESULT:    -4.052      5.824      9.643
 INTER + INTRA:         -14.020
 INTER:                  -7.839
 INTRA:                  -6.180
 UNBOUND:                -7.007
 SMILES CC(=O)N[C@@H]1[C@@H](O)C[C@](O)(C(=O)O)O[C@H]1C(O)[C@H](O)CNC(=O)OCc1cn(-c2ccc(Cl)cc2)nn1
 SMILES IDX 20 1 18 2 16 3 15 4 9 5 8 6 14 7 6 8 5 9 10 10 11 12 12 13
 SMILES IDX 13 14 7 16 4 18 2 19 1 21 3 22 17 23 19 25 21 27 22 28 23 30
 SMILES IDX 24 31 25 32 26 33 27 34 37 35 28 36 36 37 29 38 30 39 35 40
 SMILES IDX 31 41 34 42 32 43 33 44
 H PARENT 10 11 13 15 7 17 4 20 17 24 19 26 21 29
 Flexibility Score: inf
  4 active torsions:
  status: ('A' for Active; 'I' for Inactive)
    1  A    between atoms: CA   and  CB  
    2  A    between atoms: CB   and  CG  
    3  A    between atoms: CG   and  CD  
    4  A    between atoms: CD   and  CE  

>  <TORSDO>
F 15

>  <BEGIN_>
RES LYS A 131

$$$$
ligand_2_pose_12_2HRL.pdbqt
 OpenBabel07062320523D

  6  5  0  0  0  0  0  0  0  0999 V2000
   33.1930   34.6630    9.2900 C   0  0  0  0  0  0  0  0  0  0  0  0
   32.0600   35.3600   10.0340 C   0  0  0  0  0  0  0  0  0  0  0  0
   30.7750   35.4250    9.2500 C   0  0  0  0  0  0  0  0  0  0  0  0
   30.1480   34.0450    9.1310 C   0  0  0  0  0  0  0  0  0  0  0  0
   28.6470   34.1550    8.9420 C   0  0  0  0  0  0  0  0  0  0  0  0
   28.2260   35.5780    8.8170 N   0  0  0  0  0  0  0  0  0  0  0  0
  1  2  1  0  0  0  0
  3  2  1  0  0  0  0
  4  3  1  0  0  0  0
  5  4  1  0  0  0  0
  6  5  1  0  0  0  0
M  END
>  <EGIN_R>
ES LYS A 135

>  <REMARK>
  4 active torsions:
  status: ('A' for Active; 'I' for Inactive)
    5  A    between atoms: CA   and  CB  
    6  A    between atoms: CB   and  CG  
    7  A    between atoms: CG   and  CD  
    8  A    between atoms: CD   and  CE  

$$$$
