ligand_74_pose_11_2HRL.pdbqt
 OpenBabel07062320523D

 54 54  0  0  1  0  0  0  0  0999 V2000
   32.1860   35.5620   16.5530 O   0  0  0  0  0  0  0  0  0  0  0  0
   31.8120   34.4130   15.8340 C   0  0  0  0  0  0  0  0  0  0  0  0
   31.3690   33.2430   16.4960 N   0  0  0  0  0  0  0  0  0  0  0  0
   31.3370   33.2930   17.5630 H   0  0  0  0  0  0  0  0  0  0  0  0
   31.8820   34.4570   14.5820 O   0  0  0  0  0  0  0  0  0  0  0  0
   30.9770   32.0330   15.8090 C   0  0  0  0  0  0  0  0  0  0  0  0
   30.2400   31.1430   16.7480 C   0  0  2  0  0  0  0  0  0  0  0  0
   28.8540   30.7540   16.2610 C   0  0  2  0  0  0  0  0  0  0  0  0
   27.8720   30.6850   17.3880 C   0  0  2  0  0  0  0  0  0  0  0  0
   27.3600   28.6850   18.4530 C   0  0  2  0  0  0  0  0  0  0  0  0
   25.9050   29.0360   18.6540 C   0  0  0  0  0  0  0  0  0  0  0  0
   28.1750   29.8040   18.3840 O   0  0  0  0  0  0  0  0  0  0  0  0
   25.5840   30.4200   18.1300 C   0  0  1  0  0  0  0  0  0  0  0  0
   26.4410   30.5780   16.8670 C   0  0  1  0  0  0  0  0  0  0  0  0
   27.5230   27.8500   17.3430 O   0  0  0  0  0  0  0  0  0  0  0  0
   27.8920   26.9750   17.5670 H   0  0  0  0  0  0  0  0  0  0  0  0
   27.7930   27.9070   19.6430 C   0  0  0  0  0  0  0  0  0  0  0  0
   27.0440   27.8910   20.6680 O   0  0  0  0  0  0  0  0  0  0  0  0
   28.9710   27.1930   19.7020 O   0  0  0  0  0  0  0  0  0  0  0  0
   29.0220   26.2720   19.2380 H   0  0  0  0  0  0  0  0  0  0  0  0
   24.2480   30.6100   17.8800 O   0  0  0  0  0  0  0  0  0  0  0  0
   24.1850   31.3010   17.1510 H   0  0  0  0  0  0  0  0  0  0  0  0
   26.1080   31.7940   16.1690 N   0  0  0  0  0  0  0  0  0  0  0  0
   25.4400   31.7510   14.9060 C   0  0  0  0  0  0  0  0  0  0  0  0
   26.3300   32.7510   16.5390 H   0  0  0  0  0  0  0  0  0  0  0  0
   25.0850   32.9760   14.1660 C   0  0  0  0  0  0  0  0  0  0  0  0
   25.1450   30.6380   14.4040 O   0  0  0  0  0  0  0  0  0  0  0  0
   28.9080   29.6230   15.4800 O   0  0  0  0  0  0  0  0  0  0  0  0
   29.7030   29.6670   14.9090 H   0  0  0  0  0  0  0  0  0  0  0  0
   30.0640   31.8370   17.9690 O   0  0  0  0  0  0  0  0  0  0  0  0
   30.1380   31.2280   18.7370 H   0  0  0  0  0  0  0  0  0  0  0  0
   32.7340   35.3760   17.8330 C   0  0  0  0  0  0  0  0  0  0  0  0
   34.1120   35.8900   17.9360 C   0  0  0  0  0  0  0  0  0  0  0  0
   35.0760   36.0610   16.9530 C   0  0  0  0  0  0  0  0  0  0  0  0
   34.6960   36.3030   19.0670 N   0  0  0  0  0  0  0  0  0  0  0  0
   36.1890   36.5640   17.5150 N   0  0  0  0  0  0  0  0  0  0  0  0
   35.9340   36.7000   18.7910 N   0  0  0  0  0  0  0  0  0  0  0  0
   37.4430   36.8850   16.7790 C   0  0  0  0  0  0  0  0  0  0  0  0
   38.0610   35.6290   16.2730 C   0  0  2  0  0  0  0  0  0  0  0  0
   39.0550   35.1480   17.3150 C   0  0  0  0  0  0  0  0  0  0  0  0
   38.5840   33.8590   17.8830 C   0  0  0  0  0  0  0  0  0  0  0  0
   37.8480   33.8310   18.8850 O   0  0  0  0  0  0  0  0  0  0  0  0
   39.0000   32.6860   17.2460 O   0  0  0  0  0  0  0  0  0  0  0  0
   38.3190   32.0090   16.9650 H   0  0  0  0  0  0  0  0  0  0  0  0
   38.6080   35.7490   14.9110 C   0  0  0  0  0  0  0  0  0  0  0  0
   38.8740   34.5070   14.1480 C   0  0  0  0  0  0  0  0  0  0  0  0
   37.4830   33.8420   13.9420 C   0  0  0  0  0  0  0  0  0  0  0  0
   39.4870   34.6520   12.7970 C   0  0  0  0  0  0  0  0  0  0  0  0
   29.8670   25.5550   16.9770 C   0  0  0  0  0  0  0  0  0  0  0  0
   28.3450   25.7220   17.0260 C   0  0  0  0  0  0  0  0  0  0  0  0
   27.6040   24.3940   16.9910 C   0  0  0  0  0  0  0  0  0  0  0  0
   26.1770   24.5300   17.4460 C   0  0  0  0  0  0  0  0  0  0  0  0
   25.5220   23.1530   17.4850 C   0  0  0  0  0  0  0  0  0  0  0  0
   24.1010   23.2430   17.0750 N   0  0  0  0  0  0  0  0  0  0  0  0
  1 32  1  0  0  0  0
  2  3  1  0  0  0  0
  2  1  1  0  0  0  0
  3  4  1  0  0  0  0
  5  2  2  0  0  0  0
  6  3  1  0  0  0  0
  7  6  1  6  0  0  0
  7 30  1  0  0  0  0
  8 28  1  1  0  0  0
  8  7  1  0  0  0  0
  9  8  1  6  0  0  0
  9 12  1  0  0  0  0
 10 15  1  6  0  0  0
 10 11  1  0  0  0  0
 10 17  1  0  0  0  0
 12 10  1  0  0  0  0
 13 21  1  6  0  0  0
 13 11  1  0  0  0  0
 14 23  1  1  0  0  0
 14  9  1  0  0  0  0
 14 13  1  0  0  0  0
 15 16  1  0  0  0  0
 17 19  1  0  0  0  0
 17 18  2  0  0  0  0
 20 19  1  0  0  0  0
 22 21  1  0  0  0  0
 23 25  1  0  0  0  0
 24 23  1  0  0  0  0
 26 24  1  0  0  0  0
 27 24  2  0  0  0  0
 29 28  1  0  0  0  0
 30 31  1  0  0  0  0
 32 33  1  0  0  0  0
 33 35  1  0  0  0  0
 34 36  1  0  0  0  0
 34 33  2  0  0  0  0
 36 37  1  0  0  0  0
 37 35  2  0  0  0  0
 38 36  1  0  0  0  0
 39 45  1  6  0  0  0
 39 38  1  0  0  0  0
 39 40  1  0  0  0  0
 40 41  1  0  0  0  0
 41 42  2  0  0  0  0
 43 41  1  0  0  0  0
 44 43  1  0  0  0  0
 46 45  1  0  0  0  0
 47 46  1  0  0  0  0
 48 46  1  0  0  0  0
 49 50  1  0  0  0  0
 51 50  1  0  0  0  0
 51 52  1  0  0  0  0
 52 53  1  0  0  0  0
 54 53  1  0  0  0  0
M  END
>  <REMARK>
 VINA RESULT:    -4.150      3.617      6.824
 INTER + INTRA:         -15.635
 INTER:                 -10.327
 INTRA:                  -5.308
 UNBOUND:                -7.118
 SMILES CC(=O)N[C@@H]1[C@@H](O)C[C@](O)(C(=O)O)O[C@H]1C(O)[C@H](O)CNC(=O)OCc1cn(C[C@H](CC(=O)O)CC(C)C)nn1
 SMILES IDX 24 1 22 2 21 3 23 5 20 6 18 7 16 8 15 9 9 10 8 11 14 12 6 13
 SMILES IDX 5 14 10 15 11 17 12 18 13 19 7 21 4 23 2 24 1 26 3 27 17 28
 SMILES IDX 19 30 25 32 26 33 27 34 40 35 28 36 39 37 29 38 30 39 31 40
 SMILES IDX 32 41 33 42 34 43 35 45 36 46 37 47 38 48
 H PARENT 21 4 10 16 13 20 7 22 4 25 17 29 19 31 34 44
 Flexibility Score: inf
  4 active torsions:
  status: ('A' for Active; 'I' for Inactive)
    1  A    between atoms: CA   and  CB  
    2  A    between atoms: CB   and  CG  
    3  A    between atoms: CG   and  CD  
    4  A    between atoms: CD   and  CE  

>  <TORSDO>
F 21

>  <BEGIN_>
RES LYS A 131

$$$$
ligand_74_pose_11_2HRL.pdbqt
 OpenBabel07062320523D

  6  5  0  0  0  0  0  0  0  0999 V2000
   33.1930   34.6630    9.2900 C   0  0  0  0  0  0  0  0  0  0  0  0
   32.0600   35.3600   10.0340 C   0  0  0  0  0  0  0  0  0  0  0  0
   30.7860   35.4590    9.2350 C   0  0  0  0  0  0  0  0  0  0  0  0
   30.1590   34.0860    9.0510 C   0  0  0  0  0  0  0  0  0  0  0  0
   28.7050   34.1020    9.4810 C   0  0  0  0  0  0  0  0  0  0  0  0
   27.8220   34.5460    8.3670 N   0  0  0  0  0  0  0  0  0  0  0  0
  1  2  1  0  0  0  0
  3  2  1  0  0  0  0
  4  3  1  0  0  0  0
  4  5  1  0  0  0  0
  6  5  1  0  0  0  0
M  END
>  <EGIN_R>
ES LYS A 135

>  <REMARK>
  4 active torsions:
  status: ('A' for Active; 'I' for Inactive)
    5  A    between atoms: CA   and  CB  
    6  A    between atoms: CB   and  CG  
    7  A    between atoms: CG   and  CD  
    8  A    between atoms: CD   and  CE  

$$$$
