ligand_7_pose_9_2HRL.pdbqt
 OpenBabel07062320523D

 52 53  0  0  1  0  0  0  0  0999 V2000
   29.3690   29.3340   20.2730 C   0  0  0  0  0  0  0  0  0  0  0  0
   29.8850   28.0560   20.8270 C   0  0  2  0  0  0  0  0  0  0  0  0
   31.3660   27.9850   21.0150 C   0  0  1  0  0  0  0  0  0  0  0  0
   31.8380   27.3060   22.2450 C   0  0  2  0  0  0  0  0  0  0  0  0
   30.8900   26.5910   24.2600 C   0  0  2  0  0  0  0  0  0  0  0  0
   32.2540   26.4270   24.8690 C   0  0  0  0  0  0  0  0  0  0  0  0
   30.8640   26.6090   22.8980 O   0  0  0  0  0  0  0  0  0  0  0  0
   33.3310   27.1530   24.1380 C   0  0  1  0  0  0  0  0  0  0  0  0
   32.6720   28.1460   23.1640 C   0  0  1  0  0  0  0  0  0  0  0  0
   30.3290   27.7540   24.7800 O   0  0  0  0  0  0  0  0  0  0  0  0
   31.0240   28.1970   25.3460 H   0  0  0  0  0  0  0  0  0  0  0  0
   30.0760   25.4330   24.7160 C   0  0  0  0  0  0  0  0  0  0  0  0
   29.0440   25.1010   24.0990 O   0  0  0  0  0  0  0  0  0  0  0  0
   30.4490   24.6940   25.8460 O   0  0  0  0  0  0  0  0  0  0  0  0
   30.0030   23.7780   26.0000 H   0  0  0  0  0  0  0  0  0  0  0  0
   34.2600   27.7720   24.9500 O   0  0  0  0  0  0  0  0  0  0  0  0
   34.8050   28.3800   24.3670 H   0  0  0  0  0  0  0  0  0  0  0  0
   33.7690   28.7780   22.4790 N   0  0  0  0  0  0  0  0  0  0  0  0
   33.8600   30.1950   22.5130 C   0  0  0  0  0  0  0  0  0  0  0  0
   34.5010   28.2330   21.9600 H   0  0  0  0  0  0  0  0  0  0  0  0
   34.9520   30.9420   21.8360 C   0  0  0  0  0  0  0  0  0  0  0  0
   32.9990   30.8730   23.1290 O   0  0  0  0  0  0  0  0  0  0  0  0
   31.9090   27.3550   19.8980 O   0  0  0  0  0  0  0  0  0  0  0  0
   31.6520   26.4000   19.9350 H   0  0  0  0  0  0  0  0  0  0  0  0
   29.3790   26.9570   20.1290 O   0  0  0  0  0  0  0  0  0  0  0  0
   28.4060   27.0360   19.9670 H   0  0  0  0  0  0  0  0  0  0  0  0
   28.5320   29.1500   19.1050 N   0  0  0  0  0  0  0  0  0  0  0  0
   27.2710   29.7910   18.9440 C   0  0  0  0  0  0  0  0  0  0  0  0
   28.8160   28.5220   18.2960 H   0  0  0  0  0  0  0  0  0  0  0  0
   26.8350   30.5510   19.8280 O   0  0  0  0  0  0  0  0  0  0  0  0
   26.4980   29.5840   17.7980 O   0  0  0  0  0  0  0  0  0  0  0  0
   26.4710   30.6010   16.7830 C   0  0  0  0  0  0  0  0  0  0  0  0
   27.8700   31.0150   16.5040 C   0  0  0  0  0  0  0  0  0  0  0  0
   28.3930   32.2790   16.7220 C   0  0  0  0  0  0  0  0  0  0  0  0
   28.8650   30.2920   16.0110 N   0  0  0  0  0  0  0  0  0  0  0  0
   29.6780   32.2940   16.3610 N   0  0  0  0  0  0  0  0  0  0  0  0
   29.9240   31.0460   15.9280 N   0  0  0  0  0  0  0  0  0  0  0  0
   30.6280   33.3510   16.3970 C   0  0  0  0  0  0  0  0  0  0  0  0
   31.2660   33.6700   17.5750 C   0  0  0  0  0  0  0  0  0  0  0  0
   30.9420   34.0910   15.2680 C   0  0  0  0  0  0  0  0  0  0  0  0
   30.9500   32.8940   18.7940 C   0  0  0  0  0  0  0  0  0  0  0  0
   32.2020   34.7130   17.6060 C   0  0  0  0  0  0  0  0  0  0  0  0
   31.8660   35.1170   15.3100 C   0  0  0  0  0  0  0  0  0  0  0  0
   30.2330   33.7280   13.9900 C   0  0  0  0  0  0  0  0  0  0  0  0
   32.5130   35.4470   16.4820 C   0  0  0  0  0  0  0  0  0  0  0  0
   33.5140   36.5540   16.5420 C   0  0  0  0  0  0  0  0  0  0  0  0
   29.8670   25.5550   16.9770 C   0  0  0  0  0  0  0  0  0  0  0  0
   28.3450   25.7220   17.0260 C   0  0  0  0  0  0  0  0  0  0  0  0
   27.6010   24.4020   16.8890 C   0  0  0  0  0  0  0  0  0  0  0  0
   26.6220   24.1860   18.0100 C   0  0  0  0  0  0  0  0  0  0  0  0
   25.2520   23.8480   17.4300 C   0  0  0  0  0  0  0  0  0  0  0  0
   24.9750   22.3980   17.5630 N   0  0  0  0  0  0  0  0  0  0  0  0
  2  1  1  6  0  0  0
  2  3  1  0  0  0  0
  3 23  1  6  0  0  0
  4  3  1  6  0  0  0
  4  7  1  0  0  0  0
  4  9  1  0  0  0  0
  5 12  1  1  0  0  0
  5 10  1  0  0  0  0
  5  6  1  0  0  0  0
  7  5  1  0  0  0  0
  8  6  1  0  0  0  0
  8 16  1  1  0  0  0
  9 18  1  6  0  0  0
  9  8  1  0  0  0  0
 10 11  1  0  0  0  0
 12 14  1  0  0  0  0
 13 12  2  0  0  0  0
 14 15  1  0  0  0  0
 17 16  1  0  0  0  0
 18 19  1  0  0  0  0
 19 22  2  0  0  0  0
 20 18  1  0  0  0  0
 21 19  1  0  0  0  0
 23 24  1  0  0  0  0
 25  2  1  0  0  0  0
 26 25  1  0  0  0  0
 27  1  1  0  0  0  0
 28 27  1  0  0  0  0
 28 30  2  0  0  0  0
 29 27  1  0  0  0  0
 31 28  1  0  0  0  0
 32 31  1  0  0  0  0
 33 34  2  0  0  0  0
 33 32  1  0  0  0  0
 35 33  1  0  0  0  0
 36 38  1  0  0  0  0
 36 34  1  0  0  0  0
 37 35  2  0  0  0  0
 37 36  1  0  0  0  0
 38 39  2  0  0  0  0
 39 42  1  0  0  0  0
 39 41  1  0  0  0  0
 40 43  2  0  0  0  0
 40 38  1  0  0  0  0
 43 45  1  0  0  0  0
 44 40  1  0  0  0  0
 45 46  1  0  0  0  0
 45 42  2  0  0  0  0
 47 48  1  0  0  0  0
 49 48  1  0  0  0  0
 49 50  1  0  0  0  0
 51 52  1  0  0  0  0
 51 50  1  0  0  0  0
M  END
>  <REMARK>
 VINA RESULT:    -4.716      2.285      4.329
 INTER + INTRA:         -14.079
 INTER:                  -9.458
 INTRA:                  -4.621
 UNBOUND:                -5.917
 SMILES CC(=O)N[C@@H]1[C@@H](O)C[C@](O)(C(=O)O)O[C@H]1C(O)[C@H](O)CNC(=O)OCc1cn(-c2c(C)cc(C)cc2C)nn1
 SMILES IDX 20 1 18 2 16 3 15 4 9 5 8 6 14 7 6 8 5 9 10 10 11 12 12 13
 SMILES IDX 13 14 7 16 4 18 2 19 1 21 3 22 17 23 19 25 21 27 22 28 23 30
 SMILES IDX 24 31 25 32 26 33 27 34 39 35 28 36 38 37 29 38 30 39 36 40
 SMILES IDX 31 41 32 42 35 43 37 44 33 45 34 46
 H PARENT 10 11 13 15 7 17 4 20 17 24 19 26 21 29
 Flexibility Score: inf
  4 active torsions:
  status: ('A' for Active; 'I' for Inactive)
    1  A    between atoms: CA   and  CB  
    2  A    between atoms: CB   and  CG  
    3  A    between atoms: CG   and  CD  
    4  A    between atoms: CD   and  CE  

>  <TORSDO>
F 15

>  <BEGIN_>
RES LYS A 131

$$$$
ligand_7_pose_9_2HRL.pdbqt
 OpenBabel07062320523D

  6  5  0  0  0  0  0  0  0  0999 V2000
   33.1930   34.6630    9.2900 C   0  0  0  0  0  0  0  0  0  0  0  0
   32.0600   35.3600   10.0340 C   0  0  0  0  0  0  0  0  0  0  0  0
   30.7110   34.7260    9.8080 C   0  0  0  0  0  0  0  0  0  0  0  0
   30.4610   34.5130    8.3230 C   0  0  0  0  0  0  0  0  0  0  0  0
   29.0130   34.8060    7.9800 C   0  0  0  0  0  0  0  0  0  0  0  0
   28.9030   35.5180    6.6770 N   0  0  0  0  0  0  0  0  0  0  0  0
  1  2  1  0  0  0  0
  3  2  1  0  0  0  0
  4  3  1  0  0  0  0
  5  4  1  0  0  0  0
  6  5  1  0  0  0  0
M  END
>  <EGIN_R>
ES LYS A 135

>  <REMARK>
  4 active torsions:
  status: ('A' for Active; 'I' for Inactive)
    5  A    between atoms: CA   and  CB  
    6  A    between atoms: CB   and  CG  
    7  A    between atoms: CG   and  CD  
    8  A    between atoms: CD   and  CE  

$$$$
