ligand_6_pose_8_2HRL.pdbqt
 OpenBabel07062320523D

 52 53  0  0  1  0  0  0  0  0999 V2000
   29.6680   33.0600   17.3100 N   0  0  0  0  0  0  0  0  0  0  0  0
   29.8920   32.8380   15.9390 C   0  0  0  0  0  0  0  0  0  0  0  0
   30.9730   32.4280   15.4810 O   0  0  0  0  0  0  0  0  0  0  0  0
   28.6780   33.3890   17.5810 H   0  0  0  0  0  0  0  0  0  0  0  0
   30.6320   32.8870   18.3260 C   0  0  0  0  0  0  0  0  0  0  0  0
   30.5870   31.7030   19.2070 C   0  0  2  0  0  0  0  0  0  0  0  0
   29.4220   30.8300   19.3040 C   0  0  2  0  0  0  0  0  0  0  0  0
   29.5510   29.8050   20.4360 C   0  0  2  0  0  0  0  0  0  0  0  0
   31.0130   28.1220   21.1000 C   0  0  2  0  0  0  0  0  0  0  0  0
   29.9930   27.9490   22.2020 C   0  0  0  0  0  0  0  0  0  0  0  0
   30.8610   29.2840   20.3800 O   0  0  0  0  0  0  0  0  0  0  0  0
   28.5840   27.9790   21.6990 C   0  0  1  0  0  0  0  0  0  0  0  0
   28.6210   28.6530   20.3150 C   0  0  1  0  0  0  0  0  0  0  0  0
   30.9680   26.9830   20.3140 O   0  0  0  0  0  0  0  0  0  0  0  0
   30.3470   27.1300   19.5720 H   0  0  0  0  0  0  0  0  0  0  0  0
   32.3430   28.1820   21.7600 C   0  0  0  0  0  0  0  0  0  0  0  0
   32.9210   29.2840   21.9450 O   0  0  0  0  0  0  0  0  0  0  0  0
   32.9800   27.0300   22.1900 O   0  0  0  0  0  0  0  0  0  0  0  0
   33.7310   27.0500   22.8840 H   0  0  0  0  0  0  0  0  0  0  0  0
   27.9720   26.7480   21.6380 O   0  0  0  0  0  0  0  0  0  0  0  0
   28.1540   26.2700   22.4850 H   0  0  0  0  0  0  0  0  0  0  0  0
   27.2450   29.0000   20.0260 N   0  0  0  0  0  0  0  0  0  0  0  0
   26.5840   28.4580   18.8740 C   0  0  0  0  0  0  0  0  0  0  0  0
   26.6850   29.6380   20.6220 H   0  0  0  0  0  0  0  0  0  0  0  0
   25.1820   28.7680   18.5180 C   0  0  0  0  0  0  0  0  0  0  0  0
   27.2420   27.6870   18.1440 O   0  0  0  0  0  0  0  0  0  0  0  0
   29.1360   30.2190   18.1110 O   0  0  0  0  0  0  0  0  0  0  0  0
   29.4210   30.6920   17.2980 H   0  0  0  0  0  0  0  0  0  0  0  0
   31.0380   32.1680   20.4760 O   0  0  0  0  0  0  0  0  0  0  0  0
   31.3700   33.0990   20.3920 H   0  0  0  0  0  0  0  0  0  0  0  0
   28.8190   33.1020   15.0570 O   0  0  0  0  0  0  0  0  0  0  0  0
   27.5560   33.3070   15.6570 C   0  0  0  0  0  0  0  0  0  0  0  0
   26.6840   32.1020   15.4450 C   0  0  0  0  0  0  0  0  0  0  0  0
   25.5030   32.0360   14.7380 C   0  0  0  0  0  0  0  0  0  0  0  0
   26.8800   30.8420   15.9030 N   0  0  0  0  0  0  0  0  0  0  0  0
   25.0130   30.7730   14.7760 N   0  0  0  0  0  0  0  0  0  0  0  0
   25.8830   30.0940   15.4930 N   0  0  0  0  0  0  0  0  0  0  0  0
   23.8130   30.3010   14.1680 C   0  0  0  0  0  0  0  0  0  0  0  0
   23.8180   29.5960   12.9840 C   0  0  0  0  0  0  0  0  0  0  0  0
   22.5800   30.5340   14.7490 C   0  0  0  0  0  0  0  0  0  0  0  0
   22.6440   29.1470   12.4130 C   0  0  0  0  0  0  0  0  0  0  0  0
   21.4040   30.0860   14.1790 C   0  0  0  0  0  0  0  0  0  0  0  0
   21.4060   29.3800   12.9950 C   0  0  0  0  0  0  0  0  0  0  0  0
   20.1990   28.9230   12.4180 N   0  0  0  0  0  0  0  0  0  0  0  0
   19.5680   29.6910   11.6720 O   0  0  0  0  0  0  0  0  0  0  0  0
   19.6790   27.6780   12.6310 O   0  0  0  0  0  0  0  0  0  0  0  0
   29.8670   25.5550   16.9770 C   0  0  0  0  0  0  0  0  0  0  0  0
   28.3450   25.7220   17.0260 C   0  0  0  0  0  0  0  0  0  0  0  0
   27.6010   24.4020   16.8890 C   0  0  0  0  0  0  0  0  0  0  0  0
   26.5670   24.2210   17.9660 C   0  0  0  0  0  0  0  0  0  0  0  0
   25.2280   23.8620   17.3300 C   0  0  0  0  0  0  0  0  0  0  0  0
   24.8550   22.4660   17.6580 N   0  0  0  0  0  0  0  0  0  0  0  0
  1  4  1  0  0  0  0
  1  5  1  0  0  0  0
  2  1  1  0  0  0  0
  3  2  2  0  0  0  0
  6  5  1  6  0  0  0
  6  7  1  0  0  0  0
  6 29  1  0  0  0  0
  7 27  1  6  0  0  0
  8  7  1  6  0  0  0
  9 14  1  6  0  0  0
  9 16  1  0  0  0  0
  9 10  1  0  0  0  0
 11  8  1  0  0  0  0
 11  9  1  0  0  0  0
 12 20  1  6  0  0  0
 12 10  1  0  0  0  0
 13 22  1  1  0  0  0
 13  8  1  0  0  0  0
 13 12  1  0  0  0  0
 15 14  1  0  0  0  0
 16 17  2  0  0  0  0
 16 18  1  0  0  0  0
 18 19  1  0  0  0  0
 20 21  1  0  0  0  0
 22 24  1  0  0  0  0
 23 22  1  0  0  0  0
 25 23  1  0  0  0  0
 26 23  2  0  0  0  0
 28 27  1  0  0  0  0
 30 29  1  0  0  0  0
 31 32  1  0  0  0  0
 31  2  1  0  0  0  0
 33 32  1  0  0  0  0
 33 35  1  0  0  0  0
 34 36  1  0  0  0  0
 34 33  2  0  0  0  0
 36 37  1  0  0  0  0
 37 35  2  0  0  0  0
 38 40  2  0  0  0  0
 38 36  1  0  0  0  0
 39 38  1  0  0  0  0
 41 39  2  0  0  0  0
 41 43  1  0  0  0  0
 42 40  1  0  0  0  0
 43 42  2  0  0  0  0
 44 46  2  0  0  0  0
 44 43  1  0  0  0  0
 45 44  2  0  0  0  0
 47 48  1  0  0  0  0
 49 48  1  0  0  0  0
 49 50  1  0  0  0  0
 51 52  1  0  0  0  0
 51 50  1  0  0  0  0
M  END
>  <REMARK>
 VINA RESULT:    -5.473      4.022      6.909
 INTER + INTRA:         -14.542
 INTER:                  -8.799
 INTRA:                  -5.742
 UNBOUND:                -4.749
 SMILES CC(=O)N[C@@H]1[C@@H](O)C[C@](O)(C(=O)O)O[C@H]1C(O)[C@H](O)CNC(=O)OCc1cn(-c2ccc([N+](=O)[O-])cc2)nn1
 SMILES IDX 21 1 22 2 23 3 20 5 18 6 16 7 15 8 9 9 8 10 14 11 6 12 5 13
 SMILES IDX 10 14 11 16 12 17 13 18 7 20 4 22 2 23 1 25 3 26 17 27 19 29
 SMILES IDX 24 31 25 32 26 33 27 34 39 35 28 36 38 37 29 38 30 39 37 40
 SMILES IDX 31 41 36 42 32 43 33 44 34 45 35 46
 H PARENT 21 4 10 15 13 19 7 21 4 24 17 28 19 30
 Flexibility Score: inf
  4 active torsions:
  status: ('A' for Active; 'I' for Inactive)
    1  A    between atoms: CA   and  CB  
    2  A    between atoms: CB   and  CG  
    3  A    between atoms: CG   and  CD  
    4  A    between atoms: CD   and  CE  

>  <TORSDO>
F 16

>  <BEGIN_>
RES LYS A 131

$$$$
ligand_6_pose_8_2HRL.pdbqt
 OpenBabel07062320523D

  6  5  0  0  0  0  0  0  0  0999 V2000
   33.1930   34.6630    9.2900 C   0  0  0  0  0  0  0  0  0  0  0  0
   32.0600   35.3600   10.0340 C   0  0  0  0  0  0  0  0  0  0  0  0
   30.8110   35.5300    9.2080 C   0  0  0  0  0  0  0  0  0  0  0  0
   30.0630   34.2120    9.0890 C   0  0  0  0  0  0  0  0  0  0  0  0
   28.6370   34.4480    8.6280 C   0  0  0  0  0  0  0  0  0  0  0  0
   27.6680   33.6960    9.4730 N   0  0  0  0  0  0  0  0  0  0  0  0
  1  2  1  0  0  0  0
  3  2  1  0  0  0  0
  4  3  1  0  0  0  0
  5  4  1  0  0  0  0
  5  6  1  0  0  0  0
M  END
>  <EGIN_R>
ES LYS A 135

>  <REMARK>
  4 active torsions:
  status: ('A' for Active; 'I' for Inactive)
    5  A    between atoms: CA   and  CB  
    6  A    between atoms: CB   and  CG  
    7  A    between atoms: CG   and  CD  
    8  A    between atoms: CD   and  CE  

$$$$
