ligand_65_pose_6_2HRL.pdbqt
 OpenBabel07062320523D

 53 54  0  0  1  0  0  0  0  0999 V2000
   25.6330   42.3100    6.0060 N   0  0  0  0  0  0  0  0  0  0  0  0
   26.0140   42.2250    4.6520 C   0  0  0  0  0  0  0  0  0  0  0  0
   25.2440   41.8860    3.7260 O   0  0  0  0  0  0  0  0  0  0  0  0
   26.3140   42.6080    6.7670 H   0  0  0  0  0  0  0  0  0  0  0  0
   24.2760   41.9850    6.3900 C   0  0  0  0  0  0  0  0  0  0  0  0
   24.2440   40.5830    6.9130 C   0  0  2  0  0  0  0  0  0  0  0  0
   24.7530   40.5440    8.3390 C   0  0  2  0  0  0  0  0  0  0  0  0
   23.9580   39.4860    9.0890 C   0  0  2  0  0  0  0  0  0  0  0  0
   24.2360   37.3100    8.2280 C   0  0  2  0  0  0  0  0  0  0  0  0
   22.9140   37.3740    7.5310 C   0  0  0  0  0  0  0  0  0  0  0  0
   24.6040   38.3240    9.0060 O   0  0  0  0  0  0  0  0  0  0  0  0
   21.9550   38.1310    8.4410 C   0  0  1  0  0  0  0  0  0  0  0  0
   22.5640   39.5300    8.5230 C   0  0  1  0  0  0  0  0  0  0  0  0
   25.2070   37.1590    7.2100 O   0  0  0  0  0  0  0  0  0  0  0  0
   25.5210   36.2270    7.1480 H   0  0  0  0  0  0  0  0  0  0  0  0
   24.2590   36.0490    9.0120 C   0  0  0  0  0  0  0  0  0  0  0  0
   23.1880   35.4940    9.3670 O   0  0  0  0  0  0  0  0  0  0  0  0
   25.4430   35.4340    9.3850 O   0  0  0  0  0  0  0  0  0  0  0  0
   25.8780   35.5800   10.2980 H   0  0  0  0  0  0  0  0  0  0  0  0
   20.6970   38.2410    7.8820 O   0  0  0  0  0  0  0  0  0  0  0  0
   20.5440   37.4190    7.3340 H   0  0  0  0  0  0  0  0  0  0  0  0
   21.7170   40.4190    9.2890 N   0  0  0  0  0  0  0  0  0  0  0  0
   20.8670   41.3550    8.6470 C   0  0  0  0  0  0  0  0  0  0  0  0
   21.7750   40.3240   10.3290 H   0  0  0  0  0  0  0  0  0  0  0  0
   20.0260   42.2350    9.4880 C   0  0  0  0  0  0  0  0  0  0  0  0
   20.8070   41.4570    7.4020 O   0  0  0  0  0  0  0  0  0  0  0  0
   24.5020   41.8100    8.9340 O   0  0  0  0  0  0  0  0  0  0  0  0
   23.6760   42.1320    8.4730 H   0  0  0  0  0  0  0  0  0  0  0  0
   25.0210   39.7680    6.0770 O   0  0  0  0  0  0  0  0  0  0  0  0
   25.9390   39.7110    6.3950 H   0  0  0  0  0  0  0  0  0  0  0  0
   27.3400   42.5390    4.3090 O   0  0  0  0  0  0  0  0  0  0  0  0
   28.1470   41.4970    3.8020 C   0  0  0  0  0  0  0  0  0  0  0  0
   28.0970   40.3440    4.7600 C   0  0  0  0  0  0  0  0  0  0  0  0
   28.5670   40.3120    6.0590 C   0  0  0  0  0  0  0  0  0  0  0  0
   27.5890   39.1080    4.5530 N   0  0  0  0  0  0  0  0  0  0  0  0
   28.3400   39.0970    6.5970 N   0  0  0  0  0  0  0  0  0  0  0  0
   27.7470   38.3910    5.6610 N   0  0  0  0  0  0  0  0  0  0  0  0
   28.6800   38.6740    7.9220 C   0  0  0  0  0  0  0  0  0  0  0  0
   27.7580   38.1810    8.7690 N   0  0  0  0  0  0  0  0  0  0  0  0
   29.9480   38.7570    8.3700 N   0  0  0  0  0  0  0  0  0  0  0  0
   28.0350   37.7740   10.0180 C   0  0  0  0  0  0  0  0  0  0  0  0
   30.2930   38.3630    9.6220 C   0  0  0  0  0  0  0  0  0  0  0  0
   29.3320   37.8810   10.4170 N   0  0  0  0  0  0  0  0  0  0  0  0
   31.6890   38.4510   10.1270 C   0  0  0  0  0  0  0  0  0  0  0  0
   27.0710   37.2560   10.9070 N   0  0  0  0  0  0  0  0  0  0  0  0
   26.3730   36.5780   10.5720 H   0  0  0  0  0  0  0  0  0  0  0  0
   27.0670   37.5600   11.8900 H   0  0  0  0  0  0  0  0  0  0  0  0
   29.8670   25.5550   16.9770 C   0  0  0  0  0  0  0  0  0  0  0  0
   28.3450   25.7220   17.0260 C   0  0  0  0  0  0  0  0  0  0  0  0
   27.6020   24.3990   16.9250 C   0  0  0  0  0  0  0  0  0  0  0  0
   26.1540   24.5310   17.3090 C   0  0  0  0  0  0  0  0  0  0  0  0
   25.6910   23.2510   17.9960 C   0  0  0  0  0  0  0  0  0  0  0  0
   24.4920   22.7040   17.3200 N   0  0  0  0  0  0  0  0  0  0  0  0
  1  5  1  0  0  0  0
  1  4  1  0  0  0  0
  2  1  1  0  0  0  0
  3  2  2  0  0  0  0
  6  5  1  6  0  0  0
  6  7  1  0  0  0  0
  7 27  1  1  0  0  0
  8  7  1  6  0  0  0
  9 14  1  6  0  0  0
  9 11  1  0  0  0  0
  9 16  1  0  0  0  0
 10  9  1  0  0  0  0
 10 12  1  0  0  0  0
 11  8  1  0  0  0  0
 12 20  1  6  0  0  0
 12 13  1  0  0  0  0
 13  8  1  0  0  0  0
 13 22  1  1  0  0  0
 15 14  1  0  0  0  0
 16 17  2  0  0  0  0
 16 18  1  0  0  0  0
 18 19  1  0  0  0  0
 21 20  1  0  0  0  0
 22 24  1  0  0  0  0
 23 22  1  0  0  0  0
 23 25  1  0  0  0  0
 26 23  2  0  0  0  0
 28 27  1  0  0  0  0
 29 30  1  0  0  0  0
 29  6  1  0  0  0  0
 31  2  1  0  0  0  0
 32 31  1  0  0  0  0
 32 33  1  0  0  0  0
 33 34  2  0  0  0  0
 34 36  1  0  0  0  0
 35 33  1  0  0  0  0
 35 37  2  0  0  0  0
 36 38  1  0  0  0  0
 37 36  1  0  0  0  0
 38 40  1  0  0  0  0
 38 39  2  0  0  0  0
 39 41  2  0  0  0  0
 40 42  2  0  0  0  0
 41 43  1  0  0  0  0
 41 45  1  0  0  0  0
 42 44  1  0  0  0  0
 42 43  1  0  0  0  0
 45 47  1  0  0  0  0
 46 45  1  0  0  0  0
 48 49  1  0  0  0  0
 50 49  1  0  0  0  0
 50 51  1  0  0  0  0
 51 52  1  0  0  0  0
 53 52  1  0  0  0  0
M  END
>  <REMARK>
 VINA RESULT:    -5.185      8.553     14.790
 INTER + INTRA:         -14.260
 INTER:                  -7.355
 INTRA:                  -6.905
 UNBOUND:                -5.134
 SMILES CC(=O)N[C@@H]1[C@@H](O)C[C@](O)(C(=O)O)O[C@H]1C(O)[C@H](O)CNC(=O)OCc1cn(-c2nc(C)nc(N)n2)nn1
 SMILES IDX 21 1 22 2 23 3 20 5 18 6 16 7 15 8 9 9 8 10 14 11 6 12 5 13
 SMILES IDX 10 14 11 16 12 17 13 18 7 20 4 22 2 23 1 25 3 26 17 27 19 29
 SMILES IDX 24 31 25 32 26 33 27 34 38 35 28 36 37 37 29 38 36 39 30 40
 SMILES IDX 34 41 31 42 33 43 32 44 35 45
 H PARENT 21 4 10 15 13 19 7 21 4 24 17 28 19 30 35 46 35 47
 Flexibility Score: inf
  4 active torsions:
  status: ('A' for Active; 'I' for Inactive)
    1  A    between atoms: CA   and  CB  
    2  A    between atoms: CB   and  CG  
    3  A    between atoms: CG   and  CD  
    4  A    between atoms: CD   and  CE  

>  <TORSDO>
F 16

>  <BEGIN_>
RES LYS A 131

$$$$
ligand_65_pose_6_2HRL.pdbqt
 OpenBabel07062320523D

  6  5  0  0  0  0  0  0  0  0999 V2000
   33.1930   34.6630    9.2900 C   0  0  0  0  0  0  0  0  0  0  0  0
   32.0600   35.3600   10.0340 C   0  0  0  0  0  0  0  0  0  0  0  0
   30.7180   34.7030    9.8400 C   0  0  0  0  0  0  0  0  0  0  0  0
   30.2470   34.8570    8.4020 C   0  0  0  0  0  0  0  0  0  0  0  0
   28.7710   34.5300    8.2870 C   0  0  0  0  0  0  0  0  0  0  0  0
   28.2890   33.7940    9.4890 N   0  0  0  0  0  0  0  0  0  0  0  0
  1  2  1  0  0  0  0
  3  2  1  0  0  0  0
  4  3  1  0  0  0  0
  5  4  1  0  0  0  0
  5  6  1  0  0  0  0
M  END
>  <EGIN_R>
ES LYS A 135

>  <REMARK>
  4 active torsions:
  status: ('A' for Active; 'I' for Inactive)
    5  A    between atoms: CA   and  CB  
    6  A    between atoms: CB   and  CG  
    7  A    between atoms: CG   and  CD  
    8  A    between atoms: CD   and  CE  

$$$$
