ligand_91_pose_16_2HRL.pdbqt
 OpenBabel07062320523D

 57 60  0  0  1  0  0  0  0  0999 V2000
   28.8340   33.1560   20.8260 C   0  0  0  0  0  0  0  0  0  0  0  0
   28.8270   31.7010   21.2080 C   0  0  2  0  0  0  0  0  0  0  0  0
   30.0920   31.1030   20.6770 C   0  0  2  0  0  0  0  0  0  0  0  0
   30.5030   29.8110   21.3690 C   0  0  2  0  0  0  0  0  0  0  0  0
   30.1390   27.5810   21.1950 C   0  0  2  0  0  0  0  0  0  0  0  0
   29.7370   27.3650   22.6300 C   0  0  0  0  0  0  0  0  0  0  0  0
   29.8140   28.8150   20.7340 O   0  0  0  0  0  0  0  0  0  0  0  0
   29.4620   28.6480   23.3580 C   0  0  1  0  0  0  0  0  0  0  0  0
   30.2040   29.8270   22.8220 C   0  0  1  0  0  0  0  0  0  0  0  0
   29.3780   26.6740   20.3860 O   0  0  0  0  0  0  0  0  0  0  0  0
   28.7810   26.1410   20.9660 H   0  0  0  0  0  0  0  0  0  0  0  0
   31.5440   27.1560   20.9830 C   0  0  0  0  0  0  0  0  0  0  0  0
   32.2880   26.8090   21.9390 O   0  0  0  0  0  0  0  0  0  0  0  0
   32.1360   27.1130   19.7100 O   0  0  0  0  0  0  0  0  0  0  0  0
   32.9710   27.6520   19.5370 H   0  0  0  0  0  0  0  0  0  0  0  0
   28.0820   28.8760   23.3520 O   0  0  0  0  0  0  0  0  0  0  0  0
   27.8520   29.6800   22.8230 H   0  0  0  0  0  0  0  0  0  0  0  0
   31.3800   30.0640   23.6670 N   0  0  0  0  0  0  0  0  0  0  0  0
   31.7250   31.3540   24.1550 C   0  0  0  0  0  0  0  0  0  0  0  0
   32.0180   29.2870   23.9470 H   0  0  0  0  0  0  0  0  0  0  0  0
   32.9260   31.5750   25.0180 C   0  0  0  0  0  0  0  0  0  0  0  0
   31.0110   32.3480   23.8640 O   0  0  0  0  0  0  0  0  0  0  0  0
   31.1250   32.0150   20.8270 O   0  0  0  0  0  0  0  0  0  0  0  0
   31.0400   32.4210   21.7240 H   0  0  0  0  0  0  0  0  0  0  0  0
   27.6910   31.0870   20.7370 O   0  0  0  0  0  0  0  0  0  0  0  0
   26.9140   31.6920   20.9340 H   0  0  0  0  0  0  0  0  0  0  0  0
   28.3910   33.4680   19.5110 N   0  0  0  0  0  0  0  0  0  0  0  0
   29.2330   33.8540   18.4480 C   0  0  0  0  0  0  0  0  0  0  0  0
   27.3430   33.4240   19.2470 H   0  0  0  0  0  0  0  0  0  0  0  0
   30.4680   33.9630   18.5940 O   0  0  0  0  0  0  0  0  0  0  0  0
   28.7310   34.1340   17.1670 O   0  0  0  0  0  0  0  0  0  0  0  0
   29.2580   33.4650   16.0220 C   0  0  0  0  0  0  0  0  0  0  0  0
   28.6340   32.1220   15.9610 C   0  0  0  0  0  0  0  0  0  0  0  0
   27.3040   31.8220   16.1710 C   0  0  0  0  0  0  0  0  0  0  0  0
   29.2090   30.9240   15.6960 N   0  0  0  0  0  0  0  0  0  0  0  0
   27.1060   30.5010   16.0320 N   0  0  0  0  0  0  0  0  0  0  0  0
   28.2750   29.9720   15.7450 N   0  0  0  0  0  0  0  0  0  0  0  0
   25.8920   29.7930   16.1640 C   0  0  0  0  0  0  0  0  0  0  0  0
   25.6670   28.9760   17.2760 C   0  0  0  0  0  0  0  0  0  0  0  0
   24.8850   29.8800   15.2160 C   0  0  0  0  0  0  0  0  0  0  0  0
   26.6300   28.8480   18.2540 C   0  0  0  0  0  0  0  0  0  0  0  0
   24.5060   28.2870   17.4320 C   0  0  0  0  0  0  0  0  0  0  0  0
   23.7160   29.1730   15.3940 C   0  0  0  0  0  0  0  0  0  0  0  0
   25.1070   30.6800   14.1240 C   0  0  0  0  0  0  0  0  0  0  0  0
   26.4580   28.0550   19.3690 C   0  0  0  0  0  0  0  0  0  0  0  0
   24.3180   27.4840   18.5520 C   0  0  0  0  0  0  0  0  0  0  0  0
   23.5520   28.3980   16.4880 N   0  0  0  0  0  0  0  0  0  0  0  0
   22.7460   29.2880   14.4270 C   0  0  0  0  0  0  0  0  0  0  0  0
   24.1020   30.7760   13.1590 C   0  0  0  0  0  0  0  0  0  0  0  0
   25.2670   27.3420   19.5400 C   0  0  0  0  0  0  0  0  0  0  0  0
   22.9180   30.0860   13.2970 C   0  0  0  0  0  0  0  0  0  0  0  0
   29.8670   25.5550   16.9770 C   0  0  0  0  0  0  0  0  0  0  0  0
   28.3450   25.7220   17.0260 C   0  0  0  0  0  0  0  0  0  0  0  0
   27.6020   24.3970   16.9420 C   0  0  0  0  0  0  0  0  0  0  0  0
   26.1650   24.5260   17.3650 C   0  0  0  0  0  0  0  0  0  0  0  0
   25.7620   23.3010   18.1790 C   0  0  0  0  0  0  0  0  0  0  0  0
   25.5190   23.6750   19.5930 N   0  0  0  0  0  0  0  0  0  0  0  0
  2  1  1  6  0  0  0
  3 23  1  1  0  0  0
  3  2  1  0  0  0  0
  4  3  1  6  0  0  0
  4  9  1  0  0  0  0
  5 10  1  6  0  0  0
  5  6  1  0  0  0  0
  6  8  1  0  0  0  0
  7  5  1  0  0  0  0
  7  4  1  0  0  0  0
  8 16  1  6  0  0  0
  9  8  1  0  0  0  0
  9 18  1  1  0  0  0
 10 11  1  0  0  0  0
 12  5  1  0  0  0  0
 12 13  2  0  0  0  0
 14 12  1  0  0  0  0
 15 14  1  0  0  0  0
 17 16  1  0  0  0  0
 18 20  1  0  0  0  0
 18 19  1  0  0  0  0
 19 21  1  0  0  0  0
 22 19  2  0  0  0  0
 23 24  1  0  0  0  0
 25 26  1  0  0  0  0
 25  2  1  0  0  0  0
 27  1  1  0  0  0  0
 28 30  2  0  0  0  0
 28 27  1  0  0  0  0
 29 27  1  0  0  0  0
 31 28  1  0  0  0  0
 32 31  1  0  0  0  0
 33 32  1  0  0  0  0
 33 34  2  0  0  0  0
 35 37  2  0  0  0  0
 35 33  1  0  0  0  0
 36 38  1  0  0  0  0
 36 34  1  0  0  0  0
 37 36  1  0  0  0  0
 38 39  2  0  0  0  0
 39 42  1  0  0  0  0
 39 41  1  0  0  0  0
 40 43  1  0  0  0  0
 40 38  1  0  0  0  0
 41 45  2  0  0  0  0
 42 46  1  0  0  0  0
 43 47  1  0  0  0  0
 44 40  2  0  0  0  0
 45 50  1  0  0  0  0
 46 50  2  0  0  0  0
 47 42  2  0  0  0  0
 48 43  2  0  0  0  0
 49 51  2  0  0  0  0
 49 44  1  0  0  0  0
 51 48  1  0  0  0  0
 52 53  1  0  0  0  0
 54 53  1  0  0  0  0
 54 55  1  0  0  0  0
 55 56  1  0  0  0  0
 56 57  1  0  0  0  0
M  END
>  <REMARK>
 VINA RESULT:    -5.126      7.071     12.539
 INTER + INTRA:         -14.955
 INTER:                  -8.871
 INTRA:                  -6.084
 UNBOUND:                -6.084
 SMILES CC(=O)N[C@@H]1[C@@H](O)C[C@](O)(C(=O)O)O[C@H]1C(O)[C@H](O)CNC(=O)OCc1cn(-c2c3ccccc3nc3ccccc23)nn1
 SMILES IDX 20 1 18 2 16 3 15 4 9 5 8 6 14 7 6 8 5 9 10 10 11 12 12 13
 SMILES IDX 13 14 7 16 4 18 2 19 1 21 3 22 17 23 19 25 21 27 22 28 23 30
 SMILES IDX 24 31 25 32 26 33 27 34 44 35 28 36 43 37 29 38 30 39 42 40
 SMILES IDX 31 41 35 42 37 43 41 44 32 45 34 46 36 47 38 48 40 49 33 50
 SMILES IDX 39 51
 H PARENT 10 11 13 15 7 17 4 20 17 24 19 26 21 29
 Flexibility Score: inf
  4 active torsions:
  status: ('A' for Active; 'I' for Inactive)
    1  A    between atoms: CA   and  CB  
    2  A    between atoms: CB   and  CG  
    3  A    between atoms: CG   and  CD  
    4  A    between atoms: CD   and  CE  

>  <TORSDO>
F 15

>  <BEGIN_>
RES LYS A 131

$$$$
ligand_91_pose_16_2HRL.pdbqt
 OpenBabel07062320523D

  6  5  0  0  0  0  0  0  0  0999 V2000
   33.1930   34.6630    9.2900 C   0  0  0  0  0  0  0  0  0  0  0  0
   32.0600   35.3600   10.0340 C   0  0  0  0  0  0  0  0  0  0  0  0
   30.7980   35.4940    9.2210 C   0  0  0  0  0  0  0  0  0  0  0  0
   30.1940   34.1270    8.9380 C   0  0  0  0  0  0  0  0  0  0  0  0
   28.6930   34.2370    8.7500 C   0  0  0  0  0  0  0  0  0  0  0  0
   27.9800   34.1230   10.0520 N   0  0  0  0  0  0  0  0  0  0  0  0
  1  2  1  0  0  0  0
  3  2  1  0  0  0  0
  4  3  1  0  0  0  0
  5  4  1  0  0  0  0
  5  6  1  0  0  0  0
M  END
>  <EGIN_R>
ES LYS A 135

>  <REMARK>
  4 active torsions:
  status: ('A' for Active; 'I' for Inactive)
    5  A    between atoms: CA   and  CB  
    6  A    between atoms: CB   and  CG  
    7  A    between atoms: CG   and  CD  
    8  A    between atoms: CD   and  CE  

$$$$
