ligand_86_pose_14_2HRL.pdbqt
 OpenBabel07062320523D

 52 54  0  0  1  0  0  0  0  0999 V2000
   25.4930   34.6460   15.4330 C   0  0  0  0  0  0  0  0  0  0  0  0
   26.7770   33.9990   15.8230 C   0  0  2  0  0  0  0  0  0  0  0  0
   27.9880   34.6280   15.2070 C   0  0  2  0  0  0  0  0  0  0  0  0
   29.2080   33.7400   15.2760 C   0  0  2  0  0  0  0  0  0  0  0  0
   30.6320   32.7290   16.7910 C   0  0  2  0  0  0  0  0  0  0  0  0
   31.3290   32.3870   15.5020 C   0  0  0  0  0  0  0  0  0  0  0  0
   29.4210   33.3760   16.5980 O   0  0  0  0  0  0  0  0  0  0  0  0
   31.5300   33.5650   14.5980 C   0  0  1  0  0  0  0  0  0  0  0  0
   30.4140   34.5450   14.8360 C   0  0  1  0  0  0  0  0  0  0  0  0
   31.4450   33.4500   17.6640 O   0  0  0  0  0  0  0  0  0  0  0  0
   32.0180   32.8410   18.1850 H   0  0  0  0  0  0  0  0  0  0  0  0
   30.3200   31.4340   17.4740 C   0  0  0  0  0  0  0  0  0  0  0  0
   30.5300   31.2910   18.7250 O   0  0  0  0  0  0  0  0  0  0  0  0
   29.7990   30.3450   16.8140 O   0  0  0  0  0  0  0  0  0  0  0  0
   28.9220   30.4750   16.2950 H   0  0  0  0  0  0  0  0  0  0  0  0
   32.7860   34.1190   14.6750 O   0  0  0  0  0  0  0  0  0  0  0  0
   32.7330   34.9120   15.2700 H   0  0  0  0  0  0  0  0  0  0  0  0
   30.1320   35.3780   13.6940 N   0  0  0  0  0  0  0  0  0  0  0  0
   30.7730   36.6360   13.4870 C   0  0  0  0  0  0  0  0  0  0  0  0
   29.4390   35.0790   12.9710 H   0  0  0  0  0  0  0  0  0  0  0  0
   30.4400   37.4420   12.2950 C   0  0  0  0  0  0  0  0  0  0  0  0
   31.6080   37.0120   14.3420 O   0  0  0  0  0  0  0  0  0  0  0  0
   28.2810   35.8110   15.8860 O   0  0  0  0  0  0  0  0  0  0  0  0
   28.0830   36.6010   15.3530 H   0  0  0  0  0  0  0  0  0  0  0  0
   26.7790   32.6280   15.4800 O   0  0  0  0  0  0  0  0  0  0  0  0
   25.8860   32.4650   15.0620 H   0  0  0  0  0  0  0  0  0  0  0  0
   25.5390   35.2020   14.1020 N   0  0  0  0  0  0  0  0  0  0  0  0
   25.1810   34.3970   12.9890 C   0  0  0  0  0  0  0  0  0  0  0  0
   25.8280   36.1910   13.9070 H   0  0  0  0  0  0  0  0  0  0  0  0
   24.8170   33.1940   13.0960 O   0  0  0  0  0  0  0  0  0  0  0  0
   25.2060   34.8840   11.6820 O   0  0  0  0  0  0  0  0  0  0  0  0
   24.1850   35.7090   11.1560 C   0  0  0  0  0  0  0  0  0  0  0  0
   24.6740   36.4060    9.9350 C   0  0  0  0  0  0  0  0  0  0  0  0
   25.7570   37.2590    9.8890 C   0  0  0  0  0  0  0  0  0  0  0  0
   24.2010   36.3660    8.6780 N   0  0  0  0  0  0  0  0  0  0  0  0
   25.9150   37.7120    8.6140 N   0  0  0  0  0  0  0  0  0  0  0  0
   24.9450   37.1390    7.9230 N   0  0  0  0  0  0  0  0  0  0  0  0
   26.9380   38.6320    8.1260 C   0  0  2  0  0  0  0  0  0  0  0  0
   26.6150   38.9770    6.7200 C   0  0  0  0  0  0  0  0  0  0  0  0
   28.2640   37.9920    8.3410 C   0  0  0  0  0  0  0  0  0  0  0  0
   27.7820   39.2290    5.8350 C   0  0  1  0  0  0  0  0  0  0  0  0
   29.1980   38.0960    7.1630 C   0  0  2  0  0  0  0  0  0  0  0  0
   29.0070   39.4130    6.5800 N   0  0  0  0  0  0  0  0  0  0  0  0
   28.0710   37.9520    5.0610 C   0  0  0  0  0  0  0  0  0  0  0  0
   28.7490   37.1050    6.1200 C   0  0  0  0  0  0  0  0  0  0  0  0
   30.0810   39.7740    5.6900 C   0  0  0  0  0  0  0  0  0  0  0  0
   29.8670   25.5550   16.9770 C   0  0  0  0  0  0  0  0  0  0  0  0
   28.3450   25.7220   17.0260 C   0  0  0  0  0  0  0  0  0  0  0  0
   27.6000   24.4110   16.8290 C   0  0  0  0  0  0  0  0  0  0  0  0
   26.5690   24.1790   17.8990 C   0  0  0  0  0  0  0  0  0  0  0  0
   25.1890   24.0650   17.2600 C   0  0  0  0  0  0  0  0  0  0  0  0
   24.1600   24.6740   18.1350 N   0  0  0  0  0  0  0  0  0  0  0  0
  2  1  1  6  0  0  0
  3  2  1  0  0  0  0
  3 23  1  1  0  0  0
  4  3  1  1  0  0  0
  4  7  1  0  0  0  0
  5 12  1  1  0  0  0
  5 10  1  0  0  0  0
  6  5  1  0  0  0  0
  7  5  1  0  0  0  0
  8 16  1  1  0  0  0
  8  9  1  0  0  0  0
  8  6  1  0  0  0  0
  9 18  1  6  0  0  0
  9  4  1  0  0  0  0
 10 11  1  0  0  0  0
 12 13  2  0  0  0  0
 14 12  1  0  0  0  0
 15 14  1  0  0  0  0
 16 17  1  0  0  0  0
 19 18  1  0  0  0  0
 19 22  2  0  0  0  0
 20 18  1  0  0  0  0
 21 19  1  0  0  0  0
 24 23  1  0  0  0  0
 25  2  1  0  0  0  0
 26 25  1  0  0  0  0
 27  1  1  0  0  0  0
 28 30  2  0  0  0  0
 28 27  1  0  0  0  0
 29 27  1  0  0  0  0
 31 28  1  0  0  0  0
 32 31  1  0  0  0  0
 33 32  1  0  0  0  0
 34 33  2  0  0  0  0
 35 33  1  0  0  0  0
 36 34  1  0  0  0  0
 37 36  1  0  0  0  0
 37 35  2  0  0  0  0
 38 39  1  6  0  0  0
 38 40  1  0  0  0  0
 38 36  1  0  0  0  0
 41 44  1  6  0  0  0
 41 43  1  0  0  0  0
 41 39  1  0  0  0  0
 42 45  1  6  0  0  0
 42 40  1  0  0  0  0
 43 42  1  0  0  0  0
 44 45  1  0  0  0  0
 46 43  1  0  0  0  0
 47 48  1  0  0  0  0
 49 48  1  0  0  0  0
 49 50  1  0  0  0  0
 51 50  1  0  0  0  0
 51 52  1  0  0  0  0
M  END
>  <REMARK>
 VINA RESULT:    -4.227      3.763      7.780
 INTER + INTRA:         -13.870
 INTER:                  -8.586
 INTRA:                  -5.284
 UNBOUND:                -6.555
 SMILES CC(=O)N[C@@H]1[C@@H](O)C[C@](O)(C(=O)O)O[C@H]1C(O)[C@H](O)CNC(=O)OCc1cn([C@H]2C[C@H]3CC[C@@H](C2)N3C)nn1
 SMILES IDX 20 1 18 2 16 3 15 4 9 5 8 6 14 7 6 8 5 9 10 10 11 12 12 13
 SMILES IDX 13 14 7 16 4 18 2 19 1 21 3 22 17 23 19 25 21 27 22 28 23 30
 SMILES IDX 24 31 25 32 26 33 27 34 39 35 28 36 38 37 29 38 35 39 30 40
 SMILES IDX 34 41 31 42 36 43 33 44 32 45 37 46
 H PARENT 10 11 13 15 7 17 4 20 17 24 19 26 21 29
 Flexibility Score: inf
  4 active torsions:
  status: ('A' for Active; 'I' for Inactive)
    1  A    between atoms: CA   and  CB  
    2  A    between atoms: CB   and  CG  
    3  A    between atoms: CG   and  CD  
    4  A    between atoms: CD   and  CE  

>  <TORSDO>
F 15

>  <BEGIN_>
RES LYS A 131

$$$$
ligand_86_pose_14_2HRL.pdbqt
 OpenBabel07062320523D

  6  5  0  0  0  0  0  0  0  0999 V2000
   33.1930   34.6630    9.2900 C   0  0  0  0  0  0  0  0  0  0  0  0
   32.0600   35.3600   10.0340 C   0  0  0  0  0  0  0  0  0  0  0  0
   30.7950   35.4850    9.2250 C   0  0  0  0  0  0  0  0  0  0  0  0
   30.1640   34.1200    9.0010 C   0  0  0  0  0  0  0  0  0  0  0  0
   28.7530   34.0880    9.5570 C   0  0  0  0  0  0  0  0  0  0  0  0
   27.7600   34.4880    8.5210 N   0  0  0  0  0  0  0  0  0  0  0  0
  1  2  1  0  0  0  0
  3  2  1  0  0  0  0
  4  3  1  0  0  0  0
  4  5  1  0  0  0  0
  6  5  1  0  0  0  0
M  END
>  <EGIN_R>
ES LYS A 135

>  <REMARK>
  4 active torsions:
  status: ('A' for Active; 'I' for Inactive)
    5  A    between atoms: CA   and  CB  
    6  A    between atoms: CB   and  CG  
    7  A    between atoms: CG   and  CD  
    8  A    between atoms: CD   and  CE  

$$$$
