ligand_65_pose_14_2HRL.pdbqt
 OpenBabel07062320523D

 53 54  0  0  1  0  0  0  0  0999 V2000
   16.8370   32.9820    8.8740 N   0  0  0  0  0  0  0  0  0  0  0  0
   17.0030   31.5960    8.6850 C   0  0  0  0  0  0  0  0  0  0  0  0
   17.4480   31.0800    7.6360 O   0  0  0  0  0  0  0  0  0  0  0  0
   16.4600   33.3870    9.7830 H   0  0  0  0  0  0  0  0  0  0  0  0
   17.1830   33.8980    7.8080 C   0  0  0  0  0  0  0  0  0  0  0  0
   18.5890   34.3680    8.0120 C   0  0  2  0  0  0  0  0  0  0  0  0
   18.5950   35.7190    8.6980 C   0  0  2  0  0  0  0  0  0  0  0  0
   19.9460   36.3680    8.4370 C   0  0  2  0  0  0  0  0  0  0  0  0
   21.5840   35.8170   10.0390 C   0  0  2  0  0  0  0  0  0  0  0  0
   21.4200   37.1400   10.7190 C   0  0  0  0  0  0  0  0  0  0  0  0
   20.9040   35.5790    8.9220 O   0  0  0  0  0  0  0  0  0  0  0  0
   21.1850   38.1830    9.6340 C   0  0  1  0  0  0  0  0  0  0  0  0
   19.8590   37.7590    9.0050 C   0  0  1  0  0  0  0  0  0  0  0  0
   21.2200   34.8400   10.9960 O   0  0  0  0  0  0  0  0  0  0  0  0
   20.3010   34.9800   11.3220 H   0  0  0  0  0  0  0  0  0  0  0  0
   23.0350   35.6290    9.7870 C   0  0  0  0  0  0  0  0  0  0  0  0
   23.5490   35.9860    8.6960 O   0  0  0  0  0  0  0  0  0  0  0  0
   23.8780   35.0580   10.7260 O   0  0  0  0  0  0  0  0  0  0  0  0
   23.8070   34.0790   11.0100 H   0  0  0  0  0  0  0  0  0  0  0  0
   21.0250   39.4480   10.1660 O   0  0  0  0  0  0  0  0  0  0  0  0
   21.8790   39.9440   10.0100 H   0  0  0  0  0  0  0  0  0  0  0  0
   19.4360   38.7090    8.0000 N   0  0  0  0  0  0  0  0  0  0  0  0
   18.1740   39.3500    8.0820 C   0  0  0  0  0  0  0  0  0  0  0  0
   20.1130   38.8870    7.2230 H   0  0  0  0  0  0  0  0  0  0  0  0
   17.8020   40.3120    7.0210 C   0  0  0  0  0  0  0  0  0  0  0  0
   17.3740   39.1300    9.0180 O   0  0  0  0  0  0  0  0  0  0  0  0
   18.4520   35.5080   10.0950 O   0  0  0  0  0  0  0  0  0  0  0  0
   17.4640   35.4340   10.2260 H   0  0  0  0  0  0  0  0  0  0  0  0
   19.2340   34.4310    6.7680 O   0  0  0  0  0  0  0  0  0  0  0  0
   20.1950   34.3100    6.8620 H   0  0  0  0  0  0  0  0  0  0  0  0
   16.6510   30.7300    9.7340 O   0  0  0  0  0  0  0  0  0  0  0  0
   16.4440   31.3000   11.0080 C   0  0  0  0  0  0  0  0  0  0  0  0
   17.7440   31.8650   11.4970 C   0  0  0  0  0  0  0  0  0  0  0  0
   18.9340   31.1900   11.6900 C   0  0  0  0  0  0  0  0  0  0  0  0
   18.0190   33.1430   11.8480 N   0  0  0  0  0  0  0  0  0  0  0  0
   19.8770   32.0430   12.1380 N   0  0  0  0  0  0  0  0  0  0  0  0
   19.2920   33.2160   12.2240 N   0  0  0  0  0  0  0  0  0  0  0  0
   21.2360   31.7220   12.4530 C   0  0  0  0  0  0  0  0  0  0  0  0
   22.1260   32.6700   12.8000 N   0  0  0  0  0  0  0  0  0  0  0  0
   21.6730   30.4480   12.4120 N   0  0  0  0  0  0  0  0  0  0  0  0
   23.4090   32.4110   13.1020 C   0  0  0  0  0  0  0  0  0  0  0  0
   22.9570   30.1220   12.7060 C   0  0  0  0  0  0  0  0  0  0  0  0
   23.7950   31.1070   13.0440 N   0  0  0  0  0  0  0  0  0  0  0  0
   23.4510   28.7200   12.6630 C   0  0  0  0  0  0  0  0  0  0  0  0
   24.3440   33.4010   13.4660 N   0  0  0  0  0  0  0  0  0  0  0  0
   24.0880   34.1240   14.1520 H   0  0  0  0  0  0  0  0  0  0  0  0
   25.2820   33.3990   13.0430 H   0  0  0  0  0  0  0  0  0  0  0  0
   29.8670   25.5550   16.9770 C   0  0  0  0  0  0  0  0  0  0  0  0
   28.3450   25.7220   17.0260 C   0  0  0  0  0  0  0  0  0  0  0  0
   27.6010   24.4030   16.8850 C   0  0  0  0  0  0  0  0  0  0  0  0
   26.1480   24.5300   17.2510 C   0  0  0  0  0  0  0  0  0  0  0  0
   26.0030   24.5220   18.7690 C   0  0  0  0  0  0  0  0  0  0  0  0
   25.5390   23.1950   19.2390 N   0  0  0  0  0  0  0  0  0  0  0  0
  1  4  1  0  0  0  0
  2  1  1  0  0  0  0
  2 31  1  0  0  0  0
  3  2  2  0  0  0  0
  5  1  1  0  0  0  0
  6  5  1  6  0  0  0
  6  7  1  0  0  0  0
  7 27  1  1  0  0  0
  8  7  1  1  0  0  0
  8 11  1  0  0  0  0
  8 13  1  0  0  0  0
  9 16  1  6  0  0  0
  9 10  1  0  0  0  0
  9 14  1  0  0  0  0
 11  9  1  0  0  0  0
 12 20  1  1  0  0  0
 12 10  1  0  0  0  0
 13 22  1  6  0  0  0
 13 12  1  0  0  0  0
 14 15  1  0  0  0  0
 16 18  1  0  0  0  0
 17 16  2  0  0  0  0
 18 19  1  0  0  0  0
 21 20  1  0  0  0  0
 22 23  1  0  0  0  0
 23 26  2  0  0  0  0
 24 22  1  0  0  0  0
 25 23  1  0  0  0  0
 27 28  1  0  0  0  0
 29 30  1  0  0  0  0
 29  6  1  0  0  0  0
 31 32  1  0  0  0  0
 32 33  1  0  0  0  0
 33 34  2  0  0  0  0
 33 35  1  0  0  0  0
 34 36  1  0  0  0  0
 35 37  2  0  0  0  0
 36 37  1  0  0  0  0
 36 38  1  0  0  0  0
 38 39  2  0  0  0  0
 39 41  2  0  0  0  0
 40 38  1  0  0  0  0
 40 42  2  0  0  0  0
 41 45  1  0  0  0  0
 42 43  1  0  0  0  0
 43 41  1  0  0  0  0
 44 42  1  0  0  0  0
 45 46  1  0  0  0  0
 47 45  1  0  0  0  0
 48 49  1  0  0  0  0
 50 49  1  0  0  0  0
 50 51  1  0  0  0  0
 51 52  1  0  0  0  0
 52 53  1  0  0  0  0
M  END
>  <REMARK>
 VINA RESULT:    -5.024      9.273     14.116
 INTER + INTRA:         -13.977
 INTER:                  -7.442
 INTRA:                  -6.534
 UNBOUND:                -5.134
 SMILES CC(=O)N[C@@H]1[C@@H](O)C[C@](O)(C(=O)O)O[C@H]1C(O)[C@H](O)CNC(=O)OCc1cn(-c2nc(C)nc(N)n2)nn1
 SMILES IDX 21 1 22 2 23 3 20 5 18 6 16 7 15 8 9 9 8 10 14 11 6 12 5 13
 SMILES IDX 10 14 11 16 12 17 13 18 7 20 4 22 2 23 1 25 3 26 17 27 19 29
 SMILES IDX 24 31 25 32 26 33 27 34 38 35 28 36 37 37 29 38 36 39 30 40
 SMILES IDX 34 41 31 42 33 43 32 44 35 45
 H PARENT 21 4 10 15 13 19 7 21 4 24 17 28 19 30 35 46 35 47
 Flexibility Score: inf
  4 active torsions:
  status: ('A' for Active; 'I' for Inactive)
    1  A    between atoms: CA   and  CB  
    2  A    between atoms: CB   and  CG  
    3  A    between atoms: CG   and  CD  
    4  A    between atoms: CD   and  CE  

>  <TORSDO>
F 16

>  <BEGIN_>
RES LYS A 131

$$$$
ligand_65_pose_14_2HRL.pdbqt
 OpenBabel07062320523D

  6  5  0  0  0  0  0  0  0  0999 V2000
   33.1930   34.6630    9.2900 C   0  0  0  0  0  0  0  0  0  0  0  0
   32.0600   35.3600   10.0340 C   0  0  0  0  0  0  0  0  0  0  0  0
   30.7020   34.7680    9.7560 C   0  0  0  0  0  0  0  0  0  0  0  0
   30.5310   34.4930    8.2700 C   0  0  0  0  0  0  0  0  0  0  0  0
   29.3140   35.2200    7.7310 C   0  0  0  0  0  0  0  0  0  0  0  0
   28.0580   34.6590    8.3020 N   0  0  0  0  0  0  0  0  0  0  0  0
  1  2  1  0  0  0  0
  3  2  1  0  0  0  0
  4  3  1  0  0  0  0
  5  4  1  0  0  0  0
  5  6  1  0  0  0  0
M  END
>  <EGIN_R>
ES LYS A 135

>  <REMARK>
  4 active torsions:
  status: ('A' for Active; 'I' for Inactive)
    5  A    between atoms: CA   and  CB  
    6  A    between atoms: CB   and  CG  
    7  A    between atoms: CG   and  CD  
    8  A    between atoms: CD   and  CE  

$$$$
