ligand_40_pose_2_2HRL.pdbqt
 OpenBabel07062320523D

 50 51  0  0  1  0  0  0  0  0999 V2000
   30.4010   27.0380   21.3820 C   0  0  0  0  0  0  0  0  0  0  0  0
   31.7520   27.5160   21.0420 C   0  0  2  0  0  0  0  0  0  0  0  0
   32.1490   28.9140   21.3910 C   0  0  2  0  0  0  0  0  0  0  0  0
   32.1100   29.2850   22.8400 C   0  0  2  0  0  0  0  0  0  0  0  0
   33.7100   30.9950   22.9310 C   0  0  2  0  0  0  0  0  0  0  0  0
   34.5500   30.2760   23.9710 C   0  0  0  0  0  0  0  0  0  0  0  0
   32.3940   30.6550   22.9480 O   0  0  0  0  0  0  0  0  0  0  0  0
   34.2830   28.7820   23.8740 C   0  0  1  0  0  0  0  0  0  0  0  0
   32.8220   28.4710   23.8410 C   0  0  1  0  0  0  0  0  0  0  0  0
   34.3440   30.8300   21.7230 O   0  0  0  0  0  0  0  0  0  0  0  0
   33.7440   30.5870   20.9720 H   0  0  0  0  0  0  0  0  0  0  0  0
   33.7880   32.4430   23.3000 C   0  0  0  0  0  0  0  0  0  0  0  0
   32.7500   33.1390   23.5080 O   0  0  0  0  0  0  0  0  0  0  0  0
   35.0170   33.0590   23.4220 O   0  0  0  0  0  0  0  0  0  0  0  0
   35.2910   33.4490   24.3270 H   0  0  0  0  0  0  0  0  0  0  0  0
   34.8230   28.4160   22.6400 O   0  0  0  0  0  0  0  0  0  0  0  0
   34.4040   27.5890   22.2870 H   0  0  0  0  0  0  0  0  0  0  0  0
   32.1490   28.6870   25.1080 N   0  0  0  0  0  0  0  0  0  0  0  0
   31.8720   27.6580   26.0230 C   0  0  0  0  0  0  0  0  0  0  0  0
   31.8780   29.6720   25.3070 H   0  0  0  0  0  0  0  0  0  0  0  0
   31.1910   27.8460   27.3180 C   0  0  0  0  0  0  0  0  0  0  0  0
   32.2380   26.5150   25.6890 O   0  0  0  0  0  0  0  0  0  0  0  0
   31.0240   29.7230   20.8940 O   0  0  0  0  0  0  0  0  0  0  0  0
   30.5080   29.1320   20.2840 H   0  0  0  0  0  0  0  0  0  0  0  0
   32.1470   27.1220   19.7730 O   0  0  0  0  0  0  0  0  0  0  0  0
   32.2200   26.1210   19.7020 H   0  0  0  0  0  0  0  0  0  0  0  0
   29.4720   26.9580   20.2520 N   0  0  0  0  0  0  0  0  0  0  0  0
   28.3500   27.8110   20.1470 C   0  0  0  0  0  0  0  0  0  0  0  0
   29.5940   26.2560   19.4760 H   0  0  0  0  0  0  0  0  0  0  0  0
   28.1340   28.6520   21.0260 O   0  0  0  0  0  0  0  0  0  0  0  0
   27.4530   27.7520   19.0800 O   0  0  0  0  0  0  0  0  0  0  0  0
   26.8870   28.9440   18.5880 C   0  0  0  0  0  0  0  0  0  0  0  0
   27.7350   29.6220   17.6030 C   0  0  0  0  0  0  0  0  0  0  0  0
   28.5810   30.6680   17.9110 C   0  0  0  0  0  0  0  0  0  0  0  0
   27.8970   29.4260   16.2790 N   0  0  0  0  0  0  0  0  0  0  0  0
   29.2250   31.0790   16.7990 N   0  0  0  0  0  0  0  0  0  0  0  0
   28.7850   30.3040   15.8300 N   0  0  0  0  0  0  0  0  0  0  0  0
   30.1840   32.1230   16.6480 C   0  0  0  0  0  0  0  0  0  0  0  0
   30.3960   33.0460   17.6520 C   0  0  0  0  0  0  0  0  0  0  0  0
   30.9400   32.2640   15.5020 C   0  0  0  0  0  0  0  0  0  0  0  0
   31.3220   34.0620   17.5200 C   0  0  0  0  0  0  0  0  0  0  0  0
   31.8650   33.2770   15.3630 C   0  0  0  0  0  0  0  0  0  0  0  0
   32.0730   34.1940   16.3710 C   0  0  0  0  0  0  0  0  0  0  0  0
   33.0790   35.2720   16.1810 C   0  0  0  0  0  0  0  0  0  0  0  0
   29.8670   25.5550   16.9770 C   0  0  0  0  0  0  0  0  0  0  0  0
   28.3450   25.7220   17.0260 C   0  0  0  0  0  0  0  0  0  0  0  0
   27.6010   24.4020   16.8950 C   0  0  0  0  0  0  0  0  0  0  0  0
   26.7580   24.1040   18.1040 C   0  0  0  0  0  0  0  0  0  0  0  0
   25.4460   24.8770   18.0120 C   0  0  0  0  0  0  0  0  0  0  0  0
   24.6400   24.3950   16.8650 N   0  0  0  0  0  0  0  0  0  0  0  0
  2  1  1  6  0  0  0
  2  3  1  0  0  0  0
  3 23  1  6  0  0  0
  4  3  1  6  0  0  0
  4  7  1  0  0  0  0
  4  9  1  0  0  0  0
  5 10  1  6  0  0  0
  5  7  1  0  0  0  0
  5 12  1  0  0  0  0
  5  6  1  0  0  0  0
  8 16  1  6  0  0  0
  8  6  1  0  0  0  0
  9  8  1  0  0  0  0
  9 18  1  1  0  0  0
 11 10  1  0  0  0  0
 12 14  1  0  0  0  0
 12 13  2  0  0  0  0
 14 15  1  0  0  0  0
 17 16  1  0  0  0  0
 18 20  1  0  0  0  0
 18 19  1  0  0  0  0
 19 21  1  0  0  0  0
 22 19  2  0  0  0  0
 24 23  1  0  0  0  0
 25  2  1  0  0  0  0
 26 25  1  0  0  0  0
 27  1  1  0  0  0  0
 28 27  1  0  0  0  0
 28 30  2  0  0  0  0
 29 27  1  0  0  0  0
 31 28  1  0  0  0  0
 32 31  1  0  0  0  0
 33 34  2  0  0  0  0
 33 32  1  0  0  0  0
 35 33  1  0  0  0  0
 36 34  1  0  0  0  0
 37 35  2  0  0  0  0
 37 36  1  0  0  0  0
 38 36  1  0  0  0  0
 38 39  2  0  0  0  0
 40 38  1  0  0  0  0
 41 39  1  0  0  0  0
 42 40  2  0  0  0  0
 42 43  1  0  0  0  0
 43 41  2  0  0  0  0
 44 43  1  0  0  0  0
 45 46  1  0  0  0  0
 47 46  1  0  0  0  0
 47 48  1  0  0  0  0
 49 48  1  0  0  0  0
 50 49  1  0  0  0  0
M  END
>  <REMARK>
 VINA RESULT:    -5.518      4.696      8.036
 INTER + INTRA:         -14.562
 INTER:                  -9.447
 INTRA:                  -5.115
 UNBOUND:                -5.012
 SMILES CC(=O)N[C@@H]1[C@@H](O)C[C@](O)(C(=O)O)O[C@H]1C(O)[C@H](O)CNC(=O)OCc1cn(-c2ccc(C)cc2)nn1
 SMILES IDX 20 1 18 2 16 3 15 4 9 5 8 6 14 7 6 8 5 9 10 10 11 12 12 13
 SMILES IDX 13 14 7 16 4 18 2 19 1 21 3 22 17 23 19 25 21 27 22 28 23 30
 SMILES IDX 24 31 25 32 26 33 27 34 37 35 28 36 36 37 29 38 30 39 35 40
 SMILES IDX 31 41 34 42 32 43 33 44
 H PARENT 10 11 13 15 7 17 4 20 17 24 19 26 21 29
 Flexibility Score: inf
  4 active torsions:
  status: ('A' for Active; 'I' for Inactive)
    1  A    between atoms: CA   and  CB  
    2  A    between atoms: CB   and  CG  
    3  A    between atoms: CG   and  CD  
    4  A    between atoms: CD   and  CE  

>  <TORSDO>
F 15

>  <BEGIN_>
RES LYS A 131

$$$$
ligand_40_pose_2_2HRL.pdbqt
 OpenBabel07062320523D

  6  5  0  0  0  0  0  0  0  0999 V2000
   33.1930   34.6630    9.2900 C   0  0  0  0  0  0  0  0  0  0  0  0
   32.0600   35.3600   10.0340 C   0  0  0  0  0  0  0  0  0  0  0  0
   30.7950   35.4840    9.2250 C   0  0  0  0  0  0  0  0  0  0  0  0
   30.2500   34.1100    8.8660 C   0  0  0  0  0  0  0  0  0  0  0  0
   28.7750   34.0170    9.2050 C   0  0  0  0  0  0  0  0  0  0  0  0
   27.9440   34.7070    8.1800 N   0  0  0  0  0  0  0  0  0  0  0  0
  1  2  1  0  0  0  0
  3  2  1  0  0  0  0
  4  5  1  0  0  0  0
  4  3  1  0  0  0  0
  6  5  1  0  0  0  0
M  END
>  <EGIN_R>
ES LYS A 135

>  <REMARK>
  4 active torsions:
  status: ('A' for Active; 'I' for Inactive)
    5  A    between atoms: CA   and  CB  
    6  A    between atoms: CB   and  CG  
    7  A    between atoms: CG   and  CD  
    8  A    between atoms: CD   and  CE  

$$$$
