ligand_32_pose_8_2HRL.pdbqt
 OpenBabel07062320523D

 49 49  0  0  1  0  0  0  0  0999 V2000
   31.4470   34.0900   17.9800 N   0  0  0  0  0  0  0  0  0  0  0  0
   32.0870   34.5170   19.1710 C   0  0  0  0  0  0  0  0  0  0  0  0
   31.9450   33.8820   20.2580 O   0  0  0  0  0  0  0  0  0  0  0  0
   31.5890   34.6370   17.1090 H   0  0  0  0  0  0  0  0  0  0  0  0
   30.6030   32.9200   17.9490 C   0  0  0  0  0  0  0  0  0  0  0  0
   30.7860   32.0720   16.7200 C   0  0  2  0  0  0  0  0  0  0  0  0
   29.7470   32.4200   15.6550 C   0  0  1  0  0  0  0  0  0  0  0  0
   30.3850   33.2710   14.5710 C   0  0  2  0  0  0  0  0  0  0  0  0
   32.0460   34.9110   14.5140 C   0  0  2  0  0  0  0  0  0  0  0  0
   31.5290   35.3860   13.1850 C   0  0  0  0  0  0  0  0  0  0  0  0
   31.6650   33.6290   14.8400 O   0  0  0  0  0  0  0  0  0  0  0  0
   30.1430   34.9580   12.8590 C   0  0  1  0  0  0  0  0  0  0  0  0
   29.5100   34.4250   14.1540 C   0  0  1  0  0  0  0  0  0  0  0  0
   31.6870   35.8420   15.4830 O   0  0  0  0  0  0  0  0  0  0  0  0
   30.8480   36.2680   15.1520 H   0  0  0  0  0  0  0  0  0  0  0  0
   33.5240   34.9100   14.4170 C   0  0  0  0  0  0  0  0  0  0  0  0
   34.1510   34.5200   13.4090 O   0  0  0  0  0  0  0  0  0  0  0  0
   34.2700   35.3610   15.4910 O   0  0  0  0  0  0  0  0  0  0  0  0
   34.8180   36.2120   15.4740 H   0  0  0  0  0  0  0  0  0  0  0  0
   29.3640   35.9790   12.3210 O   0  0  0  0  0  0  0  0  0  0  0  0
   28.4040   35.7210   12.2460 H   0  0  0  0  0  0  0  0  0  0  0  0
   28.1450   34.0040   13.9120 N   0  0  0  0  0  0  0  0  0  0  0  0
   27.0580   34.8660   14.2310 C   0  0  0  0  0  0  0  0  0  0  0  0
   27.9110   33.0690   13.5020 H   0  0  0  0  0  0  0  0  0  0  0  0
   25.6270   34.4730   13.9970 C   0  0  0  0  0  0  0  0  0  0  0  0
   27.2800   36.0140   14.7320 O   0  0  0  0  0  0  0  0  0  0  0  0
   29.2940   31.2300   15.0910 O   0  0  0  0  0  0  0  0  0  0  0  0
   28.3740   31.3120   14.7180 H   0  0  0  0  0  0  0  0  0  0  0  0
   30.6480   30.7390   17.1160 O   0  0  0  0  0  0  0  0  0  0  0  0
   29.6850   30.5110   17.1300 H   0  0  0  0  0  0  0  0  0  0  0  0
   32.8780   35.6430   19.1400 O   0  0  0  0  0  0  0  0  0  0  0  0
   34.1730   35.7030   19.7110 C   0  0  0  0  0  0  0  0  0  0  0  0
   35.1650   36.1920   18.6950 C   0  0  0  0  0  0  0  0  0  0  0  0
   36.4710   35.8020   18.5600 C   0  0  0  0  0  0  0  0  0  0  0  0
   34.9120   37.1160   17.7470 N   0  0  0  0  0  0  0  0  0  0  0  0
   36.9910   36.5020   17.5230 N   0  0  0  0  0  0  0  0  0  0  0  0
   36.0280   37.2840   17.0550 N   0  0  0  0  0  0  0  0  0  0  0  0
   38.3550   36.3710   17.0580 C   0  0  0  0  0  0  0  0  0  0  0  0
   38.3110   36.1320   15.5510 C   0  0  0  0  0  0  0  0  0  0  0  0
   37.9540   34.6930   15.3590 C   0  0  0  0  0  0  0  0  0  0  0  0
   38.4710   33.7750   16.0080 O   0  0  0  0  0  0  0  0  0  0  0  0
   36.9880   34.4170   14.3920 O   0  0  0  0  0  0  0  0  0  0  0  0
   36.3270   35.1420   14.1180 H   0  0  0  0  0  0  0  0  0  0  0  0
   29.8670   25.5550   16.9770 C   0  0  0  0  0  0  0  0  0  0  0  0
   28.3450   25.7220   17.0260 C   0  0  0  0  0  0  0  0  0  0  0  0
   27.5990   24.4210   16.7720 C   0  0  0  0  0  0  0  0  0  0  0  0
   26.9210   23.9060   18.0110 C   0  0  0  0  0  0  0  0  0  0  0  0
   25.5480   24.5560   18.1470 C   0  0  0  0  0  0  0  0  0  0  0  0
   24.7670   24.3860   16.8990 N   0  0  0  0  0  0  0  0  0  0  0  0
  1  2  1  0  0  0  0
  2  3  2  0  0  0  0
  4  1  1  0  0  0  0
  5  1  1  0  0  0  0
  6 29  1  0  0  0  0
  6  5  1  1  0  0  0
  7 27  1  6  0  0  0
  7  6  1  0  0  0  0
  8 11  1  0  0  0  0
  8  7  1  1  0  0  0
  9 16  1  6  0  0  0
  9 11  1  0  0  0  0
  9 14  1  0  0  0  0
 10  9  1  0  0  0  0
 12 20  1  1  0  0  0
 12 10  1  0  0  0  0
 12 13  1  0  0  0  0
 13 22  1  6  0  0  0
 13  8  1  0  0  0  0
 15 14  1  0  0  0  0
 16 18  1  0  0  0  0
 17 16  2  0  0  0  0
 19 18  1  0  0  0  0
 21 20  1  0  0  0  0
 22 23  1  0  0  0  0
 23 26  2  0  0  0  0
 24 22  1  0  0  0  0
 25 23  1  0  0  0  0
 28 27  1  0  0  0  0
 29 30  1  0  0  0  0
 31  2  1  0  0  0  0
 31 32  1  0  0  0  0
 33 32  1  0  0  0  0
 34 33  2  0  0  0  0
 35 33  1  0  0  0  0
 36 34  1  0  0  0  0
 37 36  1  0  0  0  0
 37 35  2  0  0  0  0
 38 36  1  0  0  0  0
 39 38  1  0  0  0  0
 40 39  1  0  0  0  0
 40 41  2  0  0  0  0
 42 40  1  0  0  0  0
 43 42  1  0  0  0  0
 44 45  1  0  0  0  0
 46 45  1  0  0  0  0
 46 47  1  0  0  0  0
 47 48  1  0  0  0  0
 49 48  1  0  0  0  0
M  END
>  <REMARK>
 VINA RESULT:    -4.397      4.463      8.433
 INTER + INTRA:         -13.896
 INTER:                  -7.328
 INTRA:                  -6.568
 UNBOUND:                -5.644
 SMILES CC(=O)N[C@@H]1[C@@H](O)C[C@](O)(C(=O)O)O[C@H]1C(O)[C@H](O)CNC(=O)OCc1cn(CCC(=O)O)nn1
 SMILES IDX 21 1 22 2 23 3 20 5 18 6 16 7 15 8 9 9 8 10 14 11 6 12 5 13
 SMILES IDX 10 14 11 16 12 17 13 18 7 20 4 22 2 23 1 25 3 26 17 27 19 29
 SMILES IDX 24 31 25 32 26 33 27 34 35 35 28 36 34 37 29 38 30 39 31 40
 SMILES IDX 32 41 33 42
 H PARENT 21 4 10 15 13 19 7 21 4 24 17 28 19 30 33 43
 Flexibility Score: inf
  4 active torsions:
  status: ('A' for Active; 'I' for Inactive)
    1  A    between atoms: CA   and  CB  
    2  A    between atoms: CB   and  CG  
    3  A    between atoms: CG   and  CD  
    4  A    between atoms: CD   and  CE  

>  <TORSDO>
F 18

>  <BEGIN_>
RES LYS A 131

$$$$
ligand_32_pose_8_2HRL.pdbqt
 OpenBabel07062320523D

  6  5  0  0  0  0  0  0  0  0999 V2000
   33.1930   34.6630    9.2900 C   0  0  0  0  0  0  0  0  0  0  0  0
   32.0600   35.3600   10.0340 C   0  0  0  0  0  0  0  0  0  0  0  0
   30.8050   35.5120    9.2140 C   0  0  0  0  0  0  0  0  0  0  0  0
   30.1150   34.1680    9.0350 C   0  0  0  0  0  0  0  0  0  0  0  0
   28.6450   34.3630    8.7140 C   0  0  0  0  0  0  0  0  0  0  0  0
   27.7820   33.7070    9.7360 N   0  0  0  0  0  0  0  0  0  0  0  0
  1  2  1  0  0  0  0
  3  2  1  0  0  0  0
  4  3  1  0  0  0  0
  5  4  1  0  0  0  0
  5  6  1  0  0  0  0
M  END
>  <EGIN_R>
ES LYS A 135

>  <REMARK>
  4 active torsions:
  status: ('A' for Active; 'I' for Inactive)
    5  A    between atoms: CA   and  CB  
    6  A    between atoms: CB   and  CG  
    7  A    between atoms: CG   and  CD  
    8  A    between atoms: CD   and  CE  

$$$$
