ligand_8_pose_4_2HRL.pdbqt
 OpenBabel07062320523D

 50 51  0  0  1  0  0  0  0  0999 V2000
   28.0500   27.9090   19.6390 C   0  0  0  0  0  0  0  0  0  0  0  0
   29.1430   27.9520   20.6750 C   0  0  2  0  0  0  0  0  0  0  0  0
   29.8410   29.2700   20.5560 C   0  0  1  0  0  0  0  0  0  0  0  0
   30.1370   29.9760   21.8580 C   0  0  2  0  0  0  0  0  0  0  0  0
   30.5030   32.2520   21.4320 C   0  0  2  0  0  0  0  0  0  0  0  0
   31.3800   32.3740   22.6790 C   0  0  0  0  0  0  0  0  0  0  0  0
   29.6240   31.2580   21.7040 O   0  0  0  0  0  0  0  0  0  0  0  0
   32.2390   31.1430   22.6850 C   0  0  1  0  0  0  0  0  0  0  0  0
   31.5120   29.8660   22.3560 C   0  0  1  0  0  0  0  0  0  0  0  0
   31.3470   32.0720   20.3660 O   0  0  0  0  0  0  0  0  0  0  0  0
   32.1620   31.6210   20.7000 H   0  0  0  0  0  0  0  0  0  0  0  0
   29.7620   33.5290   21.2360 C   0  0  0  0  0  0  0  0  0  0  0  0
   28.5230   33.5510   21.4390 O   0  0  0  0  0  0  0  0  0  0  0  0
   30.4100   34.6910   20.8330 O   0  0  0  0  0  0  0  0  0  0  0  0
   30.0130   35.6200   20.9530 H   0  0  0  0  0  0  0  0  0  0  0  0
   33.2480   31.3610   21.7450 O   0  0  0  0  0  0  0  0  0  0  0  0
   33.0350   32.1040   21.1540 H   0  0  0  0  0  0  0  0  0  0  0  0
   31.4990   29.0200   23.5680 N   0  0  0  0  0  0  0  0  0  0  0  0
   31.9090   27.6690   23.5270 C   0  0  0  0  0  0  0  0  0  0  0  0
   31.1790   29.4220   24.4960 H   0  0  0  0  0  0  0  0  0  0  0  0
   31.8900   26.8010   24.7530 C   0  0  0  0  0  0  0  0  0  0  0  0
   32.2960   27.2000   22.4270 O   0  0  0  0  0  0  0  0  0  0  0  0
   30.8970   29.1850   19.6850 O   0  0  0  0  0  0  0  0  0  0  0  0
   30.9190   28.3130   19.1860 H   0  0  0  0  0  0  0  0  0  0  0  0
   30.0170   26.9130   20.4850 O   0  0  0  0  0  0  0  0  0  0  0  0
   30.7620   27.1430   19.8650 H   0  0  0  0  0  0  0  0  0  0  0  0
   28.1050   28.8870   18.6060 N   0  0  0  0  0  0  0  0  0  0  0  0
   27.2270   28.9280   17.5010 C   0  0  0  0  0  0  0  0  0  0  0  0
   28.8500   29.6590   18.6360 H   0  0  0  0  0  0  0  0  0  0  0  0
   26.3130   28.0920   17.3130 O   0  0  0  0  0  0  0  0  0  0  0  0
   27.3840   29.9580   16.5610 O   0  0  0  0  0  0  0  0  0  0  0  0
   28.5520   29.9420   15.7720 C   0  0  0  0  0  0  0  0  0  0  0  0
   29.4500   31.0150   16.2640 C   0  0  0  0  0  0  0  0  0  0  0  0
   29.8730   32.1090   15.4970 C   0  0  0  0  0  0  0  0  0  0  0  0
   30.0420   31.2060   17.4490 N   0  0  0  0  0  0  0  0  0  0  0  0
   30.6820   32.8950   16.2290 N   0  0  0  0  0  0  0  0  0  0  0  0
   30.7670   32.3190   17.4150 N   0  0  0  0  0  0  0  0  0  0  0  0
   31.3080   34.1010   15.7910 C   0  0  0  0  0  0  0  0  0  0  0  0
   32.5140   34.0910   15.1260 C   0  0  0  0  0  0  0  0  0  0  0  0
   30.7240   35.3290   16.0190 C   0  0  0  0  0  0  0  0  0  0  0  0
   33.1130   35.2800   14.7050 C   0  0  0  0  0  0  0  0  0  0  0  0
   31.3150   36.5120   15.6020 C   0  0  0  0  0  0  0  0  0  0  0  0
   29.0440   35.3540   16.9450 Br  0  0  0  0  0  0  0  0  0  0  0  0
   32.5220   36.5050   14.9360 C   0  0  0  0  0  0  0  0  0  0  0  0
   29.8670   25.5550   16.9770 C   0  0  0  0  0  0  0  0  0  0  0  0
   28.3450   25.7220   17.0260 C   0  0  0  0  0  0  0  0  0  0  0  0
   27.6020   24.3990   16.9180 C   0  0  0  0  0  0  0  0  0  0  0  0
   26.1500   24.5340   17.2850 C   0  0  0  0  0  0  0  0  0  0  0  0
   26.0170   24.6640   18.7990 C   0  0  0  0  0  0  0  0  0  0  0  0
   25.5350   23.3930   19.3890 N   0  0  0  0  0  0  0  0  0  0  0  0
  2  1  1  6  0  0  0
  3 23  1  1  0  0  0
  3  2  1  0  0  0  0
  4  3  1  6  0  0  0
  4  9  1  0  0  0  0
  5 10  1  6  0  0  0
  5  7  1  0  0  0  0
  5  6  1  0  0  0  0
  6  8  1  0  0  0  0
  7  4  1  0  0  0  0
  8 16  1  6  0  0  0
  9  8  1  0  0  0  0
  9 18  1  1  0  0  0
 10 11  1  0  0  0  0
 12  5  1  0  0  0  0
 12 13  2  0  0  0  0
 14 15  1  0  0  0  0
 14 12  1  0  0  0  0
 17 16  1  0  0  0  0
 18 20  1  0  0  0  0
 19 18  1  0  0  0  0
 19 21  1  0  0  0  0
 22 19  2  0  0  0  0
 24 23  1  0  0  0  0
 25  2  1  0  0  0  0
 26 25  1  0  0  0  0
 27 29  1  0  0  0  0
 27  1  1  0  0  0  0
 28 27  1  0  0  0  0
 30 28  2  0  0  0  0
 31 28  1  0  0  0  0
 32 33  1  0  0  0  0
 32 31  1  0  0  0  0
 33 35  1  0  0  0  0
 34 36  1  0  0  0  0
 34 33  2  0  0  0  0
 36 37  1  0  0  0  0
 37 35  2  0  0  0  0
 38 40  1  0  0  0  0
 38 36  1  0  0  0  0
 39 38  2  0  0  0  0
 40 43  1  0  0  0  0
 41 44  2  0  0  0  0
 41 39  1  0  0  0  0
 42 40  2  0  0  0  0
 44 42  1  0  0  0  0
 45 46  1  0  0  0  0
 47 46  1  0  0  0  0
 47 48  1  0  0  0  0
 48 49  1  0  0  0  0
 49 50  1  0  0  0  0
M  END
>  <REMARK>
 VINA RESULT:    -5.810      1.724      2.017
 INTER + INTRA:         -14.452
 INTER:                  -7.905
 INTRA:                  -6.546
 UNBOUND:                -4.396
 SMILES CC(=O)N[C@@H]1[C@@H](O)C[C@](O)(C(=O)O)O[C@H]1C(O)[C@H](O)CNC(=O)OCc1cn(-c2ccccc2Br)nn1
 SMILES IDX 20 1 18 2 16 3 15 4 9 5 8 6 14 7 6 8 5 9 10 10 11 12 12 13
 SMILES IDX 13 14 7 16 4 18 2 19 1 21 3 22 17 23 19 25 21 27 22 28 23 30
 SMILES IDX 24 31 25 32 26 33 27 34 37 35 28 36 36 37 29 38 30 39 34 40
 SMILES IDX 31 41 33 42 35 43 32 44
 H PARENT 10 11 13 15 7 17 4 20 17 24 19 26 21 29
 Flexibility Score: inf
  4 active torsions:
  status: ('A' for Active; 'I' for Inactive)
    1  A    between atoms: CA   and  CB  
    2  A    between atoms: CB   and  CG  
    3  A    between atoms: CG   and  CD  
    4  A    between atoms: CD   and  CE  

>  <TORSDO>
F 15

>  <BEGIN_>
RES LYS A 131

$$$$
ligand_8_pose_4_2HRL.pdbqt
 OpenBabel07062320523D

  6  5  0  0  0  0  0  0  0  0999 V2000
   33.1930   34.6630    9.2900 C   0  0  0  0  0  0  0  0  0  0  0  0
   32.0600   35.3600   10.0340 C   0  0  0  0  0  0  0  0  0  0  0  0
   30.8520   35.6300    9.1750 C   0  0  0  0  0  0  0  0  0  0  0  0
   30.2900   34.3330    8.6150 C   0  0  0  0  0  0  0  0  0  0  0  0
   28.7790   34.4070    8.5120 C   0  0  0  0  0  0  0  0  0  0  0  0
   28.1280   33.7450    9.6760 N   0  0  0  0  0  0  0  0  0  0  0  0
  1  2  1  0  0  0  0
  3  2  1  0  0  0  0
  4  3  1  0  0  0  0
  5  4  1  0  0  0  0
  5  6  1  0  0  0  0
M  END
>  <EGIN_R>
ES LYS A 135

>  <REMARK>
  4 active torsions:
  status: ('A' for Active; 'I' for Inactive)
    5  A    between atoms: CA   and  CB  
    6  A    between atoms: CB   and  CG  
    7  A    between atoms: CG   and  CD  
    8  A    between atoms: CD   and  CE  

$$$$
