ligand_27_pose_17_2HRL.pdbqt
 OpenBabel07062320523D

 50 51  0  0  1  0  0  0  0  0999 V2000
   29.0890   32.3920   20.2480 C   0  0  0  0  0  0  0  0  0  0  0  0
   28.8380   30.9110   20.2550 C   0  0  2  0  0  0  0  0  0  0  0  0
   30.1000   30.0980   20.2460 C   0  0  2  0  0  0  0  0  0  0  0  0
   30.1730   29.1930   21.4780 C   0  0  2  0  0  0  0  0  0  0  0  0
   32.3860   28.7340   22.1240 C   0  0  2  0  0  0  0  0  0  0  0  0
   32.0170   27.2610   22.2440 C   0  0  0  0  0  0  0  0  0  0  0  0
   31.2760   29.5040   22.1670 O   0  0  0  0  0  0  0  0  0  0  0  0
   31.2460   26.9730   20.9570 C   0  0  1  0  0  0  0  0  0  0  0  0
   29.9840   27.7880   21.0260 C   0  0  1  0  0  0  0  0  0  0  0  0
   33.1230   28.8460   20.9520 O   0  0  0  0  0  0  0  0  0  0  0  0
   32.5180   29.1450   20.2290 H   0  0  0  0  0  0  0  0  0  0  0  0
   33.2590   29.1110   23.2610 C   0  0  0  0  0  0  0  0  0  0  0  0
   34.4930   29.2120   23.0730 O   0  0  0  0  0  0  0  0  0  0  0  0
   32.7680   29.3620   24.5330 O   0  0  0  0  0  0  0  0  0  0  0  0
   33.4320   29.3780   25.3150 H   0  0  0  0  0  0  0  0  0  0  0  0
   31.9590   27.3790   19.8340 O   0  0  0  0  0  0  0  0  0  0  0  0
   32.2600   28.3290   19.9000 H   0  0  0  0  0  0  0  0  0  0  0  0
   29.0740   27.0800   21.9010 N   0  0  0  0  0  0  0  0  0  0  0  0
   27.6740   27.2490   21.7430 C   0  0  0  0  0  0  0  0  0  0  0  0
   29.4310   26.4340   22.6630 H   0  0  0  0  0  0  0  0  0  0  0  0
   26.7460   26.5200   22.6450 C   0  0  0  0  0  0  0  0  0  0  0  0
   27.2330   28.0120   20.8450 O   0  0  0  0  0  0  0  0  0  0  0  0
   31.1650   31.0230   20.2810 O   0  0  0  0  0  0  0  0  0  0  0  0
   31.9950   30.6110   20.0020 H   0  0  0  0  0  0  0  0  0  0  0  0
   28.0780   30.5770   19.1200 O   0  0  0  0  0  0  0  0  0  0  0  0
   27.7250   31.3960   18.7280 H   0  0  0  0  0  0  0  0  0  0  0  0
   28.8260   32.9320   18.9180 N   0  0  0  0  0  0  0  0  0  0  0  0
   29.8800   33.4450   18.1230 C   0  0  0  0  0  0  0  0  0  0  0  0
   27.8440   32.9290   18.5770 H   0  0  0  0  0  0  0  0  0  0  0  0
   31.0520   33.4290   18.5770 O   0  0  0  0  0  0  0  0  0  0  0  0
   29.6740   33.9680   16.8570 O   0  0  0  0  0  0  0  0  0  0  0  0
   29.8760   33.1240   15.7450 C   0  0  0  0  0  0  0  0  0  0  0  0
   28.9650   31.9540   15.8440 C   0  0  0  0  0  0  0  0  0  0  0  0
   27.6130   31.9330   15.5510 C   0  0  0  0  0  0  0  0  0  0  0  0
   29.2540   30.6980   16.2320 N   0  0  0  0  0  0  0  0  0  0  0  0
   27.1250   30.6870   15.7630 N   0  0  0  0  0  0  0  0  0  0  0  0
   28.1530   29.9650   16.1770 N   0  0  0  0  0  0  0  0  0  0  0  0
   25.7830   30.2530   15.5780 C   0  0  0  0  0  0  0  0  0  0  0  0
   25.1480   29.5810   16.6010 C   0  0  0  0  0  0  0  0  0  0  0  0
   25.0700   30.4690   14.4180 C   0  0  0  0  0  0  0  0  0  0  0  0
   23.8420   29.1380   16.4680 C   0  0  0  0  0  0  0  0  0  0  0  0
   23.7700   30.0420   14.2520 C   0  0  0  0  0  0  0  0  0  0  0  0
   23.1620   29.3720   15.2950 C   0  0  0  0  0  0  0  0  0  0  0  0
   22.8910   30.3400   12.7450 Cl  0  0  0  0  0  0  0  0  0  0  0  0
   29.8670   25.5550   16.9770 C   0  0  0  0  0  0  0  0  0  0  0  0
   28.3450   25.7220   17.0260 C   0  0  0  0  0  0  0  0  0  0  0  0
   27.6010   24.4020   16.8940 C   0  0  0  0  0  0  0  0  0  0  0  0
   26.2250   24.4650   17.4950 C   0  0  0  0  0  0  0  0  0  0  0  0
   26.2460   25.3710   18.7220 C   0  0  0  0  0  0  0  0  0  0  0  0
   25.1400   26.3550   18.6600 N   0  0  0  0  0  0  0  0  0  0  0  0
  2  1  1  6  0  0  0
  3  2  1  0  0  0  0
  3 23  1  1  0  0  0
  4  3  1  6  0  0  0
  4  7  1  0  0  0  0
  5 10  1  6  0  0  0
  5  7  1  0  0  0  0
  5  6  1  0  0  0  0
  5 12  1  0  0  0  0
  8 16  1  6  0  0  0
  8  9  1  0  0  0  0
  8  6  1  0  0  0  0
  9  4  1  0  0  0  0
  9 18  1  1  0  0  0
 11 10  1  0  0  0  0
 12 14  1  0  0  0  0
 13 12  2  0  0  0  0
 14 15  1  0  0  0  0
 16 17  1  0  0  0  0
 18 20  1  0  0  0  0
 19 18  1  0  0  0  0
 19 21  1  0  0  0  0
 22 19  2  0  0  0  0
 24 23  1  0  0  0  0
 25  2  1  0  0  0  0
 26 25  1  0  0  0  0
 27  1  1  0  0  0  0
 28 30  2  0  0  0  0
 28 27  1  0  0  0  0
 29 27  1  0  0  0  0
 31 28  1  0  0  0  0
 32 33  1  0  0  0  0
 32 31  1  0  0  0  0
 33 35  1  0  0  0  0
 34 36  1  0  0  0  0
 34 33  2  0  0  0  0
 36 37  1  0  0  0  0
 37 35  2  0  0  0  0
 38 36  1  0  0  0  0
 38 39  2  0  0  0  0
 40 38  1  0  0  0  0
 41 39  1  0  0  0  0
 42 40  2  0  0  0  0
 42 43  1  0  0  0  0
 43 41  2  0  0  0  0
 44 42  1  0  0  0  0
 45 46  1  0  0  0  0
 47 46  1  0  0  0  0
 47 48  1  0  0  0  0
 48 49  1  0  0  0  0
 50 49  1  0  0  0  0
M  END
>  <REMARK>
 VINA RESULT:    -5.374      2.745      5.054
 INTER + INTRA:         -13.798
 INTER:                  -8.191
 INTRA:                  -5.606
 UNBOUND:                -4.497
 SMILES CC(=O)N[C@@H]1[C@@H](O)C[C@](O)(C(=O)O)O[C@H]1C(O)[C@H](O)CNC(=O)OCc1cn(-c2cccc(Cl)c2)nn1
 SMILES IDX 20 1 18 2 16 3 15 4 9 5 8 6 14 7 6 8 5 9 10 10 11 12 12 13
 SMILES IDX 13 14 7 16 4 18 2 19 1 21 3 22 17 23 19 25 21 27 22 28 23 30
 SMILES IDX 24 31 25 32 26 33 27 34 37 35 28 36 36 37 29 38 30 39 35 40
 SMILES IDX 31 41 33 42 32 43 34 44
 H PARENT 10 11 13 15 7 17 4 20 17 24 19 26 21 29
 Flexibility Score: inf
  4 active torsions:
  status: ('A' for Active; 'I' for Inactive)
    1  A    between atoms: CA   and  CB  
    2  A    between atoms: CB   and  CG  
    3  A    between atoms: CG   and  CD  
    4  A    between atoms: CD   and  CE  

>  <TORSDO>
F 15

>  <BEGIN_>
RES LYS A 131

$$$$
ligand_27_pose_17_2HRL.pdbqt
 OpenBabel07062320523D

  6  5  0  0  0  0  0  0  0  0999 V2000
   33.1930   34.6630    9.2900 C   0  0  0  0  0  0  0  0  0  0  0  0
   32.0600   35.3600   10.0340 C   0  0  0  0  0  0  0  0  0  0  0  0
   30.7860   35.4600    9.2350 C   0  0  0  0  0  0  0  0  0  0  0  0
   30.2000   34.0790    8.9850 C   0  0  0  0  0  0  0  0  0  0  0  0
   28.6880   34.1130    9.0970 C   0  0  0  0  0  0  0  0  0  0  0  0
   28.0830   34.8650    7.9620 N   0  0  0  0  0  0  0  0  0  0  0  0
  1  2  1  0  0  0  0
  3  2  1  0  0  0  0
  4  5  1  0  0  0  0
  4  3  1  0  0  0  0
  6  5  1  0  0  0  0
M  END
>  <EGIN_R>
ES LYS A 135

>  <REMARK>
  4 active torsions:
  status: ('A' for Active; 'I' for Inactive)
    5  A    between atoms: CA   and  CB  
    6  A    between atoms: CB   and  CG  
    7  A    between atoms: CG   and  CD  
    8  A    between atoms: CD   and  CE  

$$$$
