ligand_45_pose_17_2HRL.pdbqt
 OpenBabel07062320523D

 52 52  0  0  1  0  0  0  0  0999 V2000
   32.5150   34.6080   14.7600 O   0  0  0  0  0  0  0  0  0  0  0  0
   31.9070   33.6480   15.5440 C   0  0  0  0  0  0  0  0  0  0  0  0
   31.4370   32.4080   15.0030 N   0  0  0  0  0  0  0  0  0  0  0  0
   31.5870   32.2700   13.9980 H   0  0  0  0  0  0  0  0  0  0  0  0
   31.7630   33.8730   16.7680 O   0  0  0  0  0  0  0  0  0  0  0  0
   30.8230   31.4730   15.8720 C   0  0  0  0  0  0  0  0  0  0  0  0
   29.3310   31.4610   15.9020 C   0  0  2  0  0  0  0  0  0  0  0  0
   28.7060   31.7880   17.2230 C   0  0  1  0  0  0  0  0  0  0  0  0
   29.0600   30.8540   18.3410 C   0  0  2  0  0  0  0  0  0  0  0  0
   28.2230   29.1140   19.5880 C   0  0  2  0  0  0  0  0  0  0  0  0
   29.6880   29.0630   19.9790 C   0  0  0  0  0  0  0  0  0  0  0  0
   27.9840   30.0420   18.6040 O   0  0  0  0  0  0  0  0  0  0  0  0
   30.1490   30.3970   20.4790 C   0  0  1  0  0  0  0  0  0  0  0  0
   29.5550   31.4940   19.5910 C   0  0  1  0  0  0  0  0  0  0  0  0
   27.5040   29.4920   20.7370 O   0  0  0  0  0  0  0  0  0  0  0  0
   27.0770   28.6610   21.0720 H   0  0  0  0  0  0  0  0  0  0  0  0
   27.7720   27.7770   19.1720 C   0  0  0  0  0  0  0  0  0  0  0  0
   26.9880   27.6440   18.1910 O   0  0  0  0  0  0  0  0  0  0  0  0
   28.1850   26.6360   19.8300 O   0  0  0  0  0  0  0  0  0  0  0  0
   27.5830   25.8390   19.9180 H   0  0  0  0  0  0  0  0  0  0  0  0
   29.7160   30.5550   21.8030 O   0  0  0  0  0  0  0  0  0  0  0  0
   28.8970   30.0310   21.9430 H   0  0  0  0  0  0  0  0  0  0  0  0
   30.6830   32.3950   19.3320 N   0  0  0  0  0  0  0  0  0  0  0  0
   31.0750   33.3500   20.3000 C   0  0  0  0  0  0  0  0  0  0  0  0
   31.1910   32.3220   18.4210 H   0  0  0  0  0  0  0  0  0  0  0  0
   32.2260   34.2660   20.0190 C   0  0  0  0  0  0  0  0  0  0  0  0
   30.4960   33.4800   21.4220 O   0  0  0  0  0  0  0  0  0  0  0  0
   29.0350   33.1080   17.5650 O   0  0  0  0  0  0  0  0  0  0  0  0
   30.0160   33.1300   17.7380 H   0  0  0  0  0  0  0  0  0  0  0  0
   28.9300   30.1730   15.4860 O   0  0  0  0  0  0  0  0  0  0  0  0
   29.3190   29.4640   16.0360 H   0  0  0  0  0  0  0  0  0  0  0  0
   32.0050   34.8550   13.4570 C   0  0  0  0  0  0  0  0  0  0  0  0
   30.9190   35.8590   13.5220 C   0  0  0  0  0  0  0  0  0  0  0  0
   29.7550   35.9510   12.7920 C   0  0  0  0  0  0  0  0  0  0  0  0
   30.8820   36.9220   14.3550 N   0  0  0  0  0  0  0  0  0  0  0  0
   29.0510   37.0330   13.1790 N   0  0  0  0  0  0  0  0  0  0  0  0
   29.7710   37.5930   14.1290 N   0  0  0  0  0  0  0  0  0  0  0  0
   27.7990   37.5160   12.6970 C   0  0  0  0  0  0  0  0  0  0  0  0
   27.5560   37.2520   11.2610 C   0  0  0  0  0  0  0  0  0  0  0  0
   26.1730   37.0430   10.8030 C   0  0  0  0  0  0  0  0  0  0  0  0
   25.7600   35.8020   10.2890 N   0  0  0  0  0  0  0  0  0  0  0  0
   24.3440   35.5860   10.1600 C   0  0  0  0  0  0  0  0  0  0  0  0
   26.2680   35.7510    8.9030 C   0  0  0  0  0  0  0  0  0  0  0  0
   27.0170   34.5190    8.5710 C   0  0  0  0  0  0  0  0  0  0  0  0
   26.3300   34.6700   10.9630 C   0  0  0  0  0  0  0  0  0  0  0  0
   25.6080   34.2320   12.1850 C   0  0  0  0  0  0  0  0  0  0  0  0
   29.8670   25.5550   16.9770 C   0  0  0  0  0  0  0  0  0  0  0  0
   28.3450   25.7220   17.0260 C   0  0  0  0  0  0  0  0  0  0  0  0
   27.5990   24.4190   16.7790 C   0  0  0  0  0  0  0  0  0  0  0  0
   26.5940   24.1290   17.8590 C   0  0  0  0  0  0  0  0  0  0  0  0
   25.2140   24.5980   17.4090 C   0  0  0  0  0  0  0  0  0  0  0  0
   24.1540   23.8870   18.1620 N   0  0  0  0  0  0  0  0  0  0  0  0
  1  2  1  0  0  0  0
  2  5  2  0  0  0  0
  3  2  1  0  0  0  0
  3  6  1  0  0  0  0
  4  3  1  0  0  0  0
  7  6  1  1  0  0  0
  7  8  1  0  0  0  0
  8 28  1  1  0  0  0
  9  8  1  6  0  0  0
  9 12  1  0  0  0  0
  9 14  1  0  0  0  0
 10 17  1  6  0  0  0
 10 11  1  0  0  0  0
 10 15  1  0  0  0  0
 11 13  1  0  0  0  0
 12 10  1  0  0  0  0
 13 21  1  1  0  0  0
 14 23  1  6  0  0  0
 14 13  1  0  0  0  0
 15 16  1  0  0  0  0
 17 19  1  0  0  0  0
 18 17  2  0  0  0  0
 19 20  1  0  0  0  0
 21 22  1  0  0  0  0
 23 24  1  0  0  0  0
 24 27  2  0  0  0  0
 25 23  1  0  0  0  0
 26 24  1  0  0  0  0
 28 29  1  0  0  0  0
 30  7  1  0  0  0  0
 30 31  1  0  0  0  0
 32 33  1  0  0  0  0
 32  1  1  0  0  0  0
 33 35  1  0  0  0  0
 34 36  1  0  0  0  0
 34 33  2  0  0  0  0
 36 37  1  0  0  0  0
 37 35  2  0  0  0  0
 38 36  1  0  0  0  0
 39 38  1  0  0  0  0
 40 39  1  0  0  0  0
 41 40  1  0  0  0  0
 41 45  1  0  0  0  0
 42 41  1  0  0  0  0
 43 41  1  0  0  0  0
 44 43  1  0  0  0  0
 45 46  1  0  0  0  0
 47 48  1  0  0  0  0
 49 48  1  0  0  0  0
 49 50  1  0  0  0  0
 51 50  1  0  0  0  0
 51 52  1  0  0  0  0
M  END
>  <REMARK>
 VINA RESULT:    -3.959      2.922      6.383
 INTER + INTRA:         -13.884
 INTER:                  -9.364
 INTRA:                  -4.520
 UNBOUND:                -5.875
 SMILES CC[N+](C)(CC)CCCn1cc(COC(=O)NC[C@@H](O)C(O)[C@@H]2O[C@@](O)(C(=O)O)C[C@H](O)[C@H]2NC(C)=O)nn1
 SMILES IDX 14 1 15 2 17 3 16 5 18 6 19 7 21 8 23 9 25 10 30 11 24 12
 SMILES IDX 31 13 33 14 26 15 27 17 28 18 29 19 32 21 34 23 35 24 36 26
 SMILES IDX 37 27 22 28 20 30 13 32 12 33 11 34 38 35 10 36 39 37 9 38
 SMILES IDX 8 39 7 40 3 41 4 42 2 43 1 44 5 45 6 46
 H PARENT 17 4 26 16 29 20 32 22 34 25 22 29 20 31
 Flexibility Score: inf
  4 active torsions:
  status: ('A' for Active; 'I' for Inactive)
    1  A    between atoms: CA   and  CB  
    2  A    between atoms: CB   and  CG  
    3  A    between atoms: CG   and  CD  
    4  A    between atoms: CD   and  CE  

>  <TORSDO>
F 20

>  <BEGIN_>
RES LYS A 131

$$$$
ligand_45_pose_17_2HRL.pdbqt
 OpenBabel07062320523D

  6  5  0  0  0  0  0  0  0  0999 V2000
   33.1930   34.6630    9.2900 C   0  0  0  0  0  0  0  0  0  0  0  0
   32.0600   35.3600   10.0340 C   0  0  0  0  0  0  0  0  0  0  0  0
   30.7360   35.2890    9.3180 C   0  0  0  0  0  0  0  0  0  0  0  0
   30.2990   36.6710    8.8580 C   0  0  0  0  0  0  0  0  0  0  0  0
   31.0400   37.7470    9.6280 C   0  0  0  0  0  0  0  0  0  0  0  0
   31.4920   38.8400    8.7230 N   0  0  0  0  0  0  0  0  0  0  0  0
  1  2  1  0  0  0  0
  3  2  1  0  0  0  0
  4  3  1  0  0  0  0
  4  5  1  0  0  0  0
  6  5  1  0  0  0  0
M  END
>  <EGIN_R>
ES LYS A 135

>  <REMARK>
  4 active torsions:
  status: ('A' for Active; 'I' for Inactive)
    5  A    between atoms: CA   and  CB  
    6  A    between atoms: CB   and  CG  
    7  A    between atoms: CG   and  CD  
    8  A    between atoms: CD   and  CE  

$$$$
