ligand_15_pose_6_2HRL.pdbqt
 OpenBabel07062320523D

 50 51  0  0  1  0  0  0  0  0999 V2000
   29.8190   31.1760   17.8010 C   0  0  0  0  0  0  0  0  0  0  0  0
   30.3070   32.4600   17.2010 C   0  0  2  0  0  0  0  0  0  0  0  0
   30.8860   32.3500   15.8350 C   0  0  2  0  0  0  0  0  0  0  0  0
   31.1060   33.6800   15.1430 C   0  0  2  0  0  0  0  0  0  0  0  0
   32.8600   35.2300   14.9820 C   0  0  2  0  0  0  0  0  0  0  0  0
   31.7800   36.2750   14.9290 C   0  0  0  0  0  0  0  0  0  0  0  0
   32.4000   34.0610   15.4770 O   0  0  0  0  0  0  0  0  0  0  0  0
   30.7900   35.9760   16.0310 C   0  0  1  0  0  0  0  0  0  0  0  0
   30.0930   34.6590   15.6650 C   0  0  1  0  0  0  0  0  0  0  0  0
   33.8820   35.6760   15.8670 O   0  0  0  0  0  0  0  0  0  0  0  0
   33.4300   36.3260   16.4650 H   0  0  0  0  0  0  0  0  0  0  0  0
   33.4690   35.0040   13.6420 C   0  0  0  0  0  0  0  0  0  0  0  0
   33.0920   35.5880   12.6110 O   0  0  0  0  0  0  0  0  0  0  0  0
   34.5090   34.0970   13.5280 O   0  0  0  0  0  0  0  0  0  0  0  0
   35.0250   33.9520   12.6590 H   0  0  0  0  0  0  0  0  0  0  0  0
   31.5190   35.7190   17.1900 O   0  0  0  0  0  0  0  0  0  0  0  0
   31.2740   36.2930   17.9410 H   0  0  0  0  0  0  0  0  0  0  0  0
   29.1740   34.9970   14.6140 N   0  0  0  0  0  0  0  0  0  0  0  0
   27.9370   34.3430   14.3970 C   0  0  0  0  0  0  0  0  0  0  0  0
   29.4050   35.7780   13.9460 H   0  0  0  0  0  0  0  0  0  0  0  0
   27.0160   34.7300   13.2870 C   0  0  0  0  0  0  0  0  0  0  0  0
   27.6030   33.4130   15.1570 O   0  0  0  0  0  0  0  0  0  0  0  0
   30.0180   31.5450   15.0570 O   0  0  0  0  0  0  0  0  0  0  0  0
   29.8000   32.0540   14.2480 H   0  0  0  0  0  0  0  0  0  0  0  0
   31.2930   32.9810   18.0670 O   0  0  0  0  0  0  0  0  0  0  0  0
   32.0780   32.3800   18.1070 H   0  0  0  0  0  0  0  0  0  0  0  0
   28.4110   31.0860   18.0090 N   0  0  0  0  0  0  0  0  0  0  0  0
   27.6070   30.2480   17.1540 C   0  0  0  0  0  0  0  0  0  0  0  0
   27.8660   31.5850   18.7410 H   0  0  0  0  0  0  0  0  0  0  0  0
   28.1920   29.6180   16.2410 O   0  0  0  0  0  0  0  0  0  0  0  0
   26.2370   30.1400   17.3330 O   0  0  0  0  0  0  0  0  0  0  0  0
   25.4590   31.2470   16.8960 C   0  0  0  0  0  0  0  0  0  0  0  0
   24.7480   30.8130   15.6590 C   0  0  0  0  0  0  0  0  0  0  0  0
   23.5140   30.1940   15.5930 C   0  0  0  0  0  0  0  0  0  0  0  0
   25.1530   30.9340   14.3810 N   0  0  0  0  0  0  0  0  0  0  0  0
   23.2130   29.9620   14.3040 N   0  0  0  0  0  0  0  0  0  0  0  0
   24.2260   30.4230   13.6080 N   0  0  0  0  0  0  0  0  0  0  0  0
   22.0580   29.3500   13.7360 C   0  0  0  0  0  0  0  0  0  0  0  0
   21.7170   29.5090   12.4060 C   0  0  0  0  0  0  0  0  0  0  0  0
   21.2250   28.5630   14.5030 C   0  0  0  0  0  0  0  0  0  0  0  0
   20.5940   28.9080   11.8690 C   0  0  0  0  0  0  0  0  0  0  0  0
   20.0940   27.9570   13.9680 C   0  0  0  0  0  0  0  0  0  0  0  0
   19.7620   28.1190   12.6440 C   0  0  0  0  0  0  0  0  0  0  0  0
   18.2260   27.3150   11.8520 Br  0  0  0  0  0  0  0  0  0  0  0  0
   29.8670   25.5550   16.9770 C   0  0  0  0  0  0  0  0  0  0  0  0
   28.3450   25.7220   17.0260 C   0  0  0  0  0  0  0  0  0  0  0  0
   27.6020   24.4000   16.9110 C   0  0  0  0  0  0  0  0  0  0  0  0
   26.5890   24.2220   18.0090 C   0  0  0  0  0  0  0  0  0  0  0  0
   25.6220   23.1050   17.6330 C   0  0  0  0  0  0  0  0  0  0  0  0
   24.4000   23.6640   17.0090 N   0  0  0  0  0  0  0  0  0  0  0  0
  1 27  1  0  0  0  0
  2  1  1  1  0  0  0
  2 25  1  0  0  0  0
  3 23  1  6  0  0  0
  3  2  1  0  0  0  0
  4  7  1  0  0  0  0
  4  9  1  0  0  0  0
  4  3  1  1  0  0  0
  5 12  1  6  0  0  0
  5  7  1  0  0  0  0
  5 10  1  0  0  0  0
  6  5  1  0  0  0  0
  6  8  1  0  0  0  0
  8 16  1  1  0  0  0
  9 18  1  6  0  0  0
  9  8  1  0  0  0  0
 10 11  1  0  0  0  0
 13 12  2  0  0  0  0
 14 12  1  0  0  0  0
 15 14  1  0  0  0  0
 16 17  1  0  0  0  0
 19 18  1  0  0  0  0
 19 22  2  0  0  0  0
 20 18  1  0  0  0  0
 21 19  1  0  0  0  0
 24 23  1  0  0  0  0
 25 26  1  0  0  0  0
 27 29  1  0  0  0  0
 28 31  1  0  0  0  0
 28 27  1  0  0  0  0
 30 28  2  0  0  0  0
 32 31  1  0  0  0  0
 33 32  1  0  0  0  0
 34 33  2  0  0  0  0
 35 33  1  0  0  0  0
 36 34  1  0  0  0  0
 37 36  1  0  0  0  0
 37 35  2  0  0  0  0
 38 36  1  0  0  0  0
 38 40  2  0  0  0  0
 39 38  1  0  0  0  0
 41 39  2  0  0  0  0
 41 43  1  0  0  0  0
 42 40  1  0  0  0  0
 43 42  2  0  0  0  0
 44 43  1  0  0  0  0
 45 46  1  0  0  0  0
 47 46  1  0  0  0  0
 47 48  1  0  0  0  0
 49 48  1  0  0  0  0
 50 49  1  0  0  0  0
M  END
>  <REMARK>
 VINA RESULT:    -5.409      5.260      8.219
 INTER + INTRA:         -14.523
 INTER:                  -8.840
 INTRA:                  -5.683
 UNBOUND:                -5.161
 SMILES CC(=O)N[C@@H]1[C@@H](O)C[C@](O)(C(=O)O)O[C@H]1C(O)[C@H](O)CNC(=O)OCc1cn(-c2ccc(Br)cc2)nn1
 SMILES IDX 20 1 18 2 16 3 15 4 9 5 8 6 14 7 6 8 5 9 10 10 11 12 12 13
 SMILES IDX 13 14 7 16 4 18 2 19 1 21 3 22 17 23 19 25 21 27 22 28 23 30
 SMILES IDX 24 31 25 32 26 33 27 34 37 35 28 36 36 37 29 38 30 39 35 40
 SMILES IDX 31 41 34 42 32 43 33 44
 H PARENT 10 11 13 15 7 17 4 20 17 24 19 26 21 29
 Flexibility Score: inf
  4 active torsions:
  status: ('A' for Active; 'I' for Inactive)
    1  A    between atoms: CA   and  CB  
    2  A    between atoms: CB   and  CG  
    3  A    between atoms: CG   and  CD  
    4  A    between atoms: CD   and  CE  

>  <TORSDO>
F 15

>  <BEGIN_>
RES LYS A 131

$$$$
ligand_15_pose_6_2HRL.pdbqt
 OpenBabel07062320523D

  6  5  0  0  0  0  0  0  0  0999 V2000
   33.1930   34.6630    9.2900 C   0  0  0  0  0  0  0  0  0  0  0  0
   32.0600   35.3600   10.0340 C   0  0  0  0  0  0  0  0  0  0  0  0
   30.7250   34.6810    9.8710 C   0  0  0  0  0  0  0  0  0  0  0  0
   30.4040   34.4730    8.3990 C   0  0  0  0  0  0  0  0  0  0  0  0
   28.9470   34.7890    8.1210 C   0  0  0  0  0  0  0  0  0  0  0  0
   28.0530   34.0810    9.0780 N   0  0  0  0  0  0  0  0  0  0  0  0
  1  2  1  0  0  0  0
  3  2  1  0  0  0  0
  4  3  1  0  0  0  0
  5  4  1  0  0  0  0
  5  6  1  0  0  0  0
M  END
>  <EGIN_R>
ES LYS A 135

>  <REMARK>
  4 active torsions:
  status: ('A' for Active; 'I' for Inactive)
    5  A    between atoms: CA   and  CB  
    6  A    between atoms: CB   and  CG  
    7  A    between atoms: CG   and  CD  
    8  A    between atoms: CD   and  CE  

$$$$
