ligand_55_pose_10_2HRL.pdbqt
 OpenBabel07062320523D

 51 51  0  0  1  0  0  0  0  0999 V2000
   28.1780   34.9680    7.6290 N   0  0  0  0  0  0  0  0  0  0  0  0
   29.2990   34.5030    8.3460 C   0  0  0  0  0  0  0  0  0  0  0  0
   30.4640   34.5910    7.9270 O   0  0  0  0  0  0  0  0  0  0  0  0
   27.2290   34.8460    8.0960 H   0  0  0  0  0  0  0  0  0  0  0  0
   28.2010   35.5780    6.3530 C   0  0  0  0  0  0  0  0  0  0  0  0
   27.4850   36.8980    6.2090 C   0  0  2  0  0  0  0  0  0  0  0  0
   28.3740   37.7930    5.4020 C   0  0  2  0  0  0  0  0  0  0  0  0
   28.9330   38.9980    6.0870 C   0  0  2  0  0  0  0  0  0  0  0  0
   30.2070   39.5490    7.9770 C   0  0  2  0  0  0  0  0  0  0  0  0
   29.4730   40.8370    8.1290 C   0  0  0  0  0  0  0  0  0  0  0  0
   29.7160   38.6510    7.1110 O   0  0  0  0  0  0  0  0  0  0  0  0
   28.0510   40.7830    7.6390 C   0  0  1  0  0  0  0  0  0  0  0  0
   27.9420   40.0970    6.3200 C   0  0  1  0  0  0  0  0  0  0  0  0
   30.3070   38.9500    9.2390 O   0  0  0  0  0  0  0  0  0  0  0  0
   31.2350   38.6620    9.3750 H   0  0  0  0  0  0  0  0  0  0  0  0
   31.6050   39.8660    7.5650 C   0  0  0  0  0  0  0  0  0  0  0  0
   32.0320   41.0210    7.3840 O   0  0  0  0  0  0  0  0  0  0  0  0
   32.5280   38.8240    7.3590 O   0  0  0  0  0  0  0  0  0  0  0  0
   33.4100   38.9880    6.8910 H   0  0  0  0  0  0  0  0  0  0  0  0
   27.2600   40.2280    8.6370 O   0  0  0  0  0  0  0  0  0  0  0  0
   26.3430   40.5800    8.5020 H   0  0  0  0  0  0  0  0  0  0  0  0
   27.9980   41.1140    5.2860 N   0  0  0  0  0  0  0  0  0  0  0  0
   26.9080   41.4250    4.4310 C   0  0  0  0  0  0  0  0  0  0  0  0
   28.8790   41.6870    5.1160 H   0  0  0  0  0  0  0  0  0  0  0  0
   27.0150   42.4870    3.3750 C   0  0  0  0  0  0  0  0  0  0  0  0
   25.8470   40.7700    4.5990 O   0  0  0  0  0  0  0  0  0  0  0  0
   27.5690   38.1820    4.2910 O   0  0  0  0  0  0  0  0  0  0  0  0
   28.1270   38.3820    3.5110 H   0  0  0  0  0  0  0  0  0  0  0  0
   27.1320   37.3570    7.4490 O   0  0  0  0  0  0  0  0  0  0  0  0
   27.8830   37.4240    8.0500 H   0  0  0  0  0  0  0  0  0  0  0  0
   29.1190   33.9110    9.5920 O   0  0  0  0  0  0  0  0  0  0  0  0
   29.2260   34.6020   10.8100 C   0  0  0  0  0  0  0  0  0  0  0  0
   28.3530   35.7910   10.8180 C   0  0  0  0  0  0  0  0  0  0  0  0
   27.1280   35.9600   11.4320 C   0  0  0  0  0  0  0  0  0  0  0  0
   28.6160   36.9440   10.2100 N   0  0  0  0  0  0  0  0  0  0  0  0
   26.6860   37.2000   11.1790 N   0  0  0  0  0  0  0  0  0  0  0  0
   27.6190   37.7770   10.4300 N   0  0  0  0  0  0  0  0  0  0  0  0
   25.4740   37.8590   11.5890 C   0  0  0  0  0  0  0  0  0  0  0  0
   24.8580   38.6750   10.4670 C   0  0  0  0  0  0  0  0  0  0  0  0
   24.9700   37.8950    9.2530 N   0  0  0  0  0  0  0  0  0  0  0  0
   25.7670   37.2440    9.2790 H   0  0  0  0  0  0  0  0  0  0  0  0
   23.5200   37.0470    8.8860 S   0  0  0  0  0  0  0  0  0  0  0  0
   23.1920   37.3250    7.4420 O   0  0  0  0  0  0  0  0  0  0  0  0
   23.7150   35.5870    9.1400 O   0  0  0  0  0  0  0  0  0  0  0  0
   22.1700   37.6440    9.8780 C   0  0  0  0  0  0  0  0  0  0  0  0
   29.8670   25.5550   16.9770 C   0  0  0  0  0  0  0  0  0  0  0  0
   28.3450   25.7220   17.0260 C   0  0  0  0  0  0  0  0  0  0  0  0
   27.6010   24.4010   16.9000 C   0  0  0  0  0  0  0  0  0  0  0  0
   26.5710   24.2260   17.9810 C   0  0  0  0  0  0  0  0  0  0  0  0
   25.9780   25.5830   18.3440 C   0  0  0  0  0  0  0  0  0  0  0  0
   25.8980   25.7380   19.8150 N   0  0  0  0  0  0  0  0  0  0  0  0
  1  4  1  0  0  0  0
  1  2  1  0  0  0  0
  2 31  1  0  0  0  0
  3  2  2  0  0  0  0
  5  1  1  0  0  0  0
  6  5  1  1  0  0  0
  6 29  1  0  0  0  0
  7 27  1  6  0  0  0
  7  6  1  0  0  0  0
  8  7  1  1  0  0  0
  8 13  1  0  0  0  0
  8 11  1  0  0  0  0
  9 16  1  6  0  0  0
  9 10  1  0  0  0  0
  9 14  1  0  0  0  0
 11  9  1  0  0  0  0
 12 10  1  0  0  0  0
 12 20  1  1  0  0  0
 13 22  1  6  0  0  0
 13 12  1  0  0  0  0
 14 15  1  0  0  0  0
 17 16  2  0  0  0  0
 18 16  1  0  0  0  0
 19 18  1  0  0  0  0
 21 20  1  0  0  0  0
 23 26  2  0  0  0  0
 23 22  1  0  0  0  0
 24 22  1  0  0  0  0
 25 23  1  0  0  0  0
 28 27  1  0  0  0  0
 29 30  1  0  0  0  0
 31 32  1  0  0  0  0
 32 33  1  0  0  0  0
 33 34  2  0  0  0  0
 35 37  2  0  0  0  0
 35 33  1  0  0  0  0
 36 34  1  0  0  0  0
 36 38  1  0  0  0  0
 37 36  1  0  0  0  0
 39 38  1  0  0  0  0
 40 41  1  0  0  0  0
 40 39  1  0  0  0  0
 42 44  2  0  0  0  0
 42 40  1  0  0  0  0
 42 45  1  0  0  0  0
 43 42  2  0  0  0  0
 46 47  1  0  0  0  0
 48 47  1  0  0  0  0
 48 49  1  0  0  0  0
 49 50  1  0  0  0  0
 50 51  1  0  0  0  0
M  END
>  <REMARK>
 VINA RESULT:    -4.371      7.347     12.816
 INTER + INTRA:         -14.608
 INTER:                  -8.518
 INTRA:                  -6.090
 UNBOUND:                -6.277
 SMILES CC(=O)N[C@@H]1[C@@H](O)C[C@](O)(C(=O)O)O[C@H]1C(O)[C@H](O)CNC(=O)OCc1cn(CCNS(C)(=O)=O)nn1
 SMILES IDX 21 1 22 2 23 3 20 5 18 6 16 7 15 8 9 9 8 10 14 11 6 12 5 13
 SMILES IDX 10 14 11 16 12 17 13 18 7 20 4 22 2 23 1 25 3 26 17 27 19 29
 SMILES IDX 24 31 25 32 26 33 27 34 37 35 28 36 36 37 29 38 30 39 31 40
 SMILES IDX 32 42 34 43 35 44 33 45
 H PARENT 21 4 10 15 13 19 7 21 4 24 17 28 19 30 31 41
 Flexibility Score: inf
  4 active torsions:
  status: ('A' for Active; 'I' for Inactive)
    1  A    between atoms: CA   and  CB  
    2  A    between atoms: CB   and  CG  
    3  A    between atoms: CG   and  CD  
    4  A    between atoms: CD   and  CE  

>  <TORSDO>
F 18

>  <BEGIN_>
RES LYS A 131

$$$$
ligand_55_pose_10_2HRL.pdbqt
 OpenBabel07062320523D

  6  5  0  0  0  0  0  0  0  0999 V2000
   33.1930   34.6630    9.2900 C   0  0  0  0  0  0  0  0  0  0  0  0
   32.0600   35.3600   10.0340 C   0  0  0  0  0  0  0  0  0  0  0  0
   32.5340   36.3970   11.0190 C   0  0  0  0  0  0  0  0  0  0  0  0
   32.5290   35.8370   12.4330 C   0  0  0  0  0  0  0  0  0  0  0  0
   31.8380   36.7960   13.3830 C   0  0  0  0  0  0  0  0  0  0  0  0
   30.4910   36.2910   13.7690 N   0  0  0  0  0  0  0  0  0  0  0  0
  1  2  1  0  0  0  0
  2  3  1  0  0  0  0
  3  4  1  0  0  0  0
  4  5  1  0  0  0  0
  5  6  1  0  0  0  0
M  END
>  <EGIN_R>
ES LYS A 135

>  <REMARK>
  4 active torsions:
  status: ('A' for Active; 'I' for Inactive)
    5  A    between atoms: CA   and  CB  
    6  A    between atoms: CB   and  CG  
    7  A    between atoms: CG   and  CD  
    8  A    between atoms: CD   and  CE  

$$$$
