ligand_38_pose_1_2HRL.pdbqt
 OpenBabel07062320523D

 51 52  0  0  1  0  0  0  0  0999 V2000
   27.6070   28.7510   17.8300 N   0  0  0  0  0  0  0  0  0  0  0  0
   26.9270   29.4850   16.8300 C   0  0  0  0  0  0  0  0  0  0  0  0
   25.6700   29.3520   16.6670 O   0  0  0  0  0  0  0  0  0  0  0  0
   28.6340   28.8910   17.9290 H   0  0  0  0  0  0  0  0  0  0  0  0
   26.8210   27.8600   18.6410 C   0  0  0  0  0  0  0  0  0  0  0  0
   26.9110   28.2360   20.1270 C   0  0  2  0  0  0  0  0  0  0  0  0
   27.9770   27.3690   20.6980 C   0  0  2  0  0  0  0  0  0  0  0  0
   29.1860   28.0740   21.2400 C   0  0  2  0  0  0  0  0  0  0  0  0
   30.5670   29.8250   20.5450 C   0  0  2  0  0  0  0  0  0  0  0  0
   31.6960   29.1400   21.2910 C   0  0  0  0  0  0  0  0  0  0  0  0
   29.6150   28.9000   20.1940 O   0  0  0  0  0  0  0  0  0  0  0  0
   31.5880   27.6290   21.1690 C   0  0  1  0  0  0  0  0  0  0  0  0
   30.2490   27.2180   21.8110 C   0  0  1  0  0  0  0  0  0  0  0  0
   31.1350   30.2570   19.3270 O   0  0  0  0  0  0  0  0  0  0  0  0
   30.9890   31.2090   19.1710 H   0  0  0  0  0  0  0  0  0  0  0  0
   30.0670   31.0120   21.2430 C   0  0  0  0  0  0  0  0  0  0  0  0
   30.2830   31.1610   22.4680 O   0  0  0  0  0  0  0  0  0  0  0  0
   29.3440   32.0120   20.6100 O   0  0  0  0  0  0  0  0  0  0  0  0
   29.7360   32.4690   19.8100 H   0  0  0  0  0  0  0  0  0  0  0  0
   31.6870   27.2170   19.8660 O   0  0  0  0  0  0  0  0  0  0  0  0
   32.4330   27.7310   19.4210 H   0  0  0  0  0  0  0  0  0  0  0  0
   30.4500   27.4840   23.2410 N   0  0  0  0  0  0  0  0  0  0  0  0
   30.1590   26.5030   24.2270 C   0  0  0  0  0  0  0  0  0  0  0  0
   30.8090   28.3970   23.5970 H   0  0  0  0  0  0  0  0  0  0  0  0
   30.3700   26.8000   25.6890 C   0  0  0  0  0  0  0  0  0  0  0  0
   29.7260   25.3800   23.9240 O   0  0  0  0  0  0  0  0  0  0  0  0
   28.4670   26.5950   19.6120 O   0  0  0  0  0  0  0  0  0  0  0  0
   28.9010   25.8070   20.0450 H   0  0  0  0  0  0  0  0  0  0  0  0
   25.6410   28.0070   20.6490 O   0  0  0  0  0  0  0  0  0  0  0  0
   25.4030   27.0690   20.4870 H   0  0  0  0  0  0  0  0  0  0  0  0
   27.5620   30.3780   15.9800 O   0  0  0  0  0  0  0  0  0  0  0  0
   28.9510   30.3440   15.7030 C   0  0  0  0  0  0  0  0  0  0  0  0
   29.6670   31.4540   16.3860 C   0  0  0  0  0  0  0  0  0  0  0  0
   30.7240   32.2030   15.8580 C   0  0  0  0  0  0  0  0  0  0  0  0
   29.4630   31.9640   17.6140 N   0  0  0  0  0  0  0  0  0  0  0  0
   31.0990   33.1060   16.7700 N   0  0  0  0  0  0  0  0  0  0  0  0
   30.3220   32.9420   17.8230 N   0  0  0  0  0  0  0  0  0  0  0  0
   32.1480   34.0980   16.6790 C   0  0  0  0  0  0  0  0  0  0  0  0
   32.0980   34.7760   15.3580 C   0  0  0  0  0  0  0  0  0  0  0  0
   33.1430   34.6750   14.4650 C   0  0  0  0  0  0  0  0  0  0  0  0
   31.0030   35.5160   15.0070 C   0  0  0  0  0  0  0  0  0  0  0  0
   33.0990   35.3120   13.2220 C   0  0  0  0  0  0  0  0  0  0  0  0
   30.9480   36.1560   13.7700 C   0  0  0  0  0  0  0  0  0  0  0  0
   32.0010   36.0510   12.8760 C   0  0  0  0  0  0  0  0  0  0  0  0
   29.4110   37.1750   13.3180 Br  0  0  0  0  0  0  0  0  0  0  0  0
   29.8670   25.5550   16.9770 C   0  0  0  0  0  0  0  0  0  0  0  0
   28.3450   25.7220   17.0260 C   0  0  0  0  0  0  0  0  0  0  0  0
   27.6010   24.4020   16.8940 C   0  0  0  0  0  0  0  0  0  0  0  0
   26.1520   24.5280   17.2750 C   0  0  0  0  0  0  0  0  0  0  0  0
   25.5870   23.1470   17.5900 C   0  0  0  0  0  0  0  0  0  0  0  0
   24.1890   23.0360   17.1100 N   0  0  0  0  0  0  0  0  0  0  0  0
  1  4  1  0  0  0  0
  1  5  1  0  0  0  0
  2  1  1  0  0  0  0
  3  2  2  0  0  0  0
  6  5  1  6  0  0  0
  6 29  1  0  0  0  0
  6  7  1  0  0  0  0
  7 27  1  6  0  0  0
  8  7  1  6  0  0  0
  8 13  1  0  0  0  0
  9 14  1  6  0  0  0
  9 16  1  0  0  0  0
  9 10  1  0  0  0  0
 11  9  1  0  0  0  0
 11  8  1  0  0  0  0
 12 20  1  6  0  0  0
 12 10  1  0  0  0  0
 12 13  1  0  0  0  0
 13 22  1  1  0  0  0
 15 14  1  0  0  0  0
 16 17  2  0  0  0  0
 18 16  1  0  0  0  0
 19 18  1  0  0  0  0
 21 20  1  0  0  0  0
 22 24  1  0  0  0  0
 22 23  1  0  0  0  0
 23 25  1  0  0  0  0
 26 23  2  0  0  0  0
 27 28  1  0  0  0  0
 30 29  1  0  0  0  0
 31  2  1  0  0  0  0
 32 31  1  0  0  0  0
 32 33  1  0  0  0  0
 33 35  1  0  0  0  0
 34 33  2  0  0  0  0
 34 36  1  0  0  0  0
 35 37  2  0  0  0  0
 36 37  1  0  0  0  0
 38 36  1  0  0  0  0
 39 38  1  0  0  0  0
 40 39  2  0  0  0  0
 41 39  1  0  0  0  0
 42 40  1  0  0  0  0
 43 41  2  0  0  0  0
 44 42  2  0  0  0  0
 44 43  1  0  0  0  0
 45 43  1  0  0  0  0
 46 47  1  0  0  0  0
 48 47  1  0  0  0  0
 48 49  1  0  0  0  0
 49 50  1  0  0  0  0
 51 50  1  0  0  0  0
M  END
>  <REMARK>
 VINA RESULT:    -5.087      4.433      8.482
 INTER + INTRA:         -15.396
 INTER:                  -9.139
 INTRA:                  -6.257
 UNBOUND:                -6.295
 SMILES CC(=O)N[C@@H]1[C@@H](O)C[C@](O)(C(=O)O)O[C@H]1C(O)[C@H](O)CNC(=O)OCc1cn(Cc2cccc(Br)c2)nn1
 SMILES IDX 21 1 22 2 23 3 20 5 18 6 16 7 15 8 9 9 8 10 14 11 6 12 5 13
 SMILES IDX 10 14 11 16 12 17 13 18 7 20 4 22 2 23 1 25 3 26 17 27 19 29
 SMILES IDX 24 31 25 32 26 33 27 34 38 35 28 36 37 37 29 38 30 39 31 40
 SMILES IDX 36 41 32 42 34 43 33 44 35 45
 H PARENT 21 4 10 15 13 19 7 21 4 24 17 28 19 30
 Flexibility Score: inf
  4 active torsions:
  status: ('A' for Active; 'I' for Inactive)
    1  A    between atoms: CA   and  CB  
    2  A    between atoms: CB   and  CG  
    3  A    between atoms: CG   and  CD  
    4  A    between atoms: CD   and  CE  

>  <TORSDO>
F 16

>  <BEGIN_>
RES LYS A 131

$$$$
ligand_38_pose_1_2HRL.pdbqt
 OpenBabel07062320523D

  6  5  0  0  0  0  0  0  0  0999 V2000
   33.1930   34.6630    9.2900 C   0  0  0  0  0  0  0  0  0  0  0  0
   32.0600   35.3600   10.0340 C   0  0  0  0  0  0  0  0  0  0  0  0
   30.8820   35.6980    9.1570 C   0  0  0  0  0  0  0  0  0  0  0  0
   30.3130   34.4420    8.5160 C   0  0  0  0  0  0  0  0  0  0  0  0
   28.8740   34.6650    8.0910 C   0  0  0  0  0  0  0  0  0  0  0  0
   28.8030   35.4670    6.8380 N   0  0  0  0  0  0  0  0  0  0  0  0
  1  2  1  0  0  0  0
  3  2  1  0  0  0  0
  4  3  1  0  0  0  0
  5  4  1  0  0  0  0
  6  5  1  0  0  0  0
M  END
>  <EGIN_R>
ES LYS A 135

>  <REMARK>
  4 active torsions:
  status: ('A' for Active; 'I' for Inactive)
    5  A    between atoms: CA   and  CB  
    6  A    between atoms: CB   and  CG  
    7  A    between atoms: CG   and  CD  
    8  A    between atoms: CD   and  CE  

$$$$
