ligand_48_pose_17_2HRL.pdbqt
 OpenBabel07062320523D

 49 50  0  0  1  0  0  0  0  0999 V2000
   29.5300   31.5850   15.4730 C   0  0  0  0  0  0  0  0  0  0  0  0
   30.9390   31.9400   15.9240 C   0  0  2  0  0  0  0  0  0  0  0  0
   30.8270   33.1210   16.8380 C   0  0  1  0  0  0  0  0  0  0  0  0
   30.2340   34.3620   16.2070 C   0  0  2  0  0  0  0  0  0  0  0  0
   31.8590   35.4600   14.9050 C   0  0  2  0  0  0  0  0  0  0  0  0
   31.5220   36.7940   15.5500 C   0  0  0  0  0  0  0  0  0  0  0  0
   30.7800   34.6460   14.9860 O   0  0  0  0  0  0  0  0  0  0  0  0
   31.0940   36.6140   16.9820 C   0  0  1  0  0  0  0  0  0  0  0  0
   30.0600   35.5160   17.1310 C   0  0  1  0  0  0  0  0  0  0  0  0
   33.0440   34.9440   15.4270 O   0  0  0  0  0  0  0  0  0  0  0  0
   33.1160   33.9820   15.1300 H   0  0  0  0  0  0  0  0  0  0  0  0
   32.0880   35.7680   13.4660 C   0  0  0  0  0  0  0  0  0  0  0  0
   31.9990   36.9470   13.0570 O   0  0  0  0  0  0  0  0  0  0  0  0
   32.3950   34.7620   12.5960 O   0  0  0  0  0  0  0  0  0  0  0  0
   33.2330   34.1960   12.6420 H   0  0  0  0  0  0  0  0  0  0  0  0
   32.1890   36.4080   17.8100 O   0  0  0  0  0  0  0  0  0  0  0  0
   32.5700   35.5100   17.6500 H   0  0  0  0  0  0  0  0  0  0  0  0
   28.7230   36.1010   17.0020 N   0  0  0  0  0  0  0  0  0  0  0  0
   27.6830   35.5850   17.8030 C   0  0  0  0  0  0  0  0  0  0  0  0
   28.5280   36.8780   16.3420 H   0  0  0  0  0  0  0  0  0  0  0  0
   26.2860   36.1160   17.7440 C   0  0  0  0  0  0  0  0  0  0  0  0
   27.8640   34.6350   18.6300 O   0  0  0  0  0  0  0  0  0  0  0  0
   30.3400   32.8040   18.0790 O   0  0  0  0  0  0  0  0  0  0  0  0
   30.8270   32.0350   18.5130 H   0  0  0  0  0  0  0  0  0  0  0  0
   31.7070   32.1300   14.8000 O   0  0  0  0  0  0  0  0  0  0  0  0
   32.4450   31.5010   14.8010 H   0  0  0  0  0  0  0  0  0  0  0  0
   29.0910   30.4350   16.2280 N   0  0  0  0  0  0  0  0  0  0  0  0
   27.7720   29.9190   16.2380 C   0  0  0  0  0  0  0  0  0  0  0  0
   29.7800   29.8980   16.8400 H   0  0  0  0  0  0  0  0  0  0  0  0
   26.8850   30.4820   15.5510 O   0  0  0  0  0  0  0  0  0  0  0  0
   27.4340   28.8010   16.9950 O   0  0  0  0  0  0  0  0  0  0  0  0
   26.8410   28.9680   18.2580 C   0  0  0  0  0  0  0  0  0  0  0  0
   27.7530   29.7890   19.0960 C   0  0  0  0  0  0  0  0  0  0  0  0
   28.7250   29.3040   19.9810 C   0  0  0  0  0  0  0  0  0  0  0  0
   27.8590   31.1270   19.2050 N   0  0  0  0  0  0  0  0  0  0  0  0
   29.3550   30.3380   20.5660 N   0  0  0  0  0  0  0  0  0  0  0  0
   28.8050   31.4350   20.0740 N   0  0  0  0  0  0  0  0  0  0  0  0
   30.4280   30.2630   21.5480 C   0  0  0  0  0  0  0  0  0  0  0  0
   31.0890   28.9050   21.4560 C   0  0  0  0  0  0  0  0  0  0  0  0
   31.4730   31.3150   21.2510 C   0  0  0  0  0  0  0  0  0  0  0  0
   32.4300   28.9830   20.7520 C   0  0  0  0  0  0  0  0  0  0  0  0
   32.6590   31.0200   22.1520 C   0  0  0  0  0  0  0  0  0  0  0  0
   33.3820   29.8280   21.5560 C   0  0  0  0  0  0  0  0  0  0  0  0
   29.8670   25.5550   16.9770 C   0  0  0  0  0  0  0  0  0  0  0  0
   28.3450   25.7220   17.0260 C   0  0  0  0  0  0  0  0  0  0  0  0
   27.6010   24.4060   16.8580 C   0  0  0  0  0  0  0  0  0  0  0  0
   26.5150   24.2350   17.8850 C   0  0  0  0  0  0  0  0  0  0  0  0
   25.1600   24.1760   17.1880 C   0  0  0  0  0  0  0  0  0  0  0  0
   24.1600   24.9800   17.9290 N   0  0  0  0  0  0  0  0  0  0  0  0
  1 27  1  0  0  0  0
  2  1  1  6  0  0  0
  2  3  1  0  0  0  0
  3 23  1  1  0  0  0
  4  3  1  1  0  0  0
  4  9  1  0  0  0  0
  5 12  1  6  0  0  0
  5  7  1  0  0  0  0
  5 10  1  0  0  0  0
  5  6  1  0  0  0  0
  6  8  1  0  0  0  0
  7  4  1  0  0  0  0
  8  9  1  0  0  0  0
  8 16  1  1  0  0  0
  9 18  1  6  0  0  0
 11 10  1  0  0  0  0
 13 12  2  0  0  0  0
 14 15  1  0  0  0  0
 14 12  1  0  0  0  0
 17 16  1  0  0  0  0
 18 19  1  0  0  0  0
 19 22  2  0  0  0  0
 20 18  1  0  0  0  0
 21 19  1  0  0  0  0
 23 24  1  0  0  0  0
 25 26  1  0  0  0  0
 25  2  1  0  0  0  0
 27 28  1  0  0  0  0
 27 29  1  0  0  0  0
 28 31  1  0  0  0  0
 30 28  2  0  0  0  0
 31 32  1  0  0  0  0
 32 33  1  0  0  0  0
 33 35  1  0  0  0  0
 33 34  2  0  0  0  0
 34 36  1  0  0  0  0
 35 37  2  0  0  0  0
 36 38  1  0  0  0  0
 37 36  1  0  0  0  0
 39 38  1  0  0  0  0
 40 38  1  0  0  0  0
 40 42  1  0  0  0  0
 41 39  1  0  0  0  0
 41 43  1  0  0  0  0
 43 42  1  0  0  0  0
 44 45  1  0  0  0  0
 46 45  1  0  0  0  0
 46 47  1  0  0  0  0
 48 47  1  0  0  0  0
 48 49  1  0  0  0  0
M  END
>  <REMARK>
 VINA RESULT:    -4.642      2.986      7.018
 INTER + INTRA:         -13.830
 INTER:                  -8.034
 INTRA:                  -5.796
 UNBOUND:                -5.796
 SMILES CC(=O)N[C@@H]1[C@@H](O)C[C@](O)(C(=O)O)O[C@H]1C(O)[C@H](O)CNC(=O)OCc1cn(C2CCCCC2)nn1
 SMILES IDX 20 1 18 2 16 3 15 4 9 5 8 6 14 7 6 8 5 9 10 10 11 12 12 13
 SMILES IDX 13 14 7 16 4 18 2 19 1 21 3 22 17 23 19 25 21 27 22 28 23 30
 SMILES IDX 24 31 25 32 26 33 27 34 36 35 28 36 35 37 29 38 30 39 34 40
 SMILES IDX 31 41 33 42 32 43
 H PARENT 10 11 13 15 7 17 4 20 17 24 19 26 21 29
 Flexibility Score: inf
  4 active torsions:
  status: ('A' for Active; 'I' for Inactive)
    1  A    between atoms: CA   and  CB  
    2  A    between atoms: CB   and  CG  
    3  A    between atoms: CG   and  CD  
    4  A    between atoms: CD   and  CE  

>  <TORSDO>
F 15

>  <BEGIN_>
RES LYS A 131

$$$$
ligand_48_pose_17_2HRL.pdbqt
 OpenBabel07062320523D

  6  5  0  0  0  0  0  0  0  0999 V2000
   33.1930   34.6630    9.2900 C   0  0  0  0  0  0  0  0  0  0  0  0
   32.0600   35.3600   10.0340 C   0  0  0  0  0  0  0  0  0  0  0  0
   30.8210   35.5550    9.1990 C   0  0  0  0  0  0  0  0  0  0  0  0
   30.0780   34.2390    9.0260 C   0  0  0  0  0  0  0  0  0  0  0  0
   28.7390   34.4680    8.3510 C   0  0  0  0  0  0  0  0  0  0  0  0
   28.8880   35.3240    7.1420 N   0  0  0  0  0  0  0  0  0  0  0  0
  1  2  1  0  0  0  0
  3  2  1  0  0  0  0
  4  3  1  0  0  0  0
  5  4  1  0  0  0  0
  6  5  1  0  0  0  0
M  END
>  <EGIN_R>
ES LYS A 135

>  <REMARK>
  4 active torsions:
  status: ('A' for Active; 'I' for Inactive)
    5  A    between atoms: CA   and  CB  
    6  A    between atoms: CB   and  CG  
    7  A    between atoms: CG   and  CD  
    8  A    between atoms: CD   and  CE  

$$$$
