ligand_87_pose_7_2HRL.pdbqt
 OpenBabel07062320523D

 52 54  0  0  1  0  0  0  0  0999 V2000
   29.9000   40.2460    7.3260 C   0  0  0  0  0  0  0  0  0  0  0  0
   30.3360   38.8670    7.7260 C   0  0  2  0  0  0  0  0  0  0  0  0
   29.8770   38.5460    9.1440 C   0  0  2  0  0  0  0  0  0  0  0  0
   29.1710   37.1920    9.1070 C   0  0  2  0  0  0  0  0  0  0  0  0
   29.2650   35.2720    7.7740 C   0  0  2  0  0  0  0  0  0  0  0  0
   27.8290   35.3550    7.3630 C   0  0  0  0  0  0  0  0  0  0  0  0
   29.8210   36.4230    8.2270 O   0  0  0  0  0  0  0  0  0  0  0  0
   27.1320   36.6140    7.7530 C   0  0  1  0  0  0  0  0  0  0  0  0
   27.6830   37.3250    8.9440 C   0  0  1  0  0  0  0  0  0  0  0  0
   30.0100   34.8910    6.6540 O   0  0  0  0  0  0  0  0  0  0  0  0
   29.4540   34.4750    5.9520 H   0  0  0  0  0  0  0  0  0  0  0  0
   29.4980   34.2260    8.7920 C   0  0  0  0  0  0  0  0  0  0  0  0
   28.5280   33.7120    9.3870 O   0  0  0  0  0  0  0  0  0  0  0  0
   30.7590   33.7580    9.1480 O   0  0  0  0  0  0  0  0  0  0  0  0
   31.3920   33.3760    8.4280 H   0  0  0  0  0  0  0  0  0  0  0  0
   27.1290   37.4510    6.6280 O   0  0  0  0  0  0  0  0  0  0  0  0
   26.5960   38.2610    6.8090 H   0  0  0  0  0  0  0  0  0  0  0  0
   26.9860   37.0720   10.1760 N   0  0  0  0  0  0  0  0  0  0  0  0
   26.3120   38.0650   10.9230 C   0  0  0  0  0  0  0  0  0  0  0  0
   26.9610   36.0930   10.5700 H   0  0  0  0  0  0  0  0  0  0  0  0
   25.5910   37.8280   12.1920 C   0  0  0  0  0  0  0  0  0  0  0  0
   26.3510   39.2210   10.4380 O   0  0  0  0  0  0  0  0  0  0  0  0
   29.0460   39.5260    9.6600 O   0  0  0  0  0  0  0  0  0  0  0  0
   29.2100   40.3620    9.1540 H   0  0  0  0  0  0  0  0  0  0  0  0
   31.6890   38.6920    7.6710 O   0  0  0  0  0  0  0  0  0  0  0  0
   31.9310   37.7650    7.9640 H   0  0  0  0  0  0  0  0  0  0  0  0
   28.5530   40.2940    6.8700 N   0  0  0  0  0  0  0  0  0  0  0  0
   28.1390   40.7490    5.6060 C   0  0  0  0  0  0  0  0  0  0  0  0
   27.7780   39.9610    7.5270 H   0  0  0  0  0  0  0  0  0  0  0  0
   28.9360   41.1720    4.7480 O   0  0  0  0  0  0  0  0  0  0  0  0
   26.7680   40.7300    5.2860 O   0  0  0  0  0  0  0  0  0  0  0  0
   25.8960   41.5760    6.0080 C   0  0  0  0  0  0  0  0  0  0  0  0
   24.8260   40.8000    6.6360 C   0  0  0  0  0  0  0  0  0  0  0  0
   24.9880   39.5850    7.2920 C   0  0  0  0  0  0  0  0  0  0  0  0
   23.5300   41.1010    6.6940 N   0  0  0  0  0  0  0  0  0  0  0  0
   23.7820   39.1970    7.7230 N   0  0  0  0  0  0  0  0  0  0  0  0
   22.9280   40.1260    7.3500 N   0  0  0  0  0  0  0  0  0  0  0  0
   23.4460   38.0030    8.4580 C   0  0  1  0  0  0  0  0  0  0  0  0
   22.6680   38.4020    9.7120 C   0  0  0  0  0  0  0  0  0  0  0  0
   22.5200   37.1900    7.5800 C   0  0  0  0  0  0  0  0  0  0  0  0
   22.1050   37.1570   10.3410 C   0  0  1  0  0  0  0  0  0  0  0  0
   21.8560   36.1090    8.3700 C   0  0  2  0  0  0  0  0  0  0  0  0
   21.0890   36.5830    9.4790 N   0  0  0  0  0  0  0  0  0  0  0  0
   23.1530   36.0600   10.3550 C   0  0  0  0  0  0  0  0  0  0  0  0
   22.9700   35.3170    9.0670 C   0  0  0  0  0  0  0  0  0  0  0  0
   20.0610   37.5180    9.1230 C   0  0  0  0  0  0  0  0  0  0  0  0
   29.8670   25.5550   16.9770 C   0  0  0  0  0  0  0  0  0  0  0  0
   28.3450   25.7220   17.0260 C   0  0  0  0  0  0  0  0  0  0  0  0
   27.6010   24.4010   16.9030 C   0  0  0  0  0  0  0  0  0  0  0  0
   26.6430   24.1830   18.0410 C   0  0  0  0  0  0  0  0  0  0  0  0
   25.5330   23.2360   17.5970 C   0  0  0  0  0  0  0  0  0  0  0  0
   24.4700   23.9810   16.8820 N   0  0  0  0  0  0  0  0  0  0  0  0
  2  1  1  1  0  0  0
  2  3  1  0  0  0  0
  3 23  1  6  0  0  0
  4  3  1  6  0  0  0
  5 10  1  6  0  0  0
  5  7  1  0  0  0  0
  5 12  1  0  0  0  0
  6  8  1  0  0  0  0
  6  5  1  0  0  0  0
  7  4  1  0  0  0  0
  8 16  1  6  0  0  0
  8  9  1  0  0  0  0
  9  4  1  0  0  0  0
  9 18  1  1  0  0  0
 11 10  1  0  0  0  0
 12 14  1  0  0  0  0
 12 13  2  0  0  0  0
 15 14  1  0  0  0  0
 16 17  1  0  0  0  0
 18 20  1  0  0  0  0
 18 19  1  0  0  0  0
 19 21  1  0  0  0  0
 22 19  2  0  0  0  0
 24 23  1  0  0  0  0
 25  2  1  0  0  0  0
 25 26  1  0  0  0  0
 27  1  1  0  0  0  0
 27 29  1  0  0  0  0
 28 27  1  0  0  0  0
 30 28  2  0  0  0  0
 31 28  1  0  0  0  0
 31 32  1  0  0  0  0
 32 33  1  0  0  0  0
 33 35  1  0  0  0  0
 33 34  2  0  0  0  0
 34 36  1  0  0  0  0
 35 37  2  0  0  0  0
 36 38  1  0  0  0  0
 37 36  1  0  0  0  0
 38 40  1  6  0  0  0
 38 39  1  0  0  0  0
 41 39  1  6  0  0  0
 41 44  1  0  0  0  0
 42 40  1  1  0  0  0
 42 45  1  0  0  0  0
 42 43  1  0  0  0  0
 43 41  1  0  0  0  0
 45 44  1  0  0  0  0
 46 43  1  0  0  0  0
 47 48  1  0  0  0  0
 49 48  1  0  0  0  0
 49 50  1  0  0  0  0
 51 50  1  0  0  0  0
 52 51  1  0  0  0  0
M  END
>  <REMARK>
 VINA RESULT:    -5.378      7.439     13.390
 INTER + INTRA:         -14.809
 INTER:                  -9.233
 INTRA:                  -5.576
 UNBOUND:                -5.502
 SMILES CC(=O)N[C@@H]1[C@@H](O)C[C@](O)(C(=O)O)O[C@H]1C(O)[C@H](O)CNC(=O)OCc1cn([C@@H]2C[C@H]3CC[C@@H](C2)N3C)nn1
 SMILES IDX 20 1 18 2 16 3 15 4 9 5 8 6 14 7 6 8 5 9 10 10 11 12 12 13
 SMILES IDX 13 14 7 16 4 18 2 19 1 21 3 22 17 23 19 25 21 27 22 28 23 30
 SMILES IDX 24 31 25 32 26 33 27 34 39 35 28 36 38 37 29 38 35 39 30 40
 SMILES IDX 34 41 31 42 36 43 33 44 32 45 37 46
 H PARENT 10 11 13 15 7 17 4 20 17 24 19 26 21 29
 Flexibility Score: inf
  4 active torsions:
  status: ('A' for Active; 'I' for Inactive)
    1  A    between atoms: CA   and  CB  
    2  A    between atoms: CB   and  CG  
    3  A    between atoms: CG   and  CD  
    4  A    between atoms: CD   and  CE  

>  <TORSDO>
F 15

>  <BEGIN_>
RES LYS A 131

$$$$
ligand_87_pose_7_2HRL.pdbqt
 OpenBabel07062320523D

  6  5  0  0  0  0  0  0  0  0999 V2000
   33.1930   34.6630    9.2900 C   0  0  0  0  0  0  0  0  0  0  0  0
   32.0600   35.3600   10.0340 C   0  0  0  0  0  0  0  0  0  0  0  0
   32.5080   36.0690   11.2860 C   0  0  0  0  0  0  0  0  0  0  0  0
   31.3500   36.2180   12.2610 C   0  0  0  0  0  0  0  0  0  0  0  0
   30.7280   34.8680   12.5590 C   0  0  0  0  0  0  0  0  0  0  0  0
   29.2430   34.9260   12.4520 N   0  0  0  0  0  0  0  0  0  0  0  0
  1  2  1  0  0  0  0
  2  3  1  0  0  0  0
  3  4  1  0  0  0  0
  4  5  1  0  0  0  0
  6  5  1  0  0  0  0
M  END
>  <EGIN_R>
ES LYS A 135

>  <REMARK>
  4 active torsions:
  status: ('A' for Active; 'I' for Inactive)
    5  A    between atoms: CA   and  CB  
    6  A    between atoms: CB   and  CG  
    7  A    between atoms: CG   and  CD  
    8  A    between atoms: CD   and  CE  

$$$$
