ligand_28_pose_7_2HRL.pdbqt
 OpenBabel07062320523D

 53 55  0  0  1  0  0  0  0  0999 V2000
   27.3120   36.2110   12.9760 N   0  0  0  0  0  0  0  0  0  0  0  0
   27.2220   37.5700   13.3870 C   0  0  0  0  0  0  0  0  0  0  0  0
   26.1710   37.9780   13.9790 O   0  0  0  0  0  0  0  0  0  0  0  0
   28.1740   35.9090   12.4990 H   0  0  0  0  0  0  0  0  0  0  0  0
   26.1860   35.3570   13.2590 C   0  0  0  0  0  0  0  0  0  0  0  0
   25.7090   34.5810   12.0720 C   0  0  2  0  0  0  0  0  0  0  0  0
   24.6160   35.2940   11.3090 C   0  0  2  0  0  0  0  0  0  0  0  0
   25.1220   35.7470    9.9420 C   0  0  2  0  0  0  0  0  0  0  0  0
   26.5030   37.6030    9.7550 C   0  0  2  0  0  0  0  0  0  0  0  0
   25.8950   38.0490    8.4450 C   0  0  0  0  0  0  0  0  0  0  0  0
   26.3820   36.2660   10.0000 O   0  0  0  0  0  0  0  0  0  0  0  0
   24.7820   37.1280    7.9900 C   0  0  1  0  0  0  0  0  0  0  0  0
   24.1080   36.6090    9.2390 C   0  0  1  0  0  0  0  0  0  0  0  0
   25.9890   38.3650   10.8220 O   0  0  0  0  0  0  0  0  0  0  0  0
   25.8520   37.8350   11.6280 H   0  0  0  0  0  0  0  0  0  0  0  0
   27.9540   37.9260    9.6840 C   0  0  0  0  0  0  0  0  0  0  0  0
   28.3880   38.7350    8.8090 O   0  0  0  0  0  0  0  0  0  0  0  0
   28.9000   37.3850   10.5380 O   0  0  0  0  0  0  0  0  0  0  0  0
   29.8790   37.6480   10.3900 H   0  0  0  0  0  0  0  0  0  0  0  0
   23.8970   37.7780    7.1350 O   0  0  0  0  0  0  0  0  0  0  0  0
   24.2880   37.7510    6.2280 H   0  0  0  0  0  0  0  0  0  0  0  0
   22.9180   35.8760    8.9910 N   0  0  0  0  0  0  0  0  0  0  0  0
   21.6300   36.4680    9.0570 C   0  0  0  0  0  0  0  0  0  0  0  0
   23.0230   34.8470    8.7480 H   0  0  0  0  0  0  0  0  0  0  0  0
   20.3940   35.6660    8.7880 C   0  0  0  0  0  0  0  0  0  0  0  0
   21.5860   37.6900    9.3500 O   0  0  0  0  0  0  0  0  0  0  0  0
   24.2850   36.4460   12.0210 O   0  0  0  0  0  0  0  0  0  0  0  0
   23.3360   36.4070   12.2960 H   0  0  0  0  0  0  0  0  0  0  0  0
   25.2390   33.3520   12.5320 O   0  0  0  0  0  0  0  0  0  0  0  0
   24.9780   32.7510   11.7920 H   0  0  0  0  0  0  0  0  0  0  0  0
   28.2430   38.4890   13.1700 O   0  0  0  0  0  0  0  0  0  0  0  0
   29.2060   38.6870   14.2000 C   0  0  0  0  0  0  0  0  0  0  0  0
   30.3380   37.7460   14.0380 C   0  0  0  0  0  0  0  0  0  0  0  0
   31.0390   37.1860   15.0670 C   0  0  0  0  0  0  0  0  0  0  0  0
   30.8800   37.2780   12.9140 N   0  0  0  0  0  0  0  0  0  0  0  0
   31.9840   36.3970   14.5380 N   0  0  0  0  0  0  0  0  0  0  0  0
   31.8760   36.4620   13.2330 N   0  0  0  0  0  0  0  0  0  0  0  0
   32.9420   35.6200   15.2940 C   0  0  0  0  0  0  0  0  0  0  0  0
   32.2070   34.4550   15.8620 C   0  0  0  0  0  0  0  0  0  0  0  0
   31.8950   33.4020   15.0330 C   0  0  0  0  0  0  0  0  0  0  0  0
   31.8330   34.4000   17.1810 C   0  0  0  0  0  0  0  0  0  0  0  0
   31.2090   32.3040   15.5410 C   0  0  0  0  0  0  0  0  0  0  0  0
   31.1520   33.3090   17.6820 C   0  0  0  0  0  0  0  0  0  0  0  0
   30.8350   32.2550   16.8690 C   0  0  0  0  0  0  0  0  0  0  0  0
   30.6840   33.0450   18.9560 O   0  0  0  0  0  0  0  0  0  0  0  0
   30.1620   31.2990   17.6010 O   0  0  0  0  0  0  0  0  0  0  0  0
   30.2630   31.6990   18.9610 C   0  0  0  0  0  0  0  0  0  0  0  0
   29.8670   25.5550   16.9770 C   0  0  0  0  0  0  0  0  0  0  0  0
   28.3450   25.7220   17.0260 C   0  0  0  0  0  0  0  0  0  0  0  0
   27.5990   24.4480   16.6600 C   0  0  0  0  0  0  0  0  0  0  0  0
   27.0130   23.7680   17.8660 C   0  0  0  0  0  0  0  0  0  0  0  0
   25.5550   23.4140   17.5920 C   0  0  0  0  0  0  0  0  0  0  0  0
   24.7770   24.6320   17.2620 N   0  0  0  0  0  0  0  0  0  0  0  0
  1  5  1  0  0  0  0
  1  2  1  0  0  0  0
  2  3  2  0  0  0  0
  4  1  1  0  0  0  0
  6 29  1  0  0  0  0
  6  5  1  1  0  0  0
  7 27  1  1  0  0  0
  7  6  1  0  0  0  0
  8 11  1  0  0  0  0
  8  7  1  1  0  0  0
  9 16  1  6  0  0  0
  9 11  1  0  0  0  0
  9 14  1  0  0  0  0
 10  9  1  0  0  0  0
 12 20  1  6  0  0  0
 12 10  1  0  0  0  0
 12 13  1  0  0  0  0
 13 22  1  6  0  0  0
 13  8  1  0  0  0  0
 14 15  1  0  0  0  0
 16 18  1  0  0  0  0
 17 16  2  0  0  0  0
 19 18  1  0  0  0  0
 21 20  1  0  0  0  0
 22 23  1  0  0  0  0
 23 26  2  0  0  0  0
 24 22  1  0  0  0  0
 25 23  1  0  0  0  0
 27 28  1  0  0  0  0
 30 29  1  0  0  0  0
 31  2  1  0  0  0  0
 31 32  1  0  0  0  0
 33 32  1  0  0  0  0
 33 34  2  0  0  0  0
 35 37  2  0  0  0  0
 35 33  1  0  0  0  0
 36 34  1  0  0  0  0
 36 38  1  0  0  0  0
 37 36  1  0  0  0  0
 38 39  1  0  0  0  0
 39 41  2  0  0  0  0
 40 42  2  0  0  0  0
 40 39  1  0  0  0  0
 41 43  1  0  0  0  0
 42 44  1  0  0  0  0
 43 45  1  0  0  0  0
 44 46  1  0  0  0  0
 44 43  2  0  0  0  0
 45 47  1  0  0  0  0
 46 47  1  0  0  0  0
 48 49  1  0  0  0  0
 50 49  1  0  0  0  0
 50 51  1  0  0  0  0
 52 51  1  0  0  0  0
 53 52  1  0  0  0  0
M  END
>  <REMARK>
 VINA RESULT:    -5.115      2.498      4.061
 INTER + INTRA:         -15.155
 INTER:                  -8.188
 INTRA:                  -6.966
 UNBOUND:                -6.003
 SMILES CC(=O)N[C@@H]1[C@@H](O)C[C@](O)(C(=O)O)O[C@H]1C(O)[C@H](O)CNC(=O)OCc1cn(Cc2ccc3c(c2)OCO3)nn1
 SMILES IDX 21 1 22 2 23 3 20 5 18 6 16 7 15 8 9 9 8 10 14 11 6 12 5 13
 SMILES IDX 10 14 11 16 12 17 13 18 7 20 4 22 2 23 1 25 3 26 17 27 19 29
 SMILES IDX 24 31 25 32 26 33 27 34 40 35 28 36 39 37 29 38 30 39 31 40
 SMILES IDX 35 41 32 42 34 43 33 44 36 45 38 46 37 47
 H PARENT 21 4 10 15 13 19 7 21 4 24 17 28 19 30
 Flexibility Score: inf
  4 active torsions:
  status: ('A' for Active; 'I' for Inactive)
    1  A    between atoms: CA   and  CB  
    2  A    between atoms: CB   and  CG  
    3  A    between atoms: CG   and  CD  
    4  A    between atoms: CD   and  CE  

>  <TORSDO>
F 16

>  <BEGIN_>
RES LYS A 131

$$$$
ligand_28_pose_7_2HRL.pdbqt
 OpenBabel07062320523D

  6  5  0  0  0  0  0  0  0  0999 V2000
   33.1930   34.6630    9.2900 C   0  0  0  0  0  0  0  0  0  0  0  0
   32.0600   35.3600   10.0340 C   0  0  0  0  0  0  0  0  0  0  0  0
   30.7370   34.6470    9.9210 C   0  0  0  0  0  0  0  0  0  0  0  0
   30.3170   34.5230    8.4650 C   0  0  0  0  0  0  0  0  0  0  0  0
   28.8060   34.4600    8.3500 C   0  0  0  0  0  0  0  0  0  0  0  0
   28.2130   33.6950    9.4820 N   0  0  0  0  0  0  0  0  0  0  0  0
  1  2  1  0  0  0  0
  3  2  1  0  0  0  0
  4  3  1  0  0  0  0
  5  4  1  0  0  0  0
  5  6  1  0  0  0  0
M  END
>  <EGIN_R>
ES LYS A 135

>  <REMARK>
  4 active torsions:
  status: ('A' for Active; 'I' for Inactive)
    5  A    between atoms: CA   and  CB  
    6  A    between atoms: CB   and  CG  
    7  A    between atoms: CG   and  CD  
    8  A    between atoms: CD   and  CE  

$$$$
