ligand_40_pose_8_2HRL.pdbqt
 OpenBabel07062320523D

 50 51  0  0  1  0  0  0  0  0999 V2000
   24.7490   41.2070    5.8050 C   0  0  0  0  0  0  0  0  0  0  0  0
   25.0040   40.1110    6.7540 C   0  0  2  0  0  0  0  0  0  0  0  0
   26.3610   39.4850    6.8110 C   0  0  2  0  0  0  0  0  0  0  0  0
   26.5430   38.3540    7.7720 C   0  0  2  0  0  0  0  0  0  0  0  0
   28.8510   37.9740    7.6190 C   0  0  2  0  0  0  0  0  0  0  0  0
   28.6750   36.5240    7.2020 C   0  0  0  0  0  0  0  0  0  0  0  0
   27.8180   38.4710    8.3480 O   0  0  0  0  0  0  0  0  0  0  0  0
   27.3090   36.3590    6.5560 C   0  0  1  0  0  0  0  0  0  0  0  0
   26.2200   36.9730    7.3740 C   0  0  1  0  0  0  0  0  0  0  0  0
   29.1610   38.6800    6.4810 O   0  0  0  0  0  0  0  0  0  0  0  0
   30.1070   38.6020    6.1930 H   0  0  0  0  0  0  0  0  0  0  0  0
   30.0530   37.9800    8.5100 C   0  0  0  0  0  0  0  0  0  0  0  0
   29.9520   38.0370    9.7720 O   0  0  0  0  0  0  0  0  0  0  0  0
   31.3180   37.9250    7.9630 O   0  0  0  0  0  0  0  0  0  0  0  0
   31.4370   37.5490    7.0190 H   0  0  0  0  0  0  0  0  0  0  0  0
   27.4030   37.0810    5.3650 O   0  0  0  0  0  0  0  0  0  0  0  0
   26.7290   37.8070    5.3210 H   0  0  0  0  0  0  0  0  0  0  0  0
   25.9240   36.2450    8.5930 N   0  0  0  0  0  0  0  0  0  0  0  0
   24.6340   36.1350    9.1370 C   0  0  0  0  0  0  0  0  0  0  0  0
   26.7430   35.7970    9.0540 H   0  0  0  0  0  0  0  0  0  0  0  0
   24.3020   35.4030   10.3740 C   0  0  0  0  0  0  0  0  0  0  0  0
   23.7240   36.7090    8.5080 O   0  0  0  0  0  0  0  0  0  0  0  0
   27.1830   40.5120    7.4720 O   0  0  0  0  0  0  0  0  0  0  0  0
   27.6860   40.0430    8.1890 H   0  0  0  0  0  0  0  0  0  0  0  0
   23.9630   39.1960    6.7960 O   0  0  0  0  0  0  0  0  0  0  0  0
   23.8200   38.7560    5.9030 H   0  0  0  0  0  0  0  0  0  0  0  0
   25.9320   41.9840    5.4270 N   0  0  0  0  0  0  0  0  0  0  0  0
   26.4320   41.9840    4.1050 C   0  0  0  0  0  0  0  0  0  0  0  0
   26.4660   42.5670    6.1230 H   0  0  0  0  0  0  0  0  0  0  0  0
   25.8670   41.3140    3.2340 O   0  0  0  0  0  0  0  0  0  0  0  0
   27.5570   42.7160    3.7220 O   0  0  0  0  0  0  0  0  0  0  0  0
   28.7480   42.0360    3.4030 C   0  0  0  0  0  0  0  0  0  0  0  0
   29.5520   41.6970    4.5810 C   0  0  0  0  0  0  0  0  0  0  0  0
   30.8910   41.3680    4.5250 C   0  0  0  0  0  0  0  0  0  0  0  0
   29.2320   41.6240    5.8880 N   0  0  0  0  0  0  0  0  0  0  0  0
   31.3500   41.1070    5.7670 N   0  0  0  0  0  0  0  0  0  0  0  0
   30.3180   41.2720    6.5670 N   0  0  0  0  0  0  0  0  0  0  0  0
   32.6610   40.7290    6.1820 C   0  0  0  0  0  0  0  0  0  0  0  0
   33.3660   39.7520    5.5100 C   0  0  0  0  0  0  0  0  0  0  0  0
   33.2840   41.3150    7.2650 C   0  0  0  0  0  0  0  0  0  0  0  0
   34.6360   39.3750    5.9000 C   0  0  0  0  0  0  0  0  0  0  0  0
   34.5520   40.9430    7.6610 C   0  0  0  0  0  0  0  0  0  0  0  0
   35.2510   39.9660    6.9840 C   0  0  0  0  0  0  0  0  0  0  0  0
   36.6150   39.5940    7.4430 C   0  0  0  0  0  0  0  0  0  0  0  0
   29.8670   25.5550   16.9770 C   0  0  0  0  0  0  0  0  0  0  0  0
   28.3450   25.7220   17.0260 C   0  0  0  0  0  0  0  0  0  0  0  0
   27.6010   24.4010   16.9000 C   0  0  0  0  0  0  0  0  0  0  0  0
   26.1510   24.5300   17.2750 C   0  0  0  0  0  0  0  0  0  0  0  0
   25.9570   24.0820   18.7200 C   0  0  0  0  0  0  0  0  0  0  0  0
   24.7350   24.6930   19.2930 N   0  0  0  0  0  0  0  0  0  0  0  0
  2  1  1  6  0  0  0
  2 25  1  0  0  0  0
  2  3  1  0  0  0  0
  3 23  1  1  0  0  0
  4  3  1  6  0  0  0
  4  7  1  0  0  0  0
  5 10  1  6  0  0  0
  5  7  1  0  0  0  0
  5 12  1  0  0  0  0
  6  5  1  0  0  0  0
  8 16  1  6  0  0  0
  8  6  1  0  0  0  0
  8  9  1  0  0  0  0
  9  4  1  0  0  0  0
  9 18  1  1  0  0  0
 11 10  1  0  0  0  0
 12 13  2  0  0  0  0
 14 12  1  0  0  0  0
 15 14  1  0  0  0  0
 17 16  1  0  0  0  0
 18 20  1  0  0  0  0
 18 19  1  0  0  0  0
 19 21  1  0  0  0  0
 22 19  2  0  0  0  0
 23 24  1  0  0  0  0
 26 25  1  0  0  0  0
 27  1  1  0  0  0  0
 27 29  1  0  0  0  0
 28 27  1  0  0  0  0
 30 28  2  0  0  0  0
 31 28  1  0  0  0  0
 32 31  1  0  0  0  0
 32 33  1  0  0  0  0
 33 35  1  0  0  0  0
 34 33  2  0  0  0  0
 34 36  1  0  0  0  0
 35 37  2  0  0  0  0
 36 38  1  0  0  0  0
 36 37  1  0  0  0  0
 38 40  2  0  0  0  0
 39 41  2  0  0  0  0
 39 38  1  0  0  0  0
 40 42  1  0  0  0  0
 41 43  1  0  0  0  0
 43 44  1  0  0  0  0
 43 42  2  0  0  0  0
 45 46  1  0  0  0  0
 47 46  1  0  0  0  0
 47 48  1  0  0  0  0
 48 49  1  0  0  0  0
 49 50  1  0  0  0  0
M  END
>  <REMARK>
 VINA RESULT:    -5.243      6.781     12.460
 INTER + INTRA:         -14.086
 INTER:                  -8.696
 INTRA:                  -5.389
 UNBOUND:                -5.012
 SMILES CC(=O)N[C@@H]1[C@@H](O)C[C@](O)(C(=O)O)O[C@H]1C(O)[C@H](O)CNC(=O)OCc1cn(-c2ccc(C)cc2)nn1
 SMILES IDX 20 1 18 2 16 3 15 4 9 5 8 6 14 7 6 8 5 9 10 10 11 12 12 13
 SMILES IDX 13 14 7 16 4 18 2 19 1 21 3 22 17 23 19 25 21 27 22 28 23 30
 SMILES IDX 24 31 25 32 26 33 27 34 37 35 28 36 36 37 29 38 30 39 35 40
 SMILES IDX 31 41 34 42 32 43 33 44
 H PARENT 10 11 13 15 7 17 4 20 17 24 19 26 21 29
 Flexibility Score: inf
  4 active torsions:
  status: ('A' for Active; 'I' for Inactive)
    1  A    between atoms: CA   and  CB  
    2  A    between atoms: CB   and  CG  
    3  A    between atoms: CG   and  CD  
    4  A    between atoms: CD   and  CE  

>  <TORSDO>
F 15

>  <BEGIN_>
RES LYS A 131

$$$$
ligand_40_pose_8_2HRL.pdbqt
 OpenBabel07062320523D

  6  5  0  0  0  0  0  0  0  0999 V2000
   33.1930   34.6630    9.2900 C   0  0  0  0  0  0  0  0  0  0  0  0
   32.0600   35.3600   10.0340 C   0  0  0  0  0  0  0  0  0  0  0  0
   30.7400   34.6410    9.9310 C   0  0  0  0  0  0  0  0  0  0  0  0
   29.8860   34.9080   11.1610 C   0  0  0  0  0  0  0  0  0  0  0  0
   28.4120   34.7790   10.8250 C   0  0  0  0  0  0  0  0  0  0  0  0
   28.2030   33.8490    9.6810 N   0  0  0  0  0  0  0  0  0  0  0  0
  1  2  1  0  0  0  0
  3  2  1  0  0  0  0
  3  4  1  0  0  0  0
  5  4  1  0  0  0  0
  6  5  1  0  0  0  0
M  END
>  <EGIN_R>
ES LYS A 135

>  <REMARK>
  4 active torsions:
  status: ('A' for Active; 'I' for Inactive)
    5  A    between atoms: CA   and  CB  
    6  A    between atoms: CB   and  CG  
    7  A    between atoms: CG   and  CD  
    8  A    between atoms: CD   and  CE  

$$$$
