ligand_73_pose_12_2HRL.pdbqt
 OpenBabel07062320523D

 54 55  0  0  1  0  0  0  0  0999 V2000
   25.7030   34.4770   14.8620 N   0  0  0  0  0  0  0  0  0  0  0  0
   25.2470   33.7100   13.7550 C   0  0  0  0  0  0  0  0  0  0  0  0
   25.7150   33.8830   12.5810 O   0  0  0  0  0  0  0  0  0  0  0  0
   25.3040   34.3010   15.7970 H   0  0  0  0  0  0  0  0  0  0  0  0
   26.7150   35.4700   14.6540 C   0  0  0  0  0  0  0  0  0  0  0  0
   28.0770   35.1490   15.1570 C   0  0  2  0  0  0  0  0  0  0  0  0
   28.9690   34.4130   14.1910 C   0  0  1  0  0  0  0  0  0  0  0  0
   30.3880   34.8910   14.1670 C   0  0  2  0  0  0  0  0  0  0  0  0
   31.9930   35.9740   12.9330 C   0  0  2  0  0  0  0  0  0  0  0  0
   32.6210   36.0290   14.3070 C   0  0  0  0  0  0  0  0  0  0  0  0
   30.7510   35.3650   12.9170 O   0  0  0  0  0  0  0  0  0  0  0  0
   32.7300   34.6460   14.8560 C   0  0  1  0  0  0  0  0  0  0  0  0
   31.3540   33.9700   14.8130 C   0  0  1  0  0  0  0  0  0  0  0  0
   32.8600   35.2560   12.1200 O   0  0  0  0  0  0  0  0  0  0  0  0
   32.6610   34.2920   12.2660 H   0  0  0  0  0  0  0  0  0  0  0  0
   31.9200   37.3660   12.4250 C   0  0  0  0  0  0  0  0  0  0  0  0
   32.2150   37.6430   11.2330 O   0  0  0  0  0  0  0  0  0  0  0  0
   31.5230   38.3950   13.2580 O   0  0  0  0  0  0  0  0  0  0  0  0
   32.0030   38.6450   14.1010 H   0  0  0  0  0  0  0  0  0  0  0  0
   33.6600   33.9560   14.0570 O   0  0  0  0  0  0  0  0  0  0  0  0
   33.1160   33.4450   13.3850 H   0  0  0  0  0  0  0  0  0  0  0  0
   30.9170   33.8050   16.2090 N   0  0  0  0  0  0  0  0  0  0  0  0
   30.7570   32.5420   16.8150 C   0  0  0  0  0  0  0  0  0  0  0  0
   30.7160   34.6650   16.7710 H   0  0  0  0  0  0  0  0  0  0  0  0
   30.3120   32.4190   18.2240 C   0  0  0  0  0  0  0  0  0  0  0  0
   30.9900   31.5160   16.1640 O   0  0  0  0  0  0  0  0  0  0  0  0
   28.9800   33.0440   14.4550 O   0  0  0  0  0  0  0  0  0  0  0  0
   28.3940   32.7810   15.1830 H   0  0  0  0  0  0  0  0  0  0  0  0
   27.9040   34.3820   16.3190 O   0  0  0  0  0  0  0  0  0  0  0  0
   27.7060   35.0180   17.0640 H   0  0  0  0  0  0  0  0  0  0  0  0
   24.2760   32.7640   13.9790 O   0  0  0  0  0  0  0  0  0  0  0  0
   24.6240   31.4150   14.0540 C   0  0  0  0  0  0  0  0  0  0  0  0
   25.5910   31.1130   15.1430 C   0  0  0  0  0  0  0  0  0  0  0  0
   25.5410   30.0850   16.0730 C   0  0  0  0  0  0  0  0  0  0  0  0
   26.7170   31.7850   15.4460 N   0  0  0  0  0  0  0  0  0  0  0  0
   26.6020   30.1530   16.8920 N   0  0  0  0  0  0  0  0  0  0  0  0
   27.3050   31.1980   16.4900 N   0  0  0  0  0  0  0  0  0  0  0  0
   26.9490   29.3060   17.9810 C   0  0  0  0  0  0  0  0  0  0  0  0
   26.1440   28.2340   18.3070 C   0  0  0  0  0  0  0  0  0  0  0  0
   28.0770   29.5020   18.7500 C   0  0  0  0  0  0  0  0  0  0  0  0
   26.4620   27.3960   19.3640 C   0  0  0  0  0  0  0  0  0  0  0  0
   28.4350   28.6920   19.8160 C   0  0  0  0  0  0  0  0  0  0  0  0
   27.5950   27.6220   20.1090 C   0  0  0  0  0  0  0  0  0  0  0  0
   29.5910   28.9060   20.5930 N   0  0  0  0  0  0  0  0  0  0  0  0
   29.7690   30.0010   21.1280 O   0  0  0  0  0  0  0  0  0  0  0  0
   30.5020   27.9090   20.7470 O   0  0  0  0  0  0  0  0  0  0  0  0
   27.9570   26.8090   21.1810 O   0  0  0  0  0  0  0  0  0  0  0  0
   28.0360   25.7960   21.0130 H   0  0  0  0  0  0  0  0  0  0  0  0
   29.8670   25.5550   16.9770 C   0  0  0  0  0  0  0  0  0  0  0  0
   28.3450   25.7220   17.0260 C   0  0  0  0  0  0  0  0  0  0  0  0
   27.6000   24.4100   16.8310 C   0  0  0  0  0  0  0  0  0  0  0  0
   26.6610   24.1180   17.9690 C   0  0  0  0  0  0  0  0  0  0  0  0
   25.6680   23.0400   17.5450 C   0  0  0  0  0  0  0  0  0  0  0  0
   24.4330   23.6560   17.0050 N   0  0  0  0  0  0  0  0  0  0  0  0
  1  4  1  0  0  0  0
  2 31  1  0  0  0  0
  2  1  1  0  0  0  0
  3  2  2  0  0  0  0
  5  1  1  0  0  0  0
  6  5  1  6  0  0  0
  6 29  1  0  0  0  0
  7 27  1  1  0  0  0
  7  6  1  0  0  0  0
  8  7  1  6  0  0  0
  8 13  1  0  0  0  0
  9 14  1  6  0  0  0
  9 10  1  0  0  0  0
 10 12  1  0  0  0  0
 11  9  1  0  0  0  0
 11  8  1  0  0  0  0
 12 20  1  6  0  0  0
 13 12  1  0  0  0  0
 13 22  1  1  0  0  0
 14 15  1  0  0  0  0
 16  9  1  0  0  0  0
 16 18  1  0  0  0  0
 17 16  2  0  0  0  0
 18 19  1  0  0  0  0
 21 20  1  0  0  0  0
 22 24  1  0  0  0  0
 22 23  1  0  0  0  0
 23 25  1  0  0  0  0
 26 23  2  0  0  0  0
 27 28  1  0  0  0  0
 29 30  1  0  0  0  0
 31 32  1  0  0  0  0
 32 33  1  0  0  0  0
 33 35  1  0  0  0  0
 33 34  2  0  0  0  0
 34 36  1  0  0  0  0
 35 37  2  0  0  0  0
 36 38  1  0  0  0  0
 37 36  1  0  0  0  0
 38 39  2  0  0  0  0
 38 40  1  0  0  0  0
 39 41  1  0  0  0  0
 40 42  2  0  0  0  0
 41 43  2  0  0  0  0
 42 43  1  0  0  0  0
 42 44  1  0  0  0  0
 43 47  1  0  0  0  0
 44 46  2  0  0  0  0
 44 45  2  0  0  0  0
 48 47  1  0  0  0  0
 49 50  1  0  0  0  0
 51 50  1  0  0  0  0
 51 52  1  0  0  0  0
 53 52  1  0  0  0  0
 54 53  1  0  0  0  0
M  END
>  <REMARK>
 VINA RESULT:    -4.021      2.151      6.815
 INTER + INTRA:         -14.622
 INTER:                  -8.897
 INTRA:                  -5.725
 UNBOUND:                -7.311
 SMILES CC(=O)N[C@@H]1[C@@H](O)C[C@](O)(C(=O)O)O[C@H]1C(O)[C@H](O)CNC(=O)OCc1cn(-c2ccc(O)c([N+](=O)[O-])c2)nn1
 SMILES IDX 21 1 22 2 23 3 20 5 18 6 16 7 15 8 9 9 8 10 14 11 6 12 5 13
 SMILES IDX 10 14 11 16 12 17 13 18 7 20 4 22 2 23 1 25 3 26 17 27 19 29
 SMILES IDX 24 31 25 32 26 33 27 34 40 35 28 36 39 37 29 38 30 39 38 40
 SMILES IDX 31 41 34 42 32 43 35 44 36 45 37 46 33 47
 H PARENT 21 4 10 15 13 19 7 21 4 24 17 28 19 30 33 48
 Flexibility Score: inf
  4 active torsions:
  status: ('A' for Active; 'I' for Inactive)
    1  A    between atoms: CA   and  CB  
    2  A    between atoms: CB   and  CG  
    3  A    between atoms: CG   and  CD  
    4  A    between atoms: CD   and  CE  

>  <TORSDO>
F 17

>  <BEGIN_>
RES LYS A 131

$$$$
ligand_73_pose_12_2HRL.pdbqt
 OpenBabel07062320523D

  6  5  0  0  0  0  0  0  0  0999 V2000
   33.1930   34.6630    9.2900 C   0  0  0  0  0  0  0  0  0  0  0  0
   32.0600   35.3600   10.0340 C   0  0  0  0  0  0  0  0  0  0  0  0
   30.7910   35.4750    9.2290 C   0  0  0  0  0  0  0  0  0  0  0  0
   29.8230   34.3590    9.5910 C   0  0  0  0  0  0  0  0  0  0  0  0
   28.6550   34.3330    8.6240 C   0  0  0  0  0  0  0  0  0  0  0  0
   27.4360   34.9260    9.2400 N   0  0  0  0  0  0  0  0  0  0  0  0
  1  2  1  0  0  0  0
  3  4  1  0  0  0  0
  3  2  1  0  0  0  0
  5  6  1  0  0  0  0
  5  4  1  0  0  0  0
M  END
>  <EGIN_R>
ES LYS A 135

>  <REMARK>
  4 active torsions:
  status: ('A' for Active; 'I' for Inactive)
    5  A    between atoms: CA   and  CB  
    6  A    between atoms: CB   and  CG  
    7  A    between atoms: CG   and  CD  
    8  A    between atoms: CD   and  CE  

$$$$
