ligand_10_pose_1_2HRL.pdbqt
 OpenBabel07062320523D

 53 53  0  0  1  0  0  0  0  0999 V2000
   27.6600   29.1230   18.0580 N   0  0  0  0  0  0  0  0  0  0  0  0
   26.9700   29.9420   17.1150 C   0  0  0  0  0  0  0  0  0  0  0  0
   25.8000   30.2640   17.3520 O   0  0  0  0  0  0  0  0  0  0  0  0
   28.6510   28.8890   17.7890 H   0  0  0  0  0  0  0  0  0  0  0  0
   27.0970   28.6380   19.2800 C   0  0  0  0  0  0  0  0  0  0  0  0
   28.1730   28.0750   20.1850 C   0  0  2  0  0  0  0  0  0  0  0  0
   29.2140   29.1270   20.5200 C   0  0  2  0  0  0  0  0  0  0  0  0
   29.8040   28.9940   21.8770 C   0  0  2  0  0  0  0  0  0  0  0  0
   31.6380   30.3280   21.3730 C   0  0  2  0  0  0  0  0  0  0  0  0
   32.3460   29.1650   20.8170 C   0  0  0  0  0  0  0  0  0  0  0  0
   30.5860   30.1010   22.2220 O   0  0  0  0  0  0  0  0  0  0  0  0
   31.8980   27.8100   21.1990 C   0  0  1  0  0  0  0  0  0  0  0  0
   30.6450   27.7560   22.0260 C   0  0  1  0  0  0  0  0  0  0  0  0
   31.1190   31.1510   20.3400 O   0  0  0  0  0  0  0  0  0  0  0  0
   30.7750   31.9580   20.8080 H   0  0  0  0  0  0  0  0  0  0  0  0
   32.5770   31.2230   22.1050 C   0  0  0  0  0  0  0  0  0  0  0  0
   33.0880   30.9520   23.2150 O   0  0  0  0  0  0  0  0  0  0  0  0
   32.9030   32.4330   21.5130 O   0  0  0  0  0  0  0  0  0  0  0  0
   33.4930   33.1310   21.9830 H   0  0  0  0  0  0  0  0  0  0  0  0
   31.7460   27.0090   20.0710 O   0  0  0  0  0  0  0  0  0  0  0  0
   31.3790   27.4670   19.2960 H   0  0  0  0  0  0  0  0  0  0  0  0
   30.9890   27.5910   23.4590 N   0  0  0  0  0  0  0  0  0  0  0  0
   30.4410   26.5330   24.2200 C   0  0  0  0  0  0  0  0  0  0  0  0
   31.6380   28.2470   23.9420 H   0  0  0  0  0  0  0  0  0  0  0  0
   30.7570   26.3290   25.6640 C   0  0  0  0  0  0  0  0  0  0  0  0
   29.6600   25.7390   23.6550 O   0  0  0  0  0  0  0  0  0  0  0  0
   28.4710   30.3400   20.4430 O   0  0  0  0  0  0  0  0  0  0  0  0
   27.9090   30.3490   19.6330 H   0  0  0  0  0  0  0  0  0  0  0  0
   28.7000   26.9420   19.5790 O   0  0  0  0  0  0  0  0  0  0  0  0
   29.2700   27.1450   18.7970 H   0  0  0  0  0  0  0  0  0  0  0  0
   27.5630   30.3860   15.9450 O   0  0  0  0  0  0  0  0  0  0  0  0
   28.9380   30.1930   15.7320 C   0  0  0  0  0  0  0  0  0  0  0  0
   29.7720   31.2100   16.4180 C   0  0  0  0  0  0  0  0  0  0  0  0
   30.4520   32.1930   15.7400 C   0  0  0  0  0  0  0  0  0  0  0  0
   30.0280   31.3880   17.7110 N   0  0  0  0  0  0  0  0  0  0  0  0
   31.1080   32.9490   16.6570 N   0  0  0  0  0  0  0  0  0  0  0  0
   30.8290   32.4350   17.8200 N   0  0  0  0  0  0  0  0  0  0  0  0
   31.9360   34.0930   16.2850 C   0  0  1  0  0  0  0  0  0  0  0  0
   31.7840   34.3660   14.8140 C   0  0  0  0  0  0  0  0  0  0  0  0
   33.0530   34.7520   14.1780 C   0  0  0  0  0  0  0  0  0  0  0  0
   34.0410   35.0160   14.9070 O   0  0  0  0  0  0  0  0  0  0  0  0
   33.1270   34.8150   12.7950 O   0  0  0  0  0  0  0  0  0  0  0  0
   32.2750   35.0440   12.2600 H   0  0  0  0  0  0  0  0  0  0  0  0
   31.4280   35.2910   17.0080 C   0  0  0  0  0  0  0  0  0  0  0  0
   32.1350   36.2910   17.2920 O   0  0  0  0  0  0  0  0  0  0  0  0
   30.0980   35.3060   17.3910 O   0  0  0  0  0  0  0  0  0  0  0  0
   29.8060   35.2130   18.3570 H   0  0  0  0  0  0  0  0  0  0  0  0
   29.8670   25.5550   16.9770 C   0  0  0  0  0  0  0  0  0  0  0  0
   28.3450   25.7220   17.0260 C   0  0  0  0  0  0  0  0  0  0  0  0
   27.6010   24.4040   16.8770 C   0  0  0  0  0  0  0  0  0  0  0  0
   26.5640   24.2140   17.9480 C   0  0  0  0  0  0  0  0  0  0  0  0
   25.6260   23.0780   17.5540 C   0  0  0  0  0  0  0  0  0  0  0  0
   24.3450   23.6170   17.0390 N   0  0  0  0  0  0  0  0  0  0  0  0
  1  5  1  0  0  0  0
  2  3  2  0  0  0  0
  2  1  1  0  0  0  0
  4  1  1  0  0  0  0
  6  5  1  6  0  0  0
  6  7  1  0  0  0  0
  7 27  1  1  0  0  0
  8  7  1  6  0  0  0
  8 13  1  0  0  0  0
  8 11  1  0  0  0  0
  9 14  1  6  0  0  0
  9 16  1  0  0  0  0
  9 11  1  0  0  0  0
 10 12  1  0  0  0  0
 10  9  1  0  0  0  0
 12 20  1  6  0  0  0
 12 13  1  0  0  0  0
 13 22  1  1  0  0  0
 14 15  1  0  0  0  0
 16 17  2  0  0  0  0
 18 19  1  0  0  0  0
 18 16  1  0  0  0  0
 21 20  1  0  0  0  0
 22 24  1  0  0  0  0
 22 23  1  0  0  0  0
 23 25  1  0  0  0  0
 26 23  2  0  0  0  0
 28 27  1  0  0  0  0
 29  6  1  0  0  0  0
 30 29  1  0  0  0  0
 31  2  1  0  0  0  0
 32 31  1  0  0  0  0
 32 33  1  0  0  0  0
 33 35  1  0  0  0  0
 34 33  2  0  0  0  0
 34 36  1  0  0  0  0
 35 37  2  0  0  0  0
 36 37  1  0  0  0  0
 38 39  1  6  0  0  0
 38 36  1  0  0  0  0
 38 44  1  0  0  0  0
 40 39  1  0  0  0  0
 40 41  2  0  0  0  0
 42 40  1  0  0  0  0
 43 42  1  0  0  0  0
 44 45  2  0  0  0  0
 44 46  1  0  0  0  0
 46 47  1  0  0  0  0
 48 49  1  0  0  0  0
 50 49  1  0  0  0  0
 50 51  1  0  0  0  0
 52 51  1  0  0  0  0
 53 52  1  0  0  0  0
M  END
>  <REMARK>
 VINA RESULT:    -5.004      3.908      6.910
 INTER + INTRA:         -15.574
 INTER:                  -9.167
 INTRA:                  -6.407
 UNBOUND:                -5.744
 SMILES CC(=O)N[C@@H]1[C@@H](O)C[C@](O)(C(=O)O)O[C@H]1C(O)[C@H](O)CNC(=O)OCc1cn([C@@H](CC(=O)O)C(=O)O)nn1
 SMILES IDX 21 1 22 2 23 3 20 5 18 6 16 7 15 8 9 9 8 10 14 11 6 12 5 13
 SMILES IDX 10 14 11 16 12 17 13 18 7 20 4 22 2 23 1 25 3 26 17 27 19 29
 SMILES IDX 24 31 25 32 26 33 27 34 38 35 28 36 37 37 29 38 30 39 31 40
 SMILES IDX 32 41 33 42 34 44 35 45 36 46
 H PARENT 21 4 10 15 13 19 7 21 4 24 17 28 19 30 33 43 36 47
 Flexibility Score: inf
  4 active torsions:
  status: ('A' for Active; 'I' for Inactive)
    1  A    between atoms: CA   and  CB  
    2  A    between atoms: CB   and  CG  
    3  A    between atoms: CG   and  CD  
    4  A    between atoms: CD   and  CE  

>  <TORSDO>
F 20

>  <BEGIN_>
RES LYS A 131

$$$$
ligand_10_pose_1_2HRL.pdbqt
 OpenBabel07062320523D

  6  5  0  0  0  0  0  0  0  0999 V2000
   33.1930   34.6630    9.2900 C   0  0  0  0  0  0  0  0  0  0  0  0
   32.0600   35.3600   10.0340 C   0  0  0  0  0  0  0  0  0  0  0  0
   30.8750   35.6840    9.1610 C   0  0  0  0  0  0  0  0  0  0  0  0
   30.3580   34.4310    8.4710 C   0  0  0  0  0  0  0  0  0  0  0  0
   28.8430   34.4420    8.4120 C   0  0  0  0  0  0  0  0  0  0  0  0
   28.2540   33.7700    9.6020 N   0  0  0  0  0  0  0  0  0  0  0  0
  1  2  1  0  0  0  0
  3  2  1  0  0  0  0
  4  3  1  0  0  0  0
  5  4  1  0  0  0  0
  5  6  1  0  0  0  0
M  END
>  <EGIN_R>
ES LYS A 135

>  <REMARK>
  4 active torsions:
  status: ('A' for Active; 'I' for Inactive)
    5  A    between atoms: CA   and  CB  
    6  A    between atoms: CB   and  CG  
    7  A    between atoms: CG   and  CD  
    8  A    between atoms: CD   and  CE  

$$$$
