ligand_52_pose_14_2HRL.pdbqt
 OpenBabel07062320523D

 49 50  0  0  1  0  0  0  0  0999 V2000
   30.0720   31.3020   16.5280 C   0  0  0  0  0  0  0  0  0  0  0  0
   29.6460   32.1340   15.3750 C   0  0  2  0  0  0  0  0  0  0  0  0
   30.5730   33.2470   15.0640 C   0  0  2  0  0  0  0  0  0  0  0  0
   30.0550   34.4050   14.2850 C   0  0  2  0  0  0  0  0  0  0  0  0
   28.5840   35.1670   12.7370 C   0  0  2  0  0  0  0  0  0  0  0  0
   29.2860   36.4770   12.6810 C   0  0  0  0  0  0  0  0  0  0  0  0
   29.3230   34.0890   13.1860 O   0  0  0  0  0  0  0  0  0  0  0  0
   30.3420   36.7230   13.7000 C   0  0  1  0  0  0  0  0  0  0  0  0
   31.1270   35.4020   13.9450 C   0  0  1  0  0  0  0  0  0  0  0  0
   28.2640   34.8550   11.3770 O   0  0  0  0  0  0  0  0  0  0  0  0
   28.8330   35.4630   10.8510 H   0  0  0  0  0  0  0  0  0  0  0  0
   27.2830   35.2360   13.4400 C   0  0  0  0  0  0  0  0  0  0  0  0
   26.6490   34.1780   13.6780 O   0  0  0  0  0  0  0  0  0  0  0  0
   26.6810   36.4090   13.8760 O   0  0  0  0  0  0  0  0  0  0  0  0
   25.8340   36.2910   14.4430 H   0  0  0  0  0  0  0  0  0  0  0  0
   31.2960   37.6230   13.2230 O   0  0  0  0  0  0  0  0  0  0  0  0
   32.1850   37.3830   13.5850 H   0  0  0  0  0  0  0  0  0  0  0  0
   31.9190   35.6510   15.1200 N   0  0  0  0  0  0  0  0  0  0  0  0
   33.3160   35.4530   15.1870 C   0  0  0  0  0  0  0  0  0  0  0  0
   31.4410   36.0050   15.9910 H   0  0  0  0  0  0  0  0  0  0  0  0
   34.0430   35.7380   16.4450 C   0  0  0  0  0  0  0  0  0  0  0  0
   33.9280   35.0360   14.1770 O   0  0  0  0  0  0  0  0  0  0  0  0
   31.8590   32.8540   14.7440 O   0  0  0  0  0  0  0  0  0  0  0  0
   31.9700   32.3590   13.9180 H   0  0  0  0  0  0  0  0  0  0  0  0
   28.3930   32.7330   15.6570 O   0  0  0  0  0  0  0  0  0  0  0  0
   27.7560   32.3810   15.0030 H   0  0  0  0  0  0  0  0  0  0  0  0
   29.1620   30.2840   16.9630 N   0  0  0  0  0  0  0  0  0  0  0  0
   28.3870   30.3110   18.1150 C   0  0  0  0  0  0  0  0  0  0  0  0
   29.0610   29.4170   16.3500 H   0  0  0  0  0  0  0  0  0  0  0  0
   28.4290   31.2630   18.9060 O   0  0  0  0  0  0  0  0  0  0  0  0
   27.5070   29.2720   18.4680 O   0  0  0  0  0  0  0  0  0  0  0  0
   26.1110   29.4580   18.4030 C   0  0  0  0  0  0  0  0  0  0  0  0
   25.6590   29.7320   17.0270 C   0  0  0  0  0  0  0  0  0  0  0  0
   24.4460   29.2860   16.5260 C   0  0  0  0  0  0  0  0  0  0  0  0
   26.2320   30.4020   16.0270 N   0  0  0  0  0  0  0  0  0  0  0  0
   24.3290   29.6970   15.2520 N   0  0  0  0  0  0  0  0  0  0  0  0
   25.4140   30.3690   14.9650 N   0  0  0  0  0  0  0  0  0  0  0  0
   23.2340   29.4550   14.3620 C   0  0  0  0  0  0  0  0  0  0  0  0
   23.0990   30.1580   13.1780 C   0  0  0  0  0  0  0  0  0  0  0  0
   22.2850   28.5060   14.6810 C   0  0  0  0  0  0  0  0  0  0  0  0
   22.0130   29.8870   12.3420 C   0  0  0  0  0  0  0  0  0  0  0  0
   21.2350   28.2630   13.8480 N   0  0  0  0  0  0  0  0  0  0  0  0
   21.0790   28.9290   12.6900 C   0  0  0  0  0  0  0  0  0  0  0  0
   29.8670   25.5550   16.9770 C   0  0  0  0  0  0  0  0  0  0  0  0
   28.3450   25.7220   17.0260 C   0  0  0  0  0  0  0  0  0  0  0  0
   27.6010   24.4020   16.8910 C   0  0  0  0  0  0  0  0  0  0  0  0
   26.1530   24.5260   17.2780 C   0  0  0  0  0  0  0  0  0  0  0  0
   25.9890   24.1760   18.7530 C   0  0  0  0  0  0  0  0  0  0  0  0
   25.6510   25.3870   19.5390 N   0  0  0  0  0  0  0  0  0  0  0  0
  1 27  1  0  0  0  0
  2 25  1  0  0  0  0
  2  1  1  1  0  0  0
  3 23  1  6  0  0  0
  3  2  1  0  0  0  0
  4  3  1  6  0  0  0
  5 10  1  6  0  0  0
  5  7  1  0  0  0  0
  5 12  1  0  0  0  0
  6  5  1  0  0  0  0
  6  8  1  0  0  0  0
  7  4  1  0  0  0  0
  8 16  1  6  0  0  0
  8  9  1  0  0  0  0
  9  4  1  0  0  0  0
  9 18  1  1  0  0  0
 11 10  1  0  0  0  0
 12 13  2  0  0  0  0
 12 14  1  0  0  0  0
 14 15  1  0  0  0  0
 16 17  1  0  0  0  0
 18 19  1  0  0  0  0
 18 20  1  0  0  0  0
 19 21  1  0  0  0  0
 22 19  2  0  0  0  0
 24 23  1  0  0  0  0
 26 25  1  0  0  0  0
 27 28  1  0  0  0  0
 28 31  1  0  0  0  0
 28 30  2  0  0  0  0
 29 27  1  0  0  0  0
 32 31  1  0  0  0  0
 33 32  1  0  0  0  0
 34 33  2  0  0  0  0
 35 33  1  0  0  0  0
 36 34  1  0  0  0  0
 37 36  1  0  0  0  0
 37 35  2  0  0  0  0
 38 40  1  0  0  0  0
 38 36  1  0  0  0  0
 39 38  2  0  0  0  0
 41 43  2  0  0  0  0
 41 39  1  0  0  0  0
 42 40  2  0  0  0  0
 43 42  1  0  0  0  0
 44 45  1  0  0  0  0
 46 45  1  0  0  0  0
 46 47  1  0  0  0  0
 47 48  1  0  0  0  0
 48 49  1  0  0  0  0
M  END
>  <REMARK>
 VINA RESULT:    -4.842      4.001      7.466
 INTER + INTRA:         -13.545
 INTER:                  -8.444
 INTRA:                  -5.101
 UNBOUND:                -5.164
 SMILES CC(=O)N[C@@H]1[C@@H](O)C[C@](O)(C(=O)O)O[C@H]1C(O)[C@H](O)CNC(=O)OCc1cn(-c2cccnc2)nn1
 SMILES IDX 20 1 18 2 16 3 15 4 9 5 8 6 14 7 6 8 5 9 10 10 11 12 12 13
 SMILES IDX 13 14 7 16 4 18 2 19 1 21 3 22 17 23 19 25 21 27 22 28 23 30
 SMILES IDX 24 31 25 32 26 33 27 34 36 35 28 36 35 37 29 38 30 39 34 40
 SMILES IDX 31 41 33 42 32 43
 H PARENT 10 11 13 15 7 17 4 20 17 24 19 26 21 29
 Flexibility Score: inf
  4 active torsions:
  status: ('A' for Active; 'I' for Inactive)
    1  A    between atoms: CA   and  CB  
    2  A    between atoms: CB   and  CG  
    3  A    between atoms: CG   and  CD  
    4  A    between atoms: CD   and  CE  

>  <TORSDO>
F 15

>  <BEGIN_>
RES LYS A 131

$$$$
ligand_52_pose_14_2HRL.pdbqt
 OpenBabel07062320523D

  6  5  0  0  0  0  0  0  0  0999 V2000
   33.1930   34.6630    9.2900 C   0  0  0  0  0  0  0  0  0  0  0  0
   32.0600   35.3600   10.0340 C   0  0  0  0  0  0  0  0  0  0  0  0
   30.8890   35.7130    9.1540 C   0  0  0  0  0  0  0  0  0  0  0  0
   30.3620   34.4770    8.4400 C   0  0  0  0  0  0  0  0  0  0  0  0
   28.9460   34.7090    7.9490 C   0  0  0  0  0  0  0  0  0  0  0  0
   28.9360   35.5490    6.7200 N   0  0  0  0  0  0  0  0  0  0  0  0
  1  2  1  0  0  0  0
  3  2  1  0  0  0  0
  4  3  1  0  0  0  0
  5  4  1  0  0  0  0
  6  5  1  0  0  0  0
M  END
>  <EGIN_R>
ES LYS A 135

>  <REMARK>
  4 active torsions:
  status: ('A' for Active; 'I' for Inactive)
    5  A    between atoms: CA   and  CB  
    6  A    between atoms: CB   and  CG  
    7  A    between atoms: CG   and  CD  
    8  A    between atoms: CD   and  CE  

$$$$
