ligand_69_pose_19_2HRL.pdbqt
 OpenBabel07062320523D

 54 51  0  0  1  0  0  0  0  0999 V2000
   19.9550   34.7240   10.4880 N   0  0  0  0  0  0  0  0  0  0  0  0
   19.2150   35.7000    9.7550 C   0  0  0  0  0  0  0  0  0  0  0  0
   18.0930   36.1280   10.1310 O   0  0  0  0  0  0  0  0  0  0  0  0
   20.8830   34.3870   10.1520 H   0  0  0  0  0  0  0  0  0  0  0  0
   19.3310   34.2380   11.7190 C   0  0  0  0  0  0  0  0  0  0  0  0
   20.4640   33.8510   12.6520 C   0  0  2  0  0  0  0  0  0  0  0  0
   21.4450   34.9790   12.8750 C   0  0  2  0  0  0  0  0  0  0  0  0
   22.8680   34.5240   12.7870 C   0  0  2  0  0  0  0  0  0  0  0  0
   24.6290   33.4660   13.7740 C   0  0  2  0  0  0  0  0  0  0  0  0
   25.2020   33.6990   12.3920 C   0  0  0  0  0  0  0  0  0  0  0  0
   23.2660   33.7260   13.8250 O   0  0  0  0  0  0  0  0  0  0  0  0
   25.0420   35.1410   11.9520 C   0  0  1  0  0  0  0  0  0  0  0  0
   23.8400   35.6790   12.6740 C   0  0  1  0  0  0  0  0  0  0  0  0
   25.3350   34.1740   14.7400 O   0  0  0  0  0  0  0  0  0  0  0  0
   25.0320   33.9500   15.6600 H   0  0  0  0  0  0  0  0  0  0  0  0
   24.7980   32.0210   14.0620 C   0  0  0  0  0  0  0  0  0  0  0  0
   24.2940   31.1210   13.3370 O   0  0  0  0  0  0  0  0  0  0  0  0
   25.5310   31.6360   15.1630 O   0  0  0  0  0  0  0  0  0  0  0  0
   26.4510   31.2070   15.1200 H   0  0  0  0  0  0  0  0  0  0  0  0
   26.2130   35.7990   12.2480 O   0  0  0  0  0  0  0  0  0  0  0  0
   26.7710   35.1760   12.8100 H   0  0  0  0  0  0  0  0  0  0  0  0
   23.2720   36.8510   12.1200 N   0  0  0  0  0  0  0  0  0  0  0  0
   23.7020   38.1800   12.3770 C   0  0  0  0  0  0  0  0  0  0  0  0
   22.4670   36.7440   11.4660 H   0  0  0  0  0  0  0  0  0  0  0  0
   23.0340   39.3550   11.7410 C   0  0  0  0  0  0  0  0  0  0  0  0
   24.6630   38.3340   13.1560 O   0  0  0  0  0  0  0  0  0  0  0  0
   21.1440   35.7050   14.0020 O   0  0  0  0  0  0  0  0  0  0  0  0
   20.2000   35.5530   14.2300 H   0  0  0  0  0  0  0  0  0  0  0  0
   21.2170   32.8100   12.0590 O   0  0  0  0  0  0  0  0  0  0  0  0
   21.9900   32.5580   12.6370 H   0  0  0  0  0  0  0  0  0  0  0  0
   19.7340   36.2060    8.5890 O   0  0  0  0  0  0  0  0  0  0  0  0
   20.3190   37.4900    8.4670 C   0  0  0  0  0  0  0  0  0  0  0  0
   21.7880   37.3520    8.5890 C   0  0  0  0  0  0  0  0  0  0  0  0
   22.7830   38.2120    8.1790 C   0  0  0  0  0  0  0  0  0  0  0  0
   22.4070   36.2980    9.1560 N   0  0  0  0  0  0  0  0  0  0  0  0
   23.9710   37.6690    8.5020 N   0  0  0  0  0  0  0  0  0  0  0  0
   23.6970   36.5040    9.0950 N   0  0  0  0  0  0  0  0  0  0  0  0
   25.2890   38.2520    8.2460 C   0  0  2  0  0  0  0  0  0  0  0  0
   25.9460   37.4370    7.1840 C   0  0  0  0  0  0  0  0  0  0  0  0
   27.0060   38.1450    6.4170 *   0  0  0  0  0  0  0  0  0  0  0  0
   27.3790   37.4500    5.2450 O   0  0  0  0  0  0  0  0  0  0  0  0
   28.1910   37.8650    4.8820 H   0  0  0  0  0  0  0  0  0  0  0  0
   26.0260   38.2920    9.5400 C   0  0  0  0  0  0  0  0  0  0  0  0
   27.3920   37.6780    9.4980 C   0  0  1  0  0  0  0  0  0  0  0  0
   28.3140   38.3430    8.5520 C   0  0  0  0  0  0  0  0  0  0  0  0
   28.1560   38.5330    7.2610 *   0  0  0  0  0  0  0  0  0  0  0  0
   27.9650   37.5600   10.7630 O   0  0  0  0  0  0  0  0  0  0  0  0
   28.5700   38.3190   10.9610 H   0  0  0  0  0  0  0  0  0  0  0  0
   29.8670   25.5550   16.9770 C   0  0  0  0  0  0  0  0  0  0  0  0
   28.3450   25.7220   17.0260 C   0  0  0  0  0  0  0  0  0  0  0  0
   27.6070   24.3940   17.1040 C   0  0  0  0  0  0  0  0  0  0  0  0
   26.2430   24.5400   17.7190 C   0  0  0  0  0  0  0  0  0  0  0  0
   25.8470   23.2310   18.3960 C   0  0  0  0  0  0  0  0  0  0  0  0
   25.1690   22.3330   17.4310 N   0  0  0  0  0  0  0  0  0  0  0  0
  1  5  1  0  0  0  0
  2  3  2  0  0  0  0
  2  1  1  0  0  0  0
  4  1  1  0  0  0  0
  6  5  1  6  0  0  0
  6  7  1  0  0  0  0
  7 27  1  1  0  0  0
  8  7  1  1  0  0  0
  8 11  1  0  0  0  0
  9 11  1  0  0  0  0
  9 16  1  1  0  0  0
  9 14  1  0  0  0  0
 10  9  1  0  0  0  0
 12 20  1  1  0  0  0
 12 10  1  0  0  0  0
 12 13  1  0  0  0  0
 13 22  1  6  0  0  0
 13  8  1  0  0  0  0
 14 15  1  0  0  0  0
 16 18  1  0  0  0  0
 17 16  2  0  0  0  0
 19 18  1  0  0  0  0
 20 21  1  0  0  0  0
 22 23  1  0  0  0  0
 23 26  2  0  0  0  0
 24 22  1  0  0  0  0
 25 23  1  0  0  0  0
 27 28  1  0  0  0  0
 29 30  1  0  0  0  0
 29  6  1  0  0  0  0
 31  2  1  0  0  0  0
 32 31  1  0  0  0  0
 32 33  1  0  0  0  0
 33 35  1  0  0  0  0
 34 36  1  0  0  0  0
 34 33  2  0  0  0  0
 36 37  1  0  0  0  0
 37 35  2  0  0  0  0
 38 39  1  6  0  0  0
 38 36  1  0  0  0  0
 38 43  1  0  0  0  0
 42 41  1  0  0  0  0
 44 45  1  6  0  0  0
 44 43  1  0  0  0  0
 44 47  1  0  0  0  0
 47 48  1  0  0  0  0
 49 50  1  0  0  0  0
 50 51  1  0  0  0  0
 51 52  1  0  0  0  0
 52 53  1  0  0  0  0
 54 53  1  0  0  0  0
M  END
>  <REMARK>
 VINA RESULT:    -7.396      4.189      7.660
 INTER + INTRA:         -12.363
 INTER:                  -6.248
 INTRA:                  -6.115
 UNBOUND:                 3.032
 SMILES CC(=O)N[C@@H]1[C@@H](O)C[C@](O)(C(=O)O)O[C@H]1C(O)[C@H](O)CNC(=O)OCc1cn(C2CC(O)C=C[C@@H](O)C2)nn1
 SMILES IDX 21 1 22 2 23 3 20 5 18 6 16 7 15 8 9 9 8 10 14 11 6 12 5 13
 SMILES IDX 10 14 11 16 12 17 13 18 7 20 4 22 2 23 1 25 3 26 17 27 19 29
 SMILES IDX 24 31 25 32 26 33 27 34 39 35 28 36 38 37 29 38 30 39 31 40
 SMILES IDX 32 42 37 44 35 45 34 46 33 47 36 49
 H PARENT 21 4 10 15 13 19 7 21 4 24 17 28 19 30 32 43 36 50
 Flexibility Score: 90.00
  4 active torsions:
  status: ('A' for Active; 'I' for Inactive)
    1  A    between atoms: CA   and  CB  
    2  A    between atoms: CB   and  CG  
    3  A    between atoms: CG   and  CD  
    4  A    between atoms: CD   and  CE  

>  <TORSDO>
F 17

>  <BEGIN_>
RES LYS A 131

$$$$
ligand_69_pose_19_2HRL.pdbqt
 OpenBabel07062320523D

  6  5  0  0  0  0  0  0  0  0999 V2000
   33.1930   34.6630    9.2900 C   0  0  0  0  0  0  0  0  0  0  0  0
   32.0600   35.3600   10.0340 C   0  0  0  0  0  0  0  0  0  0  0  0
   30.7790   35.4370    9.2450 C   0  0  0  0  0  0  0  0  0  0  0  0
   30.1830   34.0510    9.0510 C   0  0  0  0  0  0  0  0  0  0  0  0
   28.6790   34.1370    8.8750 C   0  0  0  0  0  0  0  0  0  0  0  0
   28.3270   34.8770    7.6310 N   0  0  0  0  0  0  0  0  0  0  0  0
  1  2  1  0  0  0  0
  3  2  1  0  0  0  0
  4  3  1  0  0  0  0
  5  4  1  0  0  0  0
  6  5  1  0  0  0  0
M  END
>  <EGIN_R>
ES LYS A 135

>  <REMARK>
  4 active torsions:
  status: ('A' for Active; 'I' for Inactive)
    5  A    between atoms: CA   and  CB  
    6  A    between atoms: CB   and  CG  
    7  A    between atoms: CG   and  CD  
    8  A    between atoms: CD   and  CE  

$$$$
