ligand_68_pose_15_2HRL.pdbqt
 OpenBabel07062320523D

 53 54  0  0  1  0  0  0  0  0999 V2000
   29.3480   30.6970   16.4550 N   0  0  0  0  0  0  0  0  0  0  0  0
   28.2810   30.0420   17.1190 C   0  0  0  0  0  0  0  0  0  0  0  0
   28.1980   30.1370   18.3640 O   0  0  0  0  0  0  0  0  0  0  0  0
   29.3440   30.5680   15.3950 H   0  0  0  0  0  0  0  0  0  0  0  0
   30.3730   31.4790   17.1060 C   0  0  0  0  0  0  0  0  0  0  0  0
   30.9550   32.5350   16.1910 C   0  0  2  0  0  0  0  0  0  0  0  0
   29.9370   33.6530   15.9610 C   0  0  2  0  0  0  0  0  0  0  0  0
   30.4860   35.0340   16.1990 C   0  0  2  0  0  0  0  0  0  0  0  0
   28.9510   36.1300   14.8130 C   0  0  2  0  0  0  0  0  0  0  0  0
   29.7560   35.7060   13.6510 C   0  0  0  0  0  0  0  0  0  0  0  0
   29.4340   35.9430   16.0630 O   0  0  0  0  0  0  0  0  0  0  0  0
   31.2210   35.4870   13.8690 C   0  0  1  0  0  0  0  0  0  0  0  0
   31.6180   35.3570   15.3200 C   0  0  1  0  0  0  0  0  0  0  0  0
   27.7420   35.3750   14.7500 O   0  0  0  0  0  0  0  0  0  0  0  0
   27.2150   35.7930   14.0350 H   0  0  0  0  0  0  0  0  0  0  0  0
   28.4990   37.5540   14.5870 C   0  0  0  0  0  0  0  0  0  0  0  0
   27.7200   37.8660   13.6560 O   0  0  0  0  0  0  0  0  0  0  0  0
   28.9520   38.5640   15.4300 O   0  0  0  0  0  0  0  0  0  0  0  0
   29.0540   38.4550   16.4270 H   0  0  0  0  0  0  0  0  0  0  0  0
   31.6410   34.3390   13.1410 O   0  0  0  0  0  0  0  0  0  0  0  0
   31.0830   34.2980   12.3410 H   0  0  0  0  0  0  0  0  0  0  0  0
   32.2970   36.5980   15.6580 N   0  0  0  0  0  0  0  0  0  0  0  0
   33.4130   36.6790   16.5250 C   0  0  0  0  0  0  0  0  0  0  0  0
   31.9060   37.4560   15.2120 H   0  0  0  0  0  0  0  0  0  0  0  0
   34.0840   37.9620   16.8500 C   0  0  0  0  0  0  0  0  0  0  0  0
   33.8110   35.5880   17.0120 O   0  0  0  0  0  0  0  0  0  0  0  0
   28.9990   33.4150   17.0380 O   0  0  0  0  0  0  0  0  0  0  0  0
   28.7330   34.2460   17.4600 H   0  0  0  0  0  0  0  0  0  0  0  0
   31.3760   31.9360   15.0280 O   0  0  0  0  0  0  0  0  0  0  0  0
   32.1830   31.4080   15.2360 H   0  0  0  0  0  0  0  0  0  0  0  0
   27.3190   29.2980   16.4530 O   0  0  0  0  0  0  0  0  0  0  0  0
   25.9500   29.6540   16.4470 C   0  0  0  0  0  0  0  0  0  0  0  0
   25.7900   30.9120   15.6900 C   0  0  0  0  0  0  0  0  0  0  0  0
   25.0920   31.0750   14.5040 C   0  0  0  0  0  0  0  0  0  0  0  0
   26.2700   32.1470   15.9690 N   0  0  0  0  0  0  0  0  0  0  0  0
   25.1660   32.3590   14.1120 N   0  0  0  0  0  0  0  0  0  0  0  0
   25.8840   32.9810   15.0160 N   0  0  0  0  0  0  0  0  0  0  0  0
   24.5470   32.9140   12.9000 C   0  0  0  0  0  0  0  0  0  0  0  0
   25.0380   34.3280   12.7070 C   0  0  1  0  0  0  0  0  0  0  0  0
   26.4450   34.2610   12.5900 O   0  0  0  0  0  0  0  0  0  0  0  0
   26.7760   33.4810   13.1140 H   0  0  0  0  0  0  0  0  0  0  0  0
   24.5070   34.8730   11.4410 C   0  0  0  0  0  0  0  0  0  0  0  0
   25.3230   35.2480   10.3930 C   0  0  0  0  0  0  0  0  0  0  0  0
   23.1210   35.0150   11.2950 C   0  0  0  0  0  0  0  0  0  0  0  0
   24.8090   35.7520    9.2230 C   0  0  0  0  0  0  0  0  0  0  0  0
   22.6080   35.5160   10.1330 C   0  0  0  0  0  0  0  0  0  0  0  0
   23.4460   35.8820    9.1040 C   0  0  0  0  0  0  0  0  0  0  0  0
   29.8670   25.5550   16.9770 C   0  0  0  0  0  0  0  0  0  0  0  0
   28.3450   25.7220   17.0260 C   0  0  0  0  0  0  0  0  0  0  0  0
   27.6000   24.4070   16.8540 C   0  0  0  0  0  0  0  0  0  0  0  0
   26.6540   24.1390   17.9910 C   0  0  0  0  0  0  0  0  0  0  0  0
   25.5030   23.2660   17.5000 C   0  0  0  0  0  0  0  0  0  0  0  0
   24.4440   24.1010   16.8860 N   0  0  0  0  0  0  0  0  0  0  0  0
  1  5  1  0  0  0  0
  1  2  1  0  0  0  0
  2  3  2  0  0  0  0
  4  1  1  0  0  0  0
  6  5  1  1  0  0  0
  7  6  1  0  0  0  0
  7 27  1  1  0  0  0
  8  7  1  6  0  0  0
  9 16  1  6  0  0  0
  9 11  1  0  0  0  0
 10 12  1  0  0  0  0
 10  9  1  0  0  0  0
 11  8  1  0  0  0  0
 12 20  1  6  0  0  0
 12 13  1  0  0  0  0
 13 22  1  1  0  0  0
 13  8  1  0  0  0  0
 14  9  1  0  0  0  0
 15 14  1  0  0  0  0
 16 18  1  0  0  0  0
 17 16  2  0  0  0  0
 18 19  1  0  0  0  0
 21 20  1  0  0  0  0
 22 23  1  0  0  0  0
 23 25  1  0  0  0  0
 23 26  2  0  0  0  0
 24 22  1  0  0  0  0
 27 28  1  0  0  0  0
 29 30  1  0  0  0  0
 29  6  1  0  0  0  0
 31  2  1  0  0  0  0
 32 31  1  0  0  0  0
 33 35  1  0  0  0  0
 33 32  1  0  0  0  0
 34 33  2  0  0  0  0
 36 34  1  0  0  0  0
 36 37  1  0  0  0  0
 37 35  2  0  0  0  0
 38 36  1  0  0  0  0
 39 38  1  6  0  0  0
 40 39  1  0  0  0  0
 40 41  1  0  0  0  0
 42 39  1  0  0  0  0
 43 42  2  0  0  0  0
 44 42  1  0  0  0  0
 45 43  1  0  0  0  0
 46 44  2  0  0  0  0
 47 45  2  0  0  0  0
 47 46  1  0  0  0  0
 48 49  1  0  0  0  0
 50 49  1  0  0  0  0
 50 51  1  0  0  0  0
 52 51  1  0  0  0  0
 53 52  1  0  0  0  0
M  END
>  <REMARK>
 VINA RESULT:    -5.274      4.400      7.967
 INTER + INTRA:         -14.911
 INTER:                  -8.513
 INTRA:                  -6.398
 UNBOUND:                -5.012
 SMILES CC(=O)N[C@@H]1[C@@H](O)C[C@](O)(C(=O)O)O[C@H]1C(O)[C@H](O)CNC(=O)OCc1cn(CC(O)c2ccccc2)nn1
 SMILES IDX 21 1 22 2 23 3 20 5 18 6 16 7 15 8 9 9 8 10 14 11 6 12 5 13
 SMILES IDX 10 14 11 16 12 17 13 18 7 20 4 22 2 23 1 25 3 26 17 27 19 29
 SMILES IDX 24 31 25 32 26 33 27 34 39 35 28 36 38 37 29 38 30 39 31 40
 SMILES IDX 32 42 33 43 37 44 34 45 36 46 35 47
 H PARENT 21 4 10 15 13 19 7 21 4 24 17 28 19 30 31 41
 Flexibility Score: inf
  4 active torsions:
  status: ('A' for Active; 'I' for Inactive)
    1  A    between atoms: CA   and  CB  
    2  A    between atoms: CB   and  CG  
    3  A    between atoms: CG   and  CD  
    4  A    between atoms: CD   and  CE  

>  <TORSDO>
F 18

>  <BEGIN_>
RES LYS A 131

$$$$
ligand_68_pose_15_2HRL.pdbqt
 OpenBabel07062320523D

  6  5  0  0  0  0  0  0  0  0999 V2000
   33.1930   34.6630    9.2900 C   0  0  0  0  0  0  0  0  0  0  0  0
   32.0600   35.3600   10.0340 C   0  0  0  0  0  0  0  0  0  0  0  0
   30.7200   34.6950    9.8510 C   0  0  0  0  0  0  0  0  0  0  0  0
   30.1890   34.9340    8.4470 C   0  0  0  0  0  0  0  0  0  0  0  0
   28.7340   34.5190    8.3500 C   0  0  0  0  0  0  0  0  0  0  0  0
   28.0270   35.2840    7.2850 N   0  0  0  0  0  0  0  0  0  0  0  0
  1  2  1  0  0  0  0
  3  2  1  0  0  0  0
  4  3  1  0  0  0  0
  5  4  1  0  0  0  0
  6  5  1  0  0  0  0
M  END
>  <EGIN_R>
ES LYS A 135

>  <REMARK>
  4 active torsions:
  status: ('A' for Active; 'I' for Inactive)
    5  A    between atoms: CA   and  CB  
    6  A    between atoms: CB   and  CG  
    7  A    between atoms: CG   and  CD  
    8  A    between atoms: CD   and  CE  

$$$$
