ligand_65_pose_17_2HRL.pdbqt
 OpenBabel07062320523D

 53 54  0  0  1  0  0  0  0  0999 V2000
   31.3900   33.2270   16.7890 N   0  0  0  0  0  0  0  0  0  0  0  0
   31.8950   34.5340   16.9360 C   0  0  0  0  0  0  0  0  0  0  0  0
   31.6240   35.2870   17.8970 O   0  0  0  0  0  0  0  0  0  0  0  0
   31.6470   32.6120   15.9600 H   0  0  0  0  0  0  0  0  0  0  0  0
   30.4900   32.6890   17.7870 C   0  0  0  0  0  0  0  0  0  0  0  0
   29.1750   32.3880   17.1400 C   0  0  2  0  0  0  0  0  0  0  0  0
   29.3090   31.2010   16.2080 C   0  0  2  0  0  0  0  0  0  0  0  0
   28.0370   30.3750   16.3190 C   0  0  2  0  0  0  0  0  0  0  0  0
   26.0900   31.5540   15.7100 C   0  0  2  0  0  0  0  0  0  0  0  0
   25.7190   31.7610   17.1450 C   0  0  0  0  0  0  0  0  0  0  0  0
   27.1570   30.8160   15.4220 O   0  0  0  0  0  0  0  0  0  0  0  0
   26.1010   30.4960   17.9020 C   0  0  1  0  0  0  0  0  0  0  0  0
   27.6220   30.4380   17.7650 C   0  0  1  0  0  0  0  0  0  0  0  0
   26.2840   32.8460   15.1680 O   0  0  0  0  0  0  0  0  0  0  0  0
   25.7800   32.9640   14.3290 H   0  0  0  0  0  0  0  0  0  0  0  0
   24.8980   30.9920   15.0250 C   0  0  0  0  0  0  0  0  0  0  0  0
   24.0780   31.7460   14.4420 O   0  0  0  0  0  0  0  0  0  0  0  0
   24.6370   29.6320   14.9980 O   0  0  0  0  0  0  0  0  0  0  0  0
   23.7180   29.2420   15.2190 H   0  0  0  0  0  0  0  0  0  0  0  0
   25.7930   30.5880   19.2450 O   0  0  0  0  0  0  0  0  0  0  0  0
   25.0890   29.9050   19.4350 H   0  0  0  0  0  0  0  0  0  0  0  0
   28.1670   29.3270   18.5140 N   0  0  0  0  0  0  0  0  0  0  0  0
   28.7490   29.5200   19.7930 C   0  0  0  0  0  0  0  0  0  0  0  0
   28.1030   28.3890   18.0560 H   0  0  0  0  0  0  0  0  0  0  0  0
   29.2890   28.3430   20.5070 C   0  0  0  0  0  0  0  0  0  0  0  0
   28.8190   30.6480   20.3300 O   0  0  0  0  0  0  0  0  0  0  0  0
   30.4050   30.4120   16.6500 O   0  0  0  0  0  0  0  0  0  0  0  0
   30.8050   30.9510   17.3910 H   0  0  0  0  0  0  0  0  0  0  0  0
   28.7360   33.5260   16.4480 O   0  0  0  0  0  0  0  0  0  0  0  0
   28.3110   34.1620   17.0490 H   0  0  0  0  0  0  0  0  0  0  0  0
   32.7610   35.0320   15.9470 O   0  0  0  0  0  0  0  0  0  0  0  0
   32.6460   34.4940   14.6480 C   0  0  0  0  0  0  0  0  0  0  0  0
   31.5820   35.2500   13.9090 C   0  0  0  0  0  0  0  0  0  0  0  0
   30.3730   34.7640   13.4490 C   0  0  0  0  0  0  0  0  0  0  0  0
   31.5850   36.5520   13.5410 N   0  0  0  0  0  0  0  0  0  0  0  0
   29.6880   35.7490   12.8330 N   0  0  0  0  0  0  0  0  0  0  0  0
   30.4490   36.8180   12.9060 N   0  0  0  0  0  0  0  0  0  0  0  0
   28.3960   35.6400   12.2270 C   0  0  0  0  0  0  0  0  0  0  0  0
   27.4740   34.7680   12.6770 N   0  0  0  0  0  0  0  0  0  0  0  0
   28.0570   36.4120   11.1770 N   0  0  0  0  0  0  0  0  0  0  0  0
   26.2510   34.6350   12.1370 C   0  0  0  0  0  0  0  0  0  0  0  0
   26.8370   36.3240   10.5880 C   0  0  0  0  0  0  0  0  0  0  0  0
   25.9630   35.4400   11.0780 N   0  0  0  0  0  0  0  0  0  0  0  0
   26.4520   37.1710    9.4270 C   0  0  0  0  0  0  0  0  0  0  0  0
   25.2830   33.7230   12.6050 N   0  0  0  0  0  0  0  0  0  0  0  0
   25.0700   32.8750   12.0640 H   0  0  0  0  0  0  0  0  0  0  0  0
   24.7900   33.9100   13.4900 H   0  0  0  0  0  0  0  0  0  0  0  0
   29.8670   25.5550   16.9770 C   0  0  0  0  0  0  0  0  0  0  0  0
   28.3450   25.7220   17.0260 C   0  0  0  0  0  0  0  0  0  0  0  0
   27.6010   24.4020   16.8910 C   0  0  0  0  0  0  0  0  0  0  0  0
   26.5260   24.2490   17.9310 C   0  0  0  0  0  0  0  0  0  0  0  0
   25.1570   24.3590   17.2680 C   0  0  0  0  0  0  0  0  0  0  0  0
   24.4940   23.0340   17.2230 N   0  0  0  0  0  0  0  0  0  0  0  0
  1  2  1  0  0  0  0
  1  5  1  0  0  0  0
  2  3  2  0  0  0  0
  4  1  1  0  0  0  0
  6  5  1  6  0  0  0
  7 27  1  1  0  0  0
  7  6  1  0  0  0  0
  8  7  1  1  0  0  0
  8 13  1  0  0  0  0
  9 16  1  6  0  0  0
  9 10  1  0  0  0  0
 10 12  1  0  0  0  0
 11  9  1  0  0  0  0
 11  8  1  0  0  0  0
 12 20  1  1  0  0  0
 13 12  1  0  0  0  0
 13 22  1  1  0  0  0
 14  9  1  0  0  0  0
 15 14  1  0  0  0  0
 17 16  2  0  0  0  0
 18 16  1  0  0  0  0
 18 19  1  0  0  0  0
 20 21  1  0  0  0  0
 22 23  1  0  0  0  0
 23 26  2  0  0  0  0
 23 25  1  0  0  0  0
 24 22  1  0  0  0  0
 27 28  1  0  0  0  0
 29 30  1  0  0  0  0
 29  6  1  0  0  0  0
 31  2  1  0  0  0  0
 32 31  1  0  0  0  0
 33 32  1  0  0  0  0
 34 33  2  0  0  0  0
 35 33  1  0  0  0  0
 36 37  1  0  0  0  0
 36 34  1  0  0  0  0
 37 35  2  0  0  0  0
 38 39  2  0  0  0  0
 38 36  1  0  0  0  0
 40 38  1  0  0  0  0
 41 45  1  0  0  0  0
 41 39  2  0  0  0  0
 42 43  1  0  0  0  0
 42 40  2  0  0  0  0
 43 41  1  0  0  0  0
 44 42  1  0  0  0  0
 45 47  1  0  0  0  0
 46 45  1  0  0  0  0
 48 49  1  0  0  0  0
 50 49  1  0  0  0  0
 50 51  1  0  0  0  0
 52 51  1  0  0  0  0
 53 52  1  0  0  0  0
M  END
>  <REMARK>
 VINA RESULT:    -4.980      2.708      6.241
 INTER + INTRA:         -13.899
 INTER:                  -7.518
 INTRA:                  -6.381
 UNBOUND:                -5.134
 SMILES CC(=O)N[C@@H]1[C@@H](O)C[C@](O)(C(=O)O)O[C@H]1C(O)[C@H](O)CNC(=O)OCc1cn(-c2nc(C)nc(N)n2)nn1
 SMILES IDX 21 1 22 2 23 3 20 5 18 6 16 7 15 8 9 9 8 10 14 11 6 12 5 13
 SMILES IDX 10 14 11 16 12 17 13 18 7 20 4 22 2 23 1 25 3 26 17 27 19 29
 SMILES IDX 24 31 25 32 26 33 27 34 38 35 28 36 37 37 29 38 36 39 30 40
 SMILES IDX 34 41 31 42 33 43 32 44 35 45
 H PARENT 21 4 10 15 13 19 7 21 4 24 17 28 19 30 35 46 35 47
 Flexibility Score: inf
  4 active torsions:
  status: ('A' for Active; 'I' for Inactive)
    1  A    between atoms: CA   and  CB  
    2  A    between atoms: CB   and  CG  
    3  A    between atoms: CG   and  CD  
    4  A    between atoms: CD   and  CE  

>  <TORSDO>
F 16

>  <BEGIN_>
RES LYS A 131

$$$$
ligand_65_pose_17_2HRL.pdbqt
 OpenBabel07062320523D

  6  5  0  0  0  0  0  0  0  0999 V2000
   33.1930   34.6630    9.2900 C   0  0  0  0  0  0  0  0  0  0  0  0
   32.0600   35.3600   10.0340 C   0  0  0  0  0  0  0  0  0  0  0  0
   30.8710   35.6740    9.1630 C   0  0  0  0  0  0  0  0  0  0  0  0
   30.3240   34.4070    8.5240 C   0  0  0  0  0  0  0  0  0  0  0  0
   28.8860   34.6100    8.0860 C   0  0  0  0  0  0  0  0  0  0  0  0
   28.8130   35.4380    6.8510 N   0  0  0  0  0  0  0  0  0  0  0  0
  1  2  1  0  0  0  0
  3  2  1  0  0  0  0
  4  3  1  0  0  0  0
  5  4  1  0  0  0  0
  6  5  1  0  0  0  0
M  END
>  <EGIN_R>
ES LYS A 135

>  <REMARK>
  4 active torsions:
  status: ('A' for Active; 'I' for Inactive)
    5  A    between atoms: CA   and  CB  
    6  A    between atoms: CB   and  CG  
    7  A    between atoms: CG   and  CD  
    8  A    between atoms: CD   and  CE  

$$$$
