ligand_16_pose_13_2HRL.pdbqt
 OpenBabel07062320523D

 54 55  0  0  1  0  0  0  0  0999 V2000
   26.1930   39.5740    7.6200 N   0  0  0  0  0  0  0  0  0  0  0  0
   26.1150   40.1390    6.3370 C   0  0  0  0  0  0  0  0  0  0  0  0
   25.0540   40.6560    5.9500 O   0  0  0  0  0  0  0  0  0  0  0  0
   27.1370   39.1480    7.8730 H   0  0  0  0  0  0  0  0  0  0  0  0
   25.1000   39.5520    8.5570 C   0  0  0  0  0  0  0  0  0  0  0  0
   24.6020   38.1400    8.7160 C   0  0  2  0  0  0  0  0  0  0  0  0
   23.5250   37.7600    7.7500 C   0  0  1  0  0  0  0  0  0  0  0  0
   22.2810   37.2600    8.5060 C   0  0  2  0  0  0  0  0  0  0  0  0
   20.6680   35.6150    8.3160 C   0  0  2  0  0  0  0  0  0  0  0  0
   19.5530   36.5910    7.9740 C   0  0  0  0  0  0  0  0  0  0  0  0
   21.8320   36.1520    7.8210 O   0  0  0  0  0  0  0  0  0  0  0  0
   19.8420   37.9360    8.5580 C   0  0  1  0  0  0  0  0  0  0  0  0
   21.2810   38.3560    8.4390 C   0  0  1  0  0  0  0  0  0  0  0  0
   20.3710   34.4670    7.5260 O   0  0  0  0  0  0  0  0  0  0  0  0
   21.0030   34.4680    6.7400 H   0  0  0  0  0  0  0  0  0  0  0  0
   20.6680   35.2540    9.7360 C   0  0  0  0  0  0  0  0  0  0  0  0
   19.5720   34.8800   10.2780 O   0  0  0  0  0  0  0  0  0  0  0  0
   21.7530   35.2720   10.5900 O   0  0  0  0  0  0  0  0  0  0  0  0
   21.7440   34.6150   11.3590 H   0  0  0  0  0  0  0  0  0  0  0  0
   19.0790   38.8710    7.8180 O   0  0  0  0  0  0  0  0  0  0  0  0
   18.2210   38.4210    7.6220 H   0  0  0  0  0  0  0  0  0  0  0  0
   21.5430   39.4330    9.3720 N   0  0  0  0  0  0  0  0  0  0  0  0
   21.6050   40.7870    8.9590 C   0  0  0  0  0  0  0  0  0  0  0  0
   21.6940   39.2400   10.3850 H   0  0  0  0  0  0  0  0  0  0  0  0
   21.8800   41.8920    9.9480 C   0  0  0  0  0  0  0  0  0  0  0  0
   21.4270   41.0550    7.7560 O   0  0  0  0  0  0  0  0  0  0  0  0
   23.2030   38.7290    6.8300 O   0  0  0  0  0  0  0  0  0  0  0  0
   23.9070   38.7820    6.1340 H   0  0  0  0  0  0  0  0  0  0  0  0
   24.1810   37.8710   10.0250 O   0  0  0  0  0  0  0  0  0  0  0  0
   23.8850   38.7240   10.4530 H   0  0  0  0  0  0  0  0  0  0  0  0
   27.1800   40.1590    5.4460 O   0  0  0  0  0  0  0  0  0  0  0  0
   27.7140   39.0100    4.8340 C   0  0  0  0  0  0  0  0  0  0  0  0
   28.3540   38.1500    5.8510 C   0  0  0  0  0  0  0  0  0  0  0  0
   28.1840   36.7690    5.9640 C   0  0  0  0  0  0  0  0  0  0  0  0
   29.1950   38.4680    6.8540 N   0  0  0  0  0  0  0  0  0  0  0  0
   28.9080   36.3280    7.0000 N   0  0  0  0  0  0  0  0  0  0  0  0
   29.5080   37.3710    7.5200 N   0  0  0  0  0  0  0  0  0  0  0  0
   29.0020   34.9380    7.4710 C   0  0  0  0  0  0  0  0  0  0  0  0
   28.0260   34.8370    8.6030 C   0  0  0  0  0  0  0  0  0  0  0  0
   28.4890   34.6140    9.8700 C   0  0  0  0  0  0  0  0  0  0  0  0
   26.6740   34.9580    8.4020 C   0  0  0  0  0  0  0  0  0  0  0  0
   27.6030   34.5100   10.9470 C   0  0  0  0  0  0  0  0  0  0  0  0
   25.7920   34.8550    9.4730 C   0  0  0  0  0  0  0  0  0  0  0  0
   26.2480   34.6300   10.7570 C   0  0  0  0  0  0  0  0  0  0  0  0
   25.3150   34.5260   11.8710 C   0  0  0  0  0  0  0  0  0  0  0  0
   25.4380   33.6840   12.7870 O   0  0  0  0  0  0  0  0  0  0  0  0
   24.2330   35.3970   11.9350 O   0  0  0  0  0  0  0  0  0  0  0  0
   24.2030   36.2350   11.3800 H   0  0  0  0  0  0  0  0  0  0  0  0
   29.8670   25.5550   16.9770 C   0  0  0  0  0  0  0  0  0  0  0  0
   28.3450   25.7220   17.0260 C   0  0  0  0  0  0  0  0  0  0  0  0
   27.6010   24.4040   16.8750 C   0  0  0  0  0  0  0  0  0  0  0  0
   26.6660   24.1470   18.0250 C   0  0  0  0  0  0  0  0  0  0  0  0
   26.1620   25.4750   18.5780 C   0  0  0  0  0  0  0  0  0  0  0  0
   25.7010   25.3130   19.9770 N   0  0  0  0  0  0  0  0  0  0  0  0
  1  4  1  0  0  0  0
  1  5  1  0  0  0  0
  2  1  1  0  0  0  0
  3  2  2  0  0  0  0
  6  5  1  1  0  0  0
  6 29  1  0  0  0  0
  7 27  1  1  0  0  0
  7  6  1  0  0  0  0
  8  7  1  6  0  0  0
  9 14  1  6  0  0  0
  9 16  1  0  0  0  0
 10  9  1  0  0  0  0
 10 12  1  0  0  0  0
 11  9  1  0  0  0  0
 11  8  1  0  0  0  0
 12 20  1  6  0  0  0
 13  8  1  0  0  0  0
 13 12  1  0  0  0  0
 13 22  1  1  0  0  0
 15 14  1  0  0  0  0
 16 17  2  0  0  0  0
 16 18  1  0  0  0  0
 18 19  1  0  0  0  0
 21 20  1  0  0  0  0
 22 24  1  0  0  0  0
 23 22  1  0  0  0  0
 23 25  1  0  0  0  0
 26 23  2  0  0  0  0
 28 27  1  0  0  0  0
 29 30  1  0  0  0  0
 31  2  1  0  0  0  0
 32 31  1  0  0  0  0
 32 33  1  0  0  0  0
 33 34  2  0  0  0  0
 33 35  1  0  0  0  0
 34 36  1  0  0  0  0
 35 37  2  0  0  0  0
 36 38  1  0  0  0  0
 36 37  1  0  0  0  0
 38 39  1  0  0  0  0
 39 40  1  0  0  0  0
 40 42  2  0  0  0  0
 41 39  2  0  0  0  0
 41 43  1  0  0  0  0
 43 44  2  0  0  0  0
 44 42  1  0  0  0  0
 44 45  1  0  0  0  0
 45 47  1  0  0  0  0
 45 46  2  0  0  0  0
 48 47  1  0  0  0  0
 49 50  1  0  0  0  0
 51 50  1  0  0  0  0
 51 52  1  0  0  0  0
 52 53  1  0  0  0  0
 53 54  1  0  0  0  0
M  END
>  <REMARK>
 VINA RESULT:    -5.758      6.947     13.945
 INTER + INTRA:         -14.799
 INTER:                 -10.036
 INTRA:                  -4.764
 UNBOUND:                -3.993
 SMILES CC(=O)N[C@@H]1[C@@H](O)C[C@](O)(C(=O)O)O[C@H]1C(O)[C@H](O)CNC(=O)OCc1cn(Cc2ccc(C(=O)O)cc2)nn1
 SMILES IDX 21 1 22 2 23 3 20 5 18 6 16 7 15 8 9 9 8 10 14 11 6 12 5 13
 SMILES IDX 10 14 11 16 12 17 13 18 7 20 4 22 2 23 1 25 3 26 17 27 19 29
 SMILES IDX 24 31 25 32 26 33 27 34 40 35 28 36 39 37 29 38 30 39 31 40
 SMILES IDX 38 41 32 42 37 43 33 44 34 45 35 46 36 47
 H PARENT 21 4 10 15 13 19 7 21 4 24 17 28 19 30 36 48
 Flexibility Score: inf
  4 active torsions:
  status: ('A' for Active; 'I' for Inactive)
    1  A    between atoms: CA   and  CB  
    2  A    between atoms: CB   and  CG  
    3  A    between atoms: CG   and  CD  
    4  A    between atoms: CD   and  CE  

>  <TORSDO>
F 18

>  <BEGIN_>
RES LYS A 131

$$$$
ligand_16_pose_13_2HRL.pdbqt
 OpenBabel07062320523D

  6  5  0  0  0  0  0  0  0  0999 V2000
   33.1930   34.6630    9.2900 C   0  0  0  0  0  0  0  0  0  0  0  0
   32.0600   35.3600   10.0340 C   0  0  0  0  0  0  0  0  0  0  0  0
   32.3300   35.5460   11.5050 C   0  0  0  0  0  0  0  0  0  0  0  0
   31.1600   35.0390   12.3340 C   0  0  0  0  0  0  0  0  0  0  0  0
   30.6020   36.1490   13.2030 C   0  0  0  0  0  0  0  0  0  0  0  0
   29.7100   37.0480   12.4190 N   0  0  0  0  0  0  0  0  0  0  0  0
  1  2  1  0  0  0  0
  2  3  1  0  0  0  0
  3  4  1  0  0  0  0
  4  5  1  0  0  0  0
  6  5  1  0  0  0  0
M  END
>  <EGIN_R>
ES LYS A 135

>  <REMARK>
  4 active torsions:
  status: ('A' for Active; 'I' for Inactive)
    5  A    between atoms: CA   and  CB  
    6  A    between atoms: CB   and  CG  
    7  A    between atoms: CG   and  CD  
    8  A    between atoms: CD   and  CE  

$$$$
