ligand_57_pose_11_2HRL.pdbqt
 OpenBabel07062320523D

 50 51  0  0  1  0  0  0  0  0999 V2000
   25.7360   33.5800   16.1770 C   0  0  0  0  0  0  0  0  0  0  0  0
   25.1120   32.2350   16.3430 C   0  0  2  0  0  0  0  0  0  0  0  0
   26.0910   31.1050   16.1000 C   0  0  2  0  0  0  0  0  0  0  0  0
   27.4720   31.5220   16.5580 C   0  0  2  0  0  0  0  0  0  0  0  0
   29.5760   32.2160   15.8190 C   0  0  2  0  0  0  0  0  0  0  0  0
   30.2480   31.2770   16.7730 C   0  0  0  0  0  0  0  0  0  0  0  0
   28.2670   31.9540   15.5430 O   0  0  0  0  0  0  0  0  0  0  0  0
   29.3670   30.9630   17.9520 C   0  0  1  0  0  0  0  0  0  0  0  0
   28.0540   30.4240   17.3900 C   0  0  1  0  0  0  0  0  0  0  0  0
   30.3520   32.2360   14.6260 O   0  0  0  0  0  0  0  0  0  0  0  0
   30.4290   33.1550   14.2680 H   0  0  0  0  0  0  0  0  0  0  0  0
   29.6420   33.5850   16.3920 C   0  0  0  0  0  0  0  0  0  0  0  0
   28.9710   34.5120   15.8740 O   0  0  0  0  0  0  0  0  0  0  0  0
   30.4090   33.9360   17.4920 O   0  0  0  0  0  0  0  0  0  0  0  0
   30.1450   34.6870   18.1300 H   0  0  0  0  0  0  0  0  0  0  0  0
   29.9440   30.0010   18.7860 O   0  0  0  0  0  0  0  0  0  0  0  0
   30.2150   30.3710   19.6550 H   0  0  0  0  0  0  0  0  0  0  0  0
   27.2120   30.1940   18.5720 N   0  0  0  0  0  0  0  0  0  0  0  0
   26.9580   28.9020   19.0730 C   0  0  0  0  0  0  0  0  0  0  0  0
   26.8140   31.0280   19.0210 H   0  0  0  0  0  0  0  0  0  0  0  0
   26.0930   28.6840   20.2850 C   0  0  0  0  0  0  0  0  0  0  0  0
   27.4730   27.9180   18.4810 O   0  0  0  0  0  0  0  0  0  0  0  0
   26.0520   30.7650   14.7680 O   0  0  0  0  0  0  0  0  0  0  0  0
   26.9170   30.3760   14.4790 H   0  0  0  0  0  0  0  0  0  0  0  0
   24.0760   32.1120   15.3870 O   0  0  0  0  0  0  0  0  0  0  0  0
   23.9560   31.1630   15.1190 H   0  0  0  0  0  0  0  0  0  0  0  0
   26.1160   33.7470   14.7910 N   0  0  0  0  0  0  0  0  0  0  0  0
   25.9820   34.9590   14.0620 C   0  0  0  0  0  0  0  0  0  0  0  0
   26.5300   32.9460   14.2240 H   0  0  0  0  0  0  0  0  0  0  0  0
   25.5130   35.9580   14.6280 O   0  0  0  0  0  0  0  0  0  0  0  0
   26.3600   35.0700   12.7300 O   0  0  0  0  0  0  0  0  0  0  0  0
   27.2400   36.0960   12.3140 C   0  0  0  0  0  0  0  0  0  0  0  0
   28.6510   35.7170   12.5790 C   0  0  0  0  0  0  0  0  0  0  0  0
   29.6900   36.5210   12.9530 C   0  0  0  0  0  0  0  0  0  0  0  0
   29.1640   34.4750   12.4900 N   0  0  0  0  0  0  0  0  0  0  0  0
   30.7980   35.7730   13.0830 N   0  0  0  0  0  0  0  0  0  0  0  0
   30.4360   34.5200   12.7910 N   0  0  0  0  0  0  0  0  0  0  0  0
   32.1080   36.2490   13.4650 C   0  0  0  0  0  0  0  0  0  0  0  0
   33.0620   35.1030   13.7190 C   0  0  0  0  0  0  0  0  0  0  0  0
   32.0320   37.1990   14.6230 C   0  0  0  0  0  0  0  0  0  0  0  0
   32.9370   34.5460   15.1170 C   0  0  0  0  0  0  0  0  0  0  0  0
   31.8740   36.5300   15.9520 C   0  0  0  0  0  0  0  0  0  0  0  0
   32.9170   35.5650   16.1240 N   0  0  0  0  0  0  0  0  0  0  0  0
   34.1780   36.2310   16.2810 C   0  0  0  0  0  0  0  0  0  0  0  0
   29.8670   25.5550   16.9770 C   0  0  0  0  0  0  0  0  0  0  0  0
   28.3450   25.7220   17.0260 C   0  0  0  0  0  0  0  0  0  0  0  0
   27.6010   24.4010   16.9050 C   0  0  0  0  0  0  0  0  0  0  0  0
   26.5010   24.2750   17.9220 C   0  0  0  0  0  0  0  0  0  0  0  0
   25.1610   24.5820   17.2630 C   0  0  0  0  0  0  0  0  0  0  0  0
   24.1100   24.7780   18.2900 N   0  0  0  0  0  0  0  0  0  0  0  0
  2  1  1  6  0  0  0
  3 23  1  6  0  0  0
  3  2  1  0  0  0  0
  4  3  1  6  0  0  0
  4  9  1  0  0  0  0
  5 10  1  6  0  0  0
  5 12  1  0  0  0  0
  5  6  1  0  0  0  0
  6  8  1  0  0  0  0
  7  5  1  0  0  0  0
  7  4  1  0  0  0  0
  8 16  1  1  0  0  0
  9  8  1  0  0  0  0
  9 18  1  1  0  0  0
 11 10  1  0  0  0  0
 12 14  1  0  0  0  0
 13 12  2  0  0  0  0
 14 15  1  0  0  0  0
 16 17  1  0  0  0  0
 18 20  1  0  0  0  0
 18 19  1  0  0  0  0
 19 21  1  0  0  0  0
 22 19  2  0  0  0  0
 24 23  1  0  0  0  0
 25  2  1  0  0  0  0
 26 25  1  0  0  0  0
 27  1  1  0  0  0  0
 28 30  2  0  0  0  0
 28 27  1  0  0  0  0
 29 27  1  0  0  0  0
 31 28  1  0  0  0  0
 32 33  1  0  0  0  0
 32 31  1  0  0  0  0
 33 34  2  0  0  0  0
 34 36  1  0  0  0  0
 35 33  1  0  0  0  0
 35 37  2  0  0  0  0
 36 38  1  0  0  0  0
 37 36  1  0  0  0  0
 38 39  1  0  0  0  0
 38 40  1  0  0  0  0
 39 41  1  0  0  0  0
 40 42  1  0  0  0  0
 41 43  1  0  0  0  0
 42 43  1  0  0  0  0
 43 44  1  0  0  0  0
 45 46  1  0  0  0  0
 47 46  1  0  0  0  0
 47 48  1  0  0  0  0
 49 48  1  0  0  0  0
 49 50  1  0  0  0  0
M  END
>  <REMARK>
 VINA RESULT:    -4.408      3.230      5.420
 INTER + INTRA:         -13.415
 INTER:                  -7.462
 INTRA:                  -5.954
 UNBOUND:                -5.786
 SMILES CC(=O)N[C@@H]1[C@@H](O)C[C@](O)(C(=O)O)O[C@H]1C(O)[C@H](O)CNC(=O)OCc1cn(C2CCN(C)CC2)nn1
 SMILES IDX 20 1 18 2 16 3 15 4 9 5 8 6 14 7 6 8 5 9 10 10 11 12 12 13
 SMILES IDX 13 14 7 16 4 18 2 19 1 21 3 22 17 23 19 25 21 27 22 28 23 30
 SMILES IDX 24 31 25 32 26 33 27 34 37 35 28 36 36 37 29 38 30 39 35 40
 SMILES IDX 31 41 34 42 32 43 33 44
 H PARENT 10 11 13 15 7 17 4 20 17 24 19 26 21 29
 Flexibility Score: inf
  4 active torsions:
  status: ('A' for Active; 'I' for Inactive)
    1  A    between atoms: CA   and  CB  
    2  A    between atoms: CB   and  CG  
    3  A    between atoms: CG   and  CD  
    4  A    between atoms: CD   and  CE  

>  <TORSDO>
F 15

>  <BEGIN_>
RES LYS A 131

$$$$
ligand_57_pose_11_2HRL.pdbqt
 OpenBabel07062320523D

  6  5  0  0  0  0  0  0  0  0999 V2000
   33.1930   34.6630    9.2900 C   0  0  0  0  0  0  0  0  0  0  0  0
   32.0600   35.3600   10.0340 C   0  0  0  0  0  0  0  0  0  0  0  0
   30.7980   35.4930    9.2220 C   0  0  0  0  0  0  0  0  0  0  0  0
   30.2220   34.1230    8.8970 C   0  0  0  0  0  0  0  0  0  0  0  0
   28.7100   34.1390    9.0160 C   0  0  0  0  0  0  0  0  0  0  0  0
   28.0910   34.8930    7.8910 N   0  0  0  0  0  0  0  0  0  0  0  0
  1  2  1  0  0  0  0
  3  2  1  0  0  0  0
  4  5  1  0  0  0  0
  4  3  1  0  0  0  0
  6  5  1  0  0  0  0
M  END
>  <EGIN_R>
ES LYS A 135

>  <REMARK>
  4 active torsions:
  status: ('A' for Active; 'I' for Inactive)
    5  A    between atoms: CA   and  CB  
    6  A    between atoms: CB   and  CG  
    7  A    between atoms: CG   and  CD  
    8  A    between atoms: CD   and  CE  

$$$$
