ligand_31_pose_17_2HRL.pdbqt
 OpenBabel07062320523D

 57 58  0  0  1  0  0  0  0  0999 V2000
   22.8350   36.5320   14.1250 O   0  0  0  0  0  0  0  0  0  0  0  0
   24.1960   36.6620   14.3840 C   0  0  0  0  0  0  0  0  0  0  0  0
   25.0940   35.5880   14.4680 N   0  0  0  0  0  0  0  0  0  0  0  0
   24.7570   34.6240   14.3330 H   0  0  0  0  0  0  0  0  0  0  0  0
   24.6420   37.8270   14.5550 O   0  0  0  0  0  0  0  0  0  0  0  0
   26.5110   35.8390   14.7470 C   0  0  0  0  0  0  0  0  0  0  0  0
   27.3230   35.4250   13.5490 C   0  0  2  0  0  0  0  0  0  0  0  0
   27.4840   36.5370   12.5500 C   0  0  1  0  0  0  0  0  0  0  0  0
   28.9200   36.7950   12.1940 C   0  0  2  0  0  0  0  0  0  0  0  0
   31.0210   36.7110   13.2120 C   0  0  2  0  0  0  0  0  0  0  0  0
   31.5740   37.7060   12.2450 C   0  0  0  0  0  0  0  0  0  0  0  0
   29.6740   36.7380   13.3800 O   0  0  0  0  0  0  0  0  0  0  0  0
   30.6410   38.1750   11.2030 C   0  0  1  0  0  0  0  0  0  0  0  0
   29.1900   38.1760   11.6500 C   0  0  1  0  0  0  0  0  0  0  0  0
   31.5810   37.0590   14.4690 O   0  0  0  0  0  0  0  0  0  0  0  0
   30.9320   36.9020   15.1980 H   0  0  0  0  0  0  0  0  0  0  0  0
   31.4620   35.3230   12.9290 C   0  0  0  0  0  0  0  0  0  0  0  0
   30.7980   34.3240   13.3270 O   0  0  0  0  0  0  0  0  0  0  0  0
   32.6200   35.0330   12.2180 O   0  0  0  0  0  0  0  0  0  0  0  0
   33.5270   35.1430   12.6600 H   0  0  0  0  0  0  0  0  0  0  0  0
   31.0060   39.4720   10.7840 O   0  0  0  0  0  0  0  0  0  0  0  0
   30.4670   39.7730   10.0250 H   0  0  0  0  0  0  0  0  0  0  0  0
   28.3380   38.6060   10.5960 N   0  0  0  0  0  0  0  0  0  0  0  0
   27.5990   39.8190   10.7590 C   0  0  0  0  0  0  0  0  0  0  0  0
   28.2120   38.1020    9.6930 H   0  0  0  0  0  0  0  0  0  0  0  0
   26.6870   40.3500    9.7230 C   0  0  0  0  0  0  0  0  0  0  0  0
   27.7150   40.4840   11.8290 O   0  0  0  0  0  0  0  0  0  0  0  0
   26.6410   36.4310   11.4590 O   0  0  0  0  0  0  0  0  0  0  0  0
   27.1120   36.2860   10.6000 H   0  0  0  0  0  0  0  0  0  0  0  0
   26.5420   34.4400   12.8850 O   0  0  0  0  0  0  0  0  0  0  0  0
   27.1170   34.1670   12.1050 H   0  0  0  0  0  0  0  0  0  0  0  0
   22.3290   35.4490   13.3750 C   0  0  0  0  0  0  0  0  0  0  0  0
   22.8350   35.5690   11.9900 C   0  0  0  0  0  0  0  0  0  0  0  0
   22.2870   36.3000   10.9710 C   0  0  0  0  0  0  0  0  0  0  0  0
   23.9310   34.9750   11.4930 N   0  0  0  0  0  0  0  0  0  0  0  0
   23.0630   36.1310    9.8850 N   0  0  0  0  0  0  0  0  0  0  0  0
   24.0620   35.3250   10.2070 N   0  0  0  0  0  0  0  0  0  0  0  0
   22.8660   36.7220    8.5590 C   0  0  0  0  0  0  0  0  0  0  0  0
   23.7460   37.9420    8.4730 C   0  0  0  0  0  0  0  0  0  0  0  0
   24.6230   37.8190    7.3370 N   0  0  0  0  0  0  0  0  0  0  0  0
   25.9620   37.3660    7.4080 C   0  0  0  0  0  0  0  0  0  0  0  0
   24.2700   38.0780    6.3720 H   0  0  0  0  0  0  0  0  0  0  0  0
   26.4260   37.0430    8.5430 O   0  0  0  0  0  0  0  0  0  0  0  0
   26.7480   37.2830    6.2290 N   0  0  0  0  0  0  0  0  0  0  0  0
   26.3940   37.5410    5.2900 H   0  0  0  0  0  0  0  0  0  0  0  0
   28.1110   36.8160    6.3410 C   0  0  0  0  0  0  0  0  0  0  0  0
   28.9880   37.9830    6.5770 C   0  0  0  0  0  0  0  0  0  0  0  0
   29.5300   38.7630    5.5620 C   0  0  0  0  0  0  0  0  0  0  0  0
   29.3810   38.4530    7.7190 O   0  0  0  0  0  0  0  0  0  0  0  0
   30.2740   39.7310    6.2010 C   0  0  0  0  0  0  0  0  0  0  0  0
   30.1450   39.4890    7.5530 C   0  0  0  0  0  0  0  0  0  0  0  0
   29.8670   25.5550   16.9770 C   0  0  0  0  0  0  0  0  0  0  0  0
   28.3450   25.7220   17.0260 C   0  0  0  0  0  0  0  0  0  0  0  0
   27.6010   24.4060   16.8610 C   0  0  0  0  0  0  0  0  0  0  0  0
   26.6470   24.1490   17.9950 C   0  0  0  0  0  0  0  0  0  0  0  0
   25.8430   25.4130   18.2810 C   0  0  0  0  0  0  0  0  0  0  0  0
   25.9210   25.7640   19.7190 N   0  0  0  0  0  0  0  0  0  0  0  0
  1  2  1  0  0  0  0
  2  3  1  0  0  0  0
  2  5  2  0  0  0  0
  3  6  1  0  0  0  0
  4  3  1  0  0  0  0
  7  6  1  1  0  0  0
  8 28  1  6  0  0  0
  8  7  1  0  0  0  0
  9  8  1  1  0  0  0
  9 12  1  0  0  0  0
 10 17  1  6  0  0  0
 10 12  1  0  0  0  0
 10 15  1  0  0  0  0
 11 10  1  0  0  0  0
 13 21  1  1  0  0  0
 13 14  1  0  0  0  0
 13 11  1  0  0  0  0
 14 23  1  6  0  0  0
 14  9  1  0  0  0  0
 15 16  1  0  0  0  0
 17 18  2  0  0  0  0
 19 20  1  0  0  0  0
 19 17  1  0  0  0  0
 22 21  1  0  0  0  0
 23 24  1  0  0  0  0
 24 27  2  0  0  0  0
 25 23  1  0  0  0  0
 26 24  1  0  0  0  0
 29 28  1  0  0  0  0
 30  7  1  0  0  0  0
 31 30  1  0  0  0  0
 32  1  1  0  0  0  0
 33 32  1  0  0  0  0
 34 33  2  0  0  0  0
 35 33  1  0  0  0  0
 36 37  1  0  0  0  0
 36 34  1  0  0  0  0
 37 35  2  0  0  0  0
 38 36  1  0  0  0  0
 39 38  1  0  0  0  0
 40 41  1  0  0  0  0
 40 39  1  0  0  0  0
 41 43  2  0  0  0  0
 42 40  1  0  0  0  0
 44 46  1  0  0  0  0
 44 41  1  0  0  0  0
 45 44  1  0  0  0  0
 46 47  1  0  0  0  0
 47 49  1  0  0  0  0
 48 50  1  0  0  0  0
 48 47  2  0  0  0  0
 50 51  2  0  0  0  0
 51 49  1  0  0  0  0
 52 53  1  0  0  0  0
 54 53  1  0  0  0  0
 54 55  1  0  0  0  0
 55 56  1  0  0  0  0
 56 57  1  0  0  0  0
M  END
>  <REMARK>
 VINA RESULT:    -4.844      7.023     12.067
 INTER + INTRA:         -15.425
 INTER:                  -7.572
 INTRA:                  -7.854
 UNBOUND:                -5.909
 SMILES CC(=O)N[C@@H]1[C@@H](O)C[C@](O)(C(=O)O)O[C@H]1C(O)[C@H](O)CNC(=O)OCc1cn(CCNC(=O)NCc2ccco2)nn1
 SMILES IDX 24 1 22 2 21 3 23 5 20 6 18 7 16 8 15 9 9 10 8 11 14 12 6 13
 SMILES IDX 5 14 10 15 11 17 12 18 13 19 7 21 4 23 2 24 1 26 3 27 17 28
 SMILES IDX 19 30 25 32 26 33 27 34 42 35 28 36 41 37 29 38 30 39 31 40
 SMILES IDX 32 41 33 43 34 44 35 46 36 47 37 48 40 49 38 50 39 51
 H PARENT 21 4 10 16 13 20 7 22 4 25 17 29 19 31 31 42 34 45
 Flexibility Score: inf
  4 active torsions:
  status: ('A' for Active; 'I' for Inactive)
    1  A    between atoms: CA   and  CB  
    2  A    between atoms: CB   and  CG  
    3  A    between atoms: CG   and  CD  
    4  A    between atoms: CD   and  CE  

>  <TORSDO>
F 19

>  <BEGIN_>
RES LYS A 131

$$$$
ligand_31_pose_17_2HRL.pdbqt
 OpenBabel07062320523D

  6  5  0  0  0  0  0  0  0  0999 V2000
   33.1930   34.6630    9.2900 C   0  0  0  0  0  0  0  0  0  0  0  0
   32.0600   35.3600   10.0340 C   0  0  0  0  0  0  0  0  0  0  0  0
   30.7930   35.4790    9.2270 C   0  0  0  0  0  0  0  0  0  0  0  0
   30.1140   34.1250    9.0910 C   0  0  0  0  0  0  0  0  0  0  0  0
   28.6590   34.2960    8.6970 C   0  0  0  0  0  0  0  0  0  0  0  0
   27.7530   33.7170    9.7270 N   0  0  0  0  0  0  0  0  0  0  0  0
  1  2  1  0  0  0  0
  3  2  1  0  0  0  0
  4  3  1  0  0  0  0
  5  4  1  0  0  0  0
  5  6  1  0  0  0  0
M  END
>  <EGIN_R>
ES LYS A 135

>  <REMARK>
  4 active torsions:
  status: ('A' for Active; 'I' for Inactive)
    5  A    between atoms: CA   and  CB  
    6  A    between atoms: CB   and  CG  
    7  A    between atoms: CG   and  CD  
    8  A    between atoms: CD   and  CE  

$$$$
