ligand_36_pose_8_2HRL.pdbqt
 OpenBabel07062320523D

 52 53  0  0  1  0  0  0  0  0999 V2000
   28.8840   31.4820   18.0700 N   0  0  0  0  0  0  0  0  0  0  0  0
   27.8560   32.3500   18.5420 C   0  0  0  0  0  0  0  0  0  0  0  0
   28.0000   33.6150   18.4050 O   0  0  0  0  0  0  0  0  0  0  0  0
   28.7430   30.4620   18.1890 H   0  0  0  0  0  0  0  0  0  0  0  0
   30.0410   32.0330   17.4650 C   0  0  0  0  0  0  0  0  0  0  0  0
   30.2670   31.6870   16.0120 C   0  0  2  0  0  0  0  0  0  0  0  0
   29.6480   32.6870   15.0570 C   0  0  2  0  0  0  0  0  0  0  0  0
   30.6060   33.7430   14.6230 C   0  0  2  0  0  0  0  0  0  0  0  0
   31.9050   35.4820   15.4640 C   0  0  2  0  0  0  0  0  0  0  0  0
   32.3610   35.5700   14.0250 C   0  0  0  0  0  0  0  0  0  0  0  0
   31.1860   34.3570   15.7390 O   0  0  0  0  0  0  0  0  0  0  0  0
   31.2410   35.4820   13.0490 C   0  0  1  0  0  0  0  0  0  0  0  0
   30.0440   34.8370   13.7700 C   0  0  1  0  0  0  0  0  0  0  0  0
   31.1960   36.6620   15.7770 O   0  0  0  0  0  0  0  0  0  0  0  0
   31.2100   36.7620   16.7730 H   0  0  0  0  0  0  0  0  0  0  0  0
   33.1250   35.4730   16.2980 C   0  0  0  0  0  0  0  0  0  0  0  0
   34.2430   35.6210   15.7550 O   0  0  0  0  0  0  0  0  0  0  0  0
   33.0380   35.3030   17.6600 O   0  0  0  0  0  0  0  0  0  0  0  0
   32.2340   34.9540   18.1490 H   0  0  0  0  0  0  0  0  0  0  0  0
   30.8850   36.6890   12.4820 O   0  0  0  0  0  0  0  0  0  0  0  0
   30.3050   36.4770   11.6870 H   0  0  0  0  0  0  0  0  0  0  0  0
   29.0390   34.4520   12.8290 N   0  0  0  0  0  0  0  0  0  0  0  0
   27.6950   34.9500   12.9300 C   0  0  0  0  0  0  0  0  0  0  0  0
   29.2390   33.7990   12.0190 H   0  0  0  0  0  0  0  0  0  0  0  0
   26.6530   34.5410   11.9420 C   0  0  0  0  0  0  0  0  0  0  0  0
   27.3670   35.7360   13.8520 O   0  0  0  0  0  0  0  0  0  0  0  0
   28.4570   33.1300   15.5320 O   0  0  0  0  0  0  0  0  0  0  0  0
   27.7170   33.1160   14.9240 H   0  0  0  0  0  0  0  0  0  0  0  0
   29.6200   30.4340   15.8520 O   0  0  0  0  0  0  0  0  0  0  0  0
   29.3370   30.0580   16.7050 H   0  0  0  0  0  0  0  0  0  0  0  0
   26.6880   31.9260   19.1490 O   0  0  0  0  0  0  0  0  0  0  0  0
   25.9550   30.8760   18.5580 C   0  0  0  0  0  0  0  0  0  0  0  0
   25.9390   30.9740   17.0790 C   0  0  0  0  0  0  0  0  0  0  0  0
   25.0260   31.6400   16.2760 C   0  0  0  0  0  0  0  0  0  0  0  0
   26.8320   30.4210   16.2500 N   0  0  0  0  0  0  0  0  0  0  0  0
   25.3930   31.4710   15.0020 N   0  0  0  0  0  0  0  0  0  0  0  0
   26.4820   30.7330   15.0200 N   0  0  0  0  0  0  0  0  0  0  0  0
   24.7390   31.9950   13.8220 C   0  0  0  0  0  0  0  0  0  0  0  0
   23.6370   31.1650   13.3350 C   0  0  0  0  0  0  0  0  0  0  0  0
   23.8550   29.8480   13.0220 C   0  0  0  0  0  0  0  0  0  0  0  0
   22.3720   31.7130   13.1850 C   0  0  0  0  0  0  0  0  0  0  0  0
   22.8260   29.0530   12.5550 C   0  0  0  0  0  0  0  0  0  0  0  0
   21.3210   30.9350   12.7180 C   0  0  0  0  0  0  0  0  0  0  0  0
   21.5680   29.5970   12.4060 C   0  0  0  0  0  0  0  0  0  0  0  0
   20.4930   28.7830   11.9200 C   0  0  0  0  0  0  0  0  0  0  0  0
   19.6260   28.1080   11.5130 N   0  0  0  0  0  0  0  0  0  0  0  0
   29.8670   25.5550   16.9770 C   0  0  0  0  0  0  0  0  0  0  0  0
   28.3450   25.7220   17.0260 C   0  0  0  0  0  0  0  0  0  0  0  0
   27.6010   24.4050   16.8700 C   0  0  0  0  0  0  0  0  0  0  0  0
   26.1610   24.5140   17.2900 C   0  0  0  0  0  0  0  0  0  0  0  0
   25.7400   23.2340   18.0040 C   0  0  0  0  0  0  0  0  0  0  0  0
   25.5050   23.4970   19.4430 N   0  0  0  0  0  0  0  0  0  0  0  0
  1  4  1  0  0  0  0
  1  2  1  0  0  0  0
  2 31  1  0  0  0  0
  3  2  2  0  0  0  0
  5  1  1  0  0  0  0
  6  5  1  1  0  0  0
  7 27  1  1  0  0  0
  7  6  1  0  0  0  0
  8  7  1  1  0  0  0
  8 11  1  0  0  0  0
  9 11  1  0  0  0  0
  9 14  1  1  0  0  0
  9 16  1  0  0  0  0
 10  9  1  0  0  0  0
 12 20  1  1  0  0  0
 12 13  1  0  0  0  0
 12 10  1  0  0  0  0
 13 22  1  6  0  0  0
 13  8  1  0  0  0  0
 14 15  1  0  0  0  0
 16 18  1  0  0  0  0
 17 16  2  0  0  0  0
 18 19  1  0  0  0  0
 21 20  1  0  0  0  0
 22 23  1  0  0  0  0
 23 26  2  0  0  0  0
 24 22  1  0  0  0  0
 25 23  1  0  0  0  0
 28 27  1  0  0  0  0
 29  6  1  0  0  0  0
 29 30  1  0  0  0  0
 32 31  1  0  0  0  0
 33 32  1  0  0  0  0
 34 33  2  0  0  0  0
 35 33  1  0  0  0  0
 36 37  1  0  0  0  0
 36 34  1  0  0  0  0
 37 35  2  0  0  0  0
 38 36  1  0  0  0  0
 39 38  1  0  0  0  0
 40 39  2  0  0  0  0
 41 39  1  0  0  0  0
 42 40  1  0  0  0  0
 43 41  2  0  0  0  0
 44 42  2  0  0  0  0
 44 43  1  0  0  0  0
 45 44  1  0  0  0  0
 46 45  3  0  0  0  0
 47 48  1  0  0  0  0
 49 48  1  0  0  0  0
 49 50  1  0  0  0  0
 50 51  1  0  0  0  0
 51 52  1  0  0  0  0
M  END
>  <REMARK>
 VINA RESULT:    -4.303      4.162      8.528
 INTER + INTRA:         -14.932
 INTER:                  -8.917
 INTRA:                  -6.015
 UNBOUND:                -6.980
 SMILES CC(=O)N[C@@H]1[C@@H](O)C[C@](O)(C(=O)O)O[C@H]1C(O)[C@H](O)CNC(=O)OCc1cn(Cc2ccc(C#N)cc2)nn1
 SMILES IDX 21 1 22 2 23 3 20 5 18 6 16 7 15 8 9 9 8 10 14 11 6 12 5 13
 SMILES IDX 10 14 11 16 12 17 13 18 7 20 4 22 2 23 1 25 3 26 17 27 19 29
 SMILES IDX 24 31 25 32 26 33 27 34 39 35 28 36 38 37 29 38 30 39 31 40
 SMILES IDX 37 41 32 42 36 43 33 44 34 45 35 46
 H PARENT 21 4 10 15 13 19 7 21 4 24 17 28 19 30
 Flexibility Score: inf
  4 active torsions:
  status: ('A' for Active; 'I' for Inactive)
    1  A    between atoms: CA   and  CB  
    2  A    between atoms: CB   and  CG  
    3  A    between atoms: CG   and  CD  
    4  A    between atoms: CD   and  CE  

>  <TORSDO>
F 17

>  <BEGIN_>
RES LYS A 131

$$$$
ligand_36_pose_8_2HRL.pdbqt
 OpenBabel07062320523D

  6  5  0  0  0  0  0  0  0  0999 V2000
   33.1930   34.6630    9.2900 C   0  0  0  0  0  0  0  0  0  0  0  0
   32.0600   35.3600   10.0340 C   0  0  0  0  0  0  0  0  0  0  0  0
   30.7800   35.4400    9.2430 C   0  0  0  0  0  0  0  0  0  0  0  0
   30.1890   34.0540    9.0360 C   0  0  0  0  0  0  0  0  0  0  0  0
   28.6760   34.1240    8.9710 C   0  0  0  0  0  0  0  0  0  0  0  0
   28.2260   34.9890    7.8450 N   0  0  0  0  0  0  0  0  0  0  0  0
  1  2  1  0  0  0  0
  3  2  1  0  0  0  0
  4  3  1  0  0  0  0
  5  4  1  0  0  0  0
  6  5  1  0  0  0  0
M  END
>  <EGIN_R>
ES LYS A 135

>  <REMARK>
  4 active torsions:
  status: ('A' for Active; 'I' for Inactive)
    5  A    between atoms: CA   and  CB  
    6  A    between atoms: CB   and  CG  
    7  A    between atoms: CG   and  CD  
    8  A    between atoms: CD   and  CE  

$$$$
