ligand_23_pose_11_2HRL.pdbqt
 OpenBabel07062320523D

 55 56  0  0  1  0  0  0  0  0999 V2000
   25.2690   32.5450   15.1630 N   0  0  0  0  0  0  0  0  0  0  0  0
   25.9790   33.7180   14.8010 C   0  0  0  0  0  0  0  0  0  0  0  0
   26.6720   34.2890   15.6600 O   0  0  0  0  0  0  0  0  0  0  0  0
   24.7020   32.1130   14.3840 H   0  0  0  0  0  0  0  0  0  0  0  0
   25.3120   31.9820   16.4880 C   0  0  0  0  0  0  0  0  0  0  0  0
   25.6610   30.5100   16.4410 C   0  0  2  0  0  0  0  0  0  0  0  0
   27.1470   30.3570   16.1490 C   0  0  1  0  0  0  0  0  0  0  0  0
   27.9190   31.2850   17.0850 C   0  0  2  0  0  0  0  0  0  0  0  0
   30.1800   31.6490   16.7240 C   0  0  2  0  0  0  0  0  0  0  0  0
   30.4760   31.8130   18.1970 C   0  0  0  0  0  0  0  0  0  0  0  0
   28.8760   31.9680   16.4000 O   0  0  0  0  0  0  0  0  0  0  0  0
   29.3380   31.4070   19.0710 C   0  0  1  0  0  0  0  0  0  0  0  0
   28.4090   30.5000   18.2630 C   0  0  1  0  0  0  0  0  0  0  0  0
   30.4780   30.3660   16.2740 O   0  0  0  0  0  0  0  0  0  0  0  0
   29.7520   30.0740   15.6370 H   0  0  0  0  0  0  0  0  0  0  0  0
   31.0630   32.5980   15.9960 C   0  0  0  0  0  0  0  0  0  0  0  0
   31.4500   33.6750   16.5210 O   0  0  0  0  0  0  0  0  0  0  0  0
   31.5080   32.3420   14.6980 O   0  0  0  0  0  0  0  0  0  0  0  0
   32.3340   31.7770   14.5400 H   0  0  0  0  0  0  0  0  0  0  0  0
   29.7210   30.7910   20.2490 O   0  0  0  0  0  0  0  0  0  0  0  0
   29.1690   29.9880   20.4710 H   0  0  0  0  0  0  0  0  0  0  0  0
   27.2540   30.1630   19.0780 N   0  0  0  0  0  0  0  0  0  0  0  0
   27.1240   28.9040   19.7350 C   0  0  0  0  0  0  0  0  0  0  0  0
   26.4830   30.8780   19.1860 H   0  0  0  0  0  0  0  0  0  0  0  0
   25.8990   28.6700   20.5430 C   0  0  0  0  0  0  0  0  0  0  0  0
   28.0390   28.0750   19.5980 O   0  0  0  0  0  0  0  0  0  0  0  0
   27.5030   29.0530   16.4420 O   0  0  0  0  0  0  0  0  0  0  0  0
   27.7500   28.5560   15.6270 H   0  0  0  0  0  0  0  0  0  0  0  0
   24.9110   29.9180   15.4090 O   0  0  0  0  0  0  0  0  0  0  0  0
   25.4800   29.7750   14.5900 H   0  0  0  0  0  0  0  0  0  0  0  0
   25.9130   34.2400   13.5050 O   0  0  0  0  0  0  0  0  0  0  0  0
   24.6990   34.2610   12.7840 C   0  0  0  0  0  0  0  0  0  0  0  0
   24.8990   34.9160   11.4670 C   0  0  0  0  0  0  0  0  0  0  0  0
   26.1050   34.9960   10.7980 C   0  0  0  0  0  0  0  0  0  0  0  0
   24.0000   35.5330   10.6920 N   0  0  0  0  0  0  0  0  0  0  0  0
   25.8450   35.6600    9.6600 N   0  0  0  0  0  0  0  0  0  0  0  0
   24.5650   35.9920    9.5860 N   0  0  0  0  0  0  0  0  0  0  0  0
   26.8030   35.9780    8.6530 C   0  0  0  0  0  0  0  0  0  0  0  0
   27.3720   37.2270    8.5330 C   0  0  0  0  0  0  0  0  0  0  0  0
   27.2030   35.0170    7.7400 C   0  0  0  0  0  0  0  0  0  0  0  0
   28.3080   37.5290    7.5460 C   0  0  0  0  0  0  0  0  0  0  0  0
   28.1210   35.2890    6.7620 C   0  0  0  0  0  0  0  0  0  0  0  0
   28.6710   36.5450    6.6680 C   0  0  0  0  0  0  0  0  0  0  0  0
   29.0210   39.1030    7.4000 S   0  0  0  0  0  0  0  0  0  0  0  0
   28.9220   39.7930    8.7370 O   0  0  0  0  0  0  0  0  0  0  0  0
   28.2090   39.9310    6.4320 O   0  0  0  0  0  0  0  0  0  0  0  0
   30.6700   39.0160    6.9320 N   0  0  0  0  0  0  0  0  0  0  0  0
   30.9040   38.0470    6.6520 H   0  0  0  0  0  0  0  0  0  0  0  0
   31.3140   39.3650    7.6720 H   0  0  0  0  0  0  0  0  0  0  0  0
   29.8670   25.5550   16.9770 C   0  0  0  0  0  0  0  0  0  0  0  0
   28.3450   25.7220   17.0260 C   0  0  0  0  0  0  0  0  0  0  0  0
   27.6010   24.4020   16.8890 C   0  0  0  0  0  0  0  0  0  0  0  0
   26.1560   24.5230   17.2880 C   0  0  0  0  0  0  0  0  0  0  0  0
   25.9090   25.9000   17.8950 C   0  0  0  0  0  0  0  0  0  0  0  0
   24.4930   26.3000   17.7130 N   0  0  0  0  0  0  0  0  0  0  0  0
  1  5  1  0  0  0  0
  2  1  1  0  0  0  0
  2  3  2  0  0  0  0
  4  1  1  0  0  0  0
  6  5  1  6  0  0  0
  7  6  1  0  0  0  0
  7 27  1  1  0  0  0
  8  7  1  6  0  0  0
  8 13  1  0  0  0  0
  9 16  1  6  0  0  0
  9 10  1  0  0  0  0
 10 12  1  0  0  0  0
 11  9  1  0  0  0  0
 11  8  1  0  0  0  0
 12 20  1  1  0  0  0
 13 12  1  0  0  0  0
 13 22  1  1  0  0  0
 14  9  1  0  0  0  0
 15 14  1  0  0  0  0
 16 17  2  0  0  0  0
 18 16  1  0  0  0  0
 19 18  1  0  0  0  0
 20 21  1  0  0  0  0
 22 24  1  0  0  0  0
 22 23  1  0  0  0  0
 23 25  1  0  0  0  0
 26 23  2  0  0  0  0
 28 27  1  0  0  0  0
 29  6  1  0  0  0  0
 30 29  1  0  0  0  0
 31  2  1  0  0  0  0
 32 31  1  0  0  0  0
 33 32  1  0  0  0  0
 34 33  2  0  0  0  0
 35 33  1  0  0  0  0
 36 34  1  0  0  0  0
 37 36  1  0  0  0  0
 37 35  2  0  0  0  0
 38 36  1  0  0  0  0
 39 38  1  0  0  0  0
 40 38  2  0  0  0  0
 41 39  2  0  0  0  0
 42 40  1  0  0  0  0
 43 42  2  0  0  0  0
 43 41  1  0  0  0  0
 44 41  1  0  0  0  0
 44 45  2  0  0  0  0
 46 44  2  0  0  0  0
 47 44  1  0  0  0  0
 47 49  1  0  0  0  0
 48 47  1  0  0  0  0
 50 51  1  0  0  0  0
 52 51  1  0  0  0  0
 52 53  1  0  0  0  0
 53 54  1  0  0  0  0
 55 54  1  0  0  0  0
M  END
>  <REMARK>
 VINA RESULT:    -4.315      3.424      9.985
 INTER + INTRA:         -14.470
 INTER:                 -10.562
 INTRA:                  -3.908
 UNBOUND:                -6.624
 SMILES CC(=O)N[C@@H]1[C@@H](O)C[C@](O)(C(=O)O)O[C@H]1C(O)[C@H](O)CNC(=O)OCc1cn(-c2cccc(S(N)(=O)=O)c2)nn1
 SMILES IDX 21 1 22 2 23 3 20 5 18 6 16 7 15 8 9 9 8 10 14 11 6 12 5 13
 SMILES IDX 10 14 11 16 12 17 13 18 7 20 4 22 2 23 1 25 3 26 17 27 19 29
 SMILES IDX 24 31 25 32 26 33 27 34 40 35 28 36 39 37 29 38 38 39 30 40
 SMILES IDX 33 41 31 42 32 43 34 44 36 45 37 46 35 47
 H PARENT 21 4 10 15 13 19 7 21 4 24 17 28 19 30 35 48 35 49
 Flexibility Score: inf
  4 active torsions:
  status: ('A' for Active; 'I' for Inactive)
    1  A    between atoms: CA   and  CB  
    2  A    between atoms: CB   and  CG  
    3  A    between atoms: CG   and  CD  
    4  A    between atoms: CD   and  CE  

>  <TORSDO>
F 17

>  <BEGIN_>
RES LYS A 131

$$$$
ligand_23_pose_11_2HRL.pdbqt
 OpenBabel07062320523D

  6  5  0  0  0  0  0  0  0  0999 V2000
   33.1930   34.6630    9.2900 C   0  0  0  0  0  0  0  0  0  0  0  0
   32.0600   35.3600   10.0340 C   0  0  0  0  0  0  0  0  0  0  0  0
   30.6990   35.0940    9.4450 C   0  0  0  0  0  0  0  0  0  0  0  0
   29.7260   34.6410   10.5230 C   0  0  0  0  0  0  0  0  0  0  0  0
   30.2770   34.9530   11.9010 C   0  0  0  0  0  0  0  0  0  0  0  0
   29.3490   34.4850   12.9680 N   0  0  0  0  0  0  0  0  0  0  0  0
  1  2  1  0  0  0  0
  3  2  1  0  0  0  0
  3  4  1  0  0  0  0
  4  5  1  0  0  0  0
  5  6  1  0  0  0  0
M  END
>  <EGIN_R>
ES LYS A 135

>  <REMARK>
  4 active torsions:
  status: ('A' for Active; 'I' for Inactive)
    5  A    between atoms: CA   and  CB  
    6  A    between atoms: CB   and  CG  
    7  A    between atoms: CG   and  CD  
    8  A    between atoms: CD   and  CE  

$$$$
