ligand_9_pose_2_2HRL.pdbqt
 OpenBabel07062320523D

 54 55  0  0  1  0  0  0  0  0999 V2000
   25.7180   27.8130   18.4470 N   0  0  0  0  0  0  0  0  0  0  0  0
   24.7290   28.6830   17.9130 C   0  0  0  0  0  0  0  0  0  0  0  0
   23.9600   29.2750   18.7110 O   0  0  0  0  0  0  0  0  0  0  0  0
   26.3430   27.3340   17.7690 H   0  0  0  0  0  0  0  0  0  0  0  0
   25.8480   27.5990   19.8730 C   0  0  0  0  0  0  0  0  0  0  0  0
   27.2670   27.4660   20.3150 C   0  0  2  0  0  0  0  0  0  0  0  0
   27.9970   28.7680   20.3940 C   0  0  1  0  0  0  0  0  0  0  0  0
   29.3790   28.5730   21.0710 C   0  0  2  0  0  0  0  0  0  0  0  0
   31.4700   27.8040   20.6760 C   0  0  2  0  0  0  0  0  0  0  0  0
   31.3670   26.6930   21.6960 C   0  0  0  0  0  0  0  0  0  0  0  0
   30.2400   28.0420   20.1470 O   0  0  0  0  0  0  0  0  0  0  0  0
   30.3860   27.0000   22.7870 C   0  0  1  0  0  0  0  0  0  0  0  0
   29.2050   27.8080   22.3300 C   0  0  1  0  0  0  0  0  0  0  0  0
   32.2620   27.2610   19.6260 O   0  0  0  0  0  0  0  0  0  0  0  0
   31.7690   26.6120   19.0930 H   0  0  0  0  0  0  0  0  0  0  0  0
   32.1900   28.9600   21.2270 C   0  0  0  0  0  0  0  0  0  0  0  0
   31.8660   30.1700   20.9780 O   0  0  0  0  0  0  0  0  0  0  0  0
   33.2920   28.7170   22.0700 O   0  0  0  0  0  0  0  0  0  0  0  0
   33.9800   29.4730   22.1700 H   0  0  0  0  0  0  0  0  0  0  0  0
   29.9900   25.8030   23.3810 O   0  0  0  0  0  0  0  0  0  0  0  0
   29.0550   25.5600   23.1640 H   0  0  0  0  0  0  0  0  0  0  0  0
   28.7280   28.6950   23.3760 N   0  0  0  0  0  0  0  0  0  0  0  0
   27.7430   28.2890   24.3150 C   0  0  0  0  0  0  0  0  0  0  0  0
   29.1410   29.6730   23.4250 H   0  0  0  0  0  0  0  0  0  0  0  0
   27.3040   29.2530   25.3560 C   0  0  0  0  0  0  0  0  0  0  0  0
   27.2370   27.1160   24.2740 O   0  0  0  0  0  0  0  0  0  0  0  0
   28.2070   29.3950   19.1920 O   0  0  0  0  0  0  0  0  0  0  0  0
   28.3110   28.8060   18.4230 H   0  0  0  0  0  0  0  0  0  0  0  0
   27.9360   26.5040   19.5630 O   0  0  0  0  0  0  0  0  0  0  0  0
   28.8870   26.7900   19.5000 H   0  0  0  0  0  0  0  0  0  0  0  0
   24.5630   28.9210   16.5600 O   0  0  0  0  0  0  0  0  0  0  0  0
   24.9010   30.1610   15.9680 C   0  0  0  0  0  0  0  0  0  0  0  0
   26.3620   30.3640   15.9890 C   0  0  0  0  0  0  0  0  0  0  0  0
   27.0780   31.5330   15.7970 C   0  0  0  0  0  0  0  0  0  0  0  0
   27.3060   29.4210   16.2020 N   0  0  0  0  0  0  0  0  0  0  0  0
   28.3970   31.2700   15.8980 N   0  0  0  0  0  0  0  0  0  0  0  0
   28.4940   29.9610   16.1480 N   0  0  0  0  0  0  0  0  0  0  0  0
   29.4930   32.1520   15.7750 C   0  0  0  0  0  0  0  0  0  0  0  0
   29.5890   33.0410   14.7210 C   0  0  0  0  0  0  0  0  0  0  0  0
   30.5100   32.1610   16.7040 C   0  0  0  0  0  0  0  0  0  0  0  0
   30.6420   33.9210   14.5640 C   0  0  0  0  0  0  0  0  0  0  0  0
   31.5850   33.0360   16.5730 C   0  0  0  0  0  0  0  0  0  0  0  0
   31.6410   33.9020   15.5110 C   0  0  0  0  0  0  0  0  0  0  0  0
   30.7170   34.8490   13.4420 C   0  0  0  0  0  0  0  0  0  0  0  0
   30.5220   34.4240   12.2770 O   0  0  0  0  0  0  0  0  0  0  0  0
   30.9960   36.1960   13.6050 O   0  0  0  0  0  0  0  0  0  0  0  0
   30.0360   37.2080   13.3760 C   0  0  0  0  0  0  0  0  0  0  0  0
   30.4330   37.9790   12.1510 C   0  0  0  0  0  0  0  0  0  0  0  0
   29.8670   25.5550   16.9770 C   0  0  0  0  0  0  0  0  0  0  0  0
   28.3450   25.7220   17.0260 C   0  0  0  0  0  0  0  0  0  0  0  0
   27.6010   24.4030   16.8850 C   0  0  0  0  0  0  0  0  0  0  0  0
   26.1500   24.5280   17.2600 C   0  0  0  0  0  0  0  0  0  0  0  0
   25.6470   23.1930   17.7980 C   0  0  0  0  0  0  0  0  0  0  0  0
   25.5220   23.2420   19.2740 N   0  0  0  0  0  0  0  0  0  0  0  0
  1  5  1  0  0  0  0
  2  1  1  0  0  0  0
  2  3  2  0  0  0  0
  4  1  1  0  0  0  0
  6  5  1  6  0  0  0
  6  7  1  0  0  0  0
  7 27  1  6  0  0  0
  8  7  1  6  0  0  0
  8 13  1  0  0  0  0
  9 14  1  6  0  0  0
  9 16  1  0  0  0  0
  9 10  1  0  0  0  0
 10 12  1  0  0  0  0
 11  9  1  0  0  0  0
 11  8  1  0  0  0  0
 12 20  1  6  0  0  0
 13 12  1  0  0  0  0
 13 22  1  1  0  0  0
 15 14  1  0  0  0  0
 16 18  1  0  0  0  0
 17 16  2  0  0  0  0
 18 19  1  0  0  0  0
 21 20  1  0  0  0  0
 22 24  1  0  0  0  0
 22 23  1  0  0  0  0
 23 25  1  0  0  0  0
 26 23  2  0  0  0  0
 28 27  1  0  0  0  0
 29  6  1  0  0  0  0
 30 29  1  0  0  0  0
 31  2  1  0  0  0  0
 32 33  1  0  0  0  0
 32 31  1  0  0  0  0
 33 35  1  0  0  0  0
 34 36  1  0  0  0  0
 34 33  2  0  0  0  0
 36 37  1  0  0  0  0
 37 35  2  0  0  0  0
 38 36  1  0  0  0  0
 38 40  2  0  0  0  0
 39 38  1  0  0  0  0
 41 39  2  0  0  0  0
 41 43  1  0  0  0  0
 42 40  1  0  0  0  0
 43 42  2  0  0  0  0
 44 46  1  0  0  0  0
 44 41  1  0  0  0  0
 45 44  2  0  0  0  0
 47 46  1  0  0  0  0
 48 47  1  0  0  0  0
 49 50  1  0  0  0  0
 51 50  1  0  0  0  0
 51 52  1  0  0  0  0
 52 53  1  0  0  0  0
 53 54  1  0  0  0  0
M  END
>  <REMARK>
 VINA RESULT:    -5.328      1.692      2.606
 INTER + INTRA:         -15.827
 INTER:                 -10.016
 INTRA:                  -5.811
 UNBOUND:                -5.671
 SMILES CCOC(=O)c1cccc(-n2cc(COC(=O)NC[C@@H](O)C(O)[C@@H]3O[C@@](O)(C(=O)O)C[C@H](O)[C@H]3NC(C)=O)nn2)c1
 SMILES IDX 18 1 16 2 17 3 19 5 20 6 22 7 24 8 26 9 31 10 25 11 32 12
 SMILES IDX 34 13 27 14 28 16 29 17 30 18 33 20 35 22 36 23 37 25 38 26
 SMILES IDX 23 27 21 29 15 31 14 32 13 33 12 34 39 35 11 36 40 37 10 38
 SMILES IDX 41 39 9 40 6 41 8 42 7 43 4 44 5 45 3 46 2 47 1 48
 H PARENT 18 4 27 15 30 19 33 21 35 24 23 28 21 30
 Flexibility Score: inf
  4 active torsions:
  status: ('A' for Active; 'I' for Inactive)
    1  A    between atoms: CA   and  CB  
    2  A    between atoms: CB   and  CG  
    3  A    between atoms: CG   and  CD  
    4  A    between atoms: CD   and  CE  

>  <TORSDO>
F 18

>  <BEGIN_>
RES LYS A 131

$$$$
ligand_9_pose_2_2HRL.pdbqt
 OpenBabel07062320523D

  6  5  0  0  0  0  0  0  0  0999 V2000
   33.1930   34.6630    9.2900 C   0  0  0  0  0  0  0  0  0  0  0  0
   32.0600   35.3600   10.0340 C   0  0  0  0  0  0  0  0  0  0  0  0
   30.8790   35.6930    9.1590 C   0  0  0  0  0  0  0  0  0  0  0  0
   30.3820   34.4520    8.4330 C   0  0  0  0  0  0  0  0  0  0  0  0
   28.8670   34.4410    8.3750 C   0  0  0  0  0  0  0  0  0  0  0  0
   28.2880   33.7840    9.5800 N   0  0  0  0  0  0  0  0  0  0  0  0
  1  2  1  0  0  0  0
  3  2  1  0  0  0  0
  4  3  1  0  0  0  0
  5  4  1  0  0  0  0
  5  6  1  0  0  0  0
M  END
>  <EGIN_R>
ES LYS A 135

>  <REMARK>
  4 active torsions:
  status: ('A' for Active; 'I' for Inactive)
    5  A    between atoms: CA   and  CB  
    6  A    between atoms: CB   and  CG  
    7  A    between atoms: CG   and  CD  
    8  A    between atoms: CD   and  CE  

$$$$
