ligand_41_pose_14_2HRL.pdbqt
 OpenBabel07062320523D

 52 53  0  0  1  0  0  0  0  0999 V2000
   22.2070   37.7350   13.1160 N   0  0  0  0  0  0  0  0  0  0  0  0
   22.9790   36.5800   13.4840 C   0  0  0  0  0  0  0  0  0  0  0  0
   22.3860   35.5850   13.9660 O   0  0  0  0  0  0  0  0  0  0  0  0
   22.7330   38.5360   12.7140 H   0  0  0  0  0  0  0  0  0  0  0  0
   20.7870   37.7400   13.3170 C   0  0  0  0  0  0  0  0  0  0  0  0
   19.9480   37.3200   12.1550 C   0  0  2  0  0  0  0  0  0  0  0  0
   19.8010   38.3640   11.0890 C   0  0  2  0  0  0  0  0  0  0  0  0
   20.1020   37.8800    9.6940 C   0  0  2  0  0  0  0  0  0  0  0  0
   20.9920   36.1290    8.4810 C   0  0  2  0  0  0  0  0  0  0  0  0
   21.9780   37.0090    7.7370 C   0  0  0  0  0  0  0  0  0  0  0  0
   20.6970   36.6670    9.6810 O   0  0  0  0  0  0  0  0  0  0  0  0
   22.1770   38.3240    8.4130 C   0  0  1  0  0  0  0  0  0  0  0  0
   20.9300   38.9120    8.9590 C   0  0  1  0  0  0  0  0  0  0  0  0
   21.7170   34.9040    8.6760 O   0  0  0  0  0  0  0  0  0  0  0  0
   22.7010   35.1150    8.6540 H   0  0  0  0  0  0  0  0  0  0  0  0
   19.8840   35.7740    7.5870 C   0  0  0  0  0  0  0  0  0  0  0  0
   19.0570   36.6040    7.1470 O   0  0  0  0  0  0  0  0  0  0  0  0
   19.6900   34.4560    7.1670 O   0  0  0  0  0  0  0  0  0  0  0  0
   19.1780   34.2580    6.3140 H   0  0  0  0  0  0  0  0  0  0  0  0
   23.0840   38.1370    9.4710 O   0  0  0  0  0  0  0  0  0  0  0  0
   23.8340   37.5430    9.2270 H   0  0  0  0  0  0  0  0  0  0  0  0
   20.2070   39.6430    7.9680 N   0  0  0  0  0  0  0  0  0  0  0  0
   19.7040   40.9560    8.1860 C   0  0  0  0  0  0  0  0  0  0  0  0
   20.0370   39.2120    7.0400 H   0  0  0  0  0  0  0  0  0  0  0  0
   18.9570   41.6740    7.1200 C   0  0  0  0  0  0  0  0  0  0  0  0
   19.8740   41.5480    9.2820 O   0  0  0  0  0  0  0  0  0  0  0  0
   20.3270   39.5870   11.4140 O   0  0  0  0  0  0  0  0  0  0  0  0
   19.5700   40.2450   11.4020 H   0  0  0  0  0  0  0  0  0  0  0  0
   18.6090   37.1510   12.6990 O   0  0  0  0  0  0  0  0  0  0  0  0
   18.7010   36.3390   13.2650 H   0  0  0  0  0  0  0  0  0  0  0  0
   24.3440   36.5130   13.3350 O   0  0  0  0  0  0  0  0  0  0  0  0
   24.9810   35.3820   12.7480 C   0  0  0  0  0  0  0  0  0  0  0  0
   25.1380   35.5470   11.2810 C   0  0  0  0  0  0  0  0  0  0  0  0
   26.2610   35.9070   10.5830 C   0  0  0  0  0  0  0  0  0  0  0  0
   24.1690   35.3680   10.3420 N   0  0  0  0  0  0  0  0  0  0  0  0
   25.9390   35.9350    9.2480 N   0  0  0  0  0  0  0  0  0  0  0  0
   24.6670   35.6020    9.1550 N   0  0  0  0  0  0  0  0  0  0  0  0
   26.7640   36.2950    8.1530 C   0  0  0  0  0  0  0  0  0  0  0  0
   26.9620   37.5580    7.7120 C   0  0  0  0  0  0  0  0  0  0  0  0
   27.4070   35.2030    7.5300 C   0  0  0  0  0  0  0  0  0  0  0  0
   27.8170   37.7680    6.6250 C   0  0  0  0  0  0  0  0  0  0  0  0
   28.2430   35.4230    6.4640 C   0  0  0  0  0  0  0  0  0  0  0  0
   28.4330   36.7080    6.0300 C   0  0  0  0  0  0  0  0  0  0  0  0
   26.3370   38.7280    8.2880 C   0  0  1  0  0  0  0  0  0  0  0  0
   25.2650   39.1580    7.6970 O   0  0  0  0  0  0  0  0  0  0  0  0
   26.7640   39.4920    9.4600 C   0  0  0  0  0  0  0  0  0  0  0  0
   29.8670   25.5550   16.9770 C   0  0  0  0  0  0  0  0  0  0  0  0
   28.3450   25.7220   17.0260 C   0  0  0  0  0  0  0  0  0  0  0  0
   27.6080   24.3960   17.1330 C   0  0  0  0  0  0  0  0  0  0  0  0
   26.1180   24.5660   17.0340 C   0  0  0  0  0  0  0  0  0  0  0  0
   25.5100   24.5610   18.4330 C   0  0  0  0  0  0  0  0  0  0  0  0
   25.8180   23.2890   19.1270 N   0  0  0  0  0  0  0  0  0  0  0  0
  1  5  1  0  0  0  0
  1  2  1  0  0  0  0
  2  3  2  0  0  0  0
  4  1  1  0  0  0  0
  6 29  1  0  0  0  0
  6  5  1  1  0  0  0
  7 27  1  1  0  0  0
  7  6  1  0  0  0  0
  8  7  1  1  0  0  0
  9 16  1  6  0  0  0
  9 14  1  0  0  0  0
  9 11  1  0  0  0  0
 10 12  1  0  0  0  0
 10  9  1  0  0  0  0
 11  8  1  0  0  0  0
 12 13  1  0  0  0  0
 12 20  1  1  0  0  0
 13 22  1  6  0  0  0
 13  8  1  0  0  0  0
 15 14  1  0  0  0  0
 17 16  2  0  0  0  0
 18 16  1  0  0  0  0
 19 18  1  0  0  0  0
 21 20  1  0  0  0  0
 22 23  1  0  0  0  0
 23 26  2  0  0  0  0
 24 22  1  0  0  0  0
 25 23  1  0  0  0  0
 28 27  1  0  0  0  0
 29 30  1  0  0  0  0
 31  2  1  0  0  0  0
 32 31  1  0  0  0  0
 33 32  1  0  0  0  0
 34 33  2  0  0  0  0
 35 33  1  0  0  0  0
 36 34  1  0  0  0  0
 37 36  1  0  0  0  0
 37 35  2  0  0  0  0
 38 36  1  0  0  0  0
 39 38  1  0  0  0  0
 39 44  1  0  0  0  0
 40 38  2  0  0  0  0
 41 39  2  0  0  0  0
 42 40  1  0  0  0  0
 43 42  2  0  0  0  0
 43 41  1  0  0  0  0
 44 46  1  1  0  0  0
 45 44  1  0  0  0  0
 47 48  1  0  0  0  0
 48 49  1  0  0  0  0
 50 49  1  0  0  0  0
 50 51  1  0  0  0  0
 51 52  1  0  0  0  0
M  END
>  <REMARK>
 VINA RESULT:    -4.329      5.680      9.958
 INTER + INTRA:         -14.549
 INTER:                  -8.268
 INTRA:                  -6.281
 UNBOUND:                -6.804
 SMILES CC(=O)N[C@@H]1[C@@H](O)C[C@](O)(C(=O)O)O[C@H]1C(O)[C@H](O)CNC(=O)OCc1cn(-c2ccccc2C(C)=O)nn1
 SMILES IDX 21 1 22 2 23 3 20 5 18 6 16 7 15 8 9 9 8 10 14 11 6 12 5 13
 SMILES IDX 10 14 11 16 12 17 13 18 7 20 4 22 2 23 1 25 3 26 17 27 19 29
 SMILES IDX 24 31 25 32 26 33 27 34 39 35 28 36 38 37 29 38 34 39 30 40
 SMILES IDX 33 41 31 42 32 43 35 44 37 45 36 46
 H PARENT 21 4 10 15 13 19 7 21 4 24 17 28 19 30
 Flexibility Score: inf
  4 active torsions:
  status: ('A' for Active; 'I' for Inactive)
    1  A    between atoms: CA   and  CB  
    2  A    between atoms: CB   and  CG  
    3  A    between atoms: CG   and  CD  
    4  A    between atoms: CD   and  CE  

>  <TORSDO>
F 16

>  <BEGIN_>
RES LYS A 131

$$$$
ligand_41_pose_14_2HRL.pdbqt
 OpenBabel07062320523D

  6  5  0  0  0  0  0  0  0  0999 V2000
   33.1930   34.6630    9.2900 C   0  0  0  0  0  0  0  0  0  0  0  0
   32.0600   35.3600   10.0340 C   0  0  0  0  0  0  0  0  0  0  0  0
   30.7160   35.2000    9.3720 C   0  0  0  0  0  0  0  0  0  0  0  0
   29.6570   34.8160   10.3930 C   0  0  0  0  0  0  0  0  0  0  0  0
   30.0890   35.2250   11.7880 C   0  0  0  0  0  0  0  0  0  0  0  0
   29.2740   34.5360   12.8260 N   0  0  0  0  0  0  0  0  0  0  0  0
  1  2  1  0  0  0  0
  3  2  1  0  0  0  0
  3  4  1  0  0  0  0
  4  5  1  0  0  0  0
  5  6  1  0  0  0  0
M  END
>  <EGIN_R>
ES LYS A 135

>  <REMARK>
  4 active torsions:
  status: ('A' for Active; 'I' for Inactive)
    5  A    between atoms: CA   and  CB  
    6  A    between atoms: CB   and  CG  
    7  A    between atoms: CG   and  CD  
    8  A    between atoms: CD   and  CE  

$$$$
