ligand_17_pose_19_2HRL.pdbqt
 OpenBabel07062320523D

 50 50  0  0  1  0  0  0  0  0999 V2000
   26.9430   28.4900   20.7100 N   0  0  0  0  0  0  0  0  0  0  0  0
   26.4700   27.6840   19.6300 C   0  0  0  0  0  0  0  0  0  0  0  0
   25.4250   27.0230   19.7560 O   0  0  0  0  0  0  0  0  0  0  0  0
   27.8190   29.0110   20.5360 H   0  0  0  0  0  0  0  0  0  0  0  0
   26.2780   28.5990   21.9720 C   0  0  0  0  0  0  0  0  0  0  0  0
   26.6040   27.4890   22.9310 C   0  0  2  0  0  0  0  0  0  0  0  0
   28.0140   26.9940   22.7040 C   0  0  1  0  0  0  0  0  0  0  0  0
   29.0330   27.9690   23.2190 C   0  0  2  0  0  0  0  0  0  0  0  0
   30.4040   27.9730   21.3070 C   0  0  2  0  0  0  0  0  0  0  0  0
   31.3490   27.0160   22.0210 C   0  0  0  0  0  0  0  0  0  0  0  0
   29.5800   28.6470   22.1590 O   0  0  0  0  0  0  0  0  0  0  0  0
   31.4260   27.4940   23.4750 C   0  0  1  0  0  0  0  0  0  0  0  0
   30.0730   27.3230   24.0660 C   0  0  1  0  0  0  0  0  0  0  0  0
   29.7630   27.2480   20.3050 O   0  0  0  0  0  0  0  0  0  0  0  0
   28.9150   27.6960   20.0270 H   0  0  0  0  0  0  0  0  0  0  0  0
   31.2530   29.0050   20.6310 C   0  0  0  0  0  0  0  0  0  0  0  0
   32.4890   28.8740   20.5030 O   0  0  0  0  0  0  0  0  0  0  0  0
   30.6480   30.1390   20.1330 O   0  0  0  0  0  0  0  0  0  0  0  0
   30.0330   30.7340   20.6800 H   0  0  0  0  0  0  0  0  0  0  0  0
   32.4090   26.7380   24.1140 O   0  0  0  0  0  0  0  0  0  0  0  0
   33.2900   27.1540   23.8510 H   0  0  0  0  0  0  0  0  0  0  0  0
   30.0020   27.7290   25.4570 N   0  0  0  0  0  0  0  0  0  0  0  0
   30.1650   26.8220   26.5430 C   0  0  0  0  0  0  0  0  0  0  0  0
   29.8240   28.7370   25.7280 H   0  0  0  0  0  0  0  0  0  0  0  0
   30.0820   27.2970   27.9600 C   0  0  0  0  0  0  0  0  0  0  0  0
   30.3790   25.6140   26.3240 O   0  0  0  0  0  0  0  0  0  0  0  0
   28.0720   25.7650   23.3880 O   0  0  0  0  0  0  0  0  0  0  0  0
   28.6900   25.9180   24.1520 H   0  0  0  0  0  0  0  0  0  0  0  0
   25.6400   26.5220   22.8960 O   0  0  0  0  0  0  0  0  0  0  0  0
   25.7490   25.9100   23.6650 H   0  0  0  0  0  0  0  0  0  0  0  0
   27.1370   27.6000   18.4190 O   0  0  0  0  0  0  0  0  0  0  0  0
   26.7970   28.4220   17.3100 C   0  0  0  0  0  0  0  0  0  0  0  0
   27.7770   29.5360   17.2500 C   0  0  0  0  0  0  0  0  0  0  0  0
   28.3220   30.0210   16.0620 C   0  0  0  0  0  0  0  0  0  0  0  0
   28.3260   30.2770   18.2220 N   0  0  0  0  0  0  0  0  0  0  0  0
   29.1550   31.0120   16.3680 N   0  0  0  0  0  0  0  0  0  0  0  0
   29.1480   31.1570   17.6750 N   0  0  0  0  0  0  0  0  0  0  0  0
   29.9310   31.7900   15.4400 C   0  0  0  0  0  0  0  0  0  0  0  0
   29.6180   33.2590   15.6550 C   0  0  0  0  0  0  0  0  0  0  0  0
   30.5340   34.1400   15.0060 N   0  0  0  0  0  0  0  0  0  0  0  0
   30.3180   34.3120   13.6080 C   0  0  0  0  0  0  0  0  0  0  0  0
   30.0010   35.7980   13.3840 C   0  0  0  0  0  0  0  0  0  0  0  0
   31.8840   33.9790   15.4300 C   0  0  0  0  0  0  0  0  0  0  0  0
   32.2560   34.8060   16.6210 C   0  0  0  0  0  0  0  0  0  0  0  0
   29.8670   25.5550   16.9770 C   0  0  0  0  0  0  0  0  0  0  0  0
   28.3450   25.7220   17.0260 C   0  0  0  0  0  0  0  0  0  0  0  0
   27.6020   24.3980   16.9330 C   0  0  0  0  0  0  0  0  0  0  0  0
   26.1510   24.5360   17.3020 C   0  0  0  0  0  0  0  0  0  0  0  0
   25.6920   23.2820   18.0390 C   0  0  0  0  0  0  0  0  0  0  0  0
   25.5050   23.5680   19.4810 N   0  0  0  0  0  0  0  0  0  0  0  0
  1  5  1  0  0  0  0
  2  3  2  0  0  0  0
  2  1  1  0  0  0  0
  4  1  1  0  0  0  0
  6  5  1  6  0  0  0
  7  6  1  0  0  0  0
  7 27  1  1  0  0  0
  8  7  1  6  0  0  0
  8 13  1  0  0  0  0
  9 14  1  6  0  0  0
  9 10  1  0  0  0  0
  9 11  1  0  0  0  0
 10 12  1  0  0  0  0
 11  8  1  0  0  0  0
 12 13  1  0  0  0  0
 12 20  1  1  0  0  0
 13 22  1  1  0  0  0
 15 14  1  0  0  0  0
 16  9  1  0  0  0  0
 17 16  2  0  0  0  0
 18 16  1  0  0  0  0
 18 19  1  0  0  0  0
 21 20  1  0  0  0  0
 22 24  1  0  0  0  0
 22 23  1  0  0  0  0
 23 25  1  0  0  0  0
 26 23  2  0  0  0  0
 27 28  1  0  0  0  0
 29  6  1  0  0  0  0
 29 30  1  0  0  0  0
 31  2  1  0  0  0  0
 32 31  1  0  0  0  0
 33 32  1  0  0  0  0
 33 35  1  0  0  0  0
 34 36  1  0  0  0  0
 34 33  2  0  0  0  0
 36 37  1  0  0  0  0
 37 35  2  0  0  0  0
 38 39  1  0  0  0  0
 38 36  1  0  0  0  0
 40 43  1  0  0  0  0
 40 39  1  0  0  0  0
 41 40  1  0  0  0  0
 42 41  1  0  0  0  0
 43 44  1  0  0  0  0
 45 46  1  0  0  0  0
 47 46  1  0  0  0  0
 47 48  1  0  0  0  0
 48 49  1  0  0  0  0
 49 50  1  0  0  0  0
M  END
>  <REMARK>
 VINA RESULT:    -3.323      2.260      4.427
 INTER + INTRA:         -13.687
 INTER:                  -7.613
 INTRA:                  -6.074
 UNBOUND:                -7.158
 SMILES CCN(CC)CCn1cc(COC(=O)NC[C@@H](O)C(O)[C@@H]2O[C@@](O)(C(=O)O)C[C@H](O)[C@H]2NC(C)=O)nn1
 SMILES IDX 15 1 13 2 14 3 16 5 17 6 19 7 21 8 23 9 28 10 22 11 29 12
 SMILES IDX 31 13 24 14 25 16 26 17 27 18 30 20 32 22 33 23 34 25 35 26
 SMILES IDX 20 27 18 29 12 31 11 32 10 33 9 34 36 35 8 36 37 37 7 38
 SMILES IDX 6 39 3 40 2 41 1 42 4 43 5 44
 H PARENT 15 4 24 15 27 19 30 21 32 24 20 28 18 30
 Flexibility Score: inf
  4 active torsions:
  status: ('A' for Active; 'I' for Inactive)
    1  A    between atoms: CA   and  CB  
    2  A    between atoms: CB   and  CG  
    3  A    between atoms: CG   and  CD  
    4  A    between atoms: CD   and  CE  

>  <TORSDO>
F 19

>  <BEGIN_>
RES LYS A 131

$$$$
ligand_17_pose_19_2HRL.pdbqt
 OpenBabel07062320523D

  6  5  0  0  0  0  0  0  0  0999 V2000
   33.1930   34.6630    9.2900 C   0  0  0  0  0  0  0  0  0  0  0  0
   32.0600   35.3600   10.0340 C   0  0  0  0  0  0  0  0  0  0  0  0
   30.7090   34.7370    9.7950 C   0  0  0  0  0  0  0  0  0  0  0  0
   30.4770   34.5140    8.3080 C   0  0  0  0  0  0  0  0  0  0  0  0
   29.0520   34.8750    7.9320 C   0  0  0  0  0  0  0  0  0  0  0  0
   28.1040   34.5340    9.0280 N   0  0  0  0  0  0  0  0  0  0  0  0
  1  2  1  0  0  0  0
  3  2  1  0  0  0  0
  4  3  1  0  0  0  0
  5  4  1  0  0  0  0
  5  6  1  0  0  0  0
M  END
>  <EGIN_R>
ES LYS A 135

>  <REMARK>
  4 active torsions:
  status: ('A' for Active; 'I' for Inactive)
    5  A    between atoms: CA   and  CB  
    6  A    between atoms: CB   and  CG  
    7  A    between atoms: CG   and  CD  
    8  A    between atoms: CD   and  CE  

$$$$
