ligand_89_pose_18_2HRL.pdbqt
 OpenBabel07062320523D

 60 63  0  0  1  0  0  0  0  0999 V2000
   20.9260   34.2960   11.4130 N   0  0  0  0  0  0  0  0  0  0  0  0
   20.6030   33.2310   12.2550 C   0  0  0  0  0  0  0  0  0  0  0  0
   19.5370   32.6160   12.2090 O   0  0  0  0  0  0  0  0  0  0  0  0
   21.9250   34.7220   11.5520 H   0  0  0  0  0  0  0  0  0  0  0  0
   20.1030   34.8670   10.4170 C   0  0  0  0  0  0  0  0  0  0  0  0
   20.6260   36.0410    9.7160 C   0  0  2  0  0  0  0  0  0  0  0  0
   21.9310   36.0570    9.0320 C   0  0  1  0  0  0  0  0  0  0  0  0
   22.7510   37.1900    9.7160 C   0  0  2  0  0  0  0  0  0  0  0  0
   23.6760   38.4020    7.9290 C   0  0  2  0  0  0  0  0  0  0  0  0
   25.0490   38.1230    8.4420 C   0  0  0  0  0  0  0  0  0  0  0  0
   22.7440   38.2610    8.9050 O   0  0  0  0  0  0  0  0  0  0  0  0
   25.1750   36.8320    9.2110 C   0  0  1  0  0  0  0  0  0  0  0  0
   24.0510   36.6730   10.2110 C   0  0  1  0  0  0  0  0  0  0  0  0
   23.3600   37.5000    6.8810 O   0  0  0  0  0  0  0  0  0  0  0  0
   23.7100   37.9340    6.0570 H   0  0  0  0  0  0  0  0  0  0  0  0
   23.7090   39.7950    7.3710 C   0  0  0  0  0  0  0  0  0  0  0  0
   24.7970   40.3150    7.0880 O   0  0  0  0  0  0  0  0  0  0  0  0
   22.5370   40.4850    7.1750 O   0  0  0  0  0  0  0  0  0  0  0  0
   22.5330   41.3750    6.6690 H   0  0  0  0  0  0  0  0  0  0  0  0
   25.2430   35.7160    8.3760 O   0  0  0  0  0  0  0  0  0  0  0  0
   25.5990   35.9870    7.4950 H   0  0  0  0  0  0  0  0  0  0  0  0
   24.4780   37.3550   11.4400 N   0  0  0  0  0  0  0  0  0  0  0  0
   23.8140   37.1860   12.6720 C   0  0  0  0  0  0  0  0  0  0  0  0
   25.3120   38.0070   11.4320 H   0  0  0  0  0  0  0  0  0  0  0  0
   24.2500   37.8780   13.9130 C   0  0  0  0  0  0  0  0  0  0  0  0
   22.8070   36.4190   12.7480 O   0  0  0  0  0  0  0  0  0  0  0  0
   22.6660   34.8730    9.1230 O   0  0  0  0  0  0  0  0  0  0  0  0
   22.6880   34.4070    8.2300 H   0  0  0  0  0  0  0  0  0  0  0  0
   20.6010   37.1120   10.6890 O   0  0  0  0  0  0  0  0  0  0  0  0
   21.2520   37.7970   10.4590 H   0  0  0  0  0  0  0  0  0  0  0  0
   21.5140   32.7890   13.2400 O   0  0  0  0  0  0  0  0  0  0  0  0
   22.7780   32.2940   12.9040 C   0  0  0  0  0  0  0  0  0  0  0  0
   23.8280   33.1560   13.5030 C   0  0  0  0  0  0  0  0  0  0  0  0
   25.0560   33.4940   12.9410 C   0  0  0  0  0  0  0  0  0  0  0  0
   23.8200   33.7880   14.6910 N   0  0  0  0  0  0  0  0  0  0  0  0
   25.7480   34.3070   13.7880 N   0  0  0  0  0  0  0  0  0  0  0  0
   24.9550   34.4470   14.8190 N   0  0  0  0  0  0  0  0  0  0  0  0
   27.0410   34.8300   13.4970 C   0  0  0  0  0  0  0  0  0  0  0  0
   27.3150   35.8160   12.5930 N   0  0  0  0  0  0  0  0  0  0  0  0
   28.2520   34.4810   14.0340 C   0  0  0  0  0  0  0  0  0  0  0  0
   28.6350   36.0440   12.5930 C   0  0  0  0  0  0  0  0  0  0  0  0
   29.2490   35.2330   13.4740 N   0  0  0  0  0  0  0  0  0  0  0  0
   28.6110   33.5680   14.9750 C   0  0  0  0  0  0  0  0  0  0  0  0
   30.5400   35.0900   13.8280 C   0  0  0  0  0  0  0  0  0  0  0  0
   29.8740   33.3920   15.3550 N   0  0  0  0  0  0  0  0  0  0  0  0
   27.7500   32.8400   15.5320 O   0  0  0  0  0  0  0  0  0  0  0  0
   31.5180   35.8660   13.2420 C   0  0  0  0  0  0  0  0  0  0  0  0
   30.8400   34.1460   14.7890 C   0  0  0  0  0  0  0  0  0  0  0  0
   32.8540   35.7400   13.5860 C   0  0  0  0  0  0  0  0  0  0  0  0
   32.1840   34.0380   15.1150 C   0  0  0  0  0  0  0  0  0  0  0  0
   33.1730   34.8090   14.5370 C   0  0  0  0  0  0  0  0  0  0  0  0
   30.3210   32.4430   16.3490 C   0  0  0  0  0  0  0  0  0  0  0  0
   29.7800   31.0870   15.9460 C   0  0  0  0  0  0  0  0  0  0  0  0
   29.8490   32.7260   17.7400 C   0  0  0  0  0  0  0  0  0  0  0  0
   29.8670   25.5550   16.9770 C   0  0  0  0  0  0  0  0  0  0  0  0
   28.3450   25.7220   17.0260 C   0  0  0  0  0  0  0  0  0  0  0  0
   27.6020   24.4000   16.9140 C   0  0  0  0  0  0  0  0  0  0  0  0
   26.4350   24.3240   17.8590 C   0  0  0  0  0  0  0  0  0  0  0  0
   26.0440   25.7320   18.2990 C   0  0  0  0  0  0  0  0  0  0  0  0
   25.9040   25.7950   19.7730 N   0  0  0  0  0  0  0  0  0  0  0  0
  1  4  1  0  0  0  0
  1  2  1  0  0  0  0
  2 31  1  0  0  0  0
  3  2  2  0  0  0  0
  5  1  1  0  0  0  0
  6  5  1  1  0  0  0
  6 29  1  0  0  0  0
  7 27  1  1  0  0  0
  7  6  1  0  0  0  0
  8  7  1  6  0  0  0
  8 13  1  0  0  0  0
  9 14  1  6  0  0  0
  9 10  1  0  0  0  0
  9 11  1  0  0  0  0
 10 12  1  0  0  0  0
 11  8  1  0  0  0  0
 12 20  1  6  0  0  0
 12 13  1  0  0  0  0
 13 22  1  1  0  0  0
 15 14  1  0  0  0  0
 16  9  1  0  0  0  0
 17 16  2  0  0  0  0
 18 16  1  0  0  0  0
 19 18  1  0  0  0  0
 21 20  1  0  0  0  0
 22 23  1  0  0  0  0
 23 26  2  0  0  0  0
 23 25  1  0  0  0  0
 24 22  1  0  0  0  0
 28 27  1  0  0  0  0
 30 29  1  0  0  0  0
 32 31  1  0  0  0  0
 32 33  1  0  0  0  0
 33 35  1  0  0  0  0
 34 33  2  0  0  0  0
 34 36  1  0  0  0  0
 35 37  2  0  0  0  0
 36 37  1  0  0  0  0
 38 36  1  0  0  0  0
 38 40  2  0  0  0  0
 39 38  1  0  0  0  0
 40 43  1  0  0  0  0
 41 39  2  0  0  0  0
 41 42  1  0  0  0  0
 42 44  1  0  0  0  0
 42 40  1  0  0  0  0
 43 45  1  0  0  0  0
 43 46  2  0  0  0  0
 44 48  2  0  0  0  0
 45 52  1  0  0  0  0
 47 49  2  0  0  0  0
 47 44  1  0  0  0  0
 48 50  1  0  0  0  0
 48 45  1  0  0  0  0
 49 51  1  0  0  0  0
 51 50  2  0  0  0  0
 52 54  1  0  0  0  0
 53 52  1  0  0  0  0
 55 56  1  0  0  0  0
 57 56  1  0  0  0  0
 57 58  1  0  0  0  0
 58 59  1  0  0  0  0
 59 60  1  0  0  0  0
M  END
>  <REMARK>
 VINA RESULT:    -4.287      4.913     10.758
 INTER + INTRA:         -14.779
 INTER:                  -9.391
 INTRA:                  -5.388
 UNBOUND:                -7.109
 SMILES CC(=O)N[C@@H]1[C@@H](O)C[C@](O)(C(=O)O)O[C@H]1C(O)[C@H](O)CNC(=O)OCc1cn(-c2ncn3c2c(=O)n(C(C)C)c2ccccc23)nn1
 SMILES IDX 21 1 22 2 23 3 20 5 18 6 16 7 15 8 9 9 8 10 14 11 6 12 5 13
 SMILES IDX 10 14 11 16 12 17 13 18 7 20 4 22 2 23 1 25 3 26 17 27 19 29
 SMILES IDX 24 31 25 32 26 33 27 34 47 35 28 36 46 37 29 38 30 39 33 40
 SMILES IDX 31 41 32 42 34 43 45 44 36 45 35 46 44 47 40 48 43 49 41 50
 SMILES IDX 42 51 37 52 38 53 39 54
 H PARENT 21 4 10 15 13 19 7 21 4 24 17 28 19 30
 Flexibility Score: inf
  4 active torsions:
  status: ('A' for Active; 'I' for Inactive)
    1  A    between atoms: CA   and  CB  
    2  A    between atoms: CB   and  CG  
    3  A    between atoms: CG   and  CD  
    4  A    between atoms: CD   and  CE  

>  <TORSDO>
F 16

>  <BEGIN_>
RES LYS A 131

$$$$
ligand_89_pose_18_2HRL.pdbqt
 OpenBabel07062320523D

  6  5  0  0  0  0  0  0  0  0999 V2000
   33.1930   34.6630    9.2900 C   0  0  0  0  0  0  0  0  0  0  0  0
   32.0600   35.3600   10.0340 C   0  0  0  0  0  0  0  0  0  0  0  0
   30.7340   34.6540    9.9110 C   0  0  0  0  0  0  0  0  0  0  0  0
   29.7560   35.4880    9.0980 C   0  0  0  0  0  0  0  0  0  0  0  0
   29.6570   34.9610    7.6790 C   0  0  0  0  0  0  0  0  0  0  0  0
   28.3240   35.2610    7.0870 N   0  0  0  0  0  0  0  0  0  0  0  0
  1  2  1  0  0  0  0
  3  2  1  0  0  0  0
  4  3  1  0  0  0  0
  5  4  1  0  0  0  0
  6  5  1  0  0  0  0
M  END
>  <EGIN_R>
ES LYS A 135

>  <REMARK>
  4 active torsions:
  status: ('A' for Active; 'I' for Inactive)
    5  A    between atoms: CA   and  CB  
    6  A    between atoms: CB   and  CG  
    7  A    between atoms: CG   and  CD  
    8  A    between atoms: CD   and  CE  

$$$$
