ligand_35_pose_0_2HRL.pdbqt
 OpenBabel07062320523D

 49 49  0  0  1  0  0  0  0  0999 V2000
   29.4390   29.8500   19.2010 N   0  0  0  0  0  0  0  0  0  0  0  0
   28.1630   29.7040   19.7930 C   0  0  0  0  0  0  0  0  0  0  0  0
   27.6140   30.6430   20.4220 O   0  0  0  0  0  0  0  0  0  0  0  0
   29.8480   29.0440   18.6930 H   0  0  0  0  0  0  0  0  0  0  0  0
   30.1780   31.0760   19.2820 C   0  0  0  0  0  0  0  0  0  0  0  0
   30.3820   31.7400   17.9160 C   0  0  2  0  0  0  0  0  0  0  0  0
   29.2500   32.6860   17.7100 C   0  0  2  0  0  0  0  0  0  0  0  0
   29.5850   34.0050   17.1020 C   0  0  2  0  0  0  0  0  0  0  0  0
   28.1960   33.9000   15.2280 C   0  0  2  0  0  0  0  0  0  0  0  0
   29.2700   33.1200   14.5810 C   0  0  0  0  0  0  0  0  0  0  0  0
   28.4480   34.4620   16.4510 O   0  0  0  0  0  0  0  0  0  0  0  0
   30.6740   33.4840   14.9110 C   0  0  1  0  0  0  0  0  0  0  0  0
   30.8120   34.0920   16.2780 C   0  0  1  0  0  0  0  0  0  0  0  0
   27.1280   32.9900   15.4500 O   0  0  0  0  0  0  0  0  0  0  0  0
   26.3700   33.3010   14.9120 H   0  0  0  0  0  0  0  0  0  0  0  0
   27.6760   34.9130   14.2690 C   0  0  0  0  0  0  0  0  0  0  0  0
   28.2050   36.0520   14.1500 O   0  0  0  0  0  0  0  0  0  0  0  0
   26.5830   34.6360   13.4660 O   0  0  0  0  0  0  0  0  0  0  0  0
   26.6220   34.6230   12.4520 H   0  0  0  0  0  0  0  0  0  0  0  0
   31.4500   32.3160   14.7850 O   0  0  0  0  0  0  0  0  0  0  0  0
   30.9290   31.5950   15.2160 H   0  0  0  0  0  0  0  0  0  0  0  0
   31.1020   35.5310   16.1180 N   0  0  0  0  0  0  0  0  0  0  0  0
   32.4230   36.0240   16.1960 C   0  0  0  0  0  0  0  0  0  0  0  0
   30.3540   36.2270   15.9450 H   0  0  0  0  0  0  0  0  0  0  0  0
   32.7610   37.4510   16.0420 C   0  0  0  0  0  0  0  0  0  0  0  0
   33.3880   35.2170   16.4070 O   0  0  0  0  0  0  0  0  0  0  0  0
   28.7930   33.0040   19.0300 O   0  0  0  0  0  0  0  0  0  0  0  0
   28.2180   33.8000   18.9010 H   0  0  0  0  0  0  0  0  0  0  0  0
   30.3590   30.6970   16.9990 O   0  0  0  0  0  0  0  0  0  0  0  0
   29.8470   31.0110   16.2110 H   0  0  0  0  0  0  0  0  0  0  0  0
   27.4570   28.4890   19.6980 O   0  0  0  0  0  0  0  0  0  0  0  0
   27.3560   27.8080   18.4610 C   0  0  0  0  0  0  0  0  0  0  0  0
   26.8560   28.7080   17.3910 C   0  0  0  0  0  0  0  0  0  0  0  0
   25.5180   28.9170   17.0470 C   0  0  0  0  0  0  0  0  0  0  0  0
   27.5520   29.4970   16.5430 N   0  0  0  0  0  0  0  0  0  0  0  0
   25.4630   29.7940   16.0400 N   0  0  0  0  0  0  0  0  0  0  0  0
   26.6900   30.1390   15.7420 N   0  0  0  0  0  0  0  0  0  0  0  0
   24.2550   30.2940   15.3730 C   0  0  1  0  0  0  0  0  0  0  0  0
   23.5610   31.3100   16.2640 C   0  0  0  0  0  0  0  0  0  0  0  0
   24.5540   30.8760   14.0660 C   0  0  0  0  0  0  0  0  0  0  0  0
   24.4090   30.1910   13.0280 O   0  0  0  0  0  0  0  0  0  0  0  0
   25.0050   32.1820   13.8850 O   0  0  0  0  0  0  0  0  0  0  0  0
   25.9920   32.3830   13.7690 H   0  0  0  0  0  0  0  0  0  0  0  0
   29.8670   25.5550   16.9770 C   0  0  0  0  0  0  0  0  0  0  0  0
   28.3450   25.7220   17.0260 C   0  0  0  0  0  0  0  0  0  0  0  0
   27.6010   24.4070   16.8570 C   0  0  0  0  0  0  0  0  0  0  0  0
   26.1500   24.5240   17.2350 C   0  0  0  0  0  0  0  0  0  0  0  0
   25.6000   23.1430   17.5780 C   0  0  0  0  0  0  0  0  0  0  0  0
   24.2010   23.0110   17.1100 N   0  0  0  0  0  0  0  0  0  0  0  0
  1  5  1  0  0  0  0
  1  2  1  0  0  0  0
  2  3  2  0  0  0  0
  4  1  1  0  0  0  0
  6  5  1  1  0  0  0
  7  6  1  0  0  0  0
  7 27  1  1  0  0  0
  8  7  1  6  0  0  0
  9 16  1  6  0  0  0
  9 14  1  0  0  0  0
  9 11  1  0  0  0  0
 10 12  1  0  0  0  0
 10  9  1  0  0  0  0
 11  8  1  0  0  0  0
 12 20  1  1  0  0  0
 12 13  1  0  0  0  0
 13 22  1  6  0  0  0
 13  8  1  0  0  0  0
 15 14  1  0  0  0  0
 17 16  2  0  0  0  0
 18 16  1  0  0  0  0
 19 18  1  0  0  0  0
 20 21  1  0  0  0  0
 22 23  1  0  0  0  0
 23 26  2  0  0  0  0
 24 22  1  0  0  0  0
 25 23  1  0  0  0  0
 28 27  1  0  0  0  0
 29  6  1  0  0  0  0
 30 29  1  0  0  0  0
 31  2  1  0  0  0  0
 32 31  1  0  0  0  0
 33 32  1  0  0  0  0
 34 33  2  0  0  0  0
 35 33  1  0  0  0  0
 36 34  1  0  0  0  0
 37 36  1  0  0  0  0
 37 35  2  0  0  0  0
 38 36  1  0  0  0  0
 38 39  1  1  0  0  0
 40 38  1  0  0  0  0
 41 40  2  0  0  0  0
 42 40  1  0  0  0  0
 43 42  1  0  0  0  0
 44 45  1  0  0  0  0
 46 45  1  0  0  0  0
 46 47  1  0  0  0  0
 47 48  1  0  0  0  0
 49 48  1  0  0  0  0
M  END
>  <REMARK>
 VINA RESULT:    -5.314      0.000      0.000
 INTER + INTRA:         -14.387
 INTER:                  -7.454
 INTRA:                  -6.933
 UNBOUND:                -4.724
 SMILES CC(=O)N[C@@H]1[C@@H](O)C[C@](O)(C(=O)O)O[C@H]1C(O)[C@H](O)CNC(=O)OCc1cn([C@@H](C)C(=O)O)nn1
 SMILES IDX 21 1 22 2 23 3 20 5 18 6 16 7 15 8 9 9 8 10 14 11 6 12 5 13
 SMILES IDX 10 14 11 16 12 17 13 18 7 20 4 22 2 23 1 25 3 26 17 27 19 29
 SMILES IDX 24 31 25 32 26 33 27 34 35 35 28 36 34 37 29 38 30 39 31 40
 SMILES IDX 32 41 33 42
 H PARENT 21 4 10 15 13 19 7 21 4 24 17 28 19 30 33 43
 Flexibility Score: inf
  4 active torsions:
  status: ('A' for Active; 'I' for Inactive)
    1  A    between atoms: CA   and  CB  
    2  A    between atoms: CB   and  CG  
    3  A    between atoms: CG   and  CD  
    4  A    between atoms: CD   and  CE  

>  <TORSDO>
F 17

>  <BEGIN_>
RES LYS A 131

$$$$
ligand_35_pose_0_2HRL.pdbqt
 OpenBabel07062320523D

  6  5  0  0  0  0  0  0  0  0999 V2000
   33.1930   34.6630    9.2900 C   0  0  0  0  0  0  0  0  0  0  0  0
   32.0600   35.3600   10.0340 C   0  0  0  0  0  0  0  0  0  0  0  0
   30.7150   34.7140    9.8250 C   0  0  0  0  0  0  0  0  0  0  0  0
   30.4690   34.4510    8.3480 C   0  0  0  0  0  0  0  0  0  0  0  0
   29.4110   35.3950    7.8080 C   0  0  0  0  0  0  0  0  0  0  0  0
   28.0490   34.8100    7.9490 N   0  0  0  0  0  0  0  0  0  0  0  0
  1  2  1  0  0  0  0
  3  2  1  0  0  0  0
  4  3  1  0  0  0  0
  5  6  1  0  0  0  0
  5  4  1  0  0  0  0
M  END
>  <EGIN_R>
ES LYS A 135

>  <REMARK>
  4 active torsions:
  status: ('A' for Active; 'I' for Inactive)
    5  A    between atoms: CA   and  CB  
    6  A    between atoms: CB   and  CG  
    7  A    between atoms: CG   and  CD  
    8  A    between atoms: CD   and  CE  

$$$$
