ligand_6_pose_1_2HRL.pdbqt
 OpenBabel07062320523D

 52 53  0  0  1  0  0  0  0  0999 V2000
   29.2050   27.1690   19.9640 N   0  0  0  0  0  0  0  0  0  0  0  0
   27.8850   27.6510   20.0390 C   0  0  0  0  0  0  0  0  0  0  0  0
   27.3920   28.1320   21.0740 O   0  0  0  0  0  0  0  0  0  0  0  0
   29.5210   26.8020   19.0010 H   0  0  0  0  0  0  0  0  0  0  0  0
   30.1160   27.1330   21.0400 C   0  0  0  0  0  0  0  0  0  0  0  0
   31.4370   27.7800   20.9250 C   0  0  2  0  0  0  0  0  0  0  0  0
   31.6040   29.2150   20.7240 C   0  0  2  0  0  0  0  0  0  0  0  0
   30.9780   30.0420   21.8520 C   0  0  2  0  0  0  0  0  0  0  0  0
   29.4980   31.8210   22.0900 C   0  0  2  0  0  0  0  0  0  0  0  0
   29.8130   31.6230   23.5540 C   0  0  0  0  0  0  0  0  0  0  0  0
   29.9220   30.7870   21.2860 O   0  0  0  0  0  0  0  0  0  0  0  0
   31.2740   31.4300   23.8140 C   0  0  1  0  0  0  0  0  0  0  0  0
   31.9110   31.0150   22.4740 C   0  0  1  0  0  0  0  0  0  0  0  0
   30.0170   33.0490   21.7170 O   0  0  0  0  0  0  0  0  0  0  0  0
   30.2470   33.0250   20.7670 H   0  0  0  0  0  0  0  0  0  0  0  0
   28.0170   31.8860   21.9800 C   0  0  0  0  0  0  0  0  0  0  0  0
   27.3650   32.7710   22.5910 O   0  0  0  0  0  0  0  0  0  0  0  0
   27.3180   30.9780   21.2030 O   0  0  0  0  0  0  0  0  0  0  0  0
   27.3710   29.9690   21.3640 H   0  0  0  0  0  0  0  0  0  0  0  0
   31.9100   32.5270   24.3500 O   0  0  0  0  0  0  0  0  0  0  0  0
   32.7570   32.2230   24.7620 H   0  0  0  0  0  0  0  0  0  0  0  0
   33.2130   30.4850   22.8230 N   0  0  0  0  0  0  0  0  0  0  0  0
   34.4090   31.1540   22.4000 C   0  0  0  0  0  0  0  0  0  0  0  0
   33.3400   29.6200   23.3810 H   0  0  0  0  0  0  0  0  0  0  0  0
   35.7700   30.6710   22.7200 C   0  0  0  0  0  0  0  0  0  0  0  0
   34.2760   32.1980   21.7270 O   0  0  0  0  0  0  0  0  0  0  0  0
   31.1440   29.6190   19.4970 O   0  0  0  0  0  0  0  0  0  0  0  0
   30.1970   29.8780   19.4490 H   0  0  0  0  0  0  0  0  0  0  0  0
   32.1510   27.0000   19.9700 O   0  0  0  0  0  0  0  0  0  0  0  0
   32.5700   27.5970   19.2970 H   0  0  0  0  0  0  0  0  0  0  0  0
   27.1000   27.5730   18.8660 O   0  0  0  0  0  0  0  0  0  0  0  0
   26.5470   28.7900   18.4050 C   0  0  0  0  0  0  0  0  0  0  0  0
   27.5250   29.4920   17.5060 C   0  0  0  0  0  0  0  0  0  0  0  0
   28.3410   30.5560   17.8230 C   0  0  0  0  0  0  0  0  0  0  0  0
   27.8010   29.2230   16.2070 N   0  0  0  0  0  0  0  0  0  0  0  0
   29.0790   30.9080   16.7430 N   0  0  0  0  0  0  0  0  0  0  0  0
   28.7130   30.0710   15.7950 N   0  0  0  0  0  0  0  0  0  0  0  0
   30.0380   31.9600   16.6670 C   0  0  0  0  0  0  0  0  0  0  0  0
   30.2830   32.8070   17.7270 C   0  0  0  0  0  0  0  0  0  0  0  0
   30.7700   32.1770   15.5140 C   0  0  0  0  0  0  0  0  0  0  0  0
   31.2170   33.8200   17.6310 C   0  0  0  0  0  0  0  0  0  0  0  0
   31.7040   33.1890   15.4170 C   0  0  0  0  0  0  0  0  0  0  0  0
   31.9520   34.0370   16.4750 C   0  0  0  0  0  0  0  0  0  0  0  0
   32.9110   35.0710   16.3690 N   0  0  0  0  0  0  0  0  0  0  0  0
   33.3470   35.5890   17.4120 O   0  0  0  0  0  0  0  0  0  0  0  0
   33.3950   35.5390   15.1800 O   0  0  0  0  0  0  0  0  0  0  0  0
   29.8670   25.5550   16.9770 C   0  0  0  0  0  0  0  0  0  0  0  0
   28.3450   25.7220   17.0260 C   0  0  0  0  0  0  0  0  0  0  0  0
   27.6010   24.4020   16.8890 C   0  0  0  0  0  0  0  0  0  0  0  0
   26.1460   24.5330   17.2430 C   0  0  0  0  0  0  0  0  0  0  0  0
   25.5720   23.1550   17.5560 C   0  0  0  0  0  0  0  0  0  0  0  0
   24.1120   23.1320   17.3070 N   0  0  0  0  0  0  0  0  0  0  0  0
  1  2  1  0  0  0  0
  1  5  1  0  0  0  0
  2  3  2  0  0  0  0
  4  1  1  0  0  0  0
  6  5  1  6  0  0  0
  7 27  1  6  0  0  0
  7  6  1  0  0  0  0
  8  7  1  6  0  0  0
  8 13  1  0  0  0  0
  9 14  1  6  0  0  0
  9 10  1  0  0  0  0
 10 12  1  0  0  0  0
 11  8  1  0  0  0  0
 11  9  1  0  0  0  0
 12 20  1  6  0  0  0
 13 22  1  1  0  0  0
 13 12  1  0  0  0  0
 15 14  1  0  0  0  0
 16  9  1  0  0  0  0
 16 17  2  0  0  0  0
 18 19  1  0  0  0  0
 18 16  1  0  0  0  0
 20 21  1  0  0  0  0
 22 24  1  0  0  0  0
 23 25  1  0  0  0  0
 23 22  1  0  0  0  0
 26 23  2  0  0  0  0
 28 27  1  0  0  0  0
 29  6  1  0  0  0  0
 30 29  1  0  0  0  0
 31  2  1  0  0  0  0
 32 31  1  0  0  0  0
 33 34  2  0  0  0  0
 33 32  1  0  0  0  0
 35 33  1  0  0  0  0
 36 34  1  0  0  0  0
 37 35  2  0  0  0  0
 37 36  1  0  0  0  0
 38 36  1  0  0  0  0
 38 39  2  0  0  0  0
 40 38  1  0  0  0  0
 41 39  1  0  0  0  0
 42 40  2  0  0  0  0
 42 43  1  0  0  0  0
 43 41  2  0  0  0  0
 44 43  1  0  0  0  0
 44 45  2  0  0  0  0
 46 44  2  0  0  0  0
 47 48  1  0  0  0  0
 49 48  1  0  0  0  0
 49 50  1  0  0  0  0
 50 51  1  0  0  0  0
 52 51  1  0  0  0  0
M  END
>  <REMARK>
 VINA RESULT:    -5.875      1.679      3.368
 INTER + INTRA:         -15.260
 INTER:                  -9.115
 INTRA:                  -6.145
 UNBOUND:                -4.749
 SMILES CC(=O)N[C@@H]1[C@@H](O)C[C@](O)(C(=O)O)O[C@H]1C(O)[C@H](O)CNC(=O)OCc1cn(-c2ccc([N+](=O)[O-])cc2)nn1
 SMILES IDX 21 1 22 2 23 3 20 5 18 6 16 7 15 8 9 9 8 10 14 11 6 12 5 13
 SMILES IDX 10 14 11 16 12 17 13 18 7 20 4 22 2 23 1 25 3 26 17 27 19 29
 SMILES IDX 24 31 25 32 26 33 27 34 39 35 28 36 38 37 29 38 30 39 37 40
 SMILES IDX 31 41 36 42 32 43 33 44 34 45 35 46
 H PARENT 21 4 10 15 13 19 7 21 4 24 17 28 19 30
 Flexibility Score: inf
  4 active torsions:
  status: ('A' for Active; 'I' for Inactive)
    1  A    between atoms: CA   and  CB  
    2  A    between atoms: CB   and  CG  
    3  A    between atoms: CG   and  CD  
    4  A    between atoms: CD   and  CE  

>  <TORSDO>
F 16

>  <BEGIN_>
RES LYS A 131

$$$$
ligand_6_pose_1_2HRL.pdbqt
 OpenBabel07062320523D

  6  5  0  0  0  0  0  0  0  0999 V2000
   33.1930   34.6630    9.2900 C   0  0  0  0  0  0  0  0  0  0  0  0
   32.0600   35.3600   10.0340 C   0  0  0  0  0  0  0  0  0  0  0  0
   30.8000   35.5000    9.2190 C   0  0  0  0  0  0  0  0  0  0  0  0
   30.1270   34.1480    9.0350 C   0  0  0  0  0  0  0  0  0  0  0  0
   28.6690   34.3260    8.6590 C   0  0  0  0  0  0  0  0  0  0  0  0
   27.7750   33.6550    9.6430 N   0  0  0  0  0  0  0  0  0  0  0  0
  1  2  1  0  0  0  0
  3  2  1  0  0  0  0
  4  3  1  0  0  0  0
  5  4  1  0  0  0  0
  5  6  1  0  0  0  0
M  END
>  <EGIN_R>
ES LYS A 135

>  <REMARK>
  4 active torsions:
  status: ('A' for Active; 'I' for Inactive)
    5  A    between atoms: CA   and  CB  
    6  A    between atoms: CB   and  CG  
    7  A    between atoms: CG   and  CD  
    8  A    between atoms: CD   and  CE  

$$$$
