ligand_27_pose_11_2HRL.pdbqt
 OpenBabel07062320523D

 50 51  0  0  1  0  0  0  0  0999 V2000
   30.3620   27.0480   21.6000 C   0  0  0  0  0  0  0  0  0  0  0  0
   31.8420   27.1980   21.3980 C   0  0  2  0  0  0  0  0  0  0  0  0
   32.5200   27.9230   22.5250 C   0  0  2  0  0  0  0  0  0  0  0  0
   33.1270   29.2410   22.0370 C   0  0  2  0  0  0  0  0  0  0  0  0
   34.9130   29.9600   23.3880 C   0  0  2  0  0  0  0  0  0  0  0  0
   34.2990   31.3530   23.4090 C   0  0  0  0  0  0  0  0  0  0  0  0
   34.4280   29.2470   22.3460 O   0  0  0  0  0  0  0  0  0  0  0  0
   32.8240   31.0970   23.7150 C   0  0  1  0  0  0  0  0  0  0  0  0
   32.2690   30.3510   22.5330 C   0  0  1  0  0  0  0  0  0  0  0  0
   34.6510   29.4100   24.6350 O   0  0  0  0  0  0  0  0  0  0  0  0
   34.3620   28.4720   24.5100 H   0  0  0  0  0  0  0  0  0  0  0  0
   36.3820   30.0760   23.2290 C   0  0  0  0  0  0  0  0  0  0  0  0
   37.1270   29.3290   23.9020 O   0  0  0  0  0  0  0  0  0  0  0  0
   36.9740   30.9820   22.3610 O   0  0  0  0  0  0  0  0  0  0  0  0
   36.8060   30.8690   21.3550 H   0  0  0  0  0  0  0  0  0  0  0  0
   32.6680   30.2970   24.8410 O   0  0  0  0  0  0  0  0  0  0  0  0
   31.7440   30.3500   25.2170 H   0  0  0  0  0  0  0  0  0  0  0  0
   32.0340   31.3280   21.4910 N   0  0  0  0  0  0  0  0  0  0  0  0
   30.8930   31.2030   20.6570 C   0  0  0  0  0  0  0  0  0  0  0  0
   32.6990   32.1400   21.3350 H   0  0  0  0  0  0  0  0  0  0  0  0
   30.6580   32.2100   19.5900 C   0  0  0  0  0  0  0  0  0  0  0  0
   30.0940   30.2470   20.8270 O   0  0  0  0  0  0  0  0  0  0  0  0
   33.5520   27.0720   22.9770 O   0  0  0  0  0  0  0  0  0  0  0  0
   34.2120   27.5630   23.4850 H   0  0  0  0  0  0  0  0  0  0  0  0
   32.0650   27.9090   20.2050 O   0  0  0  0  0  0  0  0  0  0  0  0
   32.8720   27.5640   19.7830 H   0  0  0  0  0  0  0  0  0  0  0  0
   29.6830   27.0500   20.3080 N   0  0  0  0  0  0  0  0  0  0  0  0
   28.3180   27.4150   20.2070 C   0  0  0  0  0  0  0  0  0  0  0  0
   30.2330   26.7750   19.4690 H   0  0  0  0  0  0  0  0  0  0  0  0
   27.6930   27.7400   21.2480 O   0  0  0  0  0  0  0  0  0  0  0  0
   27.6360   27.4290   19.0010 O   0  0  0  0  0  0  0  0  0  0  0  0
   26.6000   28.3710   18.8300 C   0  0  0  0  0  0  0  0  0  0  0  0
   26.9400   29.2750   17.7010 C   0  0  0  0  0  0  0  0  0  0  0  0
   28.0880   30.0360   17.5680 C   0  0  0  0  0  0  0  0  0  0  0  0
   26.2220   29.5380   16.5940 N   0  0  0  0  0  0  0  0  0  0  0  0
   28.0380   30.7290   16.4060 N   0  0  0  0  0  0  0  0  0  0  0  0
   26.8880   30.4010   15.8410 N   0  0  0  0  0  0  0  0  0  0  0  0
   29.0220   31.6250   15.9030 C   0  0  0  0  0  0  0  0  0  0  0  0
   30.3520   31.3740   16.1610 C   0  0  0  0  0  0  0  0  0  0  0  0
   28.7160   32.7460   15.1620 C   0  0  0  0  0  0  0  0  0  0  0  0
   31.3470   32.2170   15.6930 C   0  0  0  0  0  0  0  0  0  0  0  0
   29.6800   33.6070   14.6810 C   0  0  0  0  0  0  0  0  0  0  0  0
   31.0030   33.3280   14.9560 C   0  0  0  0  0  0  0  0  0  0  0  0
   29.2440   35.0360   13.7320 Cl  0  0  0  0  0  0  0  0  0  0  0  0
   29.8670   25.5550   16.9770 C   0  0  0  0  0  0  0  0  0  0  0  0
   28.3450   25.7220   17.0260 C   0  0  0  0  0  0  0  0  0  0  0  0
   27.6010   24.4030   16.8870 C   0  0  0  0  0  0  0  0  0  0  0  0
   26.2710   24.4260   17.5870 C   0  0  0  0  0  0  0  0  0  0  0  0
   25.6580   23.0300   17.5620 C   0  0  0  0  0  0  0  0  0  0  0  0
   24.2350   23.0950   17.1530 N   0  0  0  0  0  0  0  0  0  0  0  0
  2  1  1  1  0  0  0
  2  3  1  0  0  0  0
  3 23  1  6  0  0  0
  4  7  1  0  0  0  0
  4  3  1  1  0  0  0
  4  9  1  0  0  0  0
  5 12  1  6  0  0  0
  5  6  1  0  0  0  0
  5 10  1  0  0  0  0
  6  8  1  0  0  0  0
  7  5  1  0  0  0  0
  8 16  1  1  0  0  0
  9 18  1  6  0  0  0
  9  8  1  0  0  0  0
 11 10  1  0  0  0  0
 12 13  2  0  0  0  0
 14 12  1  0  0  0  0
 15 14  1  0  0  0  0
 16 17  1  0  0  0  0
 19 22  2  0  0  0  0
 19 18  1  0  0  0  0
 20 18  1  0  0  0  0
 21 19  1  0  0  0  0
 23 24  1  0  0  0  0
 25  2  1  0  0  0  0
 26 25  1  0  0  0  0
 27  1  1  0  0  0  0
 28 27  1  0  0  0  0
 28 30  2  0  0  0  0
 29 27  1  0  0  0  0
 31 28  1  0  0  0  0
 32 31  1  0  0  0  0
 33 32  1  0  0  0  0
 34 33  2  0  0  0  0
 35 33  1  0  0  0  0
 36 34  1  0  0  0  0
 37 36  1  0  0  0  0
 37 35  2  0  0  0  0
 38 39  1  0  0  0  0
 38 36  1  0  0  0  0
 40 38  2  0  0  0  0
 41 39  2  0  0  0  0
 42 43  2  0  0  0  0
 42 40  1  0  0  0  0
 43 41  1  0  0  0  0
 44 42  1  0  0  0  0
 45 46  1  0  0  0  0
 47 46  1  0  0  0  0
 47 48  1  0  0  0  0
 49 48  1  0  0  0  0
 50 49  1  0  0  0  0
M  END
>  <REMARK>
 VINA RESULT:    -5.540      2.635      4.163
 INTER + INTRA:         -14.085
 INTER:                  -8.985
 INTRA:                  -5.100
 UNBOUND:                -4.497
 SMILES CC(=O)N[C@@H]1[C@@H](O)C[C@](O)(C(=O)O)O[C@H]1C(O)[C@H](O)CNC(=O)OCc1cn(-c2cccc(Cl)c2)nn1
 SMILES IDX 20 1 18 2 16 3 15 4 9 5 8 6 14 7 6 8 5 9 10 10 11 12 12 13
 SMILES IDX 13 14 7 16 4 18 2 19 1 21 3 22 17 23 19 25 21 27 22 28 23 30
 SMILES IDX 24 31 25 32 26 33 27 34 37 35 28 36 36 37 29 38 30 39 35 40
 SMILES IDX 31 41 33 42 32 43 34 44
 H PARENT 10 11 13 15 7 17 4 20 17 24 19 26 21 29
 Flexibility Score: inf
  4 active torsions:
  status: ('A' for Active; 'I' for Inactive)
    1  A    between atoms: CA   and  CB  
    2  A    between atoms: CB   and  CG  
    3  A    between atoms: CG   and  CD  
    4  A    between atoms: CD   and  CE  

>  <TORSDO>
F 15

>  <BEGIN_>
RES LYS A 131

$$$$
ligand_27_pose_11_2HRL.pdbqt
 OpenBabel07062320523D

  6  5  0  0  0  0  0  0  0  0999 V2000
   33.1930   34.6630    9.2900 C   0  0  0  0  0  0  0  0  0  0  0  0
   32.0600   35.3600   10.0340 C   0  0  0  0  0  0  0  0  0  0  0  0
   30.7110   34.7270    9.8070 C   0  0  0  0  0  0  0  0  0  0  0  0
   30.3890   34.6690    8.3220 C   0  0  0  0  0  0  0  0  0  0  0  0
   29.2570   35.6200    7.9840 C   0  0  0  0  0  0  0  0  0  0  0  0
   28.8870   35.5230    6.5450 N   0  0  0  0  0  0  0  0  0  0  0  0
  1  2  1  0  0  0  0
  3  2  1  0  0  0  0
  4  3  1  0  0  0  0
  5  4  1  0  0  0  0
  6  5  1  0  0  0  0
M  END
>  <EGIN_R>
ES LYS A 135

>  <REMARK>
  4 active torsions:
  status: ('A' for Active; 'I' for Inactive)
    5  A    between atoms: CA   and  CB  
    6  A    between atoms: CB   and  CG  
    7  A    between atoms: CG   and  CD  
    8  A    between atoms: CD   and  CE  

$$$$
