ligand_45_pose_18_2HRL.pdbqt
 OpenBabel07062320523D

 52 52  0  0  1  0  0  0  0  0999 V2000
   25.3630   33.6610   15.6100 O   0  0  0  0  0  0  0  0  0  0  0  0
   25.0400   33.7990   14.2750 C   0  0  0  0  0  0  0  0  0  0  0  0
   26.0230   34.1060   13.2800 N   0  0  0  0  0  0  0  0  0  0  0  0
   26.9860   34.2090   13.6170 H   0  0  0  0  0  0  0  0  0  0  0  0
   23.8460   33.6500   13.9260 O   0  0  0  0  0  0  0  0  0  0  0  0
   25.6140   34.2320   11.9300 C   0  0  0  0  0  0  0  0  0  0  0  0
   25.8290   35.5590   11.2830 C   0  0  2  0  0  0  0  0  0  0  0  0
   27.0270   36.3240   11.7520 C   0  0  1  0  0  0  0  0  0  0  0  0
   27.4840   37.4150   10.8310 C   0  0  2  0  0  0  0  0  0  0  0  0
   27.4390   38.0700    8.6270 C   0  0  2  0  0  0  0  0  0  0  0  0
   27.9360   39.3410    9.2900 C   0  0  0  0  0  0  0  0  0  0  0  0
   27.1050   37.1050    9.5470 O   0  0  0  0  0  0  0  0  0  0  0  0
   29.1440   39.0630   10.1290 C   0  0  1  0  0  0  0  0  0  0  0  0
   28.9340   37.7500   10.8870 C   0  0  1  0  0  0  0  0  0  0  0  0
   28.4940   37.5800    7.8360 O   0  0  0  0  0  0  0  0  0  0  0  0
   29.3250   37.9430    8.2410 H   0  0  0  0  0  0  0  0  0  0  0  0
   26.2990   38.3770    7.7500 C   0  0  0  0  0  0  0  0  0  0  0  0
   25.2810   38.9670    8.2090 O   0  0  0  0  0  0  0  0  0  0  0  0
   26.3030   38.0390    6.4120 O   0  0  0  0  0  0  0  0  0  0  0  0
   25.6560   38.4520    5.7680 H   0  0  0  0  0  0  0  0  0  0  0  0
   30.2620   38.9660    9.2880 O   0  0  0  0  0  0  0  0  0  0  0  0
   31.0330   39.3930    9.7200 H   0  0  0  0  0  0  0  0  0  0  0  0
   29.3710   38.0500   12.2540 N   0  0  0  0  0  0  0  0  0  0  0  0
   30.7300   37.9040   12.6200 C   0  0  0  0  0  0  0  0  0  0  0  0
   28.6630   38.3720   12.9530 H   0  0  0  0  0  0  0  0  0  0  0  0
   31.1610   38.2110   14.0220 C   0  0  0  0  0  0  0  0  0  0  0  0
   31.6300   37.5200   11.8120 O   0  0  0  0  0  0  0  0  0  0  0  0
   26.7620   36.8420   13.0290 O   0  0  0  0  0  0  0  0  0  0  0  0
   26.2980   36.1250   13.5440 H   0  0  0  0  0  0  0  0  0  0  0  0
   24.6570   36.3130   11.5100 O   0  0  0  0  0  0  0  0  0  0  0  0
   24.0870   36.3650   10.7170 H   0  0  0  0  0  0  0  0  0  0  0  0
   25.2330   32.3850   16.2200 C   0  0  0  0  0  0  0  0  0  0  0  0
   26.5330   31.6750   16.1880 C   0  0  0  0  0  0  0  0  0  0  0  0
   27.7910   32.1200   16.5290 C   0  0  0  0  0  0  0  0  0  0  0  0
   26.7200   30.3980   15.7920 N   0  0  0  0  0  0  0  0  0  0  0  0
   28.6940   31.1370   16.3420 N   0  0  0  0  0  0  0  0  0  0  0  0
   28.0020   30.1110   15.8940 N   0  0  0  0  0  0  0  0  0  0  0  0
   30.1040   31.1520   16.5590 C   0  0  0  0  0  0  0  0  0  0  0  0
   30.8580   31.9950   15.6030 C   0  0  0  0  0  0  0  0  0  0  0  0
   31.5220   33.2100   16.1010 C   0  0  0  0  0  0  0  0  0  0  0  0
   31.4410   34.4210   15.3930 N   0  0  0  0  0  0  0  0  0  0  0  0
   30.9010   34.3660   14.0610 C   0  0  0  0  0  0  0  0  0  0  0  0
   30.4870   35.2630   16.1430 C   0  0  0  0  0  0  0  0  0  0  0  0
   29.1630   35.4100   15.4990 C   0  0  0  0  0  0  0  0  0  0  0  0
   32.6730   35.1590   15.3510 C   0  0  0  0  0  0  0  0  0  0  0  0
   33.5000   34.9400   14.1360 C   0  0  0  0  0  0  0  0  0  0  0  0
   29.8670   25.5550   16.9770 C   0  0  0  0  0  0  0  0  0  0  0  0
   28.3450   25.7220   17.0260 C   0  0  0  0  0  0  0  0  0  0  0  0
   27.6020   24.4000   16.9120 C   0  0  0  0  0  0  0  0  0  0  0  0
   26.1550   24.5280   17.3030 C   0  0  0  0  0  0  0  0  0  0  0  0
   26.0590   24.9950   18.7510 C   0  0  0  0  0  0  0  0  0  0  0  0
   24.6580   24.9230   19.2280 N   0  0  0  0  0  0  0  0  0  0  0  0
  1 32  1  0  0  0  0
  2  1  1  0  0  0  0
  3  4  1  0  0  0  0
  3  2  1  0  0  0  0
  5  2  2  0  0  0  0
  6  3  1  0  0  0  0
  7 30  1  0  0  0  0
  7  8  1  0  0  0  0
  7  6  1  1  0  0  0
  8 28  1  1  0  0  0
  9 14  1  0  0  0  0
  9  8  1  1  0  0  0
 10 17  1  6  0  0  0
 10 11  1  0  0  0  0
 10 12  1  0  0  0  0
 11 13  1  0  0  0  0
 12  9  1  0  0  0  0
 13 21  1  6  0  0  0
 13 14  1  0  0  0  0
 14 23  1  1  0  0  0
 15 16  1  0  0  0  0
 15 10  1  0  0  0  0
 17 18  2  0  0  0  0
 19 17  1  0  0  0  0
 20 19  1  0  0  0  0
 21 22  1  0  0  0  0
 23 24  1  0  0  0  0
 23 25  1  0  0  0  0
 24 26  1  0  0  0  0
 27 24  2  0  0  0  0
 28 29  1  0  0  0  0
 31 30  1  0  0  0  0
 33 32  1  0  0  0  0
 33 34  2  0  0  0  0
 35 37  2  0  0  0  0
 35 33  1  0  0  0  0
 36 34  1  0  0  0  0
 36 38  1  0  0  0  0
 37 36  1  0  0  0  0
 39 40  1  0  0  0  0
 39 38  1  0  0  0  0
 41 40  1  0  0  0  0
 41 43  1  0  0  0  0
 42 41  1  0  0  0  0
 44 43  1  0  0  0  0
 45 41  1  0  0  0  0
 46 45  1  0  0  0  0
 47 48  1  0  0  0  0
 49 48  1  0  0  0  0
 49 50  1  0  0  0  0
 50 51  1  0  0  0  0
 51 52  1  0  0  0  0
M  END
>  <REMARK>
 VINA RESULT:    -3.943      6.219     10.338
 INTER + INTRA:         -13.851
 INTER:                  -7.763
 INTRA:                  -6.088
 UNBOUND:                -5.875
 SMILES CC[N+](C)(CC)CCCn1cc(COC(=O)NC[C@@H](O)C(O)[C@@H]2O[C@@](O)(C(=O)O)C[C@H](O)[C@H]2NC(C)=O)nn1
 SMILES IDX 14 1 15 2 17 3 16 5 18 6 19 7 21 8 23 9 25 10 30 11 24 12
 SMILES IDX 31 13 33 14 26 15 27 17 28 18 29 19 32 21 34 23 35 24 36 26
 SMILES IDX 37 27 22 28 20 30 13 32 12 33 11 34 38 35 10 36 39 37 9 38
 SMILES IDX 8 39 7 40 3 41 4 42 2 43 1 44 5 45 6 46
 H PARENT 17 4 26 16 29 20 32 22 34 25 22 29 20 31
 Flexibility Score: inf
  4 active torsions:
  status: ('A' for Active; 'I' for Inactive)
    1  A    between atoms: CA   and  CB  
    2  A    between atoms: CB   and  CG  
    3  A    between atoms: CG   and  CD  
    4  A    between atoms: CD   and  CE  

>  <TORSDO>
F 20

>  <BEGIN_>
RES LYS A 131

$$$$
ligand_45_pose_18_2HRL.pdbqt
 OpenBabel07062320523D

  6  5  0  0  0  0  0  0  0  0999 V2000
   33.1930   34.6630    9.2900 C   0  0  0  0  0  0  0  0  0  0  0  0
   32.0600   35.3600   10.0340 C   0  0  0  0  0  0  0  0  0  0  0  0
   30.7460   34.6260    9.9550 C   0  0  0  0  0  0  0  0  0  0  0  0
   30.3320   34.4230    8.5060 C   0  0  0  0  0  0  0  0  0  0  0  0
   28.8210   34.3620    8.3870 C   0  0  0  0  0  0  0  0  0  0  0  0
   28.2200   33.6540    9.5520 N   0  0  0  0  0  0  0  0  0  0  0  0
  1  2  1  0  0  0  0
  3  2  1  0  0  0  0
  4  3  1  0  0  0  0
  5  4  1  0  0  0  0
  5  6  1  0  0  0  0
M  END
>  <EGIN_R>
ES LYS A 135

>  <REMARK>
  4 active torsions:
  status: ('A' for Active; 'I' for Inactive)
    5  A    between atoms: CA   and  CB  
    6  A    between atoms: CB   and  CG  
    7  A    between atoms: CG   and  CD  
    8  A    between atoms: CD   and  CE  

$$$$
