ligand_28_pose_18_2HRL.pdbqt
 OpenBabel07062320523D

 53 55  0  0  1  0  0  0  0  0999 V2000
   21.6390   39.2690    7.9300 N   0  0  0  0  0  0  0  0  0  0  0  0
   21.3960   38.8210    9.2590 C   0  0  0  0  0  0  0  0  0  0  0  0
   21.7520   39.5500   10.2410 O   0  0  0  0  0  0  0  0  0  0  0  0
   21.3400   38.6580    7.1560 H   0  0  0  0  0  0  0  0  0  0  0  0
   22.2850   40.5460    7.7700 C   0  0  0  0  0  0  0  0  0  0  0  0
   23.7070   40.4460    7.3170 C   0  0  2  0  0  0  0  0  0  0  0  0
   24.6930   40.5580    8.4590 C   0  0  2  0  0  0  0  0  0  0  0  0
   26.1110   40.7440    7.9280 C   0  0  2  0  0  0  0  0  0  0  0  0
   27.1440   39.0580    6.7120 C   0  0  2  0  0  0  0  0  0  0  0  0
   28.5110   39.3390    7.2920 C   0  0  0  0  0  0  0  0  0  0  0  0
   26.3010   40.1320    6.7240 O   0  0  0  0  0  0  0  0  0  0  0  0
   28.4840   40.4740    8.2940 C   0  0  1  0  0  0  0  0  0  0  0  0
   27.1380   40.4180    8.9800 C   0  0  1  0  0  0  0  0  0  0  0  0
   26.5590   37.9440    7.3450 O   0  0  0  0  0  0  0  0  0  0  0  0
   26.9190   37.0990    7.0210 H   0  0  0  0  0  0  0  0  0  0  0  0
   27.3550   38.6580    5.2940 C   0  0  0  0  0  0  0  0  0  0  0  0
   27.5580   39.5390    4.4040 O   0  0  0  0  0  0  0  0  0  0  0  0
   27.3440   37.3440    4.8610 O   0  0  0  0  0  0  0  0  0  0  0  0
   27.6900   37.1520    3.9150 H   0  0  0  0  0  0  0  0  0  0  0  0
   29.5440   40.3930    9.1900 O   0  0  0  0  0  0  0  0  0  0  0  0
   29.6920   39.4360    9.3870 H   0  0  0  0  0  0  0  0  0  0  0  0
   27.0160   41.3000   10.0850 N   0  0  0  0  0  0  0  0  0  0  0  0
   26.7810   40.8380   11.4060 C   0  0  0  0  0  0  0  0  0  0  0  0
   27.1080   42.3400    9.8890 H   0  0  0  0  0  0  0  0  0  0  0  0
   26.6590   41.7970   12.5510 C   0  0  0  0  0  0  0  0  0  0  0  0
   26.6840   39.5940   11.5590 O   0  0  0  0  0  0  0  0  0  0  0  0
   24.6750   39.3490    9.1520 O   0  0  0  0  0  0  0  0  0  0  0  0
   23.8190   38.8820    8.9880 H   0  0  0  0  0  0  0  0  0  0  0  0
   23.9320   41.4690    6.3970 O   0  0  0  0  0  0  0  0  0  0  0  0
   23.6090   42.3440    6.7250 H   0  0  0  0  0  0  0  0  0  0  0  0
   20.7800   37.6070    9.5420 O   0  0  0  0  0  0  0  0  0  0  0  0
   21.2250   36.4440    8.8520 C   0  0  0  0  0  0  0  0  0  0  0  0
   22.6810   36.2560    9.0380 C   0  0  0  0  0  0  0  0  0  0  0  0
   23.2530   35.5550   10.0610 C   0  0  0  0  0  0  0  0  0  0  0  0
   23.6840   36.7120    8.2880 N   0  0  0  0  0  0  0  0  0  0  0  0
   24.5830   35.6060    9.9020 N   0  0  0  0  0  0  0  0  0  0  0  0
   24.8300   36.3100    8.8230 N   0  0  0  0  0  0  0  0  0  0  0  0
   25.5530   34.9870   10.7770 C   0  0  0  0  0  0  0  0  0  0  0  0
   26.8920   35.1870   10.1550 C   0  0  0  0  0  0  0  0  0  0  0  0
   27.3590   34.2400    9.2720 C   0  0  0  0  0  0  0  0  0  0  0  0
   27.6700   36.2830   10.4340 C   0  0  0  0  0  0  0  0  0  0  0  0
   28.6060   34.4080    8.6790 C   0  0  0  0  0  0  0  0  0  0  0  0
   28.9070   36.4450    9.8430 C   0  0  0  0  0  0  0  0  0  0  0  0
   29.3840   35.5110    8.9630 C   0  0  0  0  0  0  0  0  0  0  0  0
   29.8440   37.4530    9.9750 O   0  0  0  0  0  0  0  0  0  0  0  0
   30.6300   35.9000    8.5160 O   0  0  0  0  0  0  0  0  0  0  0  0
   30.8200   37.2290    8.9820 C   0  0  0  0  0  0  0  0  0  0  0  0
   29.8670   25.5550   16.9770 C   0  0  0  0  0  0  0  0  0  0  0  0
   28.3450   25.7220   17.0260 C   0  0  0  0  0  0  0  0  0  0  0  0
   27.6010   24.4010   16.9000 C   0  0  0  0  0  0  0  0  0  0  0  0
   26.3950   24.3430   17.7950 C   0  0  0  0  0  0  0  0  0  0  0  0
   26.2870   25.6410   18.5900 C   0  0  0  0  0  0  0  0  0  0  0  0
   24.8860   25.8770   19.0100 N   0  0  0  0  0  0  0  0  0  0  0  0
  1  2  1  0  0  0  0
  2 31  1  0  0  0  0
  2  3  2  0  0  0  0
  4  1  1  0  0  0  0
  5  1  1  0  0  0  0
  6  5  1  1  0  0  0
  6  7  1  0  0  0  0
  7 27  1  6  0  0  0
  8  7  1  1  0  0  0
  8 13  1  0  0  0  0
  9 16  1  6  0  0  0
  9 11  1  0  0  0  0
  9 10  1  0  0  0  0
  9 14  1  0  0  0  0
 10 12  1  0  0  0  0
 11  8  1  0  0  0  0
 12 13  1  0  0  0  0
 12 20  1  1  0  0  0
 13 22  1  1  0  0  0
 15 14  1  0  0  0  0
 17 16  2  0  0  0  0
 18 16  1  0  0  0  0
 19 18  1  0  0  0  0
 20 21  1  0  0  0  0
 22 23  1  0  0  0  0
 23 26  2  0  0  0  0
 23 25  1  0  0  0  0
 24 22  1  0  0  0  0
 28 27  1  0  0  0  0
 29 30  1  0  0  0  0
 29  6  1  0  0  0  0
 32 33  1  0  0  0  0
 32 31  1  0  0  0  0
 33 34  2  0  0  0  0
 35 37  2  0  0  0  0
 35 33  1  0  0  0  0
 36 34  1  0  0  0  0
 36 38  1  0  0  0  0
 37 36  1  0  0  0  0
 39 41  1  0  0  0  0
 39 38  1  0  0  0  0
 40 39  2  0  0  0  0
 42 44  2  0  0  0  0
 42 40  1  0  0  0  0
 43 45  1  0  0  0  0
 43 41  2  0  0  0  0
 44 43  1  0  0  0  0
 46 44  1  0  0  0  0
 46 47  1  0  0  0  0
 47 45  1  0  0  0  0
 48 49  1  0  0  0  0
 50 49  1  0  0  0  0
 50 51  1  0  0  0  0
 51 52  1  0  0  0  0
 52 53  1  0  0  0  0
M  END
>  <REMARK>
 VINA RESULT:    -4.724      3.929      6.704
 INTER + INTRA:         -14.455
 INTER:                  -8.251
 INTRA:                  -6.204
 UNBOUND:                -6.003
 SMILES CC(=O)N[C@@H]1[C@@H](O)C[C@](O)(C(=O)O)O[C@H]1C(O)[C@H](O)CNC(=O)OCc1cn(Cc2ccc3c(c2)OCO3)nn1
 SMILES IDX 21 1 22 2 23 3 20 5 18 6 16 7 15 8 9 9 8 10 14 11 6 12 5 13
 SMILES IDX 10 14 11 16 12 17 13 18 7 20 4 22 2 23 1 25 3 26 17 27 19 29
 SMILES IDX 24 31 25 32 26 33 27 34 40 35 28 36 39 37 29 38 30 39 31 40
 SMILES IDX 35 41 32 42 34 43 33 44 36 45 38 46 37 47
 H PARENT 21 4 10 15 13 19 7 21 4 24 17 28 19 30
 Flexibility Score: inf
  4 active torsions:
  status: ('A' for Active; 'I' for Inactive)
    1  A    between atoms: CA   and  CB  
    2  A    between atoms: CB   and  CG  
    3  A    between atoms: CG   and  CD  
    4  A    between atoms: CD   and  CE  

>  <TORSDO>
F 16

>  <BEGIN_>
RES LYS A 131

$$$$
ligand_28_pose_18_2HRL.pdbqt
 OpenBabel07062320523D

  6  5  0  0  0  0  0  0  0  0999 V2000
   33.1930   34.6630    9.2900 C   0  0  0  0  0  0  0  0  0  0  0  0
   32.0600   35.3600   10.0340 C   0  0  0  0  0  0  0  0  0  0  0  0
   32.1000   35.1500   11.5260 C   0  0  0  0  0  0  0  0  0  0  0  0
   32.5620   36.4140   12.2340 C   0  0  0  0  0  0  0  0  0  0  0  0
   31.6400   36.7430   13.3920 C   0  0  0  0  0  0  0  0  0  0  0  0
   30.3150   36.0840   13.2270 N   0  0  0  0  0  0  0  0  0  0  0  0
  1  2  1  0  0  0  0
  2  3  1  0  0  0  0
  3  4  1  0  0  0  0
  4  5  1  0  0  0  0
  6  5  1  0  0  0  0
M  END
>  <EGIN_R>
ES LYS A 135

>  <REMARK>
  4 active torsions:
  status: ('A' for Active; 'I' for Inactive)
    5  A    between atoms: CA   and  CB  
    6  A    between atoms: CB   and  CG  
    7  A    between atoms: CG   and  CD  
    8  A    between atoms: CD   and  CE  

$$$$
