ligand_28_pose_0_2HRL.pdbqt
 OpenBabel07062320523D

 53 55  0  0  1  0  0  0  0  0999 V2000
   26.3240   36.4090   11.2040 N   0  0  0  0  0  0  0  0  0  0  0  0
   26.4870   35.1820   11.9060 C   0  0  0  0  0  0  0  0  0  0  0  0
   25.4840   34.4120   12.0650 O   0  0  0  0  0  0  0  0  0  0  0  0
   27.1530   37.0110   11.0910 H   0  0  0  0  0  0  0  0  0  0  0  0
   25.0090   36.7150   10.7020 C   0  0  0  0  0  0  0  0  0  0  0  0
   24.8030   36.3110    9.2760 C   0  0  2  0  0  0  0  0  0  0  0  0
   25.4740   37.2500    8.3000 C   0  0  2  0  0  0  0  0  0  0  0  0
   26.4920   36.5000    7.4460 C   0  0  2  0  0  0  0  0  0  0  0  0
   28.3840   35.5700    8.4160 C   0  0  2  0  0  0  0  0  0  0  0  0
   29.2670   35.8750    7.2280 C   0  0  0  0  0  0  0  0  0  0  0  0
   27.0580   35.4530    8.1110 O   0  0  0  0  0  0  0  0  0  0  0  0
   28.5120   36.5870    6.1240 C   0  0  1  0  0  0  0  0  0  0  0  0
   27.4660   37.4460    6.7950 C   0  0  1  0  0  0  0  0  0  0  0  0
   28.5910   36.5140    9.4400 O   0  0  0  0  0  0  0  0  0  0  0  0
   28.1080   37.3460    9.2840 H   0  0  0  0  0  0  0  0  0  0  0  0
   28.8440   34.2650    8.9650 C   0  0  0  0  0  0  0  0  0  0  0  0
   30.0580   33.9150    8.8530 O   0  0  0  0  0  0  0  0  0  0  0  0
   28.0080   33.3710    9.6130 O   0  0  0  0  0  0  0  0  0  0  0  0
   27.9150   32.4320    9.2130 H   0  0  0  0  0  0  0  0  0  0  0  0
   29.3670   37.3220    5.3100 O   0  0  0  0  0  0  0  0  0  0  0  0
   29.5620   36.7730    4.5120 H   0  0  0  0  0  0  0  0  0  0  0  0
   26.7900   38.3280    5.9120 N   0  0  0  0  0  0  0  0  0  0  0  0
   26.8360   39.7380    6.0590 C   0  0  0  0  0  0  0  0  0  0  0  0
   26.2350   37.8890    5.1190 H   0  0  0  0  0  0  0  0  0  0  0  0
   26.1110   40.6410    5.1080 C   0  0  0  0  0  0  0  0  0  0  0  0
   27.5130   40.1820    7.0210 O   0  0  0  0  0  0  0  0  0  0  0  0
   26.1830   38.1940    9.0410 O   0  0  0  0  0  0  0  0  0  0  0  0
   26.5340   38.8970    8.4400 H   0  0  0  0  0  0  0  0  0  0  0  0
   23.4290   36.2840    9.0380 O   0  0  0  0  0  0  0  0  0  0  0  0
   23.1700   35.5520    8.4280 H   0  0  0  0  0  0  0  0  0  0  0  0
   27.7060   34.7760   12.4370 O   0  0  0  0  0  0  0  0  0  0  0  0
   28.6650   35.7730   12.7740 C   0  0  0  0  0  0  0  0  0  0  0  0
   29.6120   35.2600   13.7900 C   0  0  0  0  0  0  0  0  0  0  0  0
   30.0010   33.9560   13.9040 C   0  0  0  0  0  0  0  0  0  0  0  0
   30.2440   35.9270   14.7540 N   0  0  0  0  0  0  0  0  0  0  0  0
   30.8560   33.8710   14.9330 N   0  0  0  0  0  0  0  0  0  0  0  0
   30.9950   35.0740   15.4390 N   0  0  0  0  0  0  0  0  0  0  0  0
   31.5000   32.6570   15.3860 C   0  0  0  0  0  0  0  0  0  0  0  0
   30.5290   31.9550   16.2710 C   0  0  0  0  0  0  0  0  0  0  0  0
   30.5820   32.1880   17.6260 C   0  0  0  0  0  0  0  0  0  0  0  0
   29.5890   31.0850   15.7790 C   0  0  0  0  0  0  0  0  0  0  0  0
   29.6860   31.5430   18.4720 C   0  0  0  0  0  0  0  0  0  0  0  0
   28.7010   30.4460   16.6210 C   0  0  0  0  0  0  0  0  0  0  0  0
   28.7420   30.6690   17.9710 C   0  0  0  0  0  0  0  0  0  0  0  0
   27.6890   29.5460   16.3490 O   0  0  0  0  0  0  0  0  0  0  0  0
   27.7620   29.9200   18.5870 O   0  0  0  0  0  0  0  0  0  0  0  0
   26.9570   29.3860   17.5440 C   0  0  0  0  0  0  0  0  0  0  0  0
   29.8670   25.5550   16.9770 C   0  0  0  0  0  0  0  0  0  0  0  0
   28.3450   25.7220   17.0260 C   0  0  0  0  0  0  0  0  0  0  0  0
   27.6020   24.3980   16.9290 C   0  0  0  0  0  0  0  0  0  0  0  0
   26.1390   24.5460   17.2440 C   0  0  0  0  0  0  0  0  0  0  0  0
   25.5820   23.2050   17.7140 C   0  0  0  0  0  0  0  0  0  0  0  0
   25.5290   23.1550   19.1940 N   0  0  0  0  0  0  0  0  0  0  0  0
  1  2  1  0  0  0  0
  2  3  2  0  0  0  0
  2 31  1  0  0  0  0
  4  1  1  0  0  0  0
  5  1  1  0  0  0  0
  6  5  1  1  0  0  0
  7 27  1  1  0  0  0
  7  6  1  0  0  0  0
  8 11  1  0  0  0  0
  8  7  1  1  0  0  0
  9 16  1  1  0  0  0
  9 14  1  0  0  0  0
 10  9  1  0  0  0  0
 11  9  1  0  0  0  0
 12 20  1  1  0  0  0
 12 13  1  0  0  0  0
 12 10  1  0  0  0  0
 13 22  1  6  0  0  0
 13  8  1  0  0  0  0
 15 14  1  0  0  0  0
 16 18  1  0  0  0  0
 17 16  2  0  0  0  0
 19 18  1  0  0  0  0
 21 20  1  0  0  0  0
 22 23  1  0  0  0  0
 23 26  2  0  0  0  0
 24 22  1  0  0  0  0
 25 23  1  0  0  0  0
 28 27  1  0  0  0  0
 29  6  1  0  0  0  0
 30 29  1  0  0  0  0
 31 32  1  0  0  0  0
 32 33  1  0  0  0  0
 33 34  2  0  0  0  0
 33 35  1  0  0  0  0
 34 36  1  0  0  0  0
 35 37  2  0  0  0  0
 36 38  1  0  0  0  0
 36 37  1  0  0  0  0
 38 39  1  0  0  0  0
 39 40  1  0  0  0  0
 40 42  2  0  0  0  0
 41 39  2  0  0  0  0
 41 43  1  0  0  0  0
 43 44  2  0  0  0  0
 44 42  1  0  0  0  0
 44 46  1  0  0  0  0
 45 43  1  0  0  0  0
 45 47  1  0  0  0  0
 47 46  1  0  0  0  0
 48 49  1  0  0  0  0
 50 49  1  0  0  0  0
 50 51  1  0  0  0  0
 51 52  1  0  0  0  0
 52 53  1  0  0  0  0
M  END
>  <REMARK>
 VINA RESULT:    -5.511      0.000      0.000
 INTER + INTRA:         -15.863
 INTER:                 -10.979
 INTRA:                  -4.884
 UNBOUND:                -6.003
 SMILES CC(=O)N[C@@H]1[C@@H](O)C[C@](O)(C(=O)O)O[C@H]1C(O)[C@H](O)CNC(=O)OCc1cn(Cc2ccc3c(c2)OCO3)nn1
 SMILES IDX 21 1 22 2 23 3 20 5 18 6 16 7 15 8 9 9 8 10 14 11 6 12 5 13
 SMILES IDX 10 14 11 16 12 17 13 18 7 20 4 22 2 23 1 25 3 26 17 27 19 29
 SMILES IDX 24 31 25 32 26 33 27 34 40 35 28 36 39 37 29 38 30 39 31 40
 SMILES IDX 35 41 32 42 34 43 33 44 36 45 38 46 37 47
 H PARENT 21 4 10 15 13 19 7 21 4 24 17 28 19 30
 Flexibility Score: inf
  4 active torsions:
  status: ('A' for Active; 'I' for Inactive)
    1  A    between atoms: CA   and  CB  
    2  A    between atoms: CB   and  CG  
    3  A    between atoms: CG   and  CD  
    4  A    between atoms: CD   and  CE  

>  <TORSDO>
F 16

>  <BEGIN_>
RES LYS A 131

$$$$
ligand_28_pose_0_2HRL.pdbqt
 OpenBabel07062320523D

  6  5  0  0  0  0  0  0  0  0999 V2000
   33.1930   34.6630    9.2900 C   0  0  0  0  0  0  0  0  0  0  0  0
   32.0600   35.3600   10.0340 C   0  0  0  0  0  0  0  0  0  0  0  0
   32.4830   35.9600   11.3500 C   0  0  0  0  0  0  0  0  0  0  0  0
   31.7780   37.2870   11.5860 C   0  0  0  0  0  0  0  0  0  0  0  0
   31.8610   38.1610   10.3500 C   0  0  0  0  0  0  0  0  0  0  0  0
   31.5210   39.5750   10.6690 N   0  0  0  0  0  0  0  0  0  0  0  0
  1  2  1  0  0  0  0
  2  3  1  0  0  0  0
  3  4  1  0  0  0  0
  5  6  1  0  0  0  0
  5  4  1  0  0  0  0
M  END
>  <EGIN_R>
ES LYS A 135

>  <REMARK>
  4 active torsions:
  status: ('A' for Active; 'I' for Inactive)
    5  A    between atoms: CA   and  CB  
    6  A    between atoms: CB   and  CG  
    7  A    between atoms: CG   and  CD  
    8  A    between atoms: CD   and  CE  

$$$$
