ligand_68_pose_17_2HRL.pdbqt
 OpenBabel07062320523D

 53 54  0  0  1  0  0  0  0  0999 V2000
   25.7490   27.4370   23.4110 N   0  0  0  0  0  0  0  0  0  0  0  0
   25.7890   26.3380   22.5180 C   0  0  0  0  0  0  0  0  0  0  0  0
   26.2200   25.2390   22.9330 O   0  0  0  0  0  0  0  0  0  0  0  0
   25.3660   28.3350   22.9790 H   0  0  0  0  0  0  0  0  0  0  0  0
   26.1770   27.3980   24.7910 C   0  0  0  0  0  0  0  0  0  0  0  0
   27.2610   28.4140   25.0820 C   0  0  2  0  0  0  0  0  0  0  0  0
   28.3180   28.3910   23.9770 C   0  0  2  0  0  0  0  0  0  0  0  0
   29.7320   28.3410   24.4890 C   0  0  2  0  0  0  0  0  0  0  0  0
   30.7260   28.0950   22.3840 C   0  0  2  0  0  0  0  0  0  0  0  0
   30.3640   26.6650   22.4230 C   0  0  0  0  0  0  0  0  0  0  0  0
   30.5660   28.8540   23.4930 O   0  0  0  0  0  0  0  0  0  0  0  0
   30.2460   26.0190   23.7680 C   0  0  1  0  0  0  0  0  0  0  0  0
   30.1370   26.9950   24.9150 C   0  0  1  0  0  0  0  0  0  0  0  0
   29.8890   28.6860   21.3900 O   0  0  0  0  0  0  0  0  0  0  0  0
   29.0110   28.2630   21.5090 H   0  0  0  0  0  0  0  0  0  0  0  0
   32.1160   28.2210   21.8050 C   0  0  0  0  0  0  0  0  0  0  0  0
   33.1230   28.4200   22.5250 O   0  0  0  0  0  0  0  0  0  0  0  0
   32.3030   28.1150   20.4300 O   0  0  0  0  0  0  0  0  0  0  0  0
   32.1240   28.8680   19.7840 H   0  0  0  0  0  0  0  0  0  0  0  0
   29.1330   25.1320   23.7710 O   0  0  0  0  0  0  0  0  0  0  0  0
   29.4760   24.2590   24.0410 H   0  0  0  0  0  0  0  0  0  0  0  0
   31.4200   26.9490   25.5980 N   0  0  0  0  0  0  0  0  0  0  0  0
   31.6790   26.1620   26.7460 C   0  0  0  0  0  0  0  0  0  0  0  0
   32.1670   27.5480   25.1840 H   0  0  0  0  0  0  0  0  0  0  0  0
   33.0010   26.1380   27.4190 C   0  0  0  0  0  0  0  0  0  0  0  0
   30.7140   25.4740   27.1690 O   0  0  0  0  0  0  0  0  0  0  0  0
   28.1580   29.7090   23.3990 O   0  0  0  0  0  0  0  0  0  0  0  0
   28.9870   30.2100   23.4380 H   0  0  0  0  0  0  0  0  0  0  0  0
   27.7780   28.1690   26.3330 O   0  0  0  0  0  0  0  0  0  0  0  0
   28.5710   28.7430   26.4500 H   0  0  0  0  0  0  0  0  0  0  0  0
   25.3710   26.4210   21.1980 O   0  0  0  0  0  0  0  0  0  0  0  0
   26.2730   26.3890   20.1100 C   0  0  0  0  0  0  0  0  0  0  0  0
   26.8240   27.7450   19.9090 C   0  0  0  0  0  0  0  0  0  0  0  0
   27.4130   28.2300   18.7530 C   0  0  0  0  0  0  0  0  0  0  0  0
   26.8770   28.7840   20.7750 N   0  0  0  0  0  0  0  0  0  0  0  0
   27.7940   29.5060   18.9440 N   0  0  0  0  0  0  0  0  0  0  0  0
   27.4570   29.8110   20.1730 N   0  0  0  0  0  0  0  0  0  0  0  0
   28.4530   30.3540   17.9420 C   0  0  0  0  0  0  0  0  0  0  0  0
   29.5990   31.0840   18.6000 C   0  0  1  0  0  0  0  0  0  0  0  0
   30.4780   30.0980   19.1030 O   0  0  0  0  0  0  0  0  0  0  0  0
   31.4060   30.3140   18.8120 H   0  0  0  0  0  0  0  0  0  0  0  0
   30.3360   31.8710   17.5910 C   0  0  0  0  0  0  0  0  0  0  0  0
   30.4850   31.4530   16.2850 C   0  0  0  0  0  0  0  0  0  0  0  0
   30.9070   33.0920   17.9730 C   0  0  0  0  0  0  0  0  0  0  0  0
   31.1740   32.2000   15.3620 C   0  0  0  0  0  0  0  0  0  0  0  0
   31.5920   33.8370   17.0560 C   0  0  0  0  0  0  0  0  0  0  0  0
   31.7250   33.3950   15.7600 C   0  0  0  0  0  0  0  0  0  0  0  0
   29.8670   25.5550   16.9770 C   0  0  0  0  0  0  0  0  0  0  0  0
   28.3450   25.7220   17.0260 C   0  0  0  0  0  0  0  0  0  0  0  0
   27.5990   24.4810   16.5590 C   0  0  0  0  0  0  0  0  0  0  0  0
   27.0120   23.7080   17.7070 C   0  0  0  0  0  0  0  0  0  0  0  0
   25.4920   23.6830   17.5810 C   0  0  0  0  0  0  0  0  0  0  0  0
   24.9880   22.2920   17.6500 N   0  0  0  0  0  0  0  0  0  0  0  0
  1  5  1  0  0  0  0
  2  3  2  0  0  0  0
  2  1  1  0  0  0  0
  4  1  1  0  0  0  0
  6  5  1  6  0  0  0
  6 29  1  0  0  0  0
  7 27  1  1  0  0  0
  7  6  1  0  0  0  0
  8  7  1  6  0  0  0
  8 13  1  0  0  0  0
  9 14  1  6  0  0  0
  9 10  1  0  0  0  0
  9 11  1  0  0  0  0
 10 12  1  0  0  0  0
 11  8  1  0  0  0  0
 12 20  1  6  0  0  0
 12 13  1  0  0  0  0
 13 22  1  6  0  0  0
 14 15  1  0  0  0  0
 16  9  1  0  0  0  0
 16 17  2  0  0  0  0
 18 16  1  0  0  0  0
 19 18  1  0  0  0  0
 20 21  1  0  0  0  0
 22 23  1  0  0  0  0
 23 26  2  0  0  0  0
 23 25  1  0  0  0  0
 24 22  1  0  0  0  0
 27 28  1  0  0  0  0
 29 30  1  0  0  0  0
 31  2  1  0  0  0  0
 32 31  1  0  0  0  0
 33 32  1  0  0  0  0
 33 35  1  0  0  0  0
 34 36  1  0  0  0  0
 34 33  2  0  0  0  0
 36 37  1  0  0  0  0
 37 35  2  0  0  0  0
 38 36  1  0  0  0  0
 39 38  1  6  0  0  0
 39 40  1  0  0  0  0
 41 40  1  0  0  0  0
 42 44  1  0  0  0  0
 42 39  1  0  0  0  0
 43 42  2  0  0  0  0
 45 47  2  0  0  0  0
 45 43  1  0  0  0  0
 46 44  2  0  0  0  0
 47 46  1  0  0  0  0
 48 49  1  0  0  0  0
 50 49  1  0  0  0  0
 50 51  1  0  0  0  0
 52 53  1  0  0  0  0
 52 51  1  0  0  0  0
M  END
>  <REMARK>
 VINA RESULT:    -5.118      2.027      3.026
 INTER + INTRA:         -14.617
 INTER:                  -8.008
 INTRA:                  -6.609
 UNBOUND:                -5.012
 SMILES CC(=O)N[C@@H]1[C@@H](O)C[C@](O)(C(=O)O)O[C@H]1C(O)[C@H](O)CNC(=O)OCc1cn(CC(O)c2ccccc2)nn1
 SMILES IDX 21 1 22 2 23 3 20 5 18 6 16 7 15 8 9 9 8 10 14 11 6 12 5 13
 SMILES IDX 10 14 11 16 12 17 13 18 7 20 4 22 2 23 1 25 3 26 17 27 19 29
 SMILES IDX 24 31 25 32 26 33 27 34 39 35 28 36 38 37 29 38 30 39 31 40
 SMILES IDX 32 42 33 43 37 44 34 45 36 46 35 47
 H PARENT 21 4 10 15 13 19 7 21 4 24 17 28 19 30 31 41
 Flexibility Score: inf
  4 active torsions:
  status: ('A' for Active; 'I' for Inactive)
    1  A    between atoms: CA   and  CB  
    2  A    between atoms: CB   and  CG  
    3  A    between atoms: CG   and  CD  
    4  A    between atoms: CD   and  CE  

>  <TORSDO>
F 18

>  <BEGIN_>
RES LYS A 131

$$$$
ligand_68_pose_17_2HRL.pdbqt
 OpenBabel07062320523D

  6  5  0  0  0  0  0  0  0  0999 V2000
   33.1930   34.6630    9.2900 C   0  0  0  0  0  0  0  0  0  0  0  0
   32.0600   35.3600   10.0340 C   0  0  0  0  0  0  0  0  0  0  0  0
   30.7160   34.7100    9.8300 C   0  0  0  0  0  0  0  0  0  0  0  0
   30.1720   35.0250    8.4450 C   0  0  0  0  0  0  0  0  0  0  0  0
   28.6610   34.8950    8.4240 C   0  0  0  0  0  0  0  0  0  0  0  0
   28.1070   35.2920    7.1000 N   0  0  0  0  0  0  0  0  0  0  0  0
  1  2  1  0  0  0  0
  3  2  1  0  0  0  0
  4  3  1  0  0  0  0
  5  4  1  0  0  0  0
  6  5  1  0  0  0  0
M  END
>  <EGIN_R>
ES LYS A 135

>  <REMARK>
  4 active torsions:
  status: ('A' for Active; 'I' for Inactive)
    5  A    between atoms: CA   and  CB  
    6  A    between atoms: CB   and  CG  
    7  A    between atoms: CG   and  CD  
    8  A    between atoms: CD   and  CE  

$$$$
