ligand_57_pose_5_2HRL.pdbqt
 OpenBabel07062320523D

 50 51  0  0  1  0  0  0  0  0999 V2000
   25.7450   37.4630   11.1340 C   0  0  0  0  0  0  0  0  0  0  0  0
   26.8770   37.3770   10.1650 C   0  0  2  0  0  0  0  0  0  0  0  0
   27.6390   38.6800   10.0440 C   0  0  2  0  0  0  0  0  0  0  0  0
   29.1250   38.4110   10.1490 C   0  0  2  0  0  0  0  0  0  0  0  0
   31.0600   38.9420   11.3440 C   0  0  2  0  0  0  0  0  0  0  0  0
   31.8330   39.0990   10.0700 C   0  0  0  0  0  0  0  0  0  0  0  0
   29.7020   38.9980   11.2300 O   0  0  0  0  0  0  0  0  0  0  0  0
   31.2230   38.2980    8.9520 C   0  0  1  0  0  0  0  0  0  0  0  0
   29.7660   38.7390    8.8370 C   0  0  1  0  0  0  0  0  0  0  0  0
   31.5330   39.9300   12.2530 O   0  0  0  0  0  0  0  0  0  0  0  0
   32.3130   39.5980   12.7630 H   0  0  0  0  0  0  0  0  0  0  0  0
   31.4010   37.6220   11.9340 C   0  0  0  0  0  0  0  0  0  0  0  0
   32.5180   37.1000   11.6930 O   0  0  0  0  0  0  0  0  0  0  0  0
   30.5580   36.8920   12.7580 O   0  0  0  0  0  0  0  0  0  0  0  0
   30.8670   36.4890   13.6420 H   0  0  0  0  0  0  0  0  0  0  0  0
   31.8730   38.5300    7.7370 O   0  0  0  0  0  0  0  0  0  0  0  0
   31.2680   38.4550    6.9660 H   0  0  0  0  0  0  0  0  0  0  0  0
   29.2030   37.8880    7.7800 N   0  0  0  0  0  0  0  0  0  0  0  0
   28.9640   38.3690    6.4780 C   0  0  0  0  0  0  0  0  0  0  0  0
   28.9920   36.9160    8.0380 H   0  0  0  0  0  0  0  0  0  0  0  0
   28.3870   37.4830    5.4060 C   0  0  0  0  0  0  0  0  0  0  0  0
   29.2430   39.5680    6.2210 O   0  0  0  0  0  0  0  0  0  0  0  0
   27.1860   39.5490   11.0090 O   0  0  0  0  0  0  0  0  0  0  0  0
   26.2160   39.4260   11.1680 H   0  0  0  0  0  0  0  0  0  0  0  0
   26.3400   37.0790    8.8910 O   0  0  0  0  0  0  0  0  0  0  0  0
   26.3670   37.8780    8.3010 H   0  0  0  0  0  0  0  0  0  0  0  0
   26.2270   37.0830   12.4450 N   0  0  0  0  0  0  0  0  0  0  0  0
   26.0610   35.7950   13.0200 C   0  0  0  0  0  0  0  0  0  0  0  0
   26.7490   37.7700   13.0690 H   0  0  0  0  0  0  0  0  0  0  0  0
   25.4680   34.9160   12.3760 O   0  0  0  0  0  0  0  0  0  0  0  0
   26.5410   35.4780   14.2840 O   0  0  0  0  0  0  0  0  0  0  0  0
   27.0410   34.1860   14.5610 C   0  0  0  0  0  0  0  0  0  0  0  0
   28.5190   34.1510   14.4160 C   0  0  0  0  0  0  0  0  0  0  0  0
   29.4640   34.0060   15.3910 C   0  0  0  0  0  0  0  0  0  0  0  0
   29.2010   34.2630   13.2600 N   0  0  0  0  0  0  0  0  0  0  0  0
   30.6830   34.0310   14.8260 N   0  0  0  0  0  0  0  0  0  0  0  0
   30.4820   34.1900   13.5150 N   0  0  0  0  0  0  0  0  0  0  0  0
   31.9460   33.9080   15.5190 C   0  0  0  0  0  0  0  0  0  0  0  0
   31.8000   34.2020   16.9950 C   0  0  0  0  0  0  0  0  0  0  0  0
   33.0130   34.7390   14.8710 C   0  0  0  0  0  0  0  0  0  0  0  0
   31.8610   35.6800   17.2990 C   0  0  0  0  0  0  0  0  0  0  0  0
   32.9500   36.1930   15.2210 C   0  0  0  0  0  0  0  0  0  0  0  0
   32.9530   36.3380   16.6450 N   0  0  0  0  0  0  0  0  0  0  0  0
   34.2360   35.9670   17.1700 C   0  0  0  0  0  0  0  0  0  0  0  0
   29.8670   25.5550   16.9770 C   0  0  0  0  0  0  0  0  0  0  0  0
   28.3450   25.7220   17.0260 C   0  0  0  0  0  0  0  0  0  0  0  0
   27.6010   24.4020   16.8930 C   0  0  0  0  0  0  0  0  0  0  0  0
   26.2830   24.4190   17.6160 C   0  0  0  0  0  0  0  0  0  0  0  0
   26.2820   25.5440   18.6460 C   0  0  0  0  0  0  0  0  0  0  0  0
   25.5480   25.1300   19.8650 N   0  0  0  0  0  0  0  0  0  0  0  0
  1 27  1  0  0  0  0
  2  1  1  1  0  0  0
  3  2  1  0  0  0  0
  3 23  1  1  0  0  0
  4  3  1  6  0  0  0
  4  7  1  0  0  0  0
  5 12  1  1  0  0  0
  5 10  1  0  0  0  0
  6  5  1  0  0  0  0
  7  5  1  0  0  0  0
  8 16  1  6  0  0  0
  8  6  1  0  0  0  0
  9 18  1  6  0  0  0
  9  8  1  0  0  0  0
  9  4  1  0  0  0  0
 10 11  1  0  0  0  0
 12 14  1  0  0  0  0
 13 12  2  0  0  0  0
 14 15  1  0  0  0  0
 17 16  1  0  0  0  0
 18 20  1  0  0  0  0
 19 18  1  0  0  0  0
 21 19  1  0  0  0  0
 22 19  2  0  0  0  0
 23 24  1  0  0  0  0
 25  2  1  0  0  0  0
 26 25  1  0  0  0  0
 27 28  1  0  0  0  0
 27 29  1  0  0  0  0
 28 31  1  0  0  0  0
 30 28  2  0  0  0  0
 31 32  1  0  0  0  0
 33 32  1  0  0  0  0
 33 34  2  0  0  0  0
 35 37  2  0  0  0  0
 35 33  1  0  0  0  0
 36 34  1  0  0  0  0
 36 38  1  0  0  0  0
 37 36  1  0  0  0  0
 38 39  1  0  0  0  0
 39 41  1  0  0  0  0
 40 42  1  0  0  0  0
 40 38  1  0  0  0  0
 42 43  1  0  0  0  0
 43 44  1  0  0  0  0
 43 41  1  0  0  0  0
 45 46  1  0  0  0  0
 47 46  1  0  0  0  0
 47 48  1  0  0  0  0
 48 49  1  0  0  0  0
 49 50  1  0  0  0  0
M  END
>  <REMARK>
 VINA RESULT:    -4.563      6.053     11.520
 INTER + INTRA:         -13.683
 INTER:                  -7.970
 INTRA:                  -5.713
 UNBOUND:                -5.786
 SMILES CC(=O)N[C@@H]1[C@@H](O)C[C@](O)(C(=O)O)O[C@H]1C(O)[C@H](O)CNC(=O)OCc1cn(C2CCN(C)CC2)nn1
 SMILES IDX 20 1 18 2 16 3 15 4 9 5 8 6 14 7 6 8 5 9 10 10 11 12 12 13
 SMILES IDX 13 14 7 16 4 18 2 19 1 21 3 22 17 23 19 25 21 27 22 28 23 30
 SMILES IDX 24 31 25 32 26 33 27 34 37 35 28 36 36 37 29 38 30 39 35 40
 SMILES IDX 31 41 34 42 32 43 33 44
 H PARENT 10 11 13 15 7 17 4 20 17 24 19 26 21 29
 Flexibility Score: inf
  4 active torsions:
  status: ('A' for Active; 'I' for Inactive)
    1  A    between atoms: CA   and  CB  
    2  A    between atoms: CB   and  CG  
    3  A    between atoms: CG   and  CD  
    4  A    between atoms: CD   and  CE  

>  <TORSDO>
F 15

>  <BEGIN_>
RES LYS A 131

$$$$
ligand_57_pose_5_2HRL.pdbqt
 OpenBabel07062320523D

  6  5  0  0  0  0  0  0  0  0999 V2000
   33.1930   34.6630    9.2900 C   0  0  0  0  0  0  0  0  0  0  0  0
   32.0600   35.3600   10.0340 C   0  0  0  0  0  0  0  0  0  0  0  0
   30.7340   34.6540    9.9110 C   0  0  0  0  0  0  0  0  0  0  0  0
   30.3300   34.5220    8.4510 C   0  0  0  0  0  0  0  0  0  0  0  0
   28.8190   34.5140    8.3150 C   0  0  0  0  0  0  0  0  0  0  0  0
   28.1810   33.8250    9.4710 N   0  0  0  0  0  0  0  0  0  0  0  0
  1  2  1  0  0  0  0
  3  2  1  0  0  0  0
  4  3  1  0  0  0  0
  5  4  1  0  0  0  0
  5  6  1  0  0  0  0
M  END
>  <EGIN_R>
ES LYS A 135

>  <REMARK>
  4 active torsions:
  status: ('A' for Active; 'I' for Inactive)
    5  A    between atoms: CA   and  CB  
    6  A    between atoms: CB   and  CG  
    7  A    between atoms: CG   and  CD  
    8  A    between atoms: CD   and  CE  

$$$$
