ligand_56_pose_10_2HRL.pdbqt
 OpenBabel07062320523D

 49 50  0  0  1  0  0  0  0  0999 V2000
   30.4020   33.1460   18.6660 C   0  0  0  0  0  0  0  0  0  0  0  0
   30.6040   31.7150   19.0210 C   0  0  2  0  0  0  0  0  0  0  0  0
   29.3400   30.8880   18.8580 C   0  0  2  0  0  0  0  0  0  0  0  0
   29.1150   29.9200   19.9640 C   0  0  2  0  0  0  0  0  0  0  0  0
   29.4550   27.7490   20.6660 C   0  0  2  0  0  0  0  0  0  0  0  0
   28.6250   28.1730   21.8520 C   0  0  0  0  0  0  0  0  0  0  0  0
   29.8860   28.7930   19.8940 O   0  0  0  0  0  0  0  0  0  0  0  0
   27.4340   29.0040   21.4610 C   0  0  1  0  0  0  0  0  0  0  0  0
   27.6610   29.4850   20.0410 C   0  0  1  0  0  0  0  0  0  0  0  0
   28.8100   26.7770   19.9010 O   0  0  0  0  0  0  0  0  0  0  0  0
   28.9130   25.8690   20.2930 H   0  0  0  0  0  0  0  0  0  0  0  0
   30.6830   27.0840   21.2300 C   0  0  0  0  0  0  0  0  0  0  0  0
   30.7450   26.6310   22.3820 O   0  0  0  0  0  0  0  0  0  0  0  0
   31.7740   27.0030   20.3680 O   0  0  0  0  0  0  0  0  0  0  0  0
   32.5720   27.6220   20.4910 H   0  0  0  0  0  0  0  0  0  0  0  0
   26.2440   28.2830   21.5430 O   0  0  0  0  0  0  0  0  0  0  0  0
   26.2960   27.4920   20.9540 H   0  0  0  0  0  0  0  0  0  0  0  0
   26.7540   30.5510   19.6850 N   0  0  0  0  0  0  0  0  0  0  0  0
   25.5830   30.2880   18.9230 C   0  0  0  0  0  0  0  0  0  0  0  0
   26.9290   31.5310   19.9710 H   0  0  0  0  0  0  0  0  0  0  0  0
   24.6220   31.3690   18.5370 C   0  0  0  0  0  0  0  0  0  0  0  0
   25.3470   29.1070   18.5630 O   0  0  0  0  0  0  0  0  0  0  0  0
   29.2310   30.3910   17.5850 O   0  0  0  0  0  0  0  0  0  0  0  0
   30.1270   30.0860   17.2770 H   0  0  0  0  0  0  0  0  0  0  0  0
   31.0070   31.5320   20.3310 O   0  0  0  0  0  0  0  0  0  0  0  0
   30.3380   31.0830   20.8950 H   0  0  0  0  0  0  0  0  0  0  0  0
   29.1980   33.3310   17.9070 N   0  0  0  0  0  0  0  0  0  0  0  0
   28.2520   34.3560   18.0260 C   0  0  0  0  0  0  0  0  0  0  0  0
   28.9770   32.6000   17.1460 H   0  0  0  0  0  0  0  0  0  0  0  0
   28.3840   35.2470   18.8650 O   0  0  0  0  0  0  0  0  0  0  0  0
   27.1080   34.4300   17.2080 O   0  0  0  0  0  0  0  0  0  0  0  0
   27.2180   34.0880   15.8210 C   0  0  0  0  0  0  0  0  0  0  0  0
   26.7130   32.7360   15.5680 C   0  0  0  0  0  0  0  0  0  0  0  0
   25.5210   32.3360   15.0080 C   0  0  0  0  0  0  0  0  0  0  0  0
   27.3790   31.5990   15.8620 N   0  0  0  0  0  0  0  0  0  0  0  0
   25.5240   30.9830   14.9910 N   0  0  0  0  0  0  0  0  0  0  0  0
   26.6460   30.5500   15.5070 N   0  0  0  0  0  0  0  0  0  0  0  0
   24.4860   30.1350   14.4950 C   0  0  0  0  0  0  0  0  0  0  0  0
   24.2260   30.1300   13.1460 C   0  0  0  0  0  0  0  0  0  0  0  0
   23.7570   29.3340   15.3660 C   0  0  0  0  0  0  0  0  0  0  0  0
   23.2210   29.3060   12.6850 C   0  0  0  0  0  0  0  0  0  0  0  0
   22.7730   28.5350   14.8610 C   0  0  0  0  0  0  0  0  0  0  0  0
   22.5260   28.5380   13.5340 N   0  0  0  0  0  0  0  0  0  0  0  0
   29.8670   25.5550   16.9770 C   0  0  0  0  0  0  0  0  0  0  0  0
   28.3450   25.7220   17.0260 C   0  0  0  0  0  0  0  0  0  0  0  0
   27.6000   24.4180   16.7870 C   0  0  0  0  0  0  0  0  0  0  0  0
   26.9210   23.9170   18.0320 C   0  0  0  0  0  0  0  0  0  0  0  0
   25.5440   24.5610   18.1560 C   0  0  0  0  0  0  0  0  0  0  0  0
   24.7760   24.3880   16.9000 N   0  0  0  0  0  0  0  0  0  0  0  0
  2  1  1  1  0  0  0
  2 25  1  0  0  0  0
  3 23  1  6  0  0  0
  3  2  1  0  0  0  0
  4  3  1  6  0  0  0
  4  9  1  0  0  0  0
  5 10  1  6  0  0  0
  5 12  1  0  0  0  0
  5  6  1  0  0  0  0
  7  4  1  0  0  0  0
  7  5  1  0  0  0  0
  8 16  1  6  0  0  0
  8  6  1  0  0  0  0
  9 18  1  1  0  0  0
  9  8  1  0  0  0  0
 10 11  1  0  0  0  0
 12 13  2  0  0  0  0
 14 15  1  0  0  0  0
 14 12  1  0  0  0  0
 17 16  1  0  0  0  0
 18 20  1  0  0  0  0
 19 18  1  0  0  0  0
 21 19  1  0  0  0  0
 22 19  2  0  0  0  0
 24 23  1  0  0  0  0
 25 26  1  0  0  0  0
 27 28  1  0  0  0  0
 27  1  1  0  0  0  0
 28 30  2  0  0  0  0
 29 27  1  0  0  0  0
 31 28  1  0  0  0  0
 32 31  1  0  0  0  0
 33 32  1  0  0  0  0
 33 35  1  0  0  0  0
 34 33  2  0  0  0  0
 36 34  1  0  0  0  0
 36 37  1  0  0  0  0
 37 35  2  0  0  0  0
 38 36  1  0  0  0  0
 38 40  2  0  0  0  0
 39 38  1  0  0  0  0
 41 39  2  0  0  0  0
 41 43  1  0  0  0  0
 42 40  1  0  0  0  0
 43 42  2  0  0  0  0
 44 45  1  0  0  0  0
 46 45  1  0  0  0  0
 46 47  1  0  0  0  0
 47 48  1  0  0  0  0
 49 48  1  0  0  0  0
M  END
>  <REMARK>
 VINA RESULT:    -4.913      3.189      6.031
 INTER + INTRA:         -13.775
 INTER:                  -7.509
 INTRA:                  -6.266
 UNBOUND:                -5.272
 SMILES CC(=O)N[C@@H]1[C@@H](O)C[C@](O)(C(=O)O)O[C@H]1C(O)[C@H](O)CNC(=O)OCc1cn(-c2ccncc2)nn1
 SMILES IDX 20 1 18 2 16 3 15 4 9 5 8 6 14 7 6 8 5 9 10 10 11 12 12 13
 SMILES IDX 13 14 7 16 4 18 2 19 1 21 3 22 17 23 19 25 21 27 22 28 23 30
 SMILES IDX 24 31 25 32 26 33 27 34 36 35 28 36 35 37 29 38 30 39 34 40
 SMILES IDX 31 41 33 42 32 43
 H PARENT 10 11 13 15 7 17 4 20 17 24 19 26 21 29
 Flexibility Score: inf
  4 active torsions:
  status: ('A' for Active; 'I' for Inactive)
    1  A    between atoms: CA   and  CB  
    2  A    between atoms: CB   and  CG  
    3  A    between atoms: CG   and  CD  
    4  A    between atoms: CD   and  CE  

>  <TORSDO>
F 15

>  <BEGIN_>
RES LYS A 131

$$$$
ligand_56_pose_10_2HRL.pdbqt
 OpenBabel07062320523D

  6  5  0  0  0  0  0  0  0  0999 V2000
   33.1930   34.6630    9.2900 C   0  0  0  0  0  0  0  0  0  0  0  0
   32.0600   35.3600   10.0340 C   0  0  0  0  0  0  0  0  0  0  0  0
   30.7810   35.4450    9.2410 C   0  0  0  0  0  0  0  0  0  0  0  0
   30.0830   34.0940    9.2030 C   0  0  0  0  0  0  0  0  0  0  0  0
   28.6090   34.2650    8.8920 C   0  0  0  0  0  0  0  0  0  0  0  0
   28.3560   35.5460    8.1770 N   0  0  0  0  0  0  0  0  0  0  0  0
  1  2  1  0  0  0  0
  3  2  1  0  0  0  0
  4  3  1  0  0  0  0
  5  4  1  0  0  0  0
  6  5  1  0  0  0  0
M  END
>  <EGIN_R>
ES LYS A 135

>  <REMARK>
  4 active torsions:
  status: ('A' for Active; 'I' for Inactive)
    5  A    between atoms: CA   and  CB  
    6  A    between atoms: CB   and  CG  
    7  A    between atoms: CG   and  CD  
    8  A    between atoms: CD   and  CE  

$$$$
