ligand_34_pose_10_2HRL.pdbqt
 OpenBabel07062320523D

 69 73  0  0  1  0  0  0  0  0999 V2000
   20.9720   38.0790    9.3250 N   0  0  0  0  0  0  0  0  0  0  0  0
   20.1140   36.9740    8.9950 C   0  0  0  0  0  0  0  0  0  0  0  0
   19.8150   36.8310    7.7780 O   0  0  0  0  0  0  0  0  0  0  0  0
   21.2490   38.2440   10.3100 H   0  0  0  0  0  0  0  0  0  0  0  0
   21.4610   38.9750    8.3050 C   0  0  0  0  0  0  0  0  0  0  0  0
   22.8230   38.5370    7.8780 C   0  0  2  0  0  0  0  0  0  0  0  0
   23.6760   39.7100    7.3980 C   0  0  2  0  0  0  0  0  0  0  0  0
   25.0490   39.6670    8.0490 C   0  0  2  0  0  0  0  0  0  0  0  0
   26.5130   37.9570    7.4500 C   0  0  2  0  0  0  0  0  0  0  0  0
   27.2770   38.0720    8.7510 C   0  0  0  0  0  0  0  0  0  0  0  0
   25.9300   39.1590    7.1380 O   0  0  0  0  0  0  0  0  0  0  0  0
   26.3940   38.5520    9.8440 C   0  0  1  0  0  0  0  0  0  0  0  0
   25.0290   38.9910    9.3760 C   0  0  1  0  0  0  0  0  0  0  0  0
   25.6340   36.9110    7.5730 O   0  0  0  0  0  0  0  0  0  0  0  0
   24.7880   37.0320    7.1070 H   0  0  0  0  0  0  0  0  0  0  0  0
   27.5080   37.6480    6.3940 C   0  0  0  0  0  0  0  0  0  0  0  0
   28.6780   38.0940    6.4860 O   0  0  0  0  0  0  0  0  0  0  0  0
   27.2140   36.8760    5.2820 O   0  0  0  0  0  0  0  0  0  0  0  0
   26.5180   36.1150    5.3220 H   0  0  0  0  0  0  0  0  0  0  0  0
   26.2180   37.5900   10.8350 O   0  0  0  0  0  0  0  0  0  0  0  0
   27.0210   37.0500   11.0070 H   0  0  0  0  0  0  0  0  0  0  0  0
   24.5300   39.9150   10.4060 N   0  0  0  0  0  0  0  0  0  0  0  0
   23.6100   39.5440   11.4030 C   0  0  0  0  0  0  0  0  0  0  0  0
   24.8950   40.8940   10.3760 H   0  0  0  0  0  0  0  0  0  0  0  0
   23.1540   40.5320   12.4060 C   0  0  0  0  0  0  0  0  0  0  0  0
   23.2040   38.3350   11.3870 O   0  0  0  0  0  0  0  0  0  0  0  0
   22.9810   40.8650    7.7730 O   0  0  0  0  0  0  0  0  0  0  0  0
   23.4540   41.6280    7.3440 H   0  0  0  0  0  0  0  0  0  0  0  0
   22.7680   37.5370    6.9090 O   0  0  0  0  0  0  0  0  0  0  0  0
   22.6890   36.6350    7.3020 H   0  0  0  0  0  0  0  0  0  0  0  0
   19.6290   36.1010    9.9220 O   0  0  0  0  0  0  0  0  0  0  0  0
   20.2800   34.8840   10.2050 C   0  0  0  0  0  0  0  0  0  0  0  0
   21.1830   35.0830   11.3560 C   0  0  0  0  0  0  0  0  0  0  0  0
   22.5730   34.9450   11.3680 C   0  0  0  0  0  0  0  0  0  0  0  0
   20.8530   35.4230   12.6090 N   0  0  0  0  0  0  0  0  0  0  0  0
   23.0230   35.2040   12.6080 N   0  0  0  0  0  0  0  0  0  0  0  0
   21.9620   35.4900   13.3330 N   0  0  0  0  0  0  0  0  0  0  0  0
   24.3920   35.1510   12.9770 C   0  0  0  0  0  0  0  0  0  0  0  0
   24.9270   35.7330   14.0870 C   0  0  0  0  0  0  0  0  0  0  0  0
   25.2650   34.4510   12.1380 C   0  0  0  0  0  0  0  0  0  0  0  0
   26.2790   35.6570   14.4070 C   0  0  0  0  0  0  0  0  0  0  0  0
   26.5970   34.3610   12.4320 C   0  0  0  0  0  0  0  0  0  0  0  0
   27.1090   34.9690   13.5780 C   0  0  0  0  0  0  0  0  0  0  0  0
   26.8150   36.2940   15.6080 C   0  0  0  0  0  0  0  0  0  0  0  0
   27.2660   37.4820   15.5760 O   0  0  0  0  0  0  0  0  0  0  0  0
   26.8410   35.6190   16.7980 O   0  0  0  0  0  0  0  0  0  0  0  0
   28.5380   34.8170   13.8010 C   0  0  0  0  0  0  0  0  0  0  0  0
   29.1070   33.8000   14.5360 C   0  0  0  0  0  0  0  0  0  0  0  0
   29.3940   35.7500   13.2390 C   0  0  0  0  0  0  0  0  0  0  0  0
   28.2860   32.8500   15.1130 C   0  0  0  0  0  0  0  0  0  0  0  0
   30.4830   33.7070   14.7110 C   0  0  0  0  0  0  0  0  0  0  0  0
   30.8260   35.6080   13.4510 C   0  0  0  0  0  0  0  0  0  0  0  0
   28.9280   36.8050   12.4870 C   0  0  0  0  0  0  0  0  0  0  0  0
   28.8120   31.8070   15.8610 C   0  0  0  0  0  0  0  0  0  0  0  0
   31.0350   32.6840   15.4480 C   0  0  0  0  0  0  0  0  0  0  0  0
   31.2880   34.5930   14.1770 O   0  0  0  0  0  0  0  0  0  0  0  0
   31.6770   36.5220   12.9010 C   0  0  0  0  0  0  0  0  0  0  0  0
   29.8200   37.6930   11.9580 C   0  0  0  0  0  0  0  0  0  0  0  0
   30.1820   31.7410   16.0170 C   0  0  0  0  0  0  0  0  0  0  0  0
   31.1880   37.5700   12.1520 C   0  0  0  0  0  0  0  0  0  0  0  0
   31.9700   38.4150   11.6420 O   0  0  0  0  0  0  0  0  0  0  0  0
   30.7160   30.7040   16.7640 O   0  0  0  0  0  0  0  0  0  0  0  0
   30.5500   30.5710   17.7430 H   0  0  0  0  0  0  0  0  0  0  0  0
   29.8670   25.5550   16.9770 C   0  0  0  0  0  0  0  0  0  0  0  0
   28.3450   25.7220   17.0260 C   0  0  0  0  0  0  0  0  0  0  0  0
   27.5990   24.4200   16.7760 C   0  0  0  0  0  0  0  0  0  0  0  0
   26.7050   24.0500   17.9270 C   0  0  0  0  0  0  0  0  0  0  0  0
   25.2510   24.3020   17.5420 C   0  0  0  0  0  0  0  0  0  0  0  0
   24.8370   25.6670   17.9430 N   0  0  0  0  0  0  0  0  0  0  0  0
  1  4  1  0  0  0  0
  2  1  1  0  0  0  0
  2 31  1  0  0  0  0
  3  2  2  0  0  0  0
  5  1  1  0  0  0  0
  6  5  1  6  0  0  0
  7 27  1  1  0  0  0
  7  6  1  0  0  0  0
  8  7  1  6  0  0  0
  8 13  1  0  0  0  0
  9 16  1  6  0  0  0
  9 14  1  0  0  0  0
  9 10  1  0  0  0  0
 10 12  1  0  0  0  0
 11  9  1  0  0  0  0
 11  8  1  0  0  0  0
 12 20  1  1  0  0  0
 13 12  1  0  0  0  0
 13 22  1  1  0  0  0
 15 14  1  0  0  0  0
 16 17  2  0  0  0  0
 18 19  1  0  0  0  0
 18 16  1  0  0  0  0
 20 21  1  0  0  0  0
 22 23  1  0  0  0  0
 23 25  1  0  0  0  0
 24 22  1  0  0  0  0
 26 23  2  0  0  0  0
 28 27  1  0  0  0  0
 29 30  1  0  0  0  0
 29  6  1  0  0  0  0
 31 32  1  0  0  0  0
 32 33  1  0  0  0  0
 33 34  2  0  0  0  0
 33 35  1  0  0  0  0
 34 36  1  0  0  0  0
 35 37  2  0  0  0  0
 36 38  1  0  0  0  0
 36 37  1  0  0  0  0
 38 39  2  0  0  0  0
 39 41  1  0  0  0  0
 40 42  2  0  0  0  0
 40 38  1  0  0  0  0
 41 44  1  0  0  0  0
 42 43  1  0  0  0  0
 43 47  1  0  0  0  0
 43 41  2  0  0  0  0
 44 46  1  0  0  0  0
 45 44  2  0  0  0  0
 47 48  1  0  0  0  0
 48 51  1  0  0  0  0
 48 50  2  0  0  0  0
 49 52  1  0  0  0  0
 49 47  2  0  0  0  0
 50 54  1  0  0  0  0
 51 55  2  0  0  0  0
 52 56  1  0  0  0  0
 53 49  1  0  0  0  0
 54 59  2  0  0  0  0
 55 59  1  0  0  0  0
 56 51  1  0  0  0  0
 57 52  2  0  0  0  0
 58 60  1  0  0  0  0
 58 53  2  0  0  0  0
 59 62  1  0  0  0  0
 60 57  1  0  0  0  0
 61 60  2  0  0  0  0
 62 63  1  0  0  0  0
 64 65  1  0  0  0  0
 66 65  1  0  0  0  0
 66 67  1  0  0  0  0
 68 67  1  0  0  0  0
 68 69  1  0  0  0  0
M  END
>  <REMARK>
 VINA RESULT:    -5.432      4.146      9.680
 INTER + INTRA:         -17.913
 INTER:                 -10.165
 INTRA:                  -7.747
 UNBOUND:                -7.717
 SMILES CC(=O)N[C@@H]1[C@@H](O)C[C@](O)(C(=O)O)O[C@H]1C(O)[C@H](O)CNC(=O)OCc1cn(-c2ccc(-c3c4ccc(=O)cc-4oc4cc(O)ccc34)c(C(=O)[O-])c2)nn1
 SMILES IDX 21 1 22 2 23 3 20 5 18 6 16 7 15 8 9 9 8 10 14 11 6 12 5 13
 SMILES IDX 10 14 11 16 12 17 13 18 7 20 4 22 2 23 1 25 3 26 17 27 19 29
 SMILES IDX 24 31 25 32 26 33 27 34 55 35 28 36 54 37 29 38 53 39 30 40
 SMILES IDX 49 41 31 42 32 43 50 44 51 45 52 46 33 47 48 48 34 49 47 50
 SMILES IDX 42 51 40 52 35 53 46 54 43 55 41 56 39 57 36 58 44 59 37 60
 SMILES IDX 38 61 45 62
 H PARENT 21 4 10 15 13 19 7 21 4 24 17 28 19 30 45 63
 Flexibility Score: inf
  4 active torsions:
  status: ('A' for Active; 'I' for Inactive)
    1  A    between atoms: CA   and  CB  
    2  A    between atoms: CB   and  CG  
    3  A    between atoms: CG   and  CD  
    4  A    between atoms: CD   and  CE  

>  <TORSDO>
F 18

>  <BEGIN_>
RES LYS A 131

$$$$
ligand_34_pose_10_2HRL.pdbqt
 OpenBabel07062320523D

  6  5  0  0  0  0  0  0  0  0999 V2000
   33.1930   34.6630    9.2900 C   0  0  0  0  0  0  0  0  0  0  0  0
   32.0600   35.3600   10.0340 C   0  0  0  0  0  0  0  0  0  0  0  0
   30.7410   34.6380    9.9350 C   0  0  0  0  0  0  0  0  0  0  0  0
   30.4970   34.1570    8.5130 C   0  0  0  0  0  0  0  0  0  0  0  0
   29.3510   34.9230    7.8810 C   0  0  0  0  0  0  0  0  0  0  0  0
   28.0460   34.5220    8.4740 N   0  0  0  0  0  0  0  0  0  0  0  0
  1  2  1  0  0  0  0
  3  2  1  0  0  0  0
  4  3  1  0  0  0  0
  5  6  1  0  0  0  0
  5  4  1  0  0  0  0
M  END
>  <EGIN_R>
ES LYS A 135

>  <REMARK>
  4 active torsions:
  status: ('A' for Active; 'I' for Inactive)
    5  A    between atoms: CA   and  CB  
    6  A    between atoms: CB   and  CG  
    7  A    between atoms: CG   and  CD  
    8  A    between atoms: CD   and  CE  

$$$$
