ligand_10_pose_7_2HRL.pdbqt
 OpenBabel07062320523D

 53 53  0  0  1  0  0  0  0  0999 V2000
   31.5610   41.1170    8.3530 N   0  0  0  0  0  0  0  0  0  0  0  0
   31.0740   41.9720    9.3860 C   0  0  0  0  0  0  0  0  0  0  0  0
   29.8930   42.3340    9.3480 O   0  0  0  0  0  0  0  0  0  0  0  0
   32.5760   40.8500    8.4510 H   0  0  0  0  0  0  0  0  0  0  0  0
   30.7790   40.6360    7.2580 C   0  0  0  0  0  0  0  0  0  0  0  0
   30.6510   39.1280    7.3040 C   0  0  2  0  0  0  0  0  0  0  0  0
   29.3080   38.7080    7.8720 C   0  0  2  0  0  0  0  0  0  0  0  0
   28.1380   39.1620    7.0750 C   0  0  2  0  0  0  0  0  0  0  0  0
   26.7430   37.4970    7.8990 C   0  0  2  0  0  0  0  0  0  0  0  0
   27.2340   36.5630    6.8740 C   0  0  0  0  0  0  0  0  0  0  0  0
   26.9250   38.8390    7.6920 O   0  0  0  0  0  0  0  0  0  0  0  0
   27.8940   37.1090    5.6700 C   0  0  1  0  0  0  0  0  0  0  0  0
   28.1280   38.5930    5.6830 C   0  0  1  0  0  0  0  0  0  0  0  0
   27.3340   37.2260    9.1600 O   0  0  0  0  0  0  0  0  0  0  0  0
   27.9680   37.9770    9.3080 H   0  0  0  0  0  0  0  0  0  0  0  0
   25.2860   37.3070    8.1370 C   0  0  0  0  0  0  0  0  0  0  0  0
   24.7890   36.9690    9.2360 O   0  0  0  0  0  0  0  0  0  0  0  0
   24.4280   37.5200    7.0700 O   0  0  0  0  0  0  0  0  0  0  0  0
   24.5550   37.0540    6.1630 H   0  0  0  0  0  0  0  0  0  0  0  0
   29.0970   36.4520    5.4310 O   0  0  0  0  0  0  0  0  0  0  0  0
   29.5810   36.7640    4.6480 H   0  0  0  0  0  0  0  0  0  0  0  0
   27.0700   39.2810    4.9030 N   0  0  0  0  0  0  0  0  0  0  0  0
   27.3690   40.4240    4.1260 C   0  0  0  0  0  0  0  0  0  0  0  0
   26.0850   38.9430    4.9070 H   0  0  0  0  0  0  0  0  0  0  0  0
   26.3380   41.1480    3.3270 C   0  0  0  0  0  0  0  0  0  0  0  0
   28.5460   40.8410    4.1120 O   0  0  0  0  0  0  0  0  0  0  0  0
   29.2910   39.3480    9.1450 O   0  0  0  0  0  0  0  0  0  0  0  0
   28.3630   39.5070    9.4370 H   0  0  0  0  0  0  0  0  0  0  0  0
   31.7360   38.6220    8.0080 O   0  0  0  0  0  0  0  0  0  0  0  0
   31.5530   37.7510    8.4400 H   0  0  0  0  0  0  0  0  0  0  0  0
   31.8750   42.4090   10.4280 O   0  0  0  0  0  0  0  0  0  0  0  0
   31.7150   41.8700   11.7160 C   0  0  0  0  0  0  0  0  0  0  0  0
   31.4370   40.4130   11.6970 C   0  0  0  0  0  0  0  0  0  0  0  0
   30.6740   39.7890   12.6540 C   0  0  0  0  0  0  0  0  0  0  0  0
   31.8200   39.4720   10.8380 N   0  0  0  0  0  0  0  0  0  0  0  0
   30.6160   38.4690   12.3420 N   0  0  0  0  0  0  0  0  0  0  0  0
   31.3140   38.3220   11.2520 N   0  0  0  0  0  0  0  0  0  0  0  0
   29.8810   37.5010   13.1510 C   0  0  1  0  0  0  0  0  0  0  0  0
   29.0360   36.6370   12.2550 C   0  0  0  0  0  0  0  0  0  0  0  0
   27.6290   36.5930   12.6790 C   0  0  0  0  0  0  0  0  0  0  0  0
   27.3650   36.3790   13.8890 O   0  0  0  0  0  0  0  0  0  0  0  0
   26.6300   36.7890   11.7380 O   0  0  0  0  0  0  0  0  0  0  0  0
   26.8950   37.0650   10.7800 H   0  0  0  0  0  0  0  0  0  0  0  0
   30.8670   36.6070   13.8180 C   0  0  0  0  0  0  0  0  0  0  0  0
   30.5810   35.8310   14.7650 O   0  0  0  0  0  0  0  0  0  0  0  0
   32.1770   36.6330   13.3730 O   0  0  0  0  0  0  0  0  0  0  0  0
   32.9360   36.1910   13.8780 H   0  0  0  0  0  0  0  0  0  0  0  0
   29.8670   25.5550   16.9770 C   0  0  0  0  0  0  0  0  0  0  0  0
   28.3450   25.7220   17.0260 C   0  0  0  0  0  0  0  0  0  0  0  0
   27.6010   24.4030   16.8880 C   0  0  0  0  0  0  0  0  0  0  0  0
   26.1520   24.5260   17.2710 C   0  0  0  0  0  0  0  0  0  0  0  0
   25.6400   23.1780   17.7660 C   0  0  0  0  0  0  0  0  0  0  0  0
   24.3040   22.8880   17.1930 N   0  0  0  0  0  0  0  0  0  0  0  0
  1  4  1  0  0  0  0
  1  2  1  0  0  0  0
  2 31  1  0  0  0  0
  3  2  2  0  0  0  0
  5  1  1  0  0  0  0
  6  5  1  1  0  0  0
  6  7  1  0  0  0  0
  6 29  1  0  0  0  0
  7 27  1  1  0  0  0
  8 11  1  0  0  0  0
  8  7  1  1  0  0  0
  9 16  1  1  0  0  0
  9 14  1  0  0  0  0
 10  9  1  0  0  0  0
 11  9  1  0  0  0  0
 12 20  1  1  0  0  0
 12 13  1  0  0  0  0
 12 10  1  0  0  0  0
 13 22  1  6  0  0  0
 13  8  1  0  0  0  0
 14 15  1  0  0  0  0
 16 17  2  0  0  0  0
 18 16  1  0  0  0  0
 19 18  1  0  0  0  0
 21 20  1  0  0  0  0
 22 24  1  0  0  0  0
 23 22  1  0  0  0  0
 25 23  1  0  0  0  0
 26 23  2  0  0  0  0
 27 28  1  0  0  0  0
 29 30  1  0  0  0  0
 31 32  1  0  0  0  0
 33 32  1  0  0  0  0
 33 34  2  0  0  0  0
 35 37  2  0  0  0  0
 35 33  1  0  0  0  0
 36 34  1  0  0  0  0
 36 38  1  0  0  0  0
 37 36  1  0  0  0  0
 38 39  1  6  0  0  0
 38 44  1  0  0  0  0
 39 40  1  0  0  0  0
 40 41  2  0  0  0  0
 42 40  1  0  0  0  0
 43 42  1  0  0  0  0
 44 45  2  0  0  0  0
 46 44  1  0  0  0  0
 46 47  1  0  0  0  0
 48 49  1  0  0  0  0
 50 49  1  0  0  0  0
 50 51  1  0  0  0  0
 51 52  1  0  0  0  0
 53 52  1  0  0  0  0
M  END
>  <REMARK>
 VINA RESULT:    -4.707      4.859     10.288
 INTER + INTRA:         -14.992
 INTER:                  -7.754
 INTRA:                  -7.238
 UNBOUND:                -5.744
 SMILES CC(=O)N[C@@H]1[C@@H](O)C[C@](O)(C(=O)O)O[C@H]1C(O)[C@H](O)CNC(=O)OCc1cn([C@@H](CC(=O)O)C(=O)O)nn1
 SMILES IDX 21 1 22 2 23 3 20 5 18 6 16 7 15 8 9 9 8 10 14 11 6 12 5 13
 SMILES IDX 10 14 11 16 12 17 13 18 7 20 4 22 2 23 1 25 3 26 17 27 19 29
 SMILES IDX 24 31 25 32 26 33 27 34 38 35 28 36 37 37 29 38 30 39 31 40
 SMILES IDX 32 41 33 42 34 44 35 45 36 46
 H PARENT 21 4 10 15 13 19 7 21 4 24 17 28 19 30 33 43 36 47
 Flexibility Score: inf
  4 active torsions:
  status: ('A' for Active; 'I' for Inactive)
    1  A    between atoms: CA   and  CB  
    2  A    between atoms: CB   and  CG  
    3  A    between atoms: CG   and  CD  
    4  A    between atoms: CD   and  CE  

>  <TORSDO>
F 20

>  <BEGIN_>
RES LYS A 131

$$$$
ligand_10_pose_7_2HRL.pdbqt
 OpenBabel07062320523D

  6  5  0  0  0  0  0  0  0  0999 V2000
   33.1930   34.6630    9.2900 C   0  0  0  0  0  0  0  0  0  0  0  0
   32.0600   35.3600   10.0340 C   0  0  0  0  0  0  0  0  0  0  0  0
   30.7750   35.4250    9.2500 C   0  0  0  0  0  0  0  0  0  0  0  0
   30.1660   34.0390    9.1010 C   0  0  0  0  0  0  0  0  0  0  0  0
   28.6970   34.1380    8.7370 C   0  0  0  0  0  0  0  0  0  0  0  0
   27.8320   33.7710    9.8920 N   0  0  0  0  0  0  0  0  0  0  0  0
  1  2  1  0  0  0  0
  3  2  1  0  0  0  0
  4  3  1  0  0  0  0
  5  4  1  0  0  0  0
  5  6  1  0  0  0  0
M  END
>  <EGIN_R>
ES LYS A 135

>  <REMARK>
  4 active torsions:
  status: ('A' for Active; 'I' for Inactive)
    5  A    between atoms: CA   and  CB  
    6  A    between atoms: CB   and  CG  
    7  A    between atoms: CG   and  CD  
    8  A    between atoms: CD   and  CE  

$$$$
