ligand_60_pose_3_2HRL.pdbqt
 OpenBabel07062320523D

 55 56  0  0  1  0  0  0  0  0999 V2000
   29.7610   27.2200   20.3300 N   0  0  0  0  0  0  0  0  0  0  0  0
   28.6440   27.8540   20.8910 C   0  0  0  0  0  0  0  0  0  0  0  0
   28.5420   27.9960   22.1210 O   0  0  0  0  0  0  0  0  0  0  0  0
   29.7890   27.1330   19.2770 H   0  0  0  0  0  0  0  0  0  0  0  0
   30.8250   26.7090   21.1200 C   0  0  0  0  0  0  0  0  0  0  0  0
   32.0960   27.5460   21.0280 C   0  0  2  0  0  0  0  0  0  0  0  0
   32.2620   28.2980   22.3160 C   0  0  1  0  0  0  0  0  0  0  0  0
   33.6620   28.4300   22.7810 C   0  0  2  0  0  0  0  0  0  0  0  0
   35.0060   27.7620   24.5640 C   0  0  2  0  0  0  0  0  0  0  0  0
   36.0480   28.2570   23.5910 C   0  0  0  0  0  0  0  0  0  0  0  0
   33.7290   27.8820   24.0900 O   0  0  0  0  0  0  0  0  0  0  0  0
   35.7460   29.6170   23.0420 C   0  0  1  0  0  0  0  0  0  0  0  0
   34.2550   29.7850   22.8860 C   0  0  1  0  0  0  0  0  0  0  0  0
   35.1610   28.3750   25.8300 O   0  0  0  0  0  0  0  0  0  0  0  0
   35.9100   29.0240   25.8150 H   0  0  0  0  0  0  0  0  0  0  0  0
   35.2760   26.3170   24.7900 C   0  0  0  0  0  0  0  0  0  0  0  0
   36.3320   25.8310   24.3110 O   0  0  0  0  0  0  0  0  0  0  0  0
   34.4380   25.4730   25.4950 O   0  0  0  0  0  0  0  0  0  0  0  0
   33.5080   25.2510   25.1480 H   0  0  0  0  0  0  0  0  0  0  0  0
   36.3120   30.5650   23.8850 O   0  0  0  0  0  0  0  0  0  0  0  0
   37.1840   30.1950   24.1770 H   0  0  0  0  0  0  0  0  0  0  0  0
   33.8850   30.7570   21.9280 N   0  0  0  0  0  0  0  0  0  0  0  0
   33.1960   31.9420   22.2720 C   0  0  0  0  0  0  0  0  0  0  0  0
   34.1360   30.6290   20.9280 H   0  0  0  0  0  0  0  0  0  0  0  0
   32.8100   32.9650   21.2400 C   0  0  0  0  0  0  0  0  0  0  0  0
   32.9110   32.1210   23.4700 O   0  0  0  0  0  0  0  0  0  0  0  0
   31.4300   29.3700   22.4960 O   0  0  0  0  0  0  0  0  0  0  0  0
   30.9090   29.5160   21.6750 H   0  0  0  0  0  0  0  0  0  0  0  0
   32.0410   28.3130   19.8940 O   0  0  0  0  0  0  0  0  0  0  0  0
   31.1160   28.6540   19.7520 H   0  0  0  0  0  0  0  0  0  0  0  0
   27.5910   28.3550   20.1100 O   0  0  0  0  0  0  0  0  0  0  0  0
   27.4080   29.7260   19.9440 C   0  0  0  0  0  0  0  0  0  0  0  0
   28.6280   30.3970   19.4460 C   0  0  0  0  0  0  0  0  0  0  0  0
   28.8220   31.1620   18.3200 C   0  0  0  0  0  0  0  0  0  0  0  0
   29.8330   30.3600   20.0700 N   0  0  0  0  0  0  0  0  0  0  0  0
   30.1030   31.5700   18.2730 N   0  0  0  0  0  0  0  0  0  0  0  0
   30.6820   31.0660   19.3440 N   0  0  0  0  0  0  0  0  0  0  0  0
   30.7450   32.3770   17.2900 C   0  0  0  0  0  0  0  0  0  0  0  0
   30.8230   31.9890   15.9700 C   0  0  0  0  0  0  0  0  0  0  0  0
   31.3220   33.5890   17.6240 C   0  0  0  0  0  0  0  0  0  0  0  0
   31.4410   32.7570   15.0090 C   0  0  0  0  0  0  0  0  0  0  0  0
   31.9410   34.3620   16.6640 C   0  0  0  0  0  0  0  0  0  0  0  0
   32.0250   33.9840   15.3410 C   0  0  0  0  0  0  0  0  0  0  0  0
   32.8100   34.9560   14.1160 S   0  0  0  0  0  0  0  0  0  0  0  0
   32.7170   36.3890   14.5590 O   0  0  0  0  0  0  0  0  0  0  0  0
   34.2800   34.6050   14.0940 O   0  0  0  0  0  0  0  0  0  0  0  0
   32.1120   34.7610   12.5650 N   0  0  0  0  0  0  0  0  0  0  0  0
   32.0190   33.7900   12.2470 H   0  0  0  0  0  0  0  0  0  0  0  0
   31.2260   35.3040   12.4580 H   0  0  0  0  0  0  0  0  0  0  0  0
   29.8670   25.5550   16.9770 C   0  0  0  0  0  0  0  0  0  0  0  0
   28.3450   25.7220   17.0260 C   0  0  0  0  0  0  0  0  0  0  0  0
   27.6070   24.3950   17.1130 C   0  0  0  0  0  0  0  0  0  0  0  0
   26.6420   24.3570   18.2650 C   0  0  0  0  0  0  0  0  0  0  0  0
   25.3100   24.9600   17.8330 C   0  0  0  0  0  0  0  0  0  0  0  0
   24.6600   24.1040   16.8120 N   0  0  0  0  0  0  0  0  0  0  0  0
  1  2  1  0  0  0  0
  1  5  1  0  0  0  0
  2  3  2  0  0  0  0
  4  1  1  0  0  0  0
  6  5  1  1  0  0  0
  6  7  1  0  0  0  0
  7 27  1  6  0  0  0
  8  7  1  1  0  0  0
  8 13  1  0  0  0  0
  8 11  1  0  0  0  0
  9 16  1  1  0  0  0
  9 14  1  0  0  0  0
 10  9  1  0  0  0  0
 11  9  1  0  0  0  0
 12 10  1  0  0  0  0
 12 20  1  1  0  0  0
 13 22  1  6  0  0  0
 13 12  1  0  0  0  0
 15 14  1  0  0  0  0
 16 18  1  0  0  0  0
 17 16  2  0  0  0  0
 19 18  1  0  0  0  0
 20 21  1  0  0  0  0
 22 23  1  0  0  0  0
 23 26  2  0  0  0  0
 24 22  1  0  0  0  0
 25 23  1  0  0  0  0
 28 27  1  0  0  0  0
 29  6  1  0  0  0  0
 30 29  1  0  0  0  0
 31  2  1  0  0  0  0
 32 31  1  0  0  0  0
 33 32  1  0  0  0  0
 33 35  1  0  0  0  0
 34 33  2  0  0  0  0
 36 34  1  0  0  0  0
 36 37  1  0  0  0  0
 37 35  2  0  0  0  0
 38 40  1  0  0  0  0
 38 36  1  0  0  0  0
 39 38  2  0  0  0  0
 41 43  2  0  0  0  0
 41 39  1  0  0  0  0
 42 40  2  0  0  0  0
 43 42  1  0  0  0  0
 44 45  2  0  0  0  0
 44 43  1  0  0  0  0
 46 44  2  0  0  0  0
 47 44  1  0  0  0  0
 48 47  1  0  0  0  0
 49 47  1  0  0  0  0
 50 51  1  0  0  0  0
 51 52  1  0  0  0  0
 52 53  1  0  0  0  0
 54 53  1  0  0  0  0
 55 54  1  0  0  0  0
M  END
>  <REMARK>
 VINA RESULT:    -5.090      1.560      2.089
 INTER + INTRA:         -15.220
 INTER:                  -9.461
 INTRA:                  -5.759
 UNBOUND:                -5.964
 SMILES CC(=O)N[C@@H]1[C@@H](O)C[C@](O)(C(=O)O)O[C@H]1C(O)[C@H](O)CNC(=O)OCc1cn(-c2ccc(S(N)(=O)=O)cc2)nn1
 SMILES IDX 21 1 22 2 23 3 20 5 18 6 16 7 15 8 9 9 8 10 14 11 6 12 5 13
 SMILES IDX 10 14 11 16 12 17 13 18 7 20 4 22 2 23 1 25 3 26 17 27 19 29
 SMILES IDX 24 31 25 32 26 33 27 34 40 35 28 36 39 37 29 38 30 39 38 40
 SMILES IDX 31 41 37 42 32 43 33 44 35 45 36 46 34 47
 H PARENT 21 4 10 15 13 19 7 21 4 24 17 28 19 30 34 48 34 49
 Flexibility Score: inf
  4 active torsions:
  status: ('A' for Active; 'I' for Inactive)
    1  A    between atoms: CA   and  CB  
    2  A    between atoms: CB   and  CG  
    3  A    between atoms: CG   and  CD  
    4  A    between atoms: CD   and  CE  

>  <TORSDO>
F 17

>  <BEGIN_>
RES LYS A 131

$$$$
ligand_60_pose_3_2HRL.pdbqt
 OpenBabel07062320523D

  6  5  0  0  0  0  0  0  0  0999 V2000
   33.1930   34.6630    9.2900 C   0  0  0  0  0  0  0  0  0  0  0  0
   32.0600   35.3600   10.0340 C   0  0  0  0  0  0  0  0  0  0  0  0
   30.8240   35.5620    9.1960 C   0  0  0  0  0  0  0  0  0  0  0  0
   30.2200   34.2240    8.7990 C   0  0  0  0  0  0  0  0  0  0  0  0
   28.7220   34.3530    8.6010 C   0  0  0  0  0  0  0  0  0  0  0  0
   27.9750   33.6620    9.6890 N   0  0  0  0  0  0  0  0  0  0  0  0
  1  2  1  0  0  0  0
  3  2  1  0  0  0  0
  4  3  1  0  0  0  0
  5  4  1  0  0  0  0
  5  6  1  0  0  0  0
M  END
>  <EGIN_R>
ES LYS A 135

>  <REMARK>
  4 active torsions:
  status: ('A' for Active; 'I' for Inactive)
    5  A    between atoms: CA   and  CB  
    6  A    between atoms: CB   and  CG  
    7  A    between atoms: CG   and  CD  
    8  A    between atoms: CD   and  CE  

$$$$
