ligand_36_pose_6_2HRL.pdbqt
 OpenBabel07062320523D

 52 53  0  0  1  0  0  0  0  0999 V2000
   24.8240   36.5980   11.7750 N   0  0  0  0  0  0  0  0  0  0  0  0
   25.9420   37.4030   12.1440 C   0  0  0  0  0  0  0  0  0  0  0  0
   26.3040   38.3560   11.3700 O   0  0  0  0  0  0  0  0  0  0  0  0
   24.5480   35.8350   12.4200 H   0  0  0  0  0  0  0  0  0  0  0  0
   24.1410   36.8650   10.5620 C   0  0  0  0  0  0  0  0  0  0  0  0
   24.5930   36.0830    9.3520 C   0  0  2  0  0  0  0  0  0  0  0  0
   25.1970   36.9540    8.2690 C   0  0  2  0  0  0  0  0  0  0  0  0
   26.4640   36.3970    7.7170 C   0  0  2  0  0  0  0  0  0  0  0  0
   28.5460   35.5980    8.3830 C   0  0  2  0  0  0  0  0  0  0  0  0
   28.6920   35.3250    6.9030 C   0  0  0  0  0  0  0  0  0  0  0  0
   27.2760   35.9220    8.7540 O   0  0  0  0  0  0  0  0  0  0  0  0
   28.2320   36.4550    6.0510 C   0  0  1  0  0  0  0  0  0  0  0  0
   27.3020   37.3340    6.9060 C   0  0  1  0  0  0  0  0  0  0  0  0
   29.4820   36.5910    8.7440 O   0  0  0  0  0  0  0  0  0  0  0  0
   30.3660   36.3230    8.3570 H   0  0  0  0  0  0  0  0  0  0  0  0
   28.9350   34.3570    9.0860 C   0  0  0  0  0  0  0  0  0  0  0  0
   30.1350   34.0000    9.0860 O   0  0  0  0  0  0  0  0  0  0  0  0
   27.9910   33.5980    9.7360 O   0  0  0  0  0  0  0  0  0  0  0  0
   26.9970   33.6880    9.6220 H   0  0  0  0  0  0  0  0  0  0  0  0
   29.2520   37.2040    5.5000 O   0  0  0  0  0  0  0  0  0  0  0  0
   29.0170   37.3490    4.5320 H   0  0  0  0  0  0  0  0  0  0  0  0
   26.5940   38.2640    6.0820 N   0  0  0  0  0  0  0  0  0  0  0  0
   26.9130   39.6650    6.0970 C   0  0  0  0  0  0  0  0  0  0  0  0
   25.8180   37.9660    5.4250 H   0  0  0  0  0  0  0  0  0  0  0  0
   26.1670   40.6270    5.2320 C   0  0  0  0  0  0  0  0  0  0  0  0
   27.8240   40.1100    6.8360 O   0  0  0  0  0  0  0  0  0  0  0  0
   25.2470   38.2500    8.6690 O   0  0  0  0  0  0  0  0  0  0  0  0
   25.4650   38.9000    7.9990 H   0  0  0  0  0  0  0  0  0  0  0  0
   23.4010   35.4930    8.8580 O   0  0  0  0  0  0  0  0  0  0  0  0
   22.8580   35.1140    9.5730 H   0  0  0  0  0  0  0  0  0  0  0  0
   26.6830   37.2330   13.3000 O   0  0  0  0  0  0  0  0  0  0  0  0
   26.7210   35.9590   13.9030 C   0  0  0  0  0  0  0  0  0  0  0  0
   28.0440   35.3100   13.7500 C   0  0  0  0  0  0  0  0  0  0  0  0
   28.9600   34.9890   14.7390 C   0  0  0  0  0  0  0  0  0  0  0  0
   28.5890   34.9110   12.5940 N   0  0  0  0  0  0  0  0  0  0  0  0
   30.0160   34.4120   14.1580 N   0  0  0  0  0  0  0  0  0  0  0  0
   29.7620   34.3800   12.8670 N   0  0  0  0  0  0  0  0  0  0  0  0
   31.2090   33.9080   14.8030 C   0  0  0  0  0  0  0  0  0  0  0  0
   30.9440   33.0810   15.9810 C   0  0  0  0  0  0  0  0  0  0  0  0
   31.1920   33.5740   17.2360 C   0  0  0  0  0  0  0  0  0  0  0  0
   30.4470   31.7960   15.8260 C   0  0  0  0  0  0  0  0  0  0  0  0
   30.9520   32.8030   18.3580 C   0  0  0  0  0  0  0  0  0  0  0  0
   30.1970   31.0010   16.9370 C   0  0  0  0  0  0  0  0  0  0  0  0
   30.4580   31.5250   18.2040 C   0  0  0  0  0  0  0  0  0  0  0  0
   30.2080   30.7160   19.3610 C   0  0  0  0  0  0  0  0  0  0  0  0
   30.0010   30.0400   20.2950 N   0  0  0  0  0  0  0  0  0  0  0  0
   29.8670   25.5550   16.9770 C   0  0  0  0  0  0  0  0  0  0  0  0
   28.3450   25.7220   17.0260 C   0  0  0  0  0  0  0  0  0  0  0  0
   27.6000   24.4110   16.8240 C   0  0  0  0  0  0  0  0  0  0  0  0
   26.8260   24.0060   18.0480 C   0  0  0  0  0  0  0  0  0  0  0  0
   26.0220   25.1960   18.5600 C   0  0  0  0  0  0  0  0  0  0  0  0
   24.7700   25.3500   17.7820 N   0  0  0  0  0  0  0  0  0  0  0  0
  1  2  1  0  0  0  0
  1  4  1  0  0  0  0
  2 31  1  0  0  0  0
  3  2  2  0  0  0  0
  5  1  1  0  0  0  0
  6  5  1  1  0  0  0
  7 27  1  1  0  0  0
  7  6  1  0  0  0  0
  8  7  1  1  0  0  0
  8 11  1  0  0  0  0
  9 14  1  1  0  0  0
  9 11  1  0  0  0  0
  9 16  1  0  0  0  0
 10  9  1  0  0  0  0
 12 20  1  1  0  0  0
 12 10  1  0  0  0  0
 12 13  1  0  0  0  0
 13 22  1  6  0  0  0
 13  8  1  0  0  0  0
 15 14  1  0  0  0  0
 16 17  2  0  0  0  0
 16 18  1  0  0  0  0
 19 18  1  0  0  0  0
 21 20  1  0  0  0  0
 22 23  1  0  0  0  0
 23 26  2  0  0  0  0
 24 22  1  0  0  0  0
 25 23  1  0  0  0  0
 28 27  1  0  0  0  0
 29  6  1  0  0  0  0
 29 30  1  0  0  0  0
 31 32  1  0  0  0  0
 33 32  1  0  0  0  0
 33 34  2  0  0  0  0
 35 37  2  0  0  0  0
 35 33  1  0  0  0  0
 36 34  1  0  0  0  0
 36 38  1  0  0  0  0
 37 36  1  0  0  0  0
 38 39  1  0  0  0  0
 39 40  1  0  0  0  0
 40 42  2  0  0  0  0
 41 39  2  0  0  0  0
 41 43  1  0  0  0  0
 43 44  2  0  0  0  0
 44 42  1  0  0  0  0
 44 45  1  0  0  0  0
 45 46  3  0  0  0  0
 47 48  1  0  0  0  0
 49 48  1  0  0  0  0
 49 50  1  0  0  0  0
 50 51  1  0  0  0  0
 52 51  1  0  0  0  0
M  END
>  <REMARK>
 VINA RESULT:    -4.356      6.221     11.599
 INTER + INTRA:         -15.029
 INTER:                 -10.928
 INTRA:                  -4.101
 UNBOUND:                -6.980
 SMILES CC(=O)N[C@@H]1[C@@H](O)C[C@](O)(C(=O)O)O[C@H]1C(O)[C@H](O)CNC(=O)OCc1cn(Cc2ccc(C#N)cc2)nn1
 SMILES IDX 21 1 22 2 23 3 20 5 18 6 16 7 15 8 9 9 8 10 14 11 6 12 5 13
 SMILES IDX 10 14 11 16 12 17 13 18 7 20 4 22 2 23 1 25 3 26 17 27 19 29
 SMILES IDX 24 31 25 32 26 33 27 34 39 35 28 36 38 37 29 38 30 39 31 40
 SMILES IDX 37 41 32 42 36 43 33 44 34 45 35 46
 H PARENT 21 4 10 15 13 19 7 21 4 24 17 28 19 30
 Flexibility Score: inf
  4 active torsions:
  status: ('A' for Active; 'I' for Inactive)
    1  A    between atoms: CA   and  CB  
    2  A    between atoms: CB   and  CG  
    3  A    between atoms: CG   and  CD  
    4  A    between atoms: CD   and  CE  

>  <TORSDO>
F 17

>  <BEGIN_>
RES LYS A 131

$$$$
ligand_36_pose_6_2HRL.pdbqt
 OpenBabel07062320523D

  6  5  0  0  0  0  0  0  0  0999 V2000
   33.1930   34.6630    9.2900 C   0  0  0  0  0  0  0  0  0  0  0  0
   32.0600   35.3600   10.0340 C   0  0  0  0  0  0  0  0  0  0  0  0
   32.5160   36.1110   11.2580 C   0  0  0  0  0  0  0  0  0  0  0  0
   31.9670   37.5300   11.2520 C   0  0  0  0  0  0  0  0  0  0  0  0
   30.9430   37.7100   12.3560 C   0  0  0  0  0  0  0  0  0  0  0  0
   31.5640   37.5370   13.6980 N   0  0  0  0  0  0  0  0  0  0  0  0
  1  2  1  0  0  0  0
  2  3  1  0  0  0  0
  4  3  1  0  0  0  0
  4  5  1  0  0  0  0
  5  6  1  0  0  0  0
M  END
>  <EGIN_R>
ES LYS A 135

>  <REMARK>
  4 active torsions:
  status: ('A' for Active; 'I' for Inactive)
    5  A    between atoms: CA   and  CB  
    6  A    between atoms: CB   and  CG  
    7  A    between atoms: CG   and  CD  
    8  A    between atoms: CD   and  CE  

$$$$
