ligand_93_pose_16_2HRL.pdbqt
 OpenBabel07062320523D

 50 51  0  0  1  0  0  0  0  0999 V2000
   21.4610   41.1650    8.2990 C   0  0  0  0  0  0  0  0  0  0  0  0
   20.6150   40.2330    9.1360 C   0  0  2  0  0  0  0  0  0  0  0  0
   20.6860   38.8420    8.6140 C   0  0  1  0  0  0  0  0  0  0  0  0
   21.3920   37.8430    9.4950 C   0  0  2  0  0  0  0  0  0  0  0  0
   23.4300   37.1360    8.5480 C   0  0  2  0  0  0  0  0  0  0  0  0
   23.0160   35.6840    8.6720 C   0  0  0  0  0  0  0  0  0  0  0  0
   22.7230   38.0010    9.3020 O   0  0  0  0  0  0  0  0  0  0  0  0
   21.5280   35.6300    8.4380 C   0  0  1  0  0  0  0  0  0  0  0  0
   20.8590   36.4670    9.4990 C   0  0  1  0  0  0  0  0  0  0  0  0
   23.2500   37.4650    7.2050 O   0  0  0  0  0  0  0  0  0  0  0  0
   22.4700   36.9220    6.8810 H   0  0  0  0  0  0  0  0  0  0  0  0
   24.9010   37.1890    8.8220 C   0  0  0  0  0  0  0  0  0  0  0  0
   25.3970   37.8340    9.7710 O   0  0  0  0  0  0  0  0  0  0  0  0
   25.7460   36.4930    7.9840 O   0  0  0  0  0  0  0  0  0  0  0  0
   26.7630   36.5930    8.0110 H   0  0  0  0  0  0  0  0  0  0  0  0
   21.3080   36.1150    7.1470 O   0  0  0  0  0  0  0  0  0  0  0  0
   21.6490   37.0360    7.0300 H   0  0  0  0  0  0  0  0  0  0  0  0
   21.1540   35.8150   10.7880 N   0  0  0  0  0  0  0  0  0  0  0  0
   20.3340   34.7850   11.3110 C   0  0  0  0  0  0  0  0  0  0  0  0
   21.9830   36.1110   11.3410 H   0  0  0  0  0  0  0  0  0  0  0  0
   20.6990   34.1810   12.6130 C   0  0  0  0  0  0  0  0  0  0  0  0
   19.3090   34.3820   10.6860 O   0  0  0  0  0  0  0  0  0  0  0  0
   19.4750   38.3910    8.1080 O   0  0  0  0  0  0  0  0  0  0  0  0
   19.0400   37.7360    8.7230 H   0  0  0  0  0  0  0  0  0  0  0  0
   19.2950   40.7490    9.0510 O   0  0  0  0  0  0  0  0  0  0  0  0
   19.3400   41.7430    8.9940 H   0  0  0  0  0  0  0  0  0  0  0  0
   22.3160   40.4850    7.3520 N   0  0  0  0  0  0  0  0  0  0  0  0
   23.7260   40.7220    7.4020 C   0  0  0  0  0  0  0  0  0  0  0  0
   21.8860   39.8400    6.6680 H   0  0  0  0  0  0  0  0  0  0  0  0
   24.1640   41.5070    8.2600 O   0  0  0  0  0  0  0  0  0  0  0  0
   24.5220   40.0590    6.4840 O   0  0  0  0  0  0  0  0  0  0  0  0
   25.7860   40.5860    6.1760 C   0  0  0  0  0  0  0  0  0  0  0  0
   26.8140   39.6990    6.7740 C   0  0  0  0  0  0  0  0  0  0  0  0
   27.5420   40.0090    7.9280 C   0  0  0  0  0  0  0  0  0  0  0  0
   27.2490   38.4970    6.3800 N   0  0  0  0  0  0  0  0  0  0  0  0
   28.3520   38.9650    8.1290 N   0  0  0  0  0  0  0  0  0  0  0  0
   28.1840   38.0450    7.1990 N   0  0  0  0  0  0  0  0  0  0  0  0
   29.2740   38.8510    9.1980 C   0  0  0  0  0  0  0  0  0  0  0  0
   28.8280   38.3570   10.4230 C   0  0  0  0  0  0  0  0  0  0  0  0
   30.5760   39.2240    9.0050 C   0  0  0  0  0  0  0  0  0  0  0  0
   29.7190   38.2420   11.4690 C   0  0  0  0  0  0  0  0  0  0  0  0
   31.4540   39.1010   10.0670 C   0  0  0  0  0  0  0  0  0  0  0  0
   31.2960   39.9740    7.1740 I   0  0  0  0  0  0  0  0  0  0  0  0
   31.0340   38.6150   11.2920 C   0  0  0  0  0  0  0  0  0  0  0  0
   29.8670   25.5550   16.9770 C   0  0  0  0  0  0  0  0  0  0  0  0
   28.3450   25.7220   17.0260 C   0  0  0  0  0  0  0  0  0  0  0  0
   27.5990   24.4180   16.7850 C   0  0  0  0  0  0  0  0  0  0  0  0
   26.1970   24.4600   17.3250 C   0  0  0  0  0  0  0  0  0  0  0  0
   25.8540   23.1130   17.9530 C   0  0  0  0  0  0  0  0  0  0  0  0
   25.4560   23.2870   19.3700 N   0  0  0  0  0  0  0  0  0  0  0  0
  2  1  1  6  0  0  0
  3 23  1  1  0  0  0
  3  2  1  0  0  0  0
  4  3  1  6  0  0  0
  4  9  1  0  0  0  0
  5 10  1  6  0  0  0
  5  6  1  0  0  0  0
  5 12  1  0  0  0  0
  5  7  1  0  0  0  0
  7  4  1  0  0  0  0
  8 16  1  6  0  0  0
  8  6  1  0  0  0  0
  8  9  1  0  0  0  0
  9 18  1  1  0  0  0
 11 10  1  0  0  0  0
 12 13  2  0  0  0  0
 14 15  1  0  0  0  0
 14 12  1  0  0  0  0
 17 16  1  0  0  0  0
 18 19  1  0  0  0  0
 18 20  1  0  0  0  0
 19 21  1  0  0  0  0
 22 19  2  0  0  0  0
 23 24  1  0  0  0  0
 25  2  1  0  0  0  0
 26 25  1  0  0  0  0
 27 28  1  0  0  0  0
 27  1  1  0  0  0  0
 28 30  2  0  0  0  0
 29 27  1  0  0  0  0
 31 28  1  0  0  0  0
 32 31  1  0  0  0  0
 32 33  1  0  0  0  0
 33 34  2  0  0  0  0
 34 36  1  0  0  0  0
 35 33  1  0  0  0  0
 35 37  2  0  0  0  0
 36 38  1  0  0  0  0
 37 36  1  0  0  0  0
 38 39  1  0  0  0  0
 39 41  2  0  0  0  0
 40 38  2  0  0  0  0
 40 42  1  0  0  0  0
 42 44  2  0  0  0  0
 43 40  1  0  0  0  0
 44 41  1  0  0  0  0
 45 46  1  0  0  0  0
 47 46  1  0  0  0  0
 47 48  1  0  0  0  0
 48 49  1  0  0  0  0
 49 50  1  0  0  0  0
M  END
>  <REMARK>
 VINA RESULT:    -4.210      6.961     11.368
 INTER + INTRA:         -13.571
 INTER:                  -7.335
 INTRA:                  -6.236
 UNBOUND:                -6.285
 SMILES CC(=O)N[C@@H]1[C@@H](O)C[C@](O)(C(=O)O)O[C@H]1C(O)[C@H](O)CNC(=O)OCc1cn(-c2ccccc2I)nn1
 SMILES IDX 20 1 18 2 16 3 15 4 9 5 8 6 14 7 6 8 5 9 10 10 11 12 12 13
 SMILES IDX 13 14 7 16 4 18 2 19 1 21 3 22 17 23 19 25 21 27 22 28 23 30
 SMILES IDX 24 31 25 32 26 33 27 34 37 35 28 36 36 37 29 38 30 39 34 40
 SMILES IDX 31 41 33 42 35 43 32 44
 H PARENT 10 11 13 15 7 17 4 20 17 24 19 26 21 29
 Flexibility Score: inf
  4 active torsions:
  status: ('A' for Active; 'I' for Inactive)
    1  A    between atoms: CA   and  CB  
    2  A    between atoms: CB   and  CG  
    3  A    between atoms: CG   and  CD  
    4  A    between atoms: CD   and  CE  

>  <TORSDO>
F 15

>  <BEGIN_>
RES LYS A 131

$$$$
ligand_93_pose_16_2HRL.pdbqt
 OpenBabel07062320523D

  6  5  0  0  0  0  0  0  0  0999 V2000
   33.1930   34.6630    9.2900 C   0  0  0  0  0  0  0  0  0  0  0  0
   32.0600   35.3600   10.0340 C   0  0  0  0  0  0  0  0  0  0  0  0
   30.7980   35.4920    9.2220 C   0  0  0  0  0  0  0  0  0  0  0  0
   29.9700   34.2190    9.3050 C   0  0  0  0  0  0  0  0  0  0  0  0
   28.6740   34.4730   10.0500 C   0  0  0  0  0  0  0  0  0  0  0  0
   27.5420   33.7350    9.4240 N   0  0  0  0  0  0  0  0  0  0  0  0
  1  2  1  0  0  0  0
  3  4  1  0  0  0  0
  3  2  1  0  0  0  0
  4  5  1  0  0  0  0
  6  5  1  0  0  0  0
M  END
>  <EGIN_R>
ES LYS A 135

>  <REMARK>
  4 active torsions:
  status: ('A' for Active; 'I' for Inactive)
    5  A    between atoms: CA   and  CB  
    6  A    between atoms: CB   and  CG  
    7  A    between atoms: CG   and  CD  
    8  A    between atoms: CD   and  CE  

$$$$
