ligand_76_pose_17_2HRL.pdbqt
 OpenBabel07062320523D

 55 56  0  0  1  0  0  0  0  0999 V2000
   24.7500   35.2870   10.9720 O   0  0  0  0  0  0  0  0  0  0  0  0
   25.3520   35.6680   12.1580 C   0  0  0  0  0  0  0  0  0  0  0  0
   26.5990   35.1320   12.5390 N   0  0  0  0  0  0  0  0  0  0  0  0
   27.0650   34.4450   11.9180 H   0  0  0  0  0  0  0  0  0  0  0  0
   24.7880   36.4970   12.9080 O   0  0  0  0  0  0  0  0  0  0  0  0
   27.2670   35.5070   13.7770 C   0  0  0  0  0  0  0  0  0  0  0  0
   28.5350   36.2910   13.4920 C   0  0  2  0  0  0  0  0  0  0  0  0
   29.7210   35.3660   13.7110 C   0  0  1  0  0  0  0  0  0  0  0  0
   29.9490   35.1470   15.2090 C   0  0  2  0  0  0  0  0  0  0  0  0
   32.1990   35.4640   15.7480 C   0  0  2  0  0  0  0  0  0  0  0  0
   32.4280   34.0870   15.2310 C   0  0  0  0  0  0  0  0  0  0  0  0
   30.9280   35.9150   15.7310 O   0  0  0  0  0  0  0  0  0  0  0  0
   31.3790   33.1090   15.6250 C   0  0  1  0  0  0  0  0  0  0  0  0
   29.9920   33.6780   15.4980 C   0  0  1  0  0  0  0  0  0  0  0  0
   32.9840   36.3370   14.9560 O   0  0  0  0  0  0  0  0  0  0  0  0
   33.1080   35.9400   14.0560 H   0  0  0  0  0  0  0  0  0  0  0  0
   32.7910   35.5350   17.1320 C   0  0  0  0  0  0  0  0  0  0  0  0
   32.1330   35.2810   18.1670 O   0  0  0  0  0  0  0  0  0  0  0  0
   34.1290   35.8950   17.3260 O   0  0  0  0  0  0  0  0  0  0  0  0
   34.3640   36.8090   17.7370 H   0  0  0  0  0  0  0  0  0  0  0  0
   31.5390   31.9430   14.8410 O   0  0  0  0  0  0  0  0  0  0  0  0
   31.4010   32.1550   13.8700 H   0  0  0  0  0  0  0  0  0  0  0  0
   29.1760   33.3630   16.6730 N   0  0  0  0  0  0  0  0  0  0  0  0
   28.4970   32.1430   16.7950 C   0  0  0  0  0  0  0  0  0  0  0  0
   29.1300   34.1140   17.4240 H   0  0  0  0  0  0  0  0  0  0  0  0
   27.6870   31.8720   17.9960 C   0  0  0  0  0  0  0  0  0  0  0  0
   28.5710   31.2830   15.8960 O   0  0  0  0  0  0  0  0  0  0  0  0
   29.3080   34.1130   13.2250 O   0  0  0  0  0  0  0  0  0  0  0  0
   28.9440   33.5340   13.9600 H   0  0  0  0  0  0  0  0  0  0  0  0
   28.6200   37.3870   14.3410 O   0  0  0  0  0  0  0  0  0  0  0  0
   28.8080   37.0420   15.2460 H   0  0  0  0  0  0  0  0  0  0  0  0
   23.6460   36.0970   10.5360 C   0  0  0  0  0  0  0  0  0  0  0  0
   24.0470   36.9190    9.3730 C   0  0  0  0  0  0  0  0  0  0  0  0
   25.2230   37.5940    9.1460 C   0  0  0  0  0  0  0  0  0  0  0  0
   23.2710   37.1410    8.2970 N   0  0  0  0  0  0  0  0  0  0  0  0
   25.1340   38.2010    7.9540 N   0  0  0  0  0  0  0  0  0  0  0  0
   23.9680   37.9220    7.4620 N   0  0  0  0  0  0  0  0  0  0  0  0
   26.1540   39.0430    7.2880 C   0  0  0  0  0  0  0  0  0  0  0  0
   27.3870   38.2170    7.0950 C   0  0  2  0  0  0  0  0  0  0  0  0
   28.5520   38.9960    7.1430 O   0  0  0  0  0  0  0  0  0  0  0  0
   29.3270   38.3640    7.1470 H   0  0  0  0  0  0  0  0  0  0  0  0
   27.3340   37.1450    6.1270 C   0  0  0  0  0  0  0  0  0  0  0  0
   28.3990   36.1350    6.1000 C   0  0  0  0  0  0  0  0  0  0  0  0
   28.5010   35.3020    7.2870 C   0  0  0  0  0  0  0  0  0  0  0  0
   27.3150   34.8810    7.9020 C   0  0  0  0  0  0  0  0  0  0  0  0
   29.6570   34.9430    7.9070 C   0  0  0  0  0  0  0  0  0  0  0  0
   27.3390   34.1490    9.0650 C   0  0  0  0  0  0  0  0  0  0  0  0
   29.7020   34.2060    9.0780 C   0  0  0  0  0  0  0  0  0  0  0  0
   28.5240   33.8000    9.6700 C   0  0  0  0  0  0  0  0  0  0  0  0
   29.8670   25.5550   16.9770 C   0  0  0  0  0  0  0  0  0  0  0  0
   28.3450   25.7220   17.0260 C   0  0  0  0  0  0  0  0  0  0  0  0
   27.6020   24.3990   16.9260 C   0  0  0  0  0  0  0  0  0  0  0  0
   26.4120   24.3460   17.8440 C   0  0  0  0  0  0  0  0  0  0  0  0
   25.9300   25.7640   18.1340 C   0  0  0  0  0  0  0  0  0  0  0  0
   24.5290   25.9380   17.6840 N   0  0  0  0  0  0  0  0  0  0  0  0
  1  2  1  0  0  0  0
  2  3  1  0  0  0  0
  2  5  2  0  0  0  0
  3  6  1  0  0  0  0
  4  3  1  0  0  0  0
  7  8  1  0  0  0  0
  7  6  1  1  0  0  0
  7 30  1  0  0  0  0
  8 28  1  6  0  0  0
  9  8  1  6  0  0  0
  9 14  1  0  0  0  0
  9 12  1  0  0  0  0
 10 15  1  6  0  0  0
 10 17  1  0  0  0  0
 11 13  1  0  0  0  0
 11 10  1  0  0  0  0
 12 10  1  0  0  0  0
 13 21  1  6  0  0  0
 14 13  1  0  0  0  0
 14 23  1  1  0  0  0
 16 15  1  0  0  0  0
 17 19  1  0  0  0  0
 17 18  2  0  0  0  0
 19 20  1  0  0  0  0
 22 21  1  0  0  0  0
 23 24  1  0  0  0  0
 23 25  1  0  0  0  0
 24 26  1  0  0  0  0
 27 24  2  0  0  0  0
 28 29  1  0  0  0  0
 30 31  1  0  0  0  0
 32  1  1  0  0  0  0
 33 32  1  0  0  0  0
 34 33  2  0  0  0  0
 35 33  1  0  0  0  0
 36 34  1  0  0  0  0
 37 36  1  0  0  0  0
 37 35  2  0  0  0  0
 38 36  1  0  0  0  0
 39 42  1  6  0  0  0
 39 40  1  0  0  0  0
 39 38  1  0  0  0  0
 40 41  1  0  0  0  0
 43 42  1  0  0  0  0
 43 44  1  0  0  0  0
 44 45  2  0  0  0  0
 44 46  1  0  0  0  0
 45 47  1  0  0  0  0
 46 48  2  0  0  0  0
 47 49  2  0  0  0  0
 48 49  1  0  0  0  0
 50 51  1  0  0  0  0
 52 51  1  0  0  0  0
 52 53  1  0  0  0  0
 53 54  1  0  0  0  0
 55 54  1  0  0  0  0
M  END
>  <REMARK>
 VINA RESULT:    -4.727      3.450      8.005
 INTER + INTRA:         -16.196
 INTER:                 -11.921
 INTRA:                  -4.276
 UNBOUND:                -6.771
 SMILES CC(=O)N[C@@H]1[C@@H](O)C[C@](O)(C(=O)O)O[C@H]1C(O)[C@H](O)CNC(=O)OCc1cn(CC(O)CCc2ccccc2)nn1
 SMILES IDX 24 1 22 2 21 3 23 5 20 6 18 7 16 8 15 9 9 10 8 11 14 12 6 13
 SMILES IDX 5 14 10 15 11 17 12 18 13 19 7 21 4 23 2 24 1 26 3 27 17 28
 SMILES IDX 19 30 25 32 26 33 27 34 41 35 28 36 40 37 29 38 30 39 31 40
 SMILES IDX 32 42 33 43 34 44 35 45 39 46 36 47 38 48 37 49
 H PARENT 21 4 10 16 13 20 7 22 4 25 17 29 19 31 31 41
 Flexibility Score: inf
  4 active torsions:
  status: ('A' for Active; 'I' for Inactive)
    1  A    between atoms: CA   and  CB  
    2  A    between atoms: CB   and  CG  
    3  A    between atoms: CG   and  CD  
    4  A    between atoms: CD   and  CE  

>  <TORSDO>
F 20

>  <BEGIN_>
RES LYS A 131

$$$$
ligand_76_pose_17_2HRL.pdbqt
 OpenBabel07062320523D

  6  5  0  0  0  0  0  0  0  0999 V2000
   33.1930   34.6630    9.2900 C   0  0  0  0  0  0  0  0  0  0  0  0
   32.0600   35.3600   10.0340 C   0  0  0  0  0  0  0  0  0  0  0  0
   32.4950   36.0100   11.3220 C   0  0  0  0  0  0  0  0  0  0  0  0
   31.8580   37.3830   11.4720 C   0  0  0  0  0  0  0  0  0  0  0  0
   31.4530   37.9330   10.1180 C   0  0  0  0  0  0  0  0  0  0  0  0
   31.3950   39.4210   10.1390 N   0  0  0  0  0  0  0  0  0  0  0  0
  1  2  1  0  0  0  0
  2  3  1  0  0  0  0
  3  4  1  0  0  0  0
  5  6  1  0  0  0  0
  5  4  1  0  0  0  0
M  END
>  <EGIN_R>
ES LYS A 135

>  <REMARK>
  4 active torsions:
  status: ('A' for Active; 'I' for Inactive)
    5  A    between atoms: CA   and  CB  
    6  A    between atoms: CB   and  CG  
    7  A    between atoms: CG   and  CD  
    8  A    between atoms: CD   and  CE  

$$$$
