ligand_85_pose_10_2HRL.pdbqt
 OpenBabel07062320523D

 55 56  0  0  1  0  0  0  0  0999 V2000
   33.0470   39.2880   17.0070 N   0  0  0  0  0  0  0  0  0  0  0  0
   33.7050   38.7150   18.1060 C   0  0  0  0  0  0  0  0  0  0  0  0
   33.1180   38.5980   19.2000 O   0  0  0  0  0  0  0  0  0  0  0  0
   33.5470   39.3780   16.0940 H   0  0  0  0  0  0  0  0  0  0  0  0
   31.6920   39.7670   17.0800 C   0  0  0  0  0  0  0  0  0  0  0  0
   30.7420   38.6860   16.6310 C   0  0  2  0  0  0  0  0  0  0  0  0
   30.7850   38.4580   15.1410 C   0  0  2  0  0  0  0  0  0  0  0  0
   31.2640   37.0920   14.8270 C   0  0  2  0  0  0  0  0  0  0  0  0
   32.5200   35.2790   15.4560 C   0  0  2  0  0  0  0  0  0  0  0  0
   31.7190   34.6460   14.3470 C   0  0  0  0  0  0  0  0  0  0  0  0
   32.3130   36.6280   15.6030 O   0  0  0  0  0  0  0  0  0  0  0  0
   31.7080   35.4520   13.0900 C   0  0  1  0  0  0  0  0  0  0  0  0
   31.7110   36.9520   13.3720 C   0  0  1  0  0  0  0  0  0  0  0  0
   33.8810   35.1190   15.1400 O   0  0  0  0  0  0  0  0  0  0  0  0
   34.1320   34.2160   15.5040 H   0  0  0  0  0  0  0  0  0  0  0  0
   32.2610   34.6290   16.7460 C   0  0  0  0  0  0  0  0  0  0  0  0
   31.7360   33.4900   16.7730 O   0  0  0  0  0  0  0  0  0  0  0  0
   32.5620   35.1960   17.9740 O   0  0  0  0  0  0  0  0  0  0  0  0
   32.1230   34.7630   18.8020 H   0  0  0  0  0  0  0  0  0  0  0  0
   32.8350   35.0930   12.3240 O   0  0  0  0  0  0  0  0  0  0  0  0
   33.4090   34.5530   12.9320 H   0  0  0  0  0  0  0  0  0  0  0  0
   30.8730   37.6750   12.4770 N   0  0  0  0  0  0  0  0  0  0  0  0
   31.3360   38.0180   11.1820 C   0  0  0  0  0  0  0  0  0  0  0  0
   29.9140   37.9650   12.7470 H   0  0  0  0  0  0  0  0  0  0  0  0
   30.4150   38.7820   10.2730 C   0  0  0  0  0  0  0  0  0  0  0  0
   32.4640   37.7260   10.7450 O   0  0  0  0  0  0  0  0  0  0  0  0
   31.4610   39.4860   14.5320 O   0  0  0  0  0  0  0  0  0  0  0  0
   31.5070   40.2460   15.1940 H   0  0  0  0  0  0  0  0  0  0  0  0
   29.4020   39.0860   16.9230 O   0  0  0  0  0  0  0  0  0  0  0  0
   28.9300   38.3880   17.4210 H   0  0  0  0  0  0  0  0  0  0  0  0
   35.0160   38.2510   18.0560 O   0  0  0  0  0  0  0  0  0  0  0  0
   35.3670   37.0790   18.7640 C   0  0  0  0  0  0  0  0  0  0  0  0
   36.3120   36.2570   17.9950 C   0  0  0  0  0  0  0  0  0  0  0  0
   36.6320   36.3010   16.6540 C   0  0  0  0  0  0  0  0  0  0  0  0
   37.0640   35.2680   18.5040 N   0  0  0  0  0  0  0  0  0  0  0  0
   37.5620   35.3470   16.3840 N   0  0  0  0  0  0  0  0  0  0  0  0
   37.7920   34.7490   17.5280 N   0  0  0  0  0  0  0  0  0  0  0  0
   38.1690   35.0450   15.1350 C   0  0  0  0  0  0  0  0  0  0  0  0
   37.5200   34.2420   14.2080 C   0  0  0  0  0  0  0  0  0  0  0  0
   39.4120   35.5580   14.8490 C   0  0  0  0  0  0  0  0  0  0  0  0
   38.0880   33.9390   12.9960 C   0  0  0  0  0  0  0  0  0  0  0  0
   40.0150   35.2730   13.6360 C   0  0  0  0  0  0  0  0  0  0  0  0
   37.2740   32.9200   11.8110 Cl  0  0  0  0  0  0  0  0  0  0  0  0
   39.3360   34.4630   12.7260 C   0  0  0  0  0  0  0  0  0  0  0  0
   40.0740   36.3930   15.8240 C   0  0  0  0  0  0  0  0  0  0  0  0
   40.8000   35.9310   16.7500 O   0  0  0  0  0  0  0  0  0  0  0  0
   39.9230   37.7980   15.7660 N   0  0  0  0  0  0  0  0  0  0  0  0
   39.1040   38.3700   14.7250 C   0  0  0  0  0  0  0  0  0  0  0  0
   40.5670   38.6870   16.7210 C   0  0  0  0  0  0  0  0  0  0  0  0
   29.8670   25.5550   16.9770 C   0  0  0  0  0  0  0  0  0  0  0  0
   28.3450   25.7220   17.0260 C   0  0  0  0  0  0  0  0  0  0  0  0
   27.6010   24.4030   16.8800 C   0  0  0  0  0  0  0  0  0  0  0  0
   26.1540   24.5240   17.2690 C   0  0  0  0  0  0  0  0  0  0  0  0
   25.6530   23.1800   17.7890 C   0  0  0  0  0  0  0  0  0  0  0  0
   24.3150   22.8730   17.2290 N   0  0  0  0  0  0  0  0  0  0  0  0
  1  5  1  0  0  0  0
  1  2  1  0  0  0  0
  2  3  2  0  0  0  0
  4  1  1  0  0  0  0
  6 29  1  0  0  0  0
  6  5  1  6  0  0  0
  7 27  1  6  0  0  0
  7  6  1  0  0  0  0
  8  7  1  1  0  0  0
  8 11  1  0  0  0  0
  9 14  1  6  0  0  0
  9 11  1  0  0  0  0
  9 16  1  0  0  0  0
 10  9  1  0  0  0  0
 12 20  1  6  0  0  0
 12 13  1  0  0  0  0
 12 10  1  0  0  0  0
 13 22  1  6  0  0  0
 13  8  1  0  0  0  0
 14 15  1  0  0  0  0
 16 17  2  0  0  0  0
 16 18  1  0  0  0  0
 18 19  1  0  0  0  0
 20 21  1  0  0  0  0
 22 24  1  0  0  0  0
 23 22  1  0  0  0  0
 25 23  1  0  0  0  0
 26 23  2  0  0  0  0
 27 28  1  0  0  0  0
 29 30  1  0  0  0  0
 31  2  1  0  0  0  0
 31 32  1  0  0  0  0
 33 35  1  0  0  0  0
 33 32  1  0  0  0  0
 34 33  2  0  0  0  0
 36 34  1  0  0  0  0
 36 37  1  0  0  0  0
 37 35  2  0  0  0  0
 38 36  1  0  0  0  0
 39 38  2  0  0  0  0
 40 38  1  0  0  0  0
 40 45  1  0  0  0  0
 41 39  1  0  0  0  0
 42 40  2  0  0  0  0
 43 41  1  0  0  0  0
 44 41  2  0  0  0  0
 44 42  1  0  0  0  0
 45 46  2  0  0  0  0
 47 45  1  0  0  0  0
 47 49  1  0  0  0  0
 48 47  1  0  0  0  0
 50 51  1  0  0  0  0
 52 51  1  0  0  0  0
 52 53  1  0  0  0  0
 53 54  1  0  0  0  0
 55 54  1  0  0  0  0
M  END
>  <REMARK>
 VINA RESULT:    -4.795      5.516      9.420
 INTER + INTRA:         -14.765
 INTER:                  -8.809
 INTRA:                  -5.956
 UNBOUND:                -6.187
 SMILES CC(=O)N[C@@H]1[C@@H](O)C[C@](O)(C(=O)O)O[C@H]1C(O)[C@H](O)CNC(=O)OCc1cn(-c2cc(Cl)ccc2C(=O)N(C)C)nn1
 SMILES IDX 21 1 22 2 23 3 20 5 18 6 16 7 15 8 9 9 8 10 14 11 6 12 5 13
 SMILES IDX 10 14 11 16 12 17 13 18 7 20 4 22 2 23 1 25 3 26 17 27 19 29
 SMILES IDX 24 31 25 32 26 33 27 34 42 35 28 36 41 37 29 38 30 39 35 40
 SMILES IDX 31 41 34 42 32 43 33 44 36 45 37 46 38 47 39 48 40 49
 H PARENT 21 4 10 15 13 19 7 21 4 24 17 28 19 30
 Flexibility Score: inf
  4 active torsions:
  status: ('A' for Active; 'I' for Inactive)
    1  A    between atoms: CA   and  CB  
    2  A    between atoms: CB   and  CG  
    3  A    between atoms: CG   and  CD  
    4  A    between atoms: CD   and  CE  

>  <TORSDO>
F 16

>  <BEGIN_>
RES LYS A 131

$$$$
ligand_85_pose_10_2HRL.pdbqt
 OpenBabel07062320523D

  6  5  0  0  0  0  0  0  0  0999 V2000
   33.1930   34.6630    9.2900 C   0  0  0  0  0  0  0  0  0  0  0  0
   32.0600   35.3600   10.0340 C   0  0  0  0  0  0  0  0  0  0  0  0
   30.6980   34.7950    9.7230 C   0  0  0  0  0  0  0  0  0  0  0  0
   30.5240   34.6090    8.2240 C   0  0  0  0  0  0  0  0  0  0  0  0
   29.0890   34.8800    7.8160 C   0  0  0  0  0  0  0  0  0  0  0  0
   29.0280   35.5880    6.5070 N   0  0  0  0  0  0  0  0  0  0  0  0
  1  2  1  0  0  0  0
  3  2  1  0  0  0  0
  4  3  1  0  0  0  0
  5  4  1  0  0  0  0
  6  5  1  0  0  0  0
M  END
>  <EGIN_R>
ES LYS A 135

>  <REMARK>
  4 active torsions:
  status: ('A' for Active; 'I' for Inactive)
    5  A    between atoms: CA   and  CB  
    6  A    between atoms: CB   and  CG  
    7  A    between atoms: CG   and  CD  
    8  A    between atoms: CD   and  CE  

$$$$
