ligand_4_pose_11_2HRL.pdbqt
 OpenBabel07062320523D

 52 53  0  0  1  0  0  0  0  0999 V2000
   26.7520   29.9980   18.1870 N   0  0  0  0  0  0  0  0  0  0  0  0
   27.3670   29.3730   17.0850 C   0  0  0  0  0  0  0  0  0  0  0  0
   27.3950   28.1300   16.9780 O   0  0  0  0  0  0  0  0  0  0  0  0
   26.7480   31.0530   18.2180 H   0  0  0  0  0  0  0  0  0  0  0  0
   26.1420   29.2620   19.2390 C   0  0  0  0  0  0  0  0  0  0  0  0
   26.3810   29.8350   20.6350 C   0  0  2  0  0  0  0  0  0  0  0  0
   27.7500   29.2660   21.0160 C   0  0  2  0  0  0  0  0  0  0  0  0
   28.8110   30.3140   21.1210 C   0  0  2  0  0  0  0  0  0  0  0  0
   30.0210   31.3620   19.4430 C   0  0  2  0  0  0  0  0  0  0  0  0
   31.2280   31.4580   20.3080 C   0  0  0  0  0  0  0  0  0  0  0  0
   28.8170   31.1200   20.0330 O   0  0  0  0  0  0  0  0  0  0  0  0
   31.2610   30.5160   21.4920 C   0  0  1  0  0  0  0  0  0  0  0  0
   30.1200   29.5600   21.3040 C   0  0  1  0  0  0  0  0  0  0  0  0
   30.2710   30.4560   18.3800 O   0  0  0  0  0  0  0  0  0  0  0  0
   30.1780   30.8590   17.4970 H   0  0  0  0  0  0  0  0  0  0  0  0
   29.8720   32.7090   18.7800 C   0  0  0  0  0  0  0  0  0  0  0  0
   28.7890   33.3170   18.9150 O   0  0  0  0  0  0  0  0  0  0  0  0
   30.8850   33.3030   18.0390 O   0  0  0  0  0  0  0  0  0  0  0  0
   30.9660   33.2450   17.0260 H   0  0  0  0  0  0  0  0  0  0  0  0
   32.4890   29.7870   21.4380 O   0  0  0  0  0  0  0  0  0  0  0  0
   33.2300   30.3690   21.1480 H   0  0  0  0  0  0  0  0  0  0  0  0
   29.9640   28.5020   22.2240 N   0  0  0  0  0  0  0  0  0  0  0  0
   30.5380   27.2140   22.0930 C   0  0  0  0  0  0  0  0  0  0  0  0
   29.3630   28.6590   23.1030 H   0  0  0  0  0  0  0  0  0  0  0  0
   30.3620   26.1260   23.0630 C   0  0  0  0  0  0  0  0  0  0  0  0
   31.2560   27.0320   21.0200 O   0  0  0  0  0  0  0  0  0  0  0  0
   28.0190   28.3010   20.0410 O   0  0  0  0  0  0  0  0  0  0  0  0
   28.9920   28.3500   19.8440 H   0  0  0  0  0  0  0  0  0  0  0  0
   25.4530   29.4710   21.5550 O   0  0  0  0  0  0  0  0  0  0  0  0
   24.5840   29.3120   21.1940 H   0  0  0  0  0  0  0  0  0  0  0  0
   27.9660   30.1300   16.0770 O   0  0  0  0  0  0  0  0  0  0  0  0
   27.6600   31.5160   16.0260 C   0  0  0  0  0  0  0  0  0  0  0  0
   28.8590   32.1650   15.4380 C   0  0  0  0  0  0  0  0  0  0  0  0
   28.8350   33.4170   14.8110 C   0  0  0  0  0  0  0  0  0  0  0  0
   30.1410   31.7730   15.4840 N   0  0  0  0  0  0  0  0  0  0  0  0
   30.1210   33.6980   14.5270 N   0  0  0  0  0  0  0  0  0  0  0  0
   30.8380   32.7300   14.9320 N   0  0  0  0  0  0  0  0  0  0  0  0
   30.5550   34.9390   14.0040 C   0  0  0  0  0  0  0  0  0  0  0  0
   31.7040   35.4920   14.4240 C   0  0  0  0  0  0  0  0  0  0  0  0
   29.6860   35.6600   13.1730 C   0  0  0  0  0  0  0  0  0  0  0  0
   32.0180   36.7900   14.0240 C   0  0  0  0  0  0  0  0  0  0  0  0
   29.9730   36.9140   12.7770 C   0  0  0  0  0  0  0  0  0  0  0  0
   31.1520   37.5150   13.1950 C   0  0  0  0  0  0  0  0  0  0  0  0
   32.6820   34.7240   15.1680 C   0  0  0  0  0  0  0  0  0  0  0  0
   33.2640   35.4960   16.3420 C   0  0  0  0  0  0  0  0  0  0  0  0
   33.9680   34.6790   14.2280 C   0  0  0  0  0  0  0  0  0  0  0  0
   29.8670   25.5550   16.9770 C   0  0  0  0  0  0  0  0  0  0  0  0
   28.3450   25.7220   17.0260 C   0  0  0  0  0  0  0  0  0  0  0  0
   27.6010   24.4020   16.8930 C   0  0  0  0  0  0  0  0  0  0  0  0
   26.1590   24.5210   17.3000 C   0  0  0  0  0  0  0  0  0  0  0  0
   25.9620   23.8790   18.6700 C   0  0  0  0  0  0  0  0  0  0  0  0
   25.5910   24.9040   19.6750 N   0  0  0  0  0  0  0  0  0  0  0  0
  1  4  1  0  0  0  0
  1  5  1  0  0  0  0
  2  1  1  0  0  0  0
  3  2  2  0  0  0  0
  6  5  1  6  0  0  0
  6  7  1  0  0  0  0
  6 29  1  0  0  0  0
  7 27  1  6  0  0  0
  8  7  1  6  0  0  0
  8 13  1  0  0  0  0
  9 14  1  6  0  0  0
  9 11  1  0  0  0  0
  9 10  1  0  0  0  0
 10 12  1  0  0  0  0
 11  8  1  0  0  0  0
 12 20  1  6  0  0  0
 13 12  1  0  0  0  0
 13 22  1  1  0  0  0
 15 14  1  0  0  0  0
 16 17  2  0  0  0  0
 16  9  1  0  0  0  0
 18 16  1  0  0  0  0
 19 18  1  0  0  0  0
 21 20  1  0  0  0  0
 22 24  1  0  0  0  0
 23 22  1  0  0  0  0
 23 25  1  0  0  0  0
 26 23  2  0  0  0  0
 28 27  1  0  0  0  0
 30 29  1  0  0  0  0
 31  2  1  0  0  0  0
 32 31  1  0  0  0  0
 33 35  1  0  0  0  0
 33 32  1  0  0  0  0
 34 33  2  0  0  0  0
 36 34  1  0  0  0  0
 36 37  1  0  0  0  0
 37 35  2  0  0  0  0
 38 39  2  0  0  0  0
 38 36  1  0  0  0  0
 39 44  1  0  0  0  0
 40 38  1  0  0  0  0
 41 39  1  0  0  0  0
 42 40  2  0  0  0  0
 42 43  1  0  0  0  0
 43 41  2  0  0  0  0
 44 45  1  0  0  0  0
 46 44  1  0  0  0  0
 47 48  1  0  0  0  0
 49 48  1  0  0  0  0
 49 50  1  0  0  0  0
 50 51  1  0  0  0  0
 51 52  1  0  0  0  0
M  END
>  <REMARK>
 VINA RESULT:    -4.148      6.154     11.770
 INTER + INTRA:         -14.659
 INTER:                  -8.326
 INTRA:                  -6.333
 UNBOUND:                -7.237
 SMILES CC(=O)N[C@@H]1[C@@H](O)C[C@](O)(C(=O)O)O[C@H]1C(O)[C@H](O)CNC(=O)OCc1cn(-c2ccccc2C(C)C)nn1
 SMILES IDX 21 1 22 2 23 3 20 5 18 6 16 7 15 8 9 9 8 10 14 11 6 12 5 13
 SMILES IDX 10 14 11 16 12 17 13 18 7 20 4 22 2 23 1 25 3 26 17 27 19 29
 SMILES IDX 24 31 25 32 26 33 27 34 39 35 28 36 38 37 29 38 34 39 30 40
 SMILES IDX 33 41 31 42 32 43 35 44 36 45 37 46
 H PARENT 21 4 10 15 13 19 7 21 4 24 17 28 19 30
 Flexibility Score: inf
  4 active torsions:
  status: ('A' for Active; 'I' for Inactive)
    1  A    between atoms: CA   and  CB  
    2  A    between atoms: CB   and  CG  
    3  A    between atoms: CG   and  CD  
    4  A    between atoms: CD   and  CE  

>  <TORSDO>
F 16

>  <BEGIN_>
RES LYS A 131

$$$$
ligand_4_pose_11_2HRL.pdbqt
 OpenBabel07062320523D

  6  5  0  0  0  0  0  0  0  0999 V2000
   33.1930   34.6630    9.2900 C   0  0  0  0  0  0  0  0  0  0  0  0
   32.0600   35.3600   10.0340 C   0  0  0  0  0  0  0  0  0  0  0  0
   30.7100   34.7310    9.8020 C   0  0  0  0  0  0  0  0  0  0  0  0
   30.3940   34.6710    8.3160 C   0  0  0  0  0  0  0  0  0  0  0  0
   29.3370   35.6970    7.9540 C   0  0  0  0  0  0  0  0  0  0  0  0
   28.9080   35.5480    6.5360 N   0  0  0  0  0  0  0  0  0  0  0  0
  1  2  1  0  0  0  0
  3  2  1  0  0  0  0
  4  3  1  0  0  0  0
  5  4  1  0  0  0  0
  6  5  1  0  0  0  0
M  END
>  <EGIN_R>
ES LYS A 135

>  <REMARK>
  4 active torsions:
  status: ('A' for Active; 'I' for Inactive)
    5  A    between atoms: CA   and  CB  
    6  A    between atoms: CB   and  CG  
    7  A    between atoms: CG   and  CD  
    8  A    between atoms: CD   and  CE  

$$$$
