ligand_31_pose_19_2HRL.pdbqt
 OpenBabel07062320523D

 57 58  0  0  1  0  0  0  0  0999 V2000
   23.1130   36.8110   17.5090 O   0  0  0  0  0  0  0  0  0  0  0  0
   24.1130   35.9670   17.9810 C   0  0  0  0  0  0  0  0  0  0  0  0
   25.4170   35.9170   17.4680 N   0  0  0  0  0  0  0  0  0  0  0  0
   25.6870   36.5340   16.6890 H   0  0  0  0  0  0  0  0  0  0  0  0
   23.8180   35.1990   18.9340 O   0  0  0  0  0  0  0  0  0  0  0  0
   26.3950   34.9870   18.0410 C   0  0  0  0  0  0  0  0  0  0  0  0
   26.6100   33.8520   17.0760 C   0  0  2  0  0  0  0  0  0  0  0  0
   27.2330   34.3040   15.7850 C   0  0  1  0  0  0  0  0  0  0  0  0
   28.5160   33.5870   15.4770 C   0  0  2  0  0  0  0  0  0  0  0  0
   30.2920   32.5990   16.6290 C   0  0  2  0  0  0  0  0  0  0  0  0
   31.2070   32.7910   15.4630 C   0  0  0  0  0  0  0  0  0  0  0  0
   29.2240   33.4350   16.6830 O   0  0  0  0  0  0  0  0  0  0  0  0
   30.6010   33.4040   14.2660 C   0  0  1  0  0  0  0  0  0  0  0  0
   29.4630   34.3550   14.5870 C   0  0  1  0  0  0  0  0  0  0  0  0
   31.0790   32.8900   17.7740 O   0  0  0  0  0  0  0  0  0  0  0  0
   30.5590   33.4160   18.4310 H   0  0  0  0  0  0  0  0  0  0  0  0
   29.8370   31.1950   16.7820 C   0  0  0  0  0  0  0  0  0  0  0  0
   29.3000   30.5660   15.8260 O   0  0  0  0  0  0  0  0  0  0  0  0
   29.9680   30.4890   17.9710 O   0  0  0  0  0  0  0  0  0  0  0  0
   29.1640   30.3610   18.5760 H   0  0  0  0  0  0  0  0  0  0  0  0
   31.5900   34.0850   13.5260 O   0  0  0  0  0  0  0  0  0  0  0  0
   31.8580   33.5840   12.7300 H   0  0  0  0  0  0  0  0  0  0  0  0
   28.8990   34.8870   13.3950 N   0  0  0  0  0  0  0  0  0  0  0  0
   29.0070   36.2920   13.1500 C   0  0  0  0  0  0  0  0  0  0  0  0
   28.4110   34.3240   12.6670 H   0  0  0  0  0  0  0  0  0  0  0  0
   28.4560   36.9420   11.9420 C   0  0  0  0  0  0  0  0  0  0  0  0
   29.5980   37.0300   13.9910 O   0  0  0  0  0  0  0  0  0  0  0  0
   26.3450   34.3540   14.7260 O   0  0  0  0  0  0  0  0  0  0  0  0
   25.8860   35.2260   14.6290 H   0  0  0  0  0  0  0  0  0  0  0  0
   25.3070   33.4050   16.7230 O   0  0  0  0  0  0  0  0  0  0  0  0
   25.1890   33.7380   15.7810 H   0  0  0  0  0  0  0  0  0  0  0  0
   21.9870   36.3060   16.8230 C   0  0  0  0  0  0  0  0  0  0  0  0
   22.4600   35.3480   15.8000 C   0  0  0  0  0  0  0  0  0  0  0  0
   21.9600   34.1000   15.5430 C   0  0  0  0  0  0  0  0  0  0  0  0
   23.4720   35.5430   14.9400 N   0  0  0  0  0  0  0  0  0  0  0  0
   22.6790   33.5730   14.5360 N   0  0  0  0  0  0  0  0  0  0  0  0
   23.5970   34.4530   14.1720 N   0  0  0  0  0  0  0  0  0  0  0  0
   22.5030   32.2540   13.9220 C   0  0  0  0  0  0  0  0  0  0  0  0
   23.8070   31.8830   13.2650 C   0  0  0  0  0  0  0  0  0  0  0  0
   24.8240   31.7280   14.2740 N   0  0  0  0  0  0  0  0  0  0  0  0
   25.0670   30.5280   14.9830 C   0  0  0  0  0  0  0  0  0  0  0  0
   25.4460   32.5490   14.5210 H   0  0  0  0  0  0  0  0  0  0  0  0
   24.3470   29.5190   14.7170 O   0  0  0  0  0  0  0  0  0  0  0  0
   26.0930   30.4770   15.9620 N   0  0  0  0  0  0  0  0  0  0  0  0
   26.6950   31.2860   16.1980 H   0  0  0  0  0  0  0  0  0  0  0  0
   26.3110   29.2330   16.6660 C   0  0  0  0  0  0  0  0  0  0  0  0
   26.5700   29.5400   18.0890 C   0  0  0  0  0  0  0  0  0  0  0  0
   26.4870   28.6020   19.1120 C   0  0  0  0  0  0  0  0  0  0  0  0
   26.9020   30.6840   18.5980 O   0  0  0  0  0  0  0  0  0  0  0  0
   26.7980   29.2890   20.2660 C   0  0  0  0  0  0  0  0  0  0  0  0
   27.0500   30.5910   19.8840 C   0  0  0  0  0  0  0  0  0  0  0  0
   29.8670   25.5550   16.9770 C   0  0  0  0  0  0  0  0  0  0  0  0
   28.3450   25.7220   17.0260 C   0  0  0  0  0  0  0  0  0  0  0  0
   27.5990   24.4280   16.7400 C   0  0  0  0  0  0  0  0  0  0  0  0
   26.9950   23.8360   17.9840 C   0  0  0  0  0  0  0  0  0  0  0  0
   25.5610   23.4030   17.6970 C   0  0  0  0  0  0  0  0  0  0  0  0
   24.8570   24.4360   16.9000 N   0  0  0  0  0  0  0  0  0  0  0  0
  1  2  1  0  0  0  0
  2  5  2  0  0  0  0
  3  2  1  0  0  0  0
  3  6  1  0  0  0  0
  4  3  1  0  0  0  0
  7  6  1  1  0  0  0
  8 28  1  6  0  0  0
  8  7  1  0  0  0  0
  9  8  1  1  0  0  0
  9 12  1  0  0  0  0
 10 12  1  0  0  0  0
 10 17  1  1  0  0  0
 10 15  1  0  0  0  0
 11 10  1  0  0  0  0
 13 21  1  1  0  0  0
 13 14  1  0  0  0  0
 13 11  1  0  0  0  0
 14 23  1  6  0  0  0
 14  9  1  0  0  0  0
 15 16  1  0  0  0  0
 17 19  1  0  0  0  0
 18 17  2  0  0  0  0
 19 20  1  0  0  0  0
 22 21  1  0  0  0  0
 24 23  1  0  0  0  0
 24 27  2  0  0  0  0
 25 23  1  0  0  0  0
 26 24  1  0  0  0  0
 29 28  1  0  0  0  0
 30  7  1  0  0  0  0
 31 30  1  0  0  0  0
 32  1  1  0  0  0  0
 33 32  1  0  0  0  0
 34 33  2  0  0  0  0
 35 33  1  0  0  0  0
 36 34  1  0  0  0  0
 37 36  1  0  0  0  0
 37 35  2  0  0  0  0
 38 36  1  0  0  0  0
 39 38  1  0  0  0  0
 39 40  1  0  0  0  0
 40 42  1  0  0  0  0
 40 41  1  0  0  0  0
 41 44  1  0  0  0  0
 43 41  2  0  0  0  0
 44 45  1  0  0  0  0
 44 46  1  0  0  0  0
 46 47  1  0  0  0  0
 47 49  1  0  0  0  0
 47 48  2  0  0  0  0
 48 50  1  0  0  0  0
 49 51  1  0  0  0  0
 51 50  2  0  0  0  0
 52 53  1  0  0  0  0
 54 53  1  0  0  0  0
 54 55  1  0  0  0  0
 56 55  1  0  0  0  0
 57 56  1  0  0  0  0
M  END
>  <REMARK>
 VINA RESULT:    -4.793      4.522      7.701
 INTER + INTRA:         -15.325
 INTER:                  -6.594
 INTRA:                  -8.731
 UNBOUND:                -5.909
 SMILES CC(=O)N[C@@H]1[C@@H](O)C[C@](O)(C(=O)O)O[C@H]1C(O)[C@H](O)CNC(=O)OCc1cn(CCNC(=O)NCc2ccco2)nn1
 SMILES IDX 24 1 22 2 21 3 23 5 20 6 18 7 16 8 15 9 9 10 8 11 14 12 6 13
 SMILES IDX 5 14 10 15 11 17 12 18 13 19 7 21 4 23 2 24 1 26 3 27 17 28
 SMILES IDX 19 30 25 32 26 33 27 34 42 35 28 36 41 37 29 38 30 39 31 40
 SMILES IDX 32 41 33 43 34 44 35 46 36 47 37 48 40 49 38 50 39 51
 H PARENT 21 4 10 16 13 20 7 22 4 25 17 29 19 31 31 42 34 45
 Flexibility Score: inf
  4 active torsions:
  status: ('A' for Active; 'I' for Inactive)
    1  A    between atoms: CA   and  CB  
    2  A    between atoms: CB   and  CG  
    3  A    between atoms: CG   and  CD  
    4  A    between atoms: CD   and  CE  

>  <TORSDO>
F 19

>  <BEGIN_>
RES LYS A 131

$$$$
ligand_31_pose_19_2HRL.pdbqt
 OpenBabel07062320523D

  6  5  0  0  0  0  0  0  0  0999 V2000
   33.1930   34.6630    9.2900 C   0  0  0  0  0  0  0  0  0  0  0  0
   32.0600   35.3600   10.0340 C   0  0  0  0  0  0  0  0  0  0  0  0
   30.7380   34.6460    9.9230 C   0  0  0  0  0  0  0  0  0  0  0  0
   30.3240   34.5050    8.4660 C   0  0  0  0  0  0  0  0  0  0  0  0
   28.8140   34.5350    8.3360 C   0  0  0  0  0  0  0  0  0  0  0  0
   28.1630   33.8220    9.4700 N   0  0  0  0  0  0  0  0  0  0  0  0
  1  2  1  0  0  0  0
  3  2  1  0  0  0  0
  4  3  1  0  0  0  0
  5  4  1  0  0  0  0
  5  6  1  0  0  0  0
M  END
>  <EGIN_R>
ES LYS A 135

>  <REMARK>
  4 active torsions:
  status: ('A' for Active; 'I' for Inactive)
    5  A    between atoms: CA   and  CB  
    6  A    between atoms: CB   and  CG  
    7  A    between atoms: CG   and  CD  
    8  A    between atoms: CD   and  CE  

$$$$
