ligand_43_pose_15_2HRL.pdbqt
 OpenBabel07062320523D

 49 49  0  0  1  0  0  0  0  0999 V2000
   29.9090   30.7710   18.7460 O   0  0  0  0  0  0  0  0  0  0  0  0
   30.4050   30.3860   19.9760 C   0  0  0  0  0  0  0  0  0  0  0  0
   31.4450   29.3980   19.9830 N   0  0  0  0  0  0  0  0  0  0  0  0
   31.7750   29.0220   19.0730 H   0  0  0  0  0  0  0  0  0  0  0  0
   29.9650   30.8810   21.0640 O   0  0  0  0  0  0  0  0  0  0  0  0
   32.0280   28.9290   21.1940 C   0  0  0  0  0  0  0  0  0  0  0  0
   31.6250   27.4990   21.5580 C   0  0  2  0  0  0  0  0  0  0  0  0
   30.6820   27.6240   22.7280 C   0  0  2  0  0  0  0  0  0  0  0  0
   29.2880   27.1720   22.4380 C   0  0  2  0  0  0  0  0  0  0  0  0
   27.6050   27.8970   21.0130 C   0  0  2  0  0  0  0  0  0  0  0  0
   26.7180   27.0290   21.8810 C   0  0  0  0  0  0  0  0  0  0  0  0
   28.9300   27.5270   21.1650 O   0  0  0  0  0  0  0  0  0  0  0  0
   26.9490   27.4420   23.3170 C   0  0  1  0  0  0  0  0  0  0  0  0
   28.3950   27.8460   23.4880 C   0  0  1  0  0  0  0  0  0  0  0  0
   27.3980   29.2480   21.2760 O   0  0  0  0  0  0  0  0  0  0  0  0
   26.9710   29.3610   22.1550 H   0  0  0  0  0  0  0  0  0  0  0  0
   27.1950   27.6590   19.6060 C   0  0  0  0  0  0  0  0  0  0  0  0
   25.9890   27.6510   19.2500 O   0  0  0  0  0  0  0  0  0  0  0  0
   28.1320   27.4290   18.5850 O   0  0  0  0  0  0  0  0  0  0  0  0
   28.6100   26.5310   18.5840 H   0  0  0  0  0  0  0  0  0  0  0  0
   26.1670   28.5470   23.5980 O   0  0  0  0  0  0  0  0  0  0  0  0
   26.6350   29.1300   24.2460 H   0  0  0  0  0  0  0  0  0  0  0  0
   28.9040   27.4800   24.7980 N   0  0  0  0  0  0  0  0  0  0  0  0
   28.7540   28.3010   25.9510 C   0  0  0  0  0  0  0  0  0  0  0  0
   29.4190   26.5690   24.9600 H   0  0  0  0  0  0  0  0  0  0  0  0
   29.2830   27.9140   27.2930 C   0  0  0  0  0  0  0  0  0  0  0  0
   28.1440   29.3950   25.7910 O   0  0  0  0  0  0  0  0  0  0  0  0
   30.7410   28.9680   23.1320 O   0  0  0  0  0  0  0  0  0  0  0  0
   31.6680   29.2480   23.3400 H   0  0  0  0  0  0  0  0  0  0  0  0
   32.7260   26.7070   21.8070 O   0  0  0  0  0  0  0  0  0  0  0  0
   32.5540   25.7520   21.8610 H   0  0  0  0  0  0  0  0  0  0  0  0
   28.6870   31.4540   18.6560 C   0  0  0  0  0  0  0  0  0  0  0  0
   27.8350   30.6880   17.6880 C   0  0  0  0  0  0  0  0  0  0  0  0
   26.4570   30.8170   17.6020 C   0  0  0  0  0  0  0  0  0  0  0  0
   28.1730   29.7850   16.7680 N   0  0  0  0  0  0  0  0  0  0  0  0
   26.0140   29.9960   16.6420 N   0  0  0  0  0  0  0  0  0  0  0  0
   27.0750   29.3820   16.1540 N   0  0  0  0  0  0  0  0  0  0  0  0
   24.6550   29.7670   16.1740 C   0  0  0  0  0  0  0  0  0  0  0  0
   24.5180   30.2380   14.7510 C   0  0  0  0  0  0  0  0  0  0  0  0
   23.6960   29.2770   13.9280 C   0  0  0  0  0  0  0  0  0  0  0  0
   23.0510   29.9450   12.7420 C   0  0  0  0  0  0  0  0  0  0  0  0
   21.8250   29.2130   12.3510 C   0  0  0  0  0  0  0  0  0  0  0  0
   20.6750   29.8120   12.1340 C   0  0  0  0  0  0  0  0  0  0  0  0
   29.8670   25.5550   16.9770 C   0  0  0  0  0  0  0  0  0  0  0  0
   28.3450   25.7220   17.0260 C   0  0  0  0  0  0  0  0  0  0  0  0
   27.6010   24.4040   16.8760 C   0  0  0  0  0  0  0  0  0  0  0  0
   26.2900   24.4060   17.6130 C   0  0  0  0  0  0  0  0  0  0  0  0
   25.6720   23.0130   17.5570 C   0  0  0  0  0  0  0  0  0  0  0  0
   24.4350   22.9610   18.3720 N   0  0  0  0  0  0  0  0  0  0  0  0
  1  2  1  0  0  0  0
  2  3  1  0  0  0  0
  2  5  2  0  0  0  0
  3  6  1  0  0  0  0
  4  3  1  0  0  0  0
  7  6  1  1  0  0  0
  7 30  1  0  0  0  0
  7  8  1  0  0  0  0
  8 28  1  6  0  0  0
  9  8  1  1  0  0  0
  9 14  1  0  0  0  0
 10 17  1  6  0  0  0
 10 12  1  0  0  0  0
 10 15  1  0  0  0  0
 10 11  1  0  0  0  0
 11 13  1  0  0  0  0
 12  9  1  0  0  0  0
 13 14  1  0  0  0  0
 13 21  1  6  0  0  0
 14 23  1  1  0  0  0
 15 16  1  0  0  0  0
 18 17  2  0  0  0  0
 19 17  1  0  0  0  0
 20 19  1  0  0  0  0
 21 22  1  0  0  0  0
 23 25  1  0  0  0  0
 23 24  1  0  0  0  0
 24 26  1  0  0  0  0
 27 24  2  0  0  0  0
 28 29  1  0  0  0  0
 30 31  1  0  0  0  0
 32  1  1  0  0  0  0
 33 32  1  0  0  0  0
 34 33  2  0  0  0  0
 35 33  1  0  0  0  0
 36 34  1  0  0  0  0
 37 36  1  0  0  0  0
 37 35  2  0  0  0  0
 38 36  1  0  0  0  0
 39 38  1  0  0  0  0
 40 39  1  0  0  0  0
 41 40  1  0  0  0  0
 42 41  1  0  0  0  0
 43 42  2  0  0  0  0
 44 45  1  0  0  0  0
 46 45  1  0  0  0  0
 46 47  1  0  0  0  0
 48 47  1  0  0  0  0
 48 49  1  0  0  0  0
M  END
>  <REMARK>
 VINA RESULT:    -4.722      5.805     10.131
 INTER + INTRA:         -14.063
 INTER:                  -7.435
 INTRA:                  -6.628
 UNBOUND:                -4.785
 SMILES C=CCCCCn1cc(COC(=O)NC[C@@H](O)C(O)[C@@H]2O[C@@](O)(C(=O)O)C[C@H](O)[C@H]2NC(C)=O)nn1
 SMILES IDX 11 1 12 2 14 3 13 5 15 6 16 7 18 8 20 9 22 10 27 11 21 12
 SMILES IDX 28 13 30 14 23 15 24 17 25 18 26 19 29 21 31 23 32 24 33 26
 SMILES IDX 34 27 19 28 17 30 10 32 9 33 8 34 35 35 7 36 36 37 6 38 5 39
 SMILES IDX 4 40 3 41 2 42 1 43
 H PARENT 14 4 23 16 26 20 29 22 31 25 19 29 17 31
 Flexibility Score: inf
  4 active torsions:
  status: ('A' for Active; 'I' for Inactive)
    1  A    between atoms: CA   and  CB  
    2  A    between atoms: CB   and  CG  
    3  A    between atoms: CG   and  CD  
    4  A    between atoms: CD   and  CE  

>  <TORSDO>
F 19

>  <BEGIN_>
RES LYS A 131

$$$$
ligand_43_pose_15_2HRL.pdbqt
 OpenBabel07062320523D

  6  5  0  0  0  0  0  0  0  0999 V2000
   33.1930   34.6630    9.2900 C   0  0  0  0  0  0  0  0  0  0  0  0
   32.0600   35.3600   10.0340 C   0  0  0  0  0  0  0  0  0  0  0  0
   30.8010   35.5030    9.2180 C   0  0  0  0  0  0  0  0  0  0  0  0
   30.2460   34.1370    8.8440 C   0  0  0  0  0  0  0  0  0  0  0  0
   28.7690   34.0540    9.1760 C   0  0  0  0  0  0  0  0  0  0  0  0
   28.5160   34.4220   10.5970 N   0  0  0  0  0  0  0  0  0  0  0  0
  1  2  1  0  0  0  0
  3  2  1  0  0  0  0
  4  5  1  0  0  0  0
  4  3  1  0  0  0  0
  5  6  1  0  0  0  0
M  END
>  <EGIN_R>
ES LYS A 135

>  <REMARK>
  4 active torsions:
  status: ('A' for Active; 'I' for Inactive)
    5  A    between atoms: CA   and  CB  
    6  A    between atoms: CB   and  CG  
    7  A    between atoms: CG   and  CD  
    8  A    between atoms: CD   and  CE  

$$$$
