ligand_35_pose_4_2HRL.pdbqt
 OpenBabel07062320523D

 49 49  0  0  1  0  0  0  0  0999 V2000
   27.4470   30.6210   15.8930 N   0  0  0  0  0  0  0  0  0  0  0  0
   26.7830   29.9940   16.9730 C   0  0  0  0  0  0  0  0  0  0  0  0
   27.4130   29.3700   17.8630 O   0  0  0  0  0  0  0  0  0  0  0  0
   26.8810   31.1230   15.1840 H   0  0  0  0  0  0  0  0  0  0  0  0
   28.8730   30.5830   15.7530 C   0  0  0  0  0  0  0  0  0  0  0  0
   29.5930   31.5330   16.7160 C   0  0  2  0  0  0  0  0  0  0  0  0
   30.3810   32.4880   15.8890 C   0  0  2  0  0  0  0  0  0  0  0  0
   29.6250   33.2690   14.8680 C   0  0  2  0  0  0  0  0  0  0  0  0
   31.3390   34.6880   14.1590 C   0  0  2  0  0  0  0  0  0  0  0  0
   31.0050   35.5320   15.3230 C   0  0  0  0  0  0  0  0  0  0  0  0
   30.5220   33.6270   13.8720 O   0  0  0  0  0  0  0  0  0  0  0  0
   29.5730   35.6210   15.7170 C   0  0  1  0  0  0  0  0  0  0  0  0
   28.7900   34.3950   15.3430 C   0  0  1  0  0  0  0  0  0  0  0  0
   32.6080   34.1140   14.4390 O   0  0  0  0  0  0  0  0  0  0  0  0
   32.4950   33.1400   14.4030 H   0  0  0  0  0  0  0  0  0  0  0  0
   31.5360   35.5510   12.9630 C   0  0  0  0  0  0  0  0  0  0  0  0
   30.6250   36.3070   12.5280 O   0  0  0  0  0  0  0  0  0  0  0  0
   32.7400   35.5550   12.2800 O   0  0  0  0  0  0  0  0  0  0  0  0
   33.6450   35.5340   12.7390 H   0  0  0  0  0  0  0  0  0  0  0  0
   29.5350   35.8550   17.1050 O   0  0  0  0  0  0  0  0  0  0  0  0
   30.0570   35.1260   17.5180 H   0  0  0  0  0  0  0  0  0  0  0  0
   27.8900   34.7440   14.2250 N   0  0  0  0  0  0  0  0  0  0  0  0
   26.6090   34.1610   14.1080 C   0  0  0  0  0  0  0  0  0  0  0  0
   28.1630   35.4220   13.4900 H   0  0  0  0  0  0  0  0  0  0  0  0
   25.6780   34.4780   13.0090 C   0  0  0  0  0  0  0  0  0  0  0  0
   26.2150   33.3180   14.9800 O   0  0  0  0  0  0  0  0  0  0  0  0
   31.2700   31.6650   15.1240 O   0  0  0  0  0  0  0  0  0  0  0  0
   30.6830   30.9680   14.7380 H   0  0  0  0  0  0  0  0  0  0  0  0
   30.4110   30.7170   17.4860 O   0  0  0  0  0  0  0  0  0  0  0  0
   29.9040   30.4830   18.3050 H   0  0  0  0  0  0  0  0  0  0  0  0
   25.3810   30.0470   17.0880 O   0  0  0  0  0  0  0  0  0  0  0  0
   24.5650   29.0890   16.4400 C   0  0  0  0  0  0  0  0  0  0  0  0
   24.1040   29.5830   15.1180 C   0  0  0  0  0  0  0  0  0  0  0  0
   22.8580   29.3380   14.5340 C   0  0  0  0  0  0  0  0  0  0  0  0
   24.7560   30.3500   14.2160 N   0  0  0  0  0  0  0  0  0  0  0  0
   22.8100   29.9460   13.3460 N   0  0  0  0  0  0  0  0  0  0  0  0
   23.9550   30.5530   13.1600 N   0  0  0  0  0  0  0  0  0  0  0  0
   21.6870   29.9460   12.4010 C   0  0  1  0  0  0  0  0  0  0  0  0
   20.7570   28.7850   12.7090 C   0  0  0  0  0  0  0  0  0  0  0  0
   20.9540   31.2110   12.4250 C   0  0  0  0  0  0  0  0  0  0  0  0
   19.7490   31.2410   12.0870 O   0  0  0  0  0  0  0  0  0  0  0  0
   21.5180   32.4260   12.8070 O   0  0  0  0  0  0  0  0  0  0  0  0
   22.0470   32.5110   13.6670 H   0  0  0  0  0  0  0  0  0  0  0  0
   29.8670   25.5550   16.9770 C   0  0  0  0  0  0  0  0  0  0  0  0
   28.3450   25.7220   17.0260 C   0  0  0  0  0  0  0  0  0  0  0  0
   27.6010   24.4050   16.8710 C   0  0  0  0  0  0  0  0  0  0  0  0
   26.1560   24.5200   17.2700 C   0  0  0  0  0  0  0  0  0  0  0  0
   25.7890   23.3630   18.1940 C   0  0  0  0  0  0  0  0  0  0  0  0
   24.8190   22.4580   17.5330 N   0  0  0  0  0  0  0  0  0  0  0  0
  1  2  1  0  0  0  0
  2 31  1  0  0  0  0
  2  3  2  0  0  0  0
  4  1  1  0  0  0  0
  5  1  1  0  0  0  0
  6  5  1  6  0  0  0
  6 29  1  0  0  0  0
  7 27  1  6  0  0  0
  7  6  1  0  0  0  0
  8 13  1  0  0  0  0
  8  7  1  1  0  0  0
  9 16  1  6  0  0  0
  9 14  1  0  0  0  0
  9 10  1  0  0  0  0
 10 12  1  0  0  0  0
 11  9  1  0  0  0  0
 11  8  1  0  0  0  0
 12 20  1  1  0  0  0
 13 22  1  6  0  0  0
 13 12  1  0  0  0  0
 15 14  1  0  0  0  0
 17 16  2  0  0  0  0
 18 19  1  0  0  0  0
 18 16  1  0  0  0  0
 20 21  1  0  0  0  0
 23 22  1  0  0  0  0
 23 26  2  0  0  0  0
 24 22  1  0  0  0  0
 25 23  1  0  0  0  0
 28 27  1  0  0  0  0
 29 30  1  0  0  0  0
 32 31  1  0  0  0  0
 33 32  1  0  0  0  0
 34 33  2  0  0  0  0
 35 33  1  0  0  0  0
 36 34  1  0  0  0  0
 37 36  1  0  0  0  0
 37 35  2  0  0  0  0
 38 40  1  0  0  0  0
 38 39  1  1  0  0  0
 38 36  1  0  0  0  0
 40 42  1  0  0  0  0
 41 40  2  0  0  0  0
 42 43  1  0  0  0  0
 44 45  1  0  0  0  0
 46 45  1  0  0  0  0
 46 47  1  0  0  0  0
 47 48  1  0  0  0  0
 49 48  1  0  0  0  0
M  END
>  <REMARK>
 VINA RESULT:    -5.099      2.399      3.842
 INTER + INTRA:         -13.996
 INTER:                  -8.761
 INTRA:                  -5.235
 UNBOUND:                -4.724
 SMILES CC(=O)N[C@@H]1[C@@H](O)C[C@](O)(C(=O)O)O[C@H]1C(O)[C@H](O)CNC(=O)OCc1cn([C@@H](C)C(=O)O)nn1
 SMILES IDX 21 1 22 2 23 3 20 5 18 6 16 7 15 8 9 9 8 10 14 11 6 12 5 13
 SMILES IDX 10 14 11 16 12 17 13 18 7 20 4 22 2 23 1 25 3 26 17 27 19 29
 SMILES IDX 24 31 25 32 26 33 27 34 35 35 28 36 34 37 29 38 30 39 31 40
 SMILES IDX 32 41 33 42
 H PARENT 21 4 10 15 13 19 7 21 4 24 17 28 19 30 33 43
 Flexibility Score: inf
  4 active torsions:
  status: ('A' for Active; 'I' for Inactive)
    1  A    between atoms: CA   and  CB  
    2  A    between atoms: CB   and  CG  
    3  A    between atoms: CG   and  CD  
    4  A    between atoms: CD   and  CE  

>  <TORSDO>
F 17

>  <BEGIN_>
RES LYS A 131

$$$$
ligand_35_pose_4_2HRL.pdbqt
 OpenBabel07062320523D

  6  5  0  0  0  0  0  0  0  0999 V2000
   33.1930   34.6630    9.2900 C   0  0  0  0  0  0  0  0  0  0  0  0
   32.0600   35.3600   10.0340 C   0  0  0  0  0  0  0  0  0  0  0  0
   30.7890   35.4680    9.2320 C   0  0  0  0  0  0  0  0  0  0  0  0
   30.2160   34.0880    8.9460 C   0  0  0  0  0  0  0  0  0  0  0  0
   28.7100   34.0890    9.1280 C   0  0  0  0  0  0  0  0  0  0  0  0
   28.3400   34.3940   10.5380 N   0  0  0  0  0  0  0  0  0  0  0  0
  1  2  1  0  0  0  0
  3  2  1  0  0  0  0
  4  5  1  0  0  0  0
  4  3  1  0  0  0  0
  5  6  1  0  0  0  0
M  END
>  <EGIN_R>
ES LYS A 135

>  <REMARK>
  4 active torsions:
  status: ('A' for Active; 'I' for Inactive)
    5  A    between atoms: CA   and  CB  
    6  A    between atoms: CB   and  CG  
    7  A    between atoms: CG   and  CD  
    8  A    between atoms: CD   and  CE  

$$$$
