ligand_76_pose_11_2HRL.pdbqt
 OpenBabel07062320523D

 55 56  0  0  1  0  0  0  0  0999 V2000
   32.1260   34.2370   15.6300 O   0  0  0  0  0  0  0  0  0  0  0  0
   31.4440   33.2520   16.3220 C   0  0  0  0  0  0  0  0  0  0  0  0
   30.9340   32.1210   15.6500 N   0  0  0  0  0  0  0  0  0  0  0  0
   31.0750   32.0340   14.6270 H   0  0  0  0  0  0  0  0  0  0  0  0
   31.2740   33.3580   17.5570 O   0  0  0  0  0  0  0  0  0  0  0  0
   30.2130   31.0610   16.3410 C   0  0  0  0  0  0  0  0  0  0  0  0
   28.9320   30.7110   15.6060 C   0  0  2  0  0  0  0  0  0  0  0  0
   27.7590   31.1450   16.4680 C   0  0  1  0  0  0  0  0  0  0  0  0
   26.9730   32.2580   15.7680 C   0  0  2  0  0  0  0  0  0  0  0  0
   27.2710   34.2910   16.8760 C   0  0  2  0  0  0  0  0  0  0  0  0
   26.2550   33.8110   17.8520 C   0  0  0  0  0  0  0  0  0  0  0  0
   27.5580   33.4720   15.8440 O   0  0  0  0  0  0  0  0  0  0  0  0
   25.1010   33.1110   17.2290 C   0  0  1  0  0  0  0  0  0  0  0  0
   25.5270   32.1600   16.1430 C   0  0  1  0  0  0  0  0  0  0  0  0
   28.4660   34.5150   17.6020 O   0  0  0  0  0  0  0  0  0  0  0  0
   29.1360   34.9410   17.0080 H   0  0  0  0  0  0  0  0  0  0  0  0
   26.8340   35.6510   16.3960 C   0  0  0  0  0  0  0  0  0  0  0  0
   27.2570   36.7180   16.8970 O   0  0  0  0  0  0  0  0  0  0  0  0
   25.9180   35.7850   15.3470 O   0  0  0  0  0  0  0  0  0  0  0  0
   26.1530   36.3600   14.5260 H   0  0  0  0  0  0  0  0  0  0  0  0
   24.3780   32.4480   18.2490 O   0  0  0  0  0  0  0  0  0  0  0  0
   23.4970   32.1240   17.8950 H   0  0  0  0  0  0  0  0  0  0  0  0
   24.6800   32.2910   14.9560 N   0  0  0  0  0  0  0  0  0  0  0  0
   24.2510   31.1730   14.2270 C   0  0  0  0  0  0  0  0  0  0  0  0
   24.4100   33.2820   14.6810 H   0  0  0  0  0  0  0  0  0  0  0  0
   23.4010   31.3560   13.0380 C   0  0  0  0  0  0  0  0  0  0  0  0
   24.5850   30.0240   14.5740 O   0  0  0  0  0  0  0  0  0  0  0  0
   26.8840   30.0450   16.4840 O   0  0  0  0  0  0  0  0  0  0  0  0
   26.5670   29.8130   15.5600 H   0  0  0  0  0  0  0  0  0  0  0  0
   28.8750   29.3420   15.3740 O   0  0  0  0  0  0  0  0  0  0  0  0
   28.9670   28.8930   16.2480 H   0  0  0  0  0  0  0  0  0  0  0  0
   31.4260   35.4790   15.4470 C   0  0  0  0  0  0  0  0  0  0  0  0
   30.5180   35.3830   14.2830 C   0  0  0  0  0  0  0  0  0  0  0  0
   29.4770   36.2040   13.9190 C   0  0  0  0  0  0  0  0  0  0  0  0
   30.5810   34.4180   13.3480 N   0  0  0  0  0  0  0  0  0  0  0  0
   28.9410   35.7240   12.7870 N   0  0  0  0  0  0  0  0  0  0  0  0
   29.6090   34.6630   12.4610 N   0  0  0  0  0  0  0  0  0  0  0  0
   27.7980   36.2740   12.0230 C   0  0  0  0  0  0  0  0  0  0  0  0
   26.6880   35.2700   12.0550 C   0  0  2  0  0  0  0  0  0  0  0  0
   26.8860   34.3020   13.0500 O   0  0  0  0  0  0  0  0  0  0  0  0
   26.7330   33.4090   12.6250 H   0  0  0  0  0  0  0  0  0  0  0  0
   26.1400   34.8340   10.7910 C   0  0  0  0  0  0  0  0  0  0  0  0
   27.0330   34.2940    9.7580 C   0  0  0  0  0  0  0  0  0  0  0  0
   27.1870   35.1180    8.5700 C   0  0  0  0  0  0  0  0  0  0  0  0
   26.3710   36.2500    8.4430 C   0  0  0  0  0  0  0  0  0  0  0  0
   28.0120   34.8550    7.5220 C   0  0  0  0  0  0  0  0  0  0  0  0
   26.4160   37.0350    7.3150 C   0  0  0  0  0  0  0  0  0  0  0  0
   28.0720   35.6320    6.3790 C   0  0  0  0  0  0  0  0  0  0  0  0
   27.2610   36.7430    6.2700 C   0  0  0  0  0  0  0  0  0  0  0  0
   29.8670   25.5550   16.9770 C   0  0  0  0  0  0  0  0  0  0  0  0
   28.3450   25.7220   17.0260 C   0  0  0  0  0  0  0  0  0  0  0  0
   27.6000   24.4120   16.8220 C   0  0  0  0  0  0  0  0  0  0  0  0
   26.5690   24.1740   17.8900 C   0  0  0  0  0  0  0  0  0  0  0  0
   25.2200   23.8850   17.2400 C   0  0  0  0  0  0  0  0  0  0  0  0
   24.8000   22.4900   17.5130 N   0  0  0  0  0  0  0  0  0  0  0  0
  1  2  1  0  0  0  0
  2  5  2  0  0  0  0
  3  2  1  0  0  0  0
  3  6  1  0  0  0  0
  4  3  1  0  0  0  0
  7  6  1  1  0  0  0
  7  8  1  0  0  0  0
  8 28  1  6  0  0  0
  9 12  1  0  0  0  0
  9 14  1  0  0  0  0
  9  8  1  1  0  0  0
 10 17  1  6  0  0  0
 10 15  1  0  0  0  0
 10 11  1  0  0  0  0
 12 10  1  0  0  0  0
 13 11  1  0  0  0  0
 13 21  1  1  0  0  0
 14 23  1  6  0  0  0
 14 13  1  0  0  0  0
 16 15  1  0  0  0  0
 17 18  2  0  0  0  0
 19 17  1  0  0  0  0
 20 19  1  0  0  0  0
 22 21  1  0  0  0  0
 24 27  2  0  0  0  0
 24 23  1  0  0  0  0
 25 23  1  0  0  0  0
 26 24  1  0  0  0  0
 29 28  1  0  0  0  0
 30  7  1  0  0  0  0
 30 31  1  0  0  0  0
 32  1  1  0  0  0  0
 33 32  1  0  0  0  0
 34 33  2  0  0  0  0
 35 33  1  0  0  0  0
 36 34  1  0  0  0  0
 37 36  1  0  0  0  0
 37 35  2  0  0  0  0
 38 39  1  0  0  0  0
 38 36  1  0  0  0  0
 39 42  1  6  0  0  0
 39 40  1  0  0  0  0
 41 40  1  0  0  0  0
 43 42  1  0  0  0  0
 44 43  1  0  0  0  0
 45 44  1  0  0  0  0
 46 44  2  0  0  0  0
 47 45  2  0  0  0  0
 48 46  1  0  0  0  0
 49 48  2  0  0  0  0
 49 47  1  0  0  0  0
 50 51  1  0  0  0  0
 52 51  1  0  0  0  0
 52 53  1  0  0  0  0
 54 55  1  0  0  0  0
 54 53  1  0  0  0  0
M  END
>  <REMARK>
 VINA RESULT:    -4.953      4.394      8.010
 INTER + INTRA:         -16.647
 INTER:                 -10.359
 INTRA:                  -6.288
 UNBOUND:                -6.771
 SMILES CC(=O)N[C@@H]1[C@@H](O)C[C@](O)(C(=O)O)O[C@H]1C(O)[C@H](O)CNC(=O)OCc1cn(CC(O)CCc2ccccc2)nn1
 SMILES IDX 24 1 22 2 21 3 23 5 20 6 18 7 16 8 15 9 9 10 8 11 14 12 6 13
 SMILES IDX 5 14 10 15 11 17 12 18 13 19 7 21 4 23 2 24 1 26 3 27 17 28
 SMILES IDX 19 30 25 32 26 33 27 34 41 35 28 36 40 37 29 38 30 39 31 40
 SMILES IDX 32 42 33 43 34 44 35 45 39 46 36 47 38 48 37 49
 H PARENT 21 4 10 16 13 20 7 22 4 25 17 29 19 31 31 41
 Flexibility Score: inf
  4 active torsions:
  status: ('A' for Active; 'I' for Inactive)
    1  A    between atoms: CA   and  CB  
    2  A    between atoms: CB   and  CG  
    3  A    between atoms: CG   and  CD  
    4  A    between atoms: CD   and  CE  

>  <TORSDO>
F 20

>  <BEGIN_>
RES LYS A 131

$$$$
ligand_76_pose_11_2HRL.pdbqt
 OpenBabel07062320523D

  6  5  0  0  0  0  0  0  0  0999 V2000
   33.1930   34.6630    9.2900 C   0  0  0  0  0  0  0  0  0  0  0  0
   32.0600   35.3600   10.0340 C   0  0  0  0  0  0  0  0  0  0  0  0
   30.8480   35.6220    9.1770 C   0  0  0  0  0  0  0  0  0  0  0  0
   30.2470   36.9820    9.5000 C   0  0  0  0  0  0  0  0  0  0  0  0
   30.9290   38.0700    8.6930 C   0  0  0  0  0  0  0  0  0  0  0  0
   29.9750   38.7160    7.7490 N   0  0  0  0  0  0  0  0  0  0  0  0
  1  2  1  0  0  0  0
  3  4  1  0  0  0  0
  3  2  1  0  0  0  0
  5  4  1  0  0  0  0
  6  5  1  0  0  0  0
M  END
>  <EGIN_R>
ES LYS A 135

>  <REMARK>
  4 active torsions:
  status: ('A' for Active; 'I' for Inactive)
    5  A    between atoms: CA   and  CB  
    6  A    between atoms: CB   and  CG  
    7  A    between atoms: CG   and  CD  
    8  A    between atoms: CD   and  CE  

$$$$
