ligand_26_pose_19_2HRL.pdbqt
 OpenBabel07062320523D

 54 55  0  0  1  0  0  0  0  0999 V2000
   29.8180   37.6360   16.0970 N   0  0  0  0  0  0  0  0  0  0  0  0
   30.1400   39.0200   16.1960 C   0  0  0  0  0  0  0  0  0  0  0  0
   30.0780   39.7230   15.1710 O   0  0  0  0  0  0  0  0  0  0  0  0
   29.8930   37.1040   17.0170 H   0  0  0  0  0  0  0  0  0  0  0  0
   29.4190   36.9750   14.8740 C   0  0  0  0  0  0  0  0  0  0  0  0
   30.5540   36.1820   14.2650 C   0  0  2  0  0  0  0  0  0  0  0  0
   30.3000   34.6910   14.3310 C   0  0  1  0  0  0  0  0  0  0  0  0
   29.5260   34.2800   15.5480 C   0  0  2  0  0  0  0  0  0  0  0  0
   31.1120   33.9640   17.2310 C   0  0  2  0  0  0  0  0  0  0  0  0
   30.9070   32.4690   17.2310 C   0  0  0  0  0  0  0  0  0  0  0  0
   30.0820   34.6990   16.7270 O   0  0  0  0  0  0  0  0  0  0  0  0
   30.3910   31.9480   15.9240 C   0  0  1  0  0  0  0  0  0  0  0  0
   29.2000   32.7980   15.5430 C   0  0  1  0  0  0  0  0  0  0  0  0
   32.3640   34.2610   16.6470 O   0  0  0  0  0  0  0  0  0  0  0  0
   32.4370   35.2000   16.3870 H   0  0  0  0  0  0  0  0  0  0  0  0
   31.2500   34.3510   18.6830 C   0  0  0  0  0  0  0  0  0  0  0  0
   30.3090   34.3360   19.4880 O   0  0  0  0  0  0  0  0  0  0  0  0
   32.5450   34.7370   19.0670 O   0  0  0  0  0  0  0  0  0  0  0  0
   33.1870   34.0680   19.4630 H   0  0  0  0  0  0  0  0  0  0  0  0
   31.3510   31.9010   14.9420 O   0  0  0  0  0  0  0  0  0  0  0  0
   32.1020   32.4970   15.1770 H   0  0  0  0  0  0  0  0  0  0  0  0
   28.2200   32.6050   16.6240 N   0  0  0  0  0  0  0  0  0  0  0  0
   27.2330   31.5900   16.4890 C   0  0  0  0  0  0  0  0  0  0  0  0
   28.2240   33.1870   17.4830 H   0  0  0  0  0  0  0  0  0  0  0  0
   26.2530   31.4080   17.5900 C   0  0  0  0  0  0  0  0  0  0  0  0
   27.2270   30.8880   15.4540 O   0  0  0  0  0  0  0  0  0  0  0  0
   29.6230   34.3470   13.1580 O   0  0  0  0  0  0  0  0  0  0  0  0
   28.9100   33.6780   13.3810 H   0  0  0  0  0  0  0  0  0  0  0  0
   31.7460   36.5010   14.9470 O   0  0  0  0  0  0  0  0  0  0  0  0
   31.6030   36.5720   15.9230 H   0  0  0  0  0  0  0  0  0  0  0  0
   30.5170   39.6140   17.3800 O   0  0  0  0  0  0  0  0  0  0  0  0
   31.8420   39.8730   17.7840 C   0  0  0  0  0  0  0  0  0  0  0  0
   32.7770   38.7660   17.5640 C   0  0  0  0  0  0  0  0  0  0  0  0
   34.1380   38.8920   17.2580 C   0  0  0  0  0  0  0  0  0  0  0  0
   32.5500   37.4280   17.6040 N   0  0  0  0  0  0  0  0  0  0  0  0
   34.6490   37.6820   17.1350 N   0  0  0  0  0  0  0  0  0  0  0  0
   33.6930   36.8230   17.3420 N   0  0  0  0  0  0  0  0  0  0  0  0
   36.0800   37.3820   16.8130 C   0  0  1  0  0  0  0  0  0  0  0  0
   36.8540   38.0450   17.9220 C   0  0  0  0  0  0  0  0  0  0  0  0
   36.2130   35.9310   16.8040 C   0  0  0  0  0  0  0  0  0  0  0  0
   37.4330   35.3110   16.3920 C   0  0  2  0  0  0  0  0  0  0  0  0
   38.0810   34.7390   17.4110 O   0  0  0  0  0  0  0  0  0  0  0  0
   38.1090   35.1700   15.1400 C   0  0  0  0  0  0  0  0  0  0  0  0
   37.7130   34.1230   14.2730 C   0  0  0  0  0  0  0  0  0  0  0  0
   39.1160   35.9830   14.6800 C   0  0  0  0  0  0  0  0  0  0  0  0
   38.3080   33.9400   13.0500 C   0  0  0  0  0  0  0  0  0  0  0  0
   39.6950   35.7690   13.4370 C   0  0  0  0  0  0  0  0  0  0  0  0
   39.3140   34.7640   12.6100 C   0  0  0  0  0  0  0  0  0  0  0  0
   29.8670   25.5550   16.9770 C   0  0  0  0  0  0  0  0  0  0  0  0
   28.3450   25.7220   17.0260 C   0  0  0  0  0  0  0  0  0  0  0  0
   27.5990   24.4200   16.7780 C   0  0  0  0  0  0  0  0  0  0  0  0
   26.6090   24.1170   17.8680 C   0  0  0  0  0  0  0  0  0  0  0  0
   25.2460   24.6900   17.4910 C   0  0  0  0  0  0  0  0  0  0  0  0
   24.3490   23.6150   17.0060 N   0  0  0  0  0  0  0  0  0  0  0  0
  1  2  1  0  0  0  0
  1  4  1  0  0  0  0
  2 31  1  0  0  0  0
  3  2  2  0  0  0  0
  5  1  1  0  0  0  0
  6  7  1  0  0  0  0
  6  5  1  1  0  0  0
  6 29  1  0  0  0  0
  7 27  1  6  0  0  0
  8  7  1  6  0  0  0
  8 11  1  0  0  0  0
  9 14  1  6  0  0  0
  9 10  1  0  0  0  0
  9 16  1  0  0  0  0
 11  9  1  0  0  0  0
 12 20  1  6  0  0  0
 12 10  1  0  0  0  0
 13  8  1  0  0  0  0
 13 12  1  0  0  0  0
 13 22  1  1  0  0  0
 15 14  1  0  0  0  0
 16 18  1  0  0  0  0
 16 17  2  0  0  0  0
 18 19  1  0  0  0  0
 20 21  1  0  0  0  0
 22 24  1  0  0  0  0
 23 22  1  0  0  0  0
 23 25  1  0  0  0  0
 26 23  2  0  0  0  0
 27 28  1  0  0  0  0
 29 30  1  0  0  0  0
 31 32  1  0  0  0  0
 33 35  1  0  0  0  0
 33 32  1  0  0  0  0
 34 33  2  0  0  0  0
 36 34  1  0  0  0  0
 36 37  1  0  0  0  0
 37 35  2  0  0  0  0
 38 36  1  0  0  0  0
 38 39  1  1  0  0  0
 40 38  1  0  0  0  0
 41 40  1  0  0  0  0
 41 42  1  1  0  0  0
 43 41  1  0  0  0  0
 44 43  2  0  0  0  0
 45 43  1  0  0  0  0
 46 44  1  0  0  0  0
 47 45  2  0  0  0  0
 48 46  2  0  0  0  0
 48 47  1  0  0  0  0
 49 50  1  0  0  0  0
 51 50  1  0  0  0  0
 51 52  1  0  0  0  0
 53 52  1  0  0  0  0
 54 53  1  0  0  0  0
M  END
>  <REMARK>
 VINA RESULT:    -4.455      3.877      7.011
 INTER + INTRA:         -15.426
 INTER:                  -8.492
 INTRA:                  -6.934
 UNBOUND:                -6.934
 SMILES CC(=O)N[C@@H]1[C@@H](O)C[C@](O)(C(=O)O)O[C@H]1C(O)[C@H](O)CNC(=O)OCc1cn(C(C)CC(=O)c2ccccc2)nn1
 SMILES IDX 21 1 22 2 23 3 20 5 18 6 16 7 15 8 9 9 8 10 14 11 6 12 5 13
 SMILES IDX 10 14 11 16 12 17 13 18 7 20 4 22 2 23 1 25 3 26 17 27 19 29
 SMILES IDX 24 31 25 32 26 33 27 34 41 35 28 36 40 37 29 38 30 39 31 40
 SMILES IDX 32 41 33 42 34 43 35 44 39 45 36 46 38 47 37 48
 H PARENT 21 4 10 15 13 19 7 21 4 24 17 28 19 30
 Flexibility Score: inf
  4 active torsions:
  status: ('A' for Active; 'I' for Inactive)
    1  A    between atoms: CA   and  CB  
    2  A    between atoms: CB   and  CG  
    3  A    between atoms: CG   and  CD  
    4  A    between atoms: CD   and  CE  

>  <TORSDO>
F 18

>  <BEGIN_>
RES LYS A 131

$$$$
ligand_26_pose_19_2HRL.pdbqt
 OpenBabel07062320523D

  6  5  0  0  0  0  0  0  0  0999 V2000
   33.1930   34.6630    9.2900 C   0  0  0  0  0  0  0  0  0  0  0  0
   32.0600   35.3600   10.0340 C   0  0  0  0  0  0  0  0  0  0  0  0
   30.7250   34.6810    9.8710 C   0  0  0  0  0  0  0  0  0  0  0  0
   30.4180   34.4470    8.4000 C   0  0  0  0  0  0  0  0  0  0  0  0
   29.0060   34.8940    8.0720 C   0  0  0  0  0  0  0  0  0  0  0  0
   28.0050   34.1470    8.8840 N   0  0  0  0  0  0  0  0  0  0  0  0
  1  2  1  0  0  0  0
  3  2  1  0  0  0  0
  4  3  1  0  0  0  0
  5  4  1  0  0  0  0
  5  6  1  0  0  0  0
M  END
>  <EGIN_R>
ES LYS A 135

>  <REMARK>
  4 active torsions:
  status: ('A' for Active; 'I' for Inactive)
    5  A    between atoms: CA   and  CB  
    6  A    between atoms: CB   and  CG  
    7  A    between atoms: CG   and  CD  
    8  A    between atoms: CD   and  CE  

$$$$
