ligand_87_pose_13_2HRL.pdbqt
 OpenBabel07062320523D

 52 54  0  0  1  0  0  0  0  0999 V2000
   27.4810   28.7160   19.9630 C   0  0  0  0  0  0  0  0  0  0  0  0
   28.0240   27.4630   20.5830 C   0  0  2  0  0  0  0  0  0  0  0  0
   28.3850   27.6960   22.0450 C   0  0  2  0  0  0  0  0  0  0  0  0
   29.6500   28.5530   22.0780 C   0  0  2  0  0  0  0  0  0  0  0  0
   30.9170   29.7570   20.5240 C   0  0  2  0  0  0  0  0  0  0  0  0
   32.1670   28.9730   20.7720 C   0  0  0  0  0  0  0  0  0  0  0  0
   29.7570   29.1580   20.8910 O   0  0  0  0  0  0  0  0  0  0  0  0
   31.9940   27.7630   21.6250 C   0  0  1  0  0  0  0  0  0  0  0  0
   30.8460   27.7920   22.5780 C   0  0  1  0  0  0  0  0  0  0  0  0
   30.8220   29.9890   19.1490 O   0  0  0  0  0  0  0  0  0  0  0  0
   31.6690   30.3150   18.7590 H   0  0  0  0  0  0  0  0  0  0  0  0
   30.9570   31.0920   21.1580 C   0  0  0  0  0  0  0  0  0  0  0  0
   31.9070   31.3930   21.9120 O   0  0  0  0  0  0  0  0  0  0  0  0
   29.9830   32.0680   20.9730 O   0  0  0  0  0  0  0  0  0  0  0  0
   29.1450   31.8630   20.4060 H   0  0  0  0  0  0  0  0  0  0  0  0
   31.9020   26.6600   20.7640 O   0  0  0  0  0  0  0  0  0  0  0  0
   32.8040   26.3320   20.5350 H   0  0  0  0  0  0  0  0  0  0  0  0
   31.1870   28.1570   23.9250 N   0  0  0  0  0  0  0  0  0  0  0  0
   31.0990   27.2800   25.0310 C   0  0  0  0  0  0  0  0  0  0  0  0
   31.5260   29.1350   24.1320 H   0  0  0  0  0  0  0  0  0  0  0  0
   31.4420   27.6350   26.4250 C   0  0  0  0  0  0  0  0  0  0  0  0
   30.6950   26.1220   24.7660 O   0  0  0  0  0  0  0  0  0  0  0  0
   28.5710   26.5100   22.7350 O   0  0  0  0  0  0  0  0  0  0  0  0
   28.5220   25.7660   22.0800 H   0  0  0  0  0  0  0  0  0  0  0  0
   29.1340   26.9840   19.9460 O   0  0  0  0  0  0  0  0  0  0  0  0
   29.0750   25.9880   19.8490 H   0  0  0  0  0  0  0  0  0  0  0  0
   28.0040   28.9660   18.6630 N   0  0  0  0  0  0  0  0  0  0  0  0
   27.2630   28.9350   17.4690 C   0  0  0  0  0  0  0  0  0  0  0  0
   29.0430   29.1980   18.5660 H   0  0  0  0  0  0  0  0  0  0  0  0
   26.0470   28.6700   17.4380 O   0  0  0  0  0  0  0  0  0  0  0  0
   27.9120   29.2140   16.2520 O   0  0  0  0  0  0  0  0  0  0  0  0
   27.7840   30.5090   15.7010 C   0  0  0  0  0  0  0  0  0  0  0  0
   28.9080   31.3550   16.1010 C   0  0  0  0  0  0  0  0  0  0  0  0
   29.7000   32.1060   15.2390 C   0  0  0  0  0  0  0  0  0  0  0  0
   29.3750   31.5600   17.3320 N   0  0  0  0  0  0  0  0  0  0  0  0
   30.6170   32.7370   15.9820 N   0  0  0  0  0  0  0  0  0  0  0  0
   30.3970   32.3900   17.2320 N   0  0  0  0  0  0  0  0  0  0  0  0
   31.6560   33.6310   15.5360 C   0  0  1  0  0  0  0  0  0  0  0  0
   31.2610   34.2000   14.1740 C   0  0  0  0  0  0  0  0  0  0  0  0
   31.7040   34.7800   16.5200 C   0  0  0  0  0  0  0  0  0  0  0  0
   32.2130   35.3120   13.8260 C   0  0  1  0  0  0  0  0  0  0  0  0
   32.5080   35.9130   15.9710 C   0  0  2  0  0  0  0  0  0  0  0  0
   32.0180   36.4290   14.7310 N   0  0  0  0  0  0  0  0  0  0  0  0
   33.6370   34.9000   14.1470 C   0  0  0  0  0  0  0  0  0  0  0  0
   33.8690   35.3370   15.5610 C   0  0  0  0  0  0  0  0  0  0  0  0
   30.6580   36.8810   14.7810 C   0  0  0  0  0  0  0  0  0  0  0  0
   29.8670   25.5550   16.9770 C   0  0  0  0  0  0  0  0  0  0  0  0
   28.3450   25.7220   17.0260 C   0  0  0  0  0  0  0  0  0  0  0  0
   27.6010   24.4000   16.9070 C   0  0  0  0  0  0  0  0  0  0  0  0
   26.6910   24.1560   18.0780 C   0  0  0  0  0  0  0  0  0  0  0  0
   25.6570   23.0970   17.7070 C   0  0  0  0  0  0  0  0  0  0  0  0
   24.9060   22.6620   18.9080 N   0  0  0  0  0  0  0  0  0  0  0  0
  2  1  1  6  0  0  0
  2  3  1  0  0  0  0
  3 23  1  6  0  0  0
  4  3  1  6  0  0  0
  4  9  1  0  0  0  0
  5 10  1  6  0  0  0
  5  6  1  0  0  0  0
  5  7  1  0  0  0  0
  5 12  1  0  0  0  0
  6  8  1  0  0  0  0
  7  4  1  0  0  0  0
  8 16  1  6  0  0  0
  8  9  1  0  0  0  0
  9 18  1  1  0  0  0
 11 10  1  0  0  0  0
 12 13  2  0  0  0  0
 14 12  1  0  0  0  0
 15 14  1  0  0  0  0
 17 16  1  0  0  0  0
 18 20  1  0  0  0  0
 18 19  1  0  0  0  0
 19 21  1  0  0  0  0
 22 19  2  0  0  0  0
 24 23  1  0  0  0  0
 25  2  1  0  0  0  0
 26 25  1  0  0  0  0
 27  1  1  0  0  0  0
 28 27  1  0  0  0  0
 29 27  1  0  0  0  0
 30 28  2  0  0  0  0
 31 28  1  0  0  0  0
 32 33  1  0  0  0  0
 32 31  1  0  0  0  0
 33 35  1  0  0  0  0
 34 36  1  0  0  0  0
 34 33  2  0  0  0  0
 36 37  1  0  0  0  0
 37 35  2  0  0  0  0
 38 39  1  6  0  0  0
 38 36  1  0  0  0  0
 38 40  1  0  0  0  0
 41 44  1  1  0  0  0
 41 39  1  0  0  0  0
 41 43  1  0  0  0  0
 42 45  1  6  0  0  0
 42 40  1  0  0  0  0
 43 46  1  0  0  0  0
 43 42  1  0  0  0  0
 44 45  1  0  0  0  0
 47 48  1  0  0  0  0
 49 48  1  0  0  0  0
 49 50  1  0  0  0  0
 51 50  1  0  0  0  0
 51 52  1  0  0  0  0
M  END
>  <REMARK>
 VINA RESULT:    -5.186      1.503      2.189
 INTER + INTRA:         -14.478
 INTER:                  -9.333
 INTRA:                  -5.144
 UNBOUND:                -5.502
 SMILES CC(=O)N[C@@H]1[C@@H](O)C[C@](O)(C(=O)O)O[C@H]1C(O)[C@H](O)CNC(=O)OCc1cn([C@@H]2C[C@H]3CC[C@@H](C2)N3C)nn1
 SMILES IDX 20 1 18 2 16 3 15 4 9 5 8 6 14 7 6 8 5 9 10 10 11 12 12 13
 SMILES IDX 13 14 7 16 4 18 2 19 1 21 3 22 17 23 19 25 21 27 22 28 23 30
 SMILES IDX 24 31 25 32 26 33 27 34 39 35 28 36 38 37 29 38 35 39 30 40
 SMILES IDX 34 41 31 42 36 43 33 44 32 45 37 46
 H PARENT 10 11 13 15 7 17 4 20 17 24 19 26 21 29
 Flexibility Score: inf
  4 active torsions:
  status: ('A' for Active; 'I' for Inactive)
    1  A    between atoms: CA   and  CB  
    2  A    between atoms: CB   and  CG  
    3  A    between atoms: CG   and  CD  
    4  A    between atoms: CD   and  CE  

>  <TORSDO>
F 15

>  <BEGIN_>
RES LYS A 131

$$$$
ligand_87_pose_13_2HRL.pdbqt
 OpenBabel07062320523D

  6  5  0  0  0  0  0  0  0  0999 V2000
   33.1930   34.6630    9.2900 C   0  0  0  0  0  0  0  0  0  0  0  0
   32.0600   35.3600   10.0340 C   0  0  0  0  0  0  0  0  0  0  0  0
   30.7300   34.6660    9.8930 C   0  0  0  0  0  0  0  0  0  0  0  0
   30.3630   34.5010    8.4260 C   0  0  0  0  0  0  0  0  0  0  0  0
   29.5230   35.6720    7.9530 C   0  0  0  0  0  0  0  0  0  0  0  0
   28.2380   35.2050    7.3620 N   0  0  0  0  0  0  0  0  0  0  0  0
  1  2  1  0  0  0  0
  3  2  1  0  0  0  0
  4  3  1  0  0  0  0
  5  4  1  0  0  0  0
  6  5  1  0  0  0  0
M  END
>  <EGIN_R>
ES LYS A 135

>  <REMARK>
  4 active torsions:
  status: ('A' for Active; 'I' for Inactive)
    5  A    between atoms: CA   and  CB  
    6  A    between atoms: CB   and  CG  
    7  A    between atoms: CG   and  CD  
    8  A    between atoms: CD   and  CE  

$$$$
