ligand_24_pose_16_2HRL.pdbqt
 OpenBabel07062320523D

 52 53  0  0  1  0  0  0  0  0999 V2000
   29.2330   27.6830   19.9550 N   0  0  0  0  0  0  0  0  0  0  0  0
   27.8900   27.4550   19.5820 C   0  0  0  0  0  0  0  0  0  0  0  0
   27.0620   26.8680   20.3190 O   0  0  0  0  0  0  0  0  0  0  0  0
   29.8380   28.1770   19.2580 H   0  0  0  0  0  0  0  0  0  0  0  0
   29.8010   27.2880   21.2040 C   0  0  0  0  0  0  0  0  0  0  0  0
   31.2420   26.9100   21.1480 C   0  0  2  0  0  0  0  0  0  0  0  0
   32.0180   27.3810   22.3570 C   0  0  1  0  0  0  0  0  0  0  0  0
   31.9640   28.8490   22.5880 C   0  0  2  0  0  0  0  0  0  0  0  0
   31.5350   30.8930   21.5890 C   0  0  2  0  0  0  0  0  0  0  0  0
   32.7060   31.5420   22.2690 C   0  0  0  0  0  0  0  0  0  0  0  0
   31.6130   29.5450   21.4330 O   0  0  0  0  0  0  0  0  0  0  0  0
   33.2530   30.7120   23.4120 C   0  0  1  0  0  0  0  0  0  0  0  0
   33.3880   29.3140   22.9110 C   0  0  1  0  0  0  0  0  0  0  0  0
   31.5240   31.4400   20.2790 O   0  0  0  0  0  0  0  0  0  0  0  0
   30.7390   31.0370   19.8360 H   0  0  0  0  0  0  0  0  0  0  0  0
   30.3010   31.3810   22.2480 C   0  0  0  0  0  0  0  0  0  0  0  0
   29.1740   30.8300   22.0720 O   0  0  0  0  0  0  0  0  0  0  0  0
   30.3120   32.4810   23.1050 O   0  0  0  0  0  0  0  0  0  0  0  0
   29.9620   33.3700   22.8040 H   0  0  0  0  0  0  0  0  0  0  0  0
   34.4410   31.2580   23.8600 O   0  0  0  0  0  0  0  0  0  0  0  0
   35.1270   31.1460   23.1850 H   0  0  0  0  0  0  0  0  0  0  0  0
   34.0940   28.4310   23.7830 N   0  0  0  0  0  0  0  0  0  0  0  0
   35.4780   28.2110   23.7680 C   0  0  0  0  0  0  0  0  0  0  0  0
   33.5300   27.9000   24.5010 H   0  0  0  0  0  0  0  0  0  0  0  0
   36.0920   27.2650   24.7290 C   0  0  0  0  0  0  0  0  0  0  0  0
   36.1930   28.8050   22.9550 O   0  0  0  0  0  0  0  0  0  0  0  0
   31.5930   26.6890   23.4700 O   0  0  0  0  0  0  0  0  0  0  0  0
   31.2170   27.2380   24.1930 H   0  0  0  0  0  0  0  0  0  0  0  0
   31.8540   27.2490   19.9770 O   0  0  0  0  0  0  0  0  0  0  0  0
   31.3100   27.9730   19.5440 H   0  0  0  0  0  0  0  0  0  0  0  0
   27.4370   27.8980   18.3250 O   0  0  0  0  0  0  0  0  0  0  0  0
   27.1330   29.2650   18.1690 C   0  0  0  0  0  0  0  0  0  0  0  0
   28.3130   30.0640   17.7940 C   0  0  0  0  0  0  0  0  0  0  0  0
   28.7580   30.3580   16.5020 C   0  0  0  0  0  0  0  0  0  0  0  0
   29.1980   30.6640   18.6090 N   0  0  0  0  0  0  0  0  0  0  0  0
   29.8660   31.1080   16.5870 N   0  0  0  0  0  0  0  0  0  0  0  0
   30.1110   31.2790   17.8720 N   0  0  0  0  0  0  0  0  0  0  0  0
   30.6570   31.6380   15.5080 C   0  0  0  0  0  0  0  0  0  0  0  0
   30.7500   33.1120   15.5770 C   0  0  0  0  0  0  0  0  0  0  0  0
   31.9340   33.7220   15.9220 C   0  0  0  0  0  0  0  0  0  0  0  0
   29.6470   33.8760   15.2950 C   0  0  0  0  0  0  0  0  0  0  0  0
   32.0110   35.1120   15.9830 C   0  0  0  0  0  0  0  0  0  0  0  0
   29.7110   35.2670   15.3520 C   0  0  0  0  0  0  0  0  0  0  0  0
   30.8920   35.8750   15.6950 C   0  0  0  0  0  0  0  0  0  0  0  0
   30.9890   37.2660   15.7620 O   0  0  0  0  0  0  0  0  0  0  0  0
   31.1060   37.8970   17.0260 C   0  0  0  0  0  0  0  0  0  0  0  0
   29.8670   25.5550   16.9770 C   0  0  0  0  0  0  0  0  0  0  0  0
   28.3450   25.7220   17.0260 C   0  0  0  0  0  0  0  0  0  0  0  0
   27.6010   24.4040   16.8780 C   0  0  0  0  0  0  0  0  0  0  0  0
   26.5670   24.2130   17.9530 C   0  0  0  0  0  0  0  0  0  0  0  0
   25.1880   24.5540   17.3990 C   0  0  0  0  0  0  0  0  0  0  0  0
   24.5290   25.5790   18.2420 N   0  0  0  0  0  0  0  0  0  0  0  0
  1  5  1  0  0  0  0
  2  1  1  0  0  0  0
  2  3  2  0  0  0  0
  4  1  1  0  0  0  0
  6  5  1  6  0  0  0
  6  7  1  0  0  0  0
  7 27  1  1  0  0  0
  8  7  1  6  0  0  0
  8 13  1  0  0  0  0
  9 14  1  6  0  0  0
  9 16  1  0  0  0  0
  9 10  1  0  0  0  0
 10 12  1  0  0  0  0
 11  9  1  0  0  0  0
 11  8  1  0  0  0  0
 12 20  1  6  0  0  0
 13 12  1  0  0  0  0
 13 22  1  1  0  0  0
 15 14  1  0  0  0  0
 16 18  1  0  0  0  0
 17 16  2  0  0  0  0
 19 18  1  0  0  0  0
 21 20  1  0  0  0  0
 22 24  1  0  0  0  0
 23 22  1  0  0  0  0
 23 25  1  0  0  0  0
 26 23  2  0  0  0  0
 27 28  1  0  0  0  0
 29  6  1  0  0  0  0
 30 29  1  0  0  0  0
 31  2  1  0  0  0  0
 32 31  1  0  0  0  0
 33 32  1  0  0  0  0
 33 35  1  0  0  0  0
 34 36  1  0  0  0  0
 34 33  2  0  0  0  0
 36 37  1  0  0  0  0
 37 35  2  0  0  0  0
 38 39  1  0  0  0  0
 38 36  1  0  0  0  0
 39 40  2  0  0  0  0
 40 42  1  0  0  0  0
 41 43  2  0  0  0  0
 41 39  1  0  0  0  0
 43 44  1  0  0  0  0
 44 45  1  0  0  0  0
 44 42  2  0  0  0  0
 45 46  1  0  0  0  0
 47 48  1  0  0  0  0
 49 48  1  0  0  0  0
 49 50  1  0  0  0  0
 51 50  1  0  0  0  0
 51 52  1  0  0  0  0
M  END
>  <REMARK>
 VINA RESULT:    -4.842      2.422      4.415
 INTER + INTRA:         -14.221
 INTER:                  -8.567
 INTRA:                  -5.655
 UNBOUND:                -5.276
 SMILES COc1ccc(Cn2cc(COC(=O)NC[C@@H](O)C(O)[C@@H]3O[C@@](O)(C(=O)O)C[C@H](O)[C@H]3NC(C)=O)nn2)cc1
 SMILES IDX 15 1 13 2 14 3 16 5 17 6 19 7 21 8 23 9 28 10 22 11 29 12
 SMILES IDX 31 13 24 14 25 16 26 17 27 18 30 20 32 22 33 23 34 25 35 26
 SMILES IDX 20 27 18 29 12 31 11 32 10 33 9 34 36 35 8 36 37 37 7 38
 SMILES IDX 6 39 5 40 38 41 4 42 39 43 3 44 2 45 1 46
 H PARENT 15 4 24 15 27 19 30 21 32 24 20 28 18 30
 Flexibility Score: inf
  4 active torsions:
  status: ('A' for Active; 'I' for Inactive)
    1  A    between atoms: CA   and  CB  
    2  A    between atoms: CB   and  CG  
    3  A    between atoms: CG   and  CD  
    4  A    between atoms: CD   and  CE  

>  <TORSDO>
F 17

>  <BEGIN_>
RES LYS A 131

$$$$
ligand_24_pose_16_2HRL.pdbqt
 OpenBabel07062320523D

  6  5  0  0  0  0  0  0  0  0999 V2000
   33.1930   34.6630    9.2900 C   0  0  0  0  0  0  0  0  0  0  0  0
   32.0600   35.3600   10.0340 C   0  0  0  0  0  0  0  0  0  0  0  0
   30.7130   34.7210    9.8150 C   0  0  0  0  0  0  0  0  0  0  0  0
   30.4520   34.5130    8.3310 C   0  0  0  0  0  0  0  0  0  0  0  0
   29.0020   34.8070    7.9990 C   0  0  0  0  0  0  0  0  0  0  0  0
   28.0840   34.1410    8.9650 N   0  0  0  0  0  0  0  0  0  0  0  0
  1  2  1  0  0  0  0
  3  2  1  0  0  0  0
  4  3  1  0  0  0  0
  5  4  1  0  0  0  0
  5  6  1  0  0  0  0
M  END
>  <EGIN_R>
ES LYS A 135

>  <REMARK>
  4 active torsions:
  status: ('A' for Active; 'I' for Inactive)
    5  A    between atoms: CA   and  CB  
    6  A    between atoms: CB   and  CG  
    7  A    between atoms: CG   and  CD  
    8  A    between atoms: CD   and  CE  

$$$$
