ligand_4_pose_6_2HRL.pdbqt
 OpenBabel07062320523D

 52 53  0  0  1  0  0  0  0  0999 V2000
   28.8590   29.7280   19.6130 N   0  0  0  0  0  0  0  0  0  0  0  0
   30.1910   30.0670   19.9210 C   0  0  0  0  0  0  0  0  0  0  0  0
   30.8540   29.4030   20.7450 O   0  0  0  0  0  0  0  0  0  0  0  0
   28.3520   30.3190   18.8990 H   0  0  0  0  0  0  0  0  0  0  0  0
   28.1900   28.6320   20.2210 C   0  0  0  0  0  0  0  0  0  0  0  0
   27.7640   27.5320   19.2500 C   0  0  2  0  0  0  0  0  0  0  0  0
   26.2910   27.8540   18.9830 C   0  0  2  0  0  0  0  0  0  0  0  0
   26.0360   28.3050   17.5810 C   0  0  2  0  0  0  0  0  0  0  0  0
   26.2910   30.4070   16.6360 C   0  0  2  0  0  0  0  0  0  0  0  0
   25.1310   30.1930   15.7300 C   0  0  0  0  0  0  0  0  0  0  0  0
   26.8590   29.3210   17.2310 O   0  0  0  0  0  0  0  0  0  0  0  0
   24.1690   29.1010   16.1450 C   0  0  1  0  0  0  0  0  0  0  0  0
   24.5660   28.6930   17.5330 C   0  0  1  0  0  0  0  0  0  0  0  0
   25.9720   31.4130   17.5850 O   0  0  0  0  0  0  0  0  0  0  0  0
   26.0740   31.1210   18.5090 H   0  0  0  0  0  0  0  0  0  0  0  0
   27.3830   31.0070   15.7860 C   0  0  0  0  0  0  0  0  0  0  0  0
   27.2670   32.1990   15.4300 O   0  0  0  0  0  0  0  0  0  0  0  0
   28.5090   30.2970   15.3890 O   0  0  0  0  0  0  0  0  0  0  0  0
   29.0350   30.4820   14.5380 H   0  0  0  0  0  0  0  0  0  0  0  0
   22.8570   29.6650   16.1850 O   0  0  0  0  0  0  0  0  0  0  0  0
   22.6500   30.1330   15.3420 H   0  0  0  0  0  0  0  0  0  0  0  0
   23.7750   27.7430   18.2130 N   0  0  0  0  0  0  0  0  0  0  0  0
   22.6740   28.0450   19.0510 C   0  0  0  0  0  0  0  0  0  0  0  0
   24.0070   26.6980   18.1040 H   0  0  0  0  0  0  0  0  0  0  0  0
   21.8640   27.0400   19.7490 C   0  0  0  0  0  0  0  0  0  0  0  0
   22.4080   29.3150   19.1830 O   0  0  0  0  0  0  0  0  0  0  0  0
   25.9570   28.8140   19.9430 O   0  0  0  0  0  0  0  0  0  0  0  0
   26.6660   29.5090   19.9190 H   0  0  0  0  0  0  0  0  0  0  0  0
   27.8840   26.2740   19.7430 O   0  0  0  0  0  0  0  0  0  0  0  0
   27.5240   25.5950   19.1780 H   0  0  0  0  0  0  0  0  0  0  0  0
   30.8110   31.1590   19.3110 O   0  0  0  0  0  0  0  0  0  0  0  0
   29.9880   32.2490   18.9220 C   0  0  0  0  0  0  0  0  0  0  0  0
   30.2530   32.4500   17.4760 C   0  0  0  0  0  0  0  0  0  0  0  0
   30.0730   33.6710   16.8150 C   0  0  0  0  0  0  0  0  0  0  0  0
   30.7920   31.6000   16.5890 N   0  0  0  0  0  0  0  0  0  0  0  0
   30.5290   33.4710   15.5640 N   0  0  0  0  0  0  0  0  0  0  0  0
   30.9350   32.2700   15.4760 N   0  0  0  0  0  0  0  0  0  0  0  0
   30.6510   34.5000   14.6000 C   0  0  0  0  0  0  0  0  0  0  0  0
   31.7780   35.2230   14.5120 C   0  0  0  0  0  0  0  0  0  0  0  0
   29.5170   34.8650   13.8590 C   0  0  0  0  0  0  0  0  0  0  0  0
   31.8060   36.3380   13.6760 C   0  0  0  0  0  0  0  0  0  0  0  0
   29.5260   35.9380   13.0480 C   0  0  0  0  0  0  0  0  0  0  0  0
   30.6760   36.7070   12.9350 C   0  0  0  0  0  0  0  0  0  0  0  0
   33.0020   34.7920   15.1580 C   0  0  0  0  0  0  0  0  0  0  0  0
   33.6730   35.9060   15.9460 C   0  0  0  0  0  0  0  0  0  0  0  0
   34.0580   34.6420   13.9750 C   0  0  0  0  0  0  0  0  0  0  0  0
   29.8670   25.5550   16.9770 C   0  0  0  0  0  0  0  0  0  0  0  0
   28.3450   25.7220   17.0260 C   0  0  0  0  0  0  0  0  0  0  0  0
   27.6010   24.4060   16.8630 C   0  0  0  0  0  0  0  0  0  0  0  0
   26.1550   24.5190   17.2620 C   0  0  0  0  0  0  0  0  0  0  0  0
   25.8780   23.5910   18.4400 C   0  0  0  0  0  0  0  0  0  0  0  0
   24.6280   22.8270   18.2160 N   0  0  0  0  0  0  0  0  0  0  0  0
  1  2  1  0  0  0  0
  1  5  1  0  0  0  0
  2  3  2  0  0  0  0
  4  1  1  0  0  0  0
  6 29  1  0  0  0  0
  6  5  1  1  0  0  0
  7  6  1  0  0  0  0
  7 27  1  1  0  0  0
  8  7  1  1  0  0  0
  9 16  1  6  0  0  0
  9 11  1  0  0  0  0
  9 14  1  0  0  0  0
 10 12  1  0  0  0  0
 10  9  1  0  0  0  0
 11  8  1  0  0  0  0
 12 20  1  1  0  0  0
 12 13  1  0  0  0  0
 13  8  1  0  0  0  0
 13 22  1  6  0  0  0
 14 15  1  0  0  0  0
 17 16  2  0  0  0  0
 18 16  1  0  0  0  0
 19 18  1  0  0  0  0
 21 20  1  0  0  0  0
 22 23  1  0  0  0  0
 23 26  2  0  0  0  0
 23 25  1  0  0  0  0
 24 22  1  0  0  0  0
 28 27  1  0  0  0  0
 30 29  1  0  0  0  0
 31  2  1  0  0  0  0
 32 31  1  0  0  0  0
 33 32  1  0  0  0  0
 34 33  2  0  0  0  0
 35 33  1  0  0  0  0
 36 34  1  0  0  0  0
 37 36  1  0  0  0  0
 37 35  2  0  0  0  0
 38 36  1  0  0  0  0
 39 38  1  0  0  0  0
 39 44  1  0  0  0  0
 40 38  2  0  0  0  0
 41 39  2  0  0  0  0
 42 40  1  0  0  0  0
 43 42  2  0  0  0  0
 43 41  1  0  0  0  0
 44 45  1  0  0  0  0
 46 44  1  0  0  0  0
 47 48  1  0  0  0  0
 49 48  1  0  0  0  0
 49 50  1  0  0  0  0
 50 51  1  0  0  0  0
 52 51  1  0  0  0  0
M  END
>  <REMARK>
 VINA RESULT:    -4.276      5.257     10.989
 INTER + INTRA:         -14.888
 INTER:                  -8.508
 INTRA:                  -6.381
 UNBOUND:                -7.237
 SMILES CC(=O)N[C@@H]1[C@@H](O)C[C@](O)(C(=O)O)O[C@H]1C(O)[C@H](O)CNC(=O)OCc1cn(-c2ccccc2C(C)C)nn1
 SMILES IDX 21 1 22 2 23 3 20 5 18 6 16 7 15 8 9 9 8 10 14 11 6 12 5 13
 SMILES IDX 10 14 11 16 12 17 13 18 7 20 4 22 2 23 1 25 3 26 17 27 19 29
 SMILES IDX 24 31 25 32 26 33 27 34 39 35 28 36 38 37 29 38 34 39 30 40
 SMILES IDX 33 41 31 42 32 43 35 44 36 45 37 46
 H PARENT 21 4 10 15 13 19 7 21 4 24 17 28 19 30
 Flexibility Score: inf
  4 active torsions:
  status: ('A' for Active; 'I' for Inactive)
    1  A    between atoms: CA   and  CB  
    2  A    between atoms: CB   and  CG  
    3  A    between atoms: CG   and  CD  
    4  A    between atoms: CD   and  CE  

>  <TORSDO>
F 16

>  <BEGIN_>
RES LYS A 131

$$$$
ligand_4_pose_6_2HRL.pdbqt
 OpenBabel07062320523D

  6  5  0  0  0  0  0  0  0  0999 V2000
   33.1930   34.6630    9.2900 C   0  0  0  0  0  0  0  0  0  0  0  0
   32.0600   35.3600   10.0340 C   0  0  0  0  0  0  0  0  0  0  0  0
   30.7140   34.7170    9.8210 C   0  0  0  0  0  0  0  0  0  0  0  0
   30.4320   34.5400    8.3370 C   0  0  0  0  0  0  0  0  0  0  0  0
   28.9710   34.8150    8.0360 C   0  0  0  0  0  0  0  0  0  0  0  0
   28.0830   34.1160    9.0050 N   0  0  0  0  0  0  0  0  0  0  0  0
  1  2  1  0  0  0  0
  3  2  1  0  0  0  0
  4  3  1  0  0  0  0
  5  4  1  0  0  0  0
  5  6  1  0  0  0  0
M  END
>  <EGIN_R>
ES LYS A 135

>  <REMARK>
  4 active torsions:
  status: ('A' for Active; 'I' for Inactive)
    5  A    between atoms: CA   and  CB  
    6  A    between atoms: CB   and  CG  
    7  A    between atoms: CG   and  CD  
    8  A    between atoms: CD   and  CE  

$$$$
