ligand_65_pose_7_2HRL.pdbqt
 OpenBabel07062320523D

 53 54  0  0  1  0  0  0  0  0999 V2000
   30.6940   33.3520   14.3240 N   0  0  0  0  0  0  0  0  0  0  0  0
   31.1600   32.7860   15.5270 C   0  0  0  0  0  0  0  0  0  0  0  0
   31.8640   33.3960   16.3620 O   0  0  0  0  0  0  0  0  0  0  0  0
   30.0920   32.8050   13.6390 H   0  0  0  0  0  0  0  0  0  0  0  0
   31.0370   34.7190   13.9930 C   0  0  0  0  0  0  0  0  0  0  0  0
   29.8530   35.5930   14.2610 C   0  0  2  0  0  0  0  0  0  0  0  0
   28.9760   35.6790   13.0280 C   0  0  2  0  0  0  0  0  0  0  0  0
   27.5340   35.8110   13.4910 C   0  0  2  0  0  0  0  0  0  0  0  0
   27.0780   34.6690   15.5010 C   0  0  2  0  0  0  0  0  0  0  0  0
   26.4200   33.5470   14.7610 C   0  0  0  0  0  0  0  0  0  0  0  0
   27.4980   35.7300   14.8200 O   0  0  0  0  0  0  0  0  0  0  0  0
   25.6560   34.1580   13.5930 C   0  0  1  0  0  0  0  0  0  0  0  0
   26.7530   34.7750   12.7270 C   0  0  1  0  0  0  0  0  0  0  0  0
   28.1910   34.0990   16.1640 O   0  0  0  0  0  0  0  0  0  0  0  0
   29.0400   34.3890   15.7560 H   0  0  0  0  0  0  0  0  0  0  0  0
   26.1400   35.1020   16.5670 C   0  0  0  0  0  0  0  0  0  0  0  0
   26.0820   36.3080   16.9200 O   0  0  0  0  0  0  0  0  0  0  0  0
   25.2980   34.2130   17.2140 O   0  0  0  0  0  0  0  0  0  0  0  0
   24.8940   33.3970   16.7500 H   0  0  0  0  0  0  0  0  0  0  0  0
   25.0070   33.1950   12.8460 O   0  0  0  0  0  0  0  0  0  0  0  0
   25.3300   32.3050   13.1650 H   0  0  0  0  0  0  0  0  0  0  0  0
   26.2010   35.3290   11.5100 N   0  0  0  0  0  0  0  0  0  0  0  0
   26.5350   34.7890   10.2420 C   0  0  0  0  0  0  0  0  0  0  0  0
   25.5510   36.1390   11.6280 H   0  0  0  0  0  0  0  0  0  0  0  0
   25.9360   35.4020    9.0360 C   0  0  0  0  0  0  0  0  0  0  0  0
   27.3130   33.8190   10.1140 O   0  0  0  0  0  0  0  0  0  0  0  0
   29.1140   34.4670   12.3010 O   0  0  0  0  0  0  0  0  0  0  0  0
   29.8510   34.6590   11.6530 H   0  0  0  0  0  0  0  0  0  0  0  0
   30.3030   36.8630   14.6500 O   0  0  0  0  0  0  0  0  0  0  0  0
   31.2090   36.8240   15.0040 H   0  0  0  0  0  0  0  0  0  0  0  0
   30.8180   31.4550   15.8180 O   0  0  0  0  0  0  0  0  0  0  0  0
   30.3860   31.1640   17.1300 C   0  0  0  0  0  0  0  0  0  0  0  0
   28.8870   31.1470   17.1480 C   0  0  0  0  0  0  0  0  0  0  0  0
   28.0450   30.4300   16.3180 C   0  0  0  0  0  0  0  0  0  0  0  0
   28.0530   31.8240   17.9720 N   0  0  0  0  0  0  0  0  0  0  0  0
   26.7610   30.6770   16.6450 N   0  0  0  0  0  0  0  0  0  0  0  0
   26.7990   31.5250   17.6490 N   0  0  0  0  0  0  0  0  0  0  0  0
   25.6000   30.1230   16.0170 C   0  0  0  0  0  0  0  0  0  0  0  0
   25.2250   30.4810   14.7760 N   0  0  0  0  0  0  0  0  0  0  0  0
   24.8360   29.2150   16.6570 N   0  0  0  0  0  0  0  0  0  0  0  0
   24.1440   29.9850   14.1530 C   0  0  0  0  0  0  0  0  0  0  0  0
   23.7310   28.6770   16.0810 C   0  0  0  0  0  0  0  0  0  0  0  0
   23.4090   29.0720   14.8450 N   0  0  0  0  0  0  0  0  0  0  0  0
   22.8810   27.6740   16.7760 C   0  0  0  0  0  0  0  0  0  0  0  0
   23.7490   30.3580   12.8520 N   0  0  0  0  0  0  0  0  0  0  0  0
   23.6510   31.3520   12.6080 H   0  0  0  0  0  0  0  0  0  0  0  0
   23.5570   29.6320   12.1470 H   0  0  0  0  0  0  0  0  0  0  0  0
   29.8670   25.5550   16.9770 C   0  0  0  0  0  0  0  0  0  0  0  0
   28.3450   25.7220   17.0260 C   0  0  0  0  0  0  0  0  0  0  0  0
   27.6020   24.3970   16.9410 C   0  0  0  0  0  0  0  0  0  0  0  0
   26.1300   24.5560   17.2030 C   0  0  0  0  0  0  0  0  0  0  0  0
   25.9050   25.7310   18.1500 C   0  0  0  0  0  0  0  0  0  0  0  0
   25.7560   25.2520   19.5440 N   0  0  0  0  0  0  0  0  0  0  0  0
  1  2  1  0  0  0  0
  2 31  1  0  0  0  0
  2  3  2  0  0  0  0
  4  1  1  0  0  0  0
  5  1  1  0  0  0  0
  6  5  1  6  0  0  0
  6 29  1  0  0  0  0
  7 27  1  6  0  0  0
  7  6  1  0  0  0  0
  8  7  1  6  0  0  0
  8 11  1  0  0  0  0
  9 14  1  1  0  0  0
  9 16  1  0  0  0  0
 10  9  1  0  0  0  0
 11  9  1  0  0  0  0
 12 20  1  6  0  0  0
 12 10  1  0  0  0  0
 13 22  1  6  0  0  0
 13  8  1  0  0  0  0
 13 12  1  0  0  0  0
 15 14  1  0  0  0  0
 16 17  2  0  0  0  0
 16 18  1  0  0  0  0
 19 18  1  0  0  0  0
 20 21  1  0  0  0  0
 22 24  1  0  0  0  0
 23 22  1  0  0  0  0
 25 23  1  0  0  0  0
 26 23  2  0  0  0  0
 28 27  1  0  0  0  0
 29 30  1  0  0  0  0
 31 32  1  0  0  0  0
 32 33  1  0  0  0  0
 33 35  1  0  0  0  0
 34 36  1  0  0  0  0
 34 33  2  0  0  0  0
 36 37  1  0  0  0  0
 37 35  2  0  0  0  0
 38 36  1  0  0  0  0
 38 40  1  0  0  0  0
 39 38  2  0  0  0  0
 41 39  2  0  0  0  0
 41 43  1  0  0  0  0
 42 40  2  0  0  0  0
 42 44  1  0  0  0  0
 43 42  1  0  0  0  0
 45 41  1  0  0  0  0
 46 45  1  0  0  0  0
 47 45  1  0  0  0  0
 48 49  1  0  0  0  0
 50 49  1  0  0  0  0
 50 51  1  0  0  0  0
 51 52  1  0  0  0  0
 52 53  1  0  0  0  0
M  END
>  <REMARK>
 VINA RESULT:    -5.181      4.338      8.961
 INTER + INTRA:         -14.252
 INTER:                  -7.652
 INTRA:                  -6.600
 UNBOUND:                -5.134
 SMILES CC(=O)N[C@@H]1[C@@H](O)C[C@](O)(C(=O)O)O[C@H]1C(O)[C@H](O)CNC(=O)OCc1cn(-c2nc(C)nc(N)n2)nn1
 SMILES IDX 21 1 22 2 23 3 20 5 18 6 16 7 15 8 9 9 8 10 14 11 6 12 5 13
 SMILES IDX 10 14 11 16 12 17 13 18 7 20 4 22 2 23 1 25 3 26 17 27 19 29
 SMILES IDX 24 31 25 32 26 33 27 34 38 35 28 36 37 37 29 38 36 39 30 40
 SMILES IDX 34 41 31 42 33 43 32 44 35 45
 H PARENT 21 4 10 15 13 19 7 21 4 24 17 28 19 30 35 46 35 47
 Flexibility Score: inf
  4 active torsions:
  status: ('A' for Active; 'I' for Inactive)
    1  A    between atoms: CA   and  CB  
    2  A    between atoms: CB   and  CG  
    3  A    between atoms: CG   and  CD  
    4  A    between atoms: CD   and  CE  

>  <TORSDO>
F 16

>  <BEGIN_>
RES LYS A 131

$$$$
ligand_65_pose_7_2HRL.pdbqt
 OpenBabel07062320523D

  6  5  0  0  0  0  0  0  0  0999 V2000
   33.1930   34.6630    9.2900 C   0  0  0  0  0  0  0  0  0  0  0  0
   32.0600   35.3600   10.0340 C   0  0  0  0  0  0  0  0  0  0  0  0
   30.6920   34.8480    9.6640 C   0  0  0  0  0  0  0  0  0  0  0  0
   30.6260   34.5150    8.1820 C   0  0  0  0  0  0  0  0  0  0  0  0
   29.4210   35.1760    7.5400 C   0  0  0  0  0  0  0  0  0  0  0  0
   29.2630   36.5790    8.0140 N   0  0  0  0  0  0  0  0  0  0  0  0
  1  2  1  0  0  0  0
  3  2  1  0  0  0  0
  4  3  1  0  0  0  0
  5  6  1  0  0  0  0
  5  4  1  0  0  0  0
M  END
>  <EGIN_R>
ES LYS A 135

>  <REMARK>
  4 active torsions:
  status: ('A' for Active; 'I' for Inactive)
    5  A    between atoms: CA   and  CB  
    6  A    between atoms: CB   and  CG  
    7  A    between atoms: CG   and  CD  
    8  A    between atoms: CD   and  CE  

$$$$
