ligand_22_pose_19_2HRL.pdbqt
 OpenBabel07062320523D

 50 50  0  0  1  0  0  0  0  0999 V2000
   27.2490   37.9570   12.4360 N   0  0  0  0  0  0  0  0  0  0  0  0
   27.5980   36.5940   12.5890 C   0  0  0  0  0  0  0  0  0  0  0  0
   28.7480   36.1710   12.2240 O   0  0  0  0  0  0  0  0  0  0  0  0
   26.3150   38.2920   12.7380 H   0  0  0  0  0  0  0  0  0  0  0  0
   28.2280   38.8440   11.8610 C   0  0  0  0  0  0  0  0  0  0  0  0
   27.7680   39.6170   10.6760 C   0  0  2  0  0  0  0  0  0  0  0  0
   27.2260   38.7530    9.5650 C   0  0  1  0  0  0  0  0  0  0  0  0
   27.4440   39.4980    8.2430 C   0  0  2  0  0  0  0  0  0  0  0  0
   26.1580   40.3640    6.5090 C   0  0  2  0  0  0  0  0  0  0  0  0
   27.0640   39.7260    5.4790 C   0  0  0  0  0  0  0  0  0  0  0  0
   26.1730   39.7260    7.7260 O   0  0  0  0  0  0  0  0  0  0  0  0
   27.5850   38.4160    5.9940 C   0  0  1  0  0  0  0  0  0  0  0  0
   28.2880   38.6490    7.3160 C   0  0  1  0  0  0  0  0  0  0  0  0
   24.8520   40.2330    6.0110 O   0  0  0  0  0  0  0  0  0  0  0  0
   24.5080   41.1040    5.7430 H   0  0  0  0  0  0  0  0  0  0  0  0
   26.4520   41.8080    6.6380 C   0  0  0  0  0  0  0  0  0  0  0  0
   27.4440   42.2980    6.0620 O   0  0  0  0  0  0  0  0  0  0  0  0
   25.6530   42.6570    7.3890 O   0  0  0  0  0  0  0  0  0  0  0  0
   25.3620   42.4340    8.3300 H   0  0  0  0  0  0  0  0  0  0  0  0
   26.6210   37.4400    6.0750 O   0  0  0  0  0  0  0  0  0  0  0  0
   25.7080   37.7450    5.8810 H   0  0  0  0  0  0  0  0  0  0  0  0
   29.5500   39.3160    7.0040 N   0  0  0  0  0  0  0  0  0  0  0  0
   30.7370   39.0320    7.7350 C   0  0  0  0  0  0  0  0  0  0  0  0
   29.5950   40.0150    6.2340 H   0  0  0  0  0  0  0  0  0  0  0  0
   32.0340   39.7050    7.4300 C   0  0  0  0  0  0  0  0  0  0  0  0
   30.6290   38.1710    8.6650 O   0  0  0  0  0  0  0  0  0  0  0  0
   27.7300   37.4840    9.5150 O   0  0  0  0  0  0  0  0  0  0  0  0
   27.5740   37.0780    8.6410 H   0  0  0  0  0  0  0  0  0  0  0  0
   28.9110   40.3080   10.1950 O   0  0  0  0  0  0  0  0  0  0  0  0
   29.3150   39.7660    9.4580 H   0  0  0  0  0  0  0  0  0  0  0  0
   26.7550   35.6420   13.1250 O   0  0  0  0  0  0  0  0  0  0  0  0
   26.2960   34.5240   12.3450 C   0  0  0  0  0  0  0  0  0  0  0  0
   25.6470   35.0650   11.1230 C   0  0  0  0  0  0  0  0  0  0  0  0
   24.4190   35.7060   11.0810 C   0  0  0  0  0  0  0  0  0  0  0  0
   26.0750   35.0580    9.8470 N   0  0  0  0  0  0  0  0  0  0  0  0
   24.1410   36.0640    9.8070 N   0  0  0  0  0  0  0  0  0  0  0  0
   25.1680   35.6550    9.0860 N   0  0  0  0  0  0  0  0  0  0  0  0
   22.9480   36.7550    9.3630 C   0  0  0  0  0  0  0  0  0  0  0  0
   21.7300   35.8750    9.5550 C   0  0  0  0  0  0  0  0  0  0  0  0
   22.7840   38.0340   10.1580 C   0  0  0  0  0  0  0  0  0  0  0  0
   23.0260   37.0750    7.9070 C   0  0  0  0  0  0  0  0  0  0  0  0
   22.0420   36.7560    7.1920 O   0  0  0  0  0  0  0  0  0  0  0  0
   24.1240   37.6970    7.3460 O   0  0  0  0  0  0  0  0  0  0  0  0
   24.9250   37.1140    7.1190 H   0  0  0  0  0  0  0  0  0  0  0  0
   29.8670   25.5550   16.9770 C   0  0  0  0  0  0  0  0  0  0  0  0
   28.3450   25.7220   17.0260 C   0  0  0  0  0  0  0  0  0  0  0  0
   27.6020   24.3970   16.9480 C   0  0  0  0  0  0  0  0  0  0  0  0
   26.5070   24.3000   17.9730 C   0  0  0  0  0  0  0  0  0  0  0  0
   25.3120   23.5660   17.3740 C   0  0  0  0  0  0  0  0  0  0  0  0
   24.8490   22.4950   18.2880 N   0  0  0  0  0  0  0  0  0  0  0  0
  1  2  1  0  0  0  0
  1  4  1  0  0  0  0
  2 31  1  0  0  0  0
  3  2  2  0  0  0  0
  5  1  1  0  0  0  0
  6  5  1  1  0  0  0
  7 27  1  6  0  0  0
  7  6  1  0  0  0  0
  8  7  1  1  0  0  0
  9 14  1  6  0  0  0
  9 16  1  0  0  0  0
  9 11  1  0  0  0  0
 10 12  1  0  0  0  0
 10  9  1  0  0  0  0
 11  8  1  0  0  0  0
 12 20  1  1  0  0  0
 12 13  1  0  0  0  0
 13 22  1  6  0  0  0
 13  8  1  0  0  0  0
 15 14  1  0  0  0  0
 16 18  1  0  0  0  0
 17 16  2  0  0  0  0
 18 19  1  0  0  0  0
 21 20  1  0  0  0  0
 22 23  1  0  0  0  0
 23 26  2  0  0  0  0
 24 22  1  0  0  0  0
 25 23  1  0  0  0  0
 28 27  1  0  0  0  0
 29  6  1  0  0  0  0
 30 29  1  0  0  0  0
 32 31  1  0  0  0  0
 33 32  1  0  0  0  0
 34 33  2  0  0  0  0
 35 33  1  0  0  0  0
 36 34  1  0  0  0  0
 37 36  1  0  0  0  0
 37 35  2  0  0  0  0
 38 39  1  0  0  0  0
 38 36  1  0  0  0  0
 38 40  1  0  0  0  0
 41 38  1  0  0  0  0
 42 41  2  0  0  0  0
 43 41  1  0  0  0  0
 44 43  1  0  0  0  0
 45 46  1  0  0  0  0
 47 46  1  0  0  0  0
 47 48  1  0  0  0  0
 49 48  1  0  0  0  0
 49 50  1  0  0  0  0
M  END
>  <REMARK>
 VINA RESULT:    -4.678      3.501      7.111
 INTER + INTRA:         -14.084
 INTER:                  -6.703
 INTRA:                  -7.381
 UNBOUND:                -5.578
 SMILES CC(=O)N[C@@H]1[C@@H](O)C[C@](O)(C(=O)O)O[C@H]1C(O)[C@H](O)CNC(=O)OCc1cn(C(C)(C)C(=O)O)nn1
 SMILES IDX 21 1 22 2 23 3 20 5 18 6 16 7 15 8 9 9 8 10 14 11 6 12 5 13
 SMILES IDX 10 14 11 16 12 17 13 18 7 20 4 22 2 23 1 25 3 26 17 27 19 29
 SMILES IDX 24 31 25 32 26 33 27 34 36 35 28 36 35 37 29 38 30 39 31 40
 SMILES IDX 32 41 33 42 34 43
 H PARENT 21 4 10 15 13 19 7 21 4 24 17 28 19 30 34 44
 Flexibility Score: inf
  4 active torsions:
  status: ('A' for Active; 'I' for Inactive)
    1  A    between atoms: CA   and  CB  
    2  A    between atoms: CB   and  CG  
    3  A    between atoms: CG   and  CD  
    4  A    between atoms: CD   and  CE  

>  <TORSDO>
F 17

>  <BEGIN_>
RES LYS A 131

$$$$
ligand_22_pose_19_2HRL.pdbqt
 OpenBabel07062320523D

  6  5  0  0  0  0  0  0  0  0999 V2000
   33.1930   34.6630    9.2900 C   0  0  0  0  0  0  0  0  0  0  0  0
   32.0600   35.3600   10.0340 C   0  0  0  0  0  0  0  0  0  0  0  0
   30.7050   34.7550    9.7720 C   0  0  0  0  0  0  0  0  0  0  0  0
   30.5270   34.4580    8.2910 C   0  0  0  0  0  0  0  0  0  0  0  0
   29.1530   34.8950    7.8210 C   0  0  0  0  0  0  0  0  0  0  0  0
   29.1880   35.3450    6.4020 N   0  0  0  0  0  0  0  0  0  0  0  0
  1  2  1  0  0  0  0
  3  2  1  0  0  0  0
  4  3  1  0  0  0  0
  5  4  1  0  0  0  0
  6  5  1  0  0  0  0
M  END
>  <EGIN_R>
ES LYS A 135

>  <REMARK>
  4 active torsions:
  status: ('A' for Active; 'I' for Inactive)
    5  A    between atoms: CA   and  CB  
    6  A    between atoms: CB   and  CG  
    7  A    between atoms: CG   and  CD  
    8  A    between atoms: CD   and  CE  

$$$$
