ligand_88_pose_1_2HRL.pdbqt
 OpenBabel07062320523D

 54 55  0  0  1  0  0  0  0  0999 V2000
   29.7790   41.0590    9.4890 N   0  0  0  0  0  0  0  0  0  0  0  0
   31.0520   41.1660    8.8600 C   0  0  0  0  0  0  0  0  0  0  0  0
   32.0450   40.6330    9.4050 O   0  0  0  0  0  0  0  0  0  0  0  0
   28.9750   41.5090    9.0180 H   0  0  0  0  0  0  0  0  0  0  0  0
   29.5970   40.3580   10.7310 C   0  0  0  0  0  0  0  0  0  0  0  0
   28.6060   39.2400   10.5820 C   0  0  2  0  0  0  0  0  0  0  0  0
   28.5470   38.7140    9.1650 C   0  0  1  0  0  0  0  0  0  0  0  0
   28.1820   37.2180    9.1910 C   0  0  2  0  0  0  0  0  0  0  0  0
   29.3000   35.5410    7.9770 C   0  0  2  0  0  0  0  0  0  0  0  0
   27.9370   34.8340    7.9230 C   0  0  0  0  0  0  0  0  0  0  0  0
   29.2930   36.5350    8.8970 O   0  0  0  0  0  0  0  0  0  0  0  0
   27.0050   35.9080    7.3850 C   0  0  1  0  0  0  0  0  0  0  0  0
   26.9460   36.9830    8.4320 C   0  0  1  0  0  0  0  0  0  0  0  0
   29.5610   35.9430    6.6830 O   0  0  0  0  0  0  0  0  0  0  0  0
   28.8540   36.5110    6.2900 H   0  0  0  0  0  0  0  0  0  0  0  0
   30.3350   34.5560    8.3790 C   0  0  0  0  0  0  0  0  0  0  0  0
   30.0630   33.7290    9.2840 O   0  0  0  0  0  0  0  0  0  0  0  0
   31.5950   34.5160    7.7870 O   0  0  0  0  0  0  0  0  0  0  0  0
   31.6950   33.8480    7.0100 H   0  0  0  0  0  0  0  0  0  0  0  0
   27.4590   36.3870    6.1580 O   0  0  0  0  0  0  0  0  0  0  0  0
   28.0940   37.1110    6.3390 H   0  0  0  0  0  0  0  0  0  0  0  0
   25.7960   36.6810    9.2820 N   0  0  0  0  0  0  0  0  0  0  0  0
   24.8710   37.6630    9.7160 C   0  0  0  0  0  0  0  0  0  0  0  0
   25.6090   35.6930    9.6120 H   0  0  0  0  0  0  0  0  0  0  0  0
   23.7090   37.3090   10.5870 C   0  0  0  0  0  0  0  0  0  0  0  0
   25.0280   38.8600    9.3650 O   0  0  0  0  0  0  0  0  0  0  0  0
   27.7300   39.4370    8.3320 O   0  0  0  0  0  0  0  0  0  0  0  0
   28.1940   40.1850    7.9010 H   0  0  0  0  0  0  0  0  0  0  0  0
   27.3840   39.6130   11.0960 O   0  0  0  0  0  0  0  0  0  0  0  0
   26.6190   39.3540   10.5490 H   0  0  0  0  0  0  0  0  0  0  0  0
   31.1950   41.8430    7.6740 O   0  0  0  0  0  0  0  0  0  0  0  0
   31.5720   41.1880    6.4760 C   0  0  0  0  0  0  0  0  0  0  0  0
   30.4310   40.3570    6.0080 C   0  0  0  0  0  0  0  0  0  0  0  0
   29.3780   40.7670    5.2000 C   0  0  0  0  0  0  0  0  0  0  0  0
   30.1660   39.0610    6.2530 N   0  0  0  0  0  0  0  0  0  0  0  0
   28.5470   39.7340    4.9960 N   0  0  0  0  0  0  0  0  0  0  0  0
   29.0560   38.6840    5.6600 N   0  0  0  0  0  0  0  0  0  0  0  0
   27.3370   39.7130    4.2220 C   0  0  0  0  0  0  0  0  0  0  0  0
   26.3630   40.7560    4.6360 C   0  0  0  0  0  0  0  0  0  0  0  0
   26.3520   41.9490    3.9420 C   0  0  0  0  0  0  0  0  0  0  0  0
   25.4770   40.5910    5.6740 C   0  0  0  0  0  0  0  0  0  0  0  0
   25.4940   42.9840    4.2420 C   0  0  0  0  0  0  0  0  0  0  0  0
   24.5950   41.6260    5.9990 C   0  0  0  0  0  0  0  0  0  0  0  0
   25.4990   44.6170    3.2690 Br  0  0  0  0  0  0  0  0  0  0  0  0
   24.6040   42.8050    5.2930 C   0  0  0  0  0  0  0  0  0  0  0  0
   23.3910   41.3130    7.4620 Br  0  0  0  0  0  0  0  0  0  0  0  0
   25.4620   39.4080    6.3880 O   0  0  0  0  0  0  0  0  0  0  0  0
   25.6810   39.4250    7.3750 H   0  0  0  0  0  0  0  0  0  0  0  0
   29.8670   25.5550   16.9770 C   0  0  0  0  0  0  0  0  0  0  0  0
   28.3450   25.7220   17.0260 C   0  0  0  0  0  0  0  0  0  0  0  0
   27.5990   24.4460   16.6670 C   0  0  0  0  0  0  0  0  0  0  0  0
   26.6360   24.0310   17.7440 C   0  0  0  0  0  0  0  0  0  0  0  0
   25.2120   24.3650   17.3100 C   0  0  0  0  0  0  0  0  0  0  0  0
   24.3700   23.1460   17.3110 N   0  0  0  0  0  0  0  0  0  0  0  0
  1  5  1  0  0  0  0
  2  3  2  0  0  0  0
  2  1  1  0  0  0  0
  4  1  1  0  0  0  0
  6  5  1  6  0  0  0
  6 29  1  0  0  0  0
  7 27  1  6  0  0  0
  7  6  1  0  0  0  0
  8  7  1  6  0  0  0
  9 14  1  6  0  0  0
  9 16  1  0  0  0  0
  9 11  1  0  0  0  0
 10  9  1  0  0  0  0
 11  8  1  0  0  0  0
 12 20  1  6  0  0  0
 12 10  1  0  0  0  0
 12 13  1  0  0  0  0
 13  8  1  0  0  0  0
 13 22  1  1  0  0  0
 15 14  1  0  0  0  0
 16 17  2  0  0  0  0
 18 16  1  0  0  0  0
 19 18  1  0  0  0  0
 20 21  1  0  0  0  0
 22 24  1  0  0  0  0
 22 23  1  0  0  0  0
 23 25  1  0  0  0  0
 26 23  2  0  0  0  0
 28 27  1  0  0  0  0
 30 29  1  0  0  0  0
 31  2  1  0  0  0  0
 32 31  1  0  0  0  0
 33 35  1  0  0  0  0
 33 32  1  0  0  0  0
 34 33  2  0  0  0  0
 36 34  1  0  0  0  0
 36 37  1  0  0  0  0
 37 35  2  0  0  0  0
 38 39  1  0  0  0  0
 38 36  1  0  0  0  0
 39 41  2  0  0  0  0
 40 42  2  0  0  0  0
 40 39  1  0  0  0  0
 41 43  1  0  0  0  0
 41 47  1  0  0  0  0
 42 45  1  0  0  0  0
 43 46  1  0  0  0  0
 44 42  1  0  0  0  0
 45 43  2  0  0  0  0
 47 48  1  0  0  0  0
 49 50  1  0  0  0  0
 51 50  1  0  0  0  0
 51 52  1  0  0  0  0
 53 54  1  0  0  0  0
 53 52  1  0  0  0  0
M  END
>  <REMARK>
 VINA RESULT:    -5.466      7.728     13.558
 INTER + INTRA:         -15.734
 INTER:                  -8.876
 INTRA:                  -6.858
 UNBOUND:                -5.794
 SMILES CC(=O)N[C@@H]1[C@@H](O)C[C@](O)(C(=O)O)O[C@H]1C(O)[C@H](O)CNC(=O)OCc1cn(Cc2cc(Br)cc(Br)c2O)nn1
 SMILES IDX 21 1 22 2 23 3 20 5 18 6 16 7 15 8 9 9 8 10 14 11 6 12 5 13
 SMILES IDX 10 14 11 16 12 17 13 18 7 20 4 22 2 23 1 25 3 26 17 27 19 29
 SMILES IDX 24 31 25 32 26 33 27 34 40 35 28 36 39 37 29 38 30 39 31 40
 SMILES IDX 37 41 32 42 35 43 33 44 34 45 36 46 38 47
 H PARENT 21 4 10 15 13 19 7 21 4 24 17 28 19 30 38 48
 Flexibility Score: inf
  4 active torsions:
  status: ('A' for Active; 'I' for Inactive)
    1  A    between atoms: CA   and  CB  
    2  A    between atoms: CB   and  CG  
    3  A    between atoms: CG   and  CD  
    4  A    between atoms: CD   and  CE  

>  <TORSDO>
F 17

>  <BEGIN_>
RES LYS A 131

$$$$
ligand_88_pose_1_2HRL.pdbqt
 OpenBabel07062320523D

  6  5  0  0  0  0  0  0  0  0999 V2000
   33.1930   34.6630    9.2900 C   0  0  0  0  0  0  0  0  0  0  0  0
   32.0600   35.3600   10.0340 C   0  0  0  0  0  0  0  0  0  0  0  0
   32.5360   36.3640   11.0520 C   0  0  0  0  0  0  0  0  0  0  0  0
   32.1590   35.9220   12.4580 C   0  0  0  0  0  0  0  0  0  0  0  0
   31.0130   34.9290   12.4150 C   0  0  0  0  0  0  0  0  0  0  0  0
   30.4790   34.6680   13.7810 N   0  0  0  0  0  0  0  0  0  0  0  0
  1  2  1  0  0  0  0
  2  3  1  0  0  0  0
  3  4  1  0  0  0  0
  5  4  1  0  0  0  0
  5  6  1  0  0  0  0
M  END
>  <EGIN_R>
ES LYS A 135

>  <REMARK>
  4 active torsions:
  status: ('A' for Active; 'I' for Inactive)
    5  A    between atoms: CA   and  CB  
    6  A    between atoms: CB   and  CG  
    7  A    between atoms: CG   and  CD  
    8  A    between atoms: CD   and  CE  

$$$$
