ligand_83_pose_12_2HRL.pdbqt
 OpenBabel07062320523D

 56 57  0  0  1  0  0  0  0  0999 V2000
   26.3490   32.7450   16.4050 O   0  0  0  0  0  0  0  0  0  0  0  0
   27.6960   32.3470   16.4330 C   0  0  0  0  0  0  0  0  0  0  0  0
   28.4060   32.1420   17.6200 N   0  0  0  0  0  0  0  0  0  0  0  0
   27.8840   32.3040   18.5340 H   0  0  0  0  0  0  0  0  0  0  0  0
   28.2380   32.1800   15.3320 O   0  0  0  0  0  0  0  0  0  0  0  0
   29.7880   31.7310   17.6920 C   0  0  0  0  0  0  0  0  0  0  0  0
   30.6500   32.9640   17.6650 C   0  0  2  0  0  0  0  0  0  0  0  0
   31.4990   32.9170   16.4170 C   0  0  2  0  0  0  0  0  0  0  0  0
   31.3520   34.1980   15.6060 C   0  0  2  0  0  0  0  0  0  0  0  0
   31.0800   34.8390   13.3840 C   0  0  2  0  0  0  0  0  0  0  0  0
   31.9500   36.0240   13.7590 C   0  0  0  0  0  0  0  0  0  0  0  0
   31.2610   33.8260   14.2930 O   0  0  0  0  0  0  0  0  0  0  0  0
   33.1240   35.5440   14.5830 C   0  0  1  0  0  0  0  0  0  0  0  0
   32.5480   35.0800   15.9160 C   0  0  1  0  0  0  0  0  0  0  0  0
   31.4640   34.3320   12.1270 O   0  0  0  0  0  0  0  0  0  0  0  0
   30.9220   34.8050   11.4540 H   0  0  0  0  0  0  0  0  0  0  0  0
   29.6550   35.1890   13.3240 C   0  0  0  0  0  0  0  0  0  0  0  0
   28.8530   34.4720   12.7040 O   0  0  0  0  0  0  0  0  0  0  0  0
   29.1890   36.3250   13.9600 O   0  0  0  0  0  0  0  0  0  0  0  0
   28.2970   36.7180   13.7230 H   0  0  0  0  0  0  0  0  0  0  0  0
   33.7680   34.4490   14.0310 O   0  0  0  0  0  0  0  0  0  0  0  0
   33.7980   33.7110   14.6720 H   0  0  0  0  0  0  0  0  0  0  0  0
   32.1840   36.2310   16.6920 N   0  0  0  0  0  0  0  0  0  0  0  0
   32.5740   36.3440   18.0420 C   0  0  0  0  0  0  0  0  0  0  0  0
   31.6180   37.0330   16.3060 H   0  0  0  0  0  0  0  0  0  0  0  0
   32.1910   37.5450   18.8440 C   0  0  0  0  0  0  0  0  0  0  0  0
   33.2510   35.4400   18.5960 O   0  0  0  0  0  0  0  0  0  0  0  0
   31.0410   31.8880   15.6180 O   0  0  0  0  0  0  0  0  0  0  0  0
   31.4850   31.0280   15.8040 H   0  0  0  0  0  0  0  0  0  0  0  0
   31.4210   33.0950   18.8160 O   0  0  0  0  0  0  0  0  0  0  0  0
   31.7290   34.0350   18.8460 H   0  0  0  0  0  0  0  0  0  0  0  0
   26.0270   34.1440   16.4510 C   0  0  0  0  0  0  0  0  0  0  0  0
   25.9420   34.7190   15.1120 C   0  0  0  0  0  0  0  0  0  0  0  0
   25.5340   34.0650   13.9760 C   0  0  0  0  0  0  0  0  0  0  0  0
   26.2500   35.9820   14.7800 N   0  0  0  0  0  0  0  0  0  0  0  0
   25.6080   34.9580   12.9790 N   0  0  0  0  0  0  0  0  0  0  0  0
   26.0360   36.0920   13.4790 N   0  0  0  0  0  0  0  0  0  0  0  0
   25.2550   34.6630   11.5790 C   0  0  0  0  0  0  0  0  0  0  0  0
   25.0600   35.9530   10.8150 C   0  0  2  0  0  0  0  0  0  0  0  0
   23.8720   36.5160   11.3310 O   0  0  0  0  0  0  0  0  0  0  0  0
   23.6600   37.3770   10.9240 H   0  0  0  0  0  0  0  0  0  0  0  0
   24.9240   35.6480    9.3570 C   0  0  0  0  0  0  0  0  0  0  0  0
   25.1840   36.8810    8.6080 N   0  0  0  0  0  0  0  0  0  0  0  0
   26.3990   37.3780    8.2830 C   0  0  0  0  0  0  0  0  0  0  0  0
   24.2420   37.6760    8.1310 C   0  0  0  0  0  0  0  0  0  0  0  0
   26.1960   38.5220    7.5810 C   0  0  0  0  0  0  0  0  0  0  0  0
   24.8780   38.6960    7.4920 N   0  0  0  0  0  0  0  0  0  0  0  0
   22.8150   37.5360    8.2410 N   0  0  0  0  0  0  0  0  0  0  0  0
   22.1630   37.9710    9.2040 O   0  0  0  0  0  0  0  0  0  0  0  0
   22.1280   36.8910    7.2330 O   0  0  0  0  0  0  0  0  0  0  0  0
   29.8670   25.5550   16.9770 C   0  0  0  0  0  0  0  0  0  0  0  0
   28.3450   25.7220   17.0260 C   0  0  0  0  0  0  0  0  0  0  0  0
   27.6010   24.4020   16.8940 C   0  0  0  0  0  0  0  0  0  0  0  0
   26.1510   24.5290   17.2700 C   0  0  0  0  0  0  0  0  0  0  0  0
   26.0370   24.8270   18.7620 C   0  0  0  0  0  0  0  0  0  0  0  0
   25.4970   23.6520   19.4860 N   0  0  0  0  0  0  0  0  0  0  0  0
  1  2  1  0  0  0  0
  1 32  1  0  0  0  0
  2  3  1  0  0  0  0
  3  6  1  0  0  0  0
  3  4  1  0  0  0  0
  5  2  2  0  0  0  0
  7  6  1  1  0  0  0
  7 30  1  0  0  0  0
  8 28  1  6  0  0  0
  8  7  1  0  0  0  0
  9 14  1  0  0  0  0
  9  8  1  1  0  0  0
 10 15  1  6  0  0  0
 10 11  1  0  0  0  0
 10 12  1  0  0  0  0
 11 13  1  0  0  0  0
 12  9  1  0  0  0  0
 13 21  1  6  0  0  0
 13 14  1  0  0  0  0
 14 23  1  1  0  0  0
 16 15  1  0  0  0  0
 17 10  1  0  0  0  0
 17 19  1  0  0  0  0
 18 17  2  0  0  0  0
 20 19  1  0  0  0  0
 21 22  1  0  0  0  0
 23 24  1  0  0  0  0
 24 27  2  0  0  0  0
 24 26  1  0  0  0  0
 25 23  1  0  0  0  0
 28 29  1  0  0  0  0
 30 31  1  0  0  0  0
 33 32  1  0  0  0  0
 34 33  2  0  0  0  0
 35 33  1  0  0  0  0
 36 37  1  0  0  0  0
 36 34  1  0  0  0  0
 37 35  2  0  0  0  0
 38 36  1  0  0  0  0
 39 42  1  6  0  0  0
 39 40  1  0  0  0  0
 39 38  1  0  0  0  0
 41 40  1  0  0  0  0
 43 42  1  0  0  0  0
 44 43  1  0  0  0  0
 45 48  1  0  0  0  0
 45 43  1  0  0  0  0
 46 44  2  0  0  0  0
 47 46  1  0  0  0  0
 47 45  2  0  0  0  0
 48 49  2  0  0  0  0
 50 48  2  0  0  0  0
 51 52  1  0  0  0  0
 53 52  1  0  0  0  0
 53 54  1  0  0  0  0
 54 55  1  0  0  0  0
 55 56  1  0  0  0  0
M  END
>  <REMARK>
 VINA RESULT:    -3.622      4.177      8.859
 INTER + INTRA:         -15.667
 INTER:                  -8.353
 INTRA:                  -7.313
 UNBOUND:                -8.446
 SMILES CC(=O)N[C@@H]1[C@@H](O)C[C@](O)(C(=O)O)O[C@H]1C(O)[C@H](O)CNC(=O)OCc1cn(CC(O)Cn2ccnc2[N+](=O)[O-])nn1
 SMILES IDX 24 1 22 2 21 3 23 5 20 6 18 7 16 8 15 9 9 10 8 11 14 12 6 13
 SMILES IDX 5 14 10 15 11 17 12 18 13 19 7 21 4 23 2 24 1 26 3 27 17 28
 SMILES IDX 19 30 25 32 26 33 27 34 42 35 28 36 41 37 29 38 30 39 31 40
 SMILES IDX 32 42 33 43 34 44 37 45 35 46 36 47 38 48 39 49 40 50
 H PARENT 21 4 10 16 13 20 7 22 4 25 17 29 19 31 31 41
 Flexibility Score: inf
  4 active torsions:
  status: ('A' for Active; 'I' for Inactive)
    1  A    between atoms: CA   and  CB  
    2  A    between atoms: CB   and  CG  
    3  A    between atoms: CG   and  CD  
    4  A    between atoms: CD   and  CE  

>  <TORSDO>
F 20

>  <BEGIN_>
RES LYS A 131

$$$$
ligand_83_pose_12_2HRL.pdbqt
 OpenBabel07062320523D

  6  5  0  0  0  0  0  0  0  0999 V2000
   33.1930   34.6630    9.2900 C   0  0  0  0  0  0  0  0  0  0  0  0
   32.0600   35.3600   10.0340 C   0  0  0  0  0  0  0  0  0  0  0  0
   30.8590   35.6460    9.1710 C   0  0  0  0  0  0  0  0  0  0  0  0
   30.2850   34.3560    8.6040 C   0  0  0  0  0  0  0  0  0  0  0  0
   28.7850   34.4770    8.4180 C   0  0  0  0  0  0  0  0  0  0  0  0
   28.0510   33.7420    9.4860 N   0  0  0  0  0  0  0  0  0  0  0  0
  1  2  1  0  0  0  0
  3  2  1  0  0  0  0
  4  3  1  0  0  0  0
  5  4  1  0  0  0  0
  5  6  1  0  0  0  0
M  END
>  <EGIN_R>
ES LYS A 135

>  <REMARK>
  4 active torsions:
  status: ('A' for Active; 'I' for Inactive)
    5  A    between atoms: CA   and  CB  
    6  A    between atoms: CB   and  CG  
    7  A    between atoms: CG   and  CD  
    8  A    between atoms: CD   and  CE  

$$$$
