ligand_12_pose_2_2HRL.pdbqt
 OpenBabel07062320523D

 52 53  0  0  1  0  0  0  0  0999 V2000
   29.3870   30.4980   18.2360 N   0  0  0  0  0  0  0  0  0  0  0  0
   28.3880   30.9180   19.1630 C   0  0  0  0  0  0  0  0  0  0  0  0
   28.2930   32.1310   19.5210 O   0  0  0  0  0  0  0  0  0  0  0  0
   29.4340   29.5020   17.9670 H   0  0  0  0  0  0  0  0  0  0  0  0
   30.2840   31.5140   17.7240 C   0  0  0  0  0  0  0  0  0  0  0  0
   29.8870   31.9810   16.3490 C   0  0  2  0  0  0  0  0  0  0  0  0
   31.0470   32.6970   15.6920 C   0  0  2  0  0  0  0  0  0  0  0  0
   30.6470   33.9900   15.0620 C   0  0  2  0  0  0  0  0  0  0  0  0
   29.2300   34.8300   13.4140 C   0  0  2  0  0  0  0  0  0  0  0  0
   30.1660   36.0310   13.4060 C   0  0  0  0  0  0  0  0  0  0  0  0
   29.8010   33.7030   13.9950 O   0  0  0  0  0  0  0  0  0  0  0  0
   31.5740   35.4850   13.2980 C   0  0  1  0  0  0  0  0  0  0  0  0
   31.8500   34.7960   14.6250 C   0  0  1  0  0  0  0  0  0  0  0  0
   29.0240   34.5090   12.0740 O   0  0  0  0  0  0  0  0  0  0  0  0
   29.7500   33.9410   11.7110 H   0  0  0  0  0  0  0  0  0  0  0  0
   27.9400   35.1850   14.0180 C   0  0  0  0  0  0  0  0  0  0  0  0
   27.6030   36.3930   14.0910 O   0  0  0  0  0  0  0  0  0  0  0  0
   27.0480   34.2490   14.5270 O   0  0  0  0  0  0  0  0  0  0  0  0
   26.1720   34.1130   14.0320 H   0  0  0  0  0  0  0  0  0  0  0  0
   31.6950   34.5830   12.2460 O   0  0  0  0  0  0  0  0  0  0  0  0
   31.1010   33.7930   12.4370 H   0  0  0  0  0  0  0  0  0  0  0  0
   32.0980   35.8390   15.5970 N   0  0  0  0  0  0  0  0  0  0  0  0
   33.4280   36.1390   15.9980 C   0  0  0  0  0  0  0  0  0  0  0  0
   31.3370   36.4100   16.0400 H   0  0  0  0  0  0  0  0  0  0  0  0
   33.7400   37.2020   16.9920 C   0  0  0  0  0  0  0  0  0  0  0  0
   34.4010   35.5030   15.5160 O   0  0  0  0  0  0  0  0  0  0  0  0
   31.7180   31.8310   14.8640 O   0  0  0  0  0  0  0  0  0  0  0  0
   31.6890   32.2140   13.9420 H   0  0  0  0  0  0  0  0  0  0  0  0
   28.7730   32.8040   16.4560 O   0  0  0  0  0  0  0  0  0  0  0  0
   28.2000   32.5000   17.2090 H   0  0  0  0  0  0  0  0  0  0  0  0
   27.4740   30.0320   19.7180 O   0  0  0  0  0  0  0  0  0  0  0  0
   26.3910   29.4700   19.0070 C   0  0  0  0  0  0  0  0  0  0  0  0
   26.0800   30.2040   17.7610 C   0  0  0  0  0  0  0  0  0  0  0  0
   25.0780   31.1060   17.4720 C   0  0  0  0  0  0  0  0  0  0  0  0
   26.7850   30.0930   16.6220 N   0  0  0  0  0  0  0  0  0  0  0  0
   25.1990   31.5140   16.1840 N   0  0  0  0  0  0  0  0  0  0  0  0
   26.2500   30.8720   15.7080 N   0  0  0  0  0  0  0  0  0  0  0  0
   24.3430   32.4700   15.4660 C   0  0  0  0  0  0  0  0  0  0  0  0
   24.7620   32.5560   14.1420 O   0  0  0  0  0  0  0  0  0  0  0  0
   23.7110   32.6320   13.2580 C   0  0  0  0  0  0  0  0  0  0  0  0
   23.0900   31.3330   12.9290 C   0  0  0  0  0  0  0  0  0  0  0  0
   21.7390   31.2680   12.6580 C   0  0  0  0  0  0  0  0  0  0  0  0
   23.8340   30.1810   12.8800 C   0  0  0  0  0  0  0  0  0  0  0  0
   21.1320   30.0510   12.3380 C   0  0  0  0  0  0  0  0  0  0  0  0
   23.2270   28.9760   12.5620 C   0  0  0  0  0  0  0  0  0  0  0  0
   21.8970   28.9020   12.2940 C   0  0  0  0  0  0  0  0  0  0  0  0
   29.8670   25.5550   16.9770 C   0  0  0  0  0  0  0  0  0  0  0  0
   28.3450   25.7220   17.0260 C   0  0  0  0  0  0  0  0  0  0  0  0
   27.6010   24.4020   16.8950 C   0  0  0  0  0  0  0  0  0  0  0  0
   26.1790   24.5030   17.3730 C   0  0  0  0  0  0  0  0  0  0  0  0
   25.9550   25.8660   18.0180 C   0  0  0  0  0  0  0  0  0  0  0  0
   24.6290   26.4080   17.6390 N   0  0  0  0  0  0  0  0  0  0  0  0
  1  2  1  0  0  0  0
  2  3  2  0  0  0  0
  2 31  1  0  0  0  0
  4  1  1  0  0  0  0
  5  1  1  0  0  0  0
  6 29  1  0  0  0  0
  6  5  1  1  0  0  0
  7 27  1  6  0  0  0
  7  6  1  0  0  0  0
  8  7  1  6  0  0  0
  9 14  1  6  0  0  0
  9 11  1  0  0  0  0
  9 16  1  0  0  0  0
 10  9  1  0  0  0  0
 11  8  1  0  0  0  0
 12 20  1  6  0  0  0
 12 10  1  0  0  0  0
 12 13  1  0  0  0  0
 13  8  1  0  0  0  0
 13 22  1  1  0  0  0
 15 14  1  0  0  0  0
 16 17  2  0  0  0  0
 16 18  1  0  0  0  0
 19 18  1  0  0  0  0
 20 21  1  0  0  0  0
 22 23  1  0  0  0  0
 22 24  1  0  0  0  0
 23 25  1  0  0  0  0
 26 23  2  0  0  0  0
 28 27  1  0  0  0  0
 29 30  1  0  0  0  0
 32 31  1  0  0  0  0
 33 32  1  0  0  0  0
 34 33  2  0  0  0  0
 35 33  1  0  0  0  0
 36 34  1  0  0  0  0
 37 36  1  0  0  0  0
 37 35  2  0  0  0  0
 38 36  1  0  0  0  0
 39 38  1  0  0  0  0
 40 39  1  0  0  0  0
 41 40  1  0  0  0  0
 42 41  2  0  0  0  0
 43 41  1  0  0  0  0
 44 42  1  0  0  0  0
 45 43  2  0  0  0  0
 46 44  2  0  0  0  0
 46 45  1  0  0  0  0
 47 48  1  0  0  0  0
 49 48  1  0  0  0  0
 49 50  1  0  0  0  0
 50 51  1  0  0  0  0
 52 51  1  0  0  0  0
M  END
>  <REMARK>
 VINA RESULT:    -6.540      4.832      8.338
 INTER + INTRA:         -16.240
 INTER:                 -10.260
 INTRA:                  -5.980
 UNBOUND:                -3.774
 SMILES CC(=O)N[C@@H]1[C@@H](O)C[C@](O)(C(=O)O)O[C@H]1C(O)[C@H](O)CNC(=O)OCc1cn(COCc2ccccc2)nn1
 SMILES IDX 21 1 22 2 23 3 20 5 18 6 16 7 15 8 9 9 8 10 14 11 6 12 5 13
 SMILES IDX 10 14 11 16 12 17 13 18 7 20 4 22 2 23 1 25 3 26 17 27 19 29
 SMILES IDX 24 31 25 32 26 33 27 34 39 35 28 36 38 37 29 38 30 39 31 40
 SMILES IDX 32 41 33 42 37 43 34 44 36 45 35 46
 H PARENT 21 4 10 15 13 19 7 21 4 24 17 28 19 30
 Flexibility Score: inf
  4 active torsions:
  status: ('A' for Active; 'I' for Inactive)
    1  A    between atoms: CA   and  CB  
    2  A    between atoms: CB   and  CG  
    3  A    between atoms: CG   and  CD  
    4  A    between atoms: CD   and  CE  

>  <TORSDO>
F 18

>  <BEGIN_>
RES LYS A 131

$$$$
ligand_12_pose_2_2HRL.pdbqt
 OpenBabel07062320523D

  6  5  0  0  0  0  0  0  0  0999 V2000
   33.1930   34.6630    9.2900 C   0  0  0  0  0  0  0  0  0  0  0  0
   32.0600   35.3600   10.0340 C   0  0  0  0  0  0  0  0  0  0  0  0
   30.8400   35.6020    9.1840 C   0  0  0  0  0  0  0  0  0  0  0  0
   30.1960   34.2840    8.7810 C   0  0  0  0  0  0  0  0  0  0  0  0
   28.7700   34.5080    8.3150 C   0  0  0  0  0  0  0  0  0  0  0  0
   28.7330   35.3680    7.1000 N   0  0  0  0  0  0  0  0  0  0  0  0
  1  2  1  0  0  0  0
  3  2  1  0  0  0  0
  4  3  1  0  0  0  0
  5  4  1  0  0  0  0
  6  5  1  0  0  0  0
M  END
>  <EGIN_R>
ES LYS A 135

>  <REMARK>
  4 active torsions:
  status: ('A' for Active; 'I' for Inactive)
    5  A    between atoms: CA   and  CB  
    6  A    between atoms: CB   and  CG  
    7  A    between atoms: CG   and  CD  
    8  A    between atoms: CD   and  CE  

$$$$
