ligand_20_pose_15_2HRL.pdbqt
 OpenBabel07062320523D

 53 55  0  0  1  0  0  0  0  0999 V2000
   27.8160   33.6130   15.1300 C   0  0  0  0  0  0  0  0  0  0  0  0
   29.1300   33.1420   15.5780 C   0  0  2  0  0  0  0  0  0  0  0  0
   30.2350   33.5780   14.5900 C   0  0  1  0  0  0  0  0  0  0  0  0
   30.8560   34.8620   14.9300 C   0  0  2  0  0  0  0  0  0  0  0  0
   30.7810   36.1750   12.9960 C   0  0  2  0  0  0  0  0  0  0  0  0
   32.0300   35.4540   12.5740 C   0  0  0  0  0  0  0  0  0  0  0  0
   30.4190   35.9870   14.2970 O   0  0  0  0  0  0  0  0  0  0  0  0
   33.0110   35.2530   13.6750 C   0  0  1  0  0  0  0  0  0  0  0  0
   32.3880   34.7700   14.9460 C   0  0  1  0  0  0  0  0  0  0  0  0
   29.7320   35.8060   12.1550 O   0  0  0  0  0  0  0  0  0  0  0  0
   29.6550   34.8240   12.0630 H   0  0  0  0  0  0  0  0  0  0  0  0
   31.0320   37.6220   12.8030 C   0  0  0  0  0  0  0  0  0  0  0  0
   30.8280   38.1460   11.6970 O   0  0  0  0  0  0  0  0  0  0  0  0
   31.4930   38.3840   13.8550 O   0  0  0  0  0  0  0  0  0  0  0  0
   32.3600   38.9380   13.8120 H   0  0  0  0  0  0  0  0  0  0  0  0
   33.9980   34.3590   13.2170 O   0  0  0  0  0  0  0  0  0  0  0  0
   34.4570   34.8310   12.4820 H   0  0  0  0  0  0  0  0  0  0  0  0
   32.9520   35.3790   16.1210 N   0  0  0  0  0  0  0  0  0  0  0  0
   32.6380   34.9360   17.4350 C   0  0  0  0  0  0  0  0  0  0  0  0
   33.6300   36.1930   16.0220 H   0  0  0  0  0  0  0  0  0  0  0  0
   33.2420   35.5940   18.6080 C   0  0  0  0  0  0  0  0  0  0  0  0
   31.8370   33.9760   17.5700 O   0  0  0  0  0  0  0  0  0  0  0  0
   31.2340   32.5750   14.8620 O   0  0  0  0  0  0  0  0  0  0  0  0
   31.8820   32.9130   15.5210 H   0  0  0  0  0  0  0  0  0  0  0  0
   29.0870   31.7050   15.4190 O   0  0  0  0  0  0  0  0  0  0  0  0
   29.2490   31.4840   14.4600 H   0  0  0  0  0  0  0  0  0  0  0  0
   27.7870   34.3920   13.9240 N   0  0  0  0  0  0  0  0  0  0  0  0
   26.5830   34.6370   13.2130 C   0  0  0  0  0  0  0  0  0  0  0  0
   28.6470   34.8400   13.5680 H   0  0  0  0  0  0  0  0  0  0  0  0
   25.5160   34.1500   13.6670 O   0  0  0  0  0  0  0  0  0  0  0  0
   26.5170   35.3770   12.0550 O   0  0  0  0  0  0  0  0  0  0  0  0
   26.1690   36.7460   11.9920 C   0  0  0  0  0  0  0  0  0  0  0  0
   26.4810   37.2320   10.6060 C   0  0  0  0  0  0  0  0  0  0  0  0
   27.7030   37.5900   10.0800 C   0  0  0  0  0  0  0  0  0  0  0  0
   25.5940   37.4140    9.5870 N   0  0  0  0  0  0  0  0  0  0  0  0
   27.4880   37.9650    8.7860 N   0  0  0  0  0  0  0  0  0  0  0  0
   26.2000   37.8480    8.5150 N   0  0  0  0  0  0  0  0  0  0  0  0
   28.5020   38.4050    7.8970 C   0  0  0  0  0  0  0  0  0  0  0  0
   28.2780   38.3570    6.5340 C   0  0  0  0  0  0  0  0  0  0  0  0
   29.7220   38.8890    8.3190 C   0  0  0  0  0  0  0  0  0  0  0  0
   29.2260   38.7710    5.6220 C   0  0  0  0  0  0  0  0  0  0  0  0
   30.6750   39.3050    7.4340 C   0  0  0  0  0  0  0  0  0  0  0  0
   30.4470   39.2560    6.0600 C   0  0  0  0  0  0  0  0  0  0  0  0
   31.9440   39.8170    7.5700 C   0  0  0  0  0  0  0  0  0  0  0  0
   31.5390   39.7190    5.4330 N   0  0  0  0  0  0  0  0  0  0  0  0
   32.4420   40.0590    6.3230 N   0  0  0  0  0  0  0  0  0  0  0  0
   31.6430   39.7950    4.4040 H   0  0  0  0  0  0  0  0  0  0  0  0
   29.8670   25.5550   16.9770 C   0  0  0  0  0  0  0  0  0  0  0  0
   28.3450   25.7220   17.0260 C   0  0  0  0  0  0  0  0  0  0  0  0
   27.5990   24.4780   16.5670 C   0  0  0  0  0  0  0  0  0  0  0  0
   27.2490   23.5720   17.7150 C   0  0  0  0  0  0  0  0  0  0  0  0
   25.7380   23.3760   17.7670 C   0  0  0  0  0  0  0  0  0  0  0  0
   25.0540   24.3880   16.9270 N   0  0  0  0  0  0  0  0  0  0  0  0
  2  1  1  6  0  0  0
  3 23  1  1  0  0  0
  3  2  1  0  0  0  0
  4  3  1  6  0  0  0
  4  9  1  0  0  0  0
  5 10  1  6  0  0  0
  5  7  1  0  0  0  0
  6  5  1  0  0  0  0
  6  8  1  0  0  0  0
  7  4  1  0  0  0  0
  8 16  1  6  0  0  0
  8  9  1  0  0  0  0
  9 18  1  1  0  0  0
 11 10  1  0  0  0  0
 12  5  1  0  0  0  0
 12 14  1  0  0  0  0
 13 12  2  0  0  0  0
 15 14  1  0  0  0  0
 17 16  1  0  0  0  0
 18 19  1  0  0  0  0
 19 22  2  0  0  0  0
 19 21  1  0  0  0  0
 20 18  1  0  0  0  0
 23 24  1  0  0  0  0
 25  2  1  0  0  0  0
 26 25  1  0  0  0  0
 27  1  1  0  0  0  0
 28 30  2  0  0  0  0
 28 27  1  0  0  0  0
 29 27  1  0  0  0  0
 31 28  1  0  0  0  0
 32 31  1  0  0  0  0
 33 32  1  0  0  0  0
 34 33  2  0  0  0  0
 35 33  1  0  0  0  0
 36 34  1  0  0  0  0
 37 36  1  0  0  0  0
 37 35  2  0  0  0  0
 38 40  1  0  0  0  0
 38 36  1  0  0  0  0
 39 38  2  0  0  0  0
 41 43  2  0  0  0  0
 41 39  1  0  0  0  0
 42 44  1  0  0  0  0
 42 40  2  0  0  0  0
 43 42  1  0  0  0  0
 45 43  1  0  0  0  0
 45 46  1  0  0  0  0
 46 44  2  0  0  0  0
 47 45  1  0  0  0  0
 48 49  1  0  0  0  0
 50 49  1  0  0  0  0
 50 51  1  0  0  0  0
 51 52  1  0  0  0  0
 53 52  1  0  0  0  0
M  END
>  <REMARK>
 VINA RESULT:    -4.528      2.985      4.274
 INTER + INTRA:         -14.326
 INTER:                  -9.201
 INTRA:                  -5.125
 UNBOUND:                -6.490
 SMILES CC(=O)N[C@@H]1[C@@H](O)C[C@](O)(C(=O)O)O[C@H]1C(O)[C@H](O)CNC(=O)OCc1cn(-c2ccc3[nH]ncc3c2)nn1
 SMILES IDX 20 1 18 2 16 3 15 4 9 5 8 6 14 7 6 8 5 9 10 10 11 12 12 13
 SMILES IDX 13 14 7 16 4 18 2 19 1 21 3 22 17 23 19 25 21 27 22 28 23 30
 SMILES IDX 24 31 25 32 26 33 27 34 39 35 28 36 38 37 29 38 30 39 37 40
 SMILES IDX 31 41 36 42 32 43 35 44 33 45 34 46
 H PARENT 10 11 13 15 7 17 4 20 17 24 19 26 21 29 33 47
 Flexibility Score: inf
  4 active torsions:
  status: ('A' for Active; 'I' for Inactive)
    1  A    between atoms: CA   and  CB  
    2  A    between atoms: CB   and  CG  
    3  A    between atoms: CG   and  CD  
    4  A    between atoms: CD   and  CE  

>  <TORSDO>
F 15

>  <BEGIN_>
RES LYS A 131

$$$$
ligand_20_pose_15_2HRL.pdbqt
 OpenBabel07062320523D

  6  5  0  0  0  0  0  0  0  0999 V2000
   33.1930   34.6630    9.2900 C   0  0  0  0  0  0  0  0  0  0  0  0
   32.0600   35.3600   10.0340 C   0  0  0  0  0  0  0  0  0  0  0  0
   30.8870   35.7100    9.1550 C   0  0  0  0  0  0  0  0  0  0  0  0
   30.2720   34.4540    8.5560 C   0  0  0  0  0  0  0  0  0  0  0  0
   29.0180   34.7960    7.7740 C   0  0  0  0  0  0  0  0  0  0  0  0
   27.7930   34.4230    8.5350 N   0  0  0  0  0  0  0  0  0  0  0  0
  1  2  1  0  0  0  0
  3  2  1  0  0  0  0
  4  3  1  0  0  0  0
  5  6  1  0  0  0  0
  5  4  1  0  0  0  0
M  END
>  <EGIN_R>
ES LYS A 135

>  <REMARK>
  4 active torsions:
  status: ('A' for Active; 'I' for Inactive)
    5  A    between atoms: CA   and  CB  
    6  A    between atoms: CB   and  CG  
    7  A    between atoms: CG   and  CD  
    8  A    between atoms: CD   and  CE  

$$$$
