ligand_85_pose_16_2HRL.pdbqt
 OpenBabel07062320523D

 55 56  0  0  1  0  0  0  0  0999 V2000
   28.2190   37.3120   10.7970 N   0  0  0  0  0  0  0  0  0  0  0  0
   28.3100   38.2350    9.7430 C   0  0  0  0  0  0  0  0  0  0  0  0
   28.8260   39.3550    9.9300 O   0  0  0  0  0  0  0  0  0  0  0  0
   27.7890   36.3750   10.6280 H   0  0  0  0  0  0  0  0  0  0  0  0
   28.7000   37.6010   12.1220 C   0  0  0  0  0  0  0  0  0  0  0  0
   29.3700   36.3800   12.7000 C   0  0  2  0  0  0  0  0  0  0  0  0
   28.4100   35.4930   13.4510 C   0  0  2  0  0  0  0  0  0  0  0  0
   29.1250   34.6650   14.4510 C   0  0  2  0  0  0  0  0  0  0  0  0
   31.0300   33.5250   15.0260 C   0  0  2  0  0  0  0  0  0  0  0  0
   30.3570   33.5680   16.3750 C   0  0  0  0  0  0  0  0  0  0  0  0
   30.2740   34.0370   14.0010 O   0  0  0  0  0  0  0  0  0  0  0  0
   28.9250   33.1440   16.3350 C   0  0  1  0  0  0  0  0  0  0  0  0
   28.2380   33.5690   15.0400 C   0  0  1  0  0  0  0  0  0  0  0  0
   31.2610   32.1740   14.7120 O   0  0  0  0  0  0  0  0  0  0  0  0
   30.9450   31.6580   15.5150 H   0  0  0  0  0  0  0  0  0  0  0  0
   32.3180   34.2270   15.0450 C   0  0  0  0  0  0  0  0  0  0  0  0
   32.6530   34.8820   16.0620 O   0  0  0  0  0  0  0  0  0  0  0  0
   33.2200   34.2210   13.9930 O   0  0  0  0  0  0  0  0  0  0  0  0
   32.8200   34.2450   13.0420 H   0  0  0  0  0  0  0  0  0  0  0  0
   28.8740   31.7430   16.4830 O   0  0  0  0  0  0  0  0  0  0  0  0
   28.0210   31.4620   16.0560 H   0  0  0  0  0  0  0  0  0  0  0  0
   26.9020   34.0100   15.2530 N   0  0  0  0  0  0  0  0  0  0  0  0
   25.8360   33.0760   15.2880 C   0  0  0  0  0  0  0  0  0  0  0  0
   26.6780   35.0150   15.3860 H   0  0  0  0  0  0  0  0  0  0  0  0
   24.4430   33.5910   15.5160 C   0  0  0  0  0  0  0  0  0  0  0  0
   25.9800   31.8500   15.1420 O   0  0  0  0  0  0  0  0  0  0  0  0
   27.6160   34.8100   12.5650 O   0  0  0  0  0  0  0  0  0  0  0  0
   27.4750   35.4120   11.7670 H   0  0  0  0  0  0  0  0  0  0  0  0
   30.3490   36.7910   13.6580 O   0  0  0  0  0  0  0  0  0  0  0  0
   30.9470   36.0510   13.8850 H   0  0  0  0  0  0  0  0  0  0  0  0
   27.8470   37.9750    8.4570 O   0  0  0  0  0  0  0  0  0  0  0  0
   26.5150   38.3070    8.1170 C   0  0  0  0  0  0  0  0  0  0  0  0
   25.5860   37.2380    8.5080 C   0  0  0  0  0  0  0  0  0  0  0  0
   24.2390   37.3000    8.7970 C   0  0  0  0  0  0  0  0  0  0  0  0
   25.9190   35.9440    8.6570 N   0  0  0  0  0  0  0  0  0  0  0  0
   23.7900   36.0550    9.1110 N   0  0  0  0  0  0  0  0  0  0  0  0
   24.8360   35.2720    9.0140 N   0  0  0  0  0  0  0  0  0  0  0  0
   22.4720   35.6660    9.4720 C   0  0  0  0  0  0  0  0  0  0  0  0
   21.4610   35.6250    8.5230 C   0  0  0  0  0  0  0  0  0  0  0  0
   22.2030   35.3290   10.7780 C   0  0  0  0  0  0  0  0  0  0  0  0
   20.1810   35.2520    8.8490 C   0  0  0  0  0  0  0  0  0  0  0  0
   20.9230   34.9480   11.1430 C   0  0  0  0  0  0  0  0  0  0  0  0
   18.8890   35.1960    7.6540 Cl  0  0  0  0  0  0  0  0  0  0  0  0
   19.9300   34.9170   10.1650 C   0  0  0  0  0  0  0  0  0  0  0  0
   23.2660   35.3760   11.7540 C   0  0  0  0  0  0  0  0  0  0  0  0
   23.9940   34.3820   12.0310 O   0  0  0  0  0  0  0  0  0  0  0  0
   23.5280   36.5790   12.4510 N   0  0  0  0  0  0  0  0  0  0  0  0
   22.7220   37.7410   12.1680 C   0  0  0  0  0  0  0  0  0  0  0  0
   24.5860   36.6830   13.4440 C   0  0  0  0  0  0  0  0  0  0  0  0
   29.8670   25.5550   16.9770 C   0  0  0  0  0  0  0  0  0  0  0  0
   28.3450   25.7220   17.0260 C   0  0  0  0  0  0  0  0  0  0  0  0
   27.6010   24.4010   16.9050 C   0  0  0  0  0  0  0  0  0  0  0  0
   26.5590   24.2370   17.9760 C   0  0  0  0  0  0  0  0  0  0  0  0
   25.2160   23.9050   17.3330 C   0  0  0  0  0  0  0  0  0  0  0  0
   24.8880   22.4730   17.5270 N   0  0  0  0  0  0  0  0  0  0  0  0
  1  5  1  0  0  0  0
  2  3  2  0  0  0  0
  2  1  1  0  0  0  0
  4  1  1  0  0  0  0
  6  5  1  1  0  0  0
  6  7  1  0  0  0  0
  6 29  1  0  0  0  0
  7 27  1  6  0  0  0
  8  7  1  6  0  0  0
  8 13  1  0  0  0  0
  9 14  1  6  0  0  0
  9 16  1  0  0  0  0
  9 10  1  0  0  0  0
 11  8  1  0  0  0  0
 11  9  1  0  0  0  0
 12 10  1  0  0  0  0
 12 20  1  6  0  0  0
 13 22  1  1  0  0  0
 13 12  1  0  0  0  0
 14 15  1  0  0  0  0
 16 17  2  0  0  0  0
 18 16  1  0  0  0  0
 19 18  1  0  0  0  0
 21 20  1  0  0  0  0
 22 23  1  0  0  0  0
 22 24  1  0  0  0  0
 23 25  1  0  0  0  0
 26 23  2  0  0  0  0
 28 27  1  0  0  0  0
 29 30  1  0  0  0  0
 31  2  1  0  0  0  0
 32 31  1  0  0  0  0
 32 33  1  0  0  0  0
 33 35  1  0  0  0  0
 33 34  2  0  0  0  0
 34 36  1  0  0  0  0
 35 37  2  0  0  0  0
 36 38  1  0  0  0  0
 37 36  1  0  0  0  0
 38 40  2  0  0  0  0
 39 41  2  0  0  0  0
 39 38  1  0  0  0  0
 40 42  1  0  0  0  0
 40 45  1  0  0  0  0
 41 44  1  0  0  0  0
 43 41  1  0  0  0  0
 44 42  2  0  0  0  0
 45 46  2  0  0  0  0
 45 47  1  0  0  0  0
 47 49  1  0  0  0  0
 48 47  1  0  0  0  0
 50 51  1  0  0  0  0
 52 51  1  0  0  0  0
 52 53  1  0  0  0  0
 54 55  1  0  0  0  0
 54 53  1  0  0  0  0
M  END
>  <REMARK>
 VINA RESULT:    -4.579      3.342      8.524
 INTER + INTRA:         -14.380
 INTER:                  -8.535
 INTRA:                  -5.845
 UNBOUND:                -6.187
 SMILES CC(=O)N[C@@H]1[C@@H](O)C[C@](O)(C(=O)O)O[C@H]1C(O)[C@H](O)CNC(=O)OCc1cn(-c2cc(Cl)ccc2C(=O)N(C)C)nn1
 SMILES IDX 21 1 22 2 23 3 20 5 18 6 16 7 15 8 9 9 8 10 14 11 6 12 5 13
 SMILES IDX 10 14 11 16 12 17 13 18 7 20 4 22 2 23 1 25 3 26 17 27 19 29
 SMILES IDX 24 31 25 32 26 33 27 34 42 35 28 36 41 37 29 38 30 39 35 40
 SMILES IDX 31 41 34 42 32 43 33 44 36 45 37 46 38 47 39 48 40 49
 H PARENT 21 4 10 15 13 19 7 21 4 24 17 28 19 30
 Flexibility Score: inf
  4 active torsions:
  status: ('A' for Active; 'I' for Inactive)
    1  A    between atoms: CA   and  CB  
    2  A    between atoms: CB   and  CG  
    3  A    between atoms: CG   and  CD  
    4  A    between atoms: CD   and  CE  

>  <TORSDO>
F 16

>  <BEGIN_>
RES LYS A 131

$$$$
ligand_85_pose_16_2HRL.pdbqt
 OpenBabel07062320523D

  6  5  0  0  0  0  0  0  0  0999 V2000
   33.1930   34.6630    9.2900 C   0  0  0  0  0  0  0  0  0  0  0  0
   32.0600   35.3600   10.0340 C   0  0  0  0  0  0  0  0  0  0  0  0
   30.8920   35.7190    9.1530 C   0  0  0  0  0  0  0  0  0  0  0  0
   30.4240   34.5070    8.3620 C   0  0  0  0  0  0  0  0  0  0  0  0
   28.9090   34.4340    8.3450 C   0  0  0  0  0  0  0  0  0  0  0  0
   28.3950   33.6910    9.5290 N   0  0  0  0  0  0  0  0  0  0  0  0
  1  2  1  0  0  0  0
  3  2  1  0  0  0  0
  4  3  1  0  0  0  0
  5  4  1  0  0  0  0
  5  6  1  0  0  0  0
M  END
>  <EGIN_R>
ES LYS A 135

>  <REMARK>
  4 active torsions:
  status: ('A' for Active; 'I' for Inactive)
    5  A    between atoms: CA   and  CB  
    6  A    between atoms: CB   and  CG  
    7  A    between atoms: CG   and  CD  
    8  A    between atoms: CD   and  CE  

$$$$
