ligand_16_pose_6_2HRL.pdbqt
 OpenBabel07062320523D

 54 55  0  0  1  0  0  0  0  0999 V2000
   24.7050   30.0150   14.7440 N   0  0  0  0  0  0  0  0  0  0  0  0
   23.9850   31.1520   14.3420 C   0  0  0  0  0  0  0  0  0  0  0  0
   23.0110   31.5370   15.0090 O   0  0  0  0  0  0  0  0  0  0  0  0
   25.5230   29.7500   14.1150 H   0  0  0  0  0  0  0  0  0  0  0  0
   24.3940   29.2390   15.9150 C   0  0  0  0  0  0  0  0  0  0  0  0
   25.3600   29.5810   17.0180 C   0  0  2  0  0  0  0  0  0  0  0  0
   26.7900   29.2920   16.6880 C   0  0  1  0  0  0  0  0  0  0  0  0
   27.6660   30.5240   16.9820 C   0  0  2  0  0  0  0  0  0  0  0  0
   29.4550   31.6550   16.0530 C   0  0  2  0  0  0  0  0  0  0  0  0
   30.4350   31.2200   17.1330 C   0  0  0  0  0  0  0  0  0  0  0  0
   28.5360   30.6420   15.9200 O   0  0  0  0  0  0  0  0  0  0  0  0
   29.7120   30.9490   18.4120 C   0  0  1  0  0  0  0  0  0  0  0  0
   28.4080   30.2220   18.2340 C   0  0  1  0  0  0  0  0  0  0  0  0
   30.2400   31.6620   14.8640 O   0  0  0  0  0  0  0  0  0  0  0  0
   29.8120   31.0210   14.2150 H   0  0  0  0  0  0  0  0  0  0  0  0
   28.9190   32.9950   16.3030 C   0  0  0  0  0  0  0  0  0  0  0  0
   27.8940   33.3820   15.6450 O   0  0  0  0  0  0  0  0  0  0  0  0
   29.4090   33.9240   17.1980 O   0  0  0  0  0  0  0  0  0  0  0  0
   30.4010   33.8990   17.3920 H   0  0  0  0  0  0  0  0  0  0  0  0
   30.5500   30.1060   19.1810 O   0  0  0  0  0  0  0  0  0  0  0  0
   31.4160   30.5770   19.2460 H   0  0  0  0  0  0  0  0  0  0  0  0
   27.6060   30.3760   19.4300 N   0  0  0  0  0  0  0  0  0  0  0  0
   27.5420   29.3720   20.4280 C   0  0  0  0  0  0  0  0  0  0  0  0
   27.0470   31.2410   19.5930 H   0  0  0  0  0  0  0  0  0  0  0  0
   26.7000   29.5540   21.6650 C   0  0  0  0  0  0  0  0  0  0  0  0
   28.1980   28.3260   20.2660 O   0  0  0  0  0  0  0  0  0  0  0  0
   27.3010   28.1580   17.2700 O   0  0  0  0  0  0  0  0  0  0  0  0
   26.7720   27.3670   16.9910 H   0  0  0  0  0  0  0  0  0  0  0  0
   25.0200   28.9680   18.2310 O   0  0  0  0  0  0  0  0  0  0  0  0
   25.0150   27.9770   18.1030 H   0  0  0  0  0  0  0  0  0  0  0  0
   24.3010   31.8960   13.2120 O   0  0  0  0  0  0  0  0  0  0  0  0
   23.7280   33.1430   12.9060 C   0  0  0  0  0  0  0  0  0  0  0  0
   24.6650   34.2290   13.2630 C   0  0  0  0  0  0  0  0  0  0  0  0
   25.5820   34.8230   12.3950 C   0  0  0  0  0  0  0  0  0  0  0  0
   24.8550   34.8620   14.4370 N   0  0  0  0  0  0  0  0  0  0  0  0
   26.2640   35.7610   13.0630 N   0  0  0  0  0  0  0  0  0  0  0  0
   25.8080   35.7650   14.2920 N   0  0  0  0  0  0  0  0  0  0  0  0
   27.3320   36.6150   12.5230 C   0  0  0  0  0  0  0  0  0  0  0  0
   28.6040   36.0730   13.1000 C   0  0  0  0  0  0  0  0  0  0  0  0
   29.1500   34.9370   12.5710 C   0  0  0  0  0  0  0  0  0  0  0  0
   29.2370   36.6850   14.1520 C   0  0  0  0  0  0  0  0  0  0  0  0
   30.3330   34.4020   13.0900 C   0  0  0  0  0  0  0  0  0  0  0  0
   30.4140   36.1550   14.6690 C   0  0  0  0  0  0  0  0  0  0  0  0
   30.9740   35.0070   14.1440 C   0  0  0  0  0  0  0  0  0  0  0  0
   32.2090   34.4620   14.6920 C   0  0  0  0  0  0  0  0  0  0  0  0
   32.2590   33.8430   15.7770 O   0  0  0  0  0  0  0  0  0  0  0  0
   33.3960   34.6280   13.9870 O   0  0  0  0  0  0  0  0  0  0  0  0
   34.2890   34.5710   14.4450 H   0  0  0  0  0  0  0  0  0  0  0  0
   29.8670   25.5550   16.9770 C   0  0  0  0  0  0  0  0  0  0  0  0
   28.3450   25.7220   17.0260 C   0  0  0  0  0  0  0  0  0  0  0  0
   27.6020   24.3990   16.9180 C   0  0  0  0  0  0  0  0  0  0  0  0
   26.1520   24.5320   17.2930 C   0  0  0  0  0  0  0  0  0  0  0  0
   26.0320   24.7340   18.8000 C   0  0  0  0  0  0  0  0  0  0  0  0
   25.5100   23.5080   19.4480 N   0  0  0  0  0  0  0  0  0  0  0  0
  1  5  1  0  0  0  0
  2  1  1  0  0  0  0
  2  3  2  0  0  0  0
  4  1  1  0  0  0  0
  6  5  1  6  0  0  0
  6 29  1  0  0  0  0
  7  6  1  0  0  0  0
  7 27  1  1  0  0  0
  8  7  1  6  0  0  0
  8 13  1  0  0  0  0
  9 14  1  6  0  0  0
  9 16  1  0  0  0  0
  9 10  1  0  0  0  0
 10 12  1  0  0  0  0
 11  9  1  0  0  0  0
 11  8  1  0  0  0  0
 12 20  1  1  0  0  0
 13 12  1  0  0  0  0
 13 22  1  1  0  0  0
 15 14  1  0  0  0  0
 16 18  1  0  0  0  0
 17 16  2  0  0  0  0
 18 19  1  0  0  0  0
 20 21  1  0  0  0  0
 22 24  1  0  0  0  0
 22 23  1  0  0  0  0
 23 25  1  0  0  0  0
 26 23  2  0  0  0  0
 28 27  1  0  0  0  0
 30 29  1  0  0  0  0
 31  2  1  0  0  0  0
 32 31  1  0  0  0  0
 32 33  1  0  0  0  0
 33 35  1  0  0  0  0
 34 36  1  0  0  0  0
 34 33  2  0  0  0  0
 36 37  1  0  0  0  0
 37 35  2  0  0  0  0
 38 36  1  0  0  0  0
 38 39  1  0  0  0  0
 39 41  2  0  0  0  0
 40 42  2  0  0  0  0
 40 39  1  0  0  0  0
 41 43  1  0  0  0  0
 42 44  1  0  0  0  0
 44 43  2  0  0  0  0
 44 45  1  0  0  0  0
 45 46  2  0  0  0  0
 47 48  1  0  0  0  0
 47 45  1  0  0  0  0
 49 50  1  0  0  0  0
 51 50  1  0  0  0  0
 51 52  1  0  0  0  0
 52 53  1  0  0  0  0
 53 54  1  0  0  0  0
M  END
>  <REMARK>
 VINA RESULT:    -6.011      2.778      4.517
 INTER + INTRA:         -15.274
 INTER:                  -8.558
 INTRA:                  -6.716
 UNBOUND:                -3.993
 SMILES CC(=O)N[C@@H]1[C@@H](O)C[C@](O)(C(=O)O)O[C@H]1C(O)[C@H](O)CNC(=O)OCc1cn(Cc2ccc(C(=O)O)cc2)nn1
 SMILES IDX 21 1 22 2 23 3 20 5 18 6 16 7 15 8 9 9 8 10 14 11 6 12 5 13
 SMILES IDX 10 14 11 16 12 17 13 18 7 20 4 22 2 23 1 25 3 26 17 27 19 29
 SMILES IDX 24 31 25 32 26 33 27 34 40 35 28 36 39 37 29 38 30 39 31 40
 SMILES IDX 38 41 32 42 37 43 33 44 34 45 35 46 36 47
 H PARENT 21 4 10 15 13 19 7 21 4 24 17 28 19 30 36 48
 Flexibility Score: inf
  4 active torsions:
  status: ('A' for Active; 'I' for Inactive)
    1  A    between atoms: CA   and  CB  
    2  A    between atoms: CB   and  CG  
    3  A    between atoms: CG   and  CD  
    4  A    between atoms: CD   and  CE  

>  <TORSDO>
F 18

>  <BEGIN_>
RES LYS A 131

$$$$
ligand_16_pose_6_2HRL.pdbqt
 OpenBabel07062320523D

  6  5  0  0  0  0  0  0  0  0999 V2000
   33.1930   34.6630    9.2900 C   0  0  0  0  0  0  0  0  0  0  0  0
   32.0600   35.3600   10.0340 C   0  0  0  0  0  0  0  0  0  0  0  0
   30.8130   35.5340    9.2060 C   0  0  0  0  0  0  0  0  0  0  0  0
   30.1140   34.1990    9.0010 C   0  0  0  0  0  0  0  0  0  0  0  0
   28.6570   34.4110    8.6380 C   0  0  0  0  0  0  0  0  0  0  0  0
   27.7610   33.6580    9.5590 N   0  0  0  0  0  0  0  0  0  0  0  0
  1  2  1  0  0  0  0
  3  2  1  0  0  0  0
  4  3  1  0  0  0  0
  5  4  1  0  0  0  0
  5  6  1  0  0  0  0
M  END
>  <EGIN_R>
ES LYS A 135

>  <REMARK>
  4 active torsions:
  status: ('A' for Active; 'I' for Inactive)
    5  A    between atoms: CA   and  CB  
    6  A    between atoms: CB   and  CG  
    7  A    between atoms: CG   and  CD  
    8  A    between atoms: CD   and  CE  

$$$$
