ligand_52_pose_10_2HRL.pdbqt
 OpenBabel07062320523D

 49 50  0  0  1  0  0  0  0  0999 V2000
   27.7420   29.5280   19.5340 C   0  0  0  0  0  0  0  0  0  0  0  0
   27.3440   28.1060   19.6910 C   0  0  2  0  0  0  0  0  0  0  0  0
   27.6050   27.5560   21.0410 C   0  0  2  0  0  0  0  0  0  0  0  0
   28.9910   27.6260   21.5810 C   0  0  2  0  0  0  0  0  0  0  0  0
   31.2140   27.6770   21.1430 C   0  0  2  0  0  0  0  0  0  0  0  0
   31.5260   27.4970   22.5860 C   0  0  0  0  0  0  0  0  0  0  0  0
   29.9710   27.2460   20.7210 O   0  0  0  0  0  0  0  0  0  0  0  0
   30.3880   27.5890   23.5400 C   0  0  1  0  0  0  0  0  0  0  0  0
   29.1350   26.9230   22.9010 C   0  0  1  0  0  0  0  0  0  0  0  0
   32.1490   26.8410   20.4510 O   0  0  0  0  0  0  0  0  0  0  0  0
   31.5870   26.1490   20.0330 H   0  0  0  0  0  0  0  0  0  0  0  0
   31.4820   29.0500   20.6590 C   0  0  0  0  0  0  0  0  0  0  0  0
   32.0420   29.8790   21.4190 O   0  0  0  0  0  0  0  0  0  0  0  0
   31.1570   29.5190   19.3930 O   0  0  0  0  0  0  0  0  0  0  0  0
   31.6910   30.3330   19.0680 H   0  0  0  0  0  0  0  0  0  0  0  0
   30.6410   26.8430   24.6930 O   0  0  0  0  0  0  0  0  0  0  0  0
   29.7840   26.5440   25.0860 H   0  0  0  0  0  0  0  0  0  0  0  0
   28.0380   27.3010   23.7500 N   0  0  0  0  0  0  0  0  0  0  0  0
   27.2010   26.3780   24.4160 C   0  0  0  0  0  0  0  0  0  0  0  0
   27.8340   28.3250   23.8960 H   0  0  0  0  0  0  0  0  0  0  0  0
   26.0950   26.8670   25.2710 C   0  0  0  0  0  0  0  0  0  0  0  0
   27.4040   25.1500   24.2770 O   0  0  0  0  0  0  0  0  0  0  0  0
   26.9210   26.3900   21.3300 O   0  0  0  0  0  0  0  0  0  0  0  0
   27.3410   25.7830   21.9600 H   0  0  0  0  0  0  0  0  0  0  0  0
   28.0850   27.3020   18.7890 O   0  0  0  0  0  0  0  0  0  0  0  0
   28.0670   27.7560   17.9220 H   0  0  0  0  0  0  0  0  0  0  0  0
   28.5610   29.8500   18.4040 N   0  0  0  0  0  0  0  0  0  0  0  0
   28.1280   30.3940   17.2010 C   0  0  0  0  0  0  0  0  0  0  0  0
   29.6080   29.6590   18.4810 H   0  0  0  0  0  0  0  0  0  0  0  0
   26.9340   30.6490   16.9950 O   0  0  0  0  0  0  0  0  0  0  0  0
   29.0000   30.6920   16.1390 O   0  0  0  0  0  0  0  0  0  0  0  0
   30.3180   31.1240   16.3900 C   0  0  0  0  0  0  0  0  0  0  0  0
   30.6480   32.3460   15.6330 C   0  0  0  0  0  0  0  0  0  0  0  0
   29.7170   33.0430   14.8800 C   0  0  0  0  0  0  0  0  0  0  0  0
   31.7920   33.0150   15.4950 N   0  0  0  0  0  0  0  0  0  0  0  0
   30.3250   34.1010   14.3170 N   0  0  0  0  0  0  0  0  0  0  0  0
   31.5760   34.0720   14.6970 N   0  0  0  0  0  0  0  0  0  0  0  0
   29.7330   35.0850   13.4620 C   0  0  0  0  0  0  0  0  0  0  0  0
   28.5170   34.8610   12.8390 C   0  0  0  0  0  0  0  0  0  0  0  0
   30.3770   36.2860   13.2450 C   0  0  0  0  0  0  0  0  0  0  0  0
   27.9790   35.8510   12.0130 C   0  0  0  0  0  0  0  0  0  0  0  0
   29.8300   37.2330   12.4340 N   0  0  0  0  0  0  0  0  0  0  0  0
   28.6500   37.0440   11.8160 C   0  0  0  0  0  0  0  0  0  0  0  0
   29.8670   25.5550   16.9770 C   0  0  0  0  0  0  0  0  0  0  0  0
   28.3450   25.7220   17.0260 C   0  0  0  0  0  0  0  0  0  0  0  0
   27.6020   24.3990   16.9220 C   0  0  0  0  0  0  0  0  0  0  0  0
   26.1620   24.5240   17.3370 C   0  0  0  0  0  0  0  0  0  0  0  0
   25.9110   23.6610   18.5690 C   0  0  0  0  0  0  0  0  0  0  0  0
   24.9880   22.5490   18.2450 N   0  0  0  0  0  0  0  0  0  0  0  0
  2  1  1  1  0  0  0
  2  3  1  0  0  0  0
  3 23  1  6  0  0  0
  4  3  1  6  0  0  0
  4  9  1  0  0  0  0
  5 10  1  6  0  0  0
  5  6  1  0  0  0  0
  6  8  1  0  0  0  0
  7  5  1  0  0  0  0
  7  4  1  0  0  0  0
  8 16  1  1  0  0  0
  9  8  1  0  0  0  0
  9 18  1  1  0  0  0
 11 10  1  0  0  0  0
 12  5  1  0  0  0  0
 12 13  2  0  0  0  0
 14 12  1  0  0  0  0
 15 14  1  0  0  0  0
 16 17  1  0  0  0  0
 18 20  1  0  0  0  0
 18 19  1  0  0  0  0
 19 21  1  0  0  0  0
 22 19  2  0  0  0  0
 23 24  1  0  0  0  0
 25  2  1  0  0  0  0
 26 25  1  0  0  0  0
 27 29  1  0  0  0  0
 27  1  1  0  0  0  0
 28 27  1  0  0  0  0
 30 28  2  0  0  0  0
 31 32  1  0  0  0  0
 31 28  1  0  0  0  0
 33 32  1  0  0  0  0
 34 33  2  0  0  0  0
 35 33  1  0  0  0  0
 36 37  1  0  0  0  0
 36 34  1  0  0  0  0
 37 35  2  0  0  0  0
 38 36  1  0  0  0  0
 39 38  2  0  0  0  0
 40 38  1  0  0  0  0
 41 39  1  0  0  0  0
 42 40  2  0  0  0  0
 43 41  2  0  0  0  0
 43 42  1  0  0  0  0
 44 45  1  0  0  0  0
 46 45  1  0  0  0  0
 46 47  1  0  0  0  0
 47 48  1  0  0  0  0
 49 48  1  0  0  0  0
M  END
>  <REMARK>
 VINA RESULT:    -4.920      2.345      3.843
 INTER + INTRA:         -13.678
 INTER:                  -8.809
 INTRA:                  -4.870
 UNBOUND:                -5.164
 SMILES CC(=O)N[C@@H]1[C@@H](O)C[C@](O)(C(=O)O)O[C@H]1C(O)[C@H](O)CNC(=O)OCc1cn(-c2cccnc2)nn1
 SMILES IDX 20 1 18 2 16 3 15 4 9 5 8 6 14 7 6 8 5 9 10 10 11 12 12 13
 SMILES IDX 13 14 7 16 4 18 2 19 1 21 3 22 17 23 19 25 21 27 22 28 23 30
 SMILES IDX 24 31 25 32 26 33 27 34 36 35 28 36 35 37 29 38 30 39 34 40
 SMILES IDX 31 41 33 42 32 43
 H PARENT 10 11 13 15 7 17 4 20 17 24 19 26 21 29
 Flexibility Score: inf
  4 active torsions:
  status: ('A' for Active; 'I' for Inactive)
    1  A    between atoms: CA   and  CB  
    2  A    between atoms: CB   and  CG  
    3  A    between atoms: CG   and  CD  
    4  A    between atoms: CD   and  CE  

>  <TORSDO>
F 15

>  <BEGIN_>
RES LYS A 131

$$$$
ligand_52_pose_10_2HRL.pdbqt
 OpenBabel07062320523D

  6  5  0  0  0  0  0  0  0  0999 V2000
   33.1930   34.6630    9.2900 C   0  0  0  0  0  0  0  0  0  0  0  0
   32.0600   35.3600   10.0340 C   0  0  0  0  0  0  0  0  0  0  0  0
   30.7090   34.7360    9.7950 C   0  0  0  0  0  0  0  0  0  0  0  0
   30.4770   34.5120    8.3090 C   0  0  0  0  0  0  0  0  0  0  0  0
   29.0560   34.8840    7.9300 C   0  0  0  0  0  0  0  0  0  0  0  0
   28.8050   36.3350    8.1500 N   0  0  0  0  0  0  0  0  0  0  0  0
  1  2  1  0  0  0  0
  3  2  1  0  0  0  0
  4  3  1  0  0  0  0
  5  6  1  0  0  0  0
  5  4  1  0  0  0  0
M  END
>  <EGIN_R>
ES LYS A 135

>  <REMARK>
  4 active torsions:
  status: ('A' for Active; 'I' for Inactive)
    5  A    between atoms: CA   and  CB  
    6  A    between atoms: CB   and  CG  
    7  A    between atoms: CG   and  CD  
    8  A    between atoms: CD   and  CE  

$$$$
