ligand_45_pose_10_2HRL.pdbqt
 OpenBabel07062320523D

 52 52  0  0  1  0  0  0  0  0999 V2000
   25.6880   41.7160    9.4300 O   0  0  0  0  0  0  0  0  0  0  0  0
   24.3420   41.6250    9.7210 C   0  0  0  0  0  0  0  0  0  0  0  0
   23.3360   41.6990    8.7050 N   0  0  0  0  0  0  0  0  0  0  0  0
   23.6760   41.8150    7.7440 H   0  0  0  0  0  0  0  0  0  0  0  0
   23.9930   41.4740   10.9140 O   0  0  0  0  0  0  0  0  0  0  0  0
   21.9750   41.5980    9.0820 C   0  0  0  0  0  0  0  0  0  0  0  0
   21.2100   40.4380    8.5370 C   0  0  2  0  0  0  0  0  0  0  0  0
   21.9630   39.1470    8.4500 C   0  0  1  0  0  0  0  0  0  0  0  0
   21.1120   37.9270    8.2590 C   0  0  2  0  0  0  0  0  0  0  0  0
   18.9250   37.2180    8.2730 C   0  0  2  0  0  0  0  0  0  0  0  0
   19.6090   36.0160    7.6480 C   0  0  0  0  0  0  0  0  0  0  0  0
   19.7960   38.2620    8.4690 O   0  0  0  0  0  0  0  0  0  0  0  0
   20.7250   35.5300    8.5190 C   0  0  1  0  0  0  0  0  0  0  0  0
   21.4890   36.7370    9.0700 C   0  0  1  0  0  0  0  0  0  0  0  0
   18.4370   36.8070    9.5260 O   0  0  0  0  0  0  0  0  0  0  0  0
   19.2220   36.8120   10.1350 H   0  0  0  0  0  0  0  0  0  0  0  0
   17.7860   37.6320    7.4390 C   0  0  0  0  0  0  0  0  0  0  0  0
   16.6030   37.4700    7.8490 O   0  0  0  0  0  0  0  0  0  0  0  0
   17.9680   38.2070    6.1980 O   0  0  0  0  0  0  0  0  0  0  0  0
   18.7860   38.7480    5.9890 H   0  0  0  0  0  0  0  0  0  0  0  0
   20.1800   34.7780    9.5690 O   0  0  0  0  0  0  0  0  0  0  0  0
   20.3180   35.2520   10.4170 H   0  0  0  0  0  0  0  0  0  0  0  0
   22.9000   36.3800    8.8900 N   0  0  0  0  0  0  0  0  0  0  0  0
   23.5520   35.5370    9.8220 C   0  0  0  0  0  0  0  0  0  0  0  0
   23.4180   36.7590    8.0640 H   0  0  0  0  0  0  0  0  0  0  0  0
   24.9940   35.1850    9.6280 C   0  0  0  0  0  0  0  0  0  0  0  0
   22.9710   35.0470   10.8390 O   0  0  0  0  0  0  0  0  0  0  0  0
   22.9140   39.2450    7.4230 O   0  0  0  0  0  0  0  0  0  0  0  0
   23.3120   38.3380    7.3050 H   0  0  0  0  0  0  0  0  0  0  0  0
   20.7600   40.8180    7.2540 O   0  0  0  0  0  0  0  0  0  0  0  0
   21.4970   41.0140    6.6420 H   0  0  0  0  0  0  0  0  0  0  0  0
   26.5440   40.6410    9.7920 C   0  0  0  0  0  0  0  0  0  0  0  0
   26.4530   39.5630    8.7820 C   0  0  0  0  0  0  0  0  0  0  0  0
   27.2750   39.2810    7.7130 C   0  0  0  0  0  0  0  0  0  0  0  0
   25.4910   38.6170    8.7280 N   0  0  0  0  0  0  0  0  0  0  0  0
   26.8150   38.2030    7.0490 N   0  0  0  0  0  0  0  0  0  0  0  0
   25.7310   37.8310    7.6980 N   0  0  0  0  0  0  0  0  0  0  0  0
   27.3420   37.5640    5.8870 C   0  0  0  0  0  0  0  0  0  0  0  0
   28.6450   36.8920    6.1010 C   0  0  0  0  0  0  0  0  0  0  0  0
   28.6710   35.6140    6.8310 C   0  0  0  0  0  0  0  0  0  0  0  0
   29.3230   35.5010    8.0700 N   0  0  0  0  0  0  0  0  0  0  0  0
   30.4360   34.5930    8.1430 C   0  0  0  0  0  0  0  0  0  0  0  0
   29.9120   36.8290    8.3370 C   0  0  0  0  0  0  0  0  0  0  0  0
   29.5380   37.4140    9.6430 C   0  0  0  0  0  0  0  0  0  0  0  0
   28.4450   35.2290    9.1730 C   0  0  0  0  0  0  0  0  0  0  0  0
   28.3070   33.7930    9.5310 C   0  0  0  0  0  0  0  0  0  0  0  0
   29.8670   25.5550   16.9770 C   0  0  0  0  0  0  0  0  0  0  0  0
   28.3450   25.7220   17.0260 C   0  0  0  0  0  0  0  0  0  0  0  0
   27.6010   24.4060   16.8630 C   0  0  0  0  0  0  0  0  0  0  0  0
   26.2390   24.4420   17.5010 C   0  0  0  0  0  0  0  0  0  0  0  0
   26.1600   25.6210   18.4650 C   0  0  0  0  0  0  0  0  0  0  0  0
   24.9640   26.4470   18.1780 N   0  0  0  0  0  0  0  0  0  0  0  0
  1  2  1  0  0  0  0
  1 32  1  0  0  0  0
  2  5  2  0  0  0  0
  3  6  1  0  0  0  0
  3  2  1  0  0  0  0
  4  3  1  0  0  0  0
  7  6  1  6  0  0  0
  8 28  1  6  0  0  0
  8  7  1  0  0  0  0
  9  8  1  1  0  0  0
  9 12  1  0  0  0  0
  9 14  1  0  0  0  0
 10 17  1  6  0  0  0
 10 12  1  0  0  0  0
 10 15  1  0  0  0  0
 11 10  1  0  0  0  0
 11 13  1  0  0  0  0
 13 14  1  0  0  0  0
 13 21  1  1  0  0  0
 14 23  1  6  0  0  0
 15 16  1  0  0  0  0
 17 18  2  0  0  0  0
 19 17  1  0  0  0  0
 20 19  1  0  0  0  0
 21 22  1  0  0  0  0
 23 24  1  0  0  0  0
 24 27  2  0  0  0  0
 25 23  1  0  0  0  0
 26 24  1  0  0  0  0
 29 28  1  0  0  0  0
 30  7  1  0  0  0  0
 31 30  1  0  0  0  0
 33 32  1  0  0  0  0
 34 33  2  0  0  0  0
 35 33  1  0  0  0  0
 36 37  1  0  0  0  0
 36 34  1  0  0  0  0
 37 35  2  0  0  0  0
 38 39  1  0  0  0  0
 38 36  1  0  0  0  0
 39 40  1  0  0  0  0
 40 41  1  0  0  0  0
 41 42  1  0  0  0  0
 41 43  1  0  0  0  0
 41 45  1  0  0  0  0
 43 44  1  0  0  0  0
 45 46  1  0  0  0  0
 47 48  1  0  0  0  0
 49 48  1  0  0  0  0
 49 50  1  0  0  0  0
 50 51  1  0  0  0  0
 52 51  1  0  0  0  0
M  END
>  <REMARK>
 VINA RESULT:    -4.173      8.949     15.366
 INTER + INTRA:         -14.317
 INTER:                  -8.994
 INTRA:                  -5.322
 UNBOUND:                -5.875
 SMILES CC[N+](C)(CC)CCCn1cc(COC(=O)NC[C@@H](O)C(O)[C@@H]2O[C@@](O)(C(=O)O)C[C@H](O)[C@H]2NC(C)=O)nn1
 SMILES IDX 14 1 15 2 17 3 16 5 18 6 19 7 21 8 23 9 25 10 30 11 24 12
 SMILES IDX 31 13 33 14 26 15 27 17 28 18 29 19 32 21 34 23 35 24 36 26
 SMILES IDX 37 27 22 28 20 30 13 32 12 33 11 34 38 35 10 36 39 37 9 38
 SMILES IDX 8 39 7 40 3 41 4 42 2 43 1 44 5 45 6 46
 H PARENT 17 4 26 16 29 20 32 22 34 25 22 29 20 31
 Flexibility Score: inf
  4 active torsions:
  status: ('A' for Active; 'I' for Inactive)
    1  A    between atoms: CA   and  CB  
    2  A    between atoms: CB   and  CG  
    3  A    between atoms: CG   and  CD  
    4  A    between atoms: CD   and  CE  

>  <TORSDO>
F 20

>  <BEGIN_>
RES LYS A 131

$$$$
ligand_45_pose_10_2HRL.pdbqt
 OpenBabel07062320523D

  6  5  0  0  0  0  0  0  0  0999 V2000
   33.1930   34.6630    9.2900 C   0  0  0  0  0  0  0  0  0  0  0  0
   32.0600   35.3600   10.0340 C   0  0  0  0  0  0  0  0  0  0  0  0
   32.5300   36.2170   11.1810 C   0  0  0  0  0  0  0  0  0  0  0  0
   31.7960   35.8490   12.4620 C   0  0  0  0  0  0  0  0  0  0  0  0
   30.6770   34.8670   12.1700 C   0  0  0  0  0  0  0  0  0  0  0  0
   30.1760   34.2370   13.4230 N   0  0  0  0  0  0  0  0  0  0  0  0
  1  2  1  0  0  0  0
  2  3  1  0  0  0  0
  3  4  1  0  0  0  0
  5  4  1  0  0  0  0
  5  6  1  0  0  0  0
M  END
>  <EGIN_R>
ES LYS A 135

>  <REMARK>
  4 active torsions:
  status: ('A' for Active; 'I' for Inactive)
    5  A    between atoms: CA   and  CB  
    6  A    between atoms: CB   and  CG  
    7  A    between atoms: CG   and  CD  
    8  A    between atoms: CD   and  CE  

$$$$
