ligand_36_pose_17_2HRL.pdbqt
 OpenBabel07062320523D

 52 53  0  0  1  0  0  0  0  0999 V2000
   30.6990   32.2450   14.7990 N   0  0  0  0  0  0  0  0  0  0  0  0
   31.1210   33.5750   15.0930 C   0  0  0  0  0  0  0  0  0  0  0  0
   31.2250   33.9370   16.3160 O   0  0  0  0  0  0  0  0  0  0  0  0
   30.6260   31.9750   13.8010 H   0  0  0  0  0  0  0  0  0  0  0  0
   30.4010   31.3550   15.8600 C   0  0  0  0  0  0  0  0  0  0  0  0
   28.9420   31.0270   16.0720 C   0  0  2  0  0  0  0  0  0  0  0  0
   28.4440   31.3850   17.4570 C   0  0  2  0  0  0  0  0  0  0  0  0
   29.3080   30.8400   18.5430 C   0  0  2  0  0  0  0  0  0  0  0  0
   29.2710   29.3360   20.3190 C   0  0  2  0  0  0  0  0  0  0  0  0
   30.7270   29.7310   20.4230 C   0  0  0  0  0  0  0  0  0  0  0  0
   28.6710   29.7640   19.1730 O   0  0  0  0  0  0  0  0  0  0  0  0
   30.9450   31.1980   20.3020 C   0  0  1  0  0  0  0  0  0  0  0  0
   29.7030   31.8000   19.6200 C   0  0  1  0  0  0  0  0  0  0  0  0
   28.6050   29.7920   21.4770 O   0  0  0  0  0  0  0  0  0  0  0  0
   27.6220   29.7620   21.2860 H   0  0  0  0  0  0  0  0  0  0  0  0
   29.2280   27.8580   20.3450 C   0  0  0  0  0  0  0  0  0  0  0  0
   29.9350   27.2360   21.1690 O   0  0  0  0  0  0  0  0  0  0  0  0
   28.4170   27.1690   19.4740 O   0  0  0  0  0  0  0  0  0  0  0  0
   28.3730   27.3200   18.4820 H   0  0  0  0  0  0  0  0  0  0  0  0
   31.2090   31.8340   21.4980 O   0  0  0  0  0  0  0  0  0  0  0  0
   31.3690   31.1140   22.1830 H   0  0  0  0  0  0  0  0  0  0  0  0
   29.9600   33.1440   19.2060 N   0  0  0  0  0  0  0  0  0  0  0  0
   29.5860   34.2610   20.0300 C   0  0  0  0  0  0  0  0  0  0  0  0
   30.4390   33.3760   18.2910 H   0  0  0  0  0  0  0  0  0  0  0  0
   29.8580   35.6610   19.5880 C   0  0  0  0  0  0  0  0  0  0  0  0
   29.0210   34.0840   21.1360 O   0  0  0  0  0  0  0  0  0  0  0  0
   27.1170   31.1230   17.5720 O   0  0  0  0  0  0  0  0  0  0  0  0
   26.7910   30.3450   17.1170 H   0  0  0  0  0  0  0  0  0  0  0  0
   28.8780   29.6200   15.9080 O   0  0  0  0  0  0  0  0  0  0  0  0
   29.7400   29.1940   16.0690 H   0  0  0  0  0  0  0  0  0  0  0  0
   31.4350   34.5270   14.1400 O   0  0  0  0  0  0  0  0  0  0  0  0
   30.6810   35.7180   14.0940 C   0  0  0  0  0  0  0  0  0  0  0  0
   29.2880   35.4770   13.6480 C   0  0  0  0  0  0  0  0  0  0  0  0
   28.8560   34.9390   12.4460 C   0  0  0  0  0  0  0  0  0  0  0  0
   28.1840   35.7460   14.3550 N   0  0  0  0  0  0  0  0  0  0  0  0
   27.5200   34.8970   12.4650 N   0  0  0  0  0  0  0  0  0  0  0  0
   27.1470   35.3910   13.6270 N   0  0  0  0  0  0  0  0  0  0  0  0
   26.6410   34.4050   11.4280 C   0  0  0  0  0  0  0  0  0  0  0  0
   26.8660   35.0160   10.1170 C   0  0  0  0  0  0  0  0  0  0  0  0
   27.3110   34.2510    9.0700 C   0  0  0  0  0  0  0  0  0  0  0  0
   26.6330   36.3700    9.9370 C   0  0  0  0  0  0  0  0  0  0  0  0
   27.5330   34.8150    7.8280 C   0  0  0  0  0  0  0  0  0  0  0  0
   26.8480   36.9610    8.6990 C   0  0  0  0  0  0  0  0  0  0  0  0
   27.3020   36.1620    7.6480 C   0  0  0  0  0  0  0  0  0  0  0  0
   27.5310   36.7580    6.3650 C   0  0  0  0  0  0  0  0  0  0  0  0
   27.7200   37.2610    5.3240 N   0  0  0  0  0  0  0  0  0  0  0  0
   29.8670   25.5550   16.9770 C   0  0  0  0  0  0  0  0  0  0  0  0
   28.3450   25.7220   17.0260 C   0  0  0  0  0  0  0  0  0  0  0  0
   27.6010   24.4060   16.8590 C   0  0  0  0  0  0  0  0  0  0  0  0
   26.5400   24.2190   17.9090 C   0  0  0  0  0  0  0  0  0  0  0  0
   25.1670   24.4810   17.2980 C   0  0  0  0  0  0  0  0  0  0  0  0
   24.1190   24.4500   18.3450 N   0  0  0  0  0  0  0  0  0  0  0  0
  1  2  1  0  0  0  0
  1  5  1  0  0  0  0
  2  3  2  0  0  0  0
  4  1  1  0  0  0  0
  6  5  1  1  0  0  0
  6  7  1  0  0  0  0
  7 27  1  1  0  0  0
  8  7  1  6  0  0  0
  8 11  1  0  0  0  0
  8 13  1  0  0  0  0
  9 16  1  1  0  0  0
  9 10  1  0  0  0  0
  9 14  1  0  0  0  0
 11  9  1  0  0  0  0
 12 10  1  0  0  0  0
 12 20  1  1  0  0  0
 13 22  1  6  0  0  0
 13 12  1  0  0  0  0
 15 14  1  0  0  0  0
 16 17  2  0  0  0  0
 18 16  1  0  0  0  0
 19 18  1  0  0  0  0
 20 21  1  0  0  0  0
 22 23  1  0  0  0  0
 23 26  2  0  0  0  0
 24 22  1  0  0  0  0
 25 23  1  0  0  0  0
 28 27  1  0  0  0  0
 29 30  1  0  0  0  0
 29  6  1  0  0  0  0
 31  2  1  0  0  0  0
 32 31  1  0  0  0  0
 33 32  1  0  0  0  0
 33 35  1  0  0  0  0
 34 36  1  0  0  0  0
 34 33  2  0  0  0  0
 36 37  1  0  0  0  0
 37 35  2  0  0  0  0
 38 36  1  0  0  0  0
 39 38  1  0  0  0  0
 40 39  2  0  0  0  0
 41 39  1  0  0  0  0
 42 40  1  0  0  0  0
 43 41  2  0  0  0  0
 44 42  2  0  0  0  0
 44 43  1  0  0  0  0
 45 44  1  0  0  0  0
 46 45  3  0  0  0  0
 47 48  1  0  0  0  0
 49 48  1  0  0  0  0
 49 50  1  0  0  0  0
 51 50  1  0  0  0  0
 51 52  1  0  0  0  0
M  END
>  <REMARK>
 VINA RESULT:    -4.088      3.242      6.496
 INTER + INTRA:         -14.535
 INTER:                 -10.352
 INTRA:                  -4.183
 UNBOUND:                -6.980
 SMILES CC(=O)N[C@@H]1[C@@H](O)C[C@](O)(C(=O)O)O[C@H]1C(O)[C@H](O)CNC(=O)OCc1cn(Cc2ccc(C#N)cc2)nn1
 SMILES IDX 21 1 22 2 23 3 20 5 18 6 16 7 15 8 9 9 8 10 14 11 6 12 5 13
 SMILES IDX 10 14 11 16 12 17 13 18 7 20 4 22 2 23 1 25 3 26 17 27 19 29
 SMILES IDX 24 31 25 32 26 33 27 34 39 35 28 36 38 37 29 38 30 39 31 40
 SMILES IDX 37 41 32 42 36 43 33 44 34 45 35 46
 H PARENT 21 4 10 15 13 19 7 21 4 24 17 28 19 30
 Flexibility Score: inf
  4 active torsions:
  status: ('A' for Active; 'I' for Inactive)
    1  A    between atoms: CA   and  CB  
    2  A    between atoms: CB   and  CG  
    3  A    between atoms: CG   and  CD  
    4  A    between atoms: CD   and  CE  

>  <TORSDO>
F 17

>  <BEGIN_>
RES LYS A 131

$$$$
ligand_36_pose_17_2HRL.pdbqt
 OpenBabel07062320523D

  6  5  0  0  0  0  0  0  0  0999 V2000
   33.1930   34.6630    9.2900 C   0  0  0  0  0  0  0  0  0  0  0  0
   32.0600   35.3600   10.0340 C   0  0  0  0  0  0  0  0  0  0  0  0
   30.8270   35.5690    9.1940 C   0  0  0  0  0  0  0  0  0  0  0  0
   30.5510   37.0530    9.0050 C   0  0  0  0  0  0  0  0  0  0  0  0
   31.1870   37.8590   10.1220 C   0  0  0  0  0  0  0  0  0  0  0  0
   32.0260   38.9620    9.5770 N   0  0  0  0  0  0  0  0  0  0  0  0
  1  2  1  0  0  0  0
  3  2  1  0  0  0  0
  4  3  1  0  0  0  0
  4  5  1  0  0  0  0
  6  5  1  0  0  0  0
M  END
>  <EGIN_R>
ES LYS A 135

>  <REMARK>
  4 active torsions:
  status: ('A' for Active; 'I' for Inactive)
    5  A    between atoms: CA   and  CB  
    6  A    between atoms: CB   and  CG  
    7  A    between atoms: CG   and  CD  
    8  A    between atoms: CD   and  CE  

$$$$
