ligand_90_pose_19_2HRL.pdbqt
 OpenBabel07062320523D

 61 62  0  0  1  0  0  0  0  0999 V2000
   30.4190   39.4070   14.8600 C   0  0  0  0  0  0  0  0  0  0  0  0
   30.7870   38.8420   13.6180 O   0  0  0  0  0  0  0  0  0  0  0  0
   31.4850   37.6500   13.5390 C   0  0  0  0  0  0  0  0  0  0  0  0
   32.2430   37.1560   14.6550 N   0  0  0  0  0  0  0  0  0  0  0  0
   32.2390   37.7480   15.5100 H   0  0  0  0  0  0  0  0  0  0  0  0
   31.4450   37.0090   12.4740 O   0  0  0  0  0  0  0  0  0  0  0  0
   32.9690   35.9330   14.6270 C   0  0  0  0  0  0  0  0  0  0  0  0
   32.5100   34.9140   15.6110 C   0  0  2  0  0  0  0  0  0  0  0  0
   31.5010   33.9980   14.9370 C   0  0  1  0  0  0  0  0  0  0  0  0
   30.1340   34.1030   15.5330 C   0  0  2  0  0  0  0  0  0  0  0  0
   29.3400   31.9880   16.1020 C   0  0  2  0  0  0  0  0  0  0  0  0
   27.9140   32.2280   15.6280 C   0  0  0  0  0  0  0  0  0  0  0  0
   29.9490   33.1460   16.4970 O   0  0  0  0  0  0  0  0  0  0  0  0
   27.7460   33.6900   15.2370 C   0  0  1  0  0  0  0  0  0  0  0  0
   29.0410   34.0810   14.5150 C   0  0  1  0  0  0  0  0  0  0  0  0
   30.0170   31.4490   15.0230 O   0  0  0  0  0  0  0  0  0  0  0  0
   30.7580   30.8660   15.3280 H   0  0  0  0  0  0  0  0  0  0  0  0
   29.3830   30.9990   17.2110 C   0  0  0  0  0  0  0  0  0  0  0  0
   30.1730   31.1290   18.1880 O   0  0  0  0  0  0  0  0  0  0  0  0
   28.5500   29.8930   17.2140 O   0  0  0  0  0  0  0  0  0  0  0  0
   28.0250   29.5590   18.0020 H   0  0  0  0  0  0  0  0  0  0  0  0
   26.6560   33.7750   14.3900 O   0  0  0  0  0  0  0  0  0  0  0  0
   25.9320   33.1500   14.6210 H   0  0  0  0  0  0  0  0  0  0  0  0
   28.8680   35.3810   13.8810 N   0  0  0  0  0  0  0  0  0  0  0  0
   28.3490   35.4510   12.5730 C   0  0  0  0  0  0  0  0  0  0  0  0
   29.1290   36.2300   14.3880 H   0  0  0  0  0  0  0  0  0  0  0  0
   28.1520   36.7760   11.8790 C   0  0  0  0  0  0  0  0  0  0  0  0
   28.0200   34.4420   11.9050 O   0  0  0  0  0  0  0  0  0  0  0  0
   31.4320   34.2420   13.5750 O   0  0  0  0  0  0  0  0  0  0  0  0
   32.2520   34.6160   13.2050 H   0  0  0  0  0  0  0  0  0  0  0  0
   31.9470   35.4350   16.7650 O   0  0  0  0  0  0  0  0  0  0  0  0
   32.5620   35.3870   17.5450 H   0  0  0  0  0  0  0  0  0  0  0  0
   29.3250   38.5520   15.3820 C   0  0  0  0  0  0  0  0  0  0  0  0
   27.9960   38.7110   15.0530 C   0  0  0  0  0  0  0  0  0  0  0  0
   29.3390   37.5110   16.2270 N   0  0  0  0  0  0  0  0  0  0  0  0
   27.2390   37.7730   15.7010 N   0  0  0  0  0  0  0  0  0  0  0  0
   28.0830   37.0590   16.4040 N   0  0  0  0  0  0  0  0  0  0  0  0
   25.8020   37.7090   15.5470 C   0  0  0  0  0  0  0  0  0  0  0  0
   25.2870   36.9010   16.7240 C   0  0  0  0  0  0  0  0  0  0  0  0
   24.9400   37.4800   17.7760 O   0  0  0  0  0  0  0  0  0  0  0  0
   25.1820   35.5090   16.6810 N   0  0  0  0  0  0  0  0  0  0  0  0
   25.4860   35.0930   15.7210 H   0  0  0  0  0  0  0  0  0  0  0  0
   24.7580   34.5910   17.6740 C   0  0  0  0  0  0  0  0  0  0  0  0
   24.8540   33.1520   17.4450 C   0  0  1  0  0  0  0  0  0  0  0  0
   25.5630   32.4720   18.4730 O   0  0  0  0  0  0  0  0  0  0  0  0
   24.9210   31.9750   19.0360 H   0  0  0  0  0  0  0  0  0  0  0  0
   23.7440   32.3790   16.8650 C   0  0  0  0  0  0  0  0  0  0  0  0
   23.9810   31.9560   15.4980 N   0  0  0  0  0  0  0  0  0  0  0  0
   24.5200   30.7690   15.1210 C   0  0  0  0  0  0  0  0  0  0  0  0
   23.7230   32.6770   14.3920 C   0  0  0  0  0  0  0  0  0  0  0  0
   24.5850   30.7880   13.7400 C   0  0  0  0  0  0  0  0  0  0  0  0
   24.1000   31.9490   13.2980 N   0  0  0  0  0  0  0  0  0  0  0  0
   23.1580   33.9710   14.2800 N   0  0  0  0  0  0  0  0  0  0  0  0
   23.9370   34.9290   13.9950 O   0  0  0  0  0  0  0  0  0  0  0  0
   21.8550   34.2960   14.4500 O   0  0  0  0  0  0  0  0  0  0  0  0
   29.8670   25.5550   16.9770 C   0  0  0  0  0  0  0  0  0  0  0  0
   28.3450   25.7220   17.0260 C   0  0  0  0  0  0  0  0  0  0  0  0
   27.6010   24.4020   16.8930 C   0  0  0  0  0  0  0  0  0  0  0  0
   26.5180   24.2560   17.9250 C   0  0  0  0  0  0  0  0  0  0  0  0
   25.1800   24.0250   17.2300 C   0  0  0  0  0  0  0  0  0  0  0  0
   24.3660   25.2630   17.2460 N   0  0  0  0  0  0  0  0  0  0  0  0
  1 33  1  0  0  0  0
  2  1  1  0  0  0  0
  3  2  1  0  0  0  0
  3  4  1  0  0  0  0
  4  5  1  0  0  0  0
  6  3  2  0  0  0  0
  7  4  1  0  0  0  0
  8  7  1  6  0  0  0
  8 31  1  0  0  0  0
  9 29  1  6  0  0  0
  9  8  1  0  0  0  0
 10  9  1  6  0  0  0
 10 13  1  0  0  0  0
 11 16  1  6  0  0  0
 11 13  1  0  0  0  0
 11 18  1  0  0  0  0
 12 11  1  0  0  0  0
 14 22  1  6  0  0  0
 14 12  1  0  0  0  0
 15 24  1  1  0  0  0
 15 14  1  0  0  0  0
 15 10  1  0  0  0  0
 16 17  1  0  0  0  0
 18 20  1  0  0  0  0
 18 19  2  0  0  0  0
 20 21  1  0  0  0  0
 22 23  1  0  0  0  0
 24 26  1  0  0  0  0
 25 24  1  0  0  0  0
 27 25  1  0  0  0  0
 28 25  2  0  0  0  0
 30 29  1  0  0  0  0
 31 32  1  0  0  0  0
 33 35  1  0  0  0  0
 34 33  2  0  0  0  0
 34 36  1  0  0  0  0
 35 37  2  0  0  0  0
 36 37  1  0  0  0  0
 38 36  1  0  0  0  0
 38 39  1  0  0  0  0
 39 40  2  0  0  0  0
 41 39  1  0  0  0  0
 41 43  1  0  0  0  0
 42 41  1  0  0  0  0
 44 47  1  1  0  0  0
 44 43  1  0  0  0  0
 44 45  1  0  0  0  0
 45 46  1  0  0  0  0
 48 47  1  0  0  0  0
 49 48  1  0  0  0  0
 50 48  1  0  0  0  0
 51 49  2  0  0  0  0
 52 51  1  0  0  0  0
 52 50  2  0  0  0  0
 53 50  1  0  0  0  0
 53 55  2  0  0  0  0
 54 53  2  0  0  0  0
 56 57  1  0  0  0  0
 58 57  1  0  0  0  0
 58 59  1  0  0  0  0
 60 61  1  0  0  0  0
 60 59  1  0  0  0  0
M  END
>  <REMARK>
 VINA RESULT:    -5.057      5.308      9.153
 INTER + INTRA:         -16.432
 INTER:                  -6.843
 INTRA:                  -9.589
 UNBOUND:                -5.759
 SMILES CC(=O)N[C@@H]1[C@@H](O)C[C@](O)(C(=O)O)O[C@H]1C(O)[C@H](O)CNC(=O)OCc1cn(CC(=O)NCC(O)Cn2ccnc2[N+](=O)[O-])nn1
 SMILES IDX 25 1 24 2 22 3 21 4 23 6 20 7 18 8 16 9 15 10 9 11 8 12
 SMILES IDX 14 13 6 14 5 15 10 16 11 18 12 19 13 20 7 22 4 24 2 25 1 27
 SMILES IDX 3 28 17 29 19 31 26 33 27 34 46 35 28 36 45 37 29 38 30 39
 SMILES IDX 31 40 32 41 33 43 34 44 35 45 36 47 37 48 38 49 41 50 39 51
 SMILES IDX 40 52 42 53 43 54 44 55
 H PARENT 21 5 10 17 13 21 7 23 4 26 17 30 19 32 32 42 35 46
 Flexibility Score: inf
  4 active torsions:
  status: ('A' for Active; 'I' for Inactive)
    1  A    between atoms: CA   and  CB  
    2  A    between atoms: CB   and  CG  
    3  A    between atoms: CG   and  CD  
    4  A    between atoms: CD   and  CE  

>  <TORSDO>
F 22

>  <BEGIN_>
RES LYS A 131

$$$$
ligand_90_pose_19_2HRL.pdbqt
 OpenBabel07062320523D

  6  5  0  0  0  0  0  0  0  0999 V2000
   33.1930   34.6630    9.2900 C   0  0  0  0  0  0  0  0  0  0  0  0
   32.0600   35.3600   10.0340 C   0  0  0  0  0  0  0  0  0  0  0  0
   30.7090   34.7370    9.7950 C   0  0  0  0  0  0  0  0  0  0  0  0
   30.4760   34.5160    8.3080 C   0  0  0  0  0  0  0  0  0  0  0  0
   29.0520   34.8790    7.9330 C   0  0  0  0  0  0  0  0  0  0  0  0
   28.7560   36.3010    8.2620 N   0  0  0  0  0  0  0  0  0  0  0  0
  1  2  1  0  0  0  0
  3  2  1  0  0  0  0
  4  3  1  0  0  0  0
  5  6  1  0  0  0  0
  5  4  1  0  0  0  0
M  END
>  <EGIN_R>
ES LYS A 135

>  <REMARK>
  4 active torsions:
  status: ('A' for Active; 'I' for Inactive)
    5  A    between atoms: CA   and  CB  
    6  A    between atoms: CB   and  CG  
    7  A    between atoms: CG   and  CD  
    8  A    between atoms: CD   and  CE  

$$$$
