ligand_87_pose_2_2HRL.pdbqt
 OpenBabel07062320523D

 52 54  0  0  1  0  0  0  0  0999 V2000
   28.6110   26.7710   23.2350 C   0  0  0  0  0  0  0  0  0  0  0  0
   29.1550   27.9330   24.0130 C   0  0  2  0  0  0  0  0  0  0  0  0
   30.6740   27.8560   24.1070 C   0  0  2  0  0  0  0  0  0  0  0  0
   31.2510   28.8550   23.1040 C   0  0  2  0  0  0  0  0  0  0  0  0
   30.3970   30.2960   21.4720 C   0  0  2  0  0  0  0  0  0  0  0  0
   31.1550   29.6540   20.3520 C   0  0  0  0  0  0  0  0  0  0  0  0
   30.2270   29.5410   22.5850 O   0  0  0  0  0  0  0  0  0  0  0  0
   31.8460   28.3820   20.7070 C   0  0  1  0  0  0  0  0  0  0  0  0
   32.2130   28.2140   22.1440 C   0  0  1  0  0  0  0  0  0  0  0  0
   29.1140   30.5980   21.0020 O   0  0  0  0  0  0  0  0  0  0  0  0
   29.0800   30.6840   20.0190 H   0  0  0  0  0  0  0  0  0  0  0  0
   30.9910   31.5850   21.8850 C   0  0  0  0  0  0  0  0  0  0  0  0
   32.1360   31.8930   21.4950 O   0  0  0  0  0  0  0  0  0  0  0  0
   30.3480   32.5080   22.7040 O   0  0  0  0  0  0  0  0  0  0  0  0
   30.8090   33.4010   22.9380 H   0  0  0  0  0  0  0  0  0  0  0  0
   31.0250   27.3300   20.2750 O   0  0  0  0  0  0  0  0  0  0  0  0
   31.3730   26.4690   20.6070 H   0  0  0  0  0  0  0  0  0  0  0  0
   33.5780   28.5350   22.4610 N   0  0  0  0  0  0  0  0  0  0  0  0
   34.4280   27.7080   23.2310 C   0  0  0  0  0  0  0  0  0  0  0  0
   33.9970   29.4390   22.1120 H   0  0  0  0  0  0  0  0  0  0  0  0
   35.8330   28.0190   23.5700 C   0  0  0  0  0  0  0  0  0  0  0  0
   33.9130   26.6380   23.6350 O   0  0  0  0  0  0  0  0  0  0  0  0
   31.1500   26.5790   23.8640 O   0  0  0  0  0  0  0  0  0  0  0  0
   30.8930   26.3290   22.9390 H   0  0  0  0  0  0  0  0  0  0  0  0
   28.6580   28.0110   25.2830 O   0  0  0  0  0  0  0  0  0  0  0  0
   28.5320   27.0930   25.6630 H   0  0  0  0  0  0  0  0  0  0  0  0
   28.6390   26.9810   21.8280 N   0  0  0  0  0  0  0  0  0  0  0  0
   27.6740   27.6900   21.0930 C   0  0  0  0  0  0  0  0  0  0  0  0
   29.4520   26.5740   21.2670 H   0  0  0  0  0  0  0  0  0  0  0  0
   26.6720   28.2080   21.6200 O   0  0  0  0  0  0  0  0  0  0  0  0
   27.8370   27.8280   19.7010 O   0  0  0  0  0  0  0  0  0  0  0  0
   26.9040   28.6150   18.9880 C   0  0  0  0  0  0  0  0  0  0  0  0
   27.5180   29.1860   17.7900 C   0  0  0  0  0  0  0  0  0  0  0  0
   28.2940   30.3390   17.7520 C   0  0  0  0  0  0  0  0  0  0  0  0
   27.4520   28.7230   16.5430 N   0  0  0  0  0  0  0  0  0  0  0  0
   28.6680   30.5320   16.4810 N   0  0  0  0  0  0  0  0  0  0  0  0
   28.1480   29.5470   15.7800 N   0  0  0  0  0  0  0  0  0  0  0  0
   29.4810   31.5950   15.9480 C   0  0  1  0  0  0  0  0  0  0  0  0
   28.6360   32.8660   15.8710 C   0  0  0  0  0  0  0  0  0  0  0  0
   30.5940   31.8410   16.9430 C   0  0  0  0  0  0  0  0  0  0  0  0
   29.5430   34.0250   15.5560 C   0  0  1  0  0  0  0  0  0  0  0  0
   31.2890   33.1310   16.6510 C   0  0  2  0  0  0  0  0  0  0  0  0
   30.4320   34.2750   16.6750 N   0  0  0  0  0  0  0  0  0  0  0  0
   30.5230   33.6380   14.4640 C   0  0  0  0  0  0  0  0  0  0  0  0
   31.7180   33.0840   15.1790 C   0  0  0  0  0  0  0  0  0  0  0  0
   29.7360   34.4580   17.9160 C   0  0  0  0  0  0  0  0  0  0  0  0
   29.8670   25.5550   16.9770 C   0  0  0  0  0  0  0  0  0  0  0  0
   28.3450   25.7220   17.0260 C   0  0  0  0  0  0  0  0  0  0  0  0
   27.6000   24.4090   16.8380 C   0  0  0  0  0  0  0  0  0  0  0  0
   26.8280   24.0150   18.0660 C   0  0  0  0  0  0  0  0  0  0  0  0
   25.8120   25.1030   18.4000 C   0  0  0  0  0  0  0  0  0  0  0  0
   25.5490   25.1370   19.8580 N   0  0  0  0  0  0  0  0  0  0  0  0
  2  1  1  1  0  0  0
  2  3  1  0  0  0  0
  2 25  1  0  0  0  0
  3 23  1  6  0  0  0
  4  3  1  6  0  0  0
  5 10  1  6  0  0  0
  5 12  1  0  0  0  0
  5  7  1  0  0  0  0
  6  8  1  0  0  0  0
  6  5  1  0  0  0  0
  7  4  1  0  0  0  0
  8 16  1  1  0  0  0
  8  9  1  0  0  0  0
  9 18  1  6  0  0  0
  9  4  1  0  0  0  0
 11 10  1  0  0  0  0
 12 14  1  0  0  0  0
 13 12  2  0  0  0  0
 14 15  1  0  0  0  0
 16 17  1  0  0  0  0
 18 19  1  0  0  0  0
 19 21  1  0  0  0  0
 19 22  2  0  0  0  0
 20 18  1  0  0  0  0
 24 23  1  0  0  0  0
 25 26  1  0  0  0  0
 27  1  1  0  0  0  0
 28 30  2  0  0  0  0
 28 27  1  0  0  0  0
 29 27  1  0  0  0  0
 31 28  1  0  0  0  0
 32 31  1  0  0  0  0
 33 32  1  0  0  0  0
 34 33  2  0  0  0  0
 35 33  1  0  0  0  0
 36 34  1  0  0  0  0
 37 36  1  0  0  0  0
 37 35  2  0  0  0  0
 38 39  1  1  0  0  0
 38 36  1  0  0  0  0
 38 40  1  0  0  0  0
 41 44  1  6  0  0  0
 41 39  1  0  0  0  0
 41 43  1  0  0  0  0
 42 45  1  6  0  0  0
 42 43  1  0  0  0  0
 42 40  1  0  0  0  0
 43 46  1  0  0  0  0
 44 45  1  0  0  0  0
 47 48  1  0  0  0  0
 49 48  1  0  0  0  0
 49 50  1  0  0  0  0
 50 51  1  0  0  0  0
 51 52  1  0  0  0  0
M  END
>  <REMARK>
 VINA RESULT:    -5.473      2.060      3.095
 INTER + INTRA:         -14.975
 INTER:                  -8.618
 INTRA:                  -6.357
 UNBOUND:                -5.502
 SMILES CC(=O)N[C@@H]1[C@@H](O)C[C@](O)(C(=O)O)O[C@H]1C(O)[C@H](O)CNC(=O)OCc1cn([C@@H]2C[C@H]3CC[C@@H](C2)N3C)nn1
 SMILES IDX 20 1 18 2 16 3 15 4 9 5 8 6 14 7 6 8 5 9 10 10 11 12 12 13
 SMILES IDX 13 14 7 16 4 18 2 19 1 21 3 22 17 23 19 25 21 27 22 28 23 30
 SMILES IDX 24 31 25 32 26 33 27 34 39 35 28 36 38 37 29 38 35 39 30 40
 SMILES IDX 34 41 31 42 36 43 33 44 32 45 37 46
 H PARENT 10 11 13 15 7 17 4 20 17 24 19 26 21 29
 Flexibility Score: inf
  4 active torsions:
  status: ('A' for Active; 'I' for Inactive)
    1  A    between atoms: CA   and  CB  
    2  A    between atoms: CB   and  CG  
    3  A    between atoms: CG   and  CD  
    4  A    between atoms: CD   and  CE  

>  <TORSDO>
F 15

>  <BEGIN_>
RES LYS A 131

$$$$
ligand_87_pose_2_2HRL.pdbqt
 OpenBabel07062320523D

  6  5  0  0  0  0  0  0  0  0999 V2000
   33.1930   34.6630    9.2900 C   0  0  0  0  0  0  0  0  0  0  0  0
   32.0600   35.3600   10.0340 C   0  0  0  0  0  0  0  0  0  0  0  0
   30.7230   34.6860    9.8640 C   0  0  0  0  0  0  0  0  0  0  0  0
   30.3900   34.5190    8.3890 C   0  0  0  0  0  0  0  0  0  0  0  0
   29.4000   35.5770    7.9430 C   0  0  0  0  0  0  0  0  0  0  0  0
   28.0670   34.9780    7.6560 N   0  0  0  0  0  0  0  0  0  0  0  0
  1  2  1  0  0  0  0
  3  2  1  0  0  0  0
  4  3  1  0  0  0  0
  5  4  1  0  0  0  0
  6  5  1  0  0  0  0
M  END
>  <EGIN_R>
ES LYS A 135

>  <REMARK>
  4 active torsions:
  status: ('A' for Active; 'I' for Inactive)
    5  A    between atoms: CA   and  CB  
    6  A    between atoms: CB   and  CG  
    7  A    between atoms: CG   and  CD  
    8  A    between atoms: CD   and  CE  

$$$$
