ligand_93_pose_4_2HRL.pdbqt
 OpenBabel07062320523D

 50 51  0  0  1  0  0  0  0  0999 V2000
   27.2090   28.0500   21.8710 C   0  0  0  0  0  0  0  0  0  0  0  0
   28.2600   27.4200   22.7540 C   0  0  2  0  0  0  0  0  0  0  0  0
   29.5920   27.4420   22.0900 C   0  0  1  0  0  0  0  0  0  0  0  0
   30.5360   28.5250   22.5460 C   0  0  2  0  0  0  0  0  0  0  0  0
   30.7170   30.2500   20.9500 C   0  0  2  0  0  0  0  0  0  0  0  0
   32.2250   30.1110   20.9310 C   0  0  0  0  0  0  0  0  0  0  0  0
   30.1030   29.6930   22.0140 O   0  0  0  0  0  0  0  0  0  0  0  0
   32.5350   28.6490   21.1230 C   0  0  1  0  0  0  0  0  0  0  0  0
   31.9800   28.2270   22.4600 C   0  0  1  0  0  0  0  0  0  0  0  0
   30.2650   29.6150   19.7930 O   0  0  0  0  0  0  0  0  0  0  0  0
   29.3150   29.9110   19.6590 H   0  0  0  0  0  0  0  0  0  0  0  0
   30.4150   31.7080   20.8000 C   0  0  0  0  0  0  0  0  0  0  0  0
   29.7730   32.3650   21.6490 O   0  0  0  0  0  0  0  0  0  0  0  0
   30.8680   32.3550   19.6700 O   0  0  0  0  0  0  0  0  0  0  0  0
   31.8560   32.4020   19.4140 H   0  0  0  0  0  0  0  0  0  0  0  0
   31.9460   27.9710   20.0540 O   0  0  0  0  0  0  0  0  0  0  0  0
   30.9700   27.8700   20.1670 H   0  0  0  0  0  0  0  0  0  0  0  0
   32.7150   29.0000   23.4780 N   0  0  0  0  0  0  0  0  0  0  0  0
   33.8400   28.4670   24.1530 C   0  0  0  0  0  0  0  0  0  0  0  0
   32.4100   29.9640   23.7170 H   0  0  0  0  0  0  0  0  0  0  0  0
   34.5250   29.3070   25.1620 C   0  0  0  0  0  0  0  0  0  0  0  0
   34.2600   27.2970   23.9070 O   0  0  0  0  0  0  0  0  0  0  0  0
   30.1740   26.1850   22.0020 O   0  0  0  0  0  0  0  0  0  0  0  0
   29.4930   25.4590   22.0750 H   0  0  0  0  0  0  0  0  0  0  0  0
   27.8160   26.0890   22.9740 O   0  0  0  0  0  0  0  0  0  0  0  0
   27.1520   26.0890   23.7170 H   0  0  0  0  0  0  0  0  0  0  0  0
   27.6280   28.2290   20.4990 N   0  0  0  0  0  0  0  0  0  0  0  0
   27.1010   27.3550   19.4970 C   0  0  0  0  0  0  0  0  0  0  0  0
   28.2940   28.9880   20.2780 H   0  0  0  0  0  0  0  0  0  0  0  0
   26.3000   26.4710   19.8450 O   0  0  0  0  0  0  0  0  0  0  0  0
   27.5190   27.5480   18.1910 O   0  0  0  0  0  0  0  0  0  0  0  0
   26.8260   28.4660   17.3860 C   0  0  0  0  0  0  0  0  0  0  0  0
   27.5570   29.7560   17.4230 C   0  0  0  0  0  0  0  0  0  0  0  0
   28.2650   30.2880   16.3400 C   0  0  0  0  0  0  0  0  0  0  0  0
   27.7000   30.6360   18.4200 N   0  0  0  0  0  0  0  0  0  0  0  0
   28.7710   31.4450   16.7800 N   0  0  0  0  0  0  0  0  0  0  0  0
   28.4370   31.6650   18.0360 N   0  0  0  0  0  0  0  0  0  0  0  0
   29.5660   32.3260   16.0050 C   0  0  0  0  0  0  0  0  0  0  0  0
   30.9470   32.1390   15.9770 C   0  0  0  0  0  0  0  0  0  0  0  0
   28.9630   33.3340   15.3050 C   0  0  0  0  0  0  0  0  0  0  0  0
   31.7270   32.9920   15.2260 C   0  0  0  0  0  0  0  0  0  0  0  0
   29.7630   34.1790   14.5580 C   0  0  0  0  0  0  0  0  0  0  0  0
   26.8820   33.6550   15.3170 I   0  0  0  0  0  0  0  0  0  0  0  0
   31.1360   34.0130   14.5150 C   0  0  0  0  0  0  0  0  0  0  0  0
   29.8670   25.5550   16.9770 C   0  0  0  0  0  0  0  0  0  0  0  0
   28.3450   25.7220   17.0260 C   0  0  0  0  0  0  0  0  0  0  0  0
   27.6000   24.4110   16.8270 C   0  0  0  0  0  0  0  0  0  0  0  0
   26.1420   24.5290   17.1750 C   0  0  0  0  0  0  0  0  0  0  0  0
   25.6210   23.1770   17.6520 C   0  0  0  0  0  0  0  0  0  0  0  0
   25.5630   23.1370   19.1320 N   0  0  0  0  0  0  0  0  0  0  0  0
  2  1  1  6  0  0  0
  2 25  1  0  0  0  0
  3 23  1  1  0  0  0
  3  2  1  0  0  0  0
  4  3  1  6  0  0  0
  5 10  1  6  0  0  0
  5  7  1  0  0  0  0
  6  5  1  0  0  0  0
  6  8  1  0  0  0  0
  7  4  1  0  0  0  0
  8 16  1  6  0  0  0
  8  9  1  0  0  0  0
  9  4  1  0  0  0  0
  9 18  1  1  0  0  0
 11 10  1  0  0  0  0
 12  5  1  0  0  0  0
 12 13  2  0  0  0  0
 14 12  1  0  0  0  0
 15 14  1  0  0  0  0
 16 17  1  0  0  0  0
 18 20  1  0  0  0  0
 18 19  1  0  0  0  0
 19 21  1  0  0  0  0
 22 19  2  0  0  0  0
 23 24  1  0  0  0  0
 25 26  1  0  0  0  0
 27  1  1  0  0  0  0
 28 30  2  0  0  0  0
 28 27  1  0  0  0  0
 29 27  1  0  0  0  0
 31 28  1  0  0  0  0
 32 33  1  0  0  0  0
 32 31  1  0  0  0  0
 33 35  1  0  0  0  0
 34 36  1  0  0  0  0
 34 33  2  0  0  0  0
 36 37  1  0  0  0  0
 37 35  2  0  0  0  0
 38 36  1  0  0  0  0
 39 38  1  0  0  0  0
 40 43  1  0  0  0  0
 40 38  2  0  0  0  0
 41 39  2  0  0  0  0
 42 40  1  0  0  0  0
 44 42  2  0  0  0  0
 44 41  1  0  0  0  0
 45 46  1  0  0  0  0
 47 46  1  0  0  0  0
 47 48  1  0  0  0  0
 48 49  1  0  0  0  0
 49 50  1  0  0  0  0
M  END
>  <REMARK>
 VINA RESULT:    -4.749      3.786      6.538
 INTER + INTRA:         -14.504
 INTER:                  -8.256
 INTRA:                  -6.248
 UNBOUND:                -6.285
 SMILES CC(=O)N[C@@H]1[C@@H](O)C[C@](O)(C(=O)O)O[C@H]1C(O)[C@H](O)CNC(=O)OCc1cn(-c2ccccc2I)nn1
 SMILES IDX 20 1 18 2 16 3 15 4 9 5 8 6 14 7 6 8 5 9 10 10 11 12 12 13
 SMILES IDX 13 14 7 16 4 18 2 19 1 21 3 22 17 23 19 25 21 27 22 28 23 30
 SMILES IDX 24 31 25 32 26 33 27 34 37 35 28 36 36 37 29 38 30 39 34 40
 SMILES IDX 31 41 33 42 35 43 32 44
 H PARENT 10 11 13 15 7 17 4 20 17 24 19 26 21 29
 Flexibility Score: inf
  4 active torsions:
  status: ('A' for Active; 'I' for Inactive)
    1  A    between atoms: CA   and  CB  
    2  A    between atoms: CB   and  CG  
    3  A    between atoms: CG   and  CD  
    4  A    between atoms: CD   and  CE  

>  <TORSDO>
F 15

>  <BEGIN_>
RES LYS A 131

$$$$
ligand_93_pose_4_2HRL.pdbqt
 OpenBabel07062320523D

  6  5  0  0  0  0  0  0  0  0999 V2000
   33.1930   34.6630    9.2900 C   0  0  0  0  0  0  0  0  0  0  0  0
   32.0600   35.3600   10.0340 C   0  0  0  0  0  0  0  0  0  0  0  0
   30.7450   34.6290    9.9510 C   0  0  0  0  0  0  0  0  0  0  0  0
   30.2410   34.5930    8.5160 C   0  0  0  0  0  0  0  0  0  0  0  0
   28.7340   34.4200    8.4850 C   0  0  0  0  0  0  0  0  0  0  0  0
   28.1210   35.2520    7.4140 N   0  0  0  0  0  0  0  0  0  0  0  0
  1  2  1  0  0  0  0
  3  2  1  0  0  0  0
  4  3  1  0  0  0  0
  5  4  1  0  0  0  0
  6  5  1  0  0  0  0
M  END
>  <EGIN_R>
ES LYS A 135

>  <REMARK>
  4 active torsions:
  status: ('A' for Active; 'I' for Inactive)
    5  A    between atoms: CA   and  CB  
    6  A    between atoms: CB   and  CG  
    7  A    between atoms: CG   and  CD  
    8  A    between atoms: CD   and  CE  

$$$$
