ligand_22_pose_7_2HRL.pdbqt
 OpenBabel07062320523D

 50 50  0  0  1  0  0  0  0  0999 V2000
   25.9730   36.1500   14.9890 N   0  0  0  0  0  0  0  0  0  0  0  0
   25.4460   36.0240   13.6830 C   0  0  0  0  0  0  0  0  0  0  0  0
   24.5130   35.1840   13.4350 O   0  0  0  0  0  0  0  0  0  0  0  0
   26.7270   36.8360   15.1820 H   0  0  0  0  0  0  0  0  0  0  0  0
   25.4260   35.3090   16.0230 C   0  0  0  0  0  0  0  0  0  0  0  0
   26.2790   34.1590   16.4260 C   0  0  2  0  0  0  0  0  0  0  0  0
   27.5200   34.0040   15.5840 C   0  0  1  0  0  0  0  0  0  0  0  0
   28.5800   33.2930   16.4350 C   0  0  2  0  0  0  0  0  0  0  0  0
   30.7020   33.7290   17.2800 C   0  0  2  0  0  0  0  0  0  0  0  0
   31.1980   32.3790   16.8100 C   0  0  0  0  0  0  0  0  0  0  0  0
   29.6270   34.1990   16.5660 O   0  0  0  0  0  0  0  0  0  0  0  0
   30.5160   31.9980   15.5290 C   0  0  1  0  0  0  0  0  0  0  0  0
   29.0150   32.0200   15.7430 C   0  0  1  0  0  0  0  0  0  0  0  0
   31.7540   34.6300   17.0490 O   0  0  0  0  0  0  0  0  0  0  0  0
   32.6100   34.1800   17.1660 H   0  0  0  0  0  0  0  0  0  0  0  0
   30.4330   33.7080   18.7350 C   0  0  0  0  0  0  0  0  0  0  0  0
   30.5090   32.6370   19.3690 O   0  0  0  0  0  0  0  0  0  0  0  0
   30.0940   34.8550   19.4360 O   0  0  0  0  0  0  0  0  0  0  0  0
   29.1770   34.9920   19.8390 H   0  0  0  0  0  0  0  0  0  0  0  0
   30.9060   32.7620   14.4560 O   0  0  0  0  0  0  0  0  0  0  0  0
   30.3510   32.6600   13.6530 H   0  0  0  0  0  0  0  0  0  0  0  0
   28.6940   30.8490   16.5570 N   0  0  0  0  0  0  0  0  0  0  0  0
   27.5010   30.1050   16.3430 C   0  0  0  0  0  0  0  0  0  0  0  0
   29.3430   30.5440   17.3110 H   0  0  0  0  0  0  0  0  0  0  0  0
   27.1580   28.9070   17.1650 C   0  0  0  0  0  0  0  0  0  0  0  0
   26.7430   30.5190   15.4100 O   0  0  0  0  0  0  0  0  0  0  0  0
   27.3360   33.3750   14.3850 O   0  0  0  0  0  0  0  0  0  0  0  0
   27.4270   34.0020   13.6420 H   0  0  0  0  0  0  0  0  0  0  0  0
   25.4740   33.0020   16.2640 O   0  0  0  0  0  0  0  0  0  0  0  0
   25.2880   32.6220   17.1700 H   0  0  0  0  0  0  0  0  0  0  0  0
   25.8790   36.7680   12.6050 O   0  0  0  0  0  0  0  0  0  0  0  0
   26.5830   36.1590   11.5080 C   0  0  0  0  0  0  0  0  0  0  0  0
   27.9460   35.8100   11.9880 C   0  0  0  0  0  0  0  0  0  0  0  0
   28.9220   36.7180   12.3660 C   0  0  0  0  0  0  0  0  0  0  0  0
   28.5160   34.6020   12.1560 N   0  0  0  0  0  0  0  0  0  0  0  0
   30.0360   36.0500   12.7460 N   0  0  0  0  0  0  0  0  0  0  0  0
   29.7520   34.7690   12.6050 N   0  0  0  0  0  0  0  0  0  0  0  0
   31.2680   36.6540   13.2080 C   0  0  0  0  0  0  0  0  0  0  0  0
   31.7830   37.6440   12.1830 C   0  0  0  0  0  0  0  0  0  0  0  0
   31.0180   37.3630   14.5230 C   0  0  0  0  0  0  0  0  0  0  0  0
   32.3330   35.6240   13.3880 C   0  0  0  0  0  0  0  0  0  0  0  0
   32.6160   35.2860   14.5660 O   0  0  0  0  0  0  0  0  0  0  0  0
   32.9940   35.0490   12.3200 O   0  0  0  0  0  0  0  0  0  0  0  0
   33.5670   34.2320   12.5110 H   0  0  0  0  0  0  0  0  0  0  0  0
   29.8670   25.5550   16.9770 C   0  0  0  0  0  0  0  0  0  0  0  0
   28.3450   25.7220   17.0260 C   0  0  0  0  0  0  0  0  0  0  0  0
   27.6010   24.4030   16.8860 C   0  0  0  0  0  0  0  0  0  0  0  0
   26.2660   24.4290   17.5770 C   0  0  0  0  0  0  0  0  0  0  0  0
   26.3040   25.4400   18.7190 C   0  0  0  0  0  0  0  0  0  0  0  0
   25.4550   24.9840   19.8440 N   0  0  0  0  0  0  0  0  0  0  0  0
  1  4  1  0  0  0  0
  1  5  1  0  0  0  0
  2  1  1  0  0  0  0
  3  2  2  0  0  0  0
  6  5  1  6  0  0  0
  7 27  1  6  0  0  0
  7  6  1  0  0  0  0
  8  7  1  6  0  0  0
  8 11  1  0  0  0  0
  9 14  1  6  0  0  0
  9 16  1  0  0  0  0
 10  9  1  0  0  0  0
 11  9  1  0  0  0  0
 12 20  1  6  0  0  0
 12 13  1  0  0  0  0
 12 10  1  0  0  0  0
 13  8  1  0  0  0  0
 13 22  1  1  0  0  0
 14 15  1  0  0  0  0
 16 17  2  0  0  0  0
 16 18  1  0  0  0  0
 18 19  1  0  0  0  0
 21 20  1  0  0  0  0
 22 24  1  0  0  0  0
 23 22  1  0  0  0  0
 23 25  1  0  0  0  0
 26 23  2  0  0  0  0
 28 27  1  0  0  0  0
 29  6  1  0  0  0  0
 29 30  1  0  0  0  0
 31  2  1  0  0  0  0
 32 33  1  0  0  0  0
 32 31  1  0  0  0  0
 33 35  1  0  0  0  0
 33 34  2  0  0  0  0
 34 36  1  0  0  0  0
 35 37  2  0  0  0  0
 36 38  1  0  0  0  0
 37 36  1  0  0  0  0
 38 41  1  0  0  0  0
 38 40  1  0  0  0  0
 39 38  1  0  0  0  0
 41 42  2  0  0  0  0
 43 44  1  0  0  0  0
 43 41  1  0  0  0  0
 45 46  1  0  0  0  0
 47 46  1  0  0  0  0
 47 48  1  0  0  0  0
 48 49  1  0  0  0  0
 49 50  1  0  0  0  0
M  END
>  <REMARK>
 VINA RESULT:    -4.971      2.039      5.457
 INTER + INTRA:         -14.617
 INTER:                  -7.254
 INTRA:                  -7.363
 UNBOUND:                -5.578
 SMILES CC(=O)N[C@@H]1[C@@H](O)C[C@](O)(C(=O)O)O[C@H]1C(O)[C@H](O)CNC(=O)OCc1cn(C(C)(C)C(=O)O)nn1
 SMILES IDX 21 1 22 2 23 3 20 5 18 6 16 7 15 8 9 9 8 10 14 11 6 12 5 13
 SMILES IDX 10 14 11 16 12 17 13 18 7 20 4 22 2 23 1 25 3 26 17 27 19 29
 SMILES IDX 24 31 25 32 26 33 27 34 36 35 28 36 35 37 29 38 30 39 31 40
 SMILES IDX 32 41 33 42 34 43
 H PARENT 21 4 10 15 13 19 7 21 4 24 17 28 19 30 34 44
 Flexibility Score: inf
  4 active torsions:
  status: ('A' for Active; 'I' for Inactive)
    1  A    between atoms: CA   and  CB  
    2  A    between atoms: CB   and  CG  
    3  A    between atoms: CG   and  CD  
    4  A    between atoms: CD   and  CE  

>  <TORSDO>
F 17

>  <BEGIN_>
RES LYS A 131

$$$$
ligand_22_pose_7_2HRL.pdbqt
 OpenBabel07062320523D

  6  5  0  0  0  0  0  0  0  0999 V2000
   33.1930   34.6630    9.2900 C   0  0  0  0  0  0  0  0  0  0  0  0
   32.0600   35.3600   10.0340 C   0  0  0  0  0  0  0  0  0  0  0  0
   30.8220   35.5580    9.1980 C   0  0  0  0  0  0  0  0  0  0  0  0
   30.1000   34.2360    8.9870 C   0  0  0  0  0  0  0  0  0  0  0  0
   28.7450   34.4650    8.3460 C   0  0  0  0  0  0  0  0  0  0  0  0
   28.8530   35.3770    7.1740 N   0  0  0  0  0  0  0  0  0  0  0  0
  1  2  1  0  0  0  0
  3  2  1  0  0  0  0
  4  3  1  0  0  0  0
  5  4  1  0  0  0  0
  6  5  1  0  0  0  0
M  END
>  <EGIN_R>
ES LYS A 135

>  <REMARK>
  4 active torsions:
  status: ('A' for Active; 'I' for Inactive)
    5  A    between atoms: CA   and  CB  
    6  A    between atoms: CB   and  CG  
    7  A    between atoms: CG   and  CD  
    8  A    between atoms: CD   and  CE  

$$$$
