ligand_49_pose_15_2HRL.pdbqt
 OpenBabel07062320523D

 48 49  0  0  1  0  0  0  0  0999 V2000
   28.2560   35.6260    6.0270 C   0  0  0  0  0  0  0  0  0  0  0  0
   27.6490   36.9590    5.6870 C   0  0  2  0  0  0  0  0  0  0  0  0
   28.7890   37.9580    5.6820 C   0  0  1  0  0  0  0  0  0  0  0  0
   28.3120   39.3730    5.7710 C   0  0  2  0  0  0  0  0  0  0  0  0
   26.3950   40.6460    5.4940 C   0  0  2  0  0  0  0  0  0  0  0  0
   27.3830   41.7420    5.8610 C   0  0  0  0  0  0  0  0  0  0  0  0
   27.1210   39.5190    5.1010 O   0  0  0  0  0  0  0  0  0  0  0  0
   28.5460   41.6290    4.8960 C   0  0  1  0  0  0  0  0  0  0  0  0
   29.3220   40.3830    5.3020 C   0  0  1  0  0  0  0  0  0  0  0  0
   25.6320   41.1360    4.4400 O   0  0  0  0  0  0  0  0  0  0  0  0
   25.7980   42.1280    4.3980 H   0  0  0  0  0  0  0  0  0  0  0  0
   25.5040   40.3080    6.6100 C   0  0  0  0  0  0  0  0  0  0  0  0
   25.4820   40.9930    7.6630 O   0  0  0  0  0  0  0  0  0  0  0  0
   24.6560   39.2160    6.5340 O   0  0  0  0  0  0  0  0  0  0  0  0
   24.9650   38.2630    6.7670 H   0  0  0  0  0  0  0  0  0  0  0  0
   27.9950   41.4410    3.6170 O   0  0  0  0  0  0  0  0  0  0  0  0
   27.9760   42.3320    3.1780 H   0  0  0  0  0  0  0  0  0  0  0  0
   30.2640   40.7410    6.3430 N   0  0  0  0  0  0  0  0  0  0  0  0
   31.6270   40.3870    6.2420 C   0  0  0  0  0  0  0  0  0  0  0  0
   29.9420   41.2650    7.1760 H   0  0  0  0  0  0  0  0  0  0  0  0
   32.6440   40.7220    7.2700 C   0  0  0  0  0  0  0  0  0  0  0  0
   32.0000   39.7540    5.2280 O   0  0  0  0  0  0  0  0  0  0  0  0
   29.5540   37.6910    6.8190 O   0  0  0  0  0  0  0  0  0  0  0  0
   29.6690   36.7380    7.0010 H   0  0  0  0  0  0  0  0  0  0  0  0
   26.6960   37.3420    6.6010 O   0  0  0  0  0  0  0  0  0  0  0  0
   25.9540   37.8050    6.1270 H   0  0  0  0  0  0  0  0  0  0  0  0
   27.8690   35.0670    7.2830 N   0  0  0  0  0  0  0  0  0  0  0  0
   28.7220   34.7600    8.3490 C   0  0  0  0  0  0  0  0  0  0  0  0
   26.8260   34.8680    7.4090 H   0  0  0  0  0  0  0  0  0  0  0  0
   29.9530   34.9670    8.2510 O   0  0  0  0  0  0  0  0  0  0  0  0
   28.2050   34.2190    9.5410 O   0  0  0  0  0  0  0  0  0  0  0  0
   27.6990   35.1280   10.5000 C   0  0  0  0  0  0  0  0  0  0  0  0
   26.5230   35.8120    9.9180 C   0  0  0  0  0  0  0  0  0  0  0  0
   25.2870   35.2040    9.7460 C   0  0  0  0  0  0  0  0  0  0  0  0
   26.3860   37.0510    9.4620 N   0  0  0  0  0  0  0  0  0  0  0  0
   24.4670   36.1010    9.1990 N   0  0  0  0  0  0  0  0  0  0  0  0
   25.1470   37.2190    9.0310 N   0  0  0  0  0  0  0  0  0  0  0  0
   23.0730   35.8270    8.8680 C   0  0  0  0  0  0  0  0  0  0  0  0
   22.3400   35.5820   10.1570 C   0  0  0  0  0  0  0  0  0  0  0  0
   22.4680   37.0630    8.2400 C   0  0  0  0  0  0  0  0  0  0  0  0
   21.2120   36.5620   10.2040 C   0  0  0  0  0  0  0  0  0  0  0  0
   21.6990   37.7180    9.3740 C   0  0  0  0  0  0  0  0  0  0  0  0
   29.8670   25.5550   16.9770 C   0  0  0  0  0  0  0  0  0  0  0  0
   28.3450   25.7220   17.0260 C   0  0  0  0  0  0  0  0  0  0  0  0
   27.6010   24.4040   16.8740 C   0  0  0  0  0  0  0  0  0  0  0  0
   26.6390   24.1630   18.0040 C   0  0  0  0  0  0  0  0  0  0  0  0
   25.2100   24.1840   17.4700 C   0  0  0  0  0  0  0  0  0  0  0  0
   24.6790   22.8060   17.3550 N   0  0  0  0  0  0  0  0  0  0  0  0
  1 27  1  0  0  0  0
  2  1  1  1  0  0  0
  2 25  1  0  0  0  0
  3  2  1  0  0  0  0
  3 23  1  1  0  0  0
  4  3  1  6  0  0  0
  5 10  1  6  0  0  0
  5  6  1  0  0  0  0
  5 12  1  0  0  0  0
  7  5  1  0  0  0  0
  7  4  1  0  0  0  0
  8 16  1  6  0  0  0
  8  9  1  0  0  0  0
  8  6  1  0  0  0  0
  9  4  1  0  0  0  0
  9 18  1  1  0  0  0
 11 10  1  0  0  0  0
 12 13  2  0  0  0  0
 14 12  1  0  0  0  0
 14 15  1  0  0  0  0
 17 16  1  0  0  0  0
 18 20  1  0  0  0  0
 19 18  1  0  0  0  0
 19 21  1  0  0  0  0
 22 19  2  0  0  0  0
 23 24  1  0  0  0  0
 26 25  1  0  0  0  0
 27 29  1  0  0  0  0
 27 28  1  0  0  0  0
 28 31  1  0  0  0  0
 30 28  2  0  0  0  0
 31 32  1  0  0  0  0
 33 32  1  0  0  0  0
 34 33  2  0  0  0  0
 35 33  1  0  0  0  0
 36 34  1  0  0  0  0
 37 36  1  0  0  0  0
 37 35  2  0  0  0  0
 38 36  1  0  0  0  0
 38 39  1  0  0  0  0
 39 41  1  0  0  0  0
 40 38  1  0  0  0  0
 40 42  1  0  0  0  0
 42 41  1  0  0  0  0
 43 44  1  0  0  0  0
 45 44  1  0  0  0  0
 45 46  1  0  0  0  0
 47 46  1  0  0  0  0
 48 47  1  0  0  0  0
M  END
>  <REMARK>
 VINA RESULT:    -4.857      5.998      9.835
 INTER + INTRA:         -13.433
 INTER:                  -8.351
 INTRA:                  -5.082
 UNBOUND:                -5.026
 SMILES CC(=O)N[C@@H]1[C@@H](O)C[C@](O)(C(=O)O)O[C@H]1C(O)[C@H](O)CNC(=O)OCc1cn(C2CCCC2)nn1
 SMILES IDX 20 1 18 2 16 3 15 4 9 5 8 6 14 7 6 8 5 9 10 10 11 12 12 13
 SMILES IDX 13 14 7 16 4 18 2 19 1 21 3 22 17 23 19 25 21 27 22 28 23 30
 SMILES IDX 24 31 25 32 26 33 27 34 35 35 28 36 34 37 29 38 30 39 33 40
 SMILES IDX 31 41 32 42
 H PARENT 10 11 13 15 7 17 4 20 17 24 19 26 21 29
 Flexibility Score: inf
  4 active torsions:
  status: ('A' for Active; 'I' for Inactive)
    1  A    between atoms: CA   and  CB  
    2  A    between atoms: CB   and  CG  
    3  A    between atoms: CG   and  CD  
    4  A    between atoms: CD   and  CE  

>  <TORSDO>
F 15

>  <BEGIN_>
RES LYS A 131

$$$$
ligand_49_pose_15_2HRL.pdbqt
 OpenBabel07062320523D

  6  5  0  0  0  0  0  0  0  0999 V2000
   33.1930   34.6630    9.2900 C   0  0  0  0  0  0  0  0  0  0  0  0
   32.0600   35.3600   10.0340 C   0  0  0  0  0  0  0  0  0  0  0  0
   32.5170   36.1180   11.2540 C   0  0  0  0  0  0  0  0  0  0  0  0
   32.0220   37.5550   11.2090 C   0  0  0  0  0  0  0  0  0  0  0  0
   31.1010   37.7650   10.0230 C   0  0  0  0  0  0  0  0  0  0  0  0
   29.7360   38.1630   10.4670 N   0  0  0  0  0  0  0  0  0  0  0  0
  1  2  1  0  0  0  0
  2  3  1  0  0  0  0
  4  3  1  0  0  0  0
  5  6  1  0  0  0  0
  5  4  1  0  0  0  0
M  END
>  <EGIN_R>
ES LYS A 135

>  <REMARK>
  4 active torsions:
  status: ('A' for Active; 'I' for Inactive)
    5  A    between atoms: CA   and  CB  
    6  A    between atoms: CB   and  CG  
    7  A    between atoms: CG   and  CD  
    8  A    between atoms: CD   and  CE  

$$$$
