ligand_70_pose_2_2HRL.pdbqt
 OpenBabel07062320523D

 53 55  0  0  1  0  0  0  0  0999 V2000
   30.6190   29.9150   20.3410 C   0  0  0  0  0  0  0  0  0  0  0  0
   29.4730   29.2910   21.0870 C   0  0  2  0  0  0  0  0  0  0  0  0
   29.2760   27.8300   20.7880 C   0  0  1  0  0  0  0  0  0  0  0  0
   28.1370   27.5350   19.8560 C   0  0  2  0  0  0  0  0  0  0  0  0
   26.8850   28.6870   18.2790 C   0  0  2  0  0  0  0  0  0  0  0  0
   25.9650   27.4970   18.1750 C   0  0  0  0  0  0  0  0  0  0  0  0
   28.1350   28.3640   18.7430 O   0  0  0  0  0  0  0  0  0  0  0  0
   25.8610   26.7970   19.4880 C   0  0  1  0  0  0  0  0  0  0  0  0
   26.8160   27.4130   20.5340 C   0  0  1  0  0  0  0  0  0  0  0  0
   26.2360   29.6640   19.0290 O   0  0  0  0  0  0  0  0  0  0  0  0
   26.3660   29.5640   19.9900 H   0  0  0  0  0  0  0  0  0  0  0  0
   27.0470   29.2380   16.9000 C   0  0  0  0  0  0  0  0  0  0  0  0
   26.0110   29.4120   16.2110 O   0  0  0  0  0  0  0  0  0  0  0  0
   28.2820   29.5550   16.3640 O   0  0  0  0  0  0  0  0  0  0  0  0
   28.3840   29.6630   15.3510 H   0  0  0  0  0  0  0  0  0  0  0  0
   24.5440   26.8490   19.9800 O   0  0  0  0  0  0  0  0  0  0  0  0
   23.9680   27.3280   19.3390 H   0  0  0  0  0  0  0  0  0  0  0  0
   26.9580   26.4510   21.6310 N   0  0  0  0  0  0  0  0  0  0  0  0
   26.1730   26.4990   22.8120 C   0  0  0  0  0  0  0  0  0  0  0  0
   27.6610   25.6930   21.5610 H   0  0  0  0  0  0  0  0  0  0  0  0
   26.3350   25.5160   23.9170 C   0  0  0  0  0  0  0  0  0  0  0  0
   25.3010   27.3910   22.9600 O   0  0  0  0  0  0  0  0  0  0  0  0
   30.4950   27.3540   20.2640 O   0  0  0  0  0  0  0  0  0  0  0  0
   31.1910   27.9940   20.5530 H   0  0  0  0  0  0  0  0  0  0  0  0
   28.2830   30.0150   20.8700 O   0  0  0  0  0  0  0  0  0  0  0  0
   27.7110   29.7910   21.6710 H   0  0  0  0  0  0  0  0  0  0  0  0
   30.1990   30.2390   18.9980 N   0  0  0  0  0  0  0  0  0  0  0  0
   30.3180   31.5280   18.4400 C   0  0  0  0  0  0  0  0  0  0  0  0
   29.7750   29.5070   18.3630 H   0  0  0  0  0  0  0  0  0  0  0  0
   30.8010   32.4810   19.0850 O   0  0  0  0  0  0  0  0  0  0  0  0
   29.9060   31.8220   17.1320 O   0  0  0  0  0  0  0  0  0  0  0  0
   30.8020   32.4920   16.2330 C   0  0  0  0  0  0  0  0  0  0  0  0
   30.1210   33.6320   15.5850 C   0  0  0  0  0  0  0  0  0  0  0  0
   29.6320   33.7110   14.3190 C   0  0  0  0  0  0  0  0  0  0  0  0
   29.8770   34.8040   16.1820 N   0  0  0  0  0  0  0  0  0  0  0  0
   29.0980   34.9610   14.1950 N   0  0  0  0  0  0  0  0  0  0  0  0
   29.2560   35.6020   15.3290 N   0  0  0  0  0  0  0  0  0  0  0  0
   28.4740   35.4900   13.0410 C   0  0  0  0  0  0  0  0  0  0  0  0
   28.3940   36.8620   12.8890 C   0  0  0  0  0  0  0  0  0  0  0  0
   27.9610   34.6300   12.0970 C   0  0  0  0  0  0  0  0  0  0  0  0
   27.8010   37.3640   11.7940 N   0  0  0  0  0  0  0  0  0  0  0  0
   27.3510   35.1690   10.9690 C   0  0  0  0  0  0  0  0  0  0  0  0
   27.2830   36.5410   10.8400 C   0  0  0  0  0  0  0  0  0  0  0  0
   26.8340   34.3420   10.0190 C   0  0  0  0  0  0  0  0  0  0  0  0
   26.6780   37.0790    9.7220 C   0  0  0  0  0  0  0  0  0  0  0  0
   26.2220   34.8770    8.8860 C   0  0  0  0  0  0  0  0  0  0  0  0
   26.1490   36.2420    8.7460 C   0  0  0  0  0  0  0  0  0  0  0  0
   29.8670   25.5550   16.9770 C   0  0  0  0  0  0  0  0  0  0  0  0
   28.3450   25.7220   17.0260 C   0  0  0  0  0  0  0  0  0  0  0  0
   27.5990   24.4780   16.5690 C   0  0  0  0  0  0  0  0  0  0  0  0
   26.9860   23.7300   17.7210 C   0  0  0  0  0  0  0  0  0  0  0  0
   25.4760   23.6390   17.5220 C   0  0  0  0  0  0  0  0  0  0  0  0
   25.0130   22.2430   17.7040 N   0  0  0  0  0  0  0  0  0  0  0  0
  2  1  1  6  0  0  0
  3 23  1  6  0  0  0
  3  2  1  0  0  0  0
  4  9  1  0  0  0  0
  4  3  1  1  0  0  0
  5 12  1  6  0  0  0
  5  7  1  0  0  0  0
  5 10  1  0  0  0  0
  6  5  1  0  0  0  0
  6  8  1  0  0  0  0
  7  4  1  0  0  0  0
  8 16  1  1  0  0  0
  8  9  1  0  0  0  0
  9 18  1  1  0  0  0
 10 11  1  0  0  0  0
 13 12  2  0  0  0  0
 14 12  1  0  0  0  0
 15 14  1  0  0  0  0
 17 16  1  0  0  0  0
 18 19  1  0  0  0  0
 19 22  2  0  0  0  0
 19 21  1  0  0  0  0
 20 18  1  0  0  0  0
 23 24  1  0  0  0  0
 25  2  1  0  0  0  0
 25 26  1  0  0  0  0
 27  1  1  0  0  0  0
 28 27  1  0  0  0  0
 28 30  2  0  0  0  0
 29 27  1  0  0  0  0
 31 28  1  0  0  0  0
 32 31  1  0  0  0  0
 33 35  1  0  0  0  0
 33 32  1  0  0  0  0
 34 33  2  0  0  0  0
 36 34  1  0  0  0  0
 36 37  1  0  0  0  0
 37 35  2  0  0  0  0
 38 36  1  0  0  0  0
 39 38  1  0  0  0  0
 40 38  2  0  0  0  0
 41 39  2  0  0  0  0
 42 40  1  0  0  0  0
 43 42  1  0  0  0  0
 43 41  1  0  0  0  0
 44 42  2  0  0  0  0
 45 43  2  0  0  0  0
 46 44  1  0  0  0  0
 47 46  2  0  0  0  0
 47 45  1  0  0  0  0
 48 49  1  0  0  0  0
 50 49  1  0  0  0  0
 50 51  1  0  0  0  0
 52 53  1  0  0  0  0
 52 51  1  0  0  0  0
M  END
>  <REMARK>
 VINA RESULT:    -6.112      3.138      6.869
 INTER + INTRA:         -15.111
 INTER:                  -9.862
 INTRA:                  -5.249
 UNBOUND:                -4.533
 SMILES CC(=O)N[C@@H]1[C@@H](O)C[C@](O)(C(=O)O)O[C@H]1C(O)[C@H](O)CNC(=O)OCc1cn(-c2cnc3ccccc3c2)nn1
 SMILES IDX 20 1 18 2 16 3 15 4 9 5 8 6 14 7 6 8 5 9 10 10 11 12 12 13
 SMILES IDX 13 14 7 16 4 18 2 19 1 21 3 22 17 23 19 25 21 27 22 28 23 30
 SMILES IDX 24 31 25 32 26 33 27 34 40 35 28 36 39 37 29 38 30 39 38 40
 SMILES IDX 31 41 37 42 32 43 36 44 33 45 35 46 34 47
 H PARENT 10 11 13 15 7 17 4 20 17 24 19 26 21 29
 Flexibility Score: inf
  4 active torsions:
  status: ('A' for Active; 'I' for Inactive)
    1  A    between atoms: CA   and  CB  
    2  A    between atoms: CB   and  CG  
    3  A    between atoms: CG   and  CD  
    4  A    between atoms: CD   and  CE  

>  <TORSDO>
F 15

>  <BEGIN_>
RES LYS A 131

$$$$
ligand_70_pose_2_2HRL.pdbqt
 OpenBabel07062320523D

  6  5  0  0  0  0  0  0  0  0999 V2000
   33.1930   34.6630    9.2900 C   0  0  0  0  0  0  0  0  0  0  0  0
   32.0600   35.3600   10.0340 C   0  0  0  0  0  0  0  0  0  0  0  0
   30.7480   34.6210    9.9630 C   0  0  0  0  0  0  0  0  0  0  0  0
   30.3020   34.4570    8.5190 C   0  0  0  0  0  0  0  0  0  0  0  0
   29.7420   35.7610    7.9830 C   0  0  0  0  0  0  0  0  0  0  0  0
   29.0340   35.5490    6.6900 N   0  0  0  0  0  0  0  0  0  0  0  0
  1  2  1  0  0  0  0
  3  2  1  0  0  0  0
  4  3  1  0  0  0  0
  5  4  1  0  0  0  0
  6  5  1  0  0  0  0
M  END
>  <EGIN_R>
ES LYS A 135

>  <REMARK>
  4 active torsions:
  status: ('A' for Active; 'I' for Inactive)
    5  A    between atoms: CA   and  CB  
    6  A    between atoms: CB   and  CG  
    7  A    between atoms: CG   and  CD  
    8  A    between atoms: CD   and  CE  

$$$$
