ligand_13_pose_7_2HRL.pdbqt
 OpenBabel07062320523D

 49 49  0  0  1  0  0  0  0  0999 V2000
   31.1830   34.5390   15.8240 N   0  0  0  0  0  0  0  0  0  0  0  0
   31.2190   33.1270   15.8620 C   0  0  0  0  0  0  0  0  0  0  0  0
   31.7970   32.4530   15.0030 O   0  0  0  0  0  0  0  0  0  0  0  0
   30.6470   34.9750   16.6460 H   0  0  0  0  0  0  0  0  0  0  0  0
   31.7710   35.3770   14.8310 C   0  0  0  0  0  0  0  0  0  0  0  0
   31.0760   35.4650   13.5160 C   0  0  2  0  0  0  0  0  0  0  0  0
   29.6500   35.0450   13.5440 C   0  0  1  0  0  0  0  0  0  0  0  0
   28.6710   36.0610   14.0670 C   0  0  2  0  0  0  0  0  0  0  0  0
   27.5610   35.2750   15.9680 C   0  0  2  0  0  0  0  0  0  0  0  0
   26.3510   36.1690   15.7980 C   0  0  0  0  0  0  0  0  0  0  0  0
   28.6520   35.9000   15.4500 O   0  0  0  0  0  0  0  0  0  0  0  0
   26.2780   36.6420   14.3940 C   0  0  1  0  0  0  0  0  0  0  0  0
   27.2970   35.9570   13.4680 C   0  0  1  0  0  0  0  0  0  0  0  0
   27.2340   34.0490   15.4190 O   0  0  0  0  0  0  0  0  0  0  0  0
   28.0730   33.5940   15.1770 H   0  0  0  0  0  0  0  0  0  0  0  0
   27.7630   35.1160   17.4270 C   0  0  0  0  0  0  0  0  0  0  0  0
   26.8510   35.4790   18.2000 O   0  0  0  0  0  0  0  0  0  0  0  0
   28.9170   34.5830   17.9420 O   0  0  0  0  0  0  0  0  0  0  0  0
   29.7900   35.1100   17.9800 H   0  0  0  0  0  0  0  0  0  0  0  0
   25.0130   36.5150   13.8260 O   0  0  0  0  0  0  0  0  0  0  0  0
   24.6360   35.6150   13.8940 H   0  0  0  0  0  0  0  0  0  0  0  0
   27.1940   36.6990   12.2290 N   0  0  0  0  0  0  0  0  0  0  0  0
   26.5140   36.2680   11.0770 C   0  0  0  0  0  0  0  0  0  0  0  0
   27.6650   37.6290   12.1950 H   0  0  0  0  0  0  0  0  0  0  0  0
   26.4210   37.0450    9.8170 C   0  0  0  0  0  0  0  0  0  0  0  0
   25.9450   35.1340   11.1330 O   0  0  0  0  0  0  0  0  0  0  0  0
   29.2620   34.4970   12.3460 O   0  0  0  0  0  0  0  0  0  0  0  0
   29.5310   35.0200   11.5490 H   0  0  0  0  0  0  0  0  0  0  0  0
   31.7240   34.5840   12.6250 O   0  0  0  0  0  0  0  0  0  0  0  0
   31.2230   33.7180   12.5710 H   0  0  0  0  0  0  0  0  0  0  0  0
   30.5820   32.4180   16.9060 O   0  0  0  0  0  0  0  0  0  0  0  0
   30.1710   31.0760   16.7290 C   0  0  0  0  0  0  0  0  0  0  0  0
   28.6850   31.0870   16.6740 C   0  0  0  0  0  0  0  0  0  0  0  0
   27.8640   30.4510   15.7720 C   0  0  0  0  0  0  0  0  0  0  0  0
   27.8340   31.7360   17.5160 N   0  0  0  0  0  0  0  0  0  0  0  0
   26.5770   30.7440   16.1090 N   0  0  0  0  0  0  0  0  0  0  0  0
   26.5950   31.5270   17.1740 N   0  0  0  0  0  0  0  0  0  0  0  0
   25.3700   30.3020   15.4520 C   0  0  0  0  0  0  0  0  0  0  0  0
   25.0050   31.2080   14.3520 C   0  0  0  0  0  0  0  0  0  0  0  0
   24.9580   32.4390   14.5650 O   0  0  0  0  0  0  0  0  0  0  0  0
   24.7220   30.6550   13.1020 O   0  0  0  0  0  0  0  0  0  0  0  0
   23.7810   29.5770   13.1010 C   0  0  0  0  0  0  0  0  0  0  0  0
   22.4520   30.1270   12.6490 C   0  0  0  0  0  0  0  0  0  0  0  0
   29.8670   25.5550   16.9770 C   0  0  0  0  0  0  0  0  0  0  0  0
   28.3450   25.7220   17.0260 C   0  0  0  0  0  0  0  0  0  0  0  0
   27.6010   24.4020   16.8960 C   0  0  0  0  0  0  0  0  0  0  0  0
   26.1470   24.5330   17.2560 C   0  0  0  0  0  0  0  0  0  0  0  0
   25.9360   24.0720   18.6950 C   0  0  0  0  0  0  0  0  0  0  0  0
   25.7410   25.2380   19.5890 N   0  0  0  0  0  0  0  0  0  0  0  0
  1  2  1  0  0  0  0
  1  4  1  0  0  0  0
  2 31  1  0  0  0  0
  3  2  2  0  0  0  0
  5  1  1  0  0  0  0
  6  7  1  0  0  0  0
  6  5  1  1  0  0  0
  7 27  1  6  0  0  0
  8  7  1  6  0  0  0
  8 11  1  0  0  0  0
  9 14  1  6  0  0  0
  9 16  1  0  0  0  0
 10  9  1  0  0  0  0
 11  9  1  0  0  0  0
 12 20  1  6  0  0  0
 12 10  1  0  0  0  0
 13 22  1  6  0  0  0
 13  8  1  0  0  0  0
 13 12  1  0  0  0  0
 15 14  1  0  0  0  0
 16 18  1  0  0  0  0
 16 17  2  0  0  0  0
 18 19  1  0  0  0  0
 20 21  1  0  0  0  0
 23 26  2  0  0  0  0
 23 22  1  0  0  0  0
 24 22  1  0  0  0  0
 25 23  1  0  0  0  0
 28 27  1  0  0  0  0
 29  6  1  0  0  0  0
 30 29  1  0  0  0  0
 32 31  1  0  0  0  0
 33 32  1  0  0  0  0
 33 35  1  0  0  0  0
 34 36  1  0  0  0  0
 34 33  2  0  0  0  0
 36 37  1  0  0  0  0
 37 35  2  0  0  0  0
 38 36  1  0  0  0  0
 39 40  2  0  0  0  0
 39 38  1  0  0  0  0
 41 39  1  0  0  0  0
 42 41  1  0  0  0  0
 43 42  1  0  0  0  0
 44 45  1  0  0  0  0
 46 45  1  0  0  0  0
 46 47  1  0  0  0  0
 47 48  1  0  0  0  0
 48 49  1  0  0  0  0
M  END
>  <REMARK>
 VINA RESULT:    -4.203      4.235      7.608
 INTER + INTRA:         -13.960
 INTER:                  -6.901
 INTRA:                  -7.059
 UNBOUND:                -5.949
 SMILES CCOC(=O)Cn1cc(COC(=O)NC[C@@H](O)C(O)[C@@H]2O[C@@](O)(C(=O)O)C[C@H](O)[C@H]2NC(C)=O)nn1
 SMILES IDX 14 1 12 2 13 3 15 5 16 6 18 7 20 8 22 9 27 10 21 11 28 12
 SMILES IDX 30 13 23 14 24 16 25 17 26 18 29 20 31 22 32 23 33 25 34 26
 SMILES IDX 19 27 17 29 11 31 10 32 9 33 8 34 35 35 7 36 36 37 6 38 4 39
 SMILES IDX 5 40 3 41 2 42 1 43
 H PARENT 14 4 23 15 26 19 29 21 31 24 19 28 17 30
 Flexibility Score: inf
  4 active torsions:
  status: ('A' for Active; 'I' for Inactive)
    1  A    between atoms: CA   and  CB  
    2  A    between atoms: CB   and  CG  
    3  A    between atoms: CG   and  CD  
    4  A    between atoms: CD   and  CE  

>  <TORSDO>
F 18

>  <BEGIN_>
RES LYS A 131

$$$$
ligand_13_pose_7_2HRL.pdbqt
 OpenBabel07062320523D

  6  5  0  0  0  0  0  0  0  0999 V2000
   33.1930   34.6630    9.2900 C   0  0  0  0  0  0  0  0  0  0  0  0
   32.0600   35.3600   10.0340 C   0  0  0  0  0  0  0  0  0  0  0  0
   30.7960   35.4870    9.2240 C   0  0  0  0  0  0  0  0  0  0  0  0
   30.2160   34.1150    8.9160 C   0  0  0  0  0  0  0  0  0  0  0  0
   28.7000   34.1700    8.8930 C   0  0  0  0  0  0  0  0  0  0  0  0
   28.2080   34.9010    7.6920 N   0  0  0  0  0  0  0  0  0  0  0  0
  1  2  1  0  0  0  0
  3  2  1  0  0  0  0
  4  3  1  0  0  0  0
  5  4  1  0  0  0  0
  6  5  1  0  0  0  0
M  END
>  <EGIN_R>
ES LYS A 135

>  <REMARK>
  4 active torsions:
  status: ('A' for Active; 'I' for Inactive)
    5  A    between atoms: CA   and  CB  
    6  A    between atoms: CB   and  CG  
    7  A    between atoms: CG   and  CD  
    8  A    between atoms: CD   and  CE  

$$$$
