ligand_87_pose_16_2HRL.pdbqt
 OpenBabel07062320523D

 52 54  0  0  1  0  0  0  0  0999 V2000
   23.1360   37.2850    9.2590 C   0  0  0  0  0  0  0  0  0  0  0  0
   23.8290   37.7300    8.0040 C   0  0  2  0  0  0  0  0  0  0  0  0
   24.2000   39.2050    8.0870 C   0  0  2  0  0  0  0  0  0  0  0  0
   25.6810   39.3310    7.7340 C   0  0  2  0  0  0  0  0  0  0  0  0
   27.2060   38.1630    6.4000 C   0  0  2  0  0  0  0  0  0  0  0  0
   28.1240   37.8430    7.5380 C   0  0  0  0  0  0  0  0  0  0  0  0
   25.9310   38.4780    6.7360 O   0  0  0  0  0  0  0  0  0  0  0  0
   27.5890   38.1710    8.8910 C   0  0  1  0  0  0  0  0  0  0  0  0
   26.5680   39.2580    8.9460 C   0  0  1  0  0  0  0  0  0  0  0  0
   27.1290   37.0310    5.5820 O   0  0  0  0  0  0  0  0  0  0  0  0
   26.7210   36.2580    6.0410 H   0  0  0  0  0  0  0  0  0  0  0  0
   27.7300   39.2470    5.5440 C   0  0  0  0  0  0  0  0  0  0  0  0
   27.4500   39.2670    4.3270 O   0  0  0  0  0  0  0  0  0  0  0  0
   28.5390   40.2800    6.0090 O   0  0  0  0  0  0  0  0  0  0  0  0
   29.5530   40.2690    5.8170 H   0  0  0  0  0  0  0  0  0  0  0  0
   27.0840   36.9820    9.4360 O   0  0  0  0  0  0  0  0  0  0  0  0
   27.5480   36.2050    9.0420 H   0  0  0  0  0  0  0  0  0  0  0  0
   27.0790   40.5510    9.3120 N   0  0  0  0  0  0  0  0  0  0  0  0
   26.8060   41.1900   10.5440 C   0  0  0  0  0  0  0  0  0  0  0  0
   27.6970   41.0780    8.6400 H   0  0  0  0  0  0  0  0  0  0  0  0
   27.3190   42.5190   10.9410 C   0  0  0  0  0  0  0  0  0  0  0  0
   26.0700   40.5470   11.3310 O   0  0  0  0  0  0  0  0  0  0  0  0
   23.9400   39.7420    9.3370 O   0  0  0  0  0  0  0  0  0  0  0  0
   23.7260   38.9930    9.9510 H   0  0  0  0  0  0  0  0  0  0  0  0
   23.0760   37.5470    6.8790 O   0  0  0  0  0  0  0  0  0  0  0  0
   22.6730   36.6290    6.8770 H   0  0  0  0  0  0  0  0  0  0  0  0
   24.0320   36.7750   10.2390 N   0  0  0  0  0  0  0  0  0  0  0  0
   24.2050   37.2980   11.5320 C   0  0  0  0  0  0  0  0  0  0  0  0
   24.6320   35.9260    9.9910 H   0  0  0  0  0  0  0  0  0  0  0  0
   23.5780   38.2890   11.9470 O   0  0  0  0  0  0  0  0  0  0  0  0
   25.1240   36.6820   12.4030 O   0  0  0  0  0  0  0  0  0  0  0  0
   25.6210   35.4030   12.0640 C   0  0  0  0  0  0  0  0  0  0  0  0
   26.9480   35.1930   12.6440 C   0  0  0  0  0  0  0  0  0  0  0  0
   27.2250   34.4230   13.7680 C   0  0  0  0  0  0  0  0  0  0  0  0
   28.1090   35.6880   12.2180 N   0  0  0  0  0  0  0  0  0  0  0  0
   28.5450   34.4810   13.9800 N   0  0  0  0  0  0  0  0  0  0  0  0
   29.0480   35.2460   13.0350 N   0  0  0  0  0  0  0  0  0  0  0  0
   29.3030   33.8420   15.0260 C   0  0  1  0  0  0  0  0  0  0  0  0
   30.5350   33.1830   14.4050 C   0  0  0  0  0  0  0  0  0  0  0  0
   29.7840   34.9350   15.9550 C   0  0  0  0  0  0  0  0  0  0  0  0
   31.4480   32.7360   15.5140 C   0  0  1  0  0  0  0  0  0  0  0  0
   30.8440   34.4200   16.8730 C   0  0  2  0  0  0  0  0  0  0  0  0
   31.9910   33.8920   16.2030 N   0  0  0  0  0  0  0  0  0  0  0  0
   30.6440   32.0700   16.6150 C   0  0  0  0  0  0  0  0  0  0  0  0
   30.2740   33.1730   17.5600 C   0  0  0  0  0  0  0  0  0  0  0  0
   32.6330   34.8220   15.3190 C   0  0  0  0  0  0  0  0  0  0  0  0
   29.8670   25.5550   16.9770 C   0  0  0  0  0  0  0  0  0  0  0  0
   28.3450   25.7220   17.0260 C   0  0  0  0  0  0  0  0  0  0  0  0
   27.5990   24.4550   16.6360 C   0  0  0  0  0  0  0  0  0  0  0  0
   26.9720   23.7790   17.8230 C   0  0  0  0  0  0  0  0  0  0  0  0
   25.5380   23.3830   17.4850 C   0  0  0  0  0  0  0  0  0  0  0  0
   24.7300   24.5840   17.1660 N   0  0  0  0  0  0  0  0  0  0  0  0
  1 27  1  0  0  0  0
  2  3  1  0  0  0  0
  2  1  1  1  0  0  0
  3 23  1  1  0  0  0
  4  3  1  1  0  0  0
  4  9  1  0  0  0  0
  5 12  1  6  0  0  0
  5  7  1  0  0  0  0
  5  6  1  0  0  0  0
  6  8  1  0  0  0  0
  7  4  1  0  0  0  0
  8  9  1  0  0  0  0
  8 16  1  6  0  0  0
  9 18  1  6  0  0  0
 10 11  1  0  0  0  0
 10  5  1  0  0  0  0
 12 14  1  0  0  0  0
 13 12  2  0  0  0  0
 15 14  1  0  0  0  0
 17 16  1  0  0  0  0
 18 19  1  0  0  0  0
 19 21  1  0  0  0  0
 19 22  2  0  0  0  0
 20 18  1  0  0  0  0
 23 24  1  0  0  0  0
 25  2  1  0  0  0  0
 26 25  1  0  0  0  0
 27 28  1  0  0  0  0
 28 30  2  0  0  0  0
 28 31  1  0  0  0  0
 29 27  1  0  0  0  0
 32 31  1  0  0  0  0
 32 33  1  0  0  0  0
 33 34  2  0  0  0  0
 34 36  1  0  0  0  0
 35 33  1  0  0  0  0
 35 37  2  0  0  0  0
 37 36  1  0  0  0  0
 38 36  1  6  0  0  0
 38 40  1  0  0  0  0
 39 38  1  0  0  0  0
 41 39  1  6  0  0  0
 41 43  1  0  0  0  0
 41 44  1  0  0  0  0
 42 40  1  6  0  0  0
 42 45  1  0  0  0  0
 43 42  1  0  0  0  0
 44 45  1  0  0  0  0
 46 43  1  0  0  0  0
 47 48  1  0  0  0  0
 49 48  1  0  0  0  0
 49 50  1  0  0  0  0
 51 50  1  0  0  0  0
 52 51  1  0  0  0  0
M  END
>  <REMARK>
 VINA RESULT:    -5.146      6.816     11.959
 INTER + INTRA:         -14.408
 INTER:                  -7.827
 INTRA:                  -6.581
 UNBOUND:                -5.502
 SMILES CC(=O)N[C@@H]1[C@@H](O)C[C@](O)(C(=O)O)O[C@H]1C(O)[C@H](O)CNC(=O)OCc1cn([C@@H]2C[C@H]3CC[C@@H](C2)N3C)nn1
 SMILES IDX 20 1 18 2 16 3 15 4 9 5 8 6 14 7 6 8 5 9 10 10 11 12 12 13
 SMILES IDX 13 14 7 16 4 18 2 19 1 21 3 22 17 23 19 25 21 27 22 28 23 30
 SMILES IDX 24 31 25 32 26 33 27 34 39 35 28 36 38 37 29 38 35 39 30 40
 SMILES IDX 34 41 31 42 36 43 33 44 32 45 37 46
 H PARENT 10 11 13 15 7 17 4 20 17 24 19 26 21 29
 Flexibility Score: inf
  4 active torsions:
  status: ('A' for Active; 'I' for Inactive)
    1  A    between atoms: CA   and  CB  
    2  A    between atoms: CB   and  CG  
    3  A    between atoms: CG   and  CD  
    4  A    between atoms: CD   and  CE  

>  <TORSDO>
F 15

>  <BEGIN_>
RES LYS A 131

$$$$
ligand_87_pose_16_2HRL.pdbqt
 OpenBabel07062320523D

  6  5  0  0  0  0  0  0  0  0999 V2000
   33.1930   34.6630    9.2900 C   0  0  0  0  0  0  0  0  0  0  0  0
   32.0600   35.3600   10.0340 C   0  0  0  0  0  0  0  0  0  0  0  0
   30.8600   35.6500    9.1700 C   0  0  0  0  0  0  0  0  0  0  0  0
   30.3980   34.3900    8.4540 C   0  0  0  0  0  0  0  0  0  0  0  0
   28.8860   34.3720    8.3300 C   0  0  0  0  0  0  0  0  0  0  0  0
   28.2610   33.6920    9.4980 N   0  0  0  0  0  0  0  0  0  0  0  0
  1  2  1  0  0  0  0
  3  2  1  0  0  0  0
  4  3  1  0  0  0  0
  5  4  1  0  0  0  0
  5  6  1  0  0  0  0
M  END
>  <EGIN_R>
ES LYS A 135

>  <REMARK>
  4 active torsions:
  status: ('A' for Active; 'I' for Inactive)
    5  A    between atoms: CA   and  CB  
    6  A    between atoms: CB   and  CG  
    7  A    between atoms: CG   and  CD  
    8  A    between atoms: CD   and  CE  

$$$$
