ligand_37_pose_6_2HRL.pdbqt
 OpenBabel07062320523D

 55 56  0  0  1  0  0  0  0  0999 V2000
   26.1370   36.8050   13.1930 O   0  0  0  0  0  0  0  0  0  0  0  0
   25.6480   36.7040   11.8700 C   0  0  0  0  0  0  0  0  0  0  0  0
   25.7110   37.8130   10.9980 N   0  0  0  0  0  0  0  0  0  0  0  0
   26.1290   38.7020   11.4190 H   0  0  0  0  0  0  0  0  0  0  0  0
   25.1770   35.5960   11.5530 O   0  0  0  0  0  0  0  0  0  0  0  0
   25.2550   37.7790    9.6460 C   0  0  0  0  0  0  0  0  0  0  0  0
   26.1650   36.9950    8.7610 C   0  0  2  0  0  0  0  0  0  0  0  0
   26.4120   37.7550    7.4600 C   0  0  2  0  0  0  0  0  0  0  0  0
   27.2280   38.9970    7.6400 C   0  0  2  0  0  0  0  0  0  0  0  0
   27.9800   39.2340    5.4340 C   0  0  2  0  0  0  0  0  0  0  0  0
   29.3000   38.6700    5.8520 C   0  0  0  0  0  0  0  0  0  0  0  0
   27.2420   39.7650    6.4630 O   0  0  0  0  0  0  0  0  0  0  0  0
   29.6780   39.2500    7.2000 C   0  0  1  0  0  0  0  0  0  0  0  0
   28.6060   38.8010    8.1800 C   0  0  1  0  0  0  0  0  0  0  0  0
   27.2610   38.2970    4.7290 O   0  0  0  0  0  0  0  0  0  0  0  0
   27.4020   37.3670    5.0590 H   0  0  0  0  0  0  0  0  0  0  0  0
   28.2450   40.3840    4.4950 C   0  0  0  0  0  0  0  0  0  0  0  0
   29.3810   40.9200    4.4410 O   0  0  0  0  0  0  0  0  0  0  0  0
   27.2610   40.8920    3.6590 O   0  0  0  0  0  0  0  0  0  0  0  0
   26.2580   40.7310    3.8400 H   0  0  0  0  0  0  0  0  0  0  0  0
   30.9370   38.8290    7.5800 O   0  0  0  0  0  0  0  0  0  0  0  0
   31.3760   38.2560    6.9030 H   0  0  0  0  0  0  0  0  0  0  0  0
   28.8170   39.4790    9.4630 N   0  0  0  0  0  0  0  0  0  0  0  0
   28.9310   38.7720   10.6960 C   0  0  0  0  0  0  0  0  0  0  0  0
   28.8910   40.5290    9.5130 H   0  0  0  0  0  0  0  0  0  0  0  0
   29.1450   39.5210   11.9730 C   0  0  0  0  0  0  0  0  0  0  0  0
   28.8520   37.5220   10.7020 O   0  0  0  0  0  0  0  0  0  0  0  0
   25.1750   38.1170    6.9110 O   0  0  0  0  0  0  0  0  0  0  0  0
   25.2800   38.2350    5.9280 H   0  0  0  0  0  0  0  0  0  0  0  0
   25.5910   35.7570    8.4740 O   0  0  0  0  0  0  0  0  0  0  0  0
   26.1940   34.9940    8.7140 H   0  0  0  0  0  0  0  0  0  0  0  0
   26.7030   35.6600   13.7950 C   0  0  0  0  0  0  0  0  0  0  0  0
   28.1330   35.5100   13.4680 C   0  0  0  0  0  0  0  0  0  0  0  0
   29.1940   36.2950   13.8520 C   0  0  0  0  0  0  0  0  0  0  0  0
   28.6610   34.5360   12.7090 N   0  0  0  0  0  0  0  0  0  0  0  0
   30.3320   35.7870   13.3220 N   0  0  0  0  0  0  0  0  0  0  0  0
   29.9820   34.7310   12.6410 N   0  0  0  0  0  0  0  0  0  0  0  0
   31.6540   36.3280   13.4950 C   0  0  1  0  0  0  0  0  0  0  0  0
   32.0100   37.2210   12.3260 C   0  0  0  0  0  0  0  0  0  0  0  0
   31.7330   37.0230   14.7870 C   0  0  0  0  0  0  0  0  0  0  0  0
   31.5080   38.2680   14.8410 O   0  0  0  0  0  0  0  0  0  0  0  0
   32.0470   36.3740   15.9620 O   0  0  0  0  0  0  0  0  0  0  0  0
   32.8500   35.2450   16.1020 C   0  0  0  0  0  0  0  0  0  0  0  0
   31.9880   34.0640   16.3840 C   0  0  0  0  0  0  0  0  0  0  0  0
   31.7310   33.1390   15.3970 C   0  0  0  0  0  0  0  0  0  0  0  0
   31.4490   33.8920   17.6300 C   0  0  0  0  0  0  0  0  0  0  0  0
   30.9390   32.0460   15.6540 C   0  0  0  0  0  0  0  0  0  0  0  0
   30.6570   32.8140   17.9140 C   0  0  0  0  0  0  0  0  0  0  0  0
   30.4030   31.8940   16.9260 C   0  0  0  0  0  0  0  0  0  0  0  0
   29.8670   25.5550   16.9770 C   0  0  0  0  0  0  0  0  0  0  0  0
   28.3450   25.7220   17.0260 C   0  0  0  0  0  0  0  0  0  0  0  0
   27.6010   24.4030   16.8870 C   0  0  0  0  0  0  0  0  0  0  0  0
   26.6040   24.1960   17.9930 C   0  0  0  0  0  0  0  0  0  0  0  0
   25.6110   23.1110   17.5860 C   0  0  0  0  0  0  0  0  0  0  0  0
   24.4220   23.7130   16.9360 N   0  0  0  0  0  0  0  0  0  0  0  0
  1 32  1  0  0  0  0
  2  1  1  0  0  0  0
  3  4  1  0  0  0  0
  3  2  1  0  0  0  0
  5  2  2  0  0  0  0
  6  3  1  0  0  0  0
  7  6  1  1  0  0  0
  8 28  1  1  0  0  0
  8  7  1  0  0  0  0
  9  8  1  6  0  0  0
  9 14  1  0  0  0  0
 10 17  1  6  0  0  0
 10 11  1  0  0  0  0
 10 12  1  0  0  0  0
 11 13  1  0  0  0  0
 12  9  1  0  0  0  0
 13 21  1  1  0  0  0
 13 14  1  0  0  0  0
 14 23  1  1  0  0  0
 15 16  1  0  0  0  0
 15 10  1  0  0  0  0
 18 17  2  0  0  0  0
 19 20  1  0  0  0  0
 19 17  1  0  0  0  0
 22 21  1  0  0  0  0
 23 25  1  0  0  0  0
 23 24  1  0  0  0  0
 24 27  2  0  0  0  0
 24 26  1  0  0  0  0
 29 28  1  0  0  0  0
 30 31  1  0  0  0  0
 30  7  1  0  0  0  0
 33 32  1  0  0  0  0
 33 34  2  0  0  0  0
 35 33  1  0  0  0  0
 36 38  1  0  0  0  0
 36 34  1  0  0  0  0
 37 35  2  0  0  0  0
 37 36  1  0  0  0  0
 38 39  1  6  0  0  0
 38 40  1  0  0  0  0
 40 41  2  0  0  0  0
 40 42  1  0  0  0  0
 42 43  1  0  0  0  0
 43 44  1  0  0  0  0
 44 46  2  0  0  0  0
 45 47  2  0  0  0  0
 45 44  1  0  0  0  0
 46 48  1  0  0  0  0
 47 49  1  0  0  0  0
 49 48  2  0  0  0  0
 50 51  1  0  0  0  0
 52 51  1  0  0  0  0
 52 53  1  0  0  0  0
 54 53  1  0  0  0  0
 55 54  1  0  0  0  0
M  END
>  <REMARK>
 VINA RESULT:    -5.684      3.913      7.449
 INTER + INTRA:         -16.277
 INTER:                 -10.051
 INTRA:                  -6.226
 UNBOUND:                -5.110
 SMILES CC(=O)N[C@@H]1[C@@H](O)C[C@](O)(C(=O)O)O[C@H]1C(O)[C@H](O)CNC(=O)OCc1cn([C@@H](C)C(=O)OCc2ccccc2)nn1
 SMILES IDX 24 1 22 2 21 3 23 5 20 6 18 7 16 8 15 9 9 10 8 11 14 12 6 13
 SMILES IDX 5 14 10 15 11 17 12 18 13 19 7 21 4 23 2 24 1 26 3 27 17 28
 SMILES IDX 19 30 25 32 26 33 27 34 42 35 28 36 41 37 29 38 30 39 31 40
 SMILES IDX 32 41 33 42 34 43 35 44 36 45 40 46 37 47 39 48 38 49
 H PARENT 21 4 10 16 13 20 7 22 4 25 17 29 19 31
 Flexibility Score: inf
  4 active torsions:
  status: ('A' for Active; 'I' for Inactive)
    1  A    between atoms: CA   and  CB  
    2  A    between atoms: CB   and  CG  
    3  A    between atoms: CG   and  CD  
    4  A    between atoms: CD   and  CE  

>  <TORSDO>
F 19

>  <BEGIN_>
RES LYS A 131

$$$$
ligand_37_pose_6_2HRL.pdbqt
 OpenBabel07062320523D

  6  5  0  0  0  0  0  0  0  0999 V2000
   33.1930   34.6630    9.2900 C   0  0  0  0  0  0  0  0  0  0  0  0
   32.0600   35.3600   10.0340 C   0  0  0  0  0  0  0  0  0  0  0  0
   30.8810   35.6970    9.1580 C   0  0  0  0  0  0  0  0  0  0  0  0
   30.3870   34.4590    8.4240 C   0  0  0  0  0  0  0  0  0  0  0  0
   28.8740   34.4700    8.3220 C   0  0  0  0  0  0  0  0  0  0  0  0
   28.2530   33.7460    9.4660 N   0  0  0  0  0  0  0  0  0  0  0  0
  1  2  1  0  0  0  0
  3  2  1  0  0  0  0
  4  3  1  0  0  0  0
  5  4  1  0  0  0  0
  5  6  1  0  0  0  0
M  END
>  <EGIN_R>
ES LYS A 135

>  <REMARK>
  4 active torsions:
  status: ('A' for Active; 'I' for Inactive)
    5  A    between atoms: CA   and  CB  
    6  A    between atoms: CB   and  CG  
    7  A    between atoms: CG   and  CD  
    8  A    between atoms: CD   and  CE  

$$$$
