ligand_63_pose_16_2HRL.pdbqt
 OpenBabel07062320523D

 51 52  0  0  1  0  0  0  0  0999 V2000
   29.7890   30.3940   18.3490 N   0  0  0  0  0  0  0  0  0  0  0  0
   28.9400   30.8550   19.4120 C   0  0  0  0  0  0  0  0  0  0  0  0
   28.6870   32.0550   19.5650 O   0  0  0  0  0  0  0  0  0  0  0  0
   29.8920   29.3260   18.3350 H   0  0  0  0  0  0  0  0  0  0  0  0
   30.3870   31.2020   17.3970 C   0  0  0  0  0  0  0  0  0  0  0  0
   29.8550   31.1310   15.9440 C   0  0  2  0  0  0  0  0  0  0  0  0
   30.3030   32.4040   15.3360 C   0  0  1  0  0  0  0  0  0  0  0  0
   29.9770   33.6940   15.9980 C   0  0  2  0  0  0  0  0  0  0  0  0
   27.7230   34.3530   16.1340 C   0  0  2  0  0  0  0  0  0  0  0  0
   28.0430   35.8150   16.3260 C   0  0  0  0  0  0  0  0  0  0  0  0
   28.7240   33.5250   16.6480 O   0  0  0  0  0  0  0  0  0  0  0  0
   29.5620   36.0470   16.1990 C   0  0  1  0  0  0  0  0  0  0  0  0
   30.0080   34.9310   15.2220 C   0  0  1  0  0  0  0  0  0  0  0  0
   27.4020   34.0960   14.8100 O   0  0  0  0  0  0  0  0  0  0  0  0
   26.4940   34.3220   14.5590 H   0  0  0  0  0  0  0  0  0  0  0  0
   26.5560   34.0800   16.9960 C   0  0  0  0  0  0  0  0  0  0  0  0
   25.6210   34.7240   17.2800 O   0  0  0  0  0  0  0  0  0  0  0  0
   26.6160   32.7260   17.5890 O   0  0  0  0  0  0  0  0  0  0  0  0
   26.3390   31.9640   16.9670 H   0  0  0  0  0  0  0  0  0  0  0  0
   29.8340   37.2950   15.7000 O   0  0  0  0  0  0  0  0  0  0  0  0
   29.7850   37.3160   14.7280 H   0  0  0  0  0  0  0  0  0  0  0  0
   31.3460   35.3040   14.7430 N   0  0  0  0  0  0  0  0  0  0  0  0
   31.5590   35.3990   13.3590 C   0  0  0  0  0  0  0  0  0  0  0  0
   32.0740   35.5020   15.4020 H   0  0  0  0  0  0  0  0  0  0  0  0
   32.6480   35.7470   12.5230 C   0  0  0  0  0  0  0  0  0  0  0  0
   30.3990   35.0810   12.7160 O   0  0  0  0  0  0  0  0  0  0  0  0
   31.5370   32.2840   14.7650 O   0  0  0  0  0  0  0  0  0  0  0  0
   31.5340   31.7000   13.9610 H   0  0  0  0  0  0  0  0  0  0  0  0
   28.5150   30.8990   16.0630 O   0  0  0  0  0  0  0  0  0  0  0  0
   28.0290   31.7610   16.0820 H   0  0  0  0  0  0  0  0  0  0  0  0
   28.3880   29.9140   20.2830 O   0  0  0  0  0  0  0  0  0  0  0  0
   26.9580   29.8120   20.4570 C   0  0  0  0  0  0  0  0  0  0  0  0
   26.4960   29.3120   19.1100 C   0  0  0  0  0  0  0  0  0  0  0  0
   25.2330   29.3960   18.6010 C   0  0  0  0  0  0  0  0  0  0  0  0
   27.2920   28.7870   18.1800 N   0  0  0  0  0  0  0  0  0  0  0  0
   25.3170   28.9060   17.3270 N   0  0  0  0  0  0  0  0  0  0  0  0
   26.5910   28.5460   17.1100 N   0  0  0  0  0  0  0  0  0  0  0  0
   24.2910   28.8100   16.3930 C   0  0  0  0  0  0  0  0  0  0  0  0
   23.3620   27.7670   16.4670 N   0  0  0  0  0  0  0  0  0  0  0  0
   24.1280   29.6180   15.2870 C   0  0  0  0  0  0  0  0  0  0  0  0
   22.4830   27.6300   15.5650 C   0  0  0  0  0  0  0  0  0  0  0  0
   23.2060   29.4600   14.3520 C   0  0  0  0  0  0  0  0  0  0  0  0
   22.2490   28.4050   14.4010 C   0  0  0  0  0  0  0  0  0  0  0  0
   25.1310   30.7330   15.0820 C   0  0  0  0  0  0  0  0  0  0  0  0
   25.8120   31.4690   14.9580 N   0  0  0  0  0  0  0  0  0  0  0  0
   29.8670   25.5550   16.9770 C   0  0  0  0  0  0  0  0  0  0  0  0
   28.3450   25.7220   17.0260 C   0  0  0  0  0  0  0  0  0  0  0  0
   27.6000   24.4080   16.8490 C   0  0  0  0  0  0  0  0  0  0  0  0
   26.7680   24.0620   18.0530 C   0  0  0  0  0  0  0  0  0  0  0  0
   26.4070   25.3380   18.8060 C   0  0  0  0  0  0  0  0  0  0  0  0
   24.9570   25.6200   18.6840 N   0  0  0  0  0  0  0  0  0  0  0  0
  1  2  1  0  0  0  0
  2  3  2  0  0  0  0
  2 31  1  0  0  0  0
  4  1  1  0  0  0  0
  5  1  1  0  0  0  0
  6 29  1  0  0  0  0
  6  5  1  1  0  0  0
  7 27  1  1  0  0  0
  7  6  1  0  0  0  0
  8  7  1  6  0  0  0
  8 11  1  0  0  0  0
  9 14  1  6  0  0  0
  9 10  1  0  0  0  0
  9 11  1  0  0  0  0
  9 16  1  0  0  0  0
 12 20  1  6  0  0  0
 12 10  1  0  0  0  0
 13 22  1  1  0  0  0
 13  8  1  0  0  0  0
 13 12  1  0  0  0  0
 15 14  1  0  0  0  0
 16 17  2  0  0  0  0
 16 18  1  0  0  0  0
 19 18  1  0  0  0  0
 21 20  1  0  0  0  0
 22 24  1  0  0  0  0
 23 22  1  0  0  0  0
 25 23  1  0  0  0  0
 26 23  2  0  0  0  0
 28 27  1  0  0  0  0
 29 30  1  0  0  0  0
 31 32  1  0  0  0  0
 33 32  1  0  0  0  0
 34 33  2  0  0  0  0
 35 33  1  0  0  0  0
 36 34  1  0  0  0  0
 37 36  1  0  0  0  0
 37 35  2  0  0  0  0
 38 39  1  0  0  0  0
 38 36  1  0  0  0  0
 40 38  2  0  0  0  0
 41 39  2  0  0  0  0
 42 43  2  0  0  0  0
 42 40  1  0  0  0  0
 43 41  1  0  0  0  0
 44 40  1  0  0  0  0
 45 44  3  0  0  0  0
 46 47  1  0  0  0  0
 48 47  1  0  0  0  0
 48 49  1  0  0  0  0
 49 50  1  0  0  0  0
 51 50  1  0  0  0  0
M  END
>  <REMARK>
 VINA RESULT:    -4.038      4.535      8.820
 INTER + INTRA:         -14.266
 INTER:                  -7.806
 INTRA:                  -6.460
 UNBOUND:                -7.042
 SMILES CC(=O)N[C@@H]1[C@@H](O)C[C@](O)(C(=O)O)O[C@H]1C(O)[C@H](O)CNC(=O)OCc1cn(-c2ncccc2C#N)nn1
 SMILES IDX 21 1 22 2 23 3 20 5 18 6 16 7 15 8 9 9 8 10 14 11 6 12 5 13
 SMILES IDX 10 14 11 16 12 17 13 18 7 20 4 22 2 23 1 25 3 26 17 27 19 29
 SMILES IDX 24 31 25 32 26 33 27 34 38 35 28 36 37 37 29 38 30 39 34 40
 SMILES IDX 31 41 33 42 32 43 35 44 36 45
 H PARENT 21 4 10 15 13 19 7 21 4 24 17 28 19 30
 Flexibility Score: inf
  4 active torsions:
  status: ('A' for Active; 'I' for Inactive)
    1  A    between atoms: CA   and  CB  
    2  A    between atoms: CB   and  CG  
    3  A    between atoms: CG   and  CD  
    4  A    between atoms: CD   and  CE  

>  <TORSDO>
F 16

>  <BEGIN_>
RES LYS A 131

$$$$
ligand_63_pose_16_2HRL.pdbqt
 OpenBabel07062320523D

  6  5  0  0  0  0  0  0  0  0999 V2000
   33.1930   34.6630    9.2900 C   0  0  0  0  0  0  0  0  0  0  0  0
   32.0600   35.3600   10.0340 C   0  0  0  0  0  0  0  0  0  0  0  0
   30.7720   35.4160    9.2540 C   0  0  0  0  0  0  0  0  0  0  0  0
   30.1500   34.0330    9.1440 C   0  0  0  0  0  0  0  0  0  0  0  0
   28.6400   34.1330    9.0490 C   0  0  0  0  0  0  0  0  0  0  0  0
   28.0850   34.9500   10.1640 N   0  0  0  0  0  0  0  0  0  0  0  0
  1  2  1  0  0  0  0
  3  2  1  0  0  0  0
  4  3  1  0  0  0  0
  5  4  1  0  0  0  0
  5  6  1  0  0  0  0
M  END
>  <EGIN_R>
ES LYS A 135

>  <REMARK>
  4 active torsions:
  status: ('A' for Active; 'I' for Inactive)
    5  A    between atoms: CA   and  CB  
    6  A    between atoms: CB   and  CG  
    7  A    between atoms: CG   and  CD  
    8  A    between atoms: CD   and  CE  

$$$$
