ligand_90_pose_3_2HRL.pdbqt
 OpenBabel07062320523D

 61 62  0  0  1  0  0  0  0  0999 V2000
   24.2720   27.2800   19.5700 C   0  0  0  0  0  0  0  0  0  0  0  0
   24.7090   26.0510   20.1160 O   0  0  0  0  0  0  0  0  0  0  0  0
   25.1290   25.9480   21.4300 C   0  0  0  0  0  0  0  0  0  0  0  0
   26.5050   26.1530   21.7910 N   0  0  0  0  0  0  0  0  0  0  0  0
   27.1550   26.3720   21.0090 H   0  0  0  0  0  0  0  0  0  0  0  0
   24.2870   25.6710   22.3020 O   0  0  0  0  0  0  0  0  0  0  0  0
   26.9850   26.0680   23.1270 C   0  0  0  0  0  0  0  0  0  0  0  0
   28.3510   26.6220   23.3340 C   0  0  2  0  0  0  0  0  0  0  0  0
   28.7390   27.4460   22.1160 C   0  0  1  0  0  0  0  0  0  0  0  0
   29.2060   28.8210   22.4710 C   0  0  2  0  0  0  0  0  0  0  0  0
   28.8530   30.2750   20.6850 C   0  0  2  0  0  0  0  0  0  0  0  0
   30.1720   31.0190   20.8330 C   0  0  0  0  0  0  0  0  0  0  0  0
   28.4150   29.7700   21.8780 O   0  0  0  0  0  0  0  0  0  0  0  0
   30.8760   30.5630   22.1040 C   0  0  1  0  0  0  0  0  0  0  0  0
   30.6530   29.0470   22.1830 C   0  0  1  0  0  0  0  0  0  0  0  0
   29.0950   29.2400   19.8010 O   0  0  0  0  0  0  0  0  0  0  0  0
   30.0670   29.1390   19.6350 H   0  0  0  0  0  0  0  0  0  0  0  0
   27.8030   31.1460   20.0970 C   0  0  0  0  0  0  0  0  0  0  0  0
   26.5750   30.8600   20.1840 O   0  0  0  0  0  0  0  0  0  0  0  0
   28.1340   32.3120   19.4280 O   0  0  0  0  0  0  0  0  0  0  0  0
   27.6920   32.6530   18.5930 H   0  0  0  0  0  0  0  0  0  0  0  0
   32.2200   30.8640   21.9700 O   0  0  0  0  0  0  0  0  0  0  0  0
   32.4450   31.2660   21.1010 H   0  0  0  0  0  0  0  0  0  0  0  0
   31.5050   28.4860   23.2230 N   0  0  0  0  0  0  0  0  0  0  0  0
   32.3840   27.4320   22.9050 C   0  0  0  0  0  0  0  0  0  0  0  0
   31.4540   28.8590   24.1740 H   0  0  0  0  0  0  0  0  0  0  0  0
   33.2850   26.8220   23.9520 C   0  0  0  0  0  0  0  0  0  0  0  0
   32.4810   26.9340   21.7580 O   0  0  0  0  0  0  0  0  0  0  0  0
   29.7120   26.8060   21.3660 O   0  0  0  0  0  0  0  0  0  0  0  0
   30.1910   26.1140   21.8580 H   0  0  0  0  0  0  0  0  0  0  0  0
   29.3330   25.6730   23.5680 O   0  0  0  0  0  0  0  0  0  0  0  0
   29.5940   25.1820   22.7430 H   0  0  0  0  0  0  0  0  0  0  0  0
   25.4130   27.7930   18.7730 C   0  0  0  0  0  0  0  0  0  0  0  0
   25.3080   28.7850   17.8230 C   0  0  0  0  0  0  0  0  0  0  0  0
   26.7100   27.4550   18.7630 N   0  0  0  0  0  0  0  0  0  0  0  0
   26.5330   29.0270   17.2620 N   0  0  0  0  0  0  0  0  0  0  0  0
   27.3630   28.2040   17.8550 N   0  0  0  0  0  0  0  0  0  0  0  0
   26.7180   30.0180   16.2250 C   0  0  0  0  0  0  0  0  0  0  0  0
   28.2170   30.1990   16.0770 C   0  0  0  0  0  0  0  0  0  0  0  0
   28.7960   29.8020   15.0430 O   0  0  0  0  0  0  0  0  0  0  0  0
   28.9960   30.8020   17.0680 N   0  0  0  0  0  0  0  0  0  0  0  0
   28.4050   31.1350   17.9220 H   0  0  0  0  0  0  0  0  0  0  0  0
   30.3930   31.0310   17.1240 C   0  0  0  0  0  0  0  0  0  0  0  0
   30.9940   32.1410   16.3910 C   0  0  1  0  0  0  0  0  0  0  0  0
   31.3140   31.8110   15.0460 O   0  0  0  0  0  0  0  0  0  0  0  0
   31.9020   31.0170   15.0380 H   0  0  0  0  0  0  0  0  0  0  0  0
   30.5520   33.5320   16.5810 C   0  0  0  0  0  0  0  0  0  0  0  0
   29.9550   34.1200   15.3970 N   0  0  0  0  0  0  0  0  0  0  0  0
   28.6580   33.9930   15.0180 C   0  0  0  0  0  0  0  0  0  0  0  0
   30.5950   34.8670   14.4780 C   0  0  0  0  0  0  0  0  0  0  0  0
   28.5240   34.6890   13.8310 C   0  0  0  0  0  0  0  0  0  0  0  0
   29.7030   35.2190   13.5030 N   0  0  0  0  0  0  0  0  0  0  0  0
   31.9520   35.2720   14.4420 N   0  0  0  0  0  0  0  0  0  0  0  0
   32.1940   36.5150   14.4620 O   0  0  0  0  0  0  0  0  0  0  0  0
   33.0320   34.4570   14.3860 O   0  0  0  0  0  0  0  0  0  0  0  0
   29.8670   25.5550   16.9770 C   0  0  0  0  0  0  0  0  0  0  0  0
   28.3450   25.7220   17.0260 C   0  0  0  0  0  0  0  0  0  0  0  0
   27.5990   24.4340   16.7120 C   0  0  0  0  0  0  0  0  0  0  0  0
   27.0260   23.7970   17.9480 C   0  0  0  0  0  0  0  0  0  0  0  0
   25.5360   23.5390   17.7430 C   0  0  0  0  0  0  0  0  0  0  0  0
   24.9190   24.6480   16.9780 N   0  0  0  0  0  0  0  0  0  0  0  0
  1  2  1  0  0  0  0
  2  3  1  0  0  0  0
  3  4  1  0  0  0  0
  3  6  2  0  0  0  0
  4  7  1  0  0  0  0
  5  4  1  0  0  0  0
  8  7  1  6  0  0  0
  8 31  1  0  0  0  0
  9 29  1  1  0  0  0
  9  8  1  0  0  0  0
 10  9  1  6  0  0  0
 11 16  1  6  0  0  0
 11 12  1  0  0  0  0
 11 13  1  0  0  0  0
 12 14  1  0  0  0  0
 13 10  1  0  0  0  0
 14 22  1  6  0  0  0
 14 15  1  0  0  0  0
 15 10  1  0  0  0  0
 15 24  1  1  0  0  0
 17 16  1  0  0  0  0
 18 19  2  0  0  0  0
 18 11  1  0  0  0  0
 20 18  1  0  0  0  0
 21 20  1  0  0  0  0
 23 22  1  0  0  0  0
 24 26  1  0  0  0  0
 25 24  1  0  0  0  0
 25 27  1  0  0  0  0
 28 25  2  0  0  0  0
 29 30  1  0  0  0  0
 32 31  1  0  0  0  0
 33  1  1  0  0  0  0
 34 33  2  0  0  0  0
 35 33  1  0  0  0  0
 36 34  1  0  0  0  0
 36 37  1  0  0  0  0
 37 35  2  0  0  0  0
 38 36  1  0  0  0  0
 39 38  1  0  0  0  0
 39 41  1  0  0  0  0
 40 39  2  0  0  0  0
 41 43  1  0  0  0  0
 41 42  1  0  0  0  0
 44 47  1  6  0  0  0
 44 43  1  0  0  0  0
 45 44  1  0  0  0  0
 46 45  1  0  0  0  0
 48 47  1  0  0  0  0
 49 48  1  0  0  0  0
 50 48  1  0  0  0  0
 51 49  2  0  0  0  0
 52 51  1  0  0  0  0
 52 50  2  0  0  0  0
 53 54  2  0  0  0  0
 53 50  1  0  0  0  0
 55 53  2  0  0  0  0
 56 57  1  0  0  0  0
 58 57  1  0  0  0  0
 58 59  1  0  0  0  0
 60 59  1  0  0  0  0
 61 60  1  0  0  0  0
M  END
>  <REMARK>
 VINA RESULT:    -5.356      7.020     14.567
 INTER + INTRA:         -17.063
 INTER:                  -9.238
 INTRA:                  -7.826
 UNBOUND:                -5.759
 SMILES CC(=O)N[C@@H]1[C@@H](O)C[C@](O)(C(=O)O)O[C@H]1C(O)[C@H](O)CNC(=O)OCc1cn(CC(=O)NCC(O)Cn2ccnc2[N+](=O)[O-])nn1
 SMILES IDX 25 1 24 2 22 3 21 4 23 6 20 7 18 8 16 9 15 10 9 11 8 12
 SMILES IDX 14 13 6 14 5 15 10 16 11 18 12 19 13 20 7 22 4 24 2 25 1 27
 SMILES IDX 3 28 17 29 19 31 26 33 27 34 46 35 28 36 45 37 29 38 30 39
 SMILES IDX 31 40 32 41 33 43 34 44 35 45 36 47 37 48 38 49 41 50 39 51
 SMILES IDX 40 52 42 53 43 54 44 55
 H PARENT 21 5 10 17 13 21 7 23 4 26 17 30 19 32 32 42 35 46
 Flexibility Score: inf
  4 active torsions:
  status: ('A' for Active; 'I' for Inactive)
    1  A    between atoms: CA   and  CB  
    2  A    between atoms: CB   and  CG  
    3  A    between atoms: CG   and  CD  
    4  A    between atoms: CD   and  CE  

>  <TORSDO>
F 22

>  <BEGIN_>
RES LYS A 131

$$$$
ligand_90_pose_3_2HRL.pdbqt
 OpenBabel07062320523D

  6  5  0  0  0  0  0  0  0  0999 V2000
   33.1930   34.6630    9.2900 C   0  0  0  0  0  0  0  0  0  0  0  0
   32.0600   35.3600   10.0340 C   0  0  0  0  0  0  0  0  0  0  0  0
   30.7560   35.3660    9.2780 C   0  0  0  0  0  0  0  0  0  0  0  0
   29.6470   35.9700   10.1250 C   0  0  0  0  0  0  0  0  0  0  0  0
   28.3900   35.1260   10.0380 C   0  0  0  0  0  0  0  0  0  0  0  0
   28.3900   34.2900    8.8050 N   0  0  0  0  0  0  0  0  0  0  0  0
  1  2  1  0  0  0  0
  3  2  1  0  0  0  0
  3  4  1  0  0  0  0
  5  4  1  0  0  0  0
  6  5  1  0  0  0  0
M  END
>  <EGIN_R>
ES LYS A 135

>  <REMARK>
  4 active torsions:
  status: ('A' for Active; 'I' for Inactive)
    5  A    between atoms: CA   and  CB  
    6  A    between atoms: CB   and  CG  
    7  A    between atoms: CG   and  CD  
    8  A    between atoms: CD   and  CE  

$$$$
