ligand_17_pose_8_2HRL.pdbqt
 OpenBabel07062320523D

 50 50  0  0  1  0  0  0  0  0999 V2000
   28.7450   30.8740   16.9790 N   0  0  0  0  0  0  0  0  0  0  0  0
   27.8730   29.7470   17.0730 C   0  0  0  0  0  0  0  0  0  0  0  0
   27.7380   28.9800   16.1040 O   0  0  0  0  0  0  0  0  0  0  0  0
   28.8060   31.4700   17.8230 H   0  0  0  0  0  0  0  0  0  0  0  0
   29.5040   31.1980   15.8110 C   0  0  0  0  0  0  0  0  0  0  0  0
   29.1880   32.5490   15.2340 C   0  0  2  0  0  0  0  0  0  0  0  0
   30.4370   33.1840   14.6640 C   0  0  1  0  0  0  0  0  0  0  0  0
   30.6620   34.5600   15.2210 C   0  0  2  0  0  0  0  0  0  0  0  0
   31.8140   35.4260   13.3610 C   0  0  2  0  0  0  0  0  0  0  0  0
   33.1230   35.1990   14.1060 C   0  0  0  0  0  0  0  0  0  0  0  0
   30.7280   35.4570   14.1850 O   0  0  0  0  0  0  0  0  0  0  0  0
   32.8610   35.5920   15.5640 C   0  0  1  0  0  0  0  0  0  0  0  0
   31.8590   34.6350   16.1030 C   0  0  1  0  0  0  0  0  0  0  0  0
   31.7570   34.4890   12.3330 O   0  0  0  0  0  0  0  0  0  0  0  0
   30.8120   34.2440   12.1240 H   0  0  0  0  0  0  0  0  0  0  0  0
   31.9010   36.7780   12.7220 C   0  0  0  0  0  0  0  0  0  0  0  0
   31.3320   37.7820   13.2010 O   0  0  0  0  0  0  0  0  0  0  0  0
   32.6370   36.9180   11.5650 O   0  0  0  0  0  0  0  0  0  0  0  0
   33.0060   36.1350   11.0350 H   0  0  0  0  0  0  0  0  0  0  0  0
   34.0830   35.5510   16.2360 O   0  0  0  0  0  0  0  0  0  0  0  0
   34.0400   34.7390   16.8340 H   0  0  0  0  0  0  0  0  0  0  0  0
   31.5230   34.8840   17.4920 N   0  0  0  0  0  0  0  0  0  0  0  0
   31.1430   33.8540   18.3990 C   0  0  0  0  0  0  0  0  0  0  0  0
   31.5480   35.8630   17.8990 H   0  0  0  0  0  0  0  0  0  0  0  0
   30.8060   34.1690   19.8230 C   0  0  0  0  0  0  0  0  0  0  0  0
   31.0840   32.6710   18.0140 O   0  0  0  0  0  0  0  0  0  0  0  0
   31.4740   32.3000   15.0150 O   0  0  0  0  0  0  0  0  0  0  0  0
   32.3160   32.7860   14.8080 H   0  0  0  0  0  0  0  0  0  0  0  0
   28.5150   33.3170   16.1400 O   0  0  0  0  0  0  0  0  0  0  0  0
   28.7330   34.2720   16.0020 H   0  0  0  0  0  0  0  0  0  0  0  0
   27.1520   29.4590   18.2200 O   0  0  0  0  0  0  0  0  0  0  0  0
   26.1950   28.4090   18.2690 C   0  0  0  0  0  0  0  0  0  0  0  0
   24.8810   28.9700   17.8620 C   0  0  0  0  0  0  0  0  0  0  0  0
   24.3420   28.8240   16.5840 C   0  0  0  0  0  0  0  0  0  0  0  0
   23.9790   29.6830   18.5490 N   0  0  0  0  0  0  0  0  0  0  0  0
   23.1640   29.4420   16.5640 N   0  0  0  0  0  0  0  0  0  0  0  0
   22.9560   29.9560   17.7570 N   0  0  0  0  0  0  0  0  0  0  0  0
   22.2720   29.5360   15.4400 C   0  0  0  0  0  0  0  0  0  0  0  0
   22.8350   28.7080   14.3000 C   0  0  0  0  0  0  0  0  0  0  0  0
   23.0750   29.4600   13.1110 N   0  0  0  0  0  0  0  0  0  0  0  0
   24.2530   30.2610   13.1300 C   0  0  0  0  0  0  0  0  0  0  0  0
   23.7980   31.7270   13.0740 C   0  0  0  0  0  0  0  0  0  0  0  0
   21.9050   30.0570   12.5630 C   0  0  0  0  0  0  0  0  0  0  0  0
   20.8920   29.0760   12.0600 C   0  0  0  0  0  0  0  0  0  0  0  0
   29.8670   25.5550   16.9770 C   0  0  0  0  0  0  0  0  0  0  0  0
   28.3450   25.7220   17.0260 C   0  0  0  0  0  0  0  0  0  0  0  0
   27.6040   24.3940   17.0070 C   0  0  0  0  0  0  0  0  0  0  0  0
   26.1160   24.5730   17.1310 C   0  0  0  0  0  0  0  0  0  0  0  0
   25.6260   23.8960   18.4070 C   0  0  0  0  0  0  0  0  0  0  0  0
   25.7480   24.8150   19.5630 N   0  0  0  0  0  0  0  0  0  0  0  0
  1  2  1  0  0  0  0
  1  4  1  0  0  0  0
  2 31  1  0  0  0  0
  3  2  2  0  0  0  0
  5  1  1  0  0  0  0
  6  5  1  1  0  0  0
  6 29  1  0  0  0  0
  7 27  1  1  0  0  0
  7  6  1  0  0  0  0
  8  7  1  6  0  0  0
  8 13  1  0  0  0  0
  9 14  1  6  0  0  0
  9 10  1  0  0  0  0
  9 11  1  0  0  0  0
 10 12  1  0  0  0  0
 11  8  1  0  0  0  0
 12 13  1  0  0  0  0
 12 20  1  1  0  0  0
 13 22  1  1  0  0  0
 15 14  1  0  0  0  0
 16 17  2  0  0  0  0
 16  9  1  0  0  0  0
 18 16  1  0  0  0  0
 19 18  1  0  0  0  0
 20 21  1  0  0  0  0
 22 24  1  0  0  0  0
 22 23  1  0  0  0  0
 23 25  1  0  0  0  0
 26 23  2  0  0  0  0
 28 27  1  0  0  0  0
 30 29  1  0  0  0  0
 31 32  1  0  0  0  0
 33 32  1  0  0  0  0
 33 35  1  0  0  0  0
 34 33  2  0  0  0  0
 36 34  1  0  0  0  0
 36 37  1  0  0  0  0
 37 35  2  0  0  0  0
 38 36  1  0  0  0  0
 39 38  1  0  0  0  0
 40 41  1  0  0  0  0
 40 39  1  0  0  0  0
 42 41  1  0  0  0  0
 43 40  1  0  0  0  0
 44 43  1  0  0  0  0
 45 46  1  0  0  0  0
 47 46  1  0  0  0  0
 47 48  1  0  0  0  0
 48 49  1  0  0  0  0
 49 50  1  0  0  0  0
M  END
>  <REMARK>
 VINA RESULT:    -3.625      3.969      7.853
 INTER + INTRA:         -14.279
 INTER:                  -9.201
 INTRA:                  -5.078
 UNBOUND:                -7.158
 SMILES CCN(CC)CCn1cc(COC(=O)NC[C@@H](O)C(O)[C@@H]2O[C@@](O)(C(=O)O)C[C@H](O)[C@H]2NC(C)=O)nn1
 SMILES IDX 15 1 13 2 14 3 16 5 17 6 19 7 21 8 23 9 28 10 22 11 29 12
 SMILES IDX 31 13 24 14 25 16 26 17 27 18 30 20 32 22 33 23 34 25 35 26
 SMILES IDX 20 27 18 29 12 31 11 32 10 33 9 34 36 35 8 36 37 37 7 38
 SMILES IDX 6 39 3 40 2 41 1 42 4 43 5 44
 H PARENT 15 4 24 15 27 19 30 21 32 24 20 28 18 30
 Flexibility Score: inf
  4 active torsions:
  status: ('A' for Active; 'I' for Inactive)
    1  A    between atoms: CA   and  CB  
    2  A    between atoms: CB   and  CG  
    3  A    between atoms: CG   and  CD  
    4  A    between atoms: CD   and  CE  

>  <TORSDO>
F 19

>  <BEGIN_>
RES LYS A 131

$$$$
ligand_17_pose_8_2HRL.pdbqt
 OpenBabel07062320523D

  6  5  0  0  0  0  0  0  0  0999 V2000
   33.1930   34.6630    9.2900 C   0  0  0  0  0  0  0  0  0  0  0  0
   32.0600   35.3600   10.0340 C   0  0  0  0  0  0  0  0  0  0  0  0
   30.8020   35.5050    9.2170 C   0  0  0  0  0  0  0  0  0  0  0  0
   30.1410   34.1510    9.0060 C   0  0  0  0  0  0  0  0  0  0  0  0
   28.6790   34.3240    8.6390 C   0  0  0  0  0  0  0  0  0  0  0  0
   27.7920   33.7320    9.6780 N   0  0  0  0  0  0  0  0  0  0  0  0
  1  2  1  0  0  0  0
  3  2  1  0  0  0  0
  4  3  1  0  0  0  0
  5  4  1  0  0  0  0
  5  6  1  0  0  0  0
M  END
>  <EGIN_R>
ES LYS A 135

>  <REMARK>
  4 active torsions:
  status: ('A' for Active; 'I' for Inactive)
    5  A    between atoms: CA   and  CB  
    6  A    between atoms: CB   and  CG  
    7  A    between atoms: CG   and  CD  
    8  A    between atoms: CD   and  CE  

$$$$
