ligand_82_pose_14_2HRL.pdbqt
 OpenBabel07062320523D

 53 55  0  0  1  0  0  0  0  0999 V2000
   30.1930   39.2140   11.3700 N   0  0  0  0  0  0  0  0  0  0  0  0
   29.6280   39.7400   12.5830 C   0  0  0  0  0  0  0  0  0  0  0  0
   29.6660   40.9820   12.7740 O   0  0  0  0  0  0  0  0  0  0  0  0
   30.1630   38.1860   11.2060 H   0  0  0  0  0  0  0  0  0  0  0  0
   30.7880   40.1150   10.4060 C   0  0  0  0  0  0  0  0  0  0  0  0
   30.0820   39.9290    9.0930 C   0  0  2  0  0  0  0  0  0  0  0  0
   30.3270   38.5610    8.4970 C   0  0  1  0  0  0  0  0  0  0  0  0
   28.9800   37.9000    8.3220 C   0  0  2  0  0  0  0  0  0  0  0  0
   29.4130   35.6350    8.1040 C   0  0  2  0  0  0  0  0  0  0  0  0
   28.8160   35.5490    6.7180 C   0  0  0  0  0  0  0  0  0  0  0  0
   28.8910   36.6520    8.8660 O   0  0  0  0  0  0  0  0  0  0  0  0
   27.8240   36.6740    6.5680 C   0  0  1  0  0  0  0  0  0  0  0  0
   28.5620   37.9630    6.8710 C   0  0  1  0  0  0  0  0  0  0  0  0
   30.8070   35.6910    8.0080 O   0  0  0  0  0  0  0  0  0  0  0  0
   31.1010   36.3130    8.7280 H   0  0  0  0  0  0  0  0  0  0  0  0
   29.0860   34.3510    8.7910 C   0  0  0  0  0  0  0  0  0  0  0  0
   30.0390   33.5800    9.1540 O   0  0  0  0  0  0  0  0  0  0  0  0
   27.7940   33.9510    9.0570 O   0  0  0  0  0  0  0  0  0  0  0  0
   27.5610   33.4050    9.8820 H   0  0  0  0  0  0  0  0  0  0  0  0
   27.3070   36.7570    5.2900 O   0  0  0  0  0  0  0  0  0  0  0  0
   27.7920   37.4830    4.8200 H   0  0  0  0  0  0  0  0  0  0  0  0
   27.7610   39.1200    6.5650 N   0  0  0  0  0  0  0  0  0  0  0  0
   28.2720   40.2000    5.8000 C   0  0  0  0  0  0  0  0  0  0  0  0
   26.7830   39.1480    6.9240 H   0  0  0  0  0  0  0  0  0  0  0  0
   27.3760   41.3580    5.5310 C   0  0  0  0  0  0  0  0  0  0  0  0
   29.4500   40.1730    5.3650 O   0  0  0  0  0  0  0  0  0  0  0  0
   30.9130   38.6680    7.2380 O   0  0  0  0  0  0  0  0  0  0  0  0
   30.5470   38.0460    6.5860 H   0  0  0  0  0  0  0  0  0  0  0  0
   30.6130   40.8950    8.2120 O   0  0  0  0  0  0  0  0  0  0  0  0
   30.9390   41.6870    8.7250 H   0  0  0  0  0  0  0  0  0  0  0  0
   29.0490   38.9490   13.5380 O   0  0  0  0  0  0  0  0  0  0  0  0
   27.6560   38.7050   13.6290 C   0  0  0  0  0  0  0  0  0  0  0  0
   27.2940   37.5180   12.8280 C   0  0  0  0  0  0  0  0  0  0  0  0
   26.0460   37.0860   12.4450 C   0  0  0  0  0  0  0  0  0  0  0  0
   28.1610   36.6280   12.3230 N   0  0  0  0  0  0  0  0  0  0  0  0
   26.1770   35.9410   11.7120 N   0  0  0  0  0  0  0  0  0  0  0  0
   27.4780   35.6920   11.6590 N   0  0  0  0  0  0  0  0  0  0  0  0
   25.0840   35.1950   11.1380 C   0  0  0  0  0  0  0  0  0  0  0  0
   24.3970   35.9880   10.0590 C   0  0  0  0  0  0  0  0  0  0  0  0
   25.0840   36.5320    9.0590 C   0  0  0  0  0  0  0  0  0  0  0  0
   22.9350   36.1890   10.0720 C   0  0  2  0  0  0  0  0  0  0  0  0
   24.3340   37.0890    7.9000 C   0  0  0  0  0  0  0  0  0  0  0  0
   22.4320   35.7370    8.6930 C   0  0  0  0  0  0  0  0  0  0  0  0
   22.6220   37.6030    9.6250 C   0  0  0  0  0  0  0  0  0  0  0  0
   22.8650   37.1040    8.1930 C   0  0  1  0  0  0  0  0  0  0  0  0
   21.1790   37.9910    9.7920 C   0  0  0  0  0  0  0  0  0  0  0  0
   23.5660   38.6600   10.0890 C   0  0  0  0  0  0  0  0  0  0  0  0
   29.8670   25.5550   16.9770 C   0  0  0  0  0  0  0  0  0  0  0  0
   28.3450   25.7220   17.0260 C   0  0  0  0  0  0  0  0  0  0  0  0
   27.6010   24.4030   16.8820 C   0  0  0  0  0  0  0  0  0  0  0  0
   26.6670   24.1510   18.0330 C   0  0  0  0  0  0  0  0  0  0  0  0
   25.5400   23.2280   17.5800 C   0  0  0  0  0  0  0  0  0  0  0  0
   24.4720   24.0040   16.9080 N   0  0  0  0  0  0  0  0  0  0  0  0
  1  2  1  0  0  0  0
  2  3  2  0  0  0  0
  2 31  1  0  0  0  0
  4  1  1  0  0  0  0
  5  1  1  0  0  0  0
  6  5  1  1  0  0  0
  7 27  1  6  0  0  0
  7  6  1  0  0  0  0
  8  7  1  6  0  0  0
  8 11  1  0  0  0  0
  9 14  1  6  0  0  0
  9 16  1  0  0  0  0
  9 11  1  0  0  0  0
 10  9  1  0  0  0  0
 12 20  1  6  0  0  0
 12 10  1  0  0  0  0
 12 13  1  0  0  0  0
 13 22  1  1  0  0  0
 13  8  1  0  0  0  0
 14 15  1  0  0  0  0
 16 18  1  0  0  0  0
 16 17  2  0  0  0  0
 18 19  1  0  0  0  0
 21 20  1  0  0  0  0
 22 24  1  0  0  0  0
 23 22  1  0  0  0  0
 25 23  1  0  0  0  0
 26 23  2  0  0  0  0
 28 27  1  0  0  0  0
 29 30  1  0  0  0  0
 29  6  1  0  0  0  0
 31 32  1  0  0  0  0
 33 32  1  0  0  0  0
 34 33  2  0  0  0  0
 35 33  1  0  0  0  0
 36 34  1  0  0  0  0
 37 36  1  0  0  0  0
 37 35  2  0  0  0  0
 38 36  1  0  0  0  0
 39 41  1  0  0  0  0
 39 38  1  0  0  0  0
 40 39  2  0  0  0  0
 41 43  1  6  0  0  0
 42 40  1  0  0  0  0
 44 46  1  0  0  0  0
 44 41  1  0  0  0  0
 44 47  1  0  0  0  0
 45 42  1  1  0  0  0
 45 43  1  0  0  0  0
 45 44  1  0  0  0  0
 48 49  1  0  0  0  0
 50 49  1  0  0  0  0
 50 51  1  0  0  0  0
 52 51  1  0  0  0  0
 53 52  1  0  0  0  0
M  END
>  <REMARK>
 VINA RESULT:    -5.310      7.072     13.237
 INTER + INTRA:         -14.838
 INTER:                  -9.093
 INTRA:                  -5.745
 UNBOUND:                -5.337
 SMILES CC(=O)N[C@@H]1[C@@H](O)C[C@](O)(C(=O)O)O[C@H]1C(O)[C@H](O)CNC(=O)OCc1cn(CC2=CC[C@H]3C[C@@H]2C3(C)C)nn1
 SMILES IDX 21 1 22 2 23 3 20 5 18 6 16 7 15 8 9 9 8 10 14 11 6 12 5 13
 SMILES IDX 10 14 11 16 12 17 13 18 7 20 4 22 2 23 1 25 3 26 17 27 19 29
 SMILES IDX 24 31 25 32 26 33 27 34 40 35 28 36 39 37 29 38 30 39 31 40
 SMILES IDX 35 41 32 42 34 43 36 44 33 45 37 46 38 47
 H PARENT 21 4 10 15 13 19 7 21 4 24 17 28 19 30
 Flexibility Score: inf
  4 active torsions:
  status: ('A' for Active; 'I' for Inactive)
    1  A    between atoms: CA   and  CB  
    2  A    between atoms: CB   and  CG  
    3  A    between atoms: CG   and  CD  
    4  A    between atoms: CD   and  CE  

>  <TORSDO>
F 16

>  <BEGIN_>
RES LYS A 131

$$$$
ligand_82_pose_14_2HRL.pdbqt
 OpenBabel07062320523D

  6  5  0  0  0  0  0  0  0  0999 V2000
   33.1930   34.6630    9.2900 C   0  0  0  0  0  0  0  0  0  0  0  0
   32.0600   35.3600   10.0340 C   0  0  0  0  0  0  0  0  0  0  0  0
   32.5360   36.3700   11.0460 C   0  0  0  0  0  0  0  0  0  0  0  0
   32.7230   35.7180   12.4080 C   0  0  0  0  0  0  0  0  0  0  0  0
   31.4880   35.9150   13.2660 C   0  0  0  0  0  0  0  0  0  0  0  0
   30.8670   34.6080   13.6200 N   0  0  0  0  0  0  0  0  0  0  0  0
  1  2  1  0  0  0  0
  2  3  1  0  0  0  0
  3  4  1  0  0  0  0
  4  5  1  0  0  0  0
  5  6  1  0  0  0  0
M  END
>  <EGIN_R>
ES LYS A 135

>  <REMARK>
  4 active torsions:
  status: ('A' for Active; 'I' for Inactive)
    5  A    between atoms: CA   and  CB  
    6  A    between atoms: CB   and  CG  
    7  A    between atoms: CG   and  CD  
    8  A    between atoms: CD   and  CE  

$$$$
