ligand_47_pose_1_2HRL.pdbqt
 OpenBabel07062320523D

 62 64  0  0  1  0  0  0  0  0999 V2000
   26.4100   36.9730   12.7750 N   0  0  0  0  0  0  0  0  0  0  0  0
   26.1170   36.9510   11.3870 C   0  0  0  0  0  0  0  0  0  0  0  0
   27.0640   36.8860   10.5490 O   0  0  0  0  0  0  0  0  0  0  0  0
   25.5610   37.0300   13.4120 H   0  0  0  0  0  0  0  0  0  0  0  0
   27.7500   36.9230   13.3080 C   0  0  0  0  0  0  0  0  0  0  0  0
   27.9400   35.7840   14.3110 C   0  0  2  0  0  0  0  0  0  0  0  0
   28.5210   34.6390   13.5380 C   0  0  2  0  0  0  0  0  0  0  0  0
   29.6370   33.9370   14.2570 C   0  0  2  0  0  0  0  0  0  0  0  0
   30.1730   33.1730   16.3790 C   0  0  2  0  0  0  0  0  0  0  0  0
   31.5270   32.8530   15.8000 C   0  0  0  0  0  0  0  0  0  0  0  0
   29.2020   33.4480   15.4570 O   0  0  0  0  0  0  0  0  0  0  0  0
   32.0000   33.8610   14.8100 C   0  0  1  0  0  0  0  0  0  0  0  0
   30.8510   34.8100   14.4710 C   0  0  1  0  0  0  0  0  0  0  0  0
   30.3360   34.2370   17.2720 O   0  0  0  0  0  0  0  0  0  0  0  0
   30.4060   35.1030   16.7860 H   0  0  0  0  0  0  0  0  0  0  0  0
   29.7450   31.9880   17.1610 C   0  0  0  0  0  0  0  0  0  0  0  0
   28.7830   32.0930   17.9590 O   0  0  0  0  0  0  0  0  0  0  0  0
   30.3760   30.7680   17.0380 O   0  0  0  0  0  0  0  0  0  0  0  0
   29.9390   30.0240   16.4760 H   0  0  0  0  0  0  0  0  0  0  0  0
   33.1470   34.5290   15.1580 O   0  0  0  0  0  0  0  0  0  0  0  0
   32.9910   35.5080   15.1960 H   0  0  0  0  0  0  0  0  0  0  0  0
   31.1740   35.5660   13.2690 N   0  0  0  0  0  0  0  0  0  0  0  0
   31.4250   36.9530   13.3900 C   0  0  0  0  0  0  0  0  0  0  0  0
   31.2120   35.0740   12.3630 H   0  0  0  0  0  0  0  0  0  0  0  0
   31.7580   37.7700   12.2030 C   0  0  0  0  0  0  0  0  0  0  0  0
   31.3680   37.5160   14.5120 O   0  0  0  0  0  0  0  0  0  0  0  0
   28.8480   35.0340   12.2580 O   0  0  0  0  0  0  0  0  0  0  0  0
   29.8290   35.1790   12.1340 H   0  0  0  0  0  0  0  0  0  0  0  0
   26.6530   35.4720   14.7830 O   0  0  0  0  0  0  0  0  0  0  0  0
   26.8160   34.8420   15.5470 H   0  0  0  0  0  0  0  0  0  0  0  0
   24.8180   37.0000   10.9250 O   0  0  0  0  0  0  0  0  0  0  0  0
   24.0320   35.8110   10.7750 C   0  0  0  0  0  0  0  0  0  0  0  0
   24.3200   34.8510   11.8630 C   0  0  0  0  0  0  0  0  0  0  0  0
   23.4960   34.6170   12.9750 C   0  0  0  0  0  0  0  0  0  0  0  0
   25.3600   34.0300   12.0470 N   0  0  0  0  0  0  0  0  0  0  0  0
   24.0430   33.6940   13.7650 N   0  0  0  0  0  0  0  0  0  0  0  0
   25.2030   33.3430   13.1650 N   0  0  0  0  0  0  0  0  0  0  0  0
   23.6300   33.0750   14.9920 C   0  0  0  0  0  0  0  0  0  0  0  0
   24.6240   32.1870   15.6610 C   0  0  1  0  0  0  0  0  0  0  0  0
   25.1860   32.8160   16.8570 C   0  0  0  0  0  0  0  0  0  0  0  0
   24.6330   32.9010   17.9670 O   0  0  0  0  0  0  0  0  0  0  0  0
   26.4720   33.3950   16.7940 O   0  0  0  0  0  0  0  0  0  0  0  0
   27.2310   32.9620   17.3250 H   0  0  0  0  0  0  0  0  0  0  0  0
   24.0520   30.8100   15.9500 C   0  0  0  0  0  0  0  0  0  0  0  0
   25.0920   29.8820   16.4520 C   0  0  0  0  0  0  0  0  0  0  0  0
   24.7780   28.8500   17.3450 C   0  0  0  0  0  0  0  0  0  0  0  0
   26.4150   29.9860   16.0670 C   0  0  0  0  0  0  0  0  0  0  0  0
   25.7440   27.9870   17.8110 C   0  0  0  0  0  0  0  0  0  0  0  0
   27.3890   29.1350   16.5220 C   0  0  0  0  0  0  0  0  0  0  0  0
   27.0700   28.1270   17.3960 C   0  0  0  0  0  0  0  0  0  0  0  0
   23.3860   30.1920   14.7990 C   0  0  0  0  0  0  0  0  0  0  0  0
   22.0300   29.8670   14.9320 C   0  0  0  0  0  0  0  0  0  0  0  0
   24.0150   29.9160   13.6040 C   0  0  0  0  0  0  0  0  0  0  0  0
   21.3700   29.2870   13.8750 C   0  0  0  0  0  0  0  0  0  0  0  0
   23.3560   29.3350   12.5440 C   0  0  0  0  0  0  0  0  0  0  0  0
   22.0090   29.0090   12.6670 C   0  0  0  0  0  0  0  0  0  0  0  0
   29.8670   25.5550   16.9770 C   0  0  0  0  0  0  0  0  0  0  0  0
   28.3450   25.7220   17.0260 C   0  0  0  0  0  0  0  0  0  0  0  0
   27.6010   24.4020   16.8900 C   0  0  0  0  0  0  0  0  0  0  0  0
   26.5360   24.2420   17.9390 C   0  0  0  0  0  0  0  0  0  0  0  0
   25.1610   24.3360   17.2870 C   0  0  0  0  0  0  0  0  0  0  0  0
   24.5110   23.0050   17.2510 N   0  0  0  0  0  0  0  0  0  0  0  0
  1  5  1  0  0  0  0
  1  4  1  0  0  0  0
  2  1  1  0  0  0  0
  3  2  2  0  0  0  0
  6  5  1  6  0  0  0
  6 29  1  0  0  0  0
  7 27  1  6  0  0  0
  7  6  1  0  0  0  0
  8  7  1  1  0  0  0
  8 13  1  0  0  0  0
  8 11  1  0  0  0  0
  9 16  1  1  0  0  0
  9 14  1  0  0  0  0
 10  9  1  0  0  0  0
 11  9  1  0  0  0  0
 12 20  1  1  0  0  0
 12 10  1  0  0  0  0
 13 22  1  6  0  0  0
 13 12  1  0  0  0  0
 15 14  1  0  0  0  0
 16 17  2  0  0  0  0
 18 16  1  0  0  0  0
 19 18  1  0  0  0  0
 20 21  1  0  0  0  0
 22 23  1  0  0  0  0
 23 26  2  0  0  0  0
 24 22  1  0  0  0  0
 25 23  1  0  0  0  0
 28 27  1  0  0  0  0
 29 30  1  0  0  0  0
 31  2  1  0  0  0  0
 32 31  1  0  0  0  0
 32 33  1  0  0  0  0
 33 35  1  0  0  0  0
 33 34  2  0  0  0  0
 34 36  1  0  0  0  0
 35 37  2  0  0  0  0
 36 38  1  0  0  0  0
 37 36  1  0  0  0  0
 39 38  1  1  0  0  0
 39 44  1  0  0  0  0
 39 40  1  0  0  0  0
 40 41  2  0  0  0  0
 42 40  1  0  0  0  0
 42 43  1  0  0  0  0
 44 45  1  0  0  0  0
 45 46  1  0  0  0  0
 46 48  2  0  0  0  0
 47 45  2  0  0  0  0
 47 49  1  0  0  0  0
 49 50  2  0  0  0  0
 50 48  1  0  0  0  0
 51 52  1  0  0  0  0
 51 44  1  0  0  0  0
 53 51  2  0  0  0  0
 54 52  2  0  0  0  0
 55 56  2  0  0  0  0
 55 53  1  0  0  0  0
 56 54  1  0  0  0  0
 57 58  1  0  0  0  0
 59 58  1  0  0  0  0
 59 60  1  0  0  0  0
 61 60  1  0  0  0  0
 62 61  1  0  0  0  0
M  END
>  <REMARK>
 VINA RESULT:    -5.787      2.272      6.606
 INTER + INTRA:         -18.176
 INTER:                  -9.962
 INTRA:                  -8.213
 UNBOUND:                -6.299
 SMILES CC(=O)N[C@@H]1[C@@H](O)C[C@](O)(C(=O)O)O[C@H]1C(O)[C@H](O)CNC(=O)OCc1cn(C[C@@H](C(=O)O)C(c2ccccc2)c2ccccc2)nn1
 SMILES IDX 21 1 22 2 23 3 20 5 18 6 16 7 15 8 9 9 8 10 14 11 6 12 5 13
 SMILES IDX 10 14 11 16 12 17 13 18 7 20 4 22 2 23 1 25 3 26 17 27 19 29
 SMILES IDX 24 31 25 32 26 33 27 34 48 35 28 36 47 37 29 38 30 39 31 40
 SMILES IDX 32 41 33 42 34 44 35 45 36 46 40 47 37 48 39 49 38 50 41 51
 SMILES IDX 42 52 46 53 43 54 45 55 44 56
 H PARENT 21 4 10 15 13 19 7 21 4 24 17 28 19 30 33 43
 Flexibility Score: inf
  4 active torsions:
  status: ('A' for Active; 'I' for Inactive)
    1  A    between atoms: CA   and  CB  
    2  A    between atoms: CB   and  CG  
    3  A    between atoms: CG   and  CD  
    4  A    between atoms: CD   and  CE  

>  <TORSDO>
F 21

>  <BEGIN_>
RES LYS A 131

$$$$
ligand_47_pose_1_2HRL.pdbqt
 OpenBabel07062320523D

  6  5  0  0  0  0  0  0  0  0999 V2000
   33.1930   34.6630    9.2900 C   0  0  0  0  0  0  0  0  0  0  0  0
   32.0600   35.3600   10.0340 C   0  0  0  0  0  0  0  0  0  0  0  0
   30.8270   35.5700    9.1940 C   0  0  0  0  0  0  0  0  0  0  0  0
   30.1660   34.2400    8.8680 C   0  0  0  0  0  0  0  0  0  0  0  0
   28.7070   34.4430    8.5080 C   0  0  0  0  0  0  0  0  0  0  0  0
   27.8160   33.6940    9.4360 N   0  0  0  0  0  0  0  0  0  0  0  0
  1  2  1  0  0  0  0
  3  2  1  0  0  0  0
  4  3  1  0  0  0  0
  5  4  1  0  0  0  0
  5  6  1  0  0  0  0
M  END
>  <EGIN_R>
ES LYS A 135

>  <REMARK>
  4 active torsions:
  status: ('A' for Active; 'I' for Inactive)
    5  A    between atoms: CA   and  CB  
    6  A    between atoms: CB   and  CG  
    7  A    between atoms: CG   and  CD  
    8  A    between atoms: CD   and  CE  

$$$$
