ligand_46_pose_14_2HRL.pdbqt
 OpenBabel07062320523D

 50 51  0  0  1  0  0  0  0  0999 V2000
   25.5640   36.6420   14.9550 N   0  0  0  0  0  0  0  0  0  0  0  0
   26.2230   37.6870   14.2770 C   0  0  0  0  0  0  0  0  0  0  0  0
   27.4510   37.8550   14.3500 O   0  0  0  0  0  0  0  0  0  0  0  0
   24.5210   36.5980   14.8140 H   0  0  0  0  0  0  0  0  0  0  0  0
   26.2420   35.6960   15.7860 C   0  0  0  0  0  0  0  0  0  0  0  0
   26.1890   34.3260   15.1480 C   0  0  2  0  0  0  0  0  0  0  0  0
   27.4500   34.0210   14.3920 C   0  0  2  0  0  0  0  0  0  0  0  0
   28.6800   33.9690   15.2680 C   0  0  2  0  0  0  0  0  0  0  0  0
   30.9060   34.5950   14.9310 C   0  0  2  0  0  0  0  0  0  0  0  0
   31.1920   33.7900   16.2090 C   0  0  0  0  0  0  0  0  0  0  0  0
   29.5890   34.9400   14.9790 O   0  0  0  0  0  0  0  0  0  0  0  0
   30.5720   32.4250   15.9160 C   0  0  1  0  0  0  0  0  0  0  0  0
   29.1750   32.5680   15.3580 C   0  0  1  0  0  0  0  0  0  0  0  0
   31.3000   33.8860   13.8150 O   0  0  0  0  0  0  0  0  0  0  0  0
   30.5080   33.6990   13.2680 H   0  0  0  0  0  0  0  0  0  0  0  0
   31.7030   35.8680   15.0540 C   0  0  0  0  0  0  0  0  0  0  0  0
   31.1630   36.9500   15.3630 O   0  0  0  0  0  0  0  0  0  0  0  0
   33.0640   35.8570   14.8200 O   0  0  0  0  0  0  0  0  0  0  0  0
   33.4870   36.6650   14.3920 H   0  0  0  0  0  0  0  0  0  0  0  0
   31.4310   31.8080   15.0050 O   0  0  0  0  0  0  0  0  0  0  0  0
   31.7920   32.4860   14.3940 H   0  0  0  0  0  0  0  0  0  0  0  0
   28.2280   31.8400   16.2220 N   0  0  0  0  0  0  0  0  0  0  0  0
   28.0780   30.4330   16.1750 C   0  0  0  0  0  0  0  0  0  0  0  0
   27.6300   32.3860   16.9080 H   0  0  0  0  0  0  0  0  0  0  0  0
   27.1400   29.6580   17.0230 C   0  0  0  0  0  0  0  0  0  0  0  0
   28.7890   29.7920   15.3610 O   0  0  0  0  0  0  0  0  0  0  0  0
   27.5790   34.9110   13.3430 O   0  0  0  0  0  0  0  0  0  0  0  0
   28.5140   35.2270   13.3160 H   0  0  0  0  0  0  0  0  0  0  0  0
   25.0640   34.3370   14.3230 O   0  0  0  0  0  0  0  0  0  0  0  0
   24.5290   35.1570   14.4150 H   0  0  0  0  0  0  0  0  0  0  0  0
   25.5040   38.5810   13.4850 O   0  0  0  0  0  0  0  0  0  0  0  0
   25.7460   38.6320   12.0990 C   0  0  0  0  0  0  0  0  0  0  0  0
   25.6790   37.2860   11.4810 C   0  0  0  0  0  0  0  0  0  0  0  0
   26.1520   36.9410   10.2440 C   0  0  0  0  0  0  0  0  0  0  0  0
   25.1450   36.1880   12.0240 N   0  0  0  0  0  0  0  0  0  0  0  0
   25.8910   35.6350   10.0660 N   0  0  0  0  0  0  0  0  0  0  0  0
   25.2750   35.2020   11.1720 N   0  0  0  0  0  0  0  0  0  0  0  0
   26.1890   34.8000    8.9310 C   0  0  0  0  0  0  0  0  0  0  0  0
   27.6570   34.6880    8.7180 C   0  0  0  0  0  0  0  0  0  0  0  0
   28.2620   35.1990    7.5750 C   0  0  0  0  0  0  0  0  0  0  0  0
   28.4810   34.0790    9.6330 C   0  0  0  0  0  0  0  0  0  0  0  0
   29.6170   35.0920    7.3850 C   0  0  0  0  0  0  0  0  0  0  0  0
   29.8480   33.9660    9.4500 C   0  0  0  0  0  0  0  0  0  0  0  0
   30.4310   34.4780    8.3140 C   0  0  0  0  0  0  0  0  0  0  0  0
   29.8670   25.5550   16.9770 C   0  0  0  0  0  0  0  0  0  0  0  0
   28.3450   25.7220   17.0260 C   0  0  0  0  0  0  0  0  0  0  0  0
   27.6020   24.4000   16.9140 C   0  0  0  0  0  0  0  0  0  0  0  0
   26.5260   24.2640   17.9560 C   0  0  0  0  0  0  0  0  0  0  0  0
   25.2420   23.7690   17.3000 C   0  0  0  0  0  0  0  0  0  0  0  0
   25.0090   22.3420   17.6280 N   0  0  0  0  0  0  0  0  0  0  0  0
  1  5  1  0  0  0  0
  2  3  2  0  0  0  0
  2  1  1  0  0  0  0
  4  1  1  0  0  0  0
  6  5  1  6  0  0  0
  7 27  1  6  0  0  0
  7  6  1  0  0  0  0
  8  7  1  6  0  0  0
  8 13  1  0  0  0  0
  9 14  1  6  0  0  0
  9 11  1  0  0  0  0
  9 16  1  0  0  0  0
  9 10  1  0  0  0  0
 11  8  1  0  0  0  0
 12 20  1  6  0  0  0
 12 10  1  0  0  0  0
 13 12  1  0  0  0  0
 13 22  1  1  0  0  0
 15 14  1  0  0  0  0
 16 17  2  0  0  0  0
 18 16  1  0  0  0  0
 19 18  1  0  0  0  0
 21 20  1  0  0  0  0
 22 24  1  0  0  0  0
 23 22  1  0  0  0  0
 23 25  1  0  0  0  0
 26 23  2  0  0  0  0
 28 27  1  0  0  0  0
 29 30  1  0  0  0  0
 29  6  1  0  0  0  0
 31  2  1  0  0  0  0
 32 31  1  0  0  0  0
 33 35  1  0  0  0  0
 33 32  1  0  0  0  0
 34 33  2  0  0  0  0
 36 34  1  0  0  0  0
 36 37  1  0  0  0  0
 37 35  2  0  0  0  0
 38 36  1  0  0  0  0
 39 38  1  0  0  0  0
 39 41  2  0  0  0  0
 40 39  1  0  0  0  0
 42 40  2  0  0  0  0
 42 44  1  0  0  0  0
 43 41  1  0  0  0  0
 44 43  2  0  0  0  0
 45 46  1  0  0  0  0
 47 46  1  0  0  0  0
 47 48  1  0  0  0  0
 49 50  1  0  0  0  0
 49 48  1  0  0  0  0
M  END
>  <REMARK>
 VINA RESULT:    -5.225      4.706      8.294
 INTER + INTRA:         -14.639
 INTER:                 -10.245
 INTRA:                  -4.394
 UNBOUND:                -5.290
 SMILES CC(=O)N[C@@H]1[C@@H](O)C[C@](O)(C(=O)O)O[C@H]1C(O)[C@H](O)CNC(=O)OCc1cn(Cc2ccccc2)nn1
 SMILES IDX 21 1 22 2 23 3 20 5 18 6 16 7 15 8 9 9 8 10 14 11 6 12 5 13
 SMILES IDX 10 14 11 16 12 17 13 18 7 20 4 22 2 23 1 25 3 26 17 27 19 29
 SMILES IDX 24 31 25 32 26 33 27 34 37 35 28 36 36 37 29 38 30 39 31 40
 SMILES IDX 35 41 32 42 34 43 33 44
 H PARENT 21 4 10 15 13 19 7 21 4 24 17 28 19 30
 Flexibility Score: inf
  4 active torsions:
  status: ('A' for Active; 'I' for Inactive)
    1  A    between atoms: CA   and  CB  
    2  A    between atoms: CB   and  CG  
    3  A    between atoms: CG   and  CD  
    4  A    between atoms: CD   and  CE  

>  <TORSDO>
F 16

>  <BEGIN_>
RES LYS A 131

$$$$
ligand_46_pose_14_2HRL.pdbqt
 OpenBabel07062320523D

  6  5  0  0  0  0  0  0  0  0999 V2000
   33.1930   34.6630    9.2900 C   0  0  0  0  0  0  0  0  0  0  0  0
   32.0600   35.3600   10.0340 C   0  0  0  0  0  0  0  0  0  0  0  0
   32.5330   36.2510   11.1530 C   0  0  0  0  0  0  0  0  0  0  0  0
   31.3630   36.9990   11.7740 C   0  0  0  0  0  0  0  0  0  0  0  0
   31.5450   38.4970   11.6180 C   0  0  0  0  0  0  0  0  0  0  0  0
   31.8760   38.8530   10.2100 N   0  0  0  0  0  0  0  0  0  0  0  0
  1  2  1  0  0  0  0
  2  3  1  0  0  0  0
  3  4  1  0  0  0  0
  5  4  1  0  0  0  0
  6  5  1  0  0  0  0
M  END
>  <EGIN_R>
ES LYS A 135

>  <REMARK>
  4 active torsions:
  status: ('A' for Active; 'I' for Inactive)
    5  A    between atoms: CA   and  CB  
    6  A    between atoms: CB   and  CG  
    7  A    between atoms: CG   and  CD  
    8  A    between atoms: CD   and  CE  

$$$$
