ligand_26_pose_8_2HRL.pdbqt
 OpenBabel07062320523D

 54 55  0  0  1  0  0  0  0  0999 V2000
   21.6010   38.4890    8.1970 N   0  0  0  0  0  0  0  0  0  0  0  0
   20.8110   38.2830    9.3640 C   0  0  0  0  0  0  0  0  0  0  0  0
   20.9550   39.0570   10.3280 O   0  0  0  0  0  0  0  0  0  0  0  0
   21.4170   37.7860    7.4170 H   0  0  0  0  0  0  0  0  0  0  0  0
   22.5760   39.5460    8.0460 C   0  0  0  0  0  0  0  0  0  0  0  0
   23.7360   39.1240    7.1710 C   0  0  2  0  0  0  0  0  0  0  0  0
   24.7420   38.2870    7.9320 C   0  0  1  0  0  0  0  0  0  0  0  0
   26.1030   38.9120    7.9900 C   0  0  2  0  0  0  0  0  0  0  0  0
   27.3970   37.7630    6.4240 C   0  0  2  0  0  0  0  0  0  0  0  0
   28.2230   37.1010    7.4980 C   0  0  0  0  0  0  0  0  0  0  0  0
   26.7660   38.9130    6.7920 O   0  0  0  0  0  0  0  0  0  0  0  0
   27.5020   36.9870    8.8070 C   0  0  1  0  0  0  0  0  0  0  0  0
   26.9390   38.3540    9.1270 C   0  0  1  0  0  0  0  0  0  0  0  0
   26.5400   36.8040    5.8390 O   0  0  0  0  0  0  0  0  0  0  0  0
   27.0270   36.1540    5.2970 H   0  0  0  0  0  0  0  0  0  0  0  0
   28.3750   38.1350    5.3370 C   0  0  0  0  0  0  0  0  0  0  0  0
   29.5820   38.3220    5.5360 O   0  0  0  0  0  0  0  0  0  0  0  0
   27.8090   38.2570    4.0560 O   0  0  0  0  0  0  0  0  0  0  0  0
   27.1920   39.0220    3.8340 H   0  0  0  0  0  0  0  0  0  0  0  0
   26.5450   36.0000    8.8160 O   0  0  0  0  0  0  0  0  0  0  0  0
   25.6610   36.3910    9.0150 H   0  0  0  0  0  0  0  0  0  0  0  0
   28.1080   39.2430    9.2320 N   0  0  0  0  0  0  0  0  0  0  0  0
   28.5790   39.6160   10.5200 C   0  0  0  0  0  0  0  0  0  0  0  0
   28.6010   39.6080    8.3940 H   0  0  0  0  0  0  0  0  0  0  0  0
   29.7600   40.5130   10.6080 C   0  0  0  0  0  0  0  0  0  0  0  0
   27.9850   39.1780   11.5300 O   0  0  0  0  0  0  0  0  0  0  0  0
   24.2160   38.0930    9.2110 O   0  0  0  0  0  0  0  0  0  0  0  0
   23.2750   38.4410    9.2300 H   0  0  0  0  0  0  0  0  0  0  0  0
   24.3580   40.2800    6.6560 O   0  0  0  0  0  0  0  0  0  0  0  0
   25.3440   40.2280    6.7230 H   0  0  0  0  0  0  0  0  0  0  0  0
   19.8920   37.2630    9.4710 O   0  0  0  0  0  0  0  0  0  0  0  0
   20.1950   35.9000    9.6620 C   0  0  0  0  0  0  0  0  0  0  0  0
   21.6230   35.6070    9.8170 C   0  0  0  0  0  0  0  0  0  0  0  0
   22.2800   35.3560   11.0290 C   0  0  0  0  0  0  0  0  0  0  0  0
   22.5900   35.5130    8.8690 N   0  0  0  0  0  0  0  0  0  0  0  0
   23.5540   35.1310   10.7710 N   0  0  0  0  0  0  0  0  0  0  0  0
   23.7220   35.2290    9.4840 N   0  0  0  0  0  0  0  0  0  0  0  0
   24.5970   34.8210   11.7990 C   0  0  1  0  0  0  0  0  0  0  0  0
   25.2170   36.1590   12.1090 C   0  0  0  0  0  0  0  0  0  0  0  0
   23.9050   34.2300   12.9350 C   0  0  0  0  0  0  0  0  0  0  0  0
   24.1180   32.8620   13.2900 C   0  0  2  0  0  0  0  0  0  0  0  0
   25.1860   32.7020   14.0780 O   0  0  0  0  0  0  0  0  0  0  0  0
   23.4480   31.6350   12.9900 C   0  0  0  0  0  0  0  0  0  0  0  0
   24.1960   30.4330   13.0190 C   0  0  0  0  0  0  0  0  0  0  0  0
   22.1150   31.5060   12.6870 C   0  0  0  0  0  0  0  0  0  0  0  0
   23.6130   29.2190   12.7580 C   0  0  0  0  0  0  0  0  0  0  0  0
   21.5580   30.2620   12.4280 C   0  0  0  0  0  0  0  0  0  0  0  0
   22.2780   29.1120   12.4560 C   0  0  0  0  0  0  0  0  0  0  0  0
   29.8670   25.5550   16.9770 C   0  0  0  0  0  0  0  0  0  0  0  0
   28.3450   25.7220   17.0260 C   0  0  0  0  0  0  0  0  0  0  0  0
   27.6010   24.4010   16.9070 C   0  0  0  0  0  0  0  0  0  0  0  0
   26.1570   24.5250   17.3050 C   0  0  0  0  0  0  0  0  0  0  0  0
   25.7220   23.2630   18.0440 C   0  0  0  0  0  0  0  0  0  0  0  0
   25.5200   23.5480   19.4840 N   0  0  0  0  0  0  0  0  0  0  0  0
  1  2  1  0  0  0  0
  2 31  1  0  0  0  0
  2  3  2  0  0  0  0
  4  1  1  0  0  0  0
  5  1  1  0  0  0  0
  6  7  1  0  0  0  0
  6  5  1  1  0  0  0
  7 27  1  1  0  0  0
  8  7  1  6  0  0  0
  8 13  1  0  0  0  0
  9 16  1  6  0  0  0
  9 11  1  0  0  0  0
  9 10  1  0  0  0  0
 10 12  1  0  0  0  0
 11  8  1  0  0  0  0
 12 20  1  6  0  0  0
 12 13  1  0  0  0  0
 13 22  1  6  0  0  0
 14  9  1  0  0  0  0
 15 14  1  0  0  0  0
 16 17  2  0  0  0  0
 18 16  1  0  0  0  0
 19 18  1  0  0  0  0
 20 21  1  0  0  0  0
 22 23  1  0  0  0  0
 23 25  1  0  0  0  0
 23 26  2  0  0  0  0
 24 22  1  0  0  0  0
 27 28  1  0  0  0  0
 29 30  1  0  0  0  0
 29  6  1  0  0  0  0
 31 32  1  0  0  0  0
 32 33  1  0  0  0  0
 33 34  2  0  0  0  0
 35 37  2  0  0  0  0
 35 33  1  0  0  0  0
 36 34  1  0  0  0  0
 36 38  1  0  0  0  0
 37 36  1  0  0  0  0
 38 39  1  1  0  0  0
 38 40  1  0  0  0  0
 40 41  1  0  0  0  0
 41 42  1  6  0  0  0
 43 44  1  0  0  0  0
 43 41  1  0  0  0  0
 45 43  2  0  0  0  0
 46 44  2  0  0  0  0
 47 48  2  0  0  0  0
 47 45  1  0  0  0  0
 48 46  1  0  0  0  0
 49 50  1  0  0  0  0
 51 50  1  0  0  0  0
 51 52  1  0  0  0  0
 52 53  1  0  0  0  0
 53 54  1  0  0  0  0
M  END
>  <REMARK>
 VINA RESULT:    -4.755      7.375     13.176
 INTER + INTRA:         -15.997
 INTER:                  -9.917
 INTRA:                  -6.080
 UNBOUND:                -6.934
 SMILES CC(=O)N[C@@H]1[C@@H](O)C[C@](O)(C(=O)O)O[C@H]1C(O)[C@H](O)CNC(=O)OCc1cn(C(C)CC(=O)c2ccccc2)nn1
 SMILES IDX 21 1 22 2 23 3 20 5 18 6 16 7 15 8 9 9 8 10 14 11 6 12 5 13
 SMILES IDX 10 14 11 16 12 17 13 18 7 20 4 22 2 23 1 25 3 26 17 27 19 29
 SMILES IDX 24 31 25 32 26 33 27 34 41 35 28 36 40 37 29 38 30 39 31 40
 SMILES IDX 32 41 33 42 34 43 35 44 39 45 36 46 38 47 37 48
 H PARENT 21 4 10 15 13 19 7 21 4 24 17 28 19 30
 Flexibility Score: inf
  4 active torsions:
  status: ('A' for Active; 'I' for Inactive)
    1  A    between atoms: CA   and  CB  
    2  A    between atoms: CB   and  CG  
    3  A    between atoms: CG   and  CD  
    4  A    between atoms: CD   and  CE  

>  <TORSDO>
F 18

>  <BEGIN_>
RES LYS A 131

$$$$
ligand_26_pose_8_2HRL.pdbqt
 OpenBabel07062320523D

  6  5  0  0  0  0  0  0  0  0999 V2000
   33.1930   34.6630    9.2900 C   0  0  0  0  0  0  0  0  0  0  0  0
   32.0600   35.3600   10.0340 C   0  0  0  0  0  0  0  0  0  0  0  0
   30.7010   34.7740    9.7480 C   0  0  0  0  0  0  0  0  0  0  0  0
   29.7580   35.0100   10.9180 C   0  0  0  0  0  0  0  0  0  0  0  0
   30.5420   35.2280   12.1980 C   0  0  0  0  0  0  0  0  0  0  0  0
   30.1370   34.2530   13.2480 N   0  0  0  0  0  0  0  0  0  0  0  0
  1  2  1  0  0  0  0
  3  2  1  0  0  0  0
  3  4  1  0  0  0  0
  4  5  1  0  0  0  0
  5  6  1  0  0  0  0
M  END
>  <EGIN_R>
ES LYS A 135

>  <REMARK>
  4 active torsions:
  status: ('A' for Active; 'I' for Inactive)
    5  A    between atoms: CA   and  CB  
    6  A    between atoms: CB   and  CG  
    7  A    between atoms: CG   and  CD  
    8  A    between atoms: CD   and  CE  

$$$$
