ligand_30_pose_12_2HRL.pdbqt
 OpenBabel07062320523D

 57 57  0  0  1  0  0  0  0  0999 V2000
   28.0240   38.5330   11.6000 C   0  0  0  0  0  0  0  0  0  0  0  0
   27.3040   39.4120   10.7200 N   0  0  0  0  0  0  0  0  0  0  0  0
   26.6650   40.7350    9.0900 C   0  0  0  0  0  0  0  0  0  0  0  0
   27.7110   39.9810    9.5490 C   0  0  0  0  0  0  0  0  0  0  0  0
   25.6560   40.6090    9.9790 N   0  0  0  0  0  0  0  0  0  0  0  0
   26.0690   39.8180   10.9320 N   0  0  0  0  0  0  0  0  0  0  0  0
   26.6710   41.5300    7.8440 C   0  0  0  0  0  0  0  0  0  0  0  0
   26.2150   40.7560    6.7560 O   0  0  0  0  0  0  0  0  0  0  0  0
   24.9750   40.1340    6.7990 C   0  0  0  0  0  0  0  0  0  0  0  0
   24.8340   38.7790    7.2020 N   0  0  0  0  0  0  0  0  0  0  0  0
   25.6710   38.2200    7.4740 H   0  0  0  0  0  0  0  0  0  0  0  0
   23.9460   40.8170    6.4650 O   0  0  0  0  0  0  0  0  0  0  0  0
   23.5380   38.1770    7.2340 C   0  0  0  0  0  0  0  0  0  0  0  0
   23.0850   37.8400    8.6380 C   0  0  2  0  0  0  0  0  0  0  0  0
   21.9320   38.7140    9.0300 C   0  0  2  0  0  0  0  0  0  0  0  0
   20.7170   37.8620    9.3260 C   0  0  2  0  0  0  0  0  0  0  0  0
   20.0160   35.6530    9.3050 C   0  0  2  0  0  0  0  0  0  0  0  0
   18.6430   36.2770    9.2030 C   0  0  0  0  0  0  0  0  0  0  0  0
   21.0300   36.5600    9.0420 O   0  0  0  0  0  0  0  0  0  0  0  0
   18.6580   37.2670    8.0700 C   0  0  1  0  0  0  0  0  0  0  0  0
   19.5690   38.4180    8.5210 C   0  0  1  0  0  0  0  0  0  0  0  0
   20.0820   34.6720    8.3200 O   0  0  0  0  0  0  0  0  0  0  0  0
   21.0080   34.3690    8.1770 H   0  0  0  0  0  0  0  0  0  0  0  0
   20.1250   35.0200   10.6190 C   0  0  0  0  0  0  0  0  0  0  0  0
   19.1930   35.1590   11.4480 O   0  0  0  0  0  0  0  0  0  0  0  0
   21.2120   34.2580   11.0290 O   0  0  0  0  0  0  0  0  0  0  0  0
   22.1320   34.4460   10.6000 H   0  0  0  0  0  0  0  0  0  0  0  0
   19.1030   36.6830    6.9040 O   0  0  0  0  0  0  0  0  0  0  0  0
   19.9380   36.1900    7.1060 H   0  0  0  0  0  0  0  0  0  0  0  0
   18.7330   39.2810    9.3280 N   0  0  0  0  0  0  0  0  0  0  0  0
   18.5380   40.6180    8.9060 C   0  0  0  0  0  0  0  0  0  0  0  0
   18.2690   38.9460   10.2090 H   0  0  0  0  0  0  0  0  0  0  0  0
   17.6810   41.5420    9.7110 C   0  0  0  0  0  0  0  0  0  0  0  0
   19.0800   41.0300    7.8630 O   0  0  0  0  0  0  0  0  0  0  0  0
   21.7010   39.6150    7.9850 O   0  0  0  0  0  0  0  0  0  0  0  0
   20.8480   39.4770    7.5370 H   0  0  0  0  0  0  0  0  0  0  0  0
   24.1100   38.0350    9.5650 O   0  0  0  0  0  0  0  0  0  0  0  0
   24.9880   37.9200    9.1560 H   0  0  0  0  0  0  0  0  0  0  0  0
   28.3080   37.2420   10.8800 C   0  0  0  0  0  0  0  0  0  0  0  0
   27.0600   36.5040   10.4860 C   0  0  0  0  0  0  0  0  0  0  0  0
   27.0330   35.0930   11.0170 C   0  0  0  0  0  0  0  0  0  0  0  0
   28.4270   34.4820   10.9170 C   0  0  0  0  0  0  0  0  0  0  0  0
   28.6290   33.9600    9.5190 C   0  0  0  0  0  0  0  0  0  0  0  0
   30.0750   34.0000    9.1160 C   0  0  0  0  0  0  0  0  0  0  0  0
   30.2930   35.0110    8.0390 C   0  0  0  0  0  0  0  0  0  0  0  0
   29.0430   35.1760    7.1800 C   0  0  0  0  0  0  0  0  0  0  0  0
   28.8880   36.5830    6.6690 C   0  0  0  0  0  0  0  0  0  0  0  0
   27.4270   36.7850    6.4150 C   0  0  0  0  0  0  0  0  0  0  0  0
   26.5310   36.3270    7.1550 O   0  0  0  0  0  0  0  0  0  0  0  0
   27.0280   37.5220    5.2990 O   0  0  0  0  0  0  0  0  0  0  0  0
   26.5790   38.4110    5.4380 H   0  0  0  0  0  0  0  0  0  0  0  0
   29.8670   25.5550   16.9770 C   0  0  0  0  0  0  0  0  0  0  0  0
   28.3450   25.7220   17.0260 C   0  0  0  0  0  0  0  0  0  0  0  0
   27.6020   24.3980   16.9300 C   0  0  0  0  0  0  0  0  0  0  0  0
   26.2000   24.4950   17.4650 C   0  0  0  0  0  0  0  0  0  0  0  0
   25.9210   23.3060   18.3780 C   0  0  0  0  0  0  0  0  0  0  0  0
   25.3630   23.7660   19.6720 N   0  0  0  0  0  0  0  0  0  0  0  0
  2  6  1  0  0  0  0
  2  1  1  0  0  0  0
  3  4  2  0  0  0  0
  3  5  1  0  0  0  0
  4  2  1  0  0  0  0
  5  6  2  0  0  0  0
  7  3  1  0  0  0  0
  8  9  1  0  0  0  0
  8  7  1  0  0  0  0
  9 10  1  0  0  0  0
 10 13  1  0  0  0  0
 10 11  1  0  0  0  0
 12  9  2  0  0  0  0
 14 13  1  6  0  0  0
 14 15  1  0  0  0  0
 14 37  1  0  0  0  0
 15 35  1  6  0  0  0
 16 15  1  6  0  0  0
 17 22  1  6  0  0  0
 17 24  1  0  0  0  0
 18 17  1  0  0  0  0
 19 17  1  0  0  0  0
 19 16  1  0  0  0  0
 20 28  1  6  0  0  0
 20 21  1  0  0  0  0
 20 18  1  0  0  0  0
 21 16  1  0  0  0  0
 21 30  1  1  0  0  0
 23 22  1  0  0  0  0
 24 26  1  0  0  0  0
 24 25  2  0  0  0  0
 27 26  1  0  0  0  0
 28 29  1  0  0  0  0
 30 32  1  0  0  0  0
 31 30  1  0  0  0  0
 31 33  1  0  0  0  0
 34 31  2  0  0  0  0
 36 35  1  0  0  0  0
 38 37  1  0  0  0  0
 39  1  1  0  0  0  0
 40 39  1  0  0  0  0
 40 41  1  0  0  0  0
 42 41  1  0  0  0  0
 43 42  1  0  0  0  0
 44 43  1  0  0  0  0
 45 44  1  0  0  0  0
 46 45  1  0  0  0  0
 47 46  1  0  0  0  0
 48 47  1  0  0  0  0
 48 49  2  0  0  0  0
 50 51  1  0  0  0  0
 50 48  1  0  0  0  0
 52 53  1  0  0  0  0
 54 53  1  0  0  0  0
 54 55  1  0  0  0  0
 55 56  1  0  0  0  0
 56 57  1  0  0  0  0
M  END
>  <REMARK>
 VINA RESULT:    -3.711      6.900     11.864
 INTER + INTRA:         -16.999
 INTER:                 -10.494
 INTRA:                  -6.505
 UNBOUND:                -8.298
 SMILES CC(=O)N[C@@H]1[C@@H](O)C[C@](O)(C(=O)O)O[C@H]1C(O)[C@H](O)CNC(=O)OCc1cn(CCCCCCCCCCC(=O)O)nn1
 SMILES IDX 29 1 28 2 26 3 27 4 43 5 42 6 25 7 24 8 22 9 21 10 23 12
 SMILES IDX 20 13 18 14 16 15 15 16 9 17 8 18 14 19 6 20 5 21 10 22
 SMILES IDX 11 24 12 25 13 26 7 28 4 30 2 31 1 33 3 34 17 35 19 37 30 39
 SMILES IDX 31 40 32 41 33 42 34 43 35 44 36 45 37 46 38 47 39 48 40 49
 SMILES IDX 41 50
 H PARENT 21 11 10 23 13 27 7 29 4 32 17 36 19 38 41 51
 Flexibility Score: inf
  4 active torsions:
  status: ('A' for Active; 'I' for Inactive)
    1  A    between atoms: CA   and  CB  
    2  A    between atoms: CB   and  CG  
    3  A    between atoms: CG   and  CD  
    4  A    between atoms: CD   and  CE  

>  <TORSDO>
F 26

>  <BEGIN_>
RES LYS A 131

$$$$
ligand_30_pose_12_2HRL.pdbqt
 OpenBabel07062320523D

  6  5  0  0  0  0  0  0  0  0999 V2000
   33.1930   34.6630    9.2900 C   0  0  0  0  0  0  0  0  0  0  0  0
   32.0600   35.3600   10.0340 C   0  0  0  0  0  0  0  0  0  0  0  0
   32.4130   35.7420   11.4480 C   0  0  0  0  0  0  0  0  0  0  0  0
   32.0370   37.1900   11.7230 C   0  0  0  0  0  0  0  0  0  0  0  0
   31.4940   37.3410   13.1310 C   0  0  0  0  0  0  0  0  0  0  0  0
   30.6290   36.1870   13.4990 N   0  0  0  0  0  0  0  0  0  0  0  0
  1  2  1  0  0  0  0
  2  3  1  0  0  0  0
  3  4  1  0  0  0  0
  4  5  1  0  0  0  0
  5  6  1  0  0  0  0
M  END
>  <EGIN_R>
ES LYS A 135

>  <REMARK>
  4 active torsions:
  status: ('A' for Active; 'I' for Inactive)
    5  A    between atoms: CA   and  CB  
    6  A    between atoms: CB   and  CG  
    7  A    between atoms: CG   and  CD  
    8  A    between atoms: CD   and  CE  

$$$$
