ligand_14_pose_17_2HRL.pdbqt
 OpenBabel07062320523D

 50 51  0  0  1  0  0  0  0  0999 V2000
   27.2230   37.0890    5.4120 N   0  0  0  0  0  0  0  0  0  0  0  0
   28.1170   38.0790    4.9630 C   0  0  0  0  0  0  0  0  0  0  0  0
   29.3010   38.0690    5.3240 O   0  0  0  0  0  0  0  0  0  0  0  0
   26.2190   37.2020    5.0430 H   0  0  0  0  0  0  0  0  0  0  0  0
   27.5210   35.9930    6.2790 C   0  0  0  0  0  0  0  0  0  0  0  0
   27.3350   36.3790    7.7180 C   0  0  2  0  0  0  0  0  0  0  0  0
   25.8610   36.3700    8.1100 C   0  0  1  0  0  0  0  0  0  0  0  0
   25.7820   36.9980    9.5130 C   0  0  2  0  0  0  0  0  0  0  0  0
   25.7480   35.4440   11.2700 C   0  0  2  0  0  0  0  0  0  0  0  0
   24.2860   35.2510   10.9180 C   0  0  0  0  0  0  0  0  0  0  0  0
   26.4440   36.2360   10.4120 O   0  0  0  0  0  0  0  0  0  0  0  0
   23.6150   36.5690   10.7420 C   0  0  1  0  0  0  0  0  0  0  0  0
   24.4100   37.4600    9.8430 C   0  0  1  0  0  0  0  0  0  0  0  0
   26.3130   34.1500   11.1530 O   0  0  0  0  0  0  0  0  0  0  0  0
   26.9230   34.1510   10.3550 H   0  0  0  0  0  0  0  0  0  0  0  0
   25.9120   35.8500   12.6860 C   0  0  0  0  0  0  0  0  0  0  0  0
   25.6640   35.0300   13.5960 O   0  0  0  0  0  0  0  0  0  0  0  0
   26.3370   37.1230   13.0170 O   0  0  0  0  0  0  0  0  0  0  0  0
   27.3220   37.2810   13.1780 H   0  0  0  0  0  0  0  0  0  0  0  0
   22.3440   36.3410   10.2280 O   0  0  0  0  0  0  0  0  0  0  0  0
   22.3080   36.6060    9.2690 H   0  0  0  0  0  0  0  0  0  0  0  0
   24.4110   38.8440   10.3130 N   0  0  0  0  0  0  0  0  0  0  0  0
   23.3720   39.7390   10.0350 C   0  0  0  0  0  0  0  0  0  0  0  0
   25.2330   39.1430   10.8720 H   0  0  0  0  0  0  0  0  0  0  0  0
   23.4570   41.1290   10.5530 C   0  0  0  0  0  0  0  0  0  0  0  0
   22.3670   39.3670    9.3470 O   0  0  0  0  0  0  0  0  0  0  0  0
   25.1790   37.1640    7.1940 O   0  0  0  0  0  0  0  0  0  0  0  0
   25.6890   37.9220    6.8590 H   0  0  0  0  0  0  0  0  0  0  0  0
   27.9450   37.5580    8.0840 O   0  0  0  0  0  0  0  0  0  0  0  0
   28.7850   37.4540    8.5900 H   0  0  0  0  0  0  0  0  0  0  0  0
   27.7250   39.1070    4.1020 O   0  0  0  0  0  0  0  0  0  0  0  0
   27.4810   40.4080    4.5990 C   0  0  0  0  0  0  0  0  0  0  0  0
   27.1300   40.4050    6.0420 C   0  0  0  0  0  0  0  0  0  0  0  0
   27.8580   40.9770    7.0870 C   0  0  0  0  0  0  0  0  0  0  0  0
   26.0590   39.8610    6.6460 N   0  0  0  0  0  0  0  0  0  0  0  0
   27.2290   40.7720    8.2570 N   0  0  0  0  0  0  0  0  0  0  0  0
   26.1250   40.0800    7.9370 N   0  0  0  0  0  0  0  0  0  0  0  0
   27.6200   41.1820    9.5900 C   0  0  0  0  0  0  0  0  0  0  0  0
   27.8270   40.0310   10.5170 C   0  0  0  0  0  0  0  0  0  0  0  0
   29.1110   40.0150   11.1740 N   0  0  0  0  0  0  0  0  0  0  0  0
   29.4830   38.6280   11.3950 C   0  0  0  0  0  0  0  0  0  0  0  0
   30.1580   40.5770   10.3430 C   0  0  0  0  0  0  0  0  0  0  0  0
   30.9270   38.4790   11.0400 C   0  0  0  0  0  0  0  0  0  0  0  0
   31.3920   39.9150   10.9220 C   0  0  0  0  0  0  0  0  0  0  0  0
   29.8670   25.5550   16.9770 C   0  0  0  0  0  0  0  0  0  0  0  0
   28.3450   25.7220   17.0260 C   0  0  0  0  0  0  0  0  0  0  0  0
   27.6010   24.4040   16.8790 C   0  0  0  0  0  0  0  0  0  0  0  0
   26.1520   24.5250   17.2620 C   0  0  0  0  0  0  0  0  0  0  0  0
   25.6360   23.1710   17.7380 C   0  0  0  0  0  0  0  0  0  0  0  0
   25.5200   23.1500   19.2150 N   0  0  0  0  0  0  0  0  0  0  0  0
  1  5  1  0  0  0  0
  2  3  2  0  0  0  0
  2  1  1  0  0  0  0
  4  1  1  0  0  0  0
  6  5  1  6  0  0  0
  6 29  1  0  0  0  0
  6  7  1  0  0  0  0
  7 27  1  6  0  0  0
  8  7  1  6  0  0  0
  8 13  1  0  0  0  0
  8 11  1  0  0  0  0
  9 14  1  6  0  0  0
  9 16  1  0  0  0  0
 10  9  1  0  0  0  0
 11  9  1  0  0  0  0
 12 20  1  6  0  0  0
 12 10  1  0  0  0  0
 13 22  1  1  0  0  0
 13 12  1  0  0  0  0
 15 14  1  0  0  0  0
 16 18  1  0  0  0  0
 16 17  2  0  0  0  0
 18 19  1  0  0  0  0
 21 20  1  0  0  0  0
 22 24  1  0  0  0  0
 23 22  1  0  0  0  0
 23 25  1  0  0  0  0
 26 23  2  0  0  0  0
 28 27  1  0  0  0  0
 29 30  1  0  0  0  0
 31 32  1  0  0  0  0
 31  2  1  0  0  0  0
 32 33  1  0  0  0  0
 33 35  1  0  0  0  0
 33 34  2  0  0  0  0
 34 36  1  0  0  0  0
 35 37  2  0  0  0  0
 36 38  1  0  0  0  0
 37 36  1  0  0  0  0
 38 39  1  0  0  0  0
 39 40  1  0  0  0  0
 40 41  1  0  0  0  0
 42 44  1  0  0  0  0
 42 40  1  0  0  0  0
 43 41  1  0  0  0  0
 44 43  1  0  0  0  0
 45 46  1  0  0  0  0
 47 46  1  0  0  0  0
 47 48  1  0  0  0  0
 48 49  1  0  0  0  0
 49 50  1  0  0  0  0
M  END
>  <REMARK>
 VINA RESULT:    -4.204      3.241      7.086
 INTER + INTRA:         -13.761
 INTER:                  -7.159
 INTRA:                  -6.602
 UNBOUND:                -5.994
 SMILES CC(=O)N[C@@H]1[C@@H](O)C[C@](O)(C(=O)O)O[C@H]1C(O)[C@H](O)CNC(=O)OCc1cn(CCN2CCCC2)nn1
 SMILES IDX 21 1 22 2 23 3 20 5 18 6 16 7 15 8 9 9 8 10 14 11 6 12 5 13
 SMILES IDX 10 14 11 16 12 17 13 18 7 20 4 22 2 23 1 25 3 26 17 27 19 29
 SMILES IDX 24 31 25 32 26 33 27 34 37 35 28 36 36 37 29 38 30 39 31 40
 SMILES IDX 32 41 35 42 33 43 34 44
 H PARENT 21 4 10 15 13 19 7 21 4 24 17 28 19 30
 Flexibility Score: inf
  4 active torsions:
  status: ('A' for Active; 'I' for Inactive)
    1  A    between atoms: CA   and  CB  
    2  A    between atoms: CB   and  CG  
    3  A    between atoms: CG   and  CD  
    4  A    between atoms: CD   and  CE  

>  <TORSDO>
F 17

>  <BEGIN_>
RES LYS A 131

$$$$
ligand_14_pose_17_2HRL.pdbqt
 OpenBabel07062320523D

  6  5  0  0  0  0  0  0  0  0999 V2000
   33.1930   34.6630    9.2900 C   0  0  0  0  0  0  0  0  0  0  0  0
   32.0600   35.3600   10.0340 C   0  0  0  0  0  0  0  0  0  0  0  0
   30.7000   35.1000    9.4400 C   0  0  0  0  0  0  0  0  0  0  0  0
   29.6680   34.8810   10.5360 C   0  0  0  0  0  0  0  0  0  0  0  0
   30.3370   34.8430   11.8970 C   0  0  0  0  0  0  0  0  0  0  0  0
   29.3760   35.2000   12.9770 N   0  0  0  0  0  0  0  0  0  0  0  0
  1  2  1  0  0  0  0
  3  2  1  0  0  0  0
  3  4  1  0  0  0  0
  4  5  1  0  0  0  0
  5  6  1  0  0  0  0
M  END
>  <EGIN_R>
ES LYS A 135

>  <REMARK>
  4 active torsions:
  status: ('A' for Active; 'I' for Inactive)
    5  A    between atoms: CA   and  CB  
    6  A    between atoms: CB   and  CG  
    7  A    between atoms: CG   and  CD  
    8  A    between atoms: CD   and  CE  

$$$$
