ligand_10_pose_15_2HRL.pdbqt
 OpenBabel07062320523D

 53 53  0  0  1  0  0  0  0  0999 V2000
   30.2760   32.2150   17.6380 N   0  0  0  0  0  0  0  0  0  0  0  0
   29.4230   32.5940   18.7170 C   0  0  0  0  0  0  0  0  0  0  0  0
   29.5320   33.7310   19.1880 O   0  0  0  0  0  0  0  0  0  0  0  0
   30.1270   31.2320   17.2880 H   0  0  0  0  0  0  0  0  0  0  0  0
   31.2650   33.0620   17.0470 C   0  0  0  0  0  0  0  0  0  0  0  0
   31.4580   32.7290   15.5820 C   0  0  2  0  0  0  0  0  0  0  0  0
   30.7690   33.7480   14.6930 C   0  0  2  0  0  0  0  0  0  0  0  0
   31.0570   35.1620   15.0470 C   0  0  2  0  0  0  0  0  0  0  0  0
   30.6280   35.9420   12.9010 C   0  0  2  0  0  0  0  0  0  0  0  0
   32.0090   35.6330   12.5010 C   0  0  0  0  0  0  0  0  0  0  0  0
   30.3530   36.0600   14.2380 O   0  0  0  0  0  0  0  0  0  0  0  0
   33.0350   35.4690   13.5510 C   0  0  1  0  0  0  0  0  0  0  0  0
   32.5200   35.4960   14.9620 C   0  0  1  0  0  0  0  0  0  0  0  0
   29.7250   34.9620   12.4140 O   0  0  0  0  0  0  0  0  0  0  0  0
   28.8240   35.3080   12.6530 H   0  0  0  0  0  0  0  0  0  0  0  0
   30.1610   37.2060   12.2670 C   0  0  0  0  0  0  0  0  0  0  0  0
   30.8440   38.2530   12.1930 O   0  0  0  0  0  0  0  0  0  0  0  0
   28.8850   37.2180   11.7250 O   0  0  0  0  0  0  0  0  0  0  0  0
   28.7130   37.4360   10.7350 H   0  0  0  0  0  0  0  0  0  0  0  0
   33.7650   34.3020   13.3450 O   0  0  0  0  0  0  0  0  0  0  0  0
   34.6470   34.2970   13.7530 H   0  0  0  0  0  0  0  0  0  0  0  0
   32.7310   36.8400   15.5550 N   0  0  0  0  0  0  0  0  0  0  0  0
   33.7020   37.0450   16.5610 C   0  0  0  0  0  0  0  0  0  0  0  0
   32.1710   37.6630   15.2480 H   0  0  0  0  0  0  0  0  0  0  0  0
   33.9470   38.3780   17.1860 C   0  0  0  0  0  0  0  0  0  0  0  0
   34.3800   36.0670   16.9400 O   0  0  0  0  0  0  0  0  0  0  0  0
   29.3880   33.4750   14.9130 O   0  0  0  0  0  0  0  0  0  0  0  0
   28.9720   34.2050   15.4290 H   0  0  0  0  0  0  0  0  0  0  0  0
   31.0260   31.4250   15.3730 O   0  0  0  0  0  0  0  0  0  0  0  0
   30.0590   31.3590   15.1760 H   0  0  0  0  0  0  0  0  0  0  0  0
   28.4790   31.7340   19.2530 O   0  0  0  0  0  0  0  0  0  0  0  0
   27.1130   31.9310   18.9880 C   0  0  0  0  0  0  0  0  0  0  0  0
   26.8400   32.1940   17.5540 C   0  0  0  0  0  0  0  0  0  0  0  0
   26.0480   33.2330   17.1270 C   0  0  0  0  0  0  0  0  0  0  0  0
   27.2560   31.5550   16.4640 N   0  0  0  0  0  0  0  0  0  0  0  0
   26.0070   33.1910   15.7700 N   0  0  0  0  0  0  0  0  0  0  0  0
   26.7400   32.1750   15.4160 N   0  0  0  0  0  0  0  0  0  0  0  0
   25.2510   34.1550   14.9760 C   0  0  1  0  0  0  0  0  0  0  0  0
   25.5830   33.9760   13.5200 C   0  0  0  0  0  0  0  0  0  0  0  0
   26.6180   34.9140   13.0590 C   0  0  0  0  0  0  0  0  0  0  0  0
   26.8070   35.0500   11.8240 O   0  0  0  0  0  0  0  0  0  0  0  0
   27.3580   35.6220   13.9930 O   0  0  0  0  0  0  0  0  0  0  0  0
   28.3690   35.7520   13.8340 H   0  0  0  0  0  0  0  0  0  0  0  0
   23.8020   33.8560   15.1350 C   0  0  0  0  0  0  0  0  0  0  0  0
   23.2720   32.7630   14.8120 O   0  0  0  0  0  0  0  0  0  0  0  0
   22.9870   34.8400   15.6680 O   0  0  0  0  0  0  0  0  0  0  0  0
   21.9860   34.8640   15.5150 H   0  0  0  0  0  0  0  0  0  0  0  0
   29.8670   25.5550   16.9770 C   0  0  0  0  0  0  0  0  0  0  0  0
   28.3450   25.7220   17.0260 C   0  0  0  0  0  0  0  0  0  0  0  0
   27.5990   24.4410   16.6870 C   0  0  0  0  0  0  0  0  0  0  0  0
   27.0180   23.7840   17.9090 C   0  0  0  0  0  0  0  0  0  0  0  0
   25.6030   23.3040   17.6050 C   0  0  0  0  0  0  0  0  0  0  0  0
   24.8250   24.3730   16.9350 N   0  0  0  0  0  0  0  0  0  0  0  0
  1  2  1  0  0  0  0
  2  3  2  0  0  0  0
  2 31  1  0  0  0  0
  4  1  1  0  0  0  0
  5  1  1  0  0  0  0
  6  5  1  1  0  0  0
  7 27  1  1  0  0  0
  7  6  1  0  0  0  0
  8  7  1  6  0  0  0
  9 16  1  6  0  0  0
  9 11  1  0  0  0  0
 10  9  1  0  0  0  0
 10 12  1  0  0  0  0
 11  8  1  0  0  0  0
 12 20  1  6  0  0  0
 12 13  1  0  0  0  0
 13  8  1  0  0  0  0
 13 22  1  6  0  0  0
 14 15  1  0  0  0  0
 14  9  1  0  0  0  0
 17 16  2  0  0  0  0
 18 16  1  0  0  0  0
 19 18  1  0  0  0  0
 20 21  1  0  0  0  0
 22 23  1  0  0  0  0
 23 26  2  0  0  0  0
 23 25  1  0  0  0  0
 24 22  1  0  0  0  0
 27 28  1  0  0  0  0
 29  6  1  0  0  0  0
 30 29  1  0  0  0  0
 32 31  1  0  0  0  0
 33 32  1  0  0  0  0
 34 33  2  0  0  0  0
 35 33  1  0  0  0  0
 36 34  1  0  0  0  0
 37 36  1  0  0  0  0
 37 35  2  0  0  0  0
 38 39  1  6  0  0  0
 38 44  1  0  0  0  0
 38 36  1  0  0  0  0
 40 39  1  0  0  0  0
 40 42  1  0  0  0  0
 41 40  2  0  0  0  0
 43 42  1  0  0  0  0
 44 46  1  0  0  0  0
 45 44  2  0  0  0  0
 47 46  1  0  0  0  0
 48 49  1  0  0  0  0
 50 49  1  0  0  0  0
 50 51  1  0  0  0  0
 52 51  1  0  0  0  0
 53 52  1  0  0  0  0
M  END
>  <REMARK>
 VINA RESULT:    -4.473      2.409      4.487
 INTER + INTRA:         -14.531
 INTER:                  -7.118
 INTRA:                  -7.413
 UNBOUND:                -5.744
 SMILES CC(=O)N[C@@H]1[C@@H](O)C[C@](O)(C(=O)O)O[C@H]1C(O)[C@H](O)CNC(=O)OCc1cn([C@@H](CC(=O)O)C(=O)O)nn1
 SMILES IDX 21 1 22 2 23 3 20 5 18 6 16 7 15 8 9 9 8 10 14 11 6 12 5 13
 SMILES IDX 10 14 11 16 12 17 13 18 7 20 4 22 2 23 1 25 3 26 17 27 19 29
 SMILES IDX 24 31 25 32 26 33 27 34 38 35 28 36 37 37 29 38 30 39 31 40
 SMILES IDX 32 41 33 42 34 44 35 45 36 46
 H PARENT 21 4 10 15 13 19 7 21 4 24 17 28 19 30 33 43 36 47
 Flexibility Score: inf
  4 active torsions:
  status: ('A' for Active; 'I' for Inactive)
    1  A    between atoms: CA   and  CB  
    2  A    between atoms: CB   and  CG  
    3  A    between atoms: CG   and  CD  
    4  A    between atoms: CD   and  CE  

>  <TORSDO>
F 20

>  <BEGIN_>
RES LYS A 131

$$$$
ligand_10_pose_15_2HRL.pdbqt
 OpenBabel07062320523D

  6  5  0  0  0  0  0  0  0  0999 V2000
   33.1930   34.6630    9.2900 C   0  0  0  0  0  0  0  0  0  0  0  0
   32.0600   35.3600   10.0340 C   0  0  0  0  0  0  0  0  0  0  0  0
   30.8730   35.6800    9.1620 C   0  0  0  0  0  0  0  0  0  0  0  0
   30.2530   34.4050    8.6120 C   0  0  0  0  0  0  0  0  0  0  0  0
   28.9190   34.7030    7.9530 C   0  0  0  0  0  0  0  0  0  0  0  0
   28.7170   36.1690    7.7910 N   0  0  0  0  0  0  0  0  0  0  0  0
  1  2  1  0  0  0  0
  3  2  1  0  0  0  0
  4  3  1  0  0  0  0
  5  4  1  0  0  0  0
  6  5  1  0  0  0  0
M  END
>  <EGIN_R>
ES LYS A 135

>  <REMARK>
  4 active torsions:
  status: ('A' for Active; 'I' for Inactive)
    5  A    between atoms: CA   and  CB  
    6  A    between atoms: CB   and  CG  
    7  A    between atoms: CG   and  CD  
    8  A    between atoms: CD   and  CE  

$$$$
