ligand_72_pose_15_2HRL.pdbqt
 OpenBabel07062320523D

 49 49  0  0  1  0  0  0  0  0999 V2000
   29.6080   30.3760   18.2190 N   0  0  0  0  0  0  0  0  0  0  0  0
   28.3260   30.4230   18.8540 C   0  0  0  0  0  0  0  0  0  0  0  0
   27.8450   31.5190   19.3010 O   0  0  0  0  0  0  0  0  0  0  0  0
   29.9460   29.4630   17.8630 H   0  0  0  0  0  0  0  0  0  0  0  0
   30.3790   31.5930   18.0780 C   0  0  0  0  0  0  0  0  0  0  0  0
   30.4860   32.0550   16.6780 C   0  0  2  0  0  0  0  0  0  0  0  0
   29.5420   33.0970   16.2070 C   0  0  1  0  0  0  0  0  0  0  0  0
   29.8880   33.5720   14.8170 C   0  0  2  0  0  0  0  0  0  0  0  0
   31.8820   34.8000   15.1460 C   0  0  2  0  0  0  0  0  0  0  0  0
   31.1190   36.0950   14.8110 C   0  0  0  0  0  0  0  0  0  0  0  0
   31.2550   33.6890   14.6820 O   0  0  0  0  0  0  0  0  0  0  0  0
   30.1750   35.7270   13.7170 C   0  0  1  0  0  0  0  0  0  0  0  0
   29.1230   34.7750   14.3560 C   0  0  1  0  0  0  0  0  0  0  0  0
   32.1960   34.8090   16.4890 O   0  0  0  0  0  0  0  0  0  0  0  0
   32.5420   35.6960   16.7480 H   0  0  0  0  0  0  0  0  0  0  0  0
   33.1940   34.8720   14.3910 C   0  0  0  0  0  0  0  0  0  0  0  0
   34.2430   35.2540   14.9610 O   0  0  0  0  0  0  0  0  0  0  0  0
   33.1960   34.5060   13.0620 O   0  0  0  0  0  0  0  0  0  0  0  0
   32.3970   34.0490   12.6360 H   0  0  0  0  0  0  0  0  0  0  0  0
   29.5400   36.8080   13.1390 O   0  0  0  0  0  0  0  0  0  0  0  0
   30.1290   37.1320   12.4070 H   0  0  0  0  0  0  0  0  0  0  0  0
   28.2410   34.4930   13.2120 N   0  0  0  0  0  0  0  0  0  0  0  0
   26.8810   34.8190   13.1890 C   0  0  0  0  0  0  0  0  0  0  0  0
   28.6780   34.0260   12.3900 H   0  0  0  0  0  0  0  0  0  0  0  0
   25.9720   34.5390   12.0480 C   0  0  0  0  0  0  0  0  0  0  0  0
   26.3820   35.3880   14.1990 O   0  0  0  0  0  0  0  0  0  0  0  0
   28.2250   32.9650   16.4970 O   0  0  0  0  0  0  0  0  0  0  0  0
   27.9770   33.1850   17.4320 H   0  0  0  0  0  0  0  0  0  0  0  0
   30.3820   30.9440   15.8100 O   0  0  0  0  0  0  0  0  0  0  0  0
   29.7680   31.1900   15.0830 H   0  0  0  0  0  0  0  0  0  0  0  0
   27.6180   29.2550   18.9740 O   0  0  0  0  0  0  0  0  0  0  0  0
   27.1320   28.5330   17.8810 C   0  0  0  0  0  0  0  0  0  0  0  0
   26.6980   29.4380   16.7840 C   0  0  0  0  0  0  0  0  0  0  0  0
   25.3940   29.7880   16.5350 C   0  0  0  0  0  0  0  0  0  0  0  0
   27.4390   30.0600   15.8680 N   0  0  0  0  0  0  0  0  0  0  0  0
   25.3710   30.6100   15.4810 N   0  0  0  0  0  0  0  0  0  0  0  0
   26.6400   30.7590   15.0930 N   0  0  0  0  0  0  0  0  0  0  0  0
   24.1910   31.2000   14.9040 C   0  0  0  0  0  0  0  0  0  0  0  0
   22.9620   30.3820   15.2400 C   0  0  0  0  0  0  0  0  0  0  0  0
   24.3750   31.2770   13.3940 C   0  0  0  0  0  0  0  0  0  0  0  0
   24.0380   32.6160   15.3970 C   0  0  0  0  0  0  0  0  0  0  0  0
   25.2920   33.1560   15.6960 O   0  0  0  0  0  0  0  0  0  0  0  0
   25.3770   34.0280   15.2320 H   0  0  0  0  0  0  0  0  0  0  0  0
   29.8670   25.5550   16.9770 C   0  0  0  0  0  0  0  0  0  0  0  0
   28.3450   25.7220   17.0260 C   0  0  0  0  0  0  0  0  0  0  0  0
   27.6020   24.3980   16.9360 C   0  0  0  0  0  0  0  0  0  0  0  0
   26.5010   24.2960   17.9550 C   0  0  0  0  0  0  0  0  0  0  0  0
   25.6720   23.0440   17.6850 C   0  0  0  0  0  0  0  0  0  0  0  0
   24.2250   23.3630   17.7190 N   0  0  0  0  0  0  0  0  0  0  0  0
  1  2  1  0  0  0  0
  2 31  1  0  0  0  0
  2  3  2  0  0  0  0
  4  1  1  0  0  0  0
  5  1  1  0  0  0  0
  6  5  1  1  0  0  0
  7 27  1  6  0  0  0
  7  6  1  0  0  0  0
  8  7  1  1  0  0  0
  9 16  1  6  0  0  0
  9 14  1  0  0  0  0
 10  9  1  0  0  0  0
 11  8  1  0  0  0  0
 11  9  1  0  0  0  0
 12 20  1  1  0  0  0
 12 13  1  0  0  0  0
 12 10  1  0  0  0  0
 13 22  1  6  0  0  0
 13  8  1  0  0  0  0
 14 15  1  0  0  0  0
 16 17  2  0  0  0  0
 18 16  1  0  0  0  0
 19 18  1  0  0  0  0
 21 20  1  0  0  0  0
 23 22  1  0  0  0  0
 23 26  2  0  0  0  0
 24 22  1  0  0  0  0
 25 23  1  0  0  0  0
 27 28  1  0  0  0  0
 29  6  1  0  0  0  0
 30 29  1  0  0  0  0
 32 31  1  0  0  0  0
 33 32  1  0  0  0  0
 34 33  2  0  0  0  0
 35 33  1  0  0  0  0
 36 34  1  0  0  0  0
 37 36  1  0  0  0  0
 37 35  2  0  0  0  0
 38 39  1  0  0  0  0
 38 41  1  0  0  0  0
 38 36  1  0  0  0  0
 40 38  1  0  0  0  0
 41 42  1  0  0  0  0
 43 42  1  0  0  0  0
 44 45  1  0  0  0  0
 46 45  1  0  0  0  0
 46 47  1  0  0  0  0
 48 49  1  0  0  0  0
 48 47  1  0  0  0  0
M  END
>  <REMARK>
 VINA RESULT:    -4.248      5.945     11.482
 INTER + INTRA:         -13.869
 INTER:                  -7.350
 INTRA:                  -6.519
 UNBOUND:                -6.145
 SMILES CC(=O)N[C@@H]1[C@@H](O)C[C@](O)(C(=O)O)O[C@H]1C(O)[C@H](O)CNC(=O)OCc1cn(C(C)(C)CO)nn1
 SMILES IDX 21 1 22 2 23 3 20 5 18 6 16 7 15 8 9 9 8 10 14 11 6 12 5 13
 SMILES IDX 10 14 11 16 12 17 13 18 7 20 4 22 2 23 1 25 3 26 17 27 19 29
 SMILES IDX 24 31 25 32 26 33 27 34 35 35 28 36 34 37 29 38 30 39 31 40
 SMILES IDX 32 41 33 42
 H PARENT 21 4 10 15 13 19 7 21 4 24 17 28 19 30 33 43
 Flexibility Score: inf
  4 active torsions:
  status: ('A' for Active; 'I' for Inactive)
    1  A    between atoms: CA   and  CB  
    2  A    between atoms: CB   and  CG  
    3  A    between atoms: CG   and  CD  
    4  A    between atoms: CD   and  CE  

>  <TORSDO>
F 17

>  <BEGIN_>
RES LYS A 131

$$$$
ligand_72_pose_15_2HRL.pdbqt
 OpenBabel07062320523D

  6  5  0  0  0  0  0  0  0  0999 V2000
   33.1930   34.6630    9.2900 C   0  0  0  0  0  0  0  0  0  0  0  0
   32.0600   35.3600   10.0340 C   0  0  0  0  0  0  0  0  0  0  0  0
   30.7190   34.6970    9.8480 C   0  0  0  0  0  0  0  0  0  0  0  0
   30.2450   34.8420    8.4100 C   0  0  0  0  0  0  0  0  0  0  0  0
   28.7710   34.5020    8.2990 C   0  0  0  0  0  0  0  0  0  0  0  0
   28.3010   33.7550    9.4980 N   0  0  0  0  0  0  0  0  0  0  0  0
  1  2  1  0  0  0  0
  3  2  1  0  0  0  0
  4  3  1  0  0  0  0
  5  4  1  0  0  0  0
  5  6  1  0  0  0  0
M  END
>  <EGIN_R>
ES LYS A 135

>  <REMARK>
  4 active torsions:
  status: ('A' for Active; 'I' for Inactive)
    5  A    between atoms: CA   and  CB  
    6  A    between atoms: CB   and  CG  
    7  A    between atoms: CG   and  CD  
    8  A    between atoms: CD   and  CE  

$$$$
