ligand_77_pose_3_2HRL.pdbqt
 OpenBabel07062320523D

 61 63  0  0  1  0  0  0  0  0999 V2000
   26.2150   37.3400    8.5050 N   0  0  0  0  0  0  0  0  0  0  0  0
   25.2760   36.7600    9.3920 C   0  0  0  0  0  0  0  0  0  0  0  0
   24.6880   35.7200    9.0780 O   0  0  0  0  0  0  0  0  0  0  0  0
   26.6750   38.2350    8.8610 H   0  0  0  0  0  0  0  0  0  0  0  0
   26.5700   36.8160    7.2070 C   0  0  0  0  0  0  0  0  0  0  0  0
   28.0530   36.8270    7.0590 C   0  0  2  0  0  0  0  0  0  0  0  0
   28.5410   37.8720    6.0780 C   0  0  1  0  0  0  0  0  0  0  0  0
   29.3420   38.9710    6.6880 C   0  0  2  0  0  0  0  0  0  0  0  0
   30.6340   39.3200    8.5790 C   0  0  2  0  0  0  0  0  0  0  0  0
   30.6230   40.7890    8.2900 C   0  0  0  0  0  0  0  0  0  0  0  0
   30.3920   38.5370    7.4640 O   0  0  0  0  0  0  0  0  0  0  0  0
   29.4690   41.2530    7.4760 C   0  0  1  0  0  0  0  0  0  0  0  0
   28.5080   40.0640    7.3090 C   0  0  1  0  0  0  0  0  0  0  0  0
   29.7590   38.9960    9.6410 O   0  0  0  0  0  0  0  0  0  0  0  0
   29.5300   39.8160   10.1110 H   0  0  0  0  0  0  0  0  0  0  0  0
   32.0010   38.9700    9.0680 C   0  0  0  0  0  0  0  0  0  0  0  0
   32.1060   38.2680   10.1200 O   0  0  0  0  0  0  0  0  0  0  0  0
   33.1610   39.3590    8.4490 O   0  0  0  0  0  0  0  0  0  0  0  0
   33.1720   39.5650    7.4520 H   0  0  0  0  0  0  0  0  0  0  0  0
   28.8070   42.3460    8.0130 O   0  0  0  0  0  0  0  0  0  0  0  0
   29.2260   42.5810    8.9010 H   0  0  0  0  0  0  0  0  0  0  0  0
   27.4830   40.4400    6.3430 N   0  0  0  0  0  0  0  0  0  0  0  0
   26.1240   40.5020    6.7380 C   0  0  0  0  0  0  0  0  0  0  0  0
   27.7090   40.6700    5.3520 H   0  0  0  0  0  0  0  0  0  0  0  0
   25.0410   40.8840    5.7640 C   0  0  0  0  0  0  0  0  0  0  0  0
   25.7450   40.2460    7.9000 O   0  0  0  0  0  0  0  0  0  0  0  0
   29.2620   37.1680    5.1060 O   0  0  0  0  0  0  0  0  0  0  0  0
   28.9570   36.2360    5.1210 H   0  0  0  0  0  0  0  0  0  0  0  0
   28.5390   35.5560    6.7890 O   0  0  0  0  0  0  0  0  0  0  0  0
   28.2670   34.9510    7.5240 H   0  0  0  0  0  0  0  0  0  0  0  0
   24.9700   37.3120   10.6320 O   0  0  0  0  0  0  0  0  0  0  0  0
   25.2480   38.6700   10.9410 C   0  0  0  0  0  0  0  0  0  0  0  0
   26.6050   38.8360   11.5340 C   0  0  0  0  0  0  0  0  0  0  0  0
   27.3210   37.8220   12.1100 C   0  0  0  0  0  0  0  0  0  0  0  0
   27.3500   39.9460   11.6180 N   0  0  0  0  0  0  0  0  0  0  0  0
   28.4960   38.3390   12.5360 N   0  0  0  0  0  0  0  0  0  0  0  0
   28.4700   39.6050   12.2220 N   0  0  0  0  0  0  0  0  0  0  0  0
   29.4960   37.5710   13.1850 C   0  0  0  0  0  0  0  0  0  0  0  0
   29.1440   36.4890   13.9630 C   0  0  0  0  0  0  0  0  0  0  0  0
   30.8380   37.8610   13.0750 C   0  0  0  0  0  0  0  0  0  0  0  0
   30.0870   35.7110   14.6140 C   0  0  0  0  0  0  0  0  0  0  0  0
   31.7990   37.0820   13.7280 C   0  0  0  0  0  0  0  0  0  0  0  0
   31.4220   36.0080   14.4970 C   0  0  0  0  0  0  0  0  0  0  0  0
   32.5990   35.0370   15.3100 S   0  0  0  0  0  0  0  0  0  0  0  0
   33.3600   35.8700   16.2850 O   0  0  0  0  0  0  0  0  0  0  0  0
   33.5860   34.4150   14.3660 O   0  0  0  0  0  0  0  0  0  0  0  0
   31.7450   33.7260   16.1170 C   0  0  0  0  0  0  0  0  0  0  0  0
   31.4410   33.8560   17.4460 C   0  0  0  0  0  0  0  0  0  0  0  0
   31.3750   32.5720   15.4340 C   0  0  0  0  0  0  0  0  0  0  0  0
   30.7670   32.8460   18.1220 C   0  0  0  0  0  0  0  0  0  0  0  0
   30.7020   31.5450   16.0790 C   0  0  0  0  0  0  0  0  0  0  0  0
   30.4160   31.7140   17.4130 C   0  0  0  0  0  0  0  0  0  0  0  0
   29.7310   30.6800   18.0900 N   0  0  0  0  0  0  0  0  0  0  0  0
   29.5560   29.7740   17.6230 H   0  0  0  0  0  0  0  0  0  0  0  0
   29.4040   30.8360   19.0580 H   0  0  0  0  0  0  0  0  0  0  0  0
   29.8670   25.5550   16.9770 C   0  0  0  0  0  0  0  0  0  0  0  0
   28.3450   25.7220   17.0260 C   0  0  0  0  0  0  0  0  0  0  0  0
   27.6030   24.3950   16.9890 C   0  0  0  0  0  0  0  0  0  0  0  0
   26.1440   24.5520   17.3150 C   0  0  0  0  0  0  0  0  0  0  0  0
   25.5240   23.1780   17.5510 C   0  0  0  0  0  0  0  0  0  0  0  0
   25.2750   22.9620   18.9960 N   0  0  0  0  0  0  0  0  0  0  0  0
  1  4  1  0  0  0  0
  1  2  1  0  0  0  0
  2 31  1  0  0  0  0
  3  2  2  0  0  0  0
  5  1  1  0  0  0  0
  6  5  1  6  0  0  0
  7 27  1  6  0  0  0
  7  6  1  0  0  0  0
  8  7  1  1  0  0  0
  8 13  1  0  0  0  0
  8 11  1  0  0  0  0
  9 16  1  1  0  0  0
  9 14  1  0  0  0  0
 10  9  1  0  0  0  0
 11  9  1  0  0  0  0
 12 20  1  1  0  0  0
 12 10  1  0  0  0  0
 13 22  1  6  0  0  0
 13 12  1  0  0  0  0
 14 15  1  0  0  0  0
 16 17  2  0  0  0  0
 18 16  1  0  0  0  0
 19 18  1  0  0  0  0
 20 21  1  0  0  0  0
 22 23  1  0  0  0  0
 23 26  2  0  0  0  0
 24 22  1  0  0  0  0
 25 23  1  0  0  0  0
 27 28  1  0  0  0  0
 29  6  1  0  0  0  0
 29 30  1  0  0  0  0
 31 32  1  0  0  0  0
 32 33  1  0  0  0  0
 33 35  1  0  0  0  0
 33 34  2  0  0  0  0
 34 36  1  0  0  0  0
 35 37  2  0  0  0  0
 36 38  1  0  0  0  0
 37 36  1  0  0  0  0
 38 39  1  0  0  0  0
 39 41  2  0  0  0  0
 40 38  2  0  0  0  0
 40 42  1  0  0  0  0
 42 43  2  0  0  0  0
 43 41  1  0  0  0  0
 43 44  1  0  0  0  0
 44 47  1  0  0  0  0
 44 45  2  0  0  0  0
 46 44  2  0  0  0  0
 47 48  2  0  0  0  0
 48 50  1  0  0  0  0
 49 51  2  0  0  0  0
 49 47  1  0  0  0  0
 51 52  1  0  0  0  0
 52 53  1  0  0  0  0
 52 50  2  0  0  0  0
 53 55  1  0  0  0  0
 54 53  1  0  0  0  0
 56 57  1  0  0  0  0
 58 57  1  0  0  0  0
 58 59  1  0  0  0  0
 59 60  1  0  0  0  0
 60 61  1  0  0  0  0
M  END
>  <REMARK>
 VINA RESULT:    -5.354      5.203     12.140
 INTER + INTRA:         -16.576
 INTER:                 -10.894
 INTRA:                  -5.682
 UNBOUND:                -6.527
 SMILES CC(=O)N[C@@H]1[C@@H](O)C[C@](O)(C(=O)O)O[C@H]1C(O)[C@H](O)CNC(=O)OCc1cn(-c2ccc(S(=O)(=O)c3ccc(N)cc3)cc2)nn1
 SMILES IDX 21 1 22 2 23 3 20 5 18 6 16 7 15 8 9 9 8 10 14 11 6 12 5 13
 SMILES IDX 10 14 11 16 12 17 13 18 7 20 4 22 2 23 1 25 3 26 17 27 19 29
 SMILES IDX 24 31 25 32 26 33 27 34 46 35 28 36 45 37 29 38 30 39 44 40
 SMILES IDX 31 41 43 42 32 43 33 44 34 45 35 46 36 47 37 48 42 49 38 50
 SMILES IDX 41 51 39 52 40 53
 H PARENT 21 4 10 15 13 19 7 21 4 24 17 28 19 30 40 54 40 55
 Flexibility Score: inf
  4 active torsions:
  status: ('A' for Active; 'I' for Inactive)
    1  A    between atoms: CA   and  CB  
    2  A    between atoms: CB   and  CG  
    3  A    between atoms: CG   and  CD  
    4  A    between atoms: CD   and  CE  

>  <TORSDO>
F 18

>  <BEGIN_>
RES LYS A 131

$$$$
ligand_77_pose_3_2HRL.pdbqt
 OpenBabel07062320523D

  6  5  0  0  0  0  0  0  0  0999 V2000
   33.1930   34.6630    9.2900 C   0  0  0  0  0  0  0  0  0  0  0  0
   32.0600   35.3600   10.0340 C   0  0  0  0  0  0  0  0  0  0  0  0
   30.6880   34.9520    9.5620 C   0  0  0  0  0  0  0  0  0  0  0  0
   29.7540   34.7430   10.7440 C   0  0  0  0  0  0  0  0  0  0  0  0
   28.3080   34.9040   10.3150 C   0  0  0  0  0  0  0  0  0  0  0  0
   27.8350   33.7080    9.5640 N   0  0  0  0  0  0  0  0  0  0  0  0
  1  2  1  0  0  0  0
  3  2  1  0  0  0  0
  3  4  1  0  0  0  0
  5  4  1  0  0  0  0
  6  5  1  0  0  0  0
M  END
>  <EGIN_R>
ES LYS A 135

>  <REMARK>
  4 active torsions:
  status: ('A' for Active; 'I' for Inactive)
    5  A    between atoms: CA   and  CB  
    6  A    between atoms: CB   and  CG  
    7  A    between atoms: CG   and  CD  
    8  A    between atoms: CD   and  CE  

$$$$
