ligand_81_pose_8_2HRL.pdbqt
 OpenBabel07062320523D

 63 65  0  0  1  0  0  0  0  0999 V2000
   28.4380   40.3020   10.5670 O   0  0  0  0  0  0  0  0  0  0  0  0
   27.8530   40.0330    9.3490 C   0  0  0  0  0  0  0  0  0  0  0  0
   27.2410   38.7560    9.0680 N   0  0  0  0  0  0  0  0  0  0  0  0
   27.2860   38.0750    9.8520 H   0  0  0  0  0  0  0  0  0  0  0  0
   27.8640   40.9350    8.4740 O   0  0  0  0  0  0  0  0  0  0  0  0
   26.6420   38.5280    7.7740 C   0  0  0  0  0  0  0  0  0  0  0  0
   25.1310   38.5110    7.9590 C   0  0  2  0  0  0  0  0  0  0  0  0
   24.7010   37.0680    7.8460 C   0  0  2  0  0  0  0  0  0  0  0  0
   24.1010   36.4880    9.0890 C   0  0  2  0  0  0  0  0  0  0  0  0
   21.9180   36.3590    8.2470 C   0  0  2  0  0  0  0  0  0  0  0  0
   21.6470   37.6680    8.9700 C   0  0  0  0  0  0  0  0  0  0  0  0
   23.0260   35.7150    8.7170 O   0  0  0  0  0  0  0  0  0  0  0  0
   22.2860   37.5920   10.3410 C   0  0  1  0  0  0  0  0  0  0  0  0
   23.8130   37.4380   10.1940 C   0  0  1  0  0  0  0  0  0  0  0  0
   22.0100   36.6890    6.8890 O   0  0  0  0  0  0  0  0  0  0  0  0
   22.6350   36.1050    6.4060 H   0  0  0  0  0  0  0  0  0  0  0  0
   20.7720   35.4380    8.3980 C   0  0  0  0  0  0  0  0  0  0  0  0
   20.2830   35.2480    9.5270 O   0  0  0  0  0  0  0  0  0  0  0  0
   20.2500   34.7970    7.3050 O   0  0  0  0  0  0  0  0  0  0  0  0
   19.2960   34.4680    7.2290 H   0  0  0  0  0  0  0  0  0  0  0  0
   21.9660   38.6930   11.1010 O   0  0  0  0  0  0  0  0  0  0  0  0
   22.5320   39.4630   10.8780 H   0  0  0  0  0  0  0  0  0  0  0  0
   24.2550   36.9310   11.5000 N   0  0  0  0  0  0  0  0  0  0  0  0
   25.2390   37.6410   12.2280 C   0  0  0  0  0  0  0  0  0  0  0  0
   23.8570   36.0560   11.9030 H   0  0  0  0  0  0  0  0  0  0  0  0
   25.7360   37.1830   13.5620 C   0  0  0  0  0  0  0  0  0  0  0  0
   25.6990   38.6960   11.7100 O   0  0  0  0  0  0  0  0  0  0  0  0
   25.9500   36.3780    7.7030 O   0  0  0  0  0  0  0  0  0  0  0  0
   26.5910   36.7130    8.3600 H   0  0  0  0  0  0  0  0  0  0  0  0
   24.6110   39.3380    6.9770 O   0  0  0  0  0  0  0  0  0  0  0  0
   25.3090   39.8540    6.5200 H   0  0  0  0  0  0  0  0  0  0  0  0
   29.7890   40.0720   10.8990 C   0  0  0  0  0  0  0  0  0  0  0  0
   29.9300   38.7180   11.5240 C   0  0  0  0  0  0  0  0  0  0  0  0
   30.9980   38.2160   12.2240 C   0  0  0  0  0  0  0  0  0  0  0  0
   29.0140   37.7250   11.5070 N   0  0  0  0  0  0  0  0  0  0  0  0
   30.7270   36.9360   12.6240 N   0  0  0  0  0  0  0  0  0  0  0  0
   29.5080   36.6910   12.1610 N   0  0  0  0  0  0  0  0  0  0  0  0
   31.5860   36.0770   13.3530 C   0  0  0  0  0  0  0  0  0  0  0  0
   32.6830   35.5500   12.7930 N   0  0  0  0  0  0  0  0  0  0  0  0
   31.2940   35.7330   14.6790 C   0  0  0  0  0  0  0  0  0  0  0  0
   33.4940   34.7060   13.4790 C   0  0  0  0  0  0  0  0  0  0  0  0
   32.1070   34.8810   15.3710 C   0  0  0  0  0  0  0  0  0  0  0  0
   33.2260   34.3660   14.7440 N   0  0  0  0  0  0  0  0  0  0  0  0
   30.0700   36.2850   15.2930 C   0  0  0  0  0  0  0  0  0  0  0  0
   28.8540   35.4070   15.1880 C   0  0  0  0  0  0  0  0  0  0  0  0
   28.2880   35.1380   16.4040 O   0  0  0  0  0  0  0  0  0  0  0  0
   28.5310   36.0920   17.3640 C   0  0  0  0  0  0  0  0  0  0  0  0
   28.2460   35.5720   18.7580 C   0  0  0  0  0  0  0  0  0  0  0  0
   34.6410   34.1730   12.8480 N   0  0  0  0  0  0  0  0  0  0  0  0
   34.5930   33.2590   12.3640 H   0  0  0  0  0  0  0  0  0  0  0  0
   35.5500   34.6730   12.8500 H   0  0  0  0  0  0  0  0  0  0  0  0
   31.7980   34.3980   16.7030 C   0  0  0  0  0  0  0  0  0  0  0  0
   31.1300   33.2840   17.0600 C   0  0  0  0  0  0  0  0  0  0  0  0
   32.2870   35.2000   17.7580 C   0  0  0  0  0  0  0  0  0  0  0  0
   30.9410   32.9540   18.4150 C   0  0  0  0  0  0  0  0  0  0  0  0
   32.1100   34.8900   19.0770 C   0  0  0  0  0  0  0  0  0  0  0  0
   31.4220   33.7420   19.4320 C   0  0  0  0  0  0  0  0  0  0  0  0
   29.8670   25.5550   16.9770 C   0  0  0  0  0  0  0  0  0  0  0  0
   28.3450   25.7220   17.0260 C   0  0  0  0  0  0  0  0  0  0  0  0
   27.6000   24.4140   16.8090 C   0  0  0  0  0  0  0  0  0  0  0  0
   26.8500   23.9780   18.0370 C   0  0  0  0  0  0  0  0  0  0  0  0
   25.5040   24.6930   18.0930 C   0  0  0  0  0  0  0  0  0  0  0  0
   24.6880   24.3550   16.9030 N   0  0  0  0  0  0  0  0  0  0  0  0
  1 32  1  0  0  0  0
  2  1  1  0  0  0  0
  3  2  1  0  0  0  0
  3  4  1  0  0  0  0
  5  2  2  0  0  0  0
  6  3  1  0  0  0  0
  7  6  1  6  0  0  0
  8 28  1  1  0  0  0
  8  7  1  0  0  0  0
  9  8  1  6  0  0  0
  9 14  1  0  0  0  0
 10 15  1  6  0  0  0
 10 17  1  0  0  0  0
 10 12  1  0  0  0  0
 10 11  1  0  0  0  0
 11 13  1  0  0  0  0
 12  9  1  0  0  0  0
 13 21  1  1  0  0  0
 14 13  1  0  0  0  0
 14 23  1  1  0  0  0
 16 15  1  0  0  0  0
 17 18  2  0  0  0  0
 19 17  1  0  0  0  0
 20 19  1  0  0  0  0
 22 21  1  0  0  0  0
 23 25  1  0  0  0  0
 23 24  1  0  0  0  0
 24 26  1  0  0  0  0
 27 24  2  0  0  0  0
 28 29  1  0  0  0  0
 30  7  1  0  0  0  0
 31 30  1  0  0  0  0
 32 33  1  0  0  0  0
 33 34  2  0  0  0  0
 34 36  1  0  0  0  0
 35 33  1  0  0  0  0
 35 37  2  0  0  0  0
 36 38  1  0  0  0  0
 37 36  1  0  0  0  0
 38 40  2  0  0  0  0
 39 38  1  0  0  0  0
 39 41  2  0  0  0  0
 40 44  1  0  0  0  0
 40 42  1  0  0  0  0
 41 43  1  0  0  0  0
 42 52  1  0  0  0  0
 43 42  2  0  0  0  0
 45 44  1  0  0  0  0
 45 46  1  0  0  0  0
 46 47  1  0  0  0  0
 47 48  1  0  0  0  0
 49 51  1  0  0  0  0
 49 41  1  0  0  0  0
 50 49  1  0  0  0  0
 52 53  2  0  0  0  0
 52 54  1  0  0  0  0
 53 55  1  0  0  0  0
 54 56  2  0  0  0  0
 55 57  2  0  0  0  0
 56 57  1  0  0  0  0
 58 59  1  0  0  0  0
 60 59  1  0  0  0  0
 60 61  1  0  0  0  0
 61 62  1  0  0  0  0
 63 62  1  0  0  0  0
M  END
>  <REMARK>
 VINA RESULT:    -4.743      1.918      2.576
 INTER + INTRA:         -16.906
 INTER:                 -10.188
 INTRA:                  -6.718
 UNBOUND:                -7.171
 SMILES CCOCCc1c(-c2ccccc2)nc(N)nc1-n1cc(COC(=O)NC[C@@H](O)C(O)[C@@H]2O[C@@](O)(C(=O)O)C[C@H](O)[C@H]2NC(C)=O)nn1
 SMILES IDX 23 1 24 2 26 3 25 5 27 6 28 7 30 8 32 9 34 10 39 11 33 12
 SMILES IDX 40 13 42 14 35 15 36 17 37 18 38 19 41 21 43 23 44 24 45 26
 SMILES IDX 46 27 31 28 29 30 22 32 21 33 20 34 47 35 19 36 48 37 18 38
 SMILES IDX 17 39 6 40 15 41 7 42 14 43 5 44 4 45 3 46 2 47 1 48 16 49
 SMILES IDX 8 52 9 53 13 54 10 55 12 56 11 57
 H PARENT 26 4 35 16 38 20 41 22 43 25 31 29 29 31 16 50 16 51
 Flexibility Score: inf
  4 active torsions:
  status: ('A' for Active; 'I' for Inactive)
    1  A    between atoms: CA   and  CB  
    2  A    between atoms: CB   and  CG  
    3  A    between atoms: CG   and  CD  
    4  A    between atoms: CD   and  CE  

>  <TORSDO>
F 21

>  <BEGIN_>
RES LYS A 131

$$$$
ligand_81_pose_8_2HRL.pdbqt
 OpenBabel07062320523D

  6  5  0  0  0  0  0  0  0  0999 V2000
   33.1930   34.6630    9.2900 C   0  0  0  0  0  0  0  0  0  0  0  0
   32.0600   35.3600   10.0340 C   0  0  0  0  0  0  0  0  0  0  0  0
   30.8030   35.5090    9.2160 C   0  0  0  0  0  0  0  0  0  0  0  0
   30.1310   34.1590    9.0150 C   0  0  0  0  0  0  0  0  0  0  0  0
   28.6760   34.3420    8.6260 C   0  0  0  0  0  0  0  0  0  0  0  0
   27.7690   33.7710    9.6590 N   0  0  0  0  0  0  0  0  0  0  0  0
  1  2  1  0  0  0  0
  3  2  1  0  0  0  0
  4  3  1  0  0  0  0
  5  4  1  0  0  0  0
  5  6  1  0  0  0  0
M  END
>  <EGIN_R>
ES LYS A 135

>  <REMARK>
  4 active torsions:
  status: ('A' for Active; 'I' for Inactive)
    5  A    between atoms: CA   and  CB  
    6  A    between atoms: CB   and  CG  
    7  A    between atoms: CG   and  CD  
    8  A    between atoms: CD   and  CE  

$$$$
