ligand_41_pose_5_2HRL.pdbqt
 OpenBabel07062320523D

 52 53  0  0  1  0  0  0  0  0999 V2000
   32.1680   33.2650   14.7120 N   0  0  0  0  0  0  0  0  0  0  0  0
   31.3950   32.7690   15.8170 C   0  0  0  0  0  0  0  0  0  0  0  0
   31.3110   33.4660   16.8570 O   0  0  0  0  0  0  0  0  0  0  0  0
   32.2080   32.6630   13.8660 H   0  0  0  0  0  0  0  0  0  0  0  0
   32.8380   34.5290   14.8170 C   0  0  0  0  0  0  0  0  0  0  0  0
   32.3900   35.6000   13.8790 C   0  0  2  0  0  0  0  0  0  0  0  0
   30.9060   35.6610   13.6710 C   0  0  2  0  0  0  0  0  0  0  0  0
   30.4590   36.6580   12.6340 C   0  0  2  0  0  0  0  0  0  0  0  0
   30.9080   38.7350   11.7300 C   0  0  2  0  0  0  0  0  0  0  0  0
   29.5000   39.2530   11.9590 C   0  0  0  0  0  0  0  0  0  0  0  0
   31.2080   37.7830   12.6360 O   0  0  0  0  0  0  0  0  0  0  0  0
   28.7530   38.4280   12.9540 C   0  0  1  0  0  0  0  0  0  0  0  0
   28.9900   36.9700   12.8200 C   0  0  1  0  0  0  0  0  0  0  0  0
   31.7320   39.8880   11.9650 O   0  0  0  0  0  0  0  0  0  0  0  0
   31.1480   40.7060   11.9140 H   0  0  0  0  0  0  0  0  0  0  0  0
   31.0880   38.4240   10.3080 C   0  0  0  0  0  0  0  0  0  0  0  0
   30.1390   38.2020    9.5230 O   0  0  0  0  0  0  0  0  0  0  0  0
   32.3630   38.3600    9.7400 O   0  0  0  0  0  0  0  0  0  0  0  0
   33.1880   38.4820   10.3150 H   0  0  0  0  0  0  0  0  0  0  0  0
   29.1520   38.8300   14.2400 O   0  0  0  0  0  0  0  0  0  0  0  0
   30.1200   38.7130   14.3910 H   0  0  0  0  0  0  0  0  0  0  0  0
   28.1380   36.3800   11.8380 N   0  0  0  0  0  0  0  0  0  0  0  0
   27.4680   35.1410   12.0360 C   0  0  0  0  0  0  0  0  0  0  0  0
   27.9880   36.8670   10.9350 H   0  0  0  0  0  0  0  0  0  0  0  0
   26.5910   34.5700   10.9810 C   0  0  0  0  0  0  0  0  0  0  0  0
   27.5950   34.4920   13.1060 O   0  0  0  0  0  0  0  0  0  0  0  0
   30.1690   35.6440   14.8280 O   0  0  0  0  0  0  0  0  0  0  0  0
   30.2040   34.7070   15.1840 H   0  0  0  0  0  0  0  0  0  0  0  0
   32.9320   35.2190   12.5830 O   0  0  0  0  0  0  0  0  0  0  0  0
   32.4680   35.8370   11.9580 H   0  0  0  0  0  0  0  0  0  0  0  0
   30.7420   31.5600   15.7910 O   0  0  0  0  0  0  0  0  0  0  0  0
   29.7930   31.1970   16.7910 C   0  0  0  0  0  0  0  0  0  0  0  0
   28.4010   31.3620   16.3030 C   0  0  0  0  0  0  0  0  0  0  0  0
   27.5240   30.3920   15.8950 C   0  0  0  0  0  0  0  0  0  0  0  0
   27.7280   32.5380   16.1690 N   0  0  0  0  0  0  0  0  0  0  0  0
   26.3520   31.0070   15.5270 N   0  0  0  0  0  0  0  0  0  0  0  0
   26.5260   32.3010   15.7110 N   0  0  0  0  0  0  0  0  0  0  0  0
   25.1780   30.4150   14.9980 C   0  0  0  0  0  0  0  0  0  0  0  0
   24.3430   29.6000   15.6810 C   0  0  0  0  0  0  0  0  0  0  0  0
   24.9170   30.7560   13.6520 C   0  0  0  0  0  0  0  0  0  0  0  0
   23.2100   29.0980   15.0330 C   0  0  0  0  0  0  0  0  0  0  0  0
   23.8010   30.2550   13.0280 C   0  0  0  0  0  0  0  0  0  0  0  0
   22.9650   29.4310   13.7340 C   0  0  0  0  0  0  0  0  0  0  0  0
   24.5430   29.1980   17.0550 C   0  0  2  0  0  0  0  0  0  0  0  0
   24.1730   30.0470   17.9640 O   0  0  0  0  0  0  0  0  0  0  0  0
   25.1150   27.9460   17.5520 C   0  0  0  0  0  0  0  0  0  0  0  0
   29.8670   25.5550   16.9770 C   0  0  0  0  0  0  0  0  0  0  0  0
   28.3450   25.7220   17.0260 C   0  0  0  0  0  0  0  0  0  0  0  0
   27.6010   24.4040   16.8720 C   0  0  0  0  0  0  0  0  0  0  0  0
   26.6430   24.1600   18.0050 C   0  0  0  0  0  0  0  0  0  0  0  0
   25.4820   23.3020   17.5130 C   0  0  0  0  0  0  0  0  0  0  0  0
   24.4540   24.1450   16.8590 N   0  0  0  0  0  0  0  0  0  0  0  0
  1  5  1  0  0  0  0
  1  2  1  0  0  0  0
  2  3  2  0  0  0  0
  4  1  1  0  0  0  0
  6  5  1  1  0  0  0
  7  6  1  0  0  0  0
  7 27  1  1  0  0  0
  8 11  1  0  0  0  0
  8 13  1  0  0  0  0
  8  7  1  1  0  0  0
  9 16  1  6  0  0  0
  9 10  1  0  0  0  0
  9 14  1  0  0  0  0
  9 11  1  0  0  0  0
 10 12  1  0  0  0  0
 12 20  1  1  0  0  0
 13 22  1  6  0  0  0
 13 12  1  0  0  0  0
 15 14  1  0  0  0  0
 17 16  2  0  0  0  0
 18 16  1  0  0  0  0
 18 19  1  0  0  0  0
 20 21  1  0  0  0  0
 22 23  1  0  0  0  0
 23 26  2  0  0  0  0
 24 22  1  0  0  0  0
 25 23  1  0  0  0  0
 27 28  1  0  0  0  0
 29  6  1  0  0  0  0
 30 29  1  0  0  0  0
 31  2  1  0  0  0  0
 31 32  1  0  0  0  0
 33 32  1  0  0  0  0
 34 33  2  0  0  0  0
 35 33  1  0  0  0  0
 36 37  1  0  0  0  0
 36 34  1  0  0  0  0
 37 35  2  0  0  0  0
 38 36  1  0  0  0  0
 38 39  2  0  0  0  0
 39 44  1  0  0  0  0
 40 38  1  0  0  0  0
 41 39  1  0  0  0  0
 42 40  2  0  0  0  0
 42 43  1  0  0  0  0
 43 41  2  0  0  0  0
 44 46  1  6  0  0  0
 44 45  1  0  0  0  0
 47 48  1  0  0  0  0
 49 48  1  0  0  0  0
 49 50  1  0  0  0  0
 51 50  1  0  0  0  0
 52 51  1  0  0  0  0
M  END
>  <REMARK>
 VINA RESULT:    -4.603      2.280      3.609
 INTER + INTRA:         -15.039
 INTER:                  -9.293
 INTRA:                  -5.746
 UNBOUND:                -6.804
 SMILES CC(=O)N[C@@H]1[C@@H](O)C[C@](O)(C(=O)O)O[C@H]1C(O)[C@H](O)CNC(=O)OCc1cn(-c2ccccc2C(C)=O)nn1
 SMILES IDX 21 1 22 2 23 3 20 5 18 6 16 7 15 8 9 9 8 10 14 11 6 12 5 13
 SMILES IDX 10 14 11 16 12 17 13 18 7 20 4 22 2 23 1 25 3 26 17 27 19 29
 SMILES IDX 24 31 25 32 26 33 27 34 39 35 28 36 38 37 29 38 34 39 30 40
 SMILES IDX 33 41 31 42 32 43 35 44 37 45 36 46
 H PARENT 21 4 10 15 13 19 7 21 4 24 17 28 19 30
 Flexibility Score: inf
  4 active torsions:
  status: ('A' for Active; 'I' for Inactive)
    1  A    between atoms: CA   and  CB  
    2  A    between atoms: CB   and  CG  
    3  A    between atoms: CG   and  CD  
    4  A    between atoms: CD   and  CE  

>  <TORSDO>
F 16

>  <BEGIN_>
RES LYS A 131

$$$$
ligand_41_pose_5_2HRL.pdbqt
 OpenBabel07062320523D

  6  5  0  0  0  0  0  0  0  0999 V2000
   33.1930   34.6630    9.2900 C   0  0  0  0  0  0  0  0  0  0  0  0
   32.0600   35.3600   10.0340 C   0  0  0  0  0  0  0  0  0  0  0  0
   30.7170   34.7060    9.8350 C   0  0  0  0  0  0  0  0  0  0  0  0
   30.4360   34.4950    8.3550 C   0  0  0  0  0  0  0  0  0  0  0  0
   28.9950   34.8380    8.0330 C   0  0  0  0  0  0  0  0  0  0  0  0
   28.9030   35.6580    6.7930 N   0  0  0  0  0  0  0  0  0  0  0  0
  1  2  1  0  0  0  0
  3  2  1  0  0  0  0
  4  3  1  0  0  0  0
  5  4  1  0  0  0  0
  6  5  1  0  0  0  0
M  END
>  <EGIN_R>
ES LYS A 135

>  <REMARK>
  4 active torsions:
  status: ('A' for Active; 'I' for Inactive)
    5  A    between atoms: CA   and  CB  
    6  A    between atoms: CB   and  CG  
    7  A    between atoms: CG   and  CD  
    8  A    between atoms: CD   and  CE  

$$$$
