ligand_14_pose_3_2HRL.pdbqt
 OpenBabel07062320523D

 50 51  0  0  1  0  0  0  0  0999 V2000
   28.9720   33.3000   18.9780 N   0  0  0  0  0  0  0  0  0  0  0  0
   30.0140   33.3840   18.0370 C   0  0  0  0  0  0  0  0  0  0  0  0
   31.1690   33.0650   18.3460 O   0  0  0  0  0  0  0  0  0  0  0  0
   28.0130   33.6120   18.6030 H   0  0  0  0  0  0  0  0  0  0  0  0
   29.0720   32.8560   20.3320 C   0  0  0  0  0  0  0  0  0  0  0  0
   28.7060   31.4050   20.4510 C   0  0  2  0  0  0  0  0  0  0  0  0
   29.9410   30.5120   20.3870 C   0  0  1  0  0  0  0  0  0  0  0  0
   29.6180   29.2640   21.2270 C   0  0  2  0  0  0  0  0  0  0  0  0
   31.1800   28.7970   22.9130 C   0  0  2  0  0  0  0  0  0  0  0  0
   32.0380   28.2270   21.8000 C   0  0  0  0  0  0  0  0  0  0  0  0
   30.0460   29.4220   22.4980 O   0  0  0  0  0  0  0  0  0  0  0  0
   31.2270   27.3390   20.9210 C   0  0  1  0  0  0  0  0  0  0  0  0
   29.9540   28.0070   20.5120 C   0  0  1  0  0  0  0  0  0  0  0  0
   31.9870   29.8000   23.5020 O   0  0  0  0  0  0  0  0  0  0  0  0
   31.8120   29.7970   24.4910 H   0  0  0  0  0  0  0  0  0  0  0  0
   30.9250   27.7880   23.9670 C   0  0  0  0  0  0  0  0  0  0  0  0
   31.8680   27.3950   24.6880 O   0  0  0  0  0  0  0  0  0  0  0  0
   29.6580   27.2730   24.1690 O   0  0  0  0  0  0  0  0  0  0  0  0
   29.1310   27.5790   24.9750 H   0  0  0  0  0  0  0  0  0  0  0  0
   31.9990   27.0060   19.8140 O   0  0  0  0  0  0  0  0  0  0  0  0
   31.7370   26.1100   19.4680 H   0  0  0  0  0  0  0  0  0  0  0  0
   28.8280   27.0750   20.5120 N   0  0  0  0  0  0  0  0  0  0  0  0
   27.7290   27.2140   19.6550 C   0  0  0  0  0  0  0  0  0  0  0  0
   28.8760   26.2890   21.1880 H   0  0  0  0  0  0  0  0  0  0  0  0
   26.6280   26.2190   19.7240 C   0  0  0  0  0  0  0  0  0  0  0  0
   27.6750   28.1820   18.8280 O   0  0  0  0  0  0  0  0  0  0  0  0
   30.1310   30.1550   19.0560 O   0  0  0  0  0  0  0  0  0  0  0  0
   31.0560   29.9720   18.8160 H   0  0  0  0  0  0  0  0  0  0  0  0
   27.7330   30.9800   19.5750 O   0  0  0  0  0  0  0  0  0  0  0  0
   27.4540   30.0410   19.6830 H   0  0  0  0  0  0  0  0  0  0  0  0
   29.8070   33.8240   16.7270 O   0  0  0  0  0  0  0  0  0  0  0  0
   29.5770   32.8970   15.6850 C   0  0  0  0  0  0  0  0  0  0  0  0
   28.3570   32.0830   15.9110 C   0  0  0  0  0  0  0  0  0  0  0  0
   27.0660   32.3540   15.4540 C   0  0  0  0  0  0  0  0  0  0  0  0
   28.2290   30.9310   16.5930 N   0  0  0  0  0  0  0  0  0  0  0  0
   26.2180   31.3920   15.8570 N   0  0  0  0  0  0  0  0  0  0  0  0
   26.9790   30.5360   16.5560 N   0  0  0  0  0  0  0  0  0  0  0  0
   24.7960   31.2670   15.6190 C   0  0  0  0  0  0  0  0  0  0  0  0
   24.3440   29.8490   15.5180 C   0  0  0  0  0  0  0  0  0  0  0  0
   23.2240   29.6380   14.6340 N   0  0  0  0  0  0  0  0  0  0  0  0
   22.5620   30.9160   14.4370 C   0  0  0  0  0  0  0  0  0  0  0  0
   23.6420   29.2030   13.3150 C   0  0  0  0  0  0  0  0  0  0  0  0
   22.2360   31.0450   12.9840 C   0  0  0  0  0  0  0  0  0  0  0  0
   22.4670   29.6410   12.4650 C   0  0  0  0  0  0  0  0  0  0  0  0
   29.8670   25.5550   16.9770 C   0  0  0  0  0  0  0  0  0  0  0  0
   28.3450   25.7220   17.0260 C   0  0  0  0  0  0  0  0  0  0  0  0
   27.6000   24.5150   16.4770 C   0  0  0  0  0  0  0  0  0  0  0  0
   27.3160   23.4920   17.5420 C   0  0  0  0  0  0  0  0  0  0  0  0
   25.8100   23.2790   17.6530 C   0  0  0  0  0  0  0  0  0  0  0  0
   25.0790   24.3500   16.9340 N   0  0  0  0  0  0  0  0  0  0  0  0
  1  5  1  0  0  0  0
  2  3  2  0  0  0  0
  2  1  1  0  0  0  0
  4  1  1  0  0  0  0
  6  5  1  6  0  0  0
  7 27  1  6  0  0  0
  7  6  1  0  0  0  0
  8  7  1  6  0  0  0
  8 11  1  0  0  0  0
  9 14  1  1  0  0  0
  9 16  1  0  0  0  0
 10  9  1  0  0  0  0
 11  9  1  0  0  0  0
 12 20  1  6  0  0  0
 12 10  1  0  0  0  0
 13 22  1  1  0  0  0
 13 12  1  0  0  0  0
 13  8  1  0  0  0  0
 14 15  1  0  0  0  0
 16 18  1  0  0  0  0
 16 17  2  0  0  0  0
 18 19  1  0  0  0  0
 21 20  1  0  0  0  0
 22 24  1  0  0  0  0
 23 25  1  0  0  0  0
 23 22  1  0  0  0  0
 26 23  2  0  0  0  0
 28 27  1  0  0  0  0
 29 30  1  0  0  0  0
 29  6  1  0  0  0  0
 31  2  1  0  0  0  0
 32 33  1  0  0  0  0
 32 31  1  0  0  0  0
 33 35  1  0  0  0  0
 34 36  1  0  0  0  0
 34 33  2  0  0  0  0
 36 37  1  0  0  0  0
 37 35  2  0  0  0  0
 38 36  1  0  0  0  0
 39 38  1  0  0  0  0
 40 39  1  0  0  0  0
 41 40  1  0  0  0  0
 42 40  1  0  0  0  0
 43 41  1  0  0  0  0
 44 43  1  0  0  0  0
 44 42  1  0  0  0  0
 45 46  1  0  0  0  0
 47 46  1  0  0  0  0
 47 48  1  0  0  0  0
 48 49  1  0  0  0  0
 50 49  1  0  0  0  0
M  END
>  <REMARK>
 VINA RESULT:    -4.584      7.586     12.786
 INTER + INTRA:         -14.463
 INTER:                  -8.053
 INTRA:                  -6.410
 UNBOUND:                -5.994
 SMILES CC(=O)N[C@@H]1[C@@H](O)C[C@](O)(C(=O)O)O[C@H]1C(O)[C@H](O)CNC(=O)OCc1cn(CCN2CCCC2)nn1
 SMILES IDX 21 1 22 2 23 3 20 5 18 6 16 7 15 8 9 9 8 10 14 11 6 12 5 13
 SMILES IDX 10 14 11 16 12 17 13 18 7 20 4 22 2 23 1 25 3 26 17 27 19 29
 SMILES IDX 24 31 25 32 26 33 27 34 37 35 28 36 36 37 29 38 30 39 31 40
 SMILES IDX 32 41 35 42 33 43 34 44
 H PARENT 21 4 10 15 13 19 7 21 4 24 17 28 19 30
 Flexibility Score: inf
  4 active torsions:
  status: ('A' for Active; 'I' for Inactive)
    1  A    between atoms: CA   and  CB  
    2  A    between atoms: CB   and  CG  
    3  A    between atoms: CG   and  CD  
    4  A    between atoms: CD   and  CE  

>  <TORSDO>
F 17

>  <BEGIN_>
RES LYS A 131

$$$$
ligand_14_pose_3_2HRL.pdbqt
 OpenBabel07062320523D

  6  5  0  0  0  0  0  0  0  0999 V2000
   33.1930   34.6630    9.2900 C   0  0  0  0  0  0  0  0  0  0  0  0
   32.0600   35.3600   10.0340 C   0  0  0  0  0  0  0  0  0  0  0  0
   30.8010   35.5030    9.2180 C   0  0  0  0  0  0  0  0  0  0  0  0
   30.1310   34.1510    9.0250 C   0  0  0  0  0  0  0  0  0  0  0  0
   28.6730   34.3290    8.6460 C   0  0  0  0  0  0  0  0  0  0  0  0
   27.7790   33.6300    9.6090 N   0  0  0  0  0  0  0  0  0  0  0  0
  1  2  1  0  0  0  0
  3  2  1  0  0  0  0
  4  3  1  0  0  0  0
  5  4  1  0  0  0  0
  5  6  1  0  0  0  0
M  END
>  <EGIN_R>
ES LYS A 135

>  <REMARK>
  4 active torsions:
  status: ('A' for Active; 'I' for Inactive)
    5  A    between atoms: CA   and  CB  
    6  A    between atoms: CB   and  CG  
    7  A    between atoms: CG   and  CD  
    8  A    between atoms: CD   and  CE  

$$$$
