ligand_27_pose_7_2HRL.pdbqt
 OpenBabel07062320523D

 50 51  0  0  1  0  0  0  0  0999 V2000
   26.4880   35.9900   15.3280 C   0  0  0  0  0  0  0  0  0  0  0  0
   27.9860   36.0690   15.2510 C   0  0  2  0  0  0  0  0  0  0  0  0
   28.6650   34.7850   15.6320 C   0  0  2  0  0  0  0  0  0  0  0  0
   30.1370   35.0280   15.9730 C   0  0  2  0  0  0  0  0  0  0  0  0
   31.5470   34.7450   14.1120 C   0  0  2  0  0  0  0  0  0  0  0  0
   32.4730   33.9020   14.9770 C   0  0  0  0  0  0  0  0  0  0  0  0
   30.7480   35.5130   14.8860 O   0  0  0  0  0  0  0  0  0  0  0  0
   31.5270   32.9440   15.6980 C   0  0  1  0  0  0  0  0  0  0  0  0
   30.6720   33.7900   16.6010 C   0  0  1  0  0  0  0  0  0  0  0  0
   30.8700   33.8490   13.2940 O   0  0  0  0  0  0  0  0  0  0  0  0
   31.3810   33.7450   12.4540 H   0  0  0  0  0  0  0  0  0  0  0  0
   32.3600   35.6380   13.2530 C   0  0  0  0  0  0  0  0  0  0  0  0
   32.1550   36.8720   13.2930 O   0  0  0  0  0  0  0  0  0  0  0  0
   33.3470   35.1650   12.4000 O   0  0  0  0  0  0  0  0  0  0  0  0
   33.1170   35.0570   11.4070 H   0  0  0  0  0  0  0  0  0  0  0  0
   30.6880   32.2860   14.8050 O   0  0  0  0  0  0  0  0  0  0  0  0
   30.1980   32.9210   14.2090 H   0  0  0  0  0  0  0  0  0  0  0  0
   31.4740   34.1050   17.7650 N   0  0  0  0  0  0  0  0  0  0  0  0
   31.1460   33.5290   19.0190 C   0  0  0  0  0  0  0  0  0  0  0  0
   32.3050   34.7620   17.7020 H   0  0  0  0  0  0  0  0  0  0  0  0
   31.9730   33.8570   20.2090 C   0  0  0  0  0  0  0  0  0  0  0  0
   30.1640   32.7480   19.1130 O   0  0  0  0  0  0  0  0  0  0  0  0
   28.5780   33.9420   14.5030 O   0  0  0  0  0  0  0  0  0  0  0  0
   29.4500   33.7900   14.1130 H   0  0  0  0  0  0  0  0  0  0  0  0
   28.4290   37.0870   16.1130 O   0  0  0  0  0  0  0  0  0  0  0  0
   29.2560   37.4600   15.7580 H   0  0  0  0  0  0  0  0  0  0  0  0
   26.0860   34.6770   15.8190 N   0  0  0  0  0  0  0  0  0  0  0  0
   25.2060   33.8610   15.0660 C   0  0  0  0  0  0  0  0  0  0  0  0
   26.4640   34.3620   16.7340 H   0  0  0  0  0  0  0  0  0  0  0  0
   24.7730   34.2830   13.9640 O   0  0  0  0  0  0  0  0  0  0  0  0
   24.7980   32.6080   15.4950 O   0  0  0  0  0  0  0  0  0  0  0  0
   25.4220   31.4740   14.9350 C   0  0  0  0  0  0  0  0  0  0  0  0
   26.5420   31.0460   15.8130 C   0  0  0  0  0  0  0  0  0  0  0  0
   26.4550   30.2200   16.9200 C   0  0  0  0  0  0  0  0  0  0  0  0
   27.8460   31.3640   15.7210 N   0  0  0  0  0  0  0  0  0  0  0  0
   27.6860   30.0600   17.4610 N   0  0  0  0  0  0  0  0  0  0  0  0
   28.5060   30.7710   16.7050 N   0  0  0  0  0  0  0  0  0  0  0  0
   28.0210   29.2870   18.6060 C   0  0  0  0  0  0  0  0  0  0  0  0
   27.5000   28.0180   18.7360 C   0  0  0  0  0  0  0  0  0  0  0  0
   28.8500   29.7410   19.6110 C   0  0  0  0  0  0  0  0  0  0  0  0
   27.7960   27.2270   19.8340 C   0  0  0  0  0  0  0  0  0  0  0  0
   29.1660   28.9820   20.7160 C   0  0  0  0  0  0  0  0  0  0  0  0
   28.6280   27.7150   20.8170 C   0  0  0  0  0  0  0  0  0  0  0  0
   30.2350   29.6040   21.9830 Cl  0  0  0  0  0  0  0  0  0  0  0  0
   29.8670   25.5550   16.9770 C   0  0  0  0  0  0  0  0  0  0  0  0
   28.3450   25.7220   17.0260 C   0  0  0  0  0  0  0  0  0  0  0  0
   27.6000   24.4070   16.8550 C   0  0  0  0  0  0  0  0  0  0  0  0
   26.7280   24.0910   18.0380 C   0  0  0  0  0  0  0  0  0  0  0  0
   25.5530   23.2290   17.5890 C   0  0  0  0  0  0  0  0  0  0  0  0
   24.5140   24.0650   16.9430 N   0  0  0  0  0  0  0  0  0  0  0  0
  1 27  1  0  0  0  0
  2  1  1  1  0  0  0
  2  3  1  0  0  0  0
  2 25  1  0  0  0  0
  3 23  1  6  0  0  0
  4  3  1  6  0  0  0
  4  9  1  0  0  0  0
  5 12  1  6  0  0  0
  5  7  1  0  0  0  0
  5  6  1  0  0  0  0
  6  8  1  0  0  0  0
  7  4  1  0  0  0  0
  8 16  1  6  0  0  0
  8  9  1  0  0  0  0
  9 18  1  1  0  0  0
 10  5  1  0  0  0  0
 11 10  1  0  0  0  0
 12 13  2  0  0  0  0
 14 12  1  0  0  0  0
 15 14  1  0  0  0  0
 17 16  1  0  0  0  0
 18 19  1  0  0  0  0
 19 22  2  0  0  0  0
 19 21  1  0  0  0  0
 20 18  1  0  0  0  0
 24 23  1  0  0  0  0
 26 25  1  0  0  0  0
 27 29  1  0  0  0  0
 28 31  1  0  0  0  0
 28 27  1  0  0  0  0
 30 28  2  0  0  0  0
 32 31  1  0  0  0  0
 32 33  1  0  0  0  0
 33 34  2  0  0  0  0
 34 36  1  0  0  0  0
 35 33  1  0  0  0  0
 35 37  2  0  0  0  0
 36 38  1  0  0  0  0
 37 36  1  0  0  0  0
 38 39  2  0  0  0  0
 38 40  1  0  0  0  0
 39 41  1  0  0  0  0
 40 42  2  0  0  0  0
 41 43  2  0  0  0  0
 42 43  1  0  0  0  0
 42 44  1  0  0  0  0
 45 46  1  0  0  0  0
 47 46  1  0  0  0  0
 47 48  1  0  0  0  0
 49 48  1  0  0  0  0
 50 49  1  0  0  0  0
M  END
>  <REMARK>
 VINA RESULT:    -5.649      3.700      7.096
 INTER + INTRA:         -14.273
 INTER:                  -8.188
 INTRA:                  -6.085
 UNBOUND:                -4.497
 SMILES CC(=O)N[C@@H]1[C@@H](O)C[C@](O)(C(=O)O)O[C@H]1C(O)[C@H](O)CNC(=O)OCc1cn(-c2cccc(Cl)c2)nn1
 SMILES IDX 20 1 18 2 16 3 15 4 9 5 8 6 14 7 6 8 5 9 10 10 11 12 12 13
 SMILES IDX 13 14 7 16 4 18 2 19 1 21 3 22 17 23 19 25 21 27 22 28 23 30
 SMILES IDX 24 31 25 32 26 33 27 34 37 35 28 36 36 37 29 38 30 39 35 40
 SMILES IDX 31 41 33 42 32 43 34 44
 H PARENT 10 11 13 15 7 17 4 20 17 24 19 26 21 29
 Flexibility Score: inf
  4 active torsions:
  status: ('A' for Active; 'I' for Inactive)
    1  A    between atoms: CA   and  CB  
    2  A    between atoms: CB   and  CG  
    3  A    between atoms: CG   and  CD  
    4  A    between atoms: CD   and  CE  

>  <TORSDO>
F 15

>  <BEGIN_>
RES LYS A 131

$$$$
ligand_27_pose_7_2HRL.pdbqt
 OpenBabel07062320523D

  6  5  0  0  0  0  0  0  0  0999 V2000
   33.1930   34.6630    9.2900 C   0  0  0  0  0  0  0  0  0  0  0  0
   32.0600   35.3600   10.0340 C   0  0  0  0  0  0  0  0  0  0  0  0
   30.7150   34.7130    9.8260 C   0  0  0  0  0  0  0  0  0  0  0  0
   30.4600   34.4700    8.3460 C   0  0  0  0  0  0  0  0  0  0  0  0
   29.0890   34.9820    7.9500 C   0  0  0  0  0  0  0  0  0  0  0  0
   28.8770   36.3750    8.4330 N   0  0  0  0  0  0  0  0  0  0  0  0
  1  2  1  0  0  0  0
  3  2  1  0  0  0  0
  4  3  1  0  0  0  0
  5  4  1  0  0  0  0
  5  6  1  0  0  0  0
M  END
>  <EGIN_R>
ES LYS A 135

>  <REMARK>
  4 active torsions:
  status: ('A' for Active; 'I' for Inactive)
    5  A    between atoms: CA   and  CB  
    6  A    between atoms: CB   and  CG  
    7  A    between atoms: CG   and  CD  
    8  A    between atoms: CD   and  CE  

$$$$
