ligand_80_pose_13_2HRL.pdbqt
 OpenBabel07062320523D

 56 54  0  0  1  0  0  0  0  0999 V2000
   24.6480   32.5570   19.5940 O   0  0  0  0  0  0  0  0  0  0  0  0
   24.5210   33.7160   18.8670 C   0  0  0  0  0  0  0  0  0  0  0  0
   23.4790   33.8390   17.8870 N   0  0  0  0  0  0  0  0  0  0  0  0
   22.8500   33.0100   17.7780 H   0  0  0  0  0  0  0  0  0  0  0  0
   25.2940   34.6940   19.0240 O   0  0  0  0  0  0  0  0  0  0  0  0
   23.3110   35.0440   17.0960 C   0  0  0  0  0  0  0  0  0  0  0  0
   23.4120   34.6720   15.6370 C   0  0  2  0  0  0  0  0  0  0  0  0
   24.8160   34.8320   15.0930 C   0  0  2  0  0  0  0  0  0  0  0  0
   25.4550   33.4580   14.8410 C   0  0  2  0  0  0  0  0  0  0  0  0
   24.9640   31.2540   15.4750 C   0  0  2  0  0  0  0  0  0  0  0  0
   26.4450   31.0350   15.4800 C   0  0  0  0  0  0  0  0  0  0  0  0
   24.5540   32.5260   15.1860 O   0  0  0  0  0  0  0  0  0  0  0  0
   27.0370   32.1680   16.3020 C   0  0  1  0  0  0  0  0  0  0  0  0
   26.7610   33.4550   15.5660 C   0  0  1  0  0  0  0  0  0  0  0  0
   24.4800   30.9800   16.7720 O   0  0  0  0  0  0  0  0  0  0  0  0
   24.7320   31.7720   17.3120 H   0  0  0  0  0  0  0  0  0  0  0  0
   24.2590   30.3290   14.5510 C   0  0  0  0  0  0  0  0  0  0  0  0
   23.4620   29.4880   15.0170 O   0  0  0  0  0  0  0  0  0  0  0  0
   24.4530   30.3660   13.1730 O   0  0  0  0  0  0  0  0  0  0  0  0
   24.6880   31.2860   12.7720 H   0  0  0  0  0  0  0  0  0  0  0  0
   26.3590   32.1930   17.5160 O   0  0  0  0  0  0  0  0  0  0  0  0
   26.1610   31.2590   17.7660 H   0  0  0  0  0  0  0  0  0  0  0  0
   27.8160   33.6110   14.5810 N   0  0  0  0  0  0  0  0  0  0  0  0
   28.6320   34.7690   14.4820 C   0  0  0  0  0  0  0  0  0  0  0  0
   27.9920   32.8160   13.8930 H   0  0  0  0  0  0  0  0  0  0  0  0
   29.6780   34.8120   13.4330 C   0  0  0  0  0  0  0  0  0  0  0  0
   28.4320   35.7130   15.2900 O   0  0  0  0  0  0  0  0  0  0  0  0
   25.5560   35.4700   16.0950 O   0  0  0  0  0  0  0  0  0  0  0  0
   25.3550   36.4260   16.1790 H   0  0  0  0  0  0  0  0  0  0  0  0
   22.5020   35.3870   14.8680 O   0  0  0  0  0  0  0  0  0  0  0  0
   21.6560   35.5500   15.3340 H   0  0  0  0  0  0  0  0  0  0  0  0
   24.7490   32.5710   21.0080 C   0  0  0  0  0  0  0  0  0  0  0  0
   26.1390   32.2930   21.4510 C   0  0  0  0  0  0  0  0  0  0  0  0
   27.0900   31.6070   20.6870 C   0  0  0  0  0  0  0  0  0  0  0  0
   26.7700   32.6020   22.5980 N   0  0  0  0  0  0  0  0  0  0  0  0
   28.2340   31.5280   21.3860 N   0  0  0  0  0  0  0  0  0  0  0  0
   28.0040   32.1370   22.5280 N   0  0  0  0  0  0  0  0  0  0  0  0
   29.4640   30.8930   20.9680 *   0  0  0  0  0  0  0  0  0  0  0  0
   29.2650   30.0810   19.7360 C   0  0  0  0  0  0  0  0  0  0  0  0
   29.4180   30.3840   18.3620 N   0  0  0  0  0  0  0  0  0  0  0  0
   28.8890   28.9100   19.9950 O   0  0  0  0  0  0  0  0  0  0  0  0
   28.9840   29.7530   17.6540 H   0  0  0  0  0  0  0  0  0  0  0  0
   30.1280   31.4970   17.7890 C   0  0  0  0  0  0  0  0  0  0  0  0
   30.4790   32.6770   18.4190 C   0  0  0  0  0  0  0  0  0  0  0  0
   30.4420   31.2490   16.4670 C   0  0  0  0  0  0  0  0  0  0  0  0
   31.1550   33.6160   17.7040 C   0  0  0  0  0  0  0  0  0  0  0  0
   31.1280   32.2010   15.7450 C   0  0  0  0  0  0  0  0  0  0  0  0
   31.4760   33.3750   16.3740 C   0  0  0  0  0  0  0  0  0  0  0  0
   30.1940   33.0500   19.8310 C   0  0  0  0  0  0  0  0  0  0  0  0
   30.5610   31.9440   20.8060 *   0  0  0  0  0  0  0  0  0  0  0  0
   29.8670   25.5550   16.9770 C   0  0  0  0  0  0  0  0  0  0  0  0
   28.3450   25.7220   17.0260 C   0  0  0  0  0  0  0  0  0  0  0  0
   27.6020   24.3990   16.9190 C   0  0  0  0  0  0  0  0  0  0  0  0
   26.5500   24.2530   17.9830 C   0  0  0  0  0  0  0  0  0  0  0  0
   25.1830   24.5930   17.3980 C   0  0  0  0  0  0  0  0  0  0  0  0
   24.8340   26.0050   17.6830 N   0  0  0  0  0  0  0  0  0  0  0  0
  1 32  1  0  0  0  0
  2  5  2  0  0  0  0
  2  1  1  0  0  0  0
  3  2  1  0  0  0  0
  4  3  1  0  0  0  0
  6  3  1  0  0  0  0
  7  6  1  1  0  0  0
  8  7  1  0  0  0  0
  8 28  1  1  0  0  0
  9  8  1  1  0  0  0
  9 12  1  0  0  0  0
  9 14  1  0  0  0  0
 10 17  1  6  0  0  0
 10 11  1  0  0  0  0
 10 15  1  0  0  0  0
 11 13  1  0  0  0  0
 12 10  1  0  0  0  0
 13 21  1  1  0  0  0
 14 23  1  6  0  0  0
 14 13  1  0  0  0  0
 15 16  1  0  0  0  0
 17 18  2  0  0  0  0
 19 17  1  0  0  0  0
 20 19  1  0  0  0  0
 21 22  1  0  0  0  0
 24 23  1  0  0  0  0
 24 27  2  0  0  0  0
 25 23  1  0  0  0  0
 26 24  1  0  0  0  0
 28 29  1  0  0  0  0
 30 31  1  0  0  0  0
 30  7  1  0  0  0  0
 32 33  1  0  0  0  0
 33 35  1  0  0  0  0
 34 36  1  0  0  0  0
 34 33  2  0  0  0  0
 36 37  2  0  0  0  0
 37 35  1  0  0  0  0
 39 41  2  0  0  0  0
 40 39  1  0  0  0  0
 42 40  1  0  0  0  0
 43 40  1  0  0  0  0
 43 44  1  0  0  0  0
 44 49  1  0  0  0  0
 45 43  2  0  0  0  0
 46 44  2  0  0  0  0
 47 48  2  0  0  0  0
 47 45  1  0  0  0  0
 48 46  1  0  0  0  0
 51 52  1  0  0  0  0
 53 52  1  0  0  0  0
 53 54  1  0  0  0  0
 55 56  1  0  0  0  0
 55 54  1  0  0  0  0
M  END
>  <REMARK>
 VINA RESULT:    -9.100      4.068      7.945
 INTER + INTRA:         -13.323
 INTER:                  -6.486
 INTRA:                  -6.837
 UNBOUND:                 4.555
 SMILES CC(=O)N[C@@H]1[C@@H](O)C[C@](O)(C(=O)O)O[C@H]1C(O)[C@H](O)CNC(=O)OCc1cn(C2CCc3ccccc3NC2=O)nn1
 SMILES IDX 24 1 22 2 21 3 23 5 20 6 18 7 16 8 15 9 9 10 8 11 14 12 6 13
 SMILES IDX 5 14 10 15 11 17 12 18 13 19 7 21 4 23 2 24 1 26 3 27 17 28
 SMILES IDX 19 30 25 32 26 33 27 34 42 35 28 36 41 37 29 38 39 40 38 41
 SMILES IDX 40 42 37 44 32 45 36 46 33 47 35 48 34 49 31 50 30 51
 H PARENT 21 4 10 16 13 20 7 22 4 25 17 29 19 31 38 43
 Flexibility Score: 80.00
  4 active torsions:
  status: ('A' for Active; 'I' for Inactive)
    1  A    between atoms: CA   and  CB  
    2  A    between atoms: CB   and  CG  
    3  A    between atoms: CG   and  CD  
    4  A    between atoms: CD   and  CE  

>  <TORSDO>
F 15

>  <BEGIN_>
RES LYS A 131

$$$$
ligand_80_pose_13_2HRL.pdbqt
 OpenBabel07062320523D

  6  5  0  0  0  0  0  0  0  0999 V2000
   33.1930   34.6630    9.2900 C   0  0  0  0  0  0  0  0  0  0  0  0
   32.0600   35.3600   10.0340 C   0  0  0  0  0  0  0  0  0  0  0  0
   30.7280   34.6710    9.8850 C   0  0  0  0  0  0  0  0  0  0  0  0
   30.3640   34.5190    8.4160 C   0  0  0  0  0  0  0  0  0  0  0  0
   28.9870   35.0930    8.1460 C   0  0  0  0  0  0  0  0  0  0  0  0
   28.8900   35.6270    6.7590 N   0  0  0  0  0  0  0  0  0  0  0  0
  1  2  1  0  0  0  0
  3  2  1  0  0  0  0
  4  3  1  0  0  0  0
  5  4  1  0  0  0  0
  6  5  1  0  0  0  0
M  END
>  <EGIN_R>
ES LYS A 135

>  <REMARK>
  4 active torsions:
  status: ('A' for Active; 'I' for Inactive)
    5  A    between atoms: CA   and  CB  
    6  A    between atoms: CB   and  CG  
    7  A    between atoms: CG   and  CD  
    8  A    between atoms: CD   and  CE  

$$$$
