ligand_62_pose_11_2HRL.pdbqt
 OpenBabel07062320523D

 52 52  0  0  1  0  0  0  0  0999 V2000
   30.4820   38.9160   12.0880 N   0  0  0  0  0  0  0  0  0  0  0  0
   31.5380   37.9860   12.0070 C   0  0  0  0  0  0  0  0  0  0  0  0
   32.2760   37.9030   10.9990 O   0  0  0  0  0  0  0  0  0  0  0  0
   29.9220   38.9130   12.9780 H   0  0  0  0  0  0  0  0  0  0  0  0
   30.1070   39.8510   11.0840 C   0  0  0  0  0  0  0  0  0  0  0  0
   29.2900   39.3520    9.9490 C   0  0  2  0  0  0  0  0  0  0  0  0
   28.3390   38.2430   10.3440 C   0  0  2  0  0  0  0  0  0  0  0  0
   27.5340   37.6740    9.2190 C   0  0  2  0  0  0  0  0  0  0  0  0
   26.8670   38.2240    7.0730 C   0  0  2  0  0  0  0  0  0  0  0  0
   26.4480   36.7800    7.1610 C   0  0  0  0  0  0  0  0  0  0  0  0
   27.5220   38.6610    8.2110 O   0  0  0  0  0  0  0  0  0  0  0  0
   25.6230   36.4660    8.3580 C   0  0  1  0  0  0  0  0  0  0  0  0
   26.1130   37.3420    9.5210 C   0  0  1  0  0  0  0  0  0  0  0  0
   25.7610   38.9920    6.7550 O   0  0  0  0  0  0  0  0  0  0  0  0
   25.8040   39.9130    7.1130 H   0  0  0  0  0  0  0  0  0  0  0  0
   27.8270   38.3340    5.9410 C   0  0  0  0  0  0  0  0  0  0  0  0
   29.0400   38.6330    6.1240 O   0  0  0  0  0  0  0  0  0  0  0  0
   27.4400   38.1120    4.6150 O   0  0  0  0  0  0  0  0  0  0  0  0
   27.1590   37.1960    4.2900 H   0  0  0  0  0  0  0  0  0  0  0  0
   24.2570   36.6530    8.1510 O   0  0  0  0  0  0  0  0  0  0  0  0
   24.0840   36.4350    7.1950 H   0  0  0  0  0  0  0  0  0  0  0  0
   25.8490   36.6010   10.7060 N   0  0  0  0  0  0  0  0  0  0  0  0
   24.6300   36.7560   11.4690 C   0  0  0  0  0  0  0  0  0  0  0  0
   26.5090   35.8940   11.0940 H   0  0  0  0  0  0  0  0  0  0  0  0
   24.3980   35.9620   12.6970 C   0  0  0  0  0  0  0  0  0  0  0  0
   23.7690   37.5600   11.0910 O   0  0  0  0  0  0  0  0  0  0  0  0
   27.3830   38.9010   11.1790 O   0  0  0  0  0  0  0  0  0  0  0  0
   26.7860   39.4580   10.6530 H   0  0  0  0  0  0  0  0  0  0  0  0
   30.1150   38.8180    8.9620 O   0  0  0  0  0  0  0  0  0  0  0  0
   29.5800   38.5870    8.1660 H   0  0  0  0  0  0  0  0  0  0  0  0
   31.8070   37.1130   13.0570 O   0  0  0  0  0  0  0  0  0  0  0  0
   32.4460   35.8810   12.8480 C   0  0  0  0  0  0  0  0  0  0  0  0
   31.9940   34.8790   13.8290 C   0  0  0  0  0  0  0  0  0  0  0  0
   30.8420   34.1170   13.7870 C   0  0  0  0  0  0  0  0  0  0  0  0
   32.6590   34.5450   14.9560 N   0  0  0  0  0  0  0  0  0  0  0  0
   30.8490   33.3560   14.8750 N   0  0  0  0  0  0  0  0  0  0  0  0
   31.9230   33.6110   15.5640 N   0  0  0  0  0  0  0  0  0  0  0  0
   29.8240   32.3860   15.2520 C   0  0  1  0  0  0  0  0  0  0  0  0
   30.3830   31.4940   16.3240 C   0  0  0  0  0  0  0  0  0  0  0  0
   29.4270   31.2040   17.2700 O   0  0  0  0  0  0  0  0  0  0  0  0
   29.9190   30.9850   18.5390 C   0  0  0  0  0  0  0  0  0  0  0  0
   28.6460   33.1250   15.8140 C   0  0  0  0  0  0  0  0  0  0  0  0
   27.5060   32.9340   15.3680 O   0  0  0  0  0  0  0  0  0  0  0  0
   28.8880   34.0450   16.8690 N   0  0  0  0  0  0  0  0  0  0  0  0
   28.1030   34.2730   17.5220 H   0  0  0  0  0  0  0  0  0  0  0  0
   29.8110   34.4780   16.9920 H   0  0  0  0  0  0  0  0  0  0  0  0
   29.8670   25.5550   16.9770 C   0  0  0  0  0  0  0  0  0  0  0  0
   28.3450   25.7220   17.0260 C   0  0  0  0  0  0  0  0  0  0  0  0
   27.6000   24.4120   16.8220 C   0  0  0  0  0  0  0  0  0  0  0  0
   26.1710   24.4950   17.2830 C   0  0  0  0  0  0  0  0  0  0  0  0
   25.7040   23.1180   17.7430 C   0  0  0  0  0  0  0  0  0  0  0  0
   24.3440   22.8320   17.2280 N   0  0  0  0  0  0  0  0  0  0  0  0
  1  4  1  0  0  0  0
  2  1  1  0  0  0  0
  2 31  1  0  0  0  0
  3  2  2  0  0  0  0
  5  1  1  0  0  0  0
  6  7  1  0  0  0  0
  6  5  1  1  0  0  0
  7 27  1  1  0  0  0
  8 13  1  0  0  0  0
  8  7  1  1  0  0  0
  9 16  1  6  0  0  0
  9 10  1  0  0  0  0
  9 11  1  0  0  0  0
 10 12  1  0  0  0  0
 11  8  1  0  0  0  0
 12 20  1  6  0  0  0
 12 13  1  0  0  0  0
 13 22  1  1  0  0  0
 14  9  1  0  0  0  0
 14 15  1  0  0  0  0
 16 17  2  0  0  0  0
 18 16  1  0  0  0  0
 19 18  1  0  0  0  0
 21 20  1  0  0  0  0
 22 24  1  0  0  0  0
 22 23  1  0  0  0  0
 23 25  1  0  0  0  0
 26 23  2  0  0  0  0
 28 27  1  0  0  0  0
 29  6  1  0  0  0  0
 30 29  1  0  0  0  0
 32 31  1  0  0  0  0
 32 33  1  0  0  0  0
 33 35  1  0  0  0  0
 34 33  2  0  0  0  0
 34 36  1  0  0  0  0
 35 37  2  0  0  0  0
 36 38  1  0  0  0  0
 36 37  1  0  0  0  0
 38 42  1  0  0  0  0
 38 39  1  1  0  0  0
 39 40  1  0  0  0  0
 40 41  1  0  0  0  0
 42 44  1  0  0  0  0
 43 42  2  0  0  0  0
 44 46  1  0  0  0  0
 44 45  1  0  0  0  0
 47 48  1  0  0  0  0
 49 48  1  0  0  0  0
 49 50  1  0  0  0  0
 50 51  1  0  0  0  0
 52 51  1  0  0  0  0
M  END
>  <REMARK>
 VINA RESULT:    -4.000      3.553     10.843
 INTER + INTRA:         -14.377
 INTER:                  -8.220
 INTRA:                  -6.158
 UNBOUND:                -6.753
 SMILES COCC(C(N)=O)n1cc(COC(=O)NC[C@@H](O)C(O)[C@@H]2O[C@@](O)(C(=O)O)C[C@H](O)[C@H]2NC(C)=O)nn1
 SMILES IDX 15 1 13 2 14 3 16 5 17 6 19 7 21 8 23 9 28 10 22 11 29 12
 SMILES IDX 31 13 24 14 25 16 26 17 27 18 30 20 32 22 33 23 34 25 35 26
 SMILES IDX 20 27 18 29 12 31 11 32 10 33 9 34 36 35 8 36 37 37 4 38
 SMILES IDX 3 39 2 40 1 41 5 42 7 43 6 44
 H PARENT 15 4 24 15 27 19 30 21 32 24 20 28 18 30 6 45 6 46
 Flexibility Score: inf
  4 active torsions:
  status: ('A' for Active; 'I' for Inactive)
    1  A    between atoms: CA   and  CB  
    2  A    between atoms: CB   and  CG  
    3  A    between atoms: CG   and  CD  
    4  A    between atoms: CD   and  CE  

>  <TORSDO>
F 18

>  <BEGIN_>
RES LYS A 131

$$$$
ligand_62_pose_11_2HRL.pdbqt
 OpenBabel07062320523D

  6  5  0  0  0  0  0  0  0  0999 V2000
   33.1930   34.6630    9.2900 C   0  0  0  0  0  0  0  0  0  0  0  0
   32.0600   35.3600   10.0340 C   0  0  0  0  0  0  0  0  0  0  0  0
   30.7900   35.4700    9.2310 C   0  0  0  0  0  0  0  0  0  0  0  0
   30.1600   34.1000    9.0310 C   0  0  0  0  0  0  0  0  0  0  0  0
   28.7020   34.2360    8.6390 C   0  0  0  0  0  0  0  0  0  0  0  0
   27.8070   33.7380    9.7210 N   0  0  0  0  0  0  0  0  0  0  0  0
  1  2  1  0  0  0  0
  3  2  1  0  0  0  0
  4  3  1  0  0  0  0
  5  4  1  0  0  0  0
  5  6  1  0  0  0  0
M  END
>  <EGIN_R>
ES LYS A 135

>  <REMARK>
  4 active torsions:
  status: ('A' for Active; 'I' for Inactive)
    5  A    between atoms: CA   and  CB  
    6  A    between atoms: CB   and  CG  
    7  A    between atoms: CG   and  CD  
    8  A    between atoms: CD   and  CE  

$$$$
