ligand_75_pose_8_2HRL.pdbqt
 OpenBabel07062320523D

 55 56  0  0  1  0  0  0  0  0999 V2000
   19.4900   35.6340    9.6050 N   0  0  0  0  0  0  0  0  0  0  0  0
   20.8830   35.3970    9.5760 C   0  0  0  0  0  0  0  0  0  0  0  0
   21.5710   35.5380    8.5440 O   0  0  0  0  0  0  0  0  0  0  0  0
   19.0100   35.4660   10.5550 H   0  0  0  0  0  0  0  0  0  0  0  0
   18.6810   36.0710    8.5030 C   0  0  0  0  0  0  0  0  0  0  0  0
   18.2020   34.9100    7.6920 C   0  0  2  0  0  0  0  0  0  0  0  0
   17.6950   33.7460    8.5220 C   0  0  2  0  0  0  0  0  0  0  0  0
   17.4360   32.5570    7.6710 C   0  0  2  0  0  0  0  0  0  0  0  0
   16.4530   31.6030    5.8120 C   0  0  2  0  0  0  0  0  0  0  0  0
   17.2280   30.4020    6.2760 C   0  0  0  0  0  0  0  0  0  0  0  0
   16.7530   32.7550    6.5130 O   0  0  0  0  0  0  0  0  0  0  0  0
   17.1880   30.1420    7.7360 C   0  0  1  0  0  0  0  0  0  0  0  0
   16.8150   31.4100    8.4660 C   0  0  1  0  0  0  0  0  0  0  0  0
   15.0910   31.3030    5.8180 O   0  0  0  0  0  0  0  0  0  0  0  0
   14.7600   31.0330    4.9340 H   0  0  0  0  0  0  0  0  0  0  0  0
   16.8350   31.8480    4.3930 C   0  0  0  0  0  0  0  0  0  0  0  0
   16.4070   31.0560    3.4860 O   0  0  0  0  0  0  0  0  0  0  0  0
   17.6430   32.9110    4.0160 O   0  0  0  0  0  0  0  0  0  0  0  0
   17.8280   33.6930    4.6120 H   0  0  0  0  0  0  0  0  0  0  0  0
   16.3600   29.0810    8.0910 O   0  0  0  0  0  0  0  0  0  0  0  0
   16.7680   28.5730    8.8110 H   0  0  0  0  0  0  0  0  0  0  0  0
   17.2200   31.4030    9.8370 N   0  0  0  0  0  0  0  0  0  0  0  0
   16.3880   30.9140   10.8780 C   0  0  0  0  0  0  0  0  0  0  0  0
   18.1730   31.7690   10.1340 H   0  0  0  0  0  0  0  0  0  0  0  0
   16.8490   30.9270   12.2790 C   0  0  0  0  0  0  0  0  0  0  0  0
   15.2440   30.4620   10.6250 O   0  0  0  0  0  0  0  0  0  0  0  0
   16.6420   34.1120    9.3540 O   0  0  0  0  0  0  0  0  0  0  0  0
   15.9610   33.4060    9.3070 H   0  0  0  0  0  0  0  0  0  0  0  0
   19.1900   34.4380    6.8250 O   0  0  0  0  0  0  0  0  0  0  0  0
   19.4810   35.1910    6.2410 H   0  0  0  0  0  0  0  0  0  0  0  0
   21.5710   34.9810   10.7360 O   0  0  0  0  0  0  0  0  0  0  0  0
   22.5140   35.8340   11.3030 C   0  0  0  0  0  0  0  0  0  0  0  0
   23.9050   35.3470   11.1400 C   0  0  0  0  0  0  0  0  0  0  0  0
   24.7760   35.4780   10.0850 C   0  0  0  0  0  0  0  0  0  0  0  0
   24.5800   34.6500   12.0690 N   0  0  0  0  0  0  0  0  0  0  0  0
   25.9490   34.8670   10.3860 N   0  0  0  0  0  0  0  0  0  0  0  0
   25.7970   34.3730   11.6000 N   0  0  0  0  0  0  0  0  0  0  0  0
   27.0880   34.8000    9.5260 C   0  0  0  0  0  0  0  0  0  0  0  0
   27.0620   35.3450    8.2690 C   0  0  0  0  0  0  0  0  0  0  0  0
   28.2390   34.1780    9.9490 C   0  0  0  0  0  0  0  0  0  0  0  0
   28.1910   35.2820    7.4050 C   0  0  0  0  0  0  0  0  0  0  0  0
   29.3540   34.0840    9.1710 C   0  0  0  0  0  0  0  0  0  0  0  0
   29.3080   34.6510    7.8850 C   0  0  0  0  0  0  0  0  0  0  0  0
   28.1160   35.9030    6.1290 C   0  0  0  0  0  0  0  0  0  0  0  0
   27.8350   37.0410    5.6250 C   0  0  0  0  0  0  0  0  0  0  0  0
   27.4470   38.3020    6.1170 C   0  0  0  0  0  0  0  0  0  0  0  0
   28.4000   39.1080    6.5820 O   0  0  0  0  0  0  0  0  0  0  0  0
   26.2230   38.9120    6.2300 O   0  0  0  0  0  0  0  0  0  0  0  0
   25.3670   38.4140    6.4180 H   0  0  0  0  0  0  0  0  0  0  0  0
   29.8670   25.5550   16.9770 C   0  0  0  0  0  0  0  0  0  0  0  0
   28.3450   25.7220   17.0260 C   0  0  0  0  0  0  0  0  0  0  0  0
   27.5990   24.4310   16.7250 C   0  0  0  0  0  0  0  0  0  0  0  0
   26.9650   23.8440   17.9550 C   0  0  0  0  0  0  0  0  0  0  0  0
   25.6510   24.5630   18.2440 C   0  0  0  0  0  0  0  0  0  0  0  0
   25.7730   25.3950   19.4650 N   0  0  0  0  0  0  0  0  0  0  0  0
  1  4  1  0  0  0  0
  2  1  1  0  0  0  0
  2 31  1  0  0  0  0
  3  2  2  0  0  0  0
  5  1  1  0  0  0  0
  6  5  1  1  0  0  0
  6  7  1  0  0  0  0
  7 27  1  6  0  0  0
  8 13  1  0  0  0  0
  8  7  1  1  0  0  0
  9 16  1  6  0  0  0
  9 14  1  0  0  0  0
  9 10  1  0  0  0  0
  9 11  1  0  0  0  0
 10 12  1  0  0  0  0
 11  8  1  0  0  0  0
 12 20  1  6  0  0  0
 12 13  1  0  0  0  0
 13 22  1  1  0  0  0
 15 14  1  0  0  0  0
 17 16  2  0  0  0  0
 18 16  1  0  0  0  0
 18 19  1  0  0  0  0
 20 21  1  0  0  0  0
 22 24  1  0  0  0  0
 22 23  1  0  0  0  0
 23 25  1  0  0  0  0
 26 23  2  0  0  0  0
 28 27  1  0  0  0  0
 29  6  1  0  0  0  0
 30 29  1  0  0  0  0
 31 32  1  0  0  0  0
 33 32  1  0  0  0  0
 33 35  1  0  0  0  0
 34 36  1  0  0  0  0
 34 33  2  0  0  0  0
 36 37  1  0  0  0  0
 37 35  2  0  0  0  0
 38 40  1  0  0  0  0
 38 36  1  0  0  0  0
 39 38  2  0  0  0  0
 41 43  2  0  0  0  0
 41 39  1  0  0  0  0
 42 40  2  0  0  0  0
 43 42  1  0  0  0  0
 44 41  1  0  0  0  0
 45 46  1  0  0  0  0
 45 44  2  0  0  0  0
 46 48  1  0  0  0  0
 46 47  2  0  0  0  0
 48 49  1  0  0  0  0
 50 51  1  0  0  0  0
 52 51  1  0  0  0  0
 52 53  1  0  0  0  0
 53 54  1  0  0  0  0
 54 55  1  0  0  0  0
M  END
>  <REMARK>
 VINA RESULT:    -5.044      4.095      6.474
 INTER + INTRA:         -15.785
 INTER:                 -11.665
 INTRA:                  -4.119
 UNBOUND:                -6.317
 SMILES CC(=O)N[C@@H]1[C@@H](O)C[C@](O)(C(=O)O)O[C@H]1C(O)[C@H](O)CNC(=O)OCc1cn(-c2cccc(C=CC(=O)O)c2)nn1
 SMILES IDX 21 1 22 2 23 3 20 5 18 6 16 7 15 8 9 9 8 10 14 11 6 12 5 13
 SMILES IDX 10 14 11 16 12 17 13 18 7 20 4 22 2 23 1 25 3 26 17 27 19 29
 SMILES IDX 24 31 25 32 26 33 27 34 41 35 28 36 40 37 29 38 39 39 30 40
 SMILES IDX 33 41 31 42 32 43 34 44 35 45 36 46 37 47 38 48
 H PARENT 21 4 10 15 13 19 7 21 4 24 17 28 19 30 38 49
 Flexibility Score: inf
  4 active torsions:
  status: ('A' for Active; 'I' for Inactive)
    1  A    between atoms: CA   and  CB  
    2  A    between atoms: CB   and  CG  
    3  A    between atoms: CG   and  CD  
    4  A    between atoms: CD   and  CE  

>  <TORSDO>
F 18

>  <BEGIN_>
RES LYS A 131

$$$$
ligand_75_pose_8_2HRL.pdbqt
 OpenBabel07062320523D

  6  5  0  0  0  0  0  0  0  0999 V2000
   33.1930   34.6630    9.2900 C   0  0  0  0  0  0  0  0  0  0  0  0
   32.0600   35.3600   10.0340 C   0  0  0  0  0  0  0  0  0  0  0  0
   32.5350   36.2960   11.1150 C   0  0  0  0  0  0  0  0  0  0  0  0
   32.2350   35.7240   12.4910 C   0  0  0  0  0  0  0  0  0  0  0  0
   30.8890   35.0250   12.4950 C   0  0  0  0  0  0  0  0  0  0  0  0
   29.8920   35.7830   13.3020 N   0  0  0  0  0  0  0  0  0  0  0  0
  1  2  1  0  0  0  0
  2  3  1  0  0  0  0
  3  4  1  0  0  0  0
  4  5  1  0  0  0  0
  5  6  1  0  0  0  0
M  END
>  <EGIN_R>
ES LYS A 135

>  <REMARK>
  4 active torsions:
  status: ('A' for Active; 'I' for Inactive)
    5  A    between atoms: CA   and  CB  
    6  A    between atoms: CB   and  CG  
    7  A    between atoms: CG   and  CD  
    8  A    between atoms: CD   and  CE  

$$$$
