ligand_32_pose_18_2HRL.pdbqt
 OpenBabel07062320523D

 49 49  0  0  1  0  0  0  0  0999 V2000
   32.5770   32.7360   21.5030 N   0  0  0  0  0  0  0  0  0  0  0  0
   33.0410   33.8920   20.8250 C   0  0  0  0  0  0  0  0  0  0  0  0
   34.1980   34.3610   21.0430 O   0  0  0  0  0  0  0  0  0  0  0  0
   31.6230   32.3810   21.2960 H   0  0  0  0  0  0  0  0  0  0  0  0
   33.3920   32.0440   22.4720 C   0  0  0  0  0  0  0  0  0  0  0  0
   34.1470   30.8740   21.9050 C   0  0  2  0  0  0  0  0  0  0  0  0
   33.6860   29.5640   22.5440 C   0  0  1  0  0  0  0  0  0  0  0  0
   32.5920   28.9350   21.7010 C   0  0  2  0  0  0  0  0  0  0  0  0
   30.5360   29.6490   20.8530 C   0  0  2  0  0  0  0  0  0  0  0  0
   30.1180   28.2170   20.6680 C   0  0  0  0  0  0  0  0  0  0  0  0
   31.8980   29.8290   20.9520 O   0  0  0  0  0  0  0  0  0  0  0  0
   30.9050   27.2250   21.4480 C   0  0  1  0  0  0  0  0  0  0  0  0
   31.7150   28.0030   22.4960 C   0  0  1  0  0  0  0  0  0  0  0  0
   29.8440   30.1720   21.9390 O   0  0  0  0  0  0  0  0  0  0  0  0
   29.5770   29.3880   22.4940 H   0  0  0  0  0  0  0  0  0  0  0  0
   30.0930   30.3780   19.6430 C   0  0  0  0  0  0  0  0  0  0  0  0
   30.5110   31.5130   19.3260 O   0  0  0  0  0  0  0  0  0  0  0  0
   29.1660   29.7890   18.8030 O   0  0  0  0  0  0  0  0  0  0  0  0
   28.5570   30.3120   18.1860 H   0  0  0  0  0  0  0  0  0  0  0  0
   30.1150   26.2580   22.0630 O   0  0  0  0  0  0  0  0  0  0  0  0
   30.5030   25.9480   22.9270 H   0  0  0  0  0  0  0  0  0  0  0  0
   32.4950   27.0910   23.3080 N   0  0  0  0  0  0  0  0  0  0  0  0
   32.2400   26.9690   24.7030 C   0  0  0  0  0  0  0  0  0  0  0  0
   33.2620   26.5020   22.9080 H   0  0  0  0  0  0  0  0  0  0  0  0
   33.0230   26.0370   25.5830 C   0  0  0  0  0  0  0  0  0  0  0  0
   31.3210   27.6610   25.2460 O   0  0  0  0  0  0  0  0  0  0  0  0
   34.7780   28.7010   22.5900 O   0  0  0  0  0  0  0  0  0  0  0  0
   34.5110   27.7450   22.5040 H   0  0  0  0  0  0  0  0  0  0  0  0
   35.5020   31.0920   22.1670 O   0  0  0  0  0  0  0  0  0  0  0  0
   36.0380   30.6090   21.4890 H   0  0  0  0  0  0  0  0  0  0  0  0
   32.2170   34.5110   19.9130 O   0  0  0  0  0  0  0  0  0  0  0  0
   32.6690   35.4850   18.9880 C   0  0  0  0  0  0  0  0  0  0  0  0
   32.4470   35.0040   17.5820 C   0  0  0  0  0  0  0  0  0  0  0  0
   31.5760   34.0310   17.1700 C   0  0  0  0  0  0  0  0  0  0  0  0
   33.0940   35.4650   16.4930 N   0  0  0  0  0  0  0  0  0  0  0  0
   31.7120   33.9190   15.8260 N   0  0  0  0  0  0  0  0  0  0  0  0
   32.6330   34.7950   15.4490 N   0  0  0  0  0  0  0  0  0  0  0  0
   30.9560   32.9940   15.0080 C   0  0  0  0  0  0  0  0  0  0  0  0
   30.8480   31.6780   15.7750 C   0  0  0  0  0  0  0  0  0  0  0  0
   29.4080   31.2820   15.7400 C   0  0  0  0  0  0  0  0  0  0  0  0
   28.4810   32.1020   15.7130 O   0  0  0  0  0  0  0  0  0  0  0  0
   29.1390   29.9130   15.7400 O   0  0  0  0  0  0  0  0  0  0  0  0
   29.8670   29.2570   16.0200 H   0  0  0  0  0  0  0  0  0  0  0  0
   29.8670   25.5550   16.9770 C   0  0  0  0  0  0  0  0  0  0  0  0
   28.3450   25.7220   17.0260 C   0  0  0  0  0  0  0  0  0  0  0  0
   27.6030   24.3950   16.9760 C   0  0  0  0  0  0  0  0  0  0  0  0
   26.1880   24.5190   17.4690 C   0  0  0  0  0  0  0  0  0  0  0  0
   25.5500   23.1350   17.5370 C   0  0  0  0  0  0  0  0  0  0  0  0
   24.4310   23.1260   18.5090 N   0  0  0  0  0  0  0  0  0  0  0  0
  1  5  1  0  0  0  0
  2  3  2  0  0  0  0
  2  1  1  0  0  0  0
  4  1  1  0  0  0  0
  6 29  1  0  0  0  0
  6  5  1  1  0  0  0
  6  7  1  0  0  0  0
  7 27  1  6  0  0  0
  8 13  1  0  0  0  0
  8  7  1  1  0  0  0
  9 16  1  6  0  0  0
  9 11  1  0  0  0  0
  9 14  1  0  0  0  0
 10  9  1  0  0  0  0
 10 12  1  0  0  0  0
 11  8  1  0  0  0  0
 12 20  1  1  0  0  0
 12 13  1  0  0  0  0
 13 22  1  6  0  0  0
 14 15  1  0  0  0  0
 17 16  2  0  0  0  0
 18 16  1  0  0  0  0
 19 18  1  0  0  0  0
 20 21  1  0  0  0  0
 22 23  1  0  0  0  0
 23 26  2  0  0  0  0
 23 25  1  0  0  0  0
 24 22  1  0  0  0  0
 28 27  1  0  0  0  0
 30 29  1  0  0  0  0
 31  2  1  0  0  0  0
 32 31  1  0  0  0  0
 33 32  1  0  0  0  0
 34 33  2  0  0  0  0
 35 33  1  0  0  0  0
 36 34  1  0  0  0  0
 37 36  1  0  0  0  0
 37 35  2  0  0  0  0
 38 39  1  0  0  0  0
 38 36  1  0  0  0  0
 40 42  1  0  0  0  0
 40 39  1  0  0  0  0
 41 40  2  0  0  0  0
 42 43  1  0  0  0  0
 44 45  1  0  0  0  0
 46 45  1  0  0  0  0
 46 47  1  0  0  0  0
 47 48  1  0  0  0  0
 48 49  1  0  0  0  0
M  END
>  <REMARK>
 VINA RESULT:    -4.148      2.235      3.434
 INTER + INTRA:         -13.429
 INTER:                  -7.785
 INTRA:                  -5.644
 UNBOUND:                -5.644
 SMILES CC(=O)N[C@@H]1[C@@H](O)C[C@](O)(C(=O)O)O[C@H]1C(O)[C@H](O)CNC(=O)OCc1cn(CCC(=O)O)nn1
 SMILES IDX 21 1 22 2 23 3 20 5 18 6 16 7 15 8 9 9 8 10 14 11 6 12 5 13
 SMILES IDX 10 14 11 16 12 17 13 18 7 20 4 22 2 23 1 25 3 26 17 27 19 29
 SMILES IDX 24 31 25 32 26 33 27 34 35 35 28 36 34 37 29 38 30 39 31 40
 SMILES IDX 32 41 33 42
 H PARENT 21 4 10 15 13 19 7 21 4 24 17 28 19 30 33 43
 Flexibility Score: inf
  4 active torsions:
  status: ('A' for Active; 'I' for Inactive)
    1  A    between atoms: CA   and  CB  
    2  A    between atoms: CB   and  CG  
    3  A    between atoms: CG   and  CD  
    4  A    between atoms: CD   and  CE  

>  <TORSDO>
F 18

>  <BEGIN_>
RES LYS A 131

$$$$
ligand_32_pose_18_2HRL.pdbqt
 OpenBabel07062320523D

  6  5  0  0  0  0  0  0  0  0999 V2000
   33.1930   34.6630    9.2900 C   0  0  0  0  0  0  0  0  0  0  0  0
   32.0600   35.3600   10.0340 C   0  0  0  0  0  0  0  0  0  0  0  0
   30.8030   35.5070    9.2160 C   0  0  0  0  0  0  0  0  0  0  0  0
   30.1500   34.1520    8.9880 C   0  0  0  0  0  0  0  0  0  0  0  0
   28.6900   34.3200    8.6140 C   0  0  0  0  0  0  0  0  0  0  0  0
   27.8000   33.6980    9.6340 N   0  0  0  0  0  0  0  0  0  0  0  0
  1  2  1  0  0  0  0
  3  2  1  0  0  0  0
  4  3  1  0  0  0  0
  5  4  1  0  0  0  0
  5  6  1  0  0  0  0
M  END
>  <EGIN_R>
ES LYS A 135

>  <REMARK>
  4 active torsions:
  status: ('A' for Active; 'I' for Inactive)
    5  A    between atoms: CA   and  CB  
    6  A    between atoms: CB   and  CG  
    7  A    between atoms: CG   and  CD  
    8  A    between atoms: CD   and  CE  

$$$$
