ligand_38_pose_14_2HRL.pdbqt
 OpenBabel07062320523D

 51 52  0  0  1  0  0  0  0  0999 V2000
   28.2170   29.5520   18.3190 N   0  0  0  0  0  0  0  0  0  0  0  0
   27.9620   30.6900   17.5170 C   0  0  0  0  0  0  0  0  0  0  0  0
   27.3350   31.6920   17.9920 O   0  0  0  0  0  0  0  0  0  0  0  0
   28.7340   28.7560   17.8900 H   0  0  0  0  0  0  0  0  0  0  0  0
   27.7410   29.5830   19.6760 C   0  0  0  0  0  0  0  0  0  0  0  0
   26.8460   28.3720   19.9780 C   0  0  2  0  0  0  0  0  0  0  0  0
   27.7470   27.3410   20.5610 C   0  0  2  0  0  0  0  0  0  0  0  0
   28.8740   27.8500   21.4120 C   0  0  2  0  0  0  0  0  0  0  0  0
   31.2050   27.7120   21.3770 C   0  0  2  0  0  0  0  0  0  0  0  0
   31.1650   27.7990   22.8910 C   0  0  0  0  0  0  0  0  0  0  0  0
   30.0150   27.2130   20.9100 O   0  0  0  0  0  0  0  0  0  0  0  0
   29.9650   27.0480   23.4460 C   0  0  1  0  0  0  0  0  0  0  0  0
   28.7040   27.7260   22.8770 C   0  0  1  0  0  0  0  0  0  0  0  0
   32.1660   26.7180   21.0890 O   0  0  0  0  0  0  0  0  0  0  0  0
   32.7120   26.9500   20.3140 H   0  0  0  0  0  0  0  0  0  0  0  0
   31.6570   28.9560   20.7520 C   0  0  0  0  0  0  0  0  0  0  0  0
   32.5980   29.6120   21.2570 O   0  0  0  0  0  0  0  0  0  0  0  0
   31.0870   29.4710   19.5960 O   0  0  0  0  0  0  0  0  0  0  0  0
   30.6180   28.8530   18.9630 H   0  0  0  0  0  0  0  0  0  0  0  0
   30.0190   25.7130   23.1430 O   0  0  0  0  0  0  0  0  0  0  0  0
   29.0930   25.3240   23.2340 H   0  0  0  0  0  0  0  0  0  0  0  0
   28.6850   29.0390   23.5330 N   0  0  0  0  0  0  0  0  0  0  0  0
   27.9890   29.2470   24.7540 C   0  0  0  0  0  0  0  0  0  0  0  0
   29.1740   29.8710   23.1380 H   0  0  0  0  0  0  0  0  0  0  0  0
   27.9800   30.6040   25.4090 C   0  0  0  0  0  0  0  0  0  0  0  0
   27.3700   28.3320   25.3190 O   0  0  0  0  0  0  0  0  0  0  0  0
   28.3840   26.7160   19.4560 O   0  0  0  0  0  0  0  0  0  0  0  0
   28.4220   27.4280   18.7560 H   0  0  0  0  0  0  0  0  0  0  0  0
   26.2740   28.0140   18.7600 O   0  0  0  0  0  0  0  0  0  0  0  0
   25.5300   28.6270   18.5750 H   0  0  0  0  0  0  0  0  0  0  0  0
   28.3660   30.7920   16.1940 O   0  0  0  0  0  0  0  0  0  0  0  0
   28.4060   32.0130   15.4780 C   0  0  0  0  0  0  0  0  0  0  0  0
   29.7540   32.6380   15.5470 C   0  0  0  0  0  0  0  0  0  0  0  0
   30.0270   34.0090   15.6140 C   0  0  0  0  0  0  0  0  0  0  0  0
   30.9620   32.0460   15.5620 N   0  0  0  0  0  0  0  0  0  0  0  0
   31.3530   34.1740   15.6630 N   0  0  0  0  0  0  0  0  0  0  0  0
   31.8960   32.9730   15.6310 N   0  0  0  0  0  0  0  0  0  0  0  0
   32.1060   35.4070   15.7380 C   0  0  0  0  0  0  0  0  0  0  0  0
   32.0460   36.1230   14.4380 C   0  0  0  0  0  0  0  0  0  0  0  0
   32.6870   35.6300   13.3220 C   0  0  0  0  0  0  0  0  0  0  0  0
   31.3460   37.2920   14.3300 C   0  0  0  0  0  0  0  0  0  0  0  0
   32.6330   36.3020   12.0980 C   0  0  0  0  0  0  0  0  0  0  0  0
   31.2850   37.9720   13.1140 C   0  0  0  0  0  0  0  0  0  0  0  0
   31.9310   37.4720   11.9960 C   0  0  0  0  0  0  0  0  0  0  0  0
   30.3030   39.5930   13.0040 Br  0  0  0  0  0  0  0  0  0  0  0  0
   29.8670   25.5550   16.9770 C   0  0  0  0  0  0  0  0  0  0  0  0
   28.3450   25.7220   17.0260 C   0  0  0  0  0  0  0  0  0  0  0  0
   27.6020   24.3980   16.9290 C   0  0  0  0  0  0  0  0  0  0  0  0
   26.1640   24.5240   17.3500 C   0  0  0  0  0  0  0  0  0  0  0  0
   25.9320   23.7120   18.6200 C   0  0  0  0  0  0  0  0  0  0  0  0
   25.4900   24.5940   19.7260 N   0  0  0  0  0  0  0  0  0  0  0  0
  1  5  1  0  0  0  0
  2  3  2  0  0  0  0
  2  1  1  0  0  0  0
  4  1  1  0  0  0  0
  6  5  1  6  0  0  0
  6  7  1  0  0  0  0
  7 27  1  6  0  0  0
  8  7  1  6  0  0  0
  8 13  1  0  0  0  0
  9 16  1  6  0  0  0
  9 10  1  0  0  0  0
 10 12  1  0  0  0  0
 11  9  1  0  0  0  0
 11  8  1  0  0  0  0
 12 20  1  6  0  0  0
 13 12  1  0  0  0  0
 13 22  1  1  0  0  0
 14  9  1  0  0  0  0
 15 14  1  0  0  0  0
 16 17  2  0  0  0  0
 18 16  1  0  0  0  0
 19 18  1  0  0  0  0
 20 21  1  0  0  0  0
 22 23  1  0  0  0  0
 23 26  2  0  0  0  0
 23 25  1  0  0  0  0
 24 22  1  0  0  0  0
 28 27  1  0  0  0  0
 29  6  1  0  0  0  0
 30 29  1  0  0  0  0
 31  2  1  0  0  0  0
 32 33  1  0  0  0  0
 32 31  1  0  0  0  0
 33 35  1  0  0  0  0
 33 34  2  0  0  0  0
 34 36  1  0  0  0  0
 35 37  2  0  0  0  0
 36 38  1  0  0  0  0
 37 36  1  0  0  0  0
 39 38  1  0  0  0  0
 40 39  2  0  0  0  0
 41 39  1  0  0  0  0
 42 40  1  0  0  0  0
 43 41  2  0  0  0  0
 44 42  2  0  0  0  0
 44 43  1  0  0  0  0
 45 43  1  0  0  0  0
 46 47  1  0  0  0  0
 48 47  1  0  0  0  0
 48 49  1  0  0  0  0
 49 50  1  0  0  0  0
 50 51  1  0  0  0  0
M  END
>  <REMARK>
 VINA RESULT:    -4.510      4.789      8.849
 INTER + INTRA:         -14.365
 INTER:                  -9.394
 INTRA:                  -4.970
 UNBOUND:                -6.295
 SMILES CC(=O)N[C@@H]1[C@@H](O)C[C@](O)(C(=O)O)O[C@H]1C(O)[C@H](O)CNC(=O)OCc1cn(Cc2cccc(Br)c2)nn1
 SMILES IDX 21 1 22 2 23 3 20 5 18 6 16 7 15 8 9 9 8 10 14 11 6 12 5 13
 SMILES IDX 10 14 11 16 12 17 13 18 7 20 4 22 2 23 1 25 3 26 17 27 19 29
 SMILES IDX 24 31 25 32 26 33 27 34 38 35 28 36 37 37 29 38 30 39 31 40
 SMILES IDX 36 41 32 42 34 43 33 44 35 45
 H PARENT 21 4 10 15 13 19 7 21 4 24 17 28 19 30
 Flexibility Score: inf
  4 active torsions:
  status: ('A' for Active; 'I' for Inactive)
    1  A    between atoms: CA   and  CB  
    2  A    between atoms: CB   and  CG  
    3  A    between atoms: CG   and  CD  
    4  A    between atoms: CD   and  CE  

>  <TORSDO>
F 16

>  <BEGIN_>
RES LYS A 131

$$$$
ligand_38_pose_14_2HRL.pdbqt
 OpenBabel07062320523D

  6  5  0  0  0  0  0  0  0  0999 V2000
   33.1930   34.6630    9.2900 C   0  0  0  0  0  0  0  0  0  0  0  0
   32.0600   35.3600   10.0340 C   0  0  0  0  0  0  0  0  0  0  0  0
   30.8000   35.5000    9.2190 C   0  0  0  0  0  0  0  0  0  0  0  0
   30.1380   34.1460    9.0180 C   0  0  0  0  0  0  0  0  0  0  0  0
   28.6800   34.3170    8.6370 C   0  0  0  0  0  0  0  0  0  0  0  0
   27.7820   33.7480    9.6810 N   0  0  0  0  0  0  0  0  0  0  0  0
  1  2  1  0  0  0  0
  3  2  1  0  0  0  0
  4  3  1  0  0  0  0
  5  4  1  0  0  0  0
  5  6  1  0  0  0  0
M  END
>  <EGIN_R>
ES LYS A 135

>  <REMARK>
  4 active torsions:
  status: ('A' for Active; 'I' for Inactive)
    5  A    between atoms: CA   and  CB  
    6  A    between atoms: CB   and  CG  
    7  A    between atoms: CG   and  CD  
    8  A    between atoms: CD   and  CE  

$$$$
