ligand_9_pose_6_2HRL.pdbqt
 OpenBabel07062320523D

 54 55  0  0  1  0  0  0  0  0999 V2000
   31.3790   35.3370   16.0000 N   0  0  0  0  0  0  0  0  0  0  0  0
   32.0870   36.1380   16.9360 C   0  0  0  0  0  0  0  0  0  0  0  0
   33.3260   35.9680   17.0530 O   0  0  0  0  0  0  0  0  0  0  0  0
   30.3550   35.4940   15.9200 H   0  0  0  0  0  0  0  0  0  0  0  0
   32.0540   34.3420   15.1920 C   0  0  0  0  0  0  0  0  0  0  0  0
   31.5360   32.9600   15.4170 C   0  0  2  0  0  0  0  0  0  0  0  0
   30.2480   32.6790   14.7130 C   0  0  1  0  0  0  0  0  0  0  0  0
   29.1760   32.1890   15.7220 C   0  0  2  0  0  0  0  0  0  0  0  0
   28.0470   30.3400   16.3730 C   0  0  2  0  0  0  0  0  0  0  0  0
   26.6990   30.8920   15.9670 C   0  0  0  0  0  0  0  0  0  0  0  0
   29.0030   30.8410   15.5470 O   0  0  0  0  0  0  0  0  0  0  0  0
   26.6610   32.3900   15.9830 C   0  0  1  0  0  0  0  0  0  0  0  0
   27.9620   33.0330   15.5980 C   0  0  1  0  0  0  0  0  0  0  0  0
   27.9660   28.9450   16.0960 O   0  0  0  0  0  0  0  0  0  0  0  0
   27.1540   28.5470   16.4580 H   0  0  0  0  0  0  0  0  0  0  0  0
   28.2680   30.4960   17.8170 C   0  0  0  0  0  0  0  0  0  0  0  0
   27.3200   30.6630   18.6560 O   0  0  0  0  0  0  0  0  0  0  0  0
   29.5930   30.4580   18.2940 O   0  0  0  0  0  0  0  0  0  0  0  0
   30.3390   30.6700   17.6200 H   0  0  0  0  0  0  0  0  0  0  0  0
   25.6150   32.8190   15.1680 O   0  0  0  0  0  0  0  0  0  0  0  0
   24.7530   32.3880   15.3950 H   0  0  0  0  0  0  0  0  0  0  0  0
   28.1680   34.2860   16.3010 N   0  0  0  0  0  0  0  0  0  0  0  0
   27.7480   35.5300   15.7590 C   0  0  0  0  0  0  0  0  0  0  0  0
   28.6480   34.2510   17.2490 H   0  0  0  0  0  0  0  0  0  0  0  0
   27.9950   36.7710   16.5380 C   0  0  0  0  0  0  0  0  0  0  0  0
   27.1670   35.5930   14.6230 O   0  0  0  0  0  0  0  0  0  0  0  0
   29.7160   33.7370   14.0210 O   0  0  0  0  0  0  0  0  0  0  0  0
   29.9630   33.7930   13.0810 H   0  0  0  0  0  0  0  0  0  0  0  0
   31.5000   32.6560   16.7750 O   0  0  0  0  0  0  0  0  0  0  0  0
   31.1820   33.4710   17.2500 H   0  0  0  0  0  0  0  0  0  0  0  0
   31.4900   37.1000   17.7320 O   0  0  0  0  0  0  0  0  0  0  0  0
   31.2090   36.8740   19.1000 C   0  0  0  0  0  0  0  0  0  0  0  0
   31.0640   35.4300   19.3690 C   0  0  0  0  0  0  0  0  0  0  0  0
   31.8270   34.6220   20.1940 C   0  0  0  0  0  0  0  0  0  0  0  0
   30.1360   34.6000   18.8460 N   0  0  0  0  0  0  0  0  0  0  0  0
   31.3490   33.3610   20.1460 N   0  0  0  0  0  0  0  0  0  0  0  0
   30.3110   33.3920   19.3060 N   0  0  0  0  0  0  0  0  0  0  0  0
   31.8100   32.2090   20.8200 C   0  0  0  0  0  0  0  0  0  0  0  0
   31.1690   30.9910   20.6900 C   0  0  0  0  0  0  0  0  0  0  0  0
   32.9200   32.2540   21.6350 C   0  0  0  0  0  0  0  0  0  0  0  0
   31.5870   29.8410   21.3300 C   0  0  0  0  0  0  0  0  0  0  0  0
   33.3660   31.1120   22.2930 C   0  0  0  0  0  0  0  0  0  0  0  0
   32.7000   29.9230   22.1360 C   0  0  0  0  0  0  0  0  0  0  0  0
   30.8910   28.5690   21.1740 C   0  0  0  0  0  0  0  0  0  0  0  0
   31.3990   27.5270   21.6560 O   0  0  0  0  0  0  0  0  0  0  0  0
   29.6810   28.4570   20.5100 O   0  0  0  0  0  0  0  0  0  0  0  0
   28.7580   27.4190   20.7750 C   0  0  0  0  0  0  0  0  0  0  0  0
   27.8290   27.2920   19.6030 C   0  0  0  0  0  0  0  0  0  0  0  0
   29.8670   25.5550   16.9770 C   0  0  0  0  0  0  0  0  0  0  0  0
   28.3450   25.7220   17.0260 C   0  0  0  0  0  0  0  0  0  0  0  0
   27.5990   24.4360   16.7050 C   0  0  0  0  0  0  0  0  0  0  0  0
   26.9980   23.8090   17.9330 C   0  0  0  0  0  0  0  0  0  0  0  0
   25.6120   23.2670   17.6010 C   0  0  0  0  0  0  0  0  0  0  0  0
   24.8010   24.3010   16.9160 N   0  0  0  0  0  0  0  0  0  0  0  0
  1  2  1  0  0  0  0
  2  3  2  0  0  0  0
  2 31  1  0  0  0  0
  4  1  1  0  0  0  0
  5  1  1  0  0  0  0
  6  5  1  1  0  0  0
  6 29  1  0  0  0  0
  7 27  1  1  0  0  0
  7  6  1  0  0  0  0
  8  7  1  6  0  0  0
  9 14  1  6  0  0  0
  9 16  1  0  0  0  0
 10 12  1  0  0  0  0
 10  9  1  0  0  0  0
 11  8  1  0  0  0  0
 11  9  1  0  0  0  0
 12 20  1  6  0  0  0
 13  8  1  0  0  0  0
 13 12  1  0  0  0  0
 13 22  1  1  0  0  0
 14 15  1  0  0  0  0
 16 18  1  0  0  0  0
 16 17  2  0  0  0  0
 19 18  1  0  0  0  0
 20 21  1  0  0  0  0
 22 24  1  0  0  0  0
 23 22  1  0  0  0  0
 23 25  1  0  0  0  0
 26 23  2  0  0  0  0
 28 27  1  0  0  0  0
 29 30  1  0  0  0  0
 31 32  1  0  0  0  0
 32 33  1  0  0  0  0
 33 34  2  0  0  0  0
 35 37  2  0  0  0  0
 35 33  1  0  0  0  0
 36 34  1  0  0  0  0
 36 38  1  0  0  0  0
 37 36  1  0  0  0  0
 38 40  1  0  0  0  0
 39 38  2  0  0  0  0
 39 41  1  0  0  0  0
 40 42  2  0  0  0  0
 41 43  2  0  0  0  0
 43 42  1  0  0  0  0
 44 41  1  0  0  0  0
 44 45  2  0  0  0  0
 46 47  1  0  0  0  0
 46 44  1  0  0  0  0
 48 47  1  0  0  0  0
 49 50  1  0  0  0  0
 51 50  1  0  0  0  0
 51 52  1  0  0  0  0
 53 52  1  0  0  0  0
 54 53  1  0  0  0  0
M  END
>  <REMARK>
 VINA RESULT:    -5.035      2.435      7.351
 INTER + INTRA:         -15.269
 INTER:                  -7.614
 INTRA:                  -7.655
 UNBOUND:                -5.671
 SMILES CCOC(=O)c1cccc(-n2cc(COC(=O)NC[C@@H](O)C(O)[C@@H]3O[C@@](O)(C(=O)O)C[C@H](O)[C@H]3NC(C)=O)nn2)c1
 SMILES IDX 18 1 16 2 17 3 19 5 20 6 22 7 24 8 26 9 31 10 25 11 32 12
 SMILES IDX 34 13 27 14 28 16 29 17 30 18 33 20 35 22 36 23 37 25 38 26
 SMILES IDX 23 27 21 29 15 31 14 32 13 33 12 34 39 35 11 36 40 37 10 38
 SMILES IDX 41 39 9 40 6 41 8 42 7 43 4 44 5 45 3 46 2 47 1 48
 H PARENT 18 4 27 15 30 19 33 21 35 24 23 28 21 30
 Flexibility Score: inf
  4 active torsions:
  status: ('A' for Active; 'I' for Inactive)
    1  A    between atoms: CA   and  CB  
    2  A    between atoms: CB   and  CG  
    3  A    between atoms: CG   and  CD  
    4  A    between atoms: CD   and  CE  

>  <TORSDO>
F 18

>  <BEGIN_>
RES LYS A 131

$$$$
ligand_9_pose_6_2HRL.pdbqt
 OpenBabel07062320523D

  6  5  0  0  0  0  0  0  0  0999 V2000
   33.1930   34.6630    9.2900 C   0  0  0  0  0  0  0  0  0  0  0  0
   32.0600   35.3600   10.0340 C   0  0  0  0  0  0  0  0  0  0  0  0
   30.7090   34.7350    9.7970 C   0  0  0  0  0  0  0  0  0  0  0  0
   30.4650   34.5330    8.3100 C   0  0  0  0  0  0  0  0  0  0  0  0
   29.0180   34.8240    7.9630 C   0  0  0  0  0  0  0  0  0  0  0  0
   28.9110   35.5330    6.6570 N   0  0  0  0  0  0  0  0  0  0  0  0
  1  2  1  0  0  0  0
  3  2  1  0  0  0  0
  4  3  1  0  0  0  0
  5  4  1  0  0  0  0
  6  5  1  0  0  0  0
M  END
>  <EGIN_R>
ES LYS A 135

>  <REMARK>
  4 active torsions:
  status: ('A' for Active; 'I' for Inactive)
    5  A    between atoms: CA   and  CB  
    6  A    between atoms: CB   and  CG  
    7  A    between atoms: CG   and  CD  
    8  A    between atoms: CD   and  CE  

$$$$
