ligand_54_pose_19_2HRL.pdbqt
 OpenBabel07062320523D

 52 52  0  0  1  0  0  0  0  0999 V2000
   26.7340   30.3110   17.3260 O   0  0  0  0  0  0  0  0  0  0  0  0
   26.6620   29.1650   18.1310 C   0  0  0  0  0  0  0  0  0  0  0  0
   27.8190   28.5540   18.6600 N   0  0  0  0  0  0  0  0  0  0  0  0
   28.7400   29.0370   18.4120 H   0  0  0  0  0  0  0  0  0  0  0  0
   25.5440   28.7010   18.3640 O   0  0  0  0  0  0  0  0  0  0  0  0
   27.8910   27.3850   19.4770 C   0  0  0  0  0  0  0  0  0  0  0  0
   27.8820   27.7340   20.9380 C   0  0  2  0  0  0  0  0  0  0  0  0
   29.3300   28.0550   21.3020 C   0  0  2  0  0  0  0  0  0  0  0  0
   29.4950   29.4770   21.7390 C   0  0  2  0  0  0  0  0  0  0  0  0
   29.7870   31.5790   20.8030 C   0  0  2  0  0  0  0  0  0  0  0  0
   30.2730   32.0490   22.1340 C   0  0  0  0  0  0  0  0  0  0  0  0
   29.0600   30.3980   20.8320 O   0  0  0  0  0  0  0  0  0  0  0  0
   30.9110   30.9890   22.9850 C   0  0  1  0  0  0  0  0  0  0  0  0
   30.9370   29.7120   22.1750 C   0  0  1  0  0  0  0  0  0  0  0  0
   30.8430   31.5150   19.8890 O   0  0  0  0  0  0  0  0  0  0  0  0
   31.0990   32.4630   19.6820 H   0  0  0  0  0  0  0  0  0  0  0  0
   28.8460   32.6220   20.3040 C   0  0  0  0  0  0  0  0  0  0  0  0
   28.8550   33.7790   20.7760 O   0  0  0  0  0  0  0  0  0  0  0  0
   27.9360   32.2800   19.2850 O   0  0  0  0  0  0  0  0  0  0  0  0
   27.8610   31.2850   19.0840 H   0  0  0  0  0  0  0  0  0  0  0  0
   32.1660   31.3450   23.4610 O   0  0  0  0  0  0  0  0  0  0  0  0
   32.1830   31.0950   24.4200 H   0  0  0  0  0  0  0  0  0  0  0  0
   31.3440   28.5700   22.9680 N   0  0  0  0  0  0  0  0  0  0  0  0
   32.7120   28.1890   22.9880 C   0  0  0  0  0  0  0  0  0  0  0  0
   30.6920   28.0000   23.5340 H   0  0  0  0  0  0  0  0  0  0  0  0
   33.2170   27.0410   23.7680 C   0  0  0  0  0  0  0  0  0  0  0  0
   33.5350   28.8630   22.3090 O   0  0  0  0  0  0  0  0  0  0  0  0
   30.1350   27.7370   20.2210 O   0  0  0  0  0  0  0  0  0  0  0  0
   30.5560   26.8380   20.3040 H   0  0  0  0  0  0  0  0  0  0  0  0
   27.5100   26.6550   21.6980 O   0  0  0  0  0  0  0  0  0  0  0  0
   28.0850   25.8600   21.5560 H   0  0  0  0  0  0  0  0  0  0  0  0
   27.4630   30.2840   16.1020 C   0  0  0  0  0  0  0  0  0  0  0  0
   28.7960   30.8770   16.3160 C   0  0  0  0  0  0  0  0  0  0  0  0
   29.3640   31.7730   15.4050 C   0  0  0  0  0  0  0  0  0  0  0  0
   29.6940   30.7500   17.2820 N   0  0  0  0  0  0  0  0  0  0  0  0
   30.5770   32.1410   15.8670 N   0  0  0  0  0  0  0  0  0  0  0  0
   30.7550   31.5160   16.9950 N   0  0  0  0  0  0  0  0  0  0  0  0
   31.4510   33.0530   15.1840 C   0  0  0  0  0  0  0  0  0  0  0  0
   32.0740   34.0770   16.1030 C   0  0  0  0  0  0  0  0  0  0  0  0
   31.1580   35.2180   16.4160 C   0  0  0  0  0  0  0  0  0  0  0  0
   31.9290   36.3640   16.5790 O   0  0  0  0  0  0  0  0  0  0  0  0
   32.0230   37.0590   15.3670 C   0  0  0  0  0  0  0  0  0  0  0  0
   30.6670   37.2910   14.7540 C   0  0  0  0  0  0  0  0  0  0  0  0
   30.4190   35.0120   17.5520 O   0  0  0  0  0  0  0  0  0  0  0  0
   29.0470   35.0480   17.3070 C   0  0  0  0  0  0  0  0  0  0  0  0
   28.4260   36.1500   18.1580 C   0  0  0  0  0  0  0  0  0  0  0  0
   29.8670   25.5550   16.9770 C   0  0  0  0  0  0  0  0  0  0  0  0
   28.3450   25.7220   17.0260 C   0  0  0  0  0  0  0  0  0  0  0  0
   27.6010   24.4010   16.9060 C   0  0  0  0  0  0  0  0  0  0  0  0
   26.5610   24.2370   17.9780 C   0  0  0  0  0  0  0  0  0  0  0  0
   25.4200   25.2190   17.7350 C   0  0  0  0  0  0  0  0  0  0  0  0
   24.5360   25.2920   18.9220 N   0  0  0  0  0  0  0  0  0  0  0  0
  1  2  1  0  0  0  0
  2  5  2  0  0  0  0
  2  3  1  0  0  0  0
  3  6  1  0  0  0  0
  4  3  1  0  0  0  0
  7  6  1  6  0  0  0
  7  8  1  0  0  0  0
  7 30  1  0  0  0  0
  8 28  1  6  0  0  0
  9  8  1  6  0  0  0
  9 14  1  0  0  0  0
 10 15  1  6  0  0  0
 10 12  1  0  0  0  0
 10 11  1  0  0  0  0
 11 13  1  0  0  0  0
 12  9  1  0  0  0  0
 13 21  1  6  0  0  0
 14 23  1  1  0  0  0
 14 13  1  0  0  0  0
 16 15  1  0  0  0  0
 17 18  2  0  0  0  0
 17 10  1  0  0  0  0
 19 17  1  0  0  0  0
 20 19  1  0  0  0  0
 21 22  1  0  0  0  0
 23 24  1  0  0  0  0
 23 25  1  0  0  0  0
 24 26  1  0  0  0  0
 27 24  2  0  0  0  0
 28 29  1  0  0  0  0
 31 30  1  0  0  0  0
 32 33  1  0  0  0  0
 32  1  1  0  0  0  0
 33 35  1  0  0  0  0
 34 36  1  0  0  0  0
 34 33  2  0  0  0  0
 36 37  1  0  0  0  0
 37 35  2  0  0  0  0
 38 36  1  0  0  0  0
 38 39  1  0  0  0  0
 39 40  1  0  0  0  0
 40 41  1  0  0  0  0
 40 44  1  0  0  0  0
 42 41  1  0  0  0  0
 43 42  1  0  0  0  0
 45 44  1  0  0  0  0
 45 46  1  0  0  0  0
 47 48  1  0  0  0  0
 49 48  1  0  0  0  0
 49 50  1  0  0  0  0
 51 50  1  0  0  0  0
 51 52  1  0  0  0  0
M  END
>  <REMARK>
 VINA RESULT:    -4.016      2.040      2.779
 INTER + INTRA:         -14.298
 INTER:                  -7.435
 INTRA:                  -6.863
 UNBOUND:                -5.938
 SMILES CCOC(CCn1cc(COC(=O)NC[C@@H](O)C(O)[C@@H]2O[C@@](O)(C(=O)O)C[C@H](O)[C@H]2NC(C)=O)nn1)OCC
 SMILES IDX 11 1 12 2 14 3 13 5 15 6 16 7 18 8 20 9 22 10 27 11 21 12
 SMILES IDX 28 13 30 14 23 15 24 17 25 18 26 19 29 21 31 23 32 24 33 26
 SMILES IDX 34 27 19 28 17 30 10 32 9 33 8 34 35 35 7 36 36 37 6 38 5 39
 SMILES IDX 4 40 3 41 2 42 1 43 37 44 38 45 39 46
 H PARENT 14 4 23 16 26 20 29 22 31 25 19 29 17 31
 Flexibility Score: inf
  4 active torsions:
  status: ('A' for Active; 'I' for Inactive)
    1  A    between atoms: CA   and  CB  
    2  A    between atoms: CB   and  CG  
    3  A    between atoms: CG   and  CD  
    4  A    between atoms: CD   and  CE  

>  <TORSDO>
F 21

>  <BEGIN_>
RES LYS A 131

$$$$
ligand_54_pose_19_2HRL.pdbqt
 OpenBabel07062320523D

  6  5  0  0  0  0  0  0  0  0999 V2000
   33.1930   34.6630    9.2900 C   0  0  0  0  0  0  0  0  0  0  0  0
   32.0600   35.3600   10.0340 C   0  0  0  0  0  0  0  0  0  0  0  0
   30.7100   35.1670    9.3930 C   0  0  0  0  0  0  0  0  0  0  0  0
   29.6270   35.0310   10.4530 C   0  0  0  0  0  0  0  0  0  0  0  0
   30.2440   34.9470   11.8360 C   0  0  0  0  0  0  0  0  0  0  0  0
   29.2270   34.5640   12.8550 N   0  0  0  0  0  0  0  0  0  0  0  0
  1  2  1  0  0  0  0
  3  2  1  0  0  0  0
  3  4  1  0  0  0  0
  4  5  1  0  0  0  0
  5  6  1  0  0  0  0
M  END
>  <EGIN_R>
ES LYS A 135

>  <REMARK>
  4 active torsions:
  status: ('A' for Active; 'I' for Inactive)
    5  A    between atoms: CA   and  CB  
    6  A    between atoms: CB   and  CG  
    7  A    between atoms: CG   and  CD  
    8  A    between atoms: CD   and  CE  

$$$$
