ligand_64_pose_8_2HRL.pdbqt
 OpenBabel07062320523D

 59 61  0  0  1  0  0  0  0  0999 V2000
   28.9770   41.0850    4.6280 N   0  0  0  0  0  0  0  0  0  0  0  0
   27.8540   41.6530    5.3080 C   0  0  0  0  0  0  0  0  0  0  0  0
   28.0600   42.6030    6.1060 O   0  0  0  0  0  0  0  0  0  0  0  0
   28.7350   40.2870    3.9710 H   0  0  0  0  0  0  0  0  0  0  0  0
   30.3290   41.5420    4.8070 C   0  0  0  0  0  0  0  0  0  0  0  0
   31.2100   40.4400    5.3130 C   0  0  2  0  0  0  0  0  0  0  0  0
   31.1150   40.4190    6.8330 C   0  0  2  0  0  0  0  0  0  0  0  0
   30.4600   39.1610    7.2870 C   0  0  2  0  0  0  0  0  0  0  0  0
   28.5020   37.9420    6.9860 C   0  0  2  0  0  0  0  0  0  0  0  0
   29.3190   36.9120    7.7560 C   0  0  0  0  0  0  0  0  0  0  0  0
   29.2410   39.0260    6.5870 O   0  0  0  0  0  0  0  0  0  0  0  0
   29.8220   37.5660    8.9930 C   0  0  1  0  0  0  0  0  0  0  0  0
   30.1110   39.0610    8.7320 C   0  0  1  0  0  0  0  0  0  0  0  0
   27.4690   38.3140    7.8780 O   0  0  0  0  0  0  0  0  0  0  0  0
   27.8630   39.0250    8.4470 H   0  0  0  0  0  0  0  0  0  0  0  0
   27.8820   37.3470    5.7870 C   0  0  0  0  0  0  0  0  0  0  0  0
   27.7610   36.1120    5.6940 O   0  0  0  0  0  0  0  0  0  0  0  0
   27.4300   38.1490    4.7620 O   0  0  0  0  0  0  0  0  0  0  0  0
   26.4440   38.2820    4.5570 H   0  0  0  0  0  0  0  0  0  0  0  0
   29.0020   37.4090   10.0890 O   0  0  0  0  0  0  0  0  0  0  0  0
   28.1460   37.0030    9.8300 H   0  0  0  0  0  0  0  0  0  0  0  0
   31.1210   39.4940    9.6590 N   0  0  0  0  0  0  0  0  0  0  0  0
   30.9060   40.6260   10.5280 C   0  0  0  0  0  0  0  0  0  0  0  0
   32.0100   38.9930    9.7210 H   0  0  0  0  0  0  0  0  0  0  0  0
   31.9110   41.1020   11.4910 C   0  0  0  0  0  0  0  0  0  0  0  0
   29.7790   41.1940   10.4070 O   0  0  0  0  0  0  0  0  0  0  0  0
   30.5720   41.5560    7.3680 O   0  0  0  0  0  0  0  0  0  0  0  0
   30.5800   42.3450    6.7970 H   0  0  0  0  0  0  0  0  0  0  0  0
   32.5210   40.8060    4.9430 O   0  0  0  0  0  0  0  0  0  0  0  0
   33.1120   40.2520    5.4950 H   0  0  0  0  0  0  0  0  0  0  0  0
   26.5750   41.1630    5.0880 O   0  0  0  0  0  0  0  0  0  0  0  0
   25.4820   41.9910    5.4290 C   0  0  0  0  0  0  0  0  0  0  0  0
   24.5300   41.1580    6.2080 C   0  0  0  0  0  0  0  0  0  0  0  0
   24.7070   39.8270    6.6070 C   0  0  0  0  0  0  0  0  0  0  0  0
   23.3100   41.4740    6.7010 N   0  0  0  0  0  0  0  0  0  0  0  0
   23.6300   39.4110    7.2970 N   0  0  0  0  0  0  0  0  0  0  0  0
   22.8010   40.4270    7.3380 N   0  0  0  0  0  0  0  0  0  0  0  0
   23.4950   38.0870    7.8510 C   0  0  0  0  0  0  0  0  0  0  0  0
   22.2800   37.4560    7.9220 C   0  0  0  0  0  0  0  0  0  0  0  0
   24.6100   37.4110    8.3330 C   0  0  0  0  0  0  0  0  0  0  0  0
   22.1160   36.1900    8.4460 C   0  0  0  0  0  0  0  0  0  0  0  0
   24.4610   36.1530    8.8570 C   0  0  0  0  0  0  0  0  0  0  0  0
   23.2300   35.5920    8.8950 N   0  0  0  0  0  0  0  0  0  0  0  0
   20.8170   35.5410    8.5110 C   0  0  0  0  0  0  0  0  0  0  0  0
   20.0100   35.7080    7.5760 O   0  0  0  0  0  0  0  0  0  0  0  0
   20.4600   34.7460    9.5790 O   0  0  0  0  0  0  0  0  0  0  0  0
   21.1310   34.1530   10.0800 H   0  0  0  0  0  0  0  0  0  0  0  0
   25.6260   35.4120    9.3780 C   0  0  0  0  0  0  0  0  0  0  0  0
   26.4060   34.7160    8.4800 C   0  0  0  0  0  0  0  0  0  0  0  0
   25.9130   35.4230   10.7130 C   0  0  0  0  0  0  0  0  0  0  0  0
   27.4930   34.0250    8.9620 C   0  0  0  0  0  0  0  0  0  0  0  0
   27.0140   34.7160   11.1550 C   0  0  0  0  0  0  0  0  0  0  0  0
   27.8260   34.0050   10.3000 C   0  0  0  0  0  0  0  0  0  0  0  0
   29.8670   25.5550   16.9770 C   0  0  0  0  0  0  0  0  0  0  0  0
   28.3450   25.7220   17.0260 C   0  0  0  0  0  0  0  0  0  0  0  0
   27.6030   24.3960   16.9670 C   0  0  0  0  0  0  0  0  0  0  0  0
   26.1340   24.5560   17.2450 C   0  0  0  0  0  0  0  0  0  0  0  0
   25.8280   24.0660   18.6570 C   0  0  0  0  0  0  0  0  0  0  0  0
   25.7700   25.2070   19.6010 N   0  0  0  0  0  0  0  0  0  0  0  0
  1  5  1  0  0  0  0
  1  2  1  0  0  0  0
  2  3  2  0  0  0  0
  4  1  1  0  0  0  0
  6  5  1  6  0  0  0
  6  7  1  0  0  0  0
  7 27  1  6  0  0  0
  8  7  1  1  0  0  0
  8 13  1  0  0  0  0
  9 16  1  6  0  0  0
  9 10  1  0  0  0  0
  9 14  1  0  0  0  0
 10 12  1  0  0  0  0
 11  9  1  0  0  0  0
 11  8  1  0  0  0  0
 12 20  1  1  0  0  0
 13 12  1  0  0  0  0
 13 22  1  1  0  0  0
 14 15  1  0  0  0  0
 17 16  2  0  0  0  0
 18 16  1  0  0  0  0
 19 18  1  0  0  0  0
 21 20  1  0  0  0  0
 22 24  1  0  0  0  0
 22 23  1  0  0  0  0
 23 25  1  0  0  0  0
 26 23  2  0  0  0  0
 28 27  1  0  0  0  0
 29  6  1  0  0  0  0
 29 30  1  0  0  0  0
 31  2  1  0  0  0  0
 31 32  1  0  0  0  0
 32 33  1  0  0  0  0
 33 34  2  0  0  0  0
 33 35  1  0  0  0  0
 34 36  1  0  0  0  0
 35 37  2  0  0  0  0
 36 37  1  0  0  0  0
 36 38  1  0  0  0  0
 38 39  2  0  0  0  0
 38 40  1  0  0  0  0
 39 41  1  0  0  0  0
 40 42  2  0  0  0  0
 41 44  1  0  0  0  0
 41 43  2  0  0  0  0
 42 43  1  0  0  0  0
 42 48  1  0  0  0  0
 44 46  1  0  0  0  0
 45 44  2  0  0  0  0
 46 47  1  0  0  0  0
 48 50  2  0  0  0  0
 49 51  2  0  0  0  0
 49 48  1  0  0  0  0
 50 52  1  0  0  0  0
 51 53  1  0  0  0  0
 53 52  2  0  0  0  0
 54 55  1  0  0  0  0
 56 55  1  0  0  0  0
 56 57  1  0  0  0  0
 57 58  1  0  0  0  0
 58 59  1  0  0  0  0
M  END
>  <REMARK>
 VINA RESULT:    -6.008      4.293      8.324
 INTER + INTRA:         -16.493
 INTER:                 -10.506
 INTRA:                  -5.986
 UNBOUND:                -5.216
 SMILES CC(=O)N[C@@H]1[C@@H](O)C[C@](O)(C(=O)O)O[C@H]1C(O)[C@H](O)CNC(=O)OCc1cn(-c2cc(C(=O)O)nc(-c3ccccc3)c2)nn1
 SMILES IDX 21 1 22 2 23 3 20 5 18 6 16 7 15 8 9 9 8 10 14 11 6 12 5 13
 SMILES IDX 10 14 11 16 12 17 13 18 7 20 4 22 2 23 1 25 3 26 17 27 19 29
 SMILES IDX 24 31 25 32 26 33 27 34 45 35 28 36 44 37 29 38 30 39 43 40
 SMILES IDX 31 41 36 42 35 43 32 44 33 45 34 46 37 48 38 49 42 50 39 51
 SMILES IDX 41 52 40 53
 H PARENT 21 4 10 15 13 19 7 21 4 24 17 28 19 30 34 47
 Flexibility Score: inf
  4 active torsions:
  status: ('A' for Active; 'I' for Inactive)
    1  A    between atoms: CA   and  CB  
    2  A    between atoms: CB   and  CG  
    3  A    between atoms: CG   and  CD  
    4  A    between atoms: CD   and  CE  

>  <TORSDO>
F 18

>  <BEGIN_>
RES LYS A 131

$$$$
ligand_64_pose_8_2HRL.pdbqt
 OpenBabel07062320523D

  6  5  0  0  0  0  0  0  0  0999 V2000
   33.1930   34.6630    9.2900 C   0  0  0  0  0  0  0  0  0  0  0  0
   32.0600   35.3600   10.0340 C   0  0  0  0  0  0  0  0  0  0  0  0
   32.4950   36.0110   11.3210 C   0  0  0  0  0  0  0  0  0  0  0  0
   31.3020   36.2470   12.2340 C   0  0  0  0  0  0  0  0  0  0  0  0
   30.6600   34.9290   12.6230 C   0  0  0  0  0  0  0  0  0  0  0  0
   31.1180   34.4860   13.9690 N   0  0  0  0  0  0  0  0  0  0  0  0
  1  2  1  0  0  0  0
  2  3  1  0  0  0  0
  3  4  1  0  0  0  0
  4  5  1  0  0  0  0
  5  6  1  0  0  0  0
M  END
>  <EGIN_R>
ES LYS A 135

>  <REMARK>
  4 active torsions:
  status: ('A' for Active; 'I' for Inactive)
    5  A    between atoms: CA   and  CB  
    6  A    between atoms: CB   and  CG  
    7  A    between atoms: CG   and  CD  
    8  A    between atoms: CD   and  CE  

$$$$
