ligand_23_pose_19_2HRL.pdbqt
 OpenBabel07062320523D

 55 56  0  0  1  0  0  0  0  0999 V2000
   28.0620   35.8600   14.8530 N   0  0  0  0  0  0  0  0  0  0  0  0
   27.0730   35.1590   14.1170 C   0  0  0  0  0  0  0  0  0  0  0  0
   26.3490   35.7930   13.3310 O   0  0  0  0  0  0  0  0  0  0  0  0
   28.6410   35.2590   15.5010 H   0  0  0  0  0  0  0  0  0  0  0  0
   28.2680   37.2800   14.7320 C   0  0  0  0  0  0  0  0  0  0  0  0
   29.5160   37.5820   13.9300 C   0  0  2  0  0  0  0  0  0  0  0  0
   30.6260   38.0140   14.8790 C   0  0  1  0  0  0  0  0  0  0  0  0
   31.7510   36.9840   14.8030 C   0  0  2  0  0  0  0  0  0  0  0  0
   31.3110   34.7700   15.3310 C   0  0  2  0  0  0  0  0  0  0  0  0
   32.6970   34.5370   15.8840 C   0  0  0  0  0  0  0  0  0  0  0  0
   31.2720   35.7800   14.3900 O   0  0  0  0  0  0  0  0  0  0  0  0
   33.4750   35.7960   16.0650 C   0  0  1  0  0  0  0  0  0  0  0  0
   32.4920   36.9670   16.1050 C   0  0  1  0  0  0  0  0  0  0  0  0
   30.3860   35.0280   16.3390 O   0  0  0  0  0  0  0  0  0  0  0  0
   29.5060   34.6100   16.0790 H   0  0  0  0  0  0  0  0  0  0  0  0
   30.8980   33.5130   14.6520 C   0  0  0  0  0  0  0  0  0  0  0  0
   30.0660   33.5150   13.7070 O   0  0  0  0  0  0  0  0  0  0  0  0
   31.4130   32.2710   15.0270 O   0  0  0  0  0  0  0  0  0  0  0  0
   31.8980   31.6910   14.3520 H   0  0  0  0  0  0  0  0  0  0  0  0
   34.2900   35.8030   17.1830 O   0  0  0  0  0  0  0  0  0  0  0  0
   34.5270   36.7230   17.4920 H   0  0  0  0  0  0  0  0  0  0  0  0
   33.2420   38.2090   16.2000 N   0  0  0  0  0  0  0  0  0  0  0  0
   33.4430   38.8880   17.4370 C   0  0  0  0  0  0  0  0  0  0  0  0
   33.6530   38.6220   15.3170 H   0  0  0  0  0  0  0  0  0  0  0  0
   34.2270   40.1500   17.4140 C   0  0  0  0  0  0  0  0  0  0  0  0
   32.9540   38.3890   18.4650 O   0  0  0  0  0  0  0  0  0  0  0  0
   31.1180   39.2260   14.4280 O   0  0  0  0  0  0  0  0  0  0  0  0
   32.1040   39.2250   14.3970 H   0  0  0  0  0  0  0  0  0  0  0  0
   29.2190   38.6280   13.0390 O   0  0  0  0  0  0  0  0  0  0  0  0
   29.2940   39.5220   13.4980 H   0  0  0  0  0  0  0  0  0  0  0  0
   26.8990   33.7780   14.2590 O   0  0  0  0  0  0  0  0  0  0  0  0
   26.4650   33.2160   15.4810 C   0  0  0  0  0  0  0  0  0  0  0  0
   27.5750   32.4670   16.1200 C   0  0  0  0  0  0  0  0  0  0  0  0
   28.1500   32.7840   17.3350 C   0  0  0  0  0  0  0  0  0  0  0  0
   28.2190   31.3820   15.6730 N   0  0  0  0  0  0  0  0  0  0  0  0
   29.1040   31.8620   17.5370 N   0  0  0  0  0  0  0  0  0  0  0  0
   29.1560   31.0040   16.5300 N   0  0  0  0  0  0  0  0  0  0  0  0
   29.9610   31.7990   18.6750 C   0  0  0  0  0  0  0  0  0  0  0  0
   30.7330   32.8630   19.0870 C   0  0  0  0  0  0  0  0  0  0  0  0
   30.0470   30.6350   19.4210 C   0  0  0  0  0  0  0  0  0  0  0  0
   31.5690   32.7920   20.2010 C   0  0  0  0  0  0  0  0  0  0  0  0
   30.8600   30.5420   20.5180 C   0  0  0  0  0  0  0  0  0  0  0  0
   31.6180   31.6200   20.9050 C   0  0  0  0  0  0  0  0  0  0  0  0
   32.5380   34.1340   20.7150 S   0  0  0  0  0  0  0  0  0  0  0  0
   32.7690   35.0330   19.5260 O   0  0  0  0  0  0  0  0  0  0  0  0
   33.8980   33.6340   21.1410 O   0  0  0  0  0  0  0  0  0  0  0  0
   31.7730   35.0340   21.9600 N   0  0  0  0  0  0  0  0  0  0  0  0
   32.4370   35.7260   22.3510 H   0  0  0  0  0  0  0  0  0  0  0  0
   31.3750   34.4250   22.7050 H   0  0  0  0  0  0  0  0  0  0  0  0
   29.8670   25.5550   16.9770 C   0  0  0  0  0  0  0  0  0  0  0  0
   28.3450   25.7220   17.0260 C   0  0  0  0  0  0  0  0  0  0  0  0
   27.6020   24.4000   16.9120 C   0  0  0  0  0  0  0  0  0  0  0  0
   26.1470   24.5350   17.2700 C   0  0  0  0  0  0  0  0  0  0  0  0
   26.0000   24.6010   18.7860 C   0  0  0  0  0  0  0  0  0  0  0  0
   25.4030   25.8950   19.1940 N   0  0  0  0  0  0  0  0  0  0  0  0
  1  4  1  0  0  0  0
  2 31  1  0  0  0  0
  2  1  1  0  0  0  0
  3  2  2  0  0  0  0
  5  1  1  0  0  0  0
  6  5  1  1  0  0  0
  6  7  1  0  0  0  0
  7 27  1  6  0  0  0
  8  7  1  1  0  0  0
  8 13  1  0  0  0  0
  9 16  1  6  0  0  0
  9 10  1  0  0  0  0
  9 14  1  0  0  0  0
 10 12  1  0  0  0  0
 11  8  1  0  0  0  0
 11  9  1  0  0  0  0
 12 13  1  0  0  0  0
 12 20  1  1  0  0  0
 13 22  1  6  0  0  0
 15 14  1  0  0  0  0
 16 18  1  0  0  0  0
 17 16  2  0  0  0  0
 19 18  1  0  0  0  0
 20 21  1  0  0  0  0
 22 23  1  0  0  0  0
 23 26  2  0  0  0  0
 24 22  1  0  0  0  0
 25 23  1  0  0  0  0
 28 27  1  0  0  0  0
 29 30  1  0  0  0  0
 29  6  1  0  0  0  0
 31 32  1  0  0  0  0
 32 33  1  0  0  0  0
 33 34  2  0  0  0  0
 34 36  1  0  0  0  0
 35 33  1  0  0  0  0
 35 37  2  0  0  0  0
 36 38  1  0  0  0  0
 37 36  1  0  0  0  0
 38 39  2  0  0  0  0
 38 40  1  0  0  0  0
 39 41  1  0  0  0  0
 40 42  2  0  0  0  0
 41 44  1  0  0  0  0
 41 43  2  0  0  0  0
 42 43  1  0  0  0  0
 44 46  2  0  0  0  0
 44 47  1  0  0  0  0
 45 44  2  0  0  0  0
 47 48  1  0  0  0  0
 47 49  1  0  0  0  0
 50 51  1  0  0  0  0
 52 51  1  0  0  0  0
 52 53  1  0  0  0  0
 53 54  1  0  0  0  0
 54 55  1  0  0  0  0
M  END
>  <REMARK>
 VINA RESULT:    -4.046      4.144      7.392
 INTER + INTRA:         -13.980
 INTER:                  -7.357
 INTRA:                  -6.624
 UNBOUND:                -6.624
 SMILES CC(=O)N[C@@H]1[C@@H](O)C[C@](O)(C(=O)O)O[C@H]1C(O)[C@H](O)CNC(=O)OCc1cn(-c2cccc(S(N)(=O)=O)c2)nn1
 SMILES IDX 21 1 22 2 23 3 20 5 18 6 16 7 15 8 9 9 8 10 14 11 6 12 5 13
 SMILES IDX 10 14 11 16 12 17 13 18 7 20 4 22 2 23 1 25 3 26 17 27 19 29
 SMILES IDX 24 31 25 32 26 33 27 34 40 35 28 36 39 37 29 38 38 39 30 40
 SMILES IDX 33 41 31 42 32 43 34 44 36 45 37 46 35 47
 H PARENT 21 4 10 15 13 19 7 21 4 24 17 28 19 30 35 48 35 49
 Flexibility Score: inf
  4 active torsions:
  status: ('A' for Active; 'I' for Inactive)
    1  A    between atoms: CA   and  CB  
    2  A    between atoms: CB   and  CG  
    3  A    between atoms: CG   and  CD  
    4  A    between atoms: CD   and  CE  

>  <TORSDO>
F 17

>  <BEGIN_>
RES LYS A 131

$$$$
ligand_23_pose_19_2HRL.pdbqt
 OpenBabel07062320523D

  6  5  0  0  0  0  0  0  0  0999 V2000
   33.1930   34.6630    9.2900 C   0  0  0  0  0  0  0  0  0  0  0  0
   32.0600   35.3600   10.0340 C   0  0  0  0  0  0  0  0  0  0  0  0
   30.6900   34.8800    9.6310 C   0  0  0  0  0  0  0  0  0  0  0  0
   29.6230   35.4830   10.5320 C   0  0  0  0  0  0  0  0  0  0  0  0
   28.4470   34.5370   10.6720 C   0  0  0  0  0  0  0  0  0  0  0  0
   28.2130   33.7810    9.4110 N   0  0  0  0  0  0  0  0  0  0  0  0
  1  2  1  0  0  0  0
  3  2  1  0  0  0  0
  3  4  1  0  0  0  0
  4  5  1  0  0  0  0
  6  5  1  0  0  0  0
M  END
>  <EGIN_R>
ES LYS A 135

>  <REMARK>
  4 active torsions:
  status: ('A' for Active; 'I' for Inactive)
    5  A    between atoms: CA   and  CB  
    6  A    between atoms: CB   and  CG  
    7  A    between atoms: CG   and  CD  
    8  A    between atoms: CD   and  CE  

$$$$
