ligand_7_pose_6_2HRL.pdbqt
 OpenBabel07062320523D

 52 53  0  0  1  0  0  0  0  0999 V2000
   30.0750   34.1710   20.7550 C   0  0  0  0  0  0  0  0  0  0  0  0
   31.0440   33.0870   20.4470 C   0  0  2  0  0  0  0  0  0  0  0  0
   30.4660   31.8690   19.8030 C   0  0  1  0  0  0  0  0  0  0  0  0
   30.6320   31.7640   18.3330 C   0  0  2  0  0  0  0  0  0  0  0  0
   30.8410   33.2490   16.5390 C   0  0  2  0  0  0  0  0  0  0  0  0
   30.5600   32.1430   15.5620 C   0  0  0  0  0  0  0  0  0  0  0  0
   31.2530   32.8410   17.7710 O   0  0  0  0  0  0  0  0  0  0  0  0
   29.9170   30.9460   16.1750 C   0  0  1  0  0  0  0  0  0  0  0  0
   29.4120   31.3330   17.5770 C   0  0  1  0  0  0  0  0  0  0  0  0
   29.6940   34.0330   16.6360 O   0  0  0  0  0  0  0  0  0  0  0  0
   28.9090   33.4450   16.4390 H   0  0  0  0  0  0  0  0  0  0  0  0
   31.9250   34.0780   15.9470 C   0  0  0  0  0  0  0  0  0  0  0  0
   32.3430   35.0930   16.5400 O   0  0  0  0  0  0  0  0  0  0  0  0
   32.4970   33.7370   14.7150 O   0  0  0  0  0  0  0  0  0  0  0  0
   33.2870   34.3000   14.3700 H   0  0  0  0  0  0  0  0  0  0  0  0
   28.9200   30.3740   15.4110 O   0  0  0  0  0  0  0  0  0  0  0  0
   29.0600   30.6770   14.4650 H   0  0  0  0  0  0  0  0  0  0  0  0
   28.8390   30.1250   18.1110 N   0  0  0  0  0  0  0  0  0  0  0  0
   27.5550   30.1960   18.7150 C   0  0  0  0  0  0  0  0  0  0  0  0
   29.3330   29.1990   18.0700 H   0  0  0  0  0  0  0  0  0  0  0  0
   26.8790   29.0070   19.2970 C   0  0  0  0  0  0  0  0  0  0  0  0
   26.9410   31.2900   18.7760 O   0  0  0  0  0  0  0  0  0  0  0  0
   31.0300   30.7530   20.4160 O   0  0  0  0  0  0  0  0  0  0  0  0
   30.8280   30.8050   21.3830 H   0  0  0  0  0  0  0  0  0  0  0  0
   31.8370   32.7830   21.5560 O   0  0  0  0  0  0  0  0  0  0  0  0
   32.6750   33.3090   21.5680 H   0  0  0  0  0  0  0  0  0  0  0  0
   29.4040   34.6850   19.5780 N   0  0  0  0  0  0  0  0  0  0  0  0
   27.9900   34.6660   19.4190 C   0  0  0  0  0  0  0  0  0  0  0  0
   29.9370   35.1100   18.7620 H   0  0  0  0  0  0  0  0  0  0  0  0
   27.2640   34.1910   20.3110 O   0  0  0  0  0  0  0  0  0  0  0  0
   27.3880   35.1750   18.2650 O   0  0  0  0  0  0  0  0  0  0  0  0
   26.0190   34.8390   17.9880 C   0  0  0  0  0  0  0  0  0  0  0  0
   25.9980   33.8730   16.8600 C   0  0  0  0  0  0  0  0  0  0  0  0
   24.8790   33.1990   16.4000 C   0  0  0  0  0  0  0  0  0  0  0  0
   27.0020   33.4750   16.0920 N   0  0  0  0  0  0  0  0  0  0  0  0
   25.2250   32.4150   15.3760 N   0  0  0  0  0  0  0  0  0  0  0  0
   26.5440   32.6190   15.2220 N   0  0  0  0  0  0  0  0  0  0  0  0
   24.4330   31.5410   14.5840 C   0  0  0  0  0  0  0  0  0  0  0  0
   23.7120   32.0310   13.5180 C   0  0  0  0  0  0  0  0  0  0  0  0
   24.3540   30.1820   14.8490 C   0  0  0  0  0  0  0  0  0  0  0  0
   23.7800   33.4770   13.2120 C   0  0  0  0  0  0  0  0  0  0  0  0
   22.9330   31.1650   12.7390 C   0  0  0  0  0  0  0  0  0  0  0  0
   23.5830   29.3380   14.0750 C   0  0  0  0  0  0  0  0  0  0  0  0
   25.1500   29.6650   16.0190 C   0  0  0  0  0  0  0  0  0  0  0  0
   22.8570   29.8150   13.0050 C   0  0  0  0  0  0  0  0  0  0  0  0
   22.0190   28.9130   12.1590 C   0  0  0  0  0  0  0  0  0  0  0  0
   29.8670   25.5550   16.9770 C   0  0  0  0  0  0  0  0  0  0  0  0
   28.3450   25.7220   17.0260 C   0  0  0  0  0  0  0  0  0  0  0  0
   27.6010   24.4030   16.8880 C   0  0  0  0  0  0  0  0  0  0  0  0
   26.6530   24.1640   18.0300 C   0  0  0  0  0  0  0  0  0  0  0  0
   25.9850   25.4790   18.4200 C   0  0  0  0  0  0  0  0  0  0  0  0
   25.7260   25.5170   19.8780 N   0  0  0  0  0  0  0  0  0  0  0  0
  2  1  1  1  0  0  0
  2 25  1  0  0  0  0
  3 23  1  1  0  0  0
  3  2  1  0  0  0  0
  4  3  1  1  0  0  0
  5 12  1  6  0  0  0
  5 10  1  0  0  0  0
  5  7  1  0  0  0  0
  6  8  1  0  0  0  0
  6  5  1  0  0  0  0
  7  4  1  0  0  0  0
  8 16  1  6  0  0  0
  8  9  1  0  0  0  0
  9 18  1  1  0  0  0
  9  4  1  0  0  0  0
 11 10  1  0  0  0  0
 12 13  2  0  0  0  0
 14 12  1  0  0  0  0
 15 14  1  0  0  0  0
 17 16  1  0  0  0  0
 18 19  1  0  0  0  0
 19 22  2  0  0  0  0
 19 21  1  0  0  0  0
 20 18  1  0  0  0  0
 23 24  1  0  0  0  0
 25 26  1  0  0  0  0
 27  1  1  0  0  0  0
 28 27  1  0  0  0  0
 28 30  2  0  0  0  0
 29 27  1  0  0  0  0
 31 28  1  0  0  0  0
 32 31  1  0  0  0  0
 33 32  1  0  0  0  0
 34 33  2  0  0  0  0
 35 33  1  0  0  0  0
 36 34  1  0  0  0  0
 37 36  1  0  0  0  0
 37 35  2  0  0  0  0
 38 40  1  0  0  0  0
 38 36  1  0  0  0  0
 39 38  2  0  0  0  0
 40 44  1  0  0  0  0
 41 39  1  0  0  0  0
 42 45  2  0  0  0  0
 42 39  1  0  0  0  0
 43 40  2  0  0  0  0
 45 43  1  0  0  0  0
 46 45  1  0  0  0  0
 47 48  1  0  0  0  0
 49 48  1  0  0  0  0
 49 50  1  0  0  0  0
 50 51  1  0  0  0  0
 51 52  1  0  0  0  0
M  END
>  <REMARK>
 VINA RESULT:    -4.826      3.943      6.656
 INTER + INTRA:         -14.270
 INTER:                  -7.707
 INTRA:                  -6.563
 UNBOUND:                -5.917
 SMILES CC(=O)N[C@@H]1[C@@H](O)C[C@](O)(C(=O)O)O[C@H]1C(O)[C@H](O)CNC(=O)OCc1cn(-c2c(C)cc(C)cc2C)nn1
 SMILES IDX 20 1 18 2 16 3 15 4 9 5 8 6 14 7 6 8 5 9 10 10 11 12 12 13
 SMILES IDX 13 14 7 16 4 18 2 19 1 21 3 22 17 23 19 25 21 27 22 28 23 30
 SMILES IDX 24 31 25 32 26 33 27 34 39 35 28 36 38 37 29 38 30 39 36 40
 SMILES IDX 31 41 32 42 35 43 37 44 33 45 34 46
 H PARENT 10 11 13 15 7 17 4 20 17 24 19 26 21 29
 Flexibility Score: inf
  4 active torsions:
  status: ('A' for Active; 'I' for Inactive)
    1  A    between atoms: CA   and  CB  
    2  A    between atoms: CB   and  CG  
    3  A    between atoms: CG   and  CD  
    4  A    between atoms: CD   and  CE  

>  <TORSDO>
F 15

>  <BEGIN_>
RES LYS A 131

$$$$
ligand_7_pose_6_2HRL.pdbqt
 OpenBabel07062320523D

  6  5  0  0  0  0  0  0  0  0999 V2000
   33.1930   34.6630    9.2900 C   0  0  0  0  0  0  0  0  0  0  0  0
   32.0600   35.3600   10.0340 C   0  0  0  0  0  0  0  0  0  0  0  0
   30.7060   34.7480    9.7810 C   0  0  0  0  0  0  0  0  0  0  0  0
   30.4660   34.5760    8.2890 C   0  0  0  0  0  0  0  0  0  0  0  0
   29.0110   34.8400    7.9500 C   0  0  0  0  0  0  0  0  0  0  0  0
   28.8850   35.5690    6.6580 N   0  0  0  0  0  0  0  0  0  0  0  0
  1  2  1  0  0  0  0
  3  2  1  0  0  0  0
  4  3  1  0  0  0  0
  5  4  1  0  0  0  0
  6  5  1  0  0  0  0
M  END
>  <EGIN_R>
ES LYS A 135

>  <REMARK>
  4 active torsions:
  status: ('A' for Active; 'I' for Inactive)
    5  A    between atoms: CA   and  CB  
    6  A    between atoms: CB   and  CG  
    7  A    between atoms: CG   and  CD  
    8  A    between atoms: CD   and  CE  

$$$$
