ligand_7_pose_16_2HRL.pdbqt
 OpenBabel07062320523D

 52 53  0  0  1  0  0  0  0  0999 V2000
   30.0780   31.4790   16.8400 C   0  0  0  0  0  0  0  0  0  0  0  0
   31.2420   32.2660   16.3580 C   0  0  2  0  0  0  0  0  0  0  0  0
   31.3420   33.6600   16.8880 C   0  0  1  0  0  0  0  0  0  0  0  0
   30.8210   34.7340   16.0090 C   0  0  2  0  0  0  0  0  0  0  0  0
   29.7660   34.8610   13.9260 C   0  0  2  0  0  0  0  0  0  0  0  0
   30.0480   36.3340   13.8470 C   0  0  0  0  0  0  0  0  0  0  0  0
   29.8180   34.3280   15.1790 O   0  0  0  0  0  0  0  0  0  0  0  0
   31.1160   36.7940   14.7810 C   0  0  1  0  0  0  0  0  0  0  0  0
   31.8620   35.5560   15.3110 C   0  0  1  0  0  0  0  0  0  0  0  0
   30.6580   34.2110   13.0750 O   0  0  0  0  0  0  0  0  0  0  0  0
   31.5690   34.5830   13.2530 H   0  0  0  0  0  0  0  0  0  0  0  0
   28.3890   34.6600   13.4020 C   0  0  0  0  0  0  0  0  0  0  0  0
   28.1210   34.9090   12.2090 O   0  0  0  0  0  0  0  0  0  0  0  0
   27.3660   34.1900   14.2360 O   0  0  0  0  0  0  0  0  0  0  0  0
   27.0500   34.7940   15.0090 H   0  0  0  0  0  0  0  0  0  0  0  0
   31.9840   37.7260   14.2480 O   0  0  0  0  0  0  0  0  0  0  0  0
   32.4010   38.2160   15.0170 H   0  0  0  0  0  0  0  0  0  0  0  0
   32.8460   36.0780   16.2230 N   0  0  0  0  0  0  0  0  0  0  0  0
   34.2150   35.7940   15.9740 C   0  0  0  0  0  0  0  0  0  0  0  0
   32.5890   36.6580   17.0600 H   0  0  0  0  0  0  0  0  0  0  0  0
   35.3060   36.2840   16.8560 C   0  0  0  0  0  0  0  0  0  0  0  0
   34.5510   35.1040   14.9790 O   0  0  0  0  0  0  0  0  0  0  0  0
   30.6820   33.7000   18.1140 O   0  0  0  0  0  0  0  0  0  0  0  0
   30.0750   32.9200   18.1550 H   0  0  0  0  0  0  0  0  0  0  0  0
   31.3510   32.2130   14.9660 O   0  0  0  0  0  0  0  0  0  0  0  0
   30.6590   31.6330   14.5620 H   0  0  0  0  0  0  0  0  0  0  0  0
   28.8050   32.0370   16.4300 N   0  0  0  0  0  0  0  0  0  0  0  0
   27.7160   31.2400   15.9780 C   0  0  0  0  0  0  0  0  0  0  0  0
   28.6120   33.0820   16.4460 H   0  0  0  0  0  0  0  0  0  0  0  0
   27.8280   30.0010   15.9170 O   0  0  0  0  0  0  0  0  0  0  0  0
   26.5060   31.8230   15.5940 O   0  0  0  0  0  0  0  0  0  0  0  0
   25.4330   31.8910   16.5470 C   0  0  0  0  0  0  0  0  0  0  0  0
   24.3780   30.9330   16.1260 C   0  0  0  0  0  0  0  0  0  0  0  0
   23.5000   31.1170   15.0710 C   0  0  0  0  0  0  0  0  0  0  0  0
   24.0730   29.7550   16.6500 N   0  0  0  0  0  0  0  0  0  0  0  0
   22.6910   30.0590   14.9790 N   0  0  0  0  0  0  0  0  0  0  0  0
   23.0820   29.2440   15.9740 N   0  0  0  0  0  0  0  0  0  0  0  0
   21.6370   29.7870   14.0650 C   0  0  0  0  0  0  0  0  0  0  0  0
   20.3390   30.1190   14.3840 C   0  0  0  0  0  0  0  0  0  0  0  0
   21.8690   29.1870   12.8380 C   0  0  0  0  0  0  0  0  0  0  0  0
   20.0640   30.7620   15.6880 C   0  0  0  0  0  0  0  0  0  0  0  0
   19.3030   29.8490   13.4810 C   0  0  0  0  0  0  0  0  0  0  0  0
   20.8410   28.9260   11.9540 C   0  0  0  0  0  0  0  0  0  0  0  0
   23.2950   28.8320   12.5070 C   0  0  0  0  0  0  0  0  0  0  0  0
   19.5370   29.2520   12.2600 C   0  0  0  0  0  0  0  0  0  0  0  0
   18.4150   28.9760   11.3150 C   0  0  0  0  0  0  0  0  0  0  0  0
   29.8670   25.5550   16.9770 C   0  0  0  0  0  0  0  0  0  0  0  0
   28.3450   25.7220   17.0260 C   0  0  0  0  0  0  0  0  0  0  0  0
   27.6020   24.3980   16.9370 C   0  0  0  0  0  0  0  0  0  0  0  0
   26.1380   24.5480   17.2420 C   0  0  0  0  0  0  0  0  0  0  0  0
   25.5760   23.2120   17.7160 C   0  0  0  0  0  0  0  0  0  0  0  0
   25.5340   23.1630   19.1970 N   0  0  0  0  0  0  0  0  0  0  0  0
  2  1  1  6  0  0  0
  2  3  1  0  0  0  0
  3 23  1  1  0  0  0
  4  3  1  6  0  0  0
  5 10  1  6  0  0  0
  5  7  1  0  0  0  0
  6  5  1  0  0  0  0
  6  8  1  0  0  0  0
  7  4  1  0  0  0  0
  8 16  1  6  0  0  0
  8  9  1  0  0  0  0
  9  4  1  0  0  0  0
  9 18  1  1  0  0  0
 10 11  1  0  0  0  0
 12  5  1  0  0  0  0
 12 14  1  0  0  0  0
 13 12  2  0  0  0  0
 14 15  1  0  0  0  0
 16 17  1  0  0  0  0
 18 20  1  0  0  0  0
 19 18  1  0  0  0  0
 19 21  1  0  0  0  0
 22 19  2  0  0  0  0
 23 24  1  0  0  0  0
 25  2  1  0  0  0  0
 26 25  1  0  0  0  0
 27 29  1  0  0  0  0
 27  1  1  0  0  0  0
 28 27  1  0  0  0  0
 30 28  2  0  0  0  0
 31 28  1  0  0  0  0
 31 32  1  0  0  0  0
 33 32  1  0  0  0  0
 33 35  1  0  0  0  0
 34 33  2  0  0  0  0
 36 34  1  0  0  0  0
 36 37  1  0  0  0  0
 37 35  2  0  0  0  0
 38 39  1  0  0  0  0
 38 36  1  0  0  0  0
 39 41  1  0  0  0  0
 40 38  2  0  0  0  0
 42 39  2  0  0  0  0
 43 45  2  0  0  0  0
 43 40  1  0  0  0  0
 44 40  1  0  0  0  0
 45 42  1  0  0  0  0
 46 45  1  0  0  0  0
 47 48  1  0  0  0  0
 49 48  1  0  0  0  0
 49 50  1  0  0  0  0
 50 51  1  0  0  0  0
 51 52  1  0  0  0  0
M  END
>  <REMARK>
 VINA RESULT:    -4.612      5.287      9.730
 INTER + INTRA:         -13.900
 INTER:                  -8.740
 INTRA:                  -5.160
 UNBOUND:                -5.917
 SMILES CC(=O)N[C@@H]1[C@@H](O)C[C@](O)(C(=O)O)O[C@H]1C(O)[C@H](O)CNC(=O)OCc1cn(-c2c(C)cc(C)cc2C)nn1
 SMILES IDX 20 1 18 2 16 3 15 4 9 5 8 6 14 7 6 8 5 9 10 10 11 12 12 13
 SMILES IDX 13 14 7 16 4 18 2 19 1 21 3 22 17 23 19 25 21 27 22 28 23 30
 SMILES IDX 24 31 25 32 26 33 27 34 39 35 28 36 38 37 29 38 30 39 36 40
 SMILES IDX 31 41 32 42 35 43 37 44 33 45 34 46
 H PARENT 10 11 13 15 7 17 4 20 17 24 19 26 21 29
 Flexibility Score: inf
  4 active torsions:
  status: ('A' for Active; 'I' for Inactive)
    1  A    between atoms: CA   and  CB  
    2  A    between atoms: CB   and  CG  
    3  A    between atoms: CG   and  CD  
    4  A    between atoms: CD   and  CE  

>  <TORSDO>
F 15

>  <BEGIN_>
RES LYS A 131

$$$$
ligand_7_pose_16_2HRL.pdbqt
 OpenBabel07062320523D

  6  5  0  0  0  0  0  0  0  0999 V2000
   33.1930   34.6630    9.2900 C   0  0  0  0  0  0  0  0  0  0  0  0
   32.0600   35.3600   10.0340 C   0  0  0  0  0  0  0  0  0  0  0  0
   30.7060   34.7510    9.7770 C   0  0  0  0  0  0  0  0  0  0  0  0
   30.4260   34.6750    8.2840 C   0  0  0  0  0  0  0  0  0  0  0  0
   29.0380   35.2040    7.9760 C   0  0  0  0  0  0  0  0  0  0  0  0
   28.9020   35.5430    6.5320 N   0  0  0  0  0  0  0  0  0  0  0  0
  1  2  1  0  0  0  0
  3  2  1  0  0  0  0
  4  3  1  0  0  0  0
  5  4  1  0  0  0  0
  6  5  1  0  0  0  0
M  END
>  <EGIN_R>
ES LYS A 135

>  <REMARK>
  4 active torsions:
  status: ('A' for Active; 'I' for Inactive)
    5  A    between atoms: CA   and  CB  
    6  A    between atoms: CB   and  CG  
    7  A    between atoms: CG   and  CD  
    8  A    between atoms: CD   and  CE  

$$$$
