ligand_89_pose_6_2HRL.pdbqt
 OpenBabel07062320523D

 60 63  0  0  1  0  0  0  0  0999 V2000
   26.9780   40.7050    8.6950 N   0  0  0  0  0  0  0  0  0  0  0  0
   28.1630   41.4320    8.8030 C   0  0  0  0  0  0  0  0  0  0  0  0
   28.4190   42.4360    8.1360 O   0  0  0  0  0  0  0  0  0  0  0  0
   26.8820   39.8550    9.3780 H   0  0  0  0  0  0  0  0  0  0  0  0
   25.9090   40.9550    7.8060 C   0  0  0  0  0  0  0  0  0  0  0  0
   24.5690   40.5780    8.2570 C   0  0  2  0  0  0  0  0  0  0  0  0
   24.3050   39.4100    9.1140 C   0  0  1  0  0  0  0  0  0  0  0  0
   24.4190   38.1680    8.1820 C   0  0  2  0  0  0  0  0  0  0  0  0
   22.7210   36.7240    8.9230 C   0  0  2  0  0  0  0  0  0  0  0  0
   23.7360   35.6670    9.2080 C   0  0  0  0  0  0  0  0  0  0  0  0
   23.1920   37.6380    8.0380 O   0  0  0  0  0  0  0  0  0  0  0  0
   25.1020   36.1970    9.5620 C   0  0  1  0  0  0  0  0  0  0  0  0
   25.5350   37.2890    8.6100 C   0  0  1  0  0  0  0  0  0  0  0  0
   22.3800   37.4010   10.1210 O   0  0  0  0  0  0  0  0  0  0  0  0
   22.3470   36.6900   10.8160 H   0  0  0  0  0  0  0  0  0  0  0  0
   21.5030   36.0110    8.4100 C   0  0  0  0  0  0  0  0  0  0  0  0
   20.8690   35.2620    9.1650 O   0  0  0  0  0  0  0  0  0  0  0  0
   21.0970   36.1930    7.1100 O   0  0  0  0  0  0  0  0  0  0  0  0
   21.7280   36.6100    6.4200 H   0  0  0  0  0  0  0  0  0  0  0  0
   25.1760   36.6470   10.8820 O   0  0  0  0  0  0  0  0  0  0  0  0
   24.6460   37.4750   10.9760 H   0  0  0  0  0  0  0  0  0  0  0  0
   26.1760   36.6250    7.4670 N   0  0  0  0  0  0  0  0  0  0  0  0
   27.3740   37.0930    6.8910 C   0  0  0  0  0  0  0  0  0  0  0  0
   25.7440   35.7590    7.0370 H   0  0  0  0  0  0  0  0  0  0  0  0
   28.0180   36.4170    5.7350 C   0  0  0  0  0  0  0  0  0  0  0  0
   27.9400   38.1260    7.3590 O   0  0  0  0  0  0  0  0  0  0  0  0
   25.1940   39.2380   10.1770 O   0  0  0  0  0  0  0  0  0  0  0  0
   25.2740   40.0920   10.7070 H   0  0  0  0  0  0  0  0  0  0  0  0
   23.7780   40.4540    7.0510 O   0  0  0  0  0  0  0  0  0  0  0  0
   23.2580   41.2620    6.8980 H   0  0  0  0  0  0  0  0  0  0  0  0
   29.1700   41.0400    9.7130 O   0  0  0  0  0  0  0  0  0  0  0  0
   28.8810   40.7590   11.0520 C   0  0  0  0  0  0  0  0  0  0  0  0
   28.7930   39.2890   11.2470 C   0  0  0  0  0  0  0  0  0  0  0  0
   29.5990   38.5040   12.0660 C   0  0  0  0  0  0  0  0  0  0  0  0
   27.9330   38.4180   10.6900 N   0  0  0  0  0  0  0  0  0  0  0  0
   29.2120   37.1990   11.9860 N   0  0  0  0  0  0  0  0  0  0  0  0
   28.2100   37.2120   11.1460 N   0  0  0  0  0  0  0  0  0  0  0  0
   29.8400   36.1460   12.7120 C   0  0  0  0  0  0  0  0  0  0  0  0
   31.1800   35.8820   12.7320 N   0  0  0  0  0  0  0  0  0  0  0  0
   29.2710   35.1990   13.5220 C   0  0  0  0  0  0  0  0  0  0  0  0
   31.3970   34.8230   13.5210 C   0  0  0  0  0  0  0  0  0  0  0  0
   30.2360   34.3710   14.0290 N   0  0  0  0  0  0  0  0  0  0  0  0
   27.9840   34.9570   13.8880 C   0  0  0  0  0  0  0  0  0  0  0  0
   29.9430   33.3520   14.8580 C   0  0  0  0  0  0  0  0  0  0  0  0
   27.6490   33.9620   14.7050 N   0  0  0  0  0  0  0  0  0  0  0  0
   27.0440   35.6750   13.4610 O   0  0  0  0  0  0  0  0  0  0  0  0
   30.9430   32.5380   15.3490 C   0  0  0  0  0  0  0  0  0  0  0  0
   28.6190   33.1580   15.1920 C   0  0  0  0  0  0  0  0  0  0  0  0
   30.6710   31.4830   16.2030 C   0  0  0  0  0  0  0  0  0  0  0  0
   28.3720   32.0950   16.0480 C   0  0  0  0  0  0  0  0  0  0  0  0
   29.3640   31.2720   16.5470 C   0  0  0  0  0  0  0  0  0  0  0  0
   26.3040   33.6520   15.1340 C   0  0  0  0  0  0  0  0  0  0  0  0
   25.4810   33.4140   13.8860 C   0  0  0  0  0  0  0  0  0  0  0  0
   25.6350   34.7340   15.9200 C   0  0  0  0  0  0  0  0  0  0  0  0
   29.8670   25.5550   16.9770 C   0  0  0  0  0  0  0  0  0  0  0  0
   28.3450   25.7220   17.0260 C   0  0  0  0  0  0  0  0  0  0  0  0
   27.6000   24.4110   16.8250 C   0  0  0  0  0  0  0  0  0  0  0  0
   26.8310   24.0030   18.0510 C   0  0  0  0  0  0  0  0  0  0  0  0
   26.0060   25.1850   18.5510 C   0  0  0  0  0  0  0  0  0  0  0  0
   24.8150   25.3870   17.6910 N   0  0  0  0  0  0  0  0  0  0  0  0
  1  2  1  0  0  0  0
  1  4  1  0  0  0  0
  2 31  1  0  0  0  0
  3  2  2  0  0  0  0
  5  1  1  0  0  0  0
  6  5  1  6  0  0  0
  6  7  1  0  0  0  0
  7 27  1  1  0  0  0
  8 13  1  0  0  0  0
  8  7  1  1  0  0  0
  9 16  1  6  0  0  0
  9 10  1  0  0  0  0
  9 14  1  0  0  0  0
 10 12  1  0  0  0  0
 11  8  1  0  0  0  0
 11  9  1  0  0  0  0
 12 20  1  1  0  0  0
 13 22  1  6  0  0  0
 13 12  1  0  0  0  0
 14 15  1  0  0  0  0
 16 17  2  0  0  0  0
 18 16  1  0  0  0  0
 19 18  1  0  0  0  0
 20 21  1  0  0  0  0
 23 26  2  0  0  0  0
 23 22  1  0  0  0  0
 24 22  1  0  0  0  0
 25 23  1  0  0  0  0
 27 28  1  0  0  0  0
 29  6  1  0  0  0  0
 30 29  1  0  0  0  0
 31 32  1  0  0  0  0
 32 33  1  0  0  0  0
 33 34  2  0  0  0  0
 35 37  2  0  0  0  0
 35 33  1  0  0  0  0
 36 34  1  0  0  0  0
 36 38  1  0  0  0  0
 37 36  1  0  0  0  0
 38 39  1  0  0  0  0
 38 40  2  0  0  0  0
 39 41  2  0  0  0  0
 40 43  1  0  0  0  0
 40 42  1  0  0  0  0
 41 42  1  0  0  0  0
 42 44  1  0  0  0  0
 43 45  1  0  0  0  0
 44 48  2  0  0  0  0
 44 47  1  0  0  0  0
 45 52  1  0  0  0  0
 45 48  1  0  0  0  0
 46 43  2  0  0  0  0
 47 49  2  0  0  0  0
 48 50  1  0  0  0  0
 49 51  1  0  0  0  0
 50 51  2  0  0  0  0
 52 54  1  0  0  0  0
 53 52  1  0  0  0  0
 55 56  1  0  0  0  0
 57 56  1  0  0  0  0
 57 58  1  0  0  0  0
 58 59  1  0  0  0  0
 60 59  1  0  0  0  0
M  END
>  <REMARK>
 VINA RESULT:    -4.702      5.663     12.237
 INTER + INTRA:         -15.521
 INTER:                  -9.469
 INTRA:                  -6.053
 UNBOUND:                -7.109
 SMILES CC(=O)N[C@@H]1[C@@H](O)C[C@](O)(C(=O)O)O[C@H]1C(O)[C@H](O)CNC(=O)OCc1cn(-c2ncn3c2c(=O)n(C(C)C)c2ccccc23)nn1
 SMILES IDX 21 1 22 2 23 3 20 5 18 6 16 7 15 8 9 9 8 10 14 11 6 12 5 13
 SMILES IDX 10 14 11 16 12 17 13 18 7 20 4 22 2 23 1 25 3 26 17 27 19 29
 SMILES IDX 24 31 25 32 26 33 27 34 47 35 28 36 46 37 29 38 30 39 33 40
 SMILES IDX 31 41 32 42 34 43 45 44 36 45 35 46 44 47 40 48 43 49 41 50
 SMILES IDX 42 51 37 52 38 53 39 54
 H PARENT 21 4 10 15 13 19 7 21 4 24 17 28 19 30
 Flexibility Score: inf
  4 active torsions:
  status: ('A' for Active; 'I' for Inactive)
    1  A    between atoms: CA   and  CB  
    2  A    between atoms: CB   and  CG  
    3  A    between atoms: CG   and  CD  
    4  A    between atoms: CD   and  CE  

>  <TORSDO>
F 16

>  <BEGIN_>
RES LYS A 131

$$$$
ligand_89_pose_6_2HRL.pdbqt
 OpenBabel07062320523D

  6  5  0  0  0  0  0  0  0  0999 V2000
   33.1930   34.6630    9.2900 C   0  0  0  0  0  0  0  0  0  0  0  0
   32.0600   35.3600   10.0340 C   0  0  0  0  0  0  0  0  0  0  0  0
   30.7960   35.4870    9.2240 C   0  0  0  0  0  0  0  0  0  0  0  0
   30.1150   34.1350    9.0770 C   0  0  0  0  0  0  0  0  0  0  0  0
   28.6450   34.3130    8.7470 C   0  0  0  0  0  0  0  0  0  0  0  0
   27.7830   33.7960    9.8460 N   0  0  0  0  0  0  0  0  0  0  0  0
  1  2  1  0  0  0  0
  3  2  1  0  0  0  0
  4  3  1  0  0  0  0
  5  4  1  0  0  0  0
  5  6  1  0  0  0  0
M  END
>  <EGIN_R>
ES LYS A 135

>  <REMARK>
  4 active torsions:
  status: ('A' for Active; 'I' for Inactive)
    5  A    between atoms: CA   and  CB  
    6  A    between atoms: CB   and  CG  
    7  A    between atoms: CG   and  CD  
    8  A    between atoms: CD   and  CE  

$$$$
