ligand_84_pose_18_2HRL.pdbqt
 OpenBabel07062320523D

 60 62  0  0  1  0  0  0  0  0999 V2000
   27.1930   28.1380   16.9380 O   0  0  0  0  0  0  0  0  0  0  0  0
   27.0670   27.7450   18.2620 C   0  0  0  0  0  0  0  0  0  0  0  0
   28.1650   27.5350   19.1410 N   0  0  0  0  0  0  0  0  0  0  0  0
   29.1120   27.6830   18.7420 H   0  0  0  0  0  0  0  0  0  0  0  0
   25.8880   27.5760   18.6760 O   0  0  0  0  0  0  0  0  0  0  0  0
   27.8610   27.1450   20.4780 C   0  0  0  0  0  0  0  0  0  0  0  0
   27.6610   28.2310   21.4580 C   0  0  2  0  0  0  0  0  0  0  0  0
   28.3800   28.0600   22.7840 C   0  0  1  0  0  0  0  0  0  0  0  0
   29.5620   29.0270   22.6950 C   0  0  2  0  0  0  0  0  0  0  0  0
   30.8340   30.0690   21.0400 C   0  0  2  0  0  0  0  0  0  0  0  0
   32.0750   29.8490   21.8580 C   0  0  0  0  0  0  0  0  0  0  0  0
   29.7940   29.2400   21.3650 O   0  0  0  0  0  0  0  0  0  0  0  0
   31.8330   29.5460   23.2920 C   0  0  1  0  0  0  0  0  0  0  0  0
   30.7640   28.4330   23.3500 C   0  0  1  0  0  0  0  0  0  0  0  0
   31.2120   29.7330   19.7140 O   0  0  0  0  0  0  0  0  0  0  0  0
   32.1370   29.4260   19.6770 H   0  0  0  0  0  0  0  0  0  0  0  0
   30.4160   31.5010   20.9920 C   0  0  0  0  0  0  0  0  0  0  0  0
   29.6930   31.9800   21.9020 O   0  0  0  0  0  0  0  0  0  0  0  0
   30.7920   32.3620   19.9720 O   0  0  0  0  0  0  0  0  0  0  0  0
   30.2780   32.4850   19.1070 H   0  0  0  0  0  0  0  0  0  0  0  0
   33.0100   29.0450   23.8500 O   0  0  0  0  0  0  0  0  0  0  0  0
   32.9270   28.0710   24.0280 H   0  0  0  0  0  0  0  0  0  0  0  0
   30.5340   28.0430   24.7160 N   0  0  0  0  0  0  0  0  0  0  0  0
   31.2100   26.9440   25.2900 C   0  0  0  0  0  0  0  0  0  0  0  0
   29.8600   28.5810   25.2860 H   0  0  0  0  0  0  0  0  0  0  0  0
   30.8950   26.6260   26.7150 C   0  0  0  0  0  0  0  0  0  0  0  0
   32.0400   26.2480   24.6690 O   0  0  0  0  0  0  0  0  0  0  0  0
   27.5070   28.4340   23.8180 O   0  0  0  0  0  0  0  0  0  0  0  0
   27.2020   27.5890   24.2370 H   0  0  0  0  0  0  0  0  0  0  0  0
   26.2850   28.2020   21.8190 O   0  0  0  0  0  0  0  0  0  0  0  0
   25.8760   27.5780   21.1550 H   0  0  0  0  0  0  0  0  0  0  0  0
   27.0190   29.4950   16.5640 C   0  0  0  0  0  0  0  0  0  0  0  0
   28.2820   30.2460   16.7400 C   0  0  0  0  0  0  0  0  0  0  0  0
   29.0170   30.7930   15.6850 C   0  0  0  0  0  0  0  0  0  0  0  0
   28.9800   30.5820   17.8330 N   0  0  0  0  0  0  0  0  0  0  0  0
   30.1030   31.4250   16.1510 N   0  0  0  0  0  0  0  0  0  0  0  0
   30.0530   31.2740   17.4940 N   0  0  0  0  0  0  0  0  0  0  0  0
   31.1330   32.1520   15.4320 C   0  0  0  0  0  0  0  0  0  0  0  0
   30.8070   33.6500   15.4600 C   0  0  1  0  0  0  0  0  0  0  0  0
   31.4410   34.3350   16.6120 C   0  0  0  0  0  0  0  0  0  0  0  0
   30.8920   34.2550   14.1220 C   0  0  0  0  0  0  0  0  0  0  0  0
   29.6210   34.4940   13.5140 N   0  0  0  0  0  0  0  0  0  0  0  0
   28.5350   34.1840   14.4830 C   0  0  0  0  0  0  0  0  0  0  0  0
   29.4520   35.9230   13.2680 C   0  0  0  0  0  0  0  0  0  0  0  0
   27.2010   34.5720   13.9500 C   0  0  0  0  0  0  0  0  0  0  0  0
   28.3430   35.9950   12.2070 C   0  0  0  0  0  0  0  0  0  0  0  0
   27.1950   35.3050   12.7220 N   0  0  0  0  0  0  0  0  0  0  0  0
   25.9940   35.3690   11.9630 C   0  0  0  0  0  0  0  0  0  0  0  0
   24.8700   34.7170   12.4180 C   0  0  0  0  0  0  0  0  0  0  0  0
   25.9430   36.0720   10.7660 C   0  0  0  0  0  0  0  0  0  0  0  0
   23.7140   34.7760   11.6740 C   0  0  0  0  0  0  0  0  0  0  0  0
   24.7860   36.1220   10.0340 C   0  0  0  0  0  0  0  0  0  0  0  0
   23.6590   35.4640   10.5000 C   0  0  0  0  0  0  0  0  0  0  0  0
   22.1970   35.5320    9.5520 Cl  0  0  0  0  0  0  0  0  0  0  0  0
   29.8670   25.5550   16.9770 C   0  0  0  0  0  0  0  0  0  0  0  0
   28.3450   25.7220   17.0260 C   0  0  0  0  0  0  0  0  0  0  0  0
   27.6000   24.4110   16.8300 C   0  0  0  0  0  0  0  0  0  0  0  0
   26.7570   24.0540   18.0230 C   0  0  0  0  0  0  0  0  0  0  0  0
   25.3960   23.5510   17.5520 C   0  0  0  0  0  0  0  0  0  0  0  0
   24.6120   24.6580   16.9550 N   0  0  0  0  0  0  0  0  0  0  0  0
  1  2  1  0  0  0  0
  2  5  2  0  0  0  0
  2  3  1  0  0  0  0
  3  6  1  0  0  0  0
  4  3  1  0  0  0  0
  7  6  1  6  0  0  0
  7 30  1  0  0  0  0
  7  8  1  0  0  0  0
  8 28  1  1  0  0  0
  9  8  1  6  0  0  0
  9 14  1  0  0  0  0
 10 15  1  6  0  0  0
 10 12  1  0  0  0  0
 10 11  1  0  0  0  0
 11 13  1  0  0  0  0
 12  9  1  0  0  0  0
 13 14  1  0  0  0  0
 13 21  1  6  0  0  0
 14 23  1  1  0  0  0
 16 15  1  0  0  0  0
 17 10  1  0  0  0  0
 17 18  2  0  0  0  0
 19 17  1  0  0  0  0
 20 19  1  0  0  0  0
 21 22  1  0  0  0  0
 23 25  1  0  0  0  0
 23 24  1  0  0  0  0
 24 26  1  0  0  0  0
 27 24  2  0  0  0  0
 28 29  1  0  0  0  0
 31 30  1  0  0  0  0
 32 33  1  0  0  0  0
 32  1  1  0  0  0  0
 33 35  1  0  0  0  0
 34 36  1  0  0  0  0
 34 33  2  0  0  0  0
 36 37  1  0  0  0  0
 37 35  2  0  0  0  0
 38 39  1  0  0  0  0
 38 36  1  0  0  0  0
 39 40  1  1  0  0  0
 41 39  1  0  0  0  0
 42 41  1  0  0  0  0
 42 43  1  0  0  0  0
 44 42  1  0  0  0  0
 45 43  1  0  0  0  0
 46 47  1  0  0  0  0
 46 44  1  0  0  0  0
 47 45  1  0  0  0  0
 48 49  1  0  0  0  0
 48 47  1  0  0  0  0
 50 48  2  0  0  0  0
 51 49  2  0  0  0  0
 52 53  2  0  0  0  0
 52 50  1  0  0  0  0
 53 51  1  0  0  0  0
 54 53  1  0  0  0  0
 55 56  1  0  0  0  0
 57 56  1  0  0  0  0
 57 58  1  0  0  0  0
 59 58  1  0  0  0  0
 60 59  1  0  0  0  0
M  END
>  <REMARK>
 VINA RESULT:    -4.863      7.192     12.887
 INTER + INTRA:         -15.675
 INTER:                  -9.555
 INTRA:                  -6.121
 UNBOUND:                -6.121
 SMILES CC(=O)N[C@@H]1[C@@H](O)C[C@](O)(C(=O)O)O[C@H]1C(O)[C@H](O)CNC(=O)OCc1cn(C[C@@H](C)CN2CCN(c3ccc(Cl)cc3)CC2)nn1
 SMILES IDX 24 1 22 2 21 3 23 5 20 6 18 7 16 8 15 9 9 10 8 11 14 12 6 13
 SMILES IDX 5 14 10 15 11 17 12 18 13 19 7 21 4 23 2 24 1 26 3 27 17 28
 SMILES IDX 19 30 25 32 26 33 27 34 47 35 28 36 46 37 29 38 30 39 31 40
 SMILES IDX 32 41 33 42 34 43 45 44 35 45 44 46 36 47 37 48 38 49 43 50
 SMILES IDX 39 51 42 52 40 53 41 54
 H PARENT 21 4 10 16 13 20 7 22 4 25 17 29 19 31
 Flexibility Score: inf
  4 active torsions:
  status: ('A' for Active; 'I' for Inactive)
    1  A    between atoms: CA   and  CB  
    2  A    between atoms: CB   and  CG  
    3  A    between atoms: CG   and  CD  
    4  A    between atoms: CD   and  CE  

>  <TORSDO>
F 19

>  <BEGIN_>
RES LYS A 131

$$$$
ligand_84_pose_18_2HRL.pdbqt
 OpenBabel07062320523D

  6  5  0  0  0  0  0  0  0  0999 V2000
   33.1930   34.6630    9.2900 C   0  0  0  0  0  0  0  0  0  0  0  0
   32.0600   35.3600   10.0340 C   0  0  0  0  0  0  0  0  0  0  0  0
   30.7400   34.6400    9.9320 C   0  0  0  0  0  0  0  0  0  0  0  0
   30.3170   34.4990    8.4790 C   0  0  0  0  0  0  0  0  0  0  0  0
   28.8040   34.5020    8.3610 C   0  0  0  0  0  0  0  0  0  0  0  0
   28.1810   33.6730    9.4300 N   0  0  0  0  0  0  0  0  0  0  0  0
  1  2  1  0  0  0  0
  3  2  1  0  0  0  0
  4  3  1  0  0  0  0
  5  4  1  0  0  0  0
  5  6  1  0  0  0  0
M  END
>  <EGIN_R>
ES LYS A 135

>  <REMARK>
  4 active torsions:
  status: ('A' for Active; 'I' for Inactive)
    5  A    between atoms: CA   and  CB  
    6  A    between atoms: CB   and  CG  
    7  A    between atoms: CG   and  CD  
    8  A    between atoms: CD   and  CE  

$$$$
