ligand_31_pose_5_2HRL.pdbqt
 OpenBabel07062320523D

 57 58  0  0  1  0  0  0  0  0999 V2000
   25.5580   33.5580   14.8590 O   0  0  0  0  0  0  0  0  0  0  0  0
   26.7300   34.1120   14.3560 C   0  0  0  0  0  0  0  0  0  0  0  0
   27.9420   34.1800   15.0580 N   0  0  0  0  0  0  0  0  0  0  0  0
   28.0040   33.8020   16.0140 H   0  0  0  0  0  0  0  0  0  0  0  0
   26.6910   34.5840   13.1890 O   0  0  0  0  0  0  0  0  0  0  0  0
   29.1200   34.7880   14.4310 C   0  0  0  0  0  0  0  0  0  0  0  0
   30.2370   33.7790   14.4160 C   0  0  2  0  0  0  0  0  0  0  0  0
   31.4200   34.2180   15.2340 C   0  0  1  0  0  0  0  0  0  0  0  0
   31.3810   33.6930   16.6400 C   0  0  2  0  0  0  0  0  0  0  0  0
   29.8580   32.6740   18.0900 C   0  0  2  0  0  0  0  0  0  0  0  0
   30.6070   33.1650   19.2850 C   0  0  0  0  0  0  0  0  0  0  0  0
   30.0440   33.3830   16.9470 O   0  0  0  0  0  0  0  0  0  0  0  0
   31.8340   33.9340   19.0030 C   0  0  1  0  0  0  0  0  0  0  0  0
   31.7780   34.6980   17.6940 C   0  0  1  0  0  0  0  0  0  0  0  0
   28.4860   32.8170   18.4230 O   0  0  0  0  0  0  0  0  0  0  0  0
   28.1700   32.0380   18.9450 H   0  0  0  0  0  0  0  0  0  0  0  0
   30.0750   31.2310   17.8240 C   0  0  0  0  0  0  0  0  0  0  0  0
   29.9460   30.7450   16.6650 O   0  0  0  0  0  0  0  0  0  0  0  0
   30.4270   30.3290   18.8210 O   0  0  0  0  0  0  0  0  0  0  0  0
   30.4850   29.3380   18.6100 H   0  0  0  0  0  0  0  0  0  0  0  0
   32.0910   34.8300   20.0620 O   0  0  0  0  0  0  0  0  0  0  0  0
   32.5390   35.6420   19.7500 H   0  0  0  0  0  0  0  0  0  0  0  0
   32.9980   35.3910   17.4610 N   0  0  0  0  0  0  0  0  0  0  0  0
   32.9570   36.8020   17.2380 C   0  0  0  0  0  0  0  0  0  0  0  0
   33.9400   34.9450   17.4470 H   0  0  0  0  0  0  0  0  0  0  0  0
   34.1680   37.6130   16.9890 C   0  0  0  0  0  0  0  0  0  0  0  0
   31.8450   37.4060   17.2520 O   0  0  0  0  0  0  0  0  0  0  0  0
   32.6340   34.0380   14.5960 O   0  0  0  0  0  0  0  0  0  0  0  0
   32.5860   33.4510   13.8000 H   0  0  0  0  0  0  0  0  0  0  0  0
   30.7030   33.7510   13.0730 O   0  0  0  0  0  0  0  0  0  0  0  0
   30.3190   34.5900   12.6720 H   0  0  0  0  0  0  0  0  0  0  0  0
   25.1930   32.2240   14.5750 C   0  0  0  0  0  0  0  0  0  0  0  0
   25.6800   31.3670   15.6780 C   0  0  0  0  0  0  0  0  0  0  0  0
   25.5820   30.0050   15.7710 C   0  0  0  0  0  0  0  0  0  0  0  0
   26.3100   31.7850   16.7880 N   0  0  0  0  0  0  0  0  0  0  0  0
   26.1530   29.6340   16.9310 N   0  0  0  0  0  0  0  0  0  0  0  0
   26.5940   30.7190   17.5460 N   0  0  0  0  0  0  0  0  0  0  0  0
   26.2820   28.2710   17.4550 C   0  0  0  0  0  0  0  0  0  0  0  0
   26.7240   28.3790   18.8900 C   0  0  0  0  0  0  0  0  0  0  0  0
   28.1080   27.9930   18.9950 N   0  0  0  0  0  0  0  0  0  0  0  0
   28.7680   27.7140   20.2150 C   0  0  0  0  0  0  0  0  0  0  0  0
   28.6950   27.9040   18.1170 H   0  0  0  0  0  0  0  0  0  0  0  0
   28.1030   27.8050   21.2900 O   0  0  0  0  0  0  0  0  0  0  0  0
   30.1380   27.3430   20.2130 N   0  0  0  0  0  0  0  0  0  0  0  0
   30.7040   27.2610   19.3490 H   0  0  0  0  0  0  0  0  0  0  0  0
   30.7780   27.0650   21.4800 C   0  0  0  0  0  0  0  0  0  0  0  0
   31.8270   28.0830   21.7070 C   0  0  0  0  0  0  0  0  0  0  0  0
   32.6350   28.1240   22.8380 C   0  0  0  0  0  0  0  0  0  0  0  0
   32.1540   29.0630   20.9250 O   0  0  0  0  0  0  0  0  0  0  0  0
   33.4640   29.2090   22.6560 C   0  0  0  0  0  0  0  0  0  0  0  0
   33.1190   29.7610   21.4400 C   0  0  0  0  0  0  0  0  0  0  0  0
   29.8670   25.5550   16.9770 C   0  0  0  0  0  0  0  0  0  0  0  0
   28.3450   25.7220   17.0260 C   0  0  0  0  0  0  0  0  0  0  0  0
   27.6010   24.4010   16.9000 C   0  0  0  0  0  0  0  0  0  0  0  0
   26.5240   24.2570   17.9390 C   0  0  0  0  0  0  0  0  0  0  0  0
   25.2060   23.8990   17.2600 C   0  0  0  0  0  0  0  0  0  0  0  0
   24.8270   22.5000   17.5690 N   0  0  0  0  0  0  0  0  0  0  0  0
  2  1  1  0  0  0  0
  2  3  1  0  0  0  0
  3  4  1  0  0  0  0
  5  2  2  0  0  0  0
  6  3  1  0  0  0  0
  7  6  1  6  0  0  0
  7  8  1  0  0  0  0
  8 28  1  6  0  0  0
  9  8  1  6  0  0  0
  9 12  1  0  0  0  0
  9 14  1  0  0  0  0
 10 17  1  6  0  0  0
 10 15  1  0  0  0  0
 10 11  1  0  0  0  0
 12 10  1  0  0  0  0
 13 11  1  0  0  0  0
 13 21  1  1  0  0  0
 14 23  1  6  0  0  0
 14 13  1  0  0  0  0
 15 16  1  0  0  0  0
 17 19  1  0  0  0  0
 18 17  2  0  0  0  0
 20 19  1  0  0  0  0
 22 21  1  0  0  0  0
 24 27  2  0  0  0  0
 24 23  1  0  0  0  0
 25 23  1  0  0  0  0
 26 24  1  0  0  0  0
 29 28  1  0  0  0  0
 30  7  1  0  0  0  0
 31 30  1  0  0  0  0
 32  1  1  0  0  0  0
 32 33  1  0  0  0  0
 33 34  2  0  0  0  0
 33 35  1  0  0  0  0
 34 36  1  0  0  0  0
 35 37  2  0  0  0  0
 36 38  1  0  0  0  0
 36 37  1  0  0  0  0
 38 39  1  0  0  0  0
 39 40  1  0  0  0  0
 40 41  1  0  0  0  0
 41 43  2  0  0  0  0
 42 40  1  0  0  0  0
 44 41  1  0  0  0  0
 44 46  1  0  0  0  0
 45 44  1  0  0  0  0
 46 47  1  0  0  0  0
 47 48  2  0  0  0  0
 49 51  1  0  0  0  0
 49 47  1  0  0  0  0
 50 48  1  0  0  0  0
 51 50  2  0  0  0  0
 52 53  1  0  0  0  0
 54 53  1  0  0  0  0
 54 55  1  0  0  0  0
 56 57  1  0  0  0  0
 56 55  1  0  0  0  0
M  END
>  <REMARK>
 VINA RESULT:    -5.058      2.392      6.817
 INTER + INTRA:         -15.846
 INTER:                  -9.133
 INTRA:                  -6.713
 UNBOUND:                -5.909
 SMILES CC(=O)N[C@@H]1[C@@H](O)C[C@](O)(C(=O)O)O[C@H]1C(O)[C@H](O)CNC(=O)OCc1cn(CCNC(=O)NCc2ccco2)nn1
 SMILES IDX 24 1 22 2 21 3 23 5 20 6 18 7 16 8 15 9 9 10 8 11 14 12 6 13
 SMILES IDX 5 14 10 15 11 17 12 18 13 19 7 21 4 23 2 24 1 26 3 27 17 28
 SMILES IDX 19 30 25 32 26 33 27 34 42 35 28 36 41 37 29 38 30 39 31 40
 SMILES IDX 32 41 33 43 34 44 35 46 36 47 37 48 40 49 38 50 39 51
 H PARENT 21 4 10 16 13 20 7 22 4 25 17 29 19 31 31 42 34 45
 Flexibility Score: inf
  4 active torsions:
  status: ('A' for Active; 'I' for Inactive)
    1  A    between atoms: CA   and  CB  
    2  A    between atoms: CB   and  CG  
    3  A    between atoms: CG   and  CD  
    4  A    between atoms: CD   and  CE  

>  <TORSDO>
F 19

>  <BEGIN_>
RES LYS A 131

$$$$
ligand_31_pose_5_2HRL.pdbqt
 OpenBabel07062320523D

  6  5  0  0  0  0  0  0  0  0999 V2000
   33.1930   34.6630    9.2900 C   0  0  0  0  0  0  0  0  0  0  0  0
   32.0600   35.3600   10.0340 C   0  0  0  0  0  0  0  0  0  0  0  0
   30.8240   35.5620    9.1960 C   0  0  0  0  0  0  0  0  0  0  0  0
   30.2370   34.2250    8.7730 C   0  0  0  0  0  0  0  0  0  0  0  0
   28.8940   33.9970    9.4390 C   0  0  0  0  0  0  0  0  0  0  0  0
   28.3940   35.2460   10.0780 N   0  0  0  0  0  0  0  0  0  0  0  0
  1  2  1  0  0  0  0
  3  2  1  0  0  0  0
  4  3  1  0  0  0  0
  4  5  1  0  0  0  0
  5  6  1  0  0  0  0
M  END
>  <EGIN_R>
ES LYS A 135

>  <REMARK>
  4 active torsions:
  status: ('A' for Active; 'I' for Inactive)
    5  A    between atoms: CA   and  CB  
    6  A    between atoms: CB   and  CG  
    7  A    between atoms: CG   and  CD  
    8  A    between atoms: CD   and  CE  

$$$$
