ligand_55_pose_16_2HRL.pdbqt
 OpenBabel07062320523D

 51 51  0  0  1  0  0  0  0  0999 V2000
   30.6980   33.0240   17.8370 N   0  0  0  0  0  0  0  0  0  0  0  0
   30.8250   32.7010   16.4710 C   0  0  0  0  0  0  0  0  0  0  0  0
   30.9210   31.5370   16.0480 O   0  0  0  0  0  0  0  0  0  0  0  0
   30.6130   34.0570   18.0770 H   0  0  0  0  0  0  0  0  0  0  0  0
   30.6720   32.1020   18.9100 C   0  0  0  0  0  0  0  0  0  0  0  0
   29.4400   31.2430   19.0490 C   0  0  2  0  0  0  0  0  0  0  0  0
   29.1870   31.0750   20.5150 C   0  0  2  0  0  0  0  0  0  0  0  0
   29.6840   29.8180   21.1540 C   0  0  2  0  0  0  0  0  0  0  0  0
   31.4200   28.2600   20.9200 C   0  0  2  0  0  0  0  0  0  0  0  0
   30.5340   27.1600   21.3950 C   0  0  0  0  0  0  0  0  0  0  0  0
   30.8500   29.4370   20.6280 O   0  0  0  0  0  0  0  0  0  0  0  0
   29.0820   27.3680   21.0600 C   0  0  1  0  0  0  0  0  0  0  0  0
   28.6380   28.7620   21.3440 C   0  0  1  0  0  0  0  0  0  0  0  0
   32.1180   27.8050   19.7940 O   0  0  0  0  0  0  0  0  0  0  0  0
   31.8460   28.3430   19.0200 H   0  0  0  0  0  0  0  0  0  0  0  0
   32.4530   28.4990   21.9700 C   0  0  0  0  0  0  0  0  0  0  0  0
   32.3700   28.0760   23.1380 O   0  0  0  0  0  0  0  0  0  0  0  0
   33.6070   29.2420   21.6600 O   0  0  0  0  0  0  0  0  0  0  0  0
   33.9220   29.9970   22.2560 H   0  0  0  0  0  0  0  0  0  0  0  0
   28.8680   26.9580   19.7500 O   0  0  0  0  0  0  0  0  0  0  0  0
   28.2930   26.1510   19.7930 H   0  0  0  0  0  0  0  0  0  0  0  0
   28.0750   28.7830   22.6820 N   0  0  0  0  0  0  0  0  0  0  0  0
   26.6910   28.9570   22.9490 C   0  0  0  0  0  0  0  0  0  0  0  0
   28.6860   28.6660   23.5450 H   0  0  0  0  0  0  0  0  0  0  0  0
   26.1570   28.9720   24.3520 C   0  0  0  0  0  0  0  0  0  0  0  0
   25.9330   29.0980   21.9550 O   0  0  0  0  0  0  0  0  0  0  0  0
   27.7700   31.1710   20.6430 O   0  0  0  0  0  0  0  0  0  0  0  0
   27.4080   31.8290   20.0140 H   0  0  0  0  0  0  0  0  0  0  0  0
   29.6100   30.0920   18.3290 O   0  0  0  0  0  0  0  0  0  0  0  0
   30.4700   29.6810   18.4800 H   0  0  0  0  0  0  0  0  0  0  0  0
   30.8460   33.7190   15.5240 O   0  0  0  0  0  0  0  0  0  0  0  0
   29.9360   34.7900   15.5050 C   0  0  0  0  0  0  0  0  0  0  0  0
   28.6050   34.3550   15.9690 C   0  0  0  0  0  0  0  0  0  0  0  0
   27.7040   33.5140   15.3470 C   0  0  0  0  0  0  0  0  0  0  0  0
   28.0310   34.7170   17.1130 N   0  0  0  0  0  0  0  0  0  0  0  0
   26.6190   33.3920   16.1240 N   0  0  0  0  0  0  0  0  0  0  0  0
   26.8500   34.1400   17.1970 N   0  0  0  0  0  0  0  0  0  0  0  0
   25.4110   32.6360   15.9260 C   0  0  0  0  0  0  0  0  0  0  0  0
   24.9470   31.9530   17.2000 C   0  0  0  0  0  0  0  0  0  0  0  0
   26.1150   31.3830   17.8360 N   0  0  0  0  0  0  0  0  0  0  0  0
   26.1000   31.5010   18.8590 H   0  0  0  0  0  0  0  0  0  0  0  0
   26.3360   29.7270   17.4300 S   0  0  0  0  0  0  0  0  0  0  0  0
   27.3580   29.6690   16.3250 O   0  0  0  0  0  0  0  0  0  0  0  0
   26.7820   28.9700   18.6400 O   0  0  0  0  0  0  0  0  0  0  0  0
   24.8240   29.0200   16.8150 C   0  0  0  0  0  0  0  0  0  0  0  0
   29.8670   25.5550   16.9770 C   0  0  0  0  0  0  0  0  0  0  0  0
   28.3450   25.7220   17.0260 C   0  0  0  0  0  0  0  0  0  0  0  0
   27.5990   24.4210   16.7700 C   0  0  0  0  0  0  0  0  0  0  0  0
   26.9360   23.8940   18.0120 C   0  0  0  0  0  0  0  0  0  0  0  0
   25.5560   24.5280   18.1600 C   0  0  0  0  0  0  0  0  0  0  0  0
   24.7880   24.3980   16.8990 N   0  0  0  0  0  0  0  0  0  0  0  0
  1  4  1  0  0  0  0
  1  5  1  0  0  0  0
  2  1  1  0  0  0  0
  3  2  2  0  0  0  0
  6  5  1  1  0  0  0
  6  7  1  0  0  0  0
  7 27  1  6  0  0  0
  8  7  1  6  0  0  0
  8 13  1  0  0  0  0
  9 14  1  6  0  0  0
  9 10  1  0  0  0  0
  9 16  1  0  0  0  0
 11  9  1  0  0  0  0
 11  8  1  0  0  0  0
 12 20  1  6  0  0  0
 12 13  1  0  0  0  0
 12 10  1  0  0  0  0
 13 22  1  1  0  0  0
 15 14  1  0  0  0  0
 16 17  2  0  0  0  0
 18 16  1  0  0  0  0
 18 19  1  0  0  0  0
 20 21  1  0  0  0  0
 22 23  1  0  0  0  0
 22 24  1  0  0  0  0
 23 25  1  0  0  0  0
 26 23  2  0  0  0  0
 28 27  1  0  0  0  0
 29 30  1  0  0  0  0
 29  6  1  0  0  0  0
 31  2  1  0  0  0  0
 32 31  1  0  0  0  0
 32 33  1  0  0  0  0
 33 35  1  0  0  0  0
 34 33  2  0  0  0  0
 34 36  1  0  0  0  0
 35 37  2  0  0  0  0
 36 37  1  0  0  0  0
 38 36  1  0  0  0  0
 38 39  1  0  0  0  0
 39 40  1  0  0  0  0
 40 41  1  0  0  0  0
 42 40  1  0  0  0  0
 42 44  2  0  0  0  0
 43 42  2  0  0  0  0
 45 42  1  0  0  0  0
 46 47  1  0  0  0  0
 48 47  1  0  0  0  0
 48 49  1  0  0  0  0
 49 50  1  0  0  0  0
 51 50  1  0  0  0  0
M  END
>  <REMARK>
 VINA RESULT:    -4.218      2.581      6.782
 INTER + INTRA:         -14.317
 INTER:                  -7.452
 INTRA:                  -6.866
 UNBOUND:                -6.277
 SMILES CC(=O)N[C@@H]1[C@@H](O)C[C@](O)(C(=O)O)O[C@H]1C(O)[C@H](O)CNC(=O)OCc1cn(CCNS(C)(=O)=O)nn1
 SMILES IDX 21 1 22 2 23 3 20 5 18 6 16 7 15 8 9 9 8 10 14 11 6 12 5 13
 SMILES IDX 10 14 11 16 12 17 13 18 7 20 4 22 2 23 1 25 3 26 17 27 19 29
 SMILES IDX 24 31 25 32 26 33 27 34 37 35 28 36 36 37 29 38 30 39 31 40
 SMILES IDX 32 42 34 43 35 44 33 45
 H PARENT 21 4 10 15 13 19 7 21 4 24 17 28 19 30 31 41
 Flexibility Score: inf
  4 active torsions:
  status: ('A' for Active; 'I' for Inactive)
    1  A    between atoms: CA   and  CB  
    2  A    between atoms: CB   and  CG  
    3  A    between atoms: CG   and  CD  
    4  A    between atoms: CD   and  CE  

>  <TORSDO>
F 18

>  <BEGIN_>
RES LYS A 131

$$$$
ligand_55_pose_16_2HRL.pdbqt
 OpenBabel07062320523D

  6  5  0  0  0  0  0  0  0  0999 V2000
   33.1930   34.6630    9.2900 C   0  0  0  0  0  0  0  0  0  0  0  0
   32.0600   35.3600   10.0340 C   0  0  0  0  0  0  0  0  0  0  0  0
   30.7870   35.4630    9.2340 C   0  0  0  0  0  0  0  0  0  0  0  0
   30.2240   34.0810    8.9410 C   0  0  0  0  0  0  0  0  0  0  0  0
   28.7370   34.0370    9.2360 C   0  0  0  0  0  0  0  0  0  0  0  0
   28.2800   35.3030    9.8750 N   0  0  0  0  0  0  0  0  0  0  0  0
  1  2  1  0  0  0  0
  3  2  1  0  0  0  0
  4  3  1  0  0  0  0
  4  5  1  0  0  0  0
  5  6  1  0  0  0  0
M  END
>  <EGIN_R>
ES LYS A 135

>  <REMARK>
  4 active torsions:
  status: ('A' for Active; 'I' for Inactive)
    5  A    between atoms: CA   and  CB  
    6  A    between atoms: CB   and  CG  
    7  A    between atoms: CG   and  CD  
    8  A    between atoms: CD   and  CE  

$$$$
