ligand_84_pose_7_2HRL.pdbqt
 OpenBabel07062320523D

 60 62  0  0  1  0  0  0  0  0999 V2000
   26.4640   30.8970   17.2720 O   0  0  0  0  0  0  0  0  0  0  0  0
   27.8420   30.8230   17.1440 C   0  0  0  0  0  0  0  0  0  0  0  0
   28.7560   31.6560   17.8470 N   0  0  0  0  0  0  0  0  0  0  0  0
   28.3420   32.3630   18.4840 H   0  0  0  0  0  0  0  0  0  0  0  0
   28.2740   29.9470   16.3460 O   0  0  0  0  0  0  0  0  0  0  0  0
   30.1460   31.4390   17.6100 C   0  0  0  0  0  0  0  0  0  0  0  0
   30.7850   32.2900   16.5870 C   0  0  2  0  0  0  0  0  0  0  0  0
   29.9790   33.4950   16.1380 C   0  0  1  0  0  0  0  0  0  0  0  0
   31.0290   34.5860   15.9200 C   0  0  2  0  0  0  0  0  0  0  0  0
   32.8760   34.9710   14.5470 C   0  0  2  0  0  0  0  0  0  0  0  0
   33.6110   35.5780   15.7090 C   0  0  0  0  0  0  0  0  0  0  0  0
   31.8370   34.1540   14.9060 O   0  0  0  0  0  0  0  0  0  0  0  0
   32.7500   35.9860   16.8490 C   0  0  1  0  0  0  0  0  0  0  0  0
   31.8200   34.7960   17.1690 C   0  0  1  0  0  0  0  0  0  0  0  0
   33.8340   34.1400   13.9090 O   0  0  0  0  0  0  0  0  0  0  0  0
   33.8380   34.2830   12.9440 H   0  0  0  0  0  0  0  0  0  0  0  0
   32.4690   35.9800   13.5260 C   0  0  0  0  0  0  0  0  0  0  0  0
   32.4770   35.6840   12.3050 O   0  0  0  0  0  0  0  0  0  0  0  0
   32.0690   37.2670   13.8560 O   0  0  0  0  0  0  0  0  0  0  0  0
   31.1510   37.5090   14.2090 H   0  0  0  0  0  0  0  0  0  0  0  0
   33.5590   36.2140   17.9630 O   0  0  0  0  0  0  0  0  0  0  0  0
   33.8980   35.3570   18.3320 H   0  0  0  0  0  0  0  0  0  0  0  0
   31.0050   35.1030   18.3140 N   0  0  0  0  0  0  0  0  0  0  0  0
   31.3170   34.5970   19.5950 C   0  0  0  0  0  0  0  0  0  0  0  0
   30.1740   35.7070   18.1930 H   0  0  0  0  0  0  0  0  0  0  0  0
   30.4030   34.9780   20.7130 C   0  0  0  0  0  0  0  0  0  0  0  0
   32.3030   33.8650   19.8220 O   0  0  0  0  0  0  0  0  0  0  0  0
   29.3330   33.1780   14.9320 O   0  0  0  0  0  0  0  0  0  0  0  0
   28.8480   33.9980   14.6570 H   0  0  0  0  0  0  0  0  0  0  0  0
   30.8850   31.4990   15.4090 O   0  0  0  0  0  0  0  0  0  0  0  0
   31.2370   32.1340   14.7220 H   0  0  0  0  0  0  0  0  0  0  0  0
   25.6910   29.7290   17.5000 C   0  0  0  0  0  0  0  0  0  0  0  0
   24.7830   29.4790   16.3580 C   0  0  0  0  0  0  0  0  0  0  0  0
   24.9990   29.9720   15.0690 C   0  0  0  0  0  0  0  0  0  0  0  0
   23.6440   28.7810   16.2550 N   0  0  0  0  0  0  0  0  0  0  0  0
   24.0190   29.5720   14.2470 N   0  0  0  0  0  0  0  0  0  0  0  0
   23.1890   28.8330   15.0160 N   0  0  0  0  0  0  0  0  0  0  0  0
   23.8400   29.8210   12.8280 C   0  0  0  0  0  0  0  0  0  0  0  0
   22.6490   30.7670   12.6270 C   0  0  1  0  0  0  0  0  0  0  0  0
   21.3770   30.0280   12.4460 C   0  0  0  0  0  0  0  0  0  0  0  0
   22.6970   31.9110   13.5510 C   0  0  0  0  0  0  0  0  0  0  0  0
   23.7170   32.8630   13.2390 N   0  0  0  0  0  0  0  0  0  0  0  0
   23.1570   33.9350   12.3730 C   0  0  0  0  0  0  0  0  0  0  0  0
   24.1110   33.5790   14.4480 C   0  0  0  0  0  0  0  0  0  0  0  0
   24.1400   35.0310   12.1570 C   0  0  0  0  0  0  0  0  0  0  0  0
   25.4890   34.1670   14.1060 C   0  0  0  0  0  0  0  0  0  0  0  0
   25.3460   34.9630   12.9210 N   0  0  0  0  0  0  0  0  0  0  0  0
   26.4730   35.7250   12.5020 C   0  0  0  0  0  0  0  0  0  0  0  0
   27.7310   35.3640   12.9310 C   0  0  0  0  0  0  0  0  0  0  0  0
   26.3200   36.8300   11.6770 C   0  0  0  0  0  0  0  0  0  0  0  0
   28.8150   36.1090   12.5290 C   0  0  0  0  0  0  0  0  0  0  0  0
   27.4080   37.5660   11.2840 C   0  0  0  0  0  0  0  0  0  0  0  0
   28.6700   37.1940   11.7190 C   0  0  0  0  0  0  0  0  0  0  0  0
   30.0420   38.1450   11.2160 Cl  0  0  0  0  0  0  0  0  0  0  0  0
   29.8670   25.5550   16.9770 C   0  0  0  0  0  0  0  0  0  0  0  0
   28.3450   25.7220   17.0260 C   0  0  0  0  0  0  0  0  0  0  0  0
   27.6020   24.4000   16.9150 C   0  0  0  0  0  0  0  0  0  0  0  0
   26.1680   24.5170   17.3540 C   0  0  0  0  0  0  0  0  0  0  0  0
   25.9260   23.6020   18.5500 C   0  0  0  0  0  0  0  0  0  0  0  0
   24.6540   22.8600   18.3860 N   0  0  0  0  0  0  0  0  0  0  0  0
  1 32  1  0  0  0  0
  2  1  1  0  0  0  0
  2  3  1  0  0  0  0
  3  4  1  0  0  0  0
  5  2  2  0  0  0  0
  6  3  1  0  0  0  0
  7  6  1  1  0  0  0
  8 28  1  6  0  0  0
  8  7  1  0  0  0  0
  9  8  1  1  0  0  0
  9 14  1  0  0  0  0
 10 17  1  6  0  0  0
 10 12  1  0  0  0  0
 10 11  1  0  0  0  0
 11 13  1  0  0  0  0
 12  9  1  0  0  0  0
 13 14  1  0  0  0  0
 13 21  1  1  0  0  0
 14 23  1  1  0  0  0
 15 10  1  0  0  0  0
 16 15  1  0  0  0  0
 17 19  1  0  0  0  0
 18 17  2  0  0  0  0
 19 20  1  0  0  0  0
 21 22  1  0  0  0  0
 23 24  1  0  0  0  0
 24 27  2  0  0  0  0
 24 26  1  0  0  0  0
 25 23  1  0  0  0  0
 29 28  1  0  0  0  0
 30  7  1  0  0  0  0
 31 30  1  0  0  0  0
 33 32  1  0  0  0  0
 34 33  2  0  0  0  0
 35 33  1  0  0  0  0
 36 37  1  0  0  0  0
 36 34  1  0  0  0  0
 37 35  2  0  0  0  0
 38 36  1  0  0  0  0
 39 40  1  1  0  0  0
 39 38  1  0  0  0  0
 39 41  1  0  0  0  0
 42 41  1  0  0  0  0
 42 44  1  0  0  0  0
 43 42  1  0  0  0  0
 45 43  1  0  0  0  0
 45 47  1  0  0  0  0
 46 44  1  0  0  0  0
 47 46  1  0  0  0  0
 48 47  1  0  0  0  0
 48 49  2  0  0  0  0
 50 48  1  0  0  0  0
 51 49  1  0  0  0  0
 52 50  2  0  0  0  0
 52 53  1  0  0  0  0
 53 51  2  0  0  0  0
 54 53  1  0  0  0  0
 55 56  1  0  0  0  0
 57 56  1  0  0  0  0
 57 58  1  0  0  0  0
 58 59  1  0  0  0  0
 60 59  1  0  0  0  0
M  END
>  <REMARK>
 VINA RESULT:    -5.205      4.463      8.238
 INTER + INTRA:         -16.346
 INTER:                 -10.197
 INTRA:                  -6.149
 UNBOUND:                -6.121
 SMILES CC(=O)N[C@@H]1[C@@H](O)C[C@](O)(C(=O)O)O[C@H]1C(O)[C@H](O)CNC(=O)OCc1cn(C[C@@H](C)CN2CCN(c3ccc(Cl)cc3)CC2)nn1
 SMILES IDX 24 1 22 2 21 3 23 5 20 6 18 7 16 8 15 9 9 10 8 11 14 12 6 13
 SMILES IDX 5 14 10 15 11 17 12 18 13 19 7 21 4 23 2 24 1 26 3 27 17 28
 SMILES IDX 19 30 25 32 26 33 27 34 47 35 28 36 46 37 29 38 30 39 31 40
 SMILES IDX 32 41 33 42 34 43 45 44 35 45 44 46 36 47 37 48 38 49 43 50
 SMILES IDX 39 51 42 52 40 53 41 54
 H PARENT 21 4 10 16 13 20 7 22 4 25 17 29 19 31
 Flexibility Score: inf
  4 active torsions:
  status: ('A' for Active; 'I' for Inactive)
    1  A    between atoms: CA   and  CB  
    2  A    between atoms: CB   and  CG  
    3  A    between atoms: CG   and  CD  
    4  A    between atoms: CD   and  CE  

>  <TORSDO>
F 19

>  <BEGIN_>
RES LYS A 131

$$$$
ligand_84_pose_7_2HRL.pdbqt
 OpenBabel07062320523D

  6  5  0  0  0  0  0  0  0  0999 V2000
   33.1930   34.6630    9.2900 C   0  0  0  0  0  0  0  0  0  0  0  0
   32.0600   35.3600   10.0340 C   0  0  0  0  0  0  0  0  0  0  0  0
   30.7840   35.4530    9.2380 C   0  0  0  0  0  0  0  0  0  0  0  0
   30.1900   34.0720    9.0120 C   0  0  0  0  0  0  0  0  0  0  0  0
   28.7370   34.0390    9.4470 C   0  0  0  0  0  0  0  0  0  0  0  0
   27.8490   34.6070    8.3950 N   0  0  0  0  0  0  0  0  0  0  0  0
  1  2  1  0  0  0  0
  3  2  1  0  0  0  0
  4  3  1  0  0  0  0
  4  5  1  0  0  0  0
  6  5  1  0  0  0  0
M  END
>  <EGIN_R>
ES LYS A 135

>  <REMARK>
  4 active torsions:
  status: ('A' for Active; 'I' for Inactive)
    5  A    between atoms: CA   and  CB  
    6  A    between atoms: CB   and  CG  
    7  A    between atoms: CG   and  CD  
    8  A    between atoms: CD   and  CE  

$$$$
