ligand_55_pose_1_2HRL.pdbqt
 OpenBabel07062320523D

 51 51  0  0  1  0  0  0  0  0999 V2000
   27.1090   29.2550   18.9540 N   0  0  0  0  0  0  0  0  0  0  0  0
   27.5150   29.3260   17.6060 C   0  0  0  0  0  0  0  0  0  0  0  0
   27.4280   28.3730   16.8140 O   0  0  0  0  0  0  0  0  0  0  0  0
   27.2230   30.1410   19.5340 H   0  0  0  0  0  0  0  0  0  0  0  0
   26.5670   28.1200   19.6010 C   0  0  0  0  0  0  0  0  0  0  0  0
   27.5300   27.2290   20.3460 C   0  0  2  0  0  0  0  0  0  0  0  0
   27.9260   27.9580   21.5920 C   0  0  2  0  0  0  0  0  0  0  0  0
   29.2890   28.5710   21.6200 C   0  0  2  0  0  0  0  0  0  0  0  0
   30.6690   29.9200   20.2880 C   0  0  2  0  0  0  0  0  0  0  0  0
   31.8860   29.2250   20.7980 C   0  0  0  0  0  0  0  0  0  0  0  0
   29.4770   29.3780   20.5730 O   0  0  0  0  0  0  0  0  0  0  0  0
   31.6470   27.7880   21.1710 C   0  0  1  0  0  0  0  0  0  0  0  0
   30.3930   27.6170   21.9590 C   0  0  1  0  0  0  0  0  0  0  0  0
   30.7860   30.0470   18.8990 O   0  0  0  0  0  0  0  0  0  0  0  0
   31.5470   30.6340   18.7020 H   0  0  0  0  0  0  0  0  0  0  0  0
   30.6800   31.3120   20.8260 C   0  0  0  0  0  0  0  0  0  0  0  0
   31.1210   31.6210   21.9480 O   0  0  0  0  0  0  0  0  0  0  0  0
   30.1710   32.3670   20.0470 O   0  0  0  0  0  0  0  0  0  0  0  0
   29.5230   33.0420   20.4340 H   0  0  0  0  0  0  0  0  0  0  0  0
   31.7040   27.0160   20.0170 O   0  0  0  0  0  0  0  0  0  0  0  0
   30.7690   26.8930   19.7090 H   0  0  0  0  0  0  0  0  0  0  0  0
   30.7460   27.6650   23.3670 N   0  0  0  0  0  0  0  0  0  0  0  0
   30.5320   26.5880   24.2670 C   0  0  0  0  0  0  0  0  0  0  0  0
   31.1910   28.5290   23.8000 H   0  0  0  0  0  0  0  0  0  0  0  0
   30.9140   26.6860   25.7160 C   0  0  0  0  0  0  0  0  0  0  0  0
   30.0080   25.5460   23.7950 O   0  0  0  0  0  0  0  0  0  0  0  0
   27.7970   26.9860   22.6280 O   0  0  0  0  0  0  0  0  0  0  0  0
   28.0560   27.3640   23.4940 H   0  0  0  0  0  0  0  0  0  0  0  0
   28.5490   26.8660   19.5080 O   0  0  0  0  0  0  0  0  0  0  0  0
   28.5900   25.9130   19.3620 H   0  0  0  0  0  0  0  0  0  0  0  0
   28.0430   30.5130   17.1100 O   0  0  0  0  0  0  0  0  0  0  0  0
   28.8900   30.5850   15.9900 C   0  0  0  0  0  0  0  0  0  0  0  0
   29.8610   31.6860   16.1370 C   0  0  0  0  0  0  0  0  0  0  0  0
   30.7300   32.2020   15.1970 C   0  0  0  0  0  0  0  0  0  0  0  0
   30.0650   32.3910   17.2460 N   0  0  0  0  0  0  0  0  0  0  0  0
   31.4320   33.1970   15.7580 N   0  0  0  0  0  0  0  0  0  0  0  0
   31.0010   33.2880   17.0120 N   0  0  0  0  0  0  0  0  0  0  0  0
   32.4530   34.0460   15.2040 C   0  0  0  0  0  0  0  0  0  0  0  0
   31.8710   35.2590   14.5010 C   0  0  0  0  0  0  0  0  0  0  0  0
   30.7400   35.7110   15.2830 N   0  0  0  0  0  0  0  0  0  0  0  0
   30.8790   36.6600   15.6580 H   0  0  0  0  0  0  0  0  0  0  0  0
   29.2640   35.6260   14.4050 S   0  0  0  0  0  0  0  0  0  0  0  0
   29.5350   34.8400   13.1490 O   0  0  0  0  0  0  0  0  0  0  0  0
   28.2150   34.9780   15.2510 O   0  0  0  0  0  0  0  0  0  0  0  0
   28.7180   37.2500   13.9280 C   0  0  0  0  0  0  0  0  0  0  0  0
   29.8670   25.5550   16.9770 C   0  0  0  0  0  0  0  0  0  0  0  0
   28.3450   25.7220   17.0260 C   0  0  0  0  0  0  0  0  0  0  0  0
   27.6010   24.4010   16.9050 C   0  0  0  0  0  0  0  0  0  0  0  0
   26.6160   24.2010   18.0220 C   0  0  0  0  0  0  0  0  0  0  0  0
   25.3620   25.0260   17.7500 C   0  0  0  0  0  0  0  0  0  0  0  0
   24.4430   24.2900   16.8500 N   0  0  0  0  0  0  0  0  0  0  0  0
  1  4  1  0  0  0  0
  1  5  1  0  0  0  0
  2  1  1  0  0  0  0
  3  2  2  0  0  0  0
  6  5  1  6  0  0  0
  6  7  1  0  0  0  0
  7 27  1  1  0  0  0
  8  7  1  6  0  0  0
  8 13  1  0  0  0  0
  9 14  1  6  0  0  0
  9 11  1  0  0  0  0
  9 10  1  0  0  0  0
  9 16  1  0  0  0  0
 10 12  1  0  0  0  0
 11  8  1  0  0  0  0
 12 20  1  6  0  0  0
 12 13  1  0  0  0  0
 13 22  1  1  0  0  0
 15 14  1  0  0  0  0
 16 17  2  0  0  0  0
 18 19  1  0  0  0  0
 18 16  1  0  0  0  0
 21 20  1  0  0  0  0
 22 24  1  0  0  0  0
 22 23  1  0  0  0  0
 23 25  1  0  0  0  0
 26 23  2  0  0  0  0
 27 28  1  0  0  0  0
 29  6  1  0  0  0  0
 30 29  1  0  0  0  0
 31  2  1  0  0  0  0
 32 33  1  0  0  0  0
 32 31  1  0  0  0  0
 33 35  1  0  0  0  0
 34 36  1  0  0  0  0
 34 33  2  0  0  0  0
 36 37  1  0  0  0  0
 37 35  2  0  0  0  0
 38 36  1  0  0  0  0
 39 38  1  0  0  0  0
 39 40  1  0  0  0  0
 40 41  1  0  0  0  0
 42 44  2  0  0  0  0
 42 40  1  0  0  0  0
 43 42  2  0  0  0  0
 45 42  1  0  0  0  0
 46 47  1  0  0  0  0
 48 47  1  0  0  0  0
 48 49  1  0  0  0  0
 50 49  1  0  0  0  0
 51 50  1  0  0  0  0
M  END
>  <REMARK>
 VINA RESULT:    -4.809      2.812      7.166
 INTER + INTRA:         -15.443
 INTER:                  -8.679
 INTRA:                  -6.765
 UNBOUND:                -6.277
 SMILES CC(=O)N[C@@H]1[C@@H](O)C[C@](O)(C(=O)O)O[C@H]1C(O)[C@H](O)CNC(=O)OCc1cn(CCNS(C)(=O)=O)nn1
 SMILES IDX 21 1 22 2 23 3 20 5 18 6 16 7 15 8 9 9 8 10 14 11 6 12 5 13
 SMILES IDX 10 14 11 16 12 17 13 18 7 20 4 22 2 23 1 25 3 26 17 27 19 29
 SMILES IDX 24 31 25 32 26 33 27 34 37 35 28 36 36 37 29 38 30 39 31 40
 SMILES IDX 32 42 34 43 35 44 33 45
 H PARENT 21 4 10 15 13 19 7 21 4 24 17 28 19 30 31 41
 Flexibility Score: inf
  4 active torsions:
  status: ('A' for Active; 'I' for Inactive)
    1  A    between atoms: CA   and  CB  
    2  A    between atoms: CB   and  CG  
    3  A    between atoms: CG   and  CD  
    4  A    between atoms: CD   and  CE  

>  <TORSDO>
F 18

>  <BEGIN_>
RES LYS A 131

$$$$
ligand_55_pose_1_2HRL.pdbqt
 OpenBabel07062320523D

  6  5  0  0  0  0  0  0  0  0999 V2000
   33.1930   34.6630    9.2900 C   0  0  0  0  0  0  0  0  0  0  0  0
   32.0600   35.3600   10.0340 C   0  0  0  0  0  0  0  0  0  0  0  0
   30.6940   34.8280    9.6860 C   0  0  0  0  0  0  0  0  0  0  0  0
   30.6060   34.5030    8.2030 C   0  0  0  0  0  0  0  0  0  0  0  0
   29.3400   35.0850    7.6040 C   0  0  0  0  0  0  0  0  0  0  0  0
   29.2320   36.5430    7.8870 N   0  0  0  0  0  0  0  0  0  0  0  0
  1  2  1  0  0  0  0
  3  2  1  0  0  0  0
  4  3  1  0  0  0  0
  5  6  1  0  0  0  0
  5  4  1  0  0  0  0
M  END
>  <EGIN_R>
ES LYS A 135

>  <REMARK>
  4 active torsions:
  status: ('A' for Active; 'I' for Inactive)
    5  A    between atoms: CA   and  CB  
    6  A    between atoms: CB   and  CG  
    7  A    between atoms: CG   and  CD  
    8  A    between atoms: CD   and  CE  

$$$$
