ligand_41_pose_11_2HRL.pdbqt
 OpenBabel07062320523D

 52 53  0  0  1  0  0  0  0  0999 V2000
   28.5640   32.7320   22.9650 N   0  0  0  0  0  0  0  0  0  0  0  0
   28.7670   34.0070   23.5960 C   0  0  0  0  0  0  0  0  0  0  0  0
   28.1750   34.2490   24.6750 O   0  0  0  0  0  0  0  0  0  0  0  0
   29.0780   32.5660   22.0770 H   0  0  0  0  0  0  0  0  0  0  0  0
   27.6860   31.7700   23.5640 C   0  0  0  0  0  0  0  0  0  0  0  0
   28.0960   30.3380   23.4620 C   0  0  2  0  0  0  0  0  0  0  0  0
   27.8450   29.7160   22.1210 C   0  0  2  0  0  0  0  0  0  0  0  0
   29.0860   29.2660   21.3960 C   0  0  2  0  0  0  0  0  0  0  0  0
   31.3160   28.7330   21.6740 C   0  0  2  0  0  0  0  0  0  0  0  0
   31.7890   29.7170   20.6210 C   0  0  0  0  0  0  0  0  0  0  0  0
   30.1550   29.1510   22.2160 O   0  0  0  0  0  0  0  0  0  0  0  0
   30.7520   30.7420   20.3040 C   0  0  1  0  0  0  0  0  0  0  0  0
   29.3740   30.1990   20.2400 C   0  0  1  0  0  0  0  0  0  0  0  0
   32.3490   28.7860   22.6710 O   0  0  0  0  0  0  0  0  0  0  0  0
   33.2270   28.9440   22.2050 H   0  0  0  0  0  0  0  0  0  0  0  0
   31.3810   27.3710   21.1340 C   0  0  0  0  0  0  0  0  0  0  0  0
   30.9400   26.3660   21.7370 O   0  0  0  0  0  0  0  0  0  0  0  0
   31.9520   27.1170   19.8850 O   0  0  0  0  0  0  0  0  0  0  0  0
   32.7580   26.5080   19.8030 H   0  0  0  0  0  0  0  0  0  0  0  0
   30.7970   31.7310   21.3020 O   0  0  0  0  0  0  0  0  0  0  0  0
   31.6940   32.1320   21.3980 H   0  0  0  0  0  0  0  0  0  0  0  0
   29.0790   29.6460   18.9560 N   0  0  0  0  0  0  0  0  0  0  0  0
   27.9980   30.0970   18.1480 C   0  0  0  0  0  0  0  0  0  0  0  0
   29.6720   28.8830   18.5810 H   0  0  0  0  0  0  0  0  0  0  0  0
   27.7340   29.4880   16.8190 C   0  0  0  0  0  0  0  0  0  0  0  0
   27.2360   31.0220   18.5300 O   0  0  0  0  0  0  0  0  0  0  0  0
   26.9210   30.3760   21.3520 O   0  0  0  0  0  0  0  0  0  0  0  0
   26.3980   29.6780   20.8570 H   0  0  0  0  0  0  0  0  0  0  0  0
   27.2130   29.6270   24.3750 O   0  0  0  0  0  0  0  0  0  0  0  0
   26.5150   29.2620   23.7680 H   0  0  0  0  0  0  0  0  0  0  0  0
   29.5820   34.9810   23.0700 O   0  0  0  0  0  0  0  0  0  0  0  0
   29.3370   35.5530   21.7870 C   0  0  0  0  0  0  0  0  0  0  0  0
   30.2340   34.9750   20.7550 C   0  0  0  0  0  0  0  0  0  0  0  0
   29.9550   34.7090   19.4410 C   0  0  0  0  0  0  0  0  0  0  0  0
   31.5290   34.5970   20.9350 N   0  0  0  0  0  0  0  0  0  0  0  0
   31.0850   34.1780   18.8660 N   0  0  0  0  0  0  0  0  0  0  0  0
   32.0060   34.1310   19.8090 N   0  0  0  0  0  0  0  0  0  0  0  0
   31.2580   33.7090   17.5410 C   0  0  0  0  0  0  0  0  0  0  0  0
   31.9110   34.3730   16.5600 C   0  0  0  0  0  0  0  0  0  0  0  0
   30.6900   32.4380   17.2990 C   0  0  0  0  0  0  0  0  0  0  0  0
   32.0170   33.7810   15.2980 C   0  0  0  0  0  0  0  0  0  0  0  0
   30.8020   31.8680   16.0550 C   0  0  0  0  0  0  0  0  0  0  0  0
   31.4660   32.5550   15.0730 C   0  0  0  0  0  0  0  0  0  0  0  0
   32.5120   35.6780   16.7230 C   0  0  2  0  0  0  0  0  0  0  0  0
   33.7740   35.6970   17.0240 O   0  0  0  0  0  0  0  0  0  0  0  0
   31.8720   36.9870   16.5920 C   0  0  0  0  0  0  0  0  0  0  0  0
   29.8670   25.5550   16.9770 C   0  0  0  0  0  0  0  0  0  0  0  0
   28.3450   25.7220   17.0260 C   0  0  0  0  0  0  0  0  0  0  0  0
   27.6010   24.4000   16.9070 C   0  0  0  0  0  0  0  0  0  0  0  0
   26.1580   24.5250   17.3080 C   0  0  0  0  0  0  0  0  0  0  0  0
   25.9830   24.0270   18.7390 C   0  0  0  0  0  0  0  0  0  0  0  0
   25.4890   25.1180   19.6120 N   0  0  0  0  0  0  0  0  0  0  0  0
  1  5  1  0  0  0  0
  1  2  1  0  0  0  0
  2  3  2  0  0  0  0
  4  1  1  0  0  0  0
  6  5  1  6  0  0  0
  6 29  1  0  0  0  0
  7 27  1  6  0  0  0
  7  6  1  0  0  0  0
  8  7  1  1  0  0  0
  8 11  1  0  0  0  0
  9 16  1  6  0  0  0
  9 11  1  0  0  0  0
  9 14  1  0  0  0  0
 10  9  1  0  0  0  0
 12 10  1  0  0  0  0
 12 20  1  1  0  0  0
 13 22  1  6  0  0  0
 13 12  1  0  0  0  0
 13  8  1  0  0  0  0
 15 14  1  0  0  0  0
 16 17  2  0  0  0  0
 18 16  1  0  0  0  0
 19 18  1  0  0  0  0
 20 21  1  0  0  0  0
 23 26  2  0  0  0  0
 23 22  1  0  0  0  0
 24 22  1  0  0  0  0
 25 23  1  0  0  0  0
 28 27  1  0  0  0  0
 30 29  1  0  0  0  0
 31  2  1  0  0  0  0
 32 31  1  0  0  0  0
 33 35  1  0  0  0  0
 33 32  1  0  0  0  0
 34 33  2  0  0  0  0
 36 34  1  0  0  0  0
 36 37  1  0  0  0  0
 37 35  2  0  0  0  0
 38 36  1  0  0  0  0
 39 44  1  0  0  0  0
 39 38  2  0  0  0  0
 40 38  1  0  0  0  0
 41 39  1  0  0  0  0
 42 40  2  0  0  0  0
 43 41  2  0  0  0  0
 43 42  1  0  0  0  0
 44 46  1  1  0  0  0
 44 45  1  0  0  0  0
 47 48  1  0  0  0  0
 49 48  1  0  0  0  0
 49 50  1  0  0  0  0
 50 51  1  0  0  0  0
 51 52  1  0  0  0  0
M  END
>  <REMARK>
 VINA RESULT:    -4.359      3.766      7.624
 INTER + INTRA:         -14.603
 INTER:                  -7.657
 INTRA:                  -6.946
 UNBOUND:                -6.804
 SMILES CC(=O)N[C@@H]1[C@@H](O)C[C@](O)(C(=O)O)O[C@H]1C(O)[C@H](O)CNC(=O)OCc1cn(-c2ccccc2C(C)=O)nn1
 SMILES IDX 21 1 22 2 23 3 20 5 18 6 16 7 15 8 9 9 8 10 14 11 6 12 5 13
 SMILES IDX 10 14 11 16 12 17 13 18 7 20 4 22 2 23 1 25 3 26 17 27 19 29
 SMILES IDX 24 31 25 32 26 33 27 34 39 35 28 36 38 37 29 38 34 39 30 40
 SMILES IDX 33 41 31 42 32 43 35 44 37 45 36 46
 H PARENT 21 4 10 15 13 19 7 21 4 24 17 28 19 30
 Flexibility Score: inf
  4 active torsions:
  status: ('A' for Active; 'I' for Inactive)
    1  A    between atoms: CA   and  CB  
    2  A    between atoms: CB   and  CG  
    3  A    between atoms: CG   and  CD  
    4  A    between atoms: CD   and  CE  

>  <TORSDO>
F 16

>  <BEGIN_>
RES LYS A 131

$$$$
ligand_41_pose_11_2HRL.pdbqt
 OpenBabel07062320523D

  6  5  0  0  0  0  0  0  0  0999 V2000
   33.1930   34.6630    9.2900 C   0  0  0  0  0  0  0  0  0  0  0  0
   32.0600   35.3600   10.0340 C   0  0  0  0  0  0  0  0  0  0  0  0
   30.7070   34.7470    9.7820 C   0  0  0  0  0  0  0  0  0  0  0  0
   30.5050   34.4840    8.2970 C   0  0  0  0  0  0  0  0  0  0  0  0
   29.1820   35.0590    7.8300 C   0  0  0  0  0  0  0  0  0  0  0  0
   28.4890   35.7780    8.9350 N   0  0  0  0  0  0  0  0  0  0  0  0
  1  2  1  0  0  0  0
  3  2  1  0  0  0  0
  4  3  1  0  0  0  0
  5  4  1  0  0  0  0
  5  6  1  0  0  0  0
M  END
>  <EGIN_R>
ES LYS A 135

>  <REMARK>
  4 active torsions:
  status: ('A' for Active; 'I' for Inactive)
    5  A    between atoms: CA   and  CB  
    6  A    between atoms: CB   and  CG  
    7  A    between atoms: CG   and  CD  
    8  A    between atoms: CD   and  CE  

$$$$
