ligand_72_pose_12_2HRL.pdbqt
 OpenBabel07062320523D

 49 49  0  0  1  0  0  0  0  0999 V2000
   32.1040   34.7550   16.7720 N   0  0  0  0  0  0  0  0  0  0  0  0
   31.8100   35.3600   18.0360 C   0  0  0  0  0  0  0  0  0  0  0  0
   32.2200   36.5360   18.3210 O   0  0  0  0  0  0  0  0  0  0  0  0
   31.7360   33.8030   16.5860 H   0  0  0  0  0  0  0  0  0  0  0  0
   32.8800   35.4880   15.7940 C   0  0  0  0  0  0  0  0  0  0  0  0
   33.0620   34.7510   14.5250 C   0  0  2  0  0  0  0  0  0  0  0  0
   32.3650   35.2490   13.3160 C   0  0  1  0  0  0  0  0  0  0  0  0
   31.1910   36.1280   13.6750 C   0  0  2  0  0  0  0  0  0  0  0  0
   29.4840   34.5710   14.1760 C   0  0  2  0  0  0  0  0  0  0  0  0
   28.7310   35.0140   12.9070 C   0  0  0  0  0  0  0  0  0  0  0  0
   30.3870   35.4920   14.5970 O   0  0  0  0  0  0  0  0  0  0  0  0
   28.9390   36.4880   12.8190 C   0  0  1  0  0  0  0  0  0  0  0  0
   30.4480   36.6940   12.5030 C   0  0  1  0  0  0  0  0  0  0  0  0
   29.9610   33.2910   13.9800 O   0  0  0  0  0  0  0  0  0  0  0  0
   29.3410   32.6360   14.3810 H   0  0  0  0  0  0  0  0  0  0  0  0
   28.4460   34.4850   15.2780 C   0  0  0  0  0  0  0  0  0  0  0  0
   27.2340   34.3120   15.0070 O   0  0  0  0  0  0  0  0  0  0  0  0
   28.8760   34.6040   16.5820 O   0  0  0  0  0  0  0  0  0  0  0  0
   29.4050   33.8670   17.0350 H   0  0  0  0  0  0  0  0  0  0  0  0
   28.1690   37.1040   11.8520 O   0  0  0  0  0  0  0  0  0  0  0  0
   28.6850   37.8890   11.5290 H   0  0  0  0  0  0  0  0  0  0  0  0
   30.5390   38.1600   12.4170 N   0  0  0  0  0  0  0  0  0  0  0  0
   31.3860   38.8280   11.5260 C   0  0  0  0  0  0  0  0  0  0  0  0
   29.9310   38.7040   13.0640 H   0  0  0  0  0  0  0  0  0  0  0  0
   31.4970   40.3060   11.4270 C   0  0  0  0  0  0  0  0  0  0  0  0
   32.1070   38.1410   10.7520 O   0  0  0  0  0  0  0  0  0  0  0  0
   33.1030   35.6250   12.2430 O   0  0  0  0  0  0  0  0  0  0  0  0
   33.5560   34.8830   11.7660 H   0  0  0  0  0  0  0  0  0  0  0  0
   32.7020   33.3970   14.7160 O   0  0  0  0  0  0  0  0  0  0  0  0
   32.5720   33.2570   15.6800 H   0  0  0  0  0  0  0  0  0  0  0  0
   31.0720   34.6440   18.9420 O   0  0  0  0  0  0  0  0  0  0  0  0
   31.2720   33.2850   19.1950 C   0  0  0  0  0  0  0  0  0  0  0  0
   30.4830   32.4390   18.2620 C   0  0  0  0  0  0  0  0  0  0  0  0
   29.3710   31.7170   18.6180 C   0  0  0  0  0  0  0  0  0  0  0  0
   30.6790   32.2170   16.9630 N   0  0  0  0  0  0  0  0  0  0  0  0
   28.9180   31.0770   17.5350 N   0  0  0  0  0  0  0  0  0  0  0  0
   29.7400   31.4030   16.5350 N   0  0  0  0  0  0  0  0  0  0  0  0
   27.7670   30.2130   17.4920 C   0  0  0  0  0  0  0  0  0  0  0  0
   27.7480   29.2830   18.6870 C   0  0  0  0  0  0  0  0  0  0  0  0
   27.8120   29.4070   16.2000 C   0  0  0  0  0  0  0  0  0  0  0  0
   26.5100   31.0430   17.4450 C   0  0  0  0  0  0  0  0  0  0  0  0
   26.5310   31.8790   16.3240 O   0  0  0  0  0  0  0  0  0  0  0  0
   25.8300   31.5770   15.6940 H   0  0  0  0  0  0  0  0  0  0  0  0
   29.8670   25.5550   16.9770 C   0  0  0  0  0  0  0  0  0  0  0  0
   28.3450   25.7220   17.0260 C   0  0  0  0  0  0  0  0  0  0  0  0
   27.6020   24.3990   16.9200 C   0  0  0  0  0  0  0  0  0  0  0  0
   26.4050   24.3480   17.8290 C   0  0  0  0  0  0  0  0  0  0  0  0
   26.3230   25.6390   18.6360 C   0  0  0  0  0  0  0  0  0  0  0  0
   25.0120   26.2990   18.4280 N   0  0  0  0  0  0  0  0  0  0  0  0
  1  2  1  0  0  0  0
  2  3  2  0  0  0  0
  2 31  1  0  0  0  0
  4  1  1  0  0  0  0
  5  1  1  0  0  0  0
  6 29  1  0  0  0  0
  6  5  1  1  0  0  0
  7 27  1  6  0  0  0
  7  6  1  0  0  0  0
  8  7  1  6  0  0  0
  8 11  1  0  0  0  0
  9 14  1  6  0  0  0
  9 11  1  0  0  0  0
  9 16  1  0  0  0  0
 10  9  1  0  0  0  0
 12 20  1  6  0  0  0
 12 10  1  0  0  0  0
 13 22  1  1  0  0  0
 13 12  1  0  0  0  0
 13  8  1  0  0  0  0
 14 15  1  0  0  0  0
 16 18  1  0  0  0  0
 17 16  2  0  0  0  0
 18 19  1  0  0  0  0
 21 20  1  0  0  0  0
 22 24  1  0  0  0  0
 23 22  1  0  0  0  0
 25 23  1  0  0  0  0
 26 23  2  0  0  0  0
 28 27  1  0  0  0  0
 29 30  1  0  0  0  0
 31 32  1  0  0  0  0
 33 34  2  0  0  0  0
 33 32  1  0  0  0  0
 35 33  1  0  0  0  0
 36 34  1  0  0  0  0
 37 35  2  0  0  0  0
 37 36  1  0  0  0  0
 38 36  1  0  0  0  0
 38 39  1  0  0  0  0
 40 38  1  0  0  0  0
 41 38  1  0  0  0  0
 42 41  1  0  0  0  0
 43 42  1  0  0  0  0
 44 45  1  0  0  0  0
 46 45  1  0  0  0  0
 46 47  1  0  0  0  0
 47 48  1  0  0  0  0
 49 48  1  0  0  0  0
M  END
>  <REMARK>
 VINA RESULT:    -4.279      4.808     10.538
 INTER + INTRA:         -13.925
 INTER:                  -7.097
 INTRA:                  -6.828
 UNBOUND:                -6.145
 SMILES CC(=O)N[C@@H]1[C@@H](O)C[C@](O)(C(=O)O)O[C@H]1C(O)[C@H](O)CNC(=O)OCc1cn(C(C)(C)CO)nn1
 SMILES IDX 21 1 22 2 23 3 20 5 18 6 16 7 15 8 9 9 8 10 14 11 6 12 5 13
 SMILES IDX 10 14 11 16 12 17 13 18 7 20 4 22 2 23 1 25 3 26 17 27 19 29
 SMILES IDX 24 31 25 32 26 33 27 34 35 35 28 36 34 37 29 38 30 39 31 40
 SMILES IDX 32 41 33 42
 H PARENT 21 4 10 15 13 19 7 21 4 24 17 28 19 30 33 43
 Flexibility Score: inf
  4 active torsions:
  status: ('A' for Active; 'I' for Inactive)
    1  A    between atoms: CA   and  CB  
    2  A    between atoms: CB   and  CG  
    3  A    between atoms: CG   and  CD  
    4  A    between atoms: CD   and  CE  

>  <TORSDO>
F 17

>  <BEGIN_>
RES LYS A 131

$$$$
ligand_72_pose_12_2HRL.pdbqt
 OpenBabel07062320523D

  6  5  0  0  0  0  0  0  0  0999 V2000
   33.1930   34.6630    9.2900 C   0  0  0  0  0  0  0  0  0  0  0  0
   32.0600   35.3600   10.0340 C   0  0  0  0  0  0  0  0  0  0  0  0
   30.7080   34.7430    9.7870 C   0  0  0  0  0  0  0  0  0  0  0  0
   30.4680   34.5520    8.2980 C   0  0  0  0  0  0  0  0  0  0  0  0
   29.0210   34.8410    7.9490 C   0  0  0  0  0  0  0  0  0  0  0  0
   28.9150   35.5610    6.6500 N   0  0  0  0  0  0  0  0  0  0  0  0
  1  2  1  0  0  0  0
  3  2  1  0  0  0  0
  4  3  1  0  0  0  0
  5  4  1  0  0  0  0
  6  5  1  0  0  0  0
M  END
>  <EGIN_R>
ES LYS A 135

>  <REMARK>
  4 active torsions:
  status: ('A' for Active; 'I' for Inactive)
    5  A    between atoms: CA   and  CB  
    6  A    between atoms: CB   and  CG  
    7  A    between atoms: CG   and  CD  
    8  A    between atoms: CD   and  CE  

$$$$
