ligand_44_pose_8_2HRL.pdbqt
 OpenBabel07062320523D

 51 52  0  0  1  0  0  0  0  0999 V2000
   26.2710   35.3850   17.3200 N   0  0  0  0  0  0  0  0  0  0  0  0
   26.6070   34.3290   18.2020 C   0  0  0  0  0  0  0  0  0  0  0  0
   27.7380   34.1030   18.6740 O   0  0  0  0  0  0  0  0  0  0  0  0
   25.2620   35.4870   16.9810 H   0  0  0  0  0  0  0  0  0  0  0  0
   27.2730   36.3070   16.8880 C   0  0  0  0  0  0  0  0  0  0  0  0
   27.5660   36.2840   15.4100 C   0  0  2  0  0  0  0  0  0  0  0  0
   28.2510   35.0460   14.9590 C   0  0  1  0  0  0  0  0  0  0  0  0
   29.4990   34.6350   15.6350 C   0  0  2  0  0  0  0  0  0  0  0  0
   31.3260   34.9380   14.2590 C   0  0  2  0  0  0  0  0  0  0  0  0
   32.2510   34.0800   15.0910 C   0  0  0  0  0  0  0  0  0  0  0  0
   30.4740   35.5360   15.1750 O   0  0  0  0  0  0  0  0  0  0  0  0
   31.4090   33.0080   15.6940 C   0  0  1  0  0  0  0  0  0  0  0  0
   29.9120   33.2330   15.6080 C   0  0  1  0  0  0  0  0  0  0  0  0
   30.7060   34.1170   13.3430 O   0  0  0  0  0  0  0  0  0  0  0  0
   30.1340   34.5780   12.7010 H   0  0  0  0  0  0  0  0  0  0  0  0
   32.1480   35.9920   13.6180 C   0  0  0  0  0  0  0  0  0  0  0  0
   32.7810   35.8150   12.5540 O   0  0  0  0  0  0  0  0  0  0  0  0
   32.2010   37.2280   14.2560 O   0  0  0  0  0  0  0  0  0  0  0  0
   33.0280   37.8030   14.2760 H   0  0  0  0  0  0  0  0  0  0  0  0
   31.6750   31.8230   14.9690 O   0  0  0  0  0  0  0  0  0  0  0  0
   31.2430   31.8270   14.0930 H   0  0  0  0  0  0  0  0  0  0  0  0
   29.4240   32.5000   16.7970 N   0  0  0  0  0  0  0  0  0  0  0  0
   28.9570   31.1810   16.7490 C   0  0  0  0  0  0  0  0  0  0  0  0
   29.4550   33.0560   17.6850 H   0  0  0  0  0  0  0  0  0  0  0  0
   28.4770   30.5330   18.0050 C   0  0  0  0  0  0  0  0  0  0  0  0
   28.9400   30.5540   15.6790 O   0  0  0  0  0  0  0  0  0  0  0  0
   27.3090   34.0530   14.7360 O   0  0  0  0  0  0  0  0  0  0  0  0
   27.3930   33.3510   15.4430 H   0  0  0  0  0  0  0  0  0  0  0  0
   28.1070   37.4550   14.9080 O   0  0  0  0  0  0  0  0  0  0  0  0
   28.7180   37.9030   15.5270 H   0  0  0  0  0  0  0  0  0  0  0  0
   25.5940   33.4540   18.5910 O   0  0  0  0  0  0  0  0  0  0  0  0
   24.3960   33.3470   17.8590 C   0  0  0  0  0  0  0  0  0  0  0  0
   24.6170   32.7690   16.5210 C   0  0  0  0  0  0  0  0  0  0  0  0
   24.0680   33.0840   15.3010 C   0  0  0  0  0  0  0  0  0  0  0  0
   25.4780   31.7450   16.3160 N   0  0  0  0  0  0  0  0  0  0  0  0
   24.6130   32.2430   14.3920 N   0  0  0  0  0  0  0  0  0  0  0  0
   25.4520   31.4590   15.0420 N   0  0  0  0  0  0  0  0  0  0  0  0
   24.3030   32.2400   12.9770 C   0  0  0  0  0  0  0  0  0  0  0  0
   23.1700   31.2790   12.7690 C   0  0  0  0  0  0  0  0  0  0  0  0
   23.4420   29.9210   12.6880 C   0  0  0  0  0  0  0  0  0  0  0  0
   21.8820   31.7560   12.6650 C   0  0  0  0  0  0  0  0  0  0  0  0
   22.3920   29.0610   12.4980 C   0  0  0  0  0  0  0  0  0  0  0  0
   20.8120   30.8820   12.4710 C   0  0  0  0  0  0  0  0  0  0  0  0
   21.1070   29.5440   12.3940 C   0  0  0  0  0  0  0  0  0  0  0  0
   19.6620   28.3210   12.1300 Br  0  0  0  0  0  0  0  0  0  0  0  0
   29.8670   25.5550   16.9770 C   0  0  0  0  0  0  0  0  0  0  0  0
   28.3450   25.7220   17.0260 C   0  0  0  0  0  0  0  0  0  0  0  0
   27.6010   24.4020   16.8910 C   0  0  0  0  0  0  0  0  0  0  0  0
   26.6100   24.1950   18.0030 C   0  0  0  0  0  0  0  0  0  0  0  0
   25.4590   25.1840   17.8490 C   0  0  0  0  0  0  0  0  0  0  0  0
   24.7080   25.3060   19.1210 N   0  0  0  0  0  0  0  0  0  0  0  0
  1  2  1  0  0  0  0
  2 31  1  0  0  0  0
  2  3  2  0  0  0  0
  4  1  1  0  0  0  0
  5  1  1  0  0  0  0
  6  5  1  1  0  0  0
  7 27  1  1  0  0  0
  7  6  1  0  0  0  0
  8  7  1  6  0  0  0
  9 14  1  6  0  0  0
  9 10  1  0  0  0  0
  9 11  1  0  0  0  0
 10 12  1  0  0  0  0
 11  8  1  0  0  0  0
 12 20  1  6  0  0  0
 13  8  1  0  0  0  0
 13 12  1  0  0  0  0
 13 22  1  1  0  0  0
 15 14  1  0  0  0  0
 16 18  1  0  0  0  0
 16  9  1  0  0  0  0
 17 16  2  0  0  0  0
 18 19  1  0  0  0  0
 21 20  1  0  0  0  0
 22 24  1  0  0  0  0
 23 22  1  0  0  0  0
 23 25  1  0  0  0  0
 26 23  2  0  0  0  0
 27 28  1  0  0  0  0
 29  6  1  0  0  0  0
 29 30  1  0  0  0  0
 32 31  1  0  0  0  0
 33 32  1  0  0  0  0
 34 33  2  0  0  0  0
 35 33  1  0  0  0  0
 36 37  1  0  0  0  0
 36 34  1  0  0  0  0
 37 35  2  0  0  0  0
 38 36  1  0  0  0  0
 39 38  1  0  0  0  0
 40 39  1  0  0  0  0
 41 39  2  0  0  0  0
 42 40  2  0  0  0  0
 43 41  1  0  0  0  0
 44 43  2  0  0  0  0
 44 42  1  0  0  0  0
 45 44  1  0  0  0  0
 46 47  1  0  0  0  0
 48 47  1  0  0  0  0
 48 49  1  0  0  0  0
 50 49  1  0  0  0  0
 50 51  1  0  0  0  0
M  END
>  <REMARK>
 VINA RESULT:    -4.660      1.921      3.593
 INTER + INTRA:         -14.735
 INTER:                  -8.722
 INTRA:                  -6.013
 UNBOUND:                -6.398
 SMILES CC(=O)N[C@@H]1[C@@H](O)C[C@](O)(C(=O)O)O[C@H]1C(O)[C@H](O)CNC(=O)OCc1cn(Cc2ccc(Br)cc2)nn1
 SMILES IDX 21 1 22 2 23 3 20 5 18 6 16 7 15 8 9 9 8 10 14 11 6 12 5 13
 SMILES IDX 10 14 11 16 12 17 13 18 7 20 4 22 2 23 1 25 3 26 17 27 19 29
 SMILES IDX 24 31 25 32 26 33 27 34 38 35 28 36 37 37 29 38 30 39 31 40
 SMILES IDX 36 41 32 42 35 43 33 44 34 45
 H PARENT 21 4 10 15 13 19 7 21 4 24 17 28 19 30
 Flexibility Score: inf
  4 active torsions:
  status: ('A' for Active; 'I' for Inactive)
    1  A    between atoms: CA   and  CB  
    2  A    between atoms: CB   and  CG  
    3  A    between atoms: CG   and  CD  
    4  A    between atoms: CD   and  CE  

>  <TORSDO>
F 16

>  <BEGIN_>
RES LYS A 131

$$$$
ligand_44_pose_8_2HRL.pdbqt
 OpenBabel07062320523D

  6  5  0  0  0  0  0  0  0  0999 V2000
   33.1930   34.6630    9.2900 C   0  0  0  0  0  0  0  0  0  0  0  0
   32.0600   35.3600   10.0340 C   0  0  0  0  0  0  0  0  0  0  0  0
   30.7040   34.7580    9.7680 C   0  0  0  0  0  0  0  0  0  0  0  0
   30.5120   34.5060    8.2800 C   0  0  0  0  0  0  0  0  0  0  0  0
   29.1180   34.9190    7.8460 C   0  0  0  0  0  0  0  0  0  0  0  0
   28.9570   36.3990    7.8980 N   0  0  0  0  0  0  0  0  0  0  0  0
  1  2  1  0  0  0  0
  3  2  1  0  0  0  0
  4  3  1  0  0  0  0
  5  6  1  0  0  0  0
  5  4  1  0  0  0  0
M  END
>  <EGIN_R>
ES LYS A 135

>  <REMARK>
  4 active torsions:
  status: ('A' for Active; 'I' for Inactive)
    5  A    between atoms: CA   and  CB  
    6  A    between atoms: CB   and  CG  
    7  A    between atoms: CG   and  CD  
    8  A    between atoms: CD   and  CE  

$$$$
