ligand_52_pose_18_2HRL.pdbqt
 OpenBabel07062320523D

 49 50  0  0  1  0  0  0  0  0999 V2000
   26.5400   31.2530   20.5220 C   0  0  0  0  0  0  0  0  0  0  0  0
   27.9770   31.2420   20.8940 C   0  0  2  0  0  0  0  0  0  0  0  0
   28.7710   30.2060   20.1920 C   0  0  2  0  0  0  0  0  0  0  0  0
   29.7960   29.4540   20.9660 C   0  0  2  0  0  0  0  0  0  0  0  0
   31.9580   29.2960   21.6310 C   0  0  2  0  0  0  0  0  0  0  0  0
   31.7160   27.9320   22.1730 C   0  0  0  0  0  0  0  0  0  0  0  0
   31.0870   29.7350   20.6520 O   0  0  0  0  0  0  0  0  0  0  0  0
   30.3030   27.4660   22.2260 C   0  0  1  0  0  0  0  0  0  0  0  0
   29.5550   27.9700   20.9590 C   0  0  1  0  0  0  0  0  0  0  0  0
   33.2330   29.2210   20.9840 O   0  0  0  0  0  0  0  0  0  0  0  0
   33.4920   28.2750   21.0750 H   0  0  0  0  0  0  0  0  0  0  0  0
   32.1130   30.3210   22.6880 C   0  0  0  0  0  0  0  0  0  0  0  0
   32.3600   29.9650   23.8670 O   0  0  0  0  0  0  0  0  0  0  0  0
   32.0060   31.6900   22.4840 O   0  0  0  0  0  0  0  0  0  0  0  0
   32.5270   32.2810   23.1400 H   0  0  0  0  0  0  0  0  0  0  0  0
   30.2340   26.0740   22.1530 O   0  0  0  0  0  0  0  0  0  0  0  0
   29.8540   25.8090   21.2790 H   0  0  0  0  0  0  0  0  0  0  0  0
   28.1630   27.7250   21.2250 N   0  0  0  0  0  0  0  0  0  0  0  0
   27.2450   27.2560   20.2580 C   0  0  0  0  0  0  0  0  0  0  0  0
   27.7910   27.8990   22.1960 H   0  0  0  0  0  0  0  0  0  0  0  0
   25.8290   27.0340   20.6310 C   0  0  0  0  0  0  0  0  0  0  0  0
   27.6400   27.0320   19.0910 O   0  0  0  0  0  0  0  0  0  0  0  0
   29.1360   30.5350   18.9010 O   0  0  0  0  0  0  0  0  0  0  0  0
   28.6240   31.2360   18.4690 H   0  0  0  0  0  0  0  0  0  0  0  0
   28.1090   30.9690   22.2780 O   0  0  0  0  0  0  0  0  0  0  0  0
   28.4630   30.0600   22.3560 H   0  0  0  0  0  0  0  0  0  0  0  0
   26.1540   30.4430   19.4050 N   0  0  0  0  0  0  0  0  0  0  0  0
   25.2010   30.7630   18.4460 C   0  0  0  0  0  0  0  0  0  0  0  0
   26.6400   29.5000   19.2860 H   0  0  0  0  0  0  0  0  0  0  0  0
   24.5680   31.8260   18.4880 O   0  0  0  0  0  0  0  0  0  0  0  0
   24.8850   29.9150   17.3700 O   0  0  0  0  0  0  0  0  0  0  0  0
   25.3030   30.2280   16.0610 C   0  0  0  0  0  0  0  0  0  0  0  0
   26.7630   30.4160   15.9830 C   0  0  0  0  0  0  0  0  0  0  0  0
   27.3540   31.6250   15.6490 C   0  0  0  0  0  0  0  0  0  0  0  0
   27.7730   29.5710   16.1880 N   0  0  0  0  0  0  0  0  0  0  0  0
   28.6890   31.4710   15.6640 N   0  0  0  0  0  0  0  0  0  0  0  0
   28.9270   30.2270   15.9910 N   0  0  0  0  0  0  0  0  0  0  0  0
   29.6770   32.4660   15.3790 C   0  0  0  0  0  0  0  0  0  0  0  0
   30.9960   32.3040   15.7680 C   0  0  0  0  0  0  0  0  0  0  0  0
   29.3220   33.6160   14.7040 C   0  0  0  0  0  0  0  0  0  0  0  0
   31.9240   33.3030   15.4670 C   0  0  0  0  0  0  0  0  0  0  0  0
   30.2490   34.5740   14.4250 N   0  0  0  0  0  0  0  0  0  0  0  0
   31.5370   34.4440   14.7890 C   0  0  0  0  0  0  0  0  0  0  0  0
   29.8670   25.5550   16.9770 C   0  0  0  0  0  0  0  0  0  0  0  0
   28.3450   25.7220   17.0260 C   0  0  0  0  0  0  0  0  0  0  0  0
   27.5990   24.4350   16.7100 C   0  0  0  0  0  0  0  0  0  0  0  0
   26.8750   23.8910   17.9110 C   0  0  0  0  0  0  0  0  0  0  0  0
   25.4780   24.4970   17.9810 C   0  0  0  0  0  0  0  0  0  0  0  0
   24.5910   23.8770   16.9690 N   0  0  0  0  0  0  0  0  0  0  0  0
  2  1  1  6  0  0  0
  2 25  1  0  0  0  0
  3 23  1  6  0  0  0
  3  2  1  0  0  0  0
  4  3  1  6  0  0  0
  5 10  1  6  0  0  0
  5  6  1  0  0  0  0
  5 12  1  0  0  0  0
  6  8  1  0  0  0  0
  7  4  1  0  0  0  0
  7  5  1  0  0  0  0
  8 16  1  6  0  0  0
  9  4  1  0  0  0  0
  9 18  1  1  0  0  0
  9  8  1  0  0  0  0
 10 11  1  0  0  0  0
 12 13  2  0  0  0  0
 14 12  1  0  0  0  0
 14 15  1  0  0  0  0
 17 16  1  0  0  0  0
 18 20  1  0  0  0  0
 19 21  1  0  0  0  0
 19 18  1  0  0  0  0
 22 19  2  0  0  0  0
 24 23  1  0  0  0  0
 25 26  1  0  0  0  0
 27  1  1  0  0  0  0
 28 30  2  0  0  0  0
 28 27  1  0  0  0  0
 29 27  1  0  0  0  0
 31 28  1  0  0  0  0
 32 31  1  0  0  0  0
 33 32  1  0  0  0  0
 33 35  1  0  0  0  0
 34 36  1  0  0  0  0
 34 33  2  0  0  0  0
 36 37  1  0  0  0  0
 37 35  2  0  0  0  0
 38 36  1  0  0  0  0
 38 39  2  0  0  0  0
 40 38  1  0  0  0  0
 41 39  1  0  0  0  0
 42 40  2  0  0  0  0
 42 43  1  0  0  0  0
 43 41  2  0  0  0  0
 44 45  1  0  0  0  0
 46 45  1  0  0  0  0
 46 47  1  0  0  0  0
 47 48  1  0  0  0  0
 49 48  1  0  0  0  0
M  END
>  <REMARK>
 VINA RESULT:    -4.752      1.907      3.661
 INTER + INTRA:         -13.388
 INTER:                  -7.605
 INTRA:                  -5.782
 UNBOUND:                -5.164
 SMILES CC(=O)N[C@@H]1[C@@H](O)C[C@](O)(C(=O)O)O[C@H]1C(O)[C@H](O)CNC(=O)OCc1cn(-c2cccnc2)nn1
 SMILES IDX 20 1 18 2 16 3 15 4 9 5 8 6 14 7 6 8 5 9 10 10 11 12 12 13
 SMILES IDX 13 14 7 16 4 18 2 19 1 21 3 22 17 23 19 25 21 27 22 28 23 30
 SMILES IDX 24 31 25 32 26 33 27 34 36 35 28 36 35 37 29 38 30 39 34 40
 SMILES IDX 31 41 33 42 32 43
 H PARENT 10 11 13 15 7 17 4 20 17 24 19 26 21 29
 Flexibility Score: inf
  4 active torsions:
  status: ('A' for Active; 'I' for Inactive)
    1  A    between atoms: CA   and  CB  
    2  A    between atoms: CB   and  CG  
    3  A    between atoms: CG   and  CD  
    4  A    between atoms: CD   and  CE  

>  <TORSDO>
F 15

>  <BEGIN_>
RES LYS A 131

$$$$
ligand_52_pose_18_2HRL.pdbqt
 OpenBabel07062320523D

  6  5  0  0  0  0  0  0  0  0999 V2000
   33.1930   34.6630    9.2900 C   0  0  0  0  0  0  0  0  0  0  0  0
   32.0600   35.3600   10.0340 C   0  0  0  0  0  0  0  0  0  0  0  0
   30.7910   35.4730    9.2300 C   0  0  0  0  0  0  0  0  0  0  0  0
   30.2210   34.0950    8.9290 C   0  0  0  0  0  0  0  0  0  0  0  0
   28.7160   34.0880    9.1210 C   0  0  0  0  0  0  0  0  0  0  0  0
   28.0320   34.8200    8.0190 N   0  0  0  0  0  0  0  0  0  0  0  0
  1  2  1  0  0  0  0
  3  2  1  0  0  0  0
  4  5  1  0  0  0  0
  4  3  1  0  0  0  0
  6  5  1  0  0  0  0
M  END
>  <EGIN_R>
ES LYS A 135

>  <REMARK>
  4 active torsions:
  status: ('A' for Active; 'I' for Inactive)
    5  A    between atoms: CA   and  CB  
    6  A    between atoms: CB   and  CG  
    7  A    between atoms: CG   and  CD  
    8  A    between atoms: CD   and  CE  

$$$$
