ligand_82_pose_8_2HRL.pdbqt
 OpenBabel07062320523D

 53 55  0  0  1  0  0  0  0  0999 V2000
   29.2590   27.5270   19.9460 N   0  0  0  0  0  0  0  0  0  0  0  0
   27.9200   28.0510   19.9120 C   0  0  0  0  0  0  0  0  0  0  0  0
   27.3240   28.2450   21.0020 O   0  0  0  0  0  0  0  0  0  0  0  0
   29.7580   27.3640   19.0460 H   0  0  0  0  0  0  0  0  0  0  0  0
   29.8840   27.2360   21.2190 C   0  0  0  0  0  0  0  0  0  0  0  0
   31.2040   27.9510   21.2660 C   0  0  2  0  0  0  0  0  0  0  0  0
   31.0950   29.3180   21.9050 C   0  0  1  0  0  0  0  0  0  0  0  0
   32.2320   30.1560   21.3690 C   0  0  2  0  0  0  0  0  0  0  0  0
   33.9740   29.8890   22.8720 C   0  0  2  0  0  0  0  0  0  0  0  0
   34.0290   31.3580   23.2270 C   0  0  0  0  0  0  0  0  0  0  0  0
   33.4720   29.6450   21.6170 O   0  0  0  0  0  0  0  0  0  0  0  0
   33.4540   32.1380   22.0710 C   0  0  1  0  0  0  0  0  0  0  0  0
   32.0650   31.5910   21.8120 C   0  0  1  0  0  0  0  0  0  0  0  0
   33.2890   29.1940   23.8730 O   0  0  0  0  0  0  0  0  0  0  0  0
   32.5050   28.7770   23.4230 H   0  0  0  0  0  0  0  0  0  0  0  0
   35.3810   29.3910   22.8940 C   0  0  0  0  0  0  0  0  0  0  0  0
   36.3390   30.2370   22.9040 O   0  0  0  0  0  0  0  0  0  0  0  0
   35.7000   28.0500   22.9050 O   0  0  0  0  0  0  0  0  0  0  0  0
   36.6140   27.7190   23.2050 H   0  0  0  0  0  0  0  0  0  0  0  0
   33.3480   33.4880   22.3440 O   0  0  0  0  0  0  0  0  0  0  0  0
   34.1490   33.9310   21.9660 H   0  0  0  0  0  0  0  0  0  0  0  0
   31.3440   32.3950   20.8580 N   0  0  0  0  0  0  0  0  0  0  0  0
   30.1790   33.1180   21.2200 C   0  0  0  0  0  0  0  0  0  0  0  0
   31.7040   32.4340   19.8800 H   0  0  0  0  0  0  0  0  0  0  0  0
   29.4960   33.9230   20.1700 C   0  0  0  0  0  0  0  0  0  0  0  0
   29.7410   33.0740   22.3960 O   0  0  0  0  0  0  0  0  0  0  0  0
   29.9020   29.9390   21.5430 O   0  0  0  0  0  0  0  0  0  0  0  0
   29.1560   29.3240   21.4530 H   0  0  0  0  0  0  0  0  0  0  0  0
   31.6150   28.1230   19.9270 O   0  0  0  0  0  0  0  0  0  0  0  0
   31.3400   27.3360   19.3780 H   0  0  0  0  0  0  0  0  0  0  0  0
   27.2680   28.3490   18.7470 O   0  0  0  0  0  0  0  0  0  0  0  0
   27.0770   29.6640   18.2580 C   0  0  0  0  0  0  0  0  0  0  0  0
   28.3780   30.2710   17.9090 C   0  0  0  0  0  0  0  0  0  0  0  0
   28.8770   30.5840   16.6670 C   0  0  0  0  0  0  0  0  0  0  0  0
   29.3260   30.6320   18.7860 N   0  0  0  0  0  0  0  0  0  0  0  0
   30.1200   31.1310   16.8110 N   0  0  0  0  0  0  0  0  0  0  0  0
   30.3600   31.1430   18.1140 N   0  0  0  0  0  0  0  0  0  0  0  0
   30.9570   31.5830   15.7270 C   0  0  0  0  0  0  0  0  0  0  0  0
   30.9650   33.0860   15.6420 C   0  0  0  0  0  0  0  0  0  0  0  0
   29.9290   33.8070   16.0600 C   0  0  0  0  0  0  0  0  0  0  0  0
   32.1250   33.8140   15.0900 C   0  0  2  0  0  0  0  0  0  0  0  0
   30.0900   35.2820   16.1810 C   0  0  0  0  0  0  0  0  0  0  0  0
   32.5170   34.8530   16.1500 C   0  0  0  0  0  0  0  0  0  0  0  0
   31.6320   34.9800   14.2560 C   0  0  0  0  0  0  0  0  0  0  0  0
   31.3960   35.7100   15.5860 C   0  0  1  0  0  0  0  0  0  0  0  0
   32.7130   35.6740   13.4770 C   0  0  0  0  0  0  0  0  0  0  0  0
   30.4010   34.7330   13.4510 C   0  0  0  0  0  0  0  0  0  0  0  0
   29.8670   25.5550   16.9770 C   0  0  0  0  0  0  0  0  0  0  0  0
   28.3450   25.7220   17.0260 C   0  0  0  0  0  0  0  0  0  0  0  0
   27.5990   24.4320   16.7220 C   0  0  0  0  0  0  0  0  0  0  0  0
   26.9460   23.8540   17.9470 C   0  0  0  0  0  0  0  0  0  0  0  0
   25.5620   23.3250   17.5840 C   0  0  0  0  0  0  0  0  0  0  0  0
   24.7790   24.3650   16.8750 N   0  0  0  0  0  0  0  0  0  0  0  0
  1  5  1  0  0  0  0
  2  1  1  0  0  0  0
  2  3  2  0  0  0  0
  4  1  1  0  0  0  0
  6  5  1  6  0  0  0
  6  7  1  0  0  0  0
  7 27  1  6  0  0  0
  8 11  1  0  0  0  0
  8 13  1  0  0  0  0
  8  7  1  1  0  0  0
  9 16  1  1  0  0  0
  9 10  1  0  0  0  0
  9 14  1  0  0  0  0
 11  9  1  0  0  0  0
 12 20  1  1  0  0  0
 12 10  1  0  0  0  0
 13 22  1  6  0  0  0
 13 12  1  0  0  0  0
 15 14  1  0  0  0  0
 16 17  2  0  0  0  0
 16 18  1  0  0  0  0
 18 19  1  0  0  0  0
 21 20  1  0  0  0  0
 22 23  1  0  0  0  0
 23 26  2  0  0  0  0
 24 22  1  0  0  0  0
 25 23  1  0  0  0  0
 28 27  1  0  0  0  0
 29  6  1  0  0  0  0
 30 29  1  0  0  0  0
 31  2  1  0  0  0  0
 32 31  1  0  0  0  0
 33 32  1  0  0  0  0
 33 35  1  0  0  0  0
 34 36  1  0  0  0  0
 34 33  2  0  0  0  0
 36 37  1  0  0  0  0
 37 35  2  0  0  0  0
 38 36  1  0  0  0  0
 39 38  1  0  0  0  0
 39 40  2  0  0  0  0
 40 42  1  0  0  0  0
 41 39  1  0  0  0  0
 41 43  1  1  0  0  0
 44 41  1  0  0  0  0
 44 45  1  0  0  0  0
 45 43  1  1  0  0  0
 45 42  1  0  0  0  0
 46 44  1  0  0  0  0
 47 44  1  0  0  0  0
 48 49  1  0  0  0  0
 50 49  1  0  0  0  0
 50 51  1  0  0  0  0
 52 51  1  0  0  0  0
 53 52  1  0  0  0  0
M  END
>  <REMARK>
 VINA RESULT:    -5.505      2.118      3.833
 INTER + INTRA:         -15.187
 INTER:                  -8.861
 INTRA:                  -6.326
 UNBOUND:                -5.337
 SMILES CC(=O)N[C@@H]1[C@@H](O)C[C@](O)(C(=O)O)O[C@H]1C(O)[C@H](O)CNC(=O)OCc1cn(CC2=CC[C@H]3C[C@@H]2C3(C)C)nn1
 SMILES IDX 21 1 22 2 23 3 20 5 18 6 16 7 15 8 9 9 8 10 14 11 6 12 5 13
 SMILES IDX 10 14 11 16 12 17 13 18 7 20 4 22 2 23 1 25 3 26 17 27 19 29
 SMILES IDX 24 31 25 32 26 33 27 34 40 35 28 36 39 37 29 38 30 39 31 40
 SMILES IDX 35 41 32 42 34 43 36 44 33 45 37 46 38 47
 H PARENT 21 4 10 15 13 19 7 21 4 24 17 28 19 30
 Flexibility Score: inf
  4 active torsions:
  status: ('A' for Active; 'I' for Inactive)
    1  A    between atoms: CA   and  CB  
    2  A    between atoms: CB   and  CG  
    3  A    between atoms: CG   and  CD  
    4  A    between atoms: CD   and  CE  

>  <TORSDO>
F 16

>  <BEGIN_>
RES LYS A 131

$$$$
ligand_82_pose_8_2HRL.pdbqt
 OpenBabel07062320523D

  6  5  0  0  0  0  0  0  0  0999 V2000
   33.1930   34.6630    9.2900 C   0  0  0  0  0  0  0  0  0  0  0  0
   32.0600   35.3600   10.0340 C   0  0  0  0  0  0  0  0  0  0  0  0
   30.7550   35.3600    9.2810 C   0  0  0  0  0  0  0  0  0  0  0  0
   29.8880   34.1860    9.7100 C   0  0  0  0  0  0  0  0  0  0  0  0
   28.5860   34.1730    8.9310 C   0  0  0  0  0  0  0  0  0  0  0  0
   28.1950   35.5490    8.5160 N   0  0  0  0  0  0  0  0  0  0  0  0
  1  2  1  0  0  0  0
  3  4  1  0  0  0  0
  3  2  1  0  0  0  0
  5  4  1  0  0  0  0
  6  5  1  0  0  0  0
M  END
>  <EGIN_R>
ES LYS A 135

>  <REMARK>
  4 active torsions:
  status: ('A' for Active; 'I' for Inactive)
    5  A    between atoms: CA   and  CB  
    6  A    between atoms: CB   and  CG  
    7  A    between atoms: CG   and  CD  
    8  A    between atoms: CD   and  CE  

$$$$
