ligand_83_pose_16_2HRL.pdbqt
 OpenBabel07062320523D

 56 57  0  0  1  0  0  0  0  0999 V2000
   28.8950   37.6050   12.7850 O   0  0  0  0  0  0  0  0  0  0  0  0
   28.2820   36.8860   11.7450 C   0  0  0  0  0  0  0  0  0  0  0  0
   27.4920   35.7530   11.9650 N   0  0  0  0  0  0  0  0  0  0  0  0
   27.3640   35.4370   12.9740 H   0  0  0  0  0  0  0  0  0  0  0  0
   28.4770   37.3110   10.5980 O   0  0  0  0  0  0  0  0  0  0  0  0
   26.8430   34.9880   10.9270 C   0  0  0  0  0  0  0  0  0  0  0  0
   25.5010   35.6100   10.6500 C   0  0  2  0  0  0  0  0  0  0  0  0
   24.5420   35.1520   11.7230 C   0  0  2  0  0  0  0  0  0  0  0  0
   23.1370   34.9770   11.1610 C   0  0  2  0  0  0  0  0  0  0  0  0
   21.5150   36.2530   10.0800 C   0  0  2  0  0  0  0  0  0  0  0  0
   20.5250   35.4290   10.8800 C   0  0  0  0  0  0  0  0  0  0  0  0
   22.7520   36.1970   10.6760 O   0  0  0  0  0  0  0  0  0  0  0  0
   21.0020   35.3210   12.3110 C   0  0  1  0  0  0  0  0  0  0  0  0
   22.2540   34.4530   12.2790 C   0  0  1  0  0  0  0  0  0  0  0  0
   21.1280   37.6070   10.0720 O   0  0  0  0  0  0  0  0  0  0  0  0
   21.4780   37.9960    9.2370 H   0  0  0  0  0  0  0  0  0  0  0  0
   21.6260   35.7970    8.6880 C   0  0  0  0  0  0  0  0  0  0  0  0
   22.4500   36.3140    7.9170 O   0  0  0  0  0  0  0  0  0  0  0  0
   20.8100   34.7830    8.2200 O   0  0  0  0  0  0  0  0  0  0  0  0
   21.1400   33.8370    8.1720 H   0  0  0  0  0  0  0  0  0  0  0  0
   21.3810   36.5380   12.8540 O   0  0  0  0  0  0  0  0  0  0  0  0
   22.0010   36.4020   13.5980 H   0  0  0  0  0  0  0  0  0  0  0  0
   21.8680   33.0870   12.0670 N   0  0  0  0  0  0  0  0  0  0  0  0
   22.4430   32.0490   12.8280 C   0  0  0  0  0  0  0  0  0  0  0  0
   21.1550   32.7920   11.3490 H   0  0  0  0  0  0  0  0  0  0  0  0
   22.0370   30.6280   12.6020 C   0  0  0  0  0  0  0  0  0  0  0  0
   23.3050   32.2960   13.7110 O   0  0  0  0  0  0  0  0  0  0  0  0
   24.4640   36.1380   12.6860 O   0  0  0  0  0  0  0  0  0  0  0  0
   25.3250   36.3100   13.1330 H   0  0  0  0  0  0  0  0  0  0  0  0
   25.0350   35.3140    9.3730 O   0  0  0  0  0  0  0  0  0  0  0  0
   25.4040   36.0080    8.7690 H   0  0  0  0  0  0  0  0  0  0  0  0
   30.2450   38.0690   12.6210 C   0  0  0  0  0  0  0  0  0  0  0  0
   31.2050   37.1490   13.2240 C   0  0  0  0  0  0  0  0  0  0  0  0
   31.2810   36.8190   14.5540 C   0  0  0  0  0  0  0  0  0  0  0  0
   32.1670   36.4820   12.5700 N   0  0  0  0  0  0  0  0  0  0  0  0
   32.2970   35.9520   14.6700 N   0  0  0  0  0  0  0  0  0  0  0  0
   32.8100   35.7650   13.4770 N   0  0  0  0  0  0  0  0  0  0  0  0
   32.7220   35.3430   15.9420 C   0  0  0  0  0  0  0  0  0  0  0  0
   31.6730   34.3650   16.4200 C   0  0  2  0  0  0  0  0  0  0  0  0
   31.9530   34.1570   17.7890 O   0  0  0  0  0  0  0  0  0  0  0  0
   31.9770   33.2110   18.0250 H   0  0  0  0  0  0  0  0  0  0  0  0
   31.7940   33.0920   15.6450 C   0  0  0  0  0  0  0  0  0  0  0  0
   30.5270   32.3640   15.7620 N   0  0  0  0  0  0  0  0  0  0  0  0
   30.3210   31.2240   16.4620 C   0  0  0  0  0  0  0  0  0  0  0  0
   29.3950   32.7430   15.1960 C   0  0  0  0  0  0  0  0  0  0  0  0
   29.0130   30.8910   16.3190 C   0  0  0  0  0  0  0  0  0  0  0  0
   28.4550   31.8220   15.5470 N   0  0  0  0  0  0  0  0  0  0  0  0
   29.1520   33.8900   14.3640 N   0  0  0  0  0  0  0  0  0  0  0  0
   29.6410   34.0220   13.2310 O   0  0  0  0  0  0  0  0  0  0  0  0
   28.3380   34.8980   14.8390 O   0  0  0  0  0  0  0  0  0  0  0  0
   29.8670   25.5550   16.9770 C   0  0  0  0  0  0  0  0  0  0  0  0
   28.3450   25.7220   17.0260 C   0  0  0  0  0  0  0  0  0  0  0  0
   27.6010   24.4030   16.8880 C   0  0  0  0  0  0  0  0  0  0  0  0
   26.1650   24.5140   17.3190 C   0  0  0  0  0  0  0  0  0  0  0  0
   26.0720   25.4070   18.5520 C   0  0  0  0  0  0  0  0  0  0  0  0
   25.4950   24.6570   19.6930 N   0  0  0  0  0  0  0  0  0  0  0  0
  2  3  1  0  0  0  0
  2  1  1  0  0  0  0
  3  4  1  0  0  0  0
  5  2  2  0  0  0  0
  6  3  1  0  0  0  0
  7  6  1  1  0  0  0
  7  8  1  0  0  0  0
  8 28  1  1  0  0  0
  9  8  1  1  0  0  0
  9 14  1  0  0  0  0
 10 17  1  6  0  0  0
 10 12  1  0  0  0  0
 10 11  1  0  0  0  0
 11 13  1  0  0  0  0
 12  9  1  0  0  0  0
 13 21  1  6  0  0  0
 14 23  1  6  0  0  0
 14 13  1  0  0  0  0
 15 10  1  0  0  0  0
 16 15  1  0  0  0  0
 18 17  2  0  0  0  0
 19 17  1  0  0  0  0
 20 19  1  0  0  0  0
 21 22  1  0  0  0  0
 23 24  1  0  0  0  0
 24 27  2  0  0  0  0
 25 23  1  0  0  0  0
 26 24  1  0  0  0  0
 28 29  1  0  0  0  0
 30  7  1  0  0  0  0
 31 30  1  0  0  0  0
 32  1  1  0  0  0  0
 32 33  1  0  0  0  0
 33 34  2  0  0  0  0
 34 36  1  0  0  0  0
 35 33  1  0  0  0  0
 35 37  2  0  0  0  0
 36 38  1  0  0  0  0
 37 36  1  0  0  0  0
 38 39  1  0  0  0  0
 39 42  1  6  0  0  0
 39 40  1  0  0  0  0
 40 41  1  0  0  0  0
 42 43  1  0  0  0  0
 43 44  1  0  0  0  0
 45 47  2  0  0  0  0
 45 43  1  0  0  0  0
 46 44  2  0  0  0  0
 47 46  1  0  0  0  0
 48 50  2  0  0  0  0
 48 45  1  0  0  0  0
 49 48  2  0  0  0  0
 51 52  1  0  0  0  0
 53 52  1  0  0  0  0
 53 54  1  0  0  0  0
 54 55  1  0  0  0  0
 55 56  1  0  0  0  0
M  END
>  <REMARK>
 VINA RESULT:    -3.576      5.399     10.236
 INTER + INTRA:         -15.575
 INTER:                  -8.758
 INTRA:                  -6.817
 UNBOUND:                -8.446
 SMILES CC(=O)N[C@@H]1[C@@H](O)C[C@](O)(C(=O)O)O[C@H]1C(O)[C@H](O)CNC(=O)OCc1cn(CC(O)Cn2ccnc2[N+](=O)[O-])nn1
 SMILES IDX 24 1 22 2 21 3 23 5 20 6 18 7 16 8 15 9 9 10 8 11 14 12 6 13
 SMILES IDX 5 14 10 15 11 17 12 18 13 19 7 21 4 23 2 24 1 26 3 27 17 28
 SMILES IDX 19 30 25 32 26 33 27 34 42 35 28 36 41 37 29 38 30 39 31 40
 SMILES IDX 32 42 33 43 34 44 37 45 35 46 36 47 38 48 39 49 40 50
 H PARENT 21 4 10 16 13 20 7 22 4 25 17 29 19 31 31 41
 Flexibility Score: inf
  4 active torsions:
  status: ('A' for Active; 'I' for Inactive)
    1  A    between atoms: CA   and  CB  
    2  A    between atoms: CB   and  CG  
    3  A    between atoms: CG   and  CD  
    4  A    between atoms: CD   and  CE  

>  <TORSDO>
F 20

>  <BEGIN_>
RES LYS A 131

$$$$
ligand_83_pose_16_2HRL.pdbqt
 OpenBabel07062320523D

  6  5  0  0  0  0  0  0  0  0999 V2000
   33.1930   34.6630    9.2900 C   0  0  0  0  0  0  0  0  0  0  0  0
   32.0600   35.3600   10.0340 C   0  0  0  0  0  0  0  0  0  0  0  0
   30.7100   34.7320    9.8000 C   0  0  0  0  0  0  0  0  0  0  0  0
   30.4670   34.5200    8.3140 C   0  0  0  0  0  0  0  0  0  0  0  0
   29.0250   34.8300    7.9610 C   0  0  0  0  0  0  0  0  0  0  0  0
   28.9330   35.5460    6.6590 N   0  0  0  0  0  0  0  0  0  0  0  0
  1  2  1  0  0  0  0
  3  2  1  0  0  0  0
  4  3  1  0  0  0  0
  5  4  1  0  0  0  0
  6  5  1  0  0  0  0
M  END
>  <EGIN_R>
ES LYS A 135

>  <REMARK>
  4 active torsions:
  status: ('A' for Active; 'I' for Inactive)
    5  A    between atoms: CA   and  CB  
    6  A    between atoms: CB   and  CG  
    7  A    between atoms: CG   and  CD  
    8  A    between atoms: CD   and  CE  

$$$$
