ligand_67_pose_18_2HRL.pdbqt
 OpenBabel07062320523D

 50 51  0  0  1  0  0  0  0  0999 V2000
   26.3880   28.4270   19.9950 N   0  0  0  0  0  0  0  0  0  0  0  0
   25.8290   27.6360   18.9620 C   0  0  0  0  0  0  0  0  0  0  0  0
   25.2250   26.5520   19.2680 O   0  0  0  0  0  0  0  0  0  0  0  0
   26.8780   29.3060   19.7590 H   0  0  0  0  0  0  0  0  0  0  0  0
   26.2690   28.0050   21.3510 C   0  0  0  0  0  0  0  0  0  0  0  0
   27.5860   27.6880   22.0050 C   0  0  2  0  0  0  0  0  0  0  0  0
   28.7530   27.8380   21.0760 C   0  0  1  0  0  0  0  0  0  0  0  0
   29.6860   28.9220   21.5680 C   0  0  2  0  0  0  0  0  0  0  0  0
   30.6870   30.8860   20.8230 C   0  0  2  0  0  0  0  0  0  0  0  0
   31.9470   30.4630   21.5200 C   0  0  0  0  0  0  0  0  0  0  0  0
   29.7930   29.8750   20.5880 O   0  0  0  0  0  0  0  0  0  0  0  0
   32.1530   28.9890   21.2380 C   0  0  1  0  0  0  0  0  0  0  0  0
   31.0060   28.2490   21.9130 C   0  0  1  0  0  0  0  0  0  0  0  0
   31.0660   31.3920   19.5580 O   0  0  0  0  0  0  0  0  0  0  0  0
   31.5780   30.7390   19.0430 H   0  0  0  0  0  0  0  0  0  0  0  0
   30.0700   32.0490   21.5370 C   0  0  0  0  0  0  0  0  0  0  0  0
   28.8970   32.4400   21.3520 O   0  0  0  0  0  0  0  0  0  0  0  0
   30.8660   32.7190   22.4550 O   0  0  0  0  0  0  0  0  0  0  0  0
   31.3330   32.2710   23.2370 H   0  0  0  0  0  0  0  0  0  0  0  0
   32.0530   28.7890   19.8530 O   0  0  0  0  0  0  0  0  0  0  0  0
   32.8960   28.4550   19.4650 H   0  0  0  0  0  0  0  0  0  0  0  0
   31.2470   28.2540   23.3470 N   0  0  0  0  0  0  0  0  0  0  0  0
   30.9110   27.1060   24.1080 C   0  0  0  0  0  0  0  0  0  0  0  0
   31.6680   29.1020   23.8260 H   0  0  0  0  0  0  0  0  0  0  0  0
   31.1170   27.0140   25.5760 C   0  0  0  0  0  0  0  0  0  0  0  0
   30.4130   26.1170   23.4970 O   0  0  0  0  0  0  0  0  0  0  0  0
   29.4050   26.6200   20.8830 O   0  0  0  0  0  0  0  0  0  0  0  0
   28.8410   25.8370   21.0580 H   0  0  0  0  0  0  0  0  0  0  0  0
   27.5450   26.3920   22.4970 O   0  0  0  0  0  0  0  0  0  0  0  0
   27.0570   25.7680   21.9290 H   0  0  0  0  0  0  0  0  0  0  0  0
   25.8850   27.9450   17.6330 O   0  0  0  0  0  0  0  0  0  0  0  0
   25.7800   29.2390   17.0720 C   0  0  0  0  0  0  0  0  0  0  0  0
   27.0460   30.0030   17.1760 C   0  0  0  0  0  0  0  0  0  0  0  0
   28.1110   29.9490   16.3080 C   0  0  0  0  0  0  0  0  0  0  0  0
   27.3900   30.8830   18.1300 N   0  0  0  0  0  0  0  0  0  0  0  0
   29.0660   30.7920   16.7560 N   0  0  0  0  0  0  0  0  0  0  0  0
   28.6020   31.3440   17.8620 N   0  0  0  0  0  0  0  0  0  0  0  0
   30.3700   31.0820   16.1730 C   0  0  0  0  0  0  0  0  0  0  0  0
   30.6270   32.5730   16.1620 C   0  0  0  0  0  0  0  0  0  0  0  0
   30.6370   33.1120   14.7720 C   0  0  0  0  0  0  0  0  0  0  0  0
   31.5200   34.1660   14.5770 O   0  0  0  0  0  0  0  0  0  0  0  0
   29.3980   33.5410   14.3180 O   0  0  0  0  0  0  0  0  0  0  0  0
   31.0590   34.8620   13.4620 C   0  0  0  0  0  0  0  0  0  0  0  0
   29.6080   34.4960   13.3520 C   0  0  0  0  0  0  0  0  0  0  0  0
   29.8670   25.5550   16.9770 C   0  0  0  0  0  0  0  0  0  0  0  0
   28.3450   25.7220   17.0260 C   0  0  0  0  0  0  0  0  0  0  0  0
   27.5990   24.4360   16.7040 C   0  0  0  0  0  0  0  0  0  0  0  0
   27.0080   23.8020   17.9320 C   0  0  0  0  0  0  0  0  0  0  0  0
   25.6250   23.2480   17.6040 C   0  0  0  0  0  0  0  0  0  0  0  0
   24.8230   24.2570   16.8710 N   0  0  0  0  0  0  0  0  0  0  0  0
  1  5  1  0  0  0  0
  2  3  2  0  0  0  0
  2  1  1  0  0  0  0
  4  1  1  0  0  0  0
  6  5  1  6  0  0  0
  6 29  1  0  0  0  0
  7 27  1  1  0  0  0
  7  6  1  0  0  0  0
  8  7  1  6  0  0  0
  8 13  1  0  0  0  0
  9 14  1  6  0  0  0
  9 10  1  0  0  0  0
  9 16  1  0  0  0  0
 11  9  1  0  0  0  0
 11  8  1  0  0  0  0
 12 20  1  6  0  0  0
 12 10  1  0  0  0  0
 12 13  1  0  0  0  0
 13 22  1  1  0  0  0
 15 14  1  0  0  0  0
 16 18  1  0  0  0  0
 17 16  2  0  0  0  0
 18 19  1  0  0  0  0
 21 20  1  0  0  0  0
 22 24  1  0  0  0  0
 22 23  1  0  0  0  0
 23 25  1  0  0  0  0
 26 23  2  0  0  0  0
 27 28  1  0  0  0  0
 30 29  1  0  0  0  0
 31  2  1  0  0  0  0
 32 33  1  0  0  0  0
 32 31  1  0  0  0  0
 33 35  1  0  0  0  0
 34 36  1  0  0  0  0
 34 33  2  0  0  0  0
 36 37  1  0  0  0  0
 37 35  2  0  0  0  0
 38 36  1  0  0  0  0
 39 38  1  0  0  0  0
 40 39  1  0  0  0  0
 41 40  1  0  0  0  0
 42 40  1  0  0  0  0
 43 41  1  0  0  0  0
 44 43  1  0  0  0  0
 44 42  1  0  0  0  0
 45 46  1  0  0  0  0
 47 46  1  0  0  0  0
 47 48  1  0  0  0  0
 49 48  1  0  0  0  0
 50 49  1  0  0  0  0
M  END
>  <REMARK>
 VINA RESULT:    -4.056      3.214      6.665
 INTER + INTRA:         -13.787
 INTER:                  -7.494
 INTRA:                  -6.292
 UNBOUND:                -6.292
 SMILES CC(=O)N[C@@H]1[C@@H](O)C[C@](O)(C(=O)O)O[C@H]1C(O)[C@H](O)CNC(=O)OCc1cn(CCC2OCCO2)nn1
 SMILES IDX 21 1 22 2 23 3 20 5 18 6 16 7 15 8 9 9 8 10 14 11 6 12 5 13
 SMILES IDX 10 14 11 16 12 17 13 18 7 20 4 22 2 23 1 25 3 26 17 27 19 29
 SMILES IDX 24 31 25 32 26 33 27 34 37 35 28 36 36 37 29 38 30 39 31 40
 SMILES IDX 32 41 35 42 33 43 34 44
 H PARENT 21 4 10 15 13 19 7 21 4 24 17 28 19 30
 Flexibility Score: inf
  4 active torsions:
  status: ('A' for Active; 'I' for Inactive)
    1  A    between atoms: CA   and  CB  
    2  A    between atoms: CB   and  CG  
    3  A    between atoms: CG   and  CD  
    4  A    between atoms: CD   and  CE  

>  <TORSDO>
F 17

>  <BEGIN_>
RES LYS A 131

$$$$
ligand_67_pose_18_2HRL.pdbqt
 OpenBabel07062320523D

  6  5  0  0  0  0  0  0  0  0999 V2000
   33.1930   34.6630    9.2900 C   0  0  0  0  0  0  0  0  0  0  0  0
   32.0600   35.3600   10.0340 C   0  0  0  0  0  0  0  0  0  0  0  0
   30.6980   34.7960    9.7230 C   0  0  0  0  0  0  0  0  0  0  0  0
   30.5700   34.4890    8.2390 C   0  0  0  0  0  0  0  0  0  0  0  0
   29.2880   35.0770    7.6810 C   0  0  0  0  0  0  0  0  0  0  0  0
   28.0970   34.5410    8.3970 N   0  0  0  0  0  0  0  0  0  0  0  0
  1  2  1  0  0  0  0
  3  2  1  0  0  0  0
  4  3  1  0  0  0  0
  5  4  1  0  0  0  0
  5  6  1  0  0  0  0
M  END
>  <EGIN_R>
ES LYS A 135

>  <REMARK>
  4 active torsions:
  status: ('A' for Active; 'I' for Inactive)
    5  A    between atoms: CA   and  CB  
    6  A    between atoms: CB   and  CG  
    7  A    between atoms: CG   and  CD  
    8  A    between atoms: CD   and  CE  

$$$$
