ligand_55_pose_13_2HRL.pdbqt
 OpenBabel07062320523D

 51 51  0  0  1  0  0  0  0  0999 V2000
   28.4380   35.1730    7.4580 N   0  0  0  0  0  0  0  0  0  0  0  0
   29.2770   34.5570    8.4090 C   0  0  0  0  0  0  0  0  0  0  0  0
   30.4880   34.3560    8.2250 O   0  0  0  0  0  0  0  0  0  0  0  0
   27.4170   35.3000    7.7330 H   0  0  0  0  0  0  0  0  0  0  0  0
   28.8300   35.6360    6.1800 C   0  0  0  0  0  0  0  0  0  0  0  0
   28.3120   36.9870    5.7500 C   0  0  2  0  0  0  0  0  0  0  0  0
   28.5450   37.9280    6.8900 C   0  0  2  0  0  0  0  0  0  0  0  0
   28.2050   39.3670    6.6680 C   0  0  2  0  0  0  0  0  0  0  0  0
   27.1150   40.7230    5.0960 C   0  0  2  0  0  0  0  0  0  0  0  0
   28.0410   41.8540    5.3900 C   0  0  0  0  0  0  0  0  0  0  0  0
   27.4260   39.5190    5.5950 O   0  0  0  0  0  0  0  0  0  0  0  0
   29.4140   41.4130    5.8180 C   0  0  1  0  0  0  0  0  0  0  0  0
   29.3600   40.3090    6.8180 C   0  0  1  0  0  0  0  0  0  0  0  0
   26.9830   40.6150    3.7070 O   0  0  0  0  0  0  0  0  0  0  0  0
   26.0950   40.9450    3.4510 H   0  0  0  0  0  0  0  0  0  0  0  0
   25.7640   41.0960    5.6060 C   0  0  0  0  0  0  0  0  0  0  0  0
   25.3230   42.2600    5.6240 O   0  0  0  0  0  0  0  0  0  0  0  0
   24.9040   40.0990    6.1050 O   0  0  0  0  0  0  0  0  0  0  0  0
   25.1790   39.1260    6.1170 H   0  0  0  0  0  0  0  0  0  0  0  0
   30.1570   41.1170    4.6820 O   0  0  0  0  0  0  0  0  0  0  0  0
   29.6050   41.3820    3.9030 H   0  0  0  0  0  0  0  0  0  0  0  0
   29.4110   40.9070    8.1400 N   0  0  0  0  0  0  0  0  0  0  0  0
   30.3840   40.5690    9.1180 C   0  0  0  0  0  0  0  0  0  0  0  0
   28.7060   41.6440    8.4460 H   0  0  0  0  0  0  0  0  0  0  0  0
   30.3950   41.2150   10.4730 C   0  0  0  0  0  0  0  0  0  0  0  0
   31.2370   39.7020    8.7960 O   0  0  0  0  0  0  0  0  0  0  0  0
   29.9320   37.7860    7.1890 O   0  0  0  0  0  0  0  0  0  0  0  0
   30.1470   38.2010    8.0500 H   0  0  0  0  0  0  0  0  0  0  0  0
   27.0170   36.8590    5.3260 O   0  0  0  0  0  0  0  0  0  0  0  0
   26.8890   37.1690    4.4220 H   0  0  0  0  0  0  0  0  0  0  0  0
   28.7450   34.1410    9.6250 O   0  0  0  0  0  0  0  0  0  0  0  0
   28.9680   34.8030   10.8440 C   0  0  0  0  0  0  0  0  0  0  0  0
   28.3270   36.1310   10.8460 C   0  0  0  0  0  0  0  0  0  0  0  0
   27.2180   36.5560   11.5500 C   0  0  0  0  0  0  0  0  0  0  0  0
   28.7310   37.1830   10.1380 N   0  0  0  0  0  0  0  0  0  0  0  0
   26.9830   37.8410   11.2520 N   0  0  0  0  0  0  0  0  0  0  0  0
   27.9260   38.1960   10.3860 N   0  0  0  0  0  0  0  0  0  0  0  0
   25.9550   38.7330   11.7190 C   0  0  0  0  0  0  0  0  0  0  0  0
   24.6640   38.5790   10.9360 C   0  0  0  0  0  0  0  0  0  0  0  0
   25.0110   38.5290    9.5330 N   0  0  0  0  0  0  0  0  0  0  0  0
   26.0210   38.6570    9.3750 H   0  0  0  0  0  0  0  0  0  0  0  0
   24.4690   37.0820    8.7780 S   0  0  0  0  0  0  0  0  0  0  0  0
   25.6310   36.5180    8.0030 O   0  0  0  0  0  0  0  0  0  0  0  0
   23.9790   36.1280    9.8190 O   0  0  0  0  0  0  0  0  0  0  0  0
   23.1570   37.4240    7.6260 C   0  0  0  0  0  0  0  0  0  0  0  0
   29.8670   25.5550   16.9770 C   0  0  0  0  0  0  0  0  0  0  0  0
   28.3450   25.7220   17.0260 C   0  0  0  0  0  0  0  0  0  0  0  0
   27.5990   24.4270   16.7420 C   0  0  0  0  0  0  0  0  0  0  0  0
   26.9740   23.8500   17.9810 C   0  0  0  0  0  0  0  0  0  0  0  0
   25.5790   24.4370   18.1680 C   0  0  0  0  0  0  0  0  0  0  0  0
   24.7720   24.2610   16.9380 N   0  0  0  0  0  0  0  0  0  0  0  0
  1  4  1  0  0  0  0
  1  2  1  0  0  0  0
  2 31  1  0  0  0  0
  3  2  2  0  0  0  0
  5  1  1  0  0  0  0
  6  5  1  1  0  0  0
  6  7  1  0  0  0  0
  7 27  1  6  0  0  0
  8 13  1  0  0  0  0
  8  7  1  6  0  0  0
  9 14  1  6  0  0  0
  9 10  1  0  0  0  0
  9 11  1  0  0  0  0
  9 16  1  0  0  0  0
 10 12  1  0  0  0  0
 11  8  1  0  0  0  0
 12 20  1  6  0  0  0
 12 13  1  0  0  0  0
 13 22  1  1  0  0  0
 15 14  1  0  0  0  0
 16 17  2  0  0  0  0
 16 18  1  0  0  0  0
 18 19  1  0  0  0  0
 21 20  1  0  0  0  0
 22 24  1  0  0  0  0
 22 23  1  0  0  0  0
 23 25  1  0  0  0  0
 26 23  2  0  0  0  0
 27 28  1  0  0  0  0
 29  6  1  0  0  0  0
 30 29  1  0  0  0  0
 31 32  1  0  0  0  0
 32 33  1  0  0  0  0
 33 34  2  0  0  0  0
 35 37  2  0  0  0  0
 35 33  1  0  0  0  0
 36 34  1  0  0  0  0
 36 38  1  0  0  0  0
 37 36  1  0  0  0  0
 39 38  1  0  0  0  0
 40 39  1  0  0  0  0
 41 40  1  0  0  0  0
 42 40  1  0  0  0  0
 42 44  2  0  0  0  0
 43 42  2  0  0  0  0
 45 42  1  0  0  0  0
 46 47  1  0  0  0  0
 48 47  1  0  0  0  0
 48 49  1  0  0  0  0
 49 50  1  0  0  0  0
 51 50  1  0  0  0  0
M  END
>  <REMARK>
 VINA RESULT:    -4.306      7.803     13.097
 INTER + INTRA:         -14.485
 INTER:                  -8.518
 INTRA:                  -5.967
 UNBOUND:                -6.277
 SMILES CC(=O)N[C@@H]1[C@@H](O)C[C@](O)(C(=O)O)O[C@H]1C(O)[C@H](O)CNC(=O)OCc1cn(CCNS(C)(=O)=O)nn1
 SMILES IDX 21 1 22 2 23 3 20 5 18 6 16 7 15 8 9 9 8 10 14 11 6 12 5 13
 SMILES IDX 10 14 11 16 12 17 13 18 7 20 4 22 2 23 1 25 3 26 17 27 19 29
 SMILES IDX 24 31 25 32 26 33 27 34 37 35 28 36 36 37 29 38 30 39 31 40
 SMILES IDX 32 42 34 43 35 44 33 45
 H PARENT 21 4 10 15 13 19 7 21 4 24 17 28 19 30 31 41
 Flexibility Score: inf
  4 active torsions:
  status: ('A' for Active; 'I' for Inactive)
    1  A    between atoms: CA   and  CB  
    2  A    between atoms: CB   and  CG  
    3  A    between atoms: CG   and  CD  
    4  A    between atoms: CD   and  CE  

>  <TORSDO>
F 18

>  <BEGIN_>
RES LYS A 131

$$$$
ligand_55_pose_13_2HRL.pdbqt
 OpenBabel07062320523D

  6  5  0  0  0  0  0  0  0  0999 V2000
   33.1930   34.6630    9.2900 C   0  0  0  0  0  0  0  0  0  0  0  0
   32.0600   35.3600   10.0340 C   0  0  0  0  0  0  0  0  0  0  0  0
   32.4700   35.9120   11.3750 C   0  0  0  0  0  0  0  0  0  0  0  0
   31.9450   37.3280   11.5560 C   0  0  0  0  0  0  0  0  0  0  0  0
   31.3890   37.5160   12.9550 C   0  0  0  0  0  0  0  0  0  0  0  0
   30.3260   38.5580   12.9740 N   0  0  0  0  0  0  0  0  0  0  0  0
  1  2  1  0  0  0  0
  2  3  1  0  0  0  0
  3  4  1  0  0  0  0
  4  5  1  0  0  0  0
  5  6  1  0  0  0  0
M  END
>  <EGIN_R>
ES LYS A 135

>  <REMARK>
  4 active torsions:
  status: ('A' for Active; 'I' for Inactive)
    5  A    between atoms: CA   and  CB  
    6  A    between atoms: CB   and  CG  
    7  A    between atoms: CG   and  CD  
    8  A    between atoms: CD   and  CE  

$$$$
