ligand_13_pose_2_2HRL.pdbqt
 OpenBabel07062320523D

 49 49  0  0  1  0  0  0  0  0999 V2000
   29.6350   31.7990   18.5140 N   0  0  0  0  0  0  0  0  0  0  0  0
   29.7050   30.7130   19.4160 C   0  0  0  0  0  0  0  0  0  0  0  0
   30.7710   30.1710   19.7240 O   0  0  0  0  0  0  0  0  0  0  0  0
   28.6370   32.1600   18.3560 H   0  0  0  0  0  0  0  0  0  0  0  0
   30.7310   32.4110   17.8370 C   0  0  0  0  0  0  0  0  0  0  0  0
   30.7460   32.3260   16.3490 C   0  0  2  0  0  0  0  0  0  0  0  0
   29.7470   33.1960   15.6740 C   0  0  1  0  0  0  0  0  0  0  0  0
   30.0790   33.6160   14.2670 C   0  0  2  0  0  0  0  0  0  0  0  0
   31.9660   34.9940   14.2120 C   0  0  2  0  0  0  0  0  0  0  0  0
   31.6080   35.6630   12.9030 C   0  0  0  0  0  0  0  0  0  0  0  0
   31.4660   33.7300   14.2180 O   0  0  0  0  0  0  0  0  0  0  0  0
   30.1580   35.4900   12.6380 C   0  0  1  0  0  0  0  0  0  0  0  0
   29.3930   34.8770   13.8240 C   0  0  1  0  0  0  0  0  0  0  0  0
   31.5320   35.8330   15.2220 O   0  0  0  0  0  0  0  0  0  0  0  0
   31.5080   36.7500   14.8630 H   0  0  0  0  0  0  0  0  0  0  0  0
   33.4440   34.9120   14.2500 C   0  0  0  0  0  0  0  0  0  0  0  0
   34.0430   35.3510   15.2540 O   0  0  0  0  0  0  0  0  0  0  0  0
   34.1640   34.3690   13.2160 O   0  0  0  0  0  0  0  0  0  0  0  0
   34.4360   33.3860   13.1990 H   0  0  0  0  0  0  0  0  0  0  0  0
   29.5140   36.6640   12.2590 O   0  0  0  0  0  0  0  0  0  0  0  0
   29.4380   37.3250   12.9770 H   0  0  0  0  0  0  0  0  0  0  0  0
   28.0760   34.6110   13.2860 N   0  0  0  0  0  0  0  0  0  0  0  0
   26.8620   34.8260   13.9630 C   0  0  0  0  0  0  0  0  0  0  0  0
   28.0280   34.2280   12.3170 H   0  0  0  0  0  0  0  0  0  0  0  0
   25.5220   34.5460   13.3930 C   0  0  0  0  0  0  0  0  0  0  0  0
   26.9340   35.2930   15.1420 O   0  0  0  0  0  0  0  0  0  0  0  0
   28.4750   32.6920   15.7950 O   0  0  0  0  0  0  0  0  0  0  0  0
   27.8900   33.1960   16.4140 H   0  0  0  0  0  0  0  0  0  0  0  0
   30.4170   31.0030   15.9890 O   0  0  0  0  0  0  0  0  0  0  0  0
   30.1140   30.9700   15.0340 H   0  0  0  0  0  0  0  0  0  0  0  0
   28.5310   30.1960   20.0120 O   0  0  0  0  0  0  0  0  0  0  0  0
   27.8020   29.1510   19.3970 C   0  0  0  0  0  0  0  0  0  0  0  0
   27.3140   29.6790   18.0950 C   0  0  0  0  0  0  0  0  0  0  0  0
   26.1450   30.3560   17.8380 C   0  0  0  0  0  0  0  0  0  0  0  0
   27.9360   29.5940   16.8860 N   0  0  0  0  0  0  0  0  0  0  0  0
   26.1200   30.6420   16.5070 N   0  0  0  0  0  0  0  0  0  0  0  0
   27.2230   30.1640   15.9580 N   0  0  0  0  0  0  0  0  0  0  0  0
   25.0910   31.3430   15.7740 C   0  0  0  0  0  0  0  0  0  0  0  0
   24.2800   30.4080   14.9790 C   0  0  0  0  0  0  0  0  0  0  0  0
   23.4740   29.6510   15.5610 O   0  0  0  0  0  0  0  0  0  0  0  0
   24.4420   30.4010   13.5930 O   0  0  0  0  0  0  0  0  0  0  0  0
   23.2370   30.2920   12.8290 C   0  0  0  0  0  0  0  0  0  0  0  0
   23.0870   28.8520   12.4080 C   0  0  0  0  0  0  0  0  0  0  0  0
   29.8670   25.5550   16.9770 C   0  0  0  0  0  0  0  0  0  0  0  0
   28.3450   25.7220   17.0260 C   0  0  0  0  0  0  0  0  0  0  0  0
   27.6010   24.4020   16.8970 C   0  0  0  0  0  0  0  0  0  0  0  0
   26.1850   24.4990   17.3920 C   0  0  0  0  0  0  0  0  0  0  0  0
   25.8500   23.2650   18.2230 C   0  0  0  0  0  0  0  0  0  0  0  0
   25.4310   23.6580   19.5900 N   0  0  0  0  0  0  0  0  0  0  0  0
  1  2  1  0  0  0  0
  2  3  2  0  0  0  0
  2 31  1  0  0  0  0
  4  1  1  0  0  0  0
  5  1  1  0  0  0  0
  6  5  1  1  0  0  0
  7 27  1  6  0  0  0
  7  6  1  0  0  0  0
  8  7  1  1  0  0  0
  9 11  1  0  0  0  0
  9 16  1  1  0  0  0
  9 14  1  0  0  0  0
 10  9  1  0  0  0  0
 11  8  1  0  0  0  0
 12 20  1  1  0  0  0
 12 10  1  0  0  0  0
 12 13  1  0  0  0  0
 13 22  1  6  0  0  0
 13  8  1  0  0  0  0
 15 14  1  0  0  0  0
 16 17  2  0  0  0  0
 18 16  1  0  0  0  0
 19 18  1  0  0  0  0
 20 21  1  0  0  0  0
 22 23  1  0  0  0  0
 23 26  2  0  0  0  0
 24 22  1  0  0  0  0
 25 23  1  0  0  0  0
 27 28  1  0  0  0  0
 29  6  1  0  0  0  0
 30 29  1  0  0  0  0
 32 31  1  0  0  0  0
 33 32  1  0  0  0  0
 34 33  2  0  0  0  0
 35 33  1  0  0  0  0
 36 34  1  0  0  0  0
 37 36  1  0  0  0  0
 37 35  2  0  0  0  0
 38 36  1  0  0  0  0
 39 40  2  0  0  0  0
 39 38  1  0  0  0  0
 41 39  1  0  0  0  0
 42 41  1  0  0  0  0
 43 42  1  0  0  0  0
 44 45  1  0  0  0  0
 46 45  1  0  0  0  0
 46 47  1  0  0  0  0
 47 48  1  0  0  0  0
 48 49  1  0  0  0  0
M  END
>  <REMARK>
 VINA RESULT:    -4.374      3.105      6.482
 INTER + INTRA:         -14.287
 INTER:                  -8.333
 INTRA:                  -5.954
 UNBOUND:                -5.949
 SMILES CCOC(=O)Cn1cc(COC(=O)NC[C@@H](O)C(O)[C@@H]2O[C@@](O)(C(=O)O)C[C@H](O)[C@H]2NC(C)=O)nn1
 SMILES IDX 14 1 12 2 13 3 15 5 16 6 18 7 20 8 22 9 27 10 21 11 28 12
 SMILES IDX 30 13 23 14 24 16 25 17 26 18 29 20 31 22 32 23 33 25 34 26
 SMILES IDX 19 27 17 29 11 31 10 32 9 33 8 34 35 35 7 36 36 37 6 38 4 39
 SMILES IDX 5 40 3 41 2 42 1 43
 H PARENT 14 4 23 15 26 19 29 21 31 24 19 28 17 30
 Flexibility Score: inf
  4 active torsions:
  status: ('A' for Active; 'I' for Inactive)
    1  A    between atoms: CA   and  CB  
    2  A    between atoms: CB   and  CG  
    3  A    between atoms: CG   and  CD  
    4  A    between atoms: CD   and  CE  

>  <TORSDO>
F 18

>  <BEGIN_>
RES LYS A 131

$$$$
ligand_13_pose_2_2HRL.pdbqt
 OpenBabel07062320523D

  6  5  0  0  0  0  0  0  0  0999 V2000
   33.1930   34.6630    9.2900 C   0  0  0  0  0  0  0  0  0  0  0  0
   32.0600   35.3600   10.0340 C   0  0  0  0  0  0  0  0  0  0  0  0
   30.7850   35.4570    9.2360 C   0  0  0  0  0  0  0  0  0  0  0  0
   30.1660   34.0810    9.0450 C   0  0  0  0  0  0  0  0  0  0  0  0
   28.7010   34.0970    9.4370 C   0  0  0  0  0  0  0  0  0  0  0  0
   27.8530   34.6070    8.3240 N   0  0  0  0  0  0  0  0  0  0  0  0
  1  2  1  0  0  0  0
  3  2  1  0  0  0  0
  4  3  1  0  0  0  0
  4  5  1  0  0  0  0
  6  5  1  0  0  0  0
M  END
>  <EGIN_R>
ES LYS A 135

>  <REMARK>
  4 active torsions:
  status: ('A' for Active; 'I' for Inactive)
    5  A    between atoms: CA   and  CB  
    6  A    between atoms: CB   and  CG  
    7  A    between atoms: CG   and  CD  
    8  A    between atoms: CD   and  CE  

$$$$
