ligand_93_pose_13_2HRL.pdbqt
 OpenBabel07062320523D

 50 51  0  0  1  0  0  0  0  0999 V2000
   32.0390   34.4330   14.4620 C   0  0  0  0  0  0  0  0  0  0  0  0
   31.9660   34.0440   15.9200 C   0  0  2  0  0  0  0  0  0  0  0  0
   31.1620   32.8040   16.0980 C   0  0  1  0  0  0  0  0  0  0  0  0
   29.8200   32.9790   16.7600 C   0  0  2  0  0  0  0  0  0  0  0  0
   29.4590   31.3590   18.4330 C   0  0  2  0  0  0  0  0  0  0  0  0
   28.1470   30.9530   17.7940 C   0  0  0  0  0  0  0  0  0  0  0  0
   29.9410   32.5560   18.0410 O   0  0  0  0  0  0  0  0  0  0  0  0
   28.3240   31.0850   16.3030 C   0  0  1  0  0  0  0  0  0  0  0  0
   28.6390   32.5280   15.9980 C   0  0  1  0  0  0  0  0  0  0  0  0
   30.3750   30.3710   18.0740 O   0  0  0  0  0  0  0  0  0  0  0  0
   31.1740   30.4960   18.6680 H   0  0  0  0  0  0  0  0  0  0  0  0
   29.2640   31.2650   19.9140 C   0  0  0  0  0  0  0  0  0  0  0  0
   28.9290   30.2090   20.4940 O   0  0  0  0  0  0  0  0  0  0  0  0
   29.4630   32.3990   20.6710 O   0  0  0  0  0  0  0  0  0  0  0  0
   28.9190   33.2550   20.5450 H   0  0  0  0  0  0  0  0  0  0  0  0
   29.3580   30.2180   15.9440 O   0  0  0  0  0  0  0  0  0  0  0  0
   29.4810   30.1680   14.9650 H   0  0  0  0  0  0  0  0  0  0  0  0
   27.4530   33.3060   16.4000 N   0  0  0  0  0  0  0  0  0  0  0  0
   26.3870   33.5620   15.5040 C   0  0  0  0  0  0  0  0  0  0  0  0
   27.3830   33.6840   17.3660 H   0  0  0  0  0  0  0  0  0  0  0  0
   25.2300   34.3510   15.9840 C   0  0  0  0  0  0  0  0  0  0  0  0
   26.4130   33.1300   14.3130 O   0  0  0  0  0  0  0  0  0  0  0  0
   31.1310   32.0130   14.9580 O   0  0  0  0  0  0  0  0  0  0  0  0
   31.1070   32.5650   14.1270 H   0  0  0  0  0  0  0  0  0  0  0  0
   31.3610   35.1500   16.5730 O   0  0  0  0  0  0  0  0  0  0  0  0
   31.8700   35.9760   16.3490 H   0  0  0  0  0  0  0  0  0  0  0  0
   30.8250   34.1640   13.7250 N   0  0  0  0  0  0  0  0  0  0  0  0
   29.8700   35.2170   13.5600 C   0  0  0  0  0  0  0  0  0  0  0  0
   30.6820   33.2190   13.3290 H   0  0  0  0  0  0  0  0  0  0  0  0
   30.1220   36.3260   14.0600 O   0  0  0  0  0  0  0  0  0  0  0  0
   28.7170   34.9330   12.8490 O   0  0  0  0  0  0  0  0  0  0  0  0
   27.7650   35.9490   12.6670 C   0  0  0  0  0  0  0  0  0  0  0  0
   27.0020   35.6490   11.4300 C   0  0  0  0  0  0  0  0  0  0  0  0
   25.8170   36.2980   11.0630 C   0  0  0  0  0  0  0  0  0  0  0  0
   27.2480   34.7620   10.4600 N   0  0  0  0  0  0  0  0  0  0  0  0
   25.4540   35.7430    9.9020 N   0  0  0  0  0  0  0  0  0  0  0  0
   26.3110   34.8140    9.5290 N   0  0  0  0  0  0  0  0  0  0  0  0
   24.3000   36.1010    9.1620 C   0  0  0  0  0  0  0  0  0  0  0  0
   23.1200   35.3880    9.3680 C   0  0  0  0  0  0  0  0  0  0  0  0
   24.3690   37.1330    8.2670 C   0  0  0  0  0  0  0  0  0  0  0  0
   21.9930   35.7290    8.6520 C   0  0  0  0  0  0  0  0  0  0  0  0
   23.2270   37.4590    7.5580 C   0  0  0  0  0  0  0  0  0  0  0  0
   26.1280   38.2380    7.9220 I   0  0  0  0  0  0  0  0  0  0  0  0
   22.0450   36.7660    7.7460 C   0  0  0  0  0  0  0  0  0  0  0  0
   29.8670   25.5550   16.9770 C   0  0  0  0  0  0  0  0  0  0  0  0
   28.3450   25.7220   17.0260 C   0  0  0  0  0  0  0  0  0  0  0  0
   27.5990   24.4270   16.7430 C   0  0  0  0  0  0  0  0  0  0  0  0
   26.9760   23.8500   17.9840 C   0  0  0  0  0  0  0  0  0  0  0  0
   25.6170   23.2500   17.6390 C   0  0  0  0  0  0  0  0  0  0  0  0
   24.7830   24.2370   16.9140 N   0  0  0  0  0  0  0  0  0  0  0  0
  2  1  1  6  0  0  0
  2  3  1  0  0  0  0
  2 25  1  0  0  0  0
  3 23  1  6  0  0  0
  4  3  1  6  0  0  0
  4  7  1  0  0  0  0
  5 10  1  6  0  0  0
  5 12  1  0  0  0  0
  6  5  1  0  0  0  0
  7  5  1  0  0  0  0
  8 16  1  1  0  0  0
  8  6  1  0  0  0  0
  9  8  1  0  0  0  0
  9 18  1  1  0  0  0
  9  4  1  0  0  0  0
 10 11  1  0  0  0  0
 12 13  2  0  0  0  0
 12 14  1  0  0  0  0
 15 14  1  0  0  0  0
 17 16  1  0  0  0  0
 18 20  1  0  0  0  0
 19 21  1  0  0  0  0
 19 18  1  0  0  0  0
 22 19  2  0  0  0  0
 24 23  1  0  0  0  0
 26 25  1  0  0  0  0
 27  1  1  0  0  0  0
 28 27  1  0  0  0  0
 28 30  2  0  0  0  0
 29 27  1  0  0  0  0
 31 28  1  0  0  0  0
 32 31  1  0  0  0  0
 33 32  1  0  0  0  0
 34 33  2  0  0  0  0
 35 33  1  0  0  0  0
 36 34  1  0  0  0  0
 37 36  1  0  0  0  0
 37 35  2  0  0  0  0
 38 39  1  0  0  0  0
 38 36  1  0  0  0  0
 40 38  2  0  0  0  0
 41 39  2  0  0  0  0
 42 44  2  0  0  0  0
 42 40  1  0  0  0  0
 43 40  1  0  0  0  0
 44 41  1  0  0  0  0
 45 46  1  0  0  0  0
 47 46  1  0  0  0  0
 47 48  1  0  0  0  0
 49 48  1  0  0  0  0
 50 49  1  0  0  0  0
M  END
>  <REMARK>
 VINA RESULT:    -4.233      3.132      4.789
 INTER + INTRA:         -13.611
 INTER:                  -8.975
 INTRA:                  -4.636
 UNBOUND:                -6.285
 SMILES CC(=O)N[C@@H]1[C@@H](O)C[C@](O)(C(=O)O)O[C@H]1C(O)[C@H](O)CNC(=O)OCc1cn(-c2ccccc2I)nn1
 SMILES IDX 20 1 18 2 16 3 15 4 9 5 8 6 14 7 6 8 5 9 10 10 11 12 12 13
 SMILES IDX 13 14 7 16 4 18 2 19 1 21 3 22 17 23 19 25 21 27 22 28 23 30
 SMILES IDX 24 31 25 32 26 33 27 34 37 35 28 36 36 37 29 38 30 39 34 40
 SMILES IDX 31 41 33 42 35 43 32 44
 H PARENT 10 11 13 15 7 17 4 20 17 24 19 26 21 29
 Flexibility Score: inf
  4 active torsions:
  status: ('A' for Active; 'I' for Inactive)
    1  A    between atoms: CA   and  CB  
    2  A    between atoms: CB   and  CG  
    3  A    between atoms: CG   and  CD  
    4  A    between atoms: CD   and  CE  

>  <TORSDO>
F 15

>  <BEGIN_>
RES LYS A 131

$$$$
ligand_93_pose_13_2HRL.pdbqt
 OpenBabel07062320523D

  6  5  0  0  0  0  0  0  0  0999 V2000
   33.1930   34.6630    9.2900 C   0  0  0  0  0  0  0  0  0  0  0  0
   32.0600   35.3600   10.0340 C   0  0  0  0  0  0  0  0  0  0  0  0
   30.7230   34.6850    9.8650 C   0  0  0  0  0  0  0  0  0  0  0  0
   30.3700   34.5560    8.3910 C   0  0  0  0  0  0  0  0  0  0  0  0
   29.6090   35.7800    7.9160 C   0  0  0  0  0  0  0  0  0  0  0  0
   28.6120   35.4190    6.8700 N   0  0  0  0  0  0  0  0  0  0  0  0
  1  2  1  0  0  0  0
  3  2  1  0  0  0  0
  4  3  1  0  0  0  0
  5  4  1  0  0  0  0
  6  5  1  0  0  0  0
M  END
>  <EGIN_R>
ES LYS A 135

>  <REMARK>
  4 active torsions:
  status: ('A' for Active; 'I' for Inactive)
    5  A    between atoms: CA   and  CB  
    6  A    between atoms: CB   and  CG  
    7  A    between atoms: CG   and  CD  
    8  A    between atoms: CD   and  CE  

$$$$
