ligand_91_pose_17_2HRL.pdbqt
 OpenBabel07062320523D

 57 60  0  0  1  0  0  0  0  0999 V2000
   27.2330   29.0940   17.0000 C   0  0  0  0  0  0  0  0  0  0  0  0
   28.2110   29.9970   16.2980 C   0  0  2  0  0  0  0  0  0  0  0  0
   27.6030   31.3640   16.2720 C   0  0  2  0  0  0  0  0  0  0  0  0
   28.6220   32.4940   16.3240 C   0  0  2  0  0  0  0  0  0  0  0  0
   30.7360   32.9300   15.6380 C   0  0  2  0  0  0  0  0  0  0  0  0
   31.2580   33.3770   16.9780 C   0  0  0  0  0  0  0  0  0  0  0  0
   29.7530   32.0000   15.7360 O   0  0  0  0  0  0  0  0  0  0  0  0
   30.3290   33.0410   18.1070 C   0  0  1  0  0  0  0  0  0  0  0  0
   28.8930   32.9480   17.7110 C   0  0  1  0  0  0  0  0  0  0  0  0
   31.8060   32.2630   14.9520 O   0  0  0  0  0  0  0  0  0  0  0  0
   32.3690   32.9340   14.4950 H   0  0  0  0  0  0  0  0  0  0  0  0
   30.4400   34.1040   14.7810 C   0  0  0  0  0  0  0  0  0  0  0  0
   30.2580   33.9950   13.5390 O   0  0  0  0  0  0  0  0  0  0  0  0
   30.3440   35.4070   15.2950 O   0  0  0  0  0  0  0  0  0  0  0  0
   31.1640   35.9950   15.3040 H   0  0  0  0  0  0  0  0  0  0  0  0
   30.7650   31.8540   18.7050 O   0  0  0  0  0  0  0  0  0  0  0  0
   31.1690   31.2440   18.0390 H   0  0  0  0  0  0  0  0  0  0  0  0
   28.2270   34.2060   18.0630 N   0  0  0  0  0  0  0  0  0  0  0  0
   27.2950   34.3060   19.1330 C   0  0  0  0  0  0  0  0  0  0  0  0
   28.4110   35.0890   17.5380 H   0  0  0  0  0  0  0  0  0  0  0  0
   26.6270   35.5990   19.4790 C   0  0  0  0  0  0  0  0  0  0  0  0
   27.0120   33.2890   19.8170 O   0  0  0  0  0  0  0  0  0  0  0  0
   26.7520   31.5060   17.3570 O   0  0  0  0  0  0  0  0  0  0  0  0
   26.0200   30.8490   17.2520 H   0  0  0  0  0  0  0  0  0  0  0  0
   28.5050   29.5040   15.0490 O   0  0  0  0  0  0  0  0  0  0  0  0
   29.0090   28.6440   15.1720 H   0  0  0  0  0  0  0  0  0  0  0  0
   27.7410   28.3350   18.0900 N   0  0  0  0  0  0  0  0  0  0  0  0
   28.1940   28.8790   19.3090 C   0  0  0  0  0  0  0  0  0  0  0  0
   27.8100   27.2560   18.0380 H   0  0  0  0  0  0  0  0  0  0  0  0
   28.1910   30.1090   19.5210 O   0  0  0  0  0  0  0  0  0  0  0  0
   28.6730   28.0690   20.3520 O   0  0  0  0  0  0  0  0  0  0  0  0
   28.2810   28.3220   21.7010 C   0  0  0  0  0  0  0  0  0  0  0  0
   29.4560   28.8790   22.4120 C   0  0  0  0  0  0  0  0  0  0  0  0
   30.7240   29.0520   21.8960 C   0  0  0  0  0  0  0  0  0  0  0  0
   29.5500   29.3280   23.6870 N   0  0  0  0  0  0  0  0  0  0  0  0
   31.5290   29.5830   22.8310 N   0  0  0  0  0  0  0  0  0  0  0  0
   30.7970   29.7430   23.9120 N   0  0  0  0  0  0  0  0  0  0  0  0
   32.8950   29.9160   22.7040 C   0  0  0  0  0  0  0  0  0  0  0  0
   33.8820   28.9880   23.0470 C   0  0  0  0  0  0  0  0  0  0  0  0
   33.3090   31.1520   22.2360 C   0  0  0  0  0  0  0  0  0  0  0  0
   33.5340   27.7400   23.5190 C   0  0  0  0  0  0  0  0  0  0  0  0
   35.2050   29.2780   22.9300 C   0  0  0  0  0  0  0  0  0  0  0  0
   34.6550   31.4250   22.1250 C   0  0  0  0  0  0  0  0  0  0  0  0
   32.3390   32.0630   21.9010 C   0  0  0  0  0  0  0  0  0  0  0  0
   34.4690   26.7900   23.8720 C   0  0  0  0  0  0  0  0  0  0  0  0
   36.1600   28.3290   23.2820 C   0  0  0  0  0  0  0  0  0  0  0  0
   35.5670   30.4920   22.4710 N   0  0  0  0  0  0  0  0  0  0  0  0
   35.0190   32.6660   21.6580 C   0  0  0  0  0  0  0  0  0  0  0  0
   32.7410   33.3150   21.4300 C   0  0  0  0  0  0  0  0  0  0  0  0
   35.8330   27.0780   23.7540 C   0  0  0  0  0  0  0  0  0  0  0  0
   34.0760   33.6300   21.3040 C   0  0  0  0  0  0  0  0  0  0  0  0
   29.8670   25.5550   16.9770 C   0  0  0  0  0  0  0  0  0  0  0  0
   28.3450   25.7220   17.0260 C   0  0  0  0  0  0  0  0  0  0  0  0
   27.6030   24.3960   16.9600 C   0  0  0  0  0  0  0  0  0  0  0  0
   26.5450   24.2850   18.0230 C   0  0  0  0  0  0  0  0  0  0  0  0
   25.1900   24.0380   17.3680 C   0  0  0  0  0  0  0  0  0  0  0  0
   24.8450   22.5980   17.4160 N   0  0  0  0  0  0  0  0  0  0  0  0
  1 27  1  0  0  0  0
  2  1  1  6  0  0  0
  3  2  1  0  0  0  0
  3 23  1  1  0  0  0
  4  3  1  1  0  0  0
  4  9  1  0  0  0  0
  5 12  1  6  0  0  0
  5  7  1  0  0  0  0
  5  6  1  0  0  0  0
  6  8  1  0  0  0  0
  7  4  1  0  0  0  0
  8 16  1  6  0  0  0
  9 18  1  6  0  0  0
  9  8  1  0  0  0  0
 10  5  1  0  0  0  0
 11 10  1  0  0  0  0
 12 14  1  0  0  0  0
 13 12  2  0  0  0  0
 14 15  1  0  0  0  0
 17 16  1  0  0  0  0
 18 19  1  0  0  0  0
 19 21  1  0  0  0  0
 19 22  2  0  0  0  0
 20 18  1  0  0  0  0
 24 23  1  0  0  0  0
 25 26  1  0  0  0  0
 25  2  1  0  0  0  0
 27 28  1  0  0  0  0
 28 30  2  0  0  0  0
 28 31  1  0  0  0  0
 29 27  1  0  0  0  0
 31 32  1  0  0  0  0
 32 33  1  0  0  0  0
 33 35  1  0  0  0  0
 34 33  2  0  0  0  0
 34 36  1  0  0  0  0
 35 37  2  0  0  0  0
 36 37  1  0  0  0  0
 38 36  1  0  0  0  0
 38 39  2  0  0  0  0
 39 41  1  0  0  0  0
 40 38  1  0  0  0  0
 41 45  2  0  0  0  0
 42 39  1  0  0  0  0
 42 46  1  0  0  0  0
 43 40  1  0  0  0  0
 43 47  1  0  0  0  0
 44 40  2  0  0  0  0
 46 50  2  0  0  0  0
 47 42  2  0  0  0  0
 48 43  2  0  0  0  0
 49 44  1  0  0  0  0
 50 45  1  0  0  0  0
 51 49  2  0  0  0  0
 51 48  1  0  0  0  0
 52 53  1  0  0  0  0
 54 53  1  0  0  0  0
 54 55  1  0  0  0  0
 56 57  1  0  0  0  0
 56 55  1  0  0  0  0
M  END
>  <REMARK>
 VINA RESULT:    -5.086      6.629     10.827
 INTER + INTRA:         -14.887
 INTER:                  -8.802
 INTRA:                  -6.085
 UNBOUND:                -6.084
 SMILES CC(=O)N[C@@H]1[C@@H](O)C[C@](O)(C(=O)O)O[C@H]1C(O)[C@H](O)CNC(=O)OCc1cn(-c2c3ccccc3nc3ccccc23)nn1
 SMILES IDX 20 1 18 2 16 3 15 4 9 5 8 6 14 7 6 8 5 9 10 10 11 12 12 13
 SMILES IDX 13 14 7 16 4 18 2 19 1 21 3 22 17 23 19 25 21 27 22 28 23 30
 SMILES IDX 24 31 25 32 26 33 27 34 44 35 28 36 43 37 29 38 30 39 42 40
 SMILES IDX 31 41 35 42 37 43 41 44 32 45 34 46 36 47 38 48 40 49 33 50
 SMILES IDX 39 51
 H PARENT 10 11 13 15 7 17 4 20 17 24 19 26 21 29
 Flexibility Score: inf
  4 active torsions:
  status: ('A' for Active; 'I' for Inactive)
    1  A    between atoms: CA   and  CB  
    2  A    between atoms: CB   and  CG  
    3  A    between atoms: CG   and  CD  
    4  A    between atoms: CD   and  CE  

>  <TORSDO>
F 15

>  <BEGIN_>
RES LYS A 131

$$$$
ligand_91_pose_17_2HRL.pdbqt
 OpenBabel07062320523D

  6  5  0  0  0  0  0  0  0  0999 V2000
   33.1930   34.6630    9.2900 C   0  0  0  0  0  0  0  0  0  0  0  0
   32.0600   35.3600   10.0340 C   0  0  0  0  0  0  0  0  0  0  0  0
   30.7940   35.4830    9.2260 C   0  0  0  0  0  0  0  0  0  0  0  0
   30.1360   34.1230    9.0490 C   0  0  0  0  0  0  0  0  0  0  0  0
   28.6460   34.2780    8.8120 C   0  0  0  0  0  0  0  0  0  0  0  0
   28.1760   35.6300    9.2240 N   0  0  0  0  0  0  0  0  0  0  0  0
  1  2  1  0  0  0  0
  3  2  1  0  0  0  0
  4  3  1  0  0  0  0
  5  4  1  0  0  0  0
  5  6  1  0  0  0  0
M  END
>  <EGIN_R>
ES LYS A 135

>  <REMARK>
  4 active torsions:
  status: ('A' for Active; 'I' for Inactive)
    5  A    between atoms: CA   and  CB  
    6  A    between atoms: CB   and  CG  
    7  A    between atoms: CG   and  CD  
    8  A    between atoms: CD   and  CE  

$$$$
