ligand_24_pose_9_2HRL.pdbqt
 OpenBabel07062320523D

 52 53  0  0  1  0  0  0  0  0999 V2000
   27.4100   30.5220   17.5840 N   0  0  0  0  0  0  0  0  0  0  0  0
   26.9160   29.2930   18.0710 C   0  0  0  0  0  0  0  0  0  0  0  0
   27.6480   28.4130   18.5860 O   0  0  0  0  0  0  0  0  0  0  0  0
   26.7100   31.1800   17.1680 H   0  0  0  0  0  0  0  0  0  0  0  0
   28.7820   30.9140   17.6250 C   0  0  0  0  0  0  0  0  0  0  0  0
   29.4970   30.8400   16.3190 C   0  0  2  0  0  0  0  0  0  0  0  0
   30.1120   32.1600   15.9130 C   0  0  1  0  0  0  0  0  0  0  0  0
   29.1440   33.2850   15.8200 C   0  0  2  0  0  0  0  0  0  0  0  0
   26.9880   33.8620   15.2070 C   0  0  2  0  0  0  0  0  0  0  0  0
   27.4470   35.1340   14.5520 C   0  0  0  0  0  0  0  0  0  0  0  0
   27.9180   32.8760   15.3020 O   0  0  0  0  0  0  0  0  0  0  0  0
   28.8640   35.5090   14.9310 C   0  0  1  0  0  0  0  0  0  0  0  0
   29.6950   34.2790   14.7910 C   0  0  1  0  0  0  0  0  0  0  0  0
   25.9680   33.3610   14.3560 O   0  0  0  0  0  0  0  0  0  0  0  0
   25.1650   33.8950   14.5720 H   0  0  0  0  0  0  0  0  0  0  0  0
   26.3200   34.2240   16.4800 C   0  0  0  0  0  0  0  0  0  0  0  0
   26.0780   33.3730   17.3850 O   0  0  0  0  0  0  0  0  0  0  0  0
   25.9190   35.5310   16.7520 O   0  0  0  0  0  0  0  0  0  0  0  0
   26.3130   36.3050   16.2530 H   0  0  0  0  0  0  0  0  0  0  0  0
   29.2950   36.5620   14.1480 O   0  0  0  0  0  0  0  0  0  0  0  0
   29.9130   37.1130   14.6520 H   0  0  0  0  0  0  0  0  0  0  0  0
   31.1020   34.4900   14.8970 N   0  0  0  0  0  0  0  0  0  0  0  0
   31.9560   34.8180   13.8350 C   0  0  0  0  0  0  0  0  0  0  0  0
   31.5390   34.3970   15.8540 H   0  0  0  0  0  0  0  0  0  0  0  0
   33.4050   35.0130   14.0770 C   0  0  0  0  0  0  0  0  0  0  0  0
   31.5060   34.9450   12.6920 O   0  0  0  0  0  0  0  0  0  0  0  0
   31.1450   32.4650   16.7710 O   0  0  0  0  0  0  0  0  0  0  0  0
   32.0370   32.5110   16.3610 H   0  0  0  0  0  0  0  0  0  0  0  0
   28.7570   30.2850   15.3170 O   0  0  0  0  0  0  0  0  0  0  0  0
   28.1990   31.0130   14.9080 H   0  0  0  0  0  0  0  0  0  0  0  0
   25.5380   29.0180   17.9850 O   0  0  0  0  0  0  0  0  0  0  0  0
   24.6890   30.0160   17.4670 C   0  0  0  0  0  0  0  0  0  0  0  0
   24.6420   30.0060   15.9940 C   0  0  0  0  0  0  0  0  0  0  0  0
   23.7560   29.2910   15.1830 C   0  0  0  0  0  0  0  0  0  0  0  0
   25.4360   30.6710   15.1370 N   0  0  0  0  0  0  0  0  0  0  0  0
   24.0430   29.5490   13.8990 N   0  0  0  0  0  0  0  0  0  0  0  0
   25.0630   30.3860   13.8990 N   0  0  0  0  0  0  0  0  0  0  0  0
   23.3880   29.0310   12.7270 C   0  0  0  0  0  0  0  0  0  0  0  0
   22.0630   29.6560   12.5250 C   0  0  0  0  0  0  0  0  0  0  0  0
   21.9010   31.0140   12.6760 C   0  0  0  0  0  0  0  0  0  0  0  0
   20.9880   28.8750   12.1860 C   0  0  0  0  0  0  0  0  0  0  0  0
   20.6490   31.5930   12.4830 C   0  0  0  0  0  0  0  0  0  0  0  0
   19.7300   29.4420   11.9900 C   0  0  0  0  0  0  0  0  0  0  0  0
   19.5690   30.7960   12.1390 C   0  0  0  0  0  0  0  0  0  0  0  0
   18.3220   31.3950   11.9510 O   0  0  0  0  0  0  0  0  0  0  0  0
   17.1670   30.5820   11.8390 C   0  0  0  0  0  0  0  0  0  0  0  0
   29.8670   25.5550   16.9770 C   0  0  0  0  0  0  0  0  0  0  0  0
   28.3450   25.7220   17.0260 C   0  0  0  0  0  0  0  0  0  0  0  0
   27.6010   24.4050   16.8700 C   0  0  0  0  0  0  0  0  0  0  0  0
   26.6330   24.1640   17.9950 C   0  0  0  0  0  0  0  0  0  0  0  0
   25.8810   25.4550   18.3050 C   0  0  0  0  0  0  0  0  0  0  0  0
   25.8350   25.6900   19.7670 N   0  0  0  0  0  0  0  0  0  0  0  0
  1  5  1  0  0  0  0
  1  2  1  0  0  0  0
  2  3  2  0  0  0  0
  4  1  1  0  0  0  0
  6  5  1  1  0  0  0
  7  6  1  0  0  0  0
  7 27  1  1  0  0  0
  8  7  1  6  0  0  0
  9 14  1  6  0  0  0
  9 11  1  0  0  0  0
  9 16  1  0  0  0  0
 10 12  1  0  0  0  0
 10  9  1  0  0  0  0
 11  8  1  0  0  0  0
 12 20  1  6  0  0  0
 13 22  1  1  0  0  0
 13 12  1  0  0  0  0
 13  8  1  0  0  0  0
 14 15  1  0  0  0  0
 16 18  1  0  0  0  0
 16 17  2  0  0  0  0
 19 18  1  0  0  0  0
 20 21  1  0  0  0  0
 22 24  1  0  0  0  0
 23 25  1  0  0  0  0
 23 22  1  0  0  0  0
 26 23  2  0  0  0  0
 28 27  1  0  0  0  0
 29  6  1  0  0  0  0
 30 29  1  0  0  0  0
 31  2  1  0  0  0  0
 32 31  1  0  0  0  0
 33 32  1  0  0  0  0
 34 33  2  0  0  0  0
 35 33  1  0  0  0  0
 36 34  1  0  0  0  0
 37 36  1  0  0  0  0
 37 35  2  0  0  0  0
 38 36  1  0  0  0  0
 39 40  1  0  0  0  0
 39 38  1  0  0  0  0
 41 39  2  0  0  0  0
 42 40  2  0  0  0  0
 43 44  2  0  0  0  0
 43 41  1  0  0  0  0
 44 42  1  0  0  0  0
 45 44  1  0  0  0  0
 46 45  1  0  0  0  0
 47 48  1  0  0  0  0
 49 48  1  0  0  0  0
 49 50  1  0  0  0  0
 50 51  1  0  0  0  0
 51 52  1  0  0  0  0
M  END
>  <REMARK>
 VINA RESULT:    -5.106      3.943      8.141
 INTER + INTRA:         -14.709
 INTER:                  -8.665
 INTRA:                  -6.044
 UNBOUND:                -5.276
 SMILES COc1ccc(Cn2cc(COC(=O)NC[C@@H](O)C(O)[C@@H]3O[C@@](O)(C(=O)O)C[C@H](O)[C@H]3NC(C)=O)nn2)cc1
 SMILES IDX 15 1 13 2 14 3 16 5 17 6 19 7 21 8 23 9 28 10 22 11 29 12
 SMILES IDX 31 13 24 14 25 16 26 17 27 18 30 20 32 22 33 23 34 25 35 26
 SMILES IDX 20 27 18 29 12 31 11 32 10 33 9 34 36 35 8 36 37 37 7 38
 SMILES IDX 6 39 5 40 38 41 4 42 39 43 3 44 2 45 1 46
 H PARENT 15 4 24 15 27 19 30 21 32 24 20 28 18 30
 Flexibility Score: inf
  4 active torsions:
  status: ('A' for Active; 'I' for Inactive)
    1  A    between atoms: CA   and  CB  
    2  A    between atoms: CB   and  CG  
    3  A    between atoms: CG   and  CD  
    4  A    between atoms: CD   and  CE  

>  <TORSDO>
F 17

>  <BEGIN_>
RES LYS A 131

$$$$
ligand_24_pose_9_2HRL.pdbqt
 OpenBabel07062320523D

  6  5  0  0  0  0  0  0  0  0999 V2000
   33.1930   34.6630    9.2900 C   0  0  0  0  0  0  0  0  0  0  0  0
   32.0600   35.3600   10.0340 C   0  0  0  0  0  0  0  0  0  0  0  0
   30.7710   35.4150    9.2550 C   0  0  0  0  0  0  0  0  0  0  0  0
   30.1940   34.0200    9.0740 C   0  0  0  0  0  0  0  0  0  0  0  0
   28.6800   34.0530    9.1730 C   0  0  0  0  0  0  0  0  0  0  0  0
   28.0850   34.8110    8.0380 N   0  0  0  0  0  0  0  0  0  0  0  0
  1  2  1  0  0  0  0
  3  2  1  0  0  0  0
  4  5  1  0  0  0  0
  4  3  1  0  0  0  0
  6  5  1  0  0  0  0
M  END
>  <EGIN_R>
ES LYS A 135

>  <REMARK>
  4 active torsions:
  status: ('A' for Active; 'I' for Inactive)
    5  A    between atoms: CA   and  CB  
    6  A    between atoms: CB   and  CG  
    7  A    between atoms: CG   and  CD  
    8  A    between atoms: CD   and  CE  

$$$$
