ligand_18_pose_15_2HRL.pdbqt
 OpenBabel07062320523D

 54 55  0  0  1  0  0  0  0  0999 V2000
   26.4410   29.6310   16.1650 N   0  0  0  0  0  0  0  0  0  0  0  0
   25.1240   29.5030   16.6520 C   0  0  0  0  0  0  0  0  0  0  0  0
   24.9270   29.6260   17.8860 O   0  0  0  0  0  0  0  0  0  0  0  0
   26.5820   29.5250   15.1360 H   0  0  0  0  0  0  0  0  0  0  0  0
   27.6080   29.9000   16.9820 C   0  0  0  0  0  0  0  0  0  0  0  0
   28.5460   30.8450   16.2840 C   0  0  2  0  0  0  0  0  0  0  0  0
   28.0510   32.2470   16.1730 C   0  0  1  0  0  0  0  0  0  0  0  0
   29.0520   33.3360   16.0790 C   0  0  2  0  0  0  0  0  0  0  0  0
   30.7240   34.0030   14.5840 C   0  0  2  0  0  0  0  0  0  0  0  0
   30.6690   35.2340   15.4710 C   0  0  0  0  0  0  0  0  0  0  0  0
   29.7610   33.0780   14.8590 O   0  0  0  0  0  0  0  0  0  0  0  0
   30.8160   34.7900   16.8840 C   0  0  1  0  0  0  0  0  0  0  0  0
   30.1010   33.4420   17.1090 C   0  0  1  0  0  0  0  0  0  0  0  0
   32.0250   33.4900   14.7430 O   0  0  0  0  0  0  0  0  0  0  0  0
   32.1770   32.7960   14.0440 H   0  0  0  0  0  0  0  0  0  0  0  0
   30.5750   34.3880   13.1560 C   0  0  0  0  0  0  0  0  0  0  0  0
   29.4340   34.6180   12.7070 O   0  0  0  0  0  0  0  0  0  0  0  0
   31.6700   34.4990   12.3040 O   0  0  0  0  0  0  0  0  0  0  0  0
   32.2930   35.2900   12.4770 H   0  0  0  0  0  0  0  0  0  0  0  0
   32.1210   34.7310   17.3210 O   0  0  0  0  0  0  0  0  0  0  0  0
   32.5020   33.8250   17.1970 H   0  0  0  0  0  0  0  0  0  0  0  0
   29.7290   33.4350   18.4750 N   0  0  0  0  0  0  0  0  0  0  0  0
   30.0580   32.3360   19.2960 C   0  0  0  0  0  0  0  0  0  0  0  0
   29.2180   34.2180   18.9030 H   0  0  0  0  0  0  0  0  0  0  0  0
   29.6860   32.2810   20.7430 C   0  0  0  0  0  0  0  0  0  0  0  0
   30.6930   31.3190   18.8560 O   0  0  0  0  0  0  0  0  0  0  0  0
   26.8950   32.4100   15.4230 O   0  0  0  0  0  0  0  0  0  0  0  0
   26.7390   31.7200   14.7660 H   0  0  0  0  0  0  0  0  0  0  0  0
   29.0780   30.3520   15.1000 O   0  0  0  0  0  0  0  0  0  0  0  0
   30.0510   30.2050   15.1430 H   0  0  0  0  0  0  0  0  0  0  0  0
   24.0320   29.2460   15.8110 O   0  0  0  0  0  0  0  0  0  0  0  0
   23.0100   30.2110   15.6420 C   0  0  0  0  0  0  0  0  0  0  0  0
   23.5760   31.3520   14.8710 C   0  0  0  0  0  0  0  0  0  0  0  0
   23.3230   32.6990   15.0320 C   0  0  0  0  0  0  0  0  0  0  0  0
   24.4530   31.2910   13.8560 N   0  0  0  0  0  0  0  0  0  0  0  0
   24.0370   33.3910   14.1310 N   0  0  0  0  0  0  0  0  0  0  0  0
   24.7160   32.5100   13.4280 N   0  0  0  0  0  0  0  0  0  0  0  0
   24.0290   34.8570   14.0040 C   0  0  0  0  0  0  0  0  0  0  0  0
   24.8150   35.1810   12.7900 C   0  0  0  0  0  0  0  0  0  0  0  0
   25.9670   35.7070   12.9380 O   0  0  0  0  0  0  0  0  0  0  0  0
   24.3920   34.9530   11.4600 N   0  0  0  0  0  0  0  0  0  0  0  0
   23.4560   34.5260   11.3400 H   0  0  0  0  0  0  0  0  0  0  0  0
   25.1940   35.2830   10.3040 C   0  0  0  0  0  0  0  0  0  0  0  0
   24.2760   36.0030    9.3360 C   0  0  0  0  0  0  0  0  0  0  0  0
   24.5370   37.0070    8.5070 C   0  0  0  0  0  0  0  0  0  0  0  0
   22.5960   35.6610    9.0840 S   0  0  0  0  0  0  0  0  0  0  0  0
   23.5680   37.5150    7.7160 C   0  0  0  0  0  0  0  0  0  0  0  0
   22.3060   36.9160    7.8390 C   0  0  0  0  0  0  0  0  0  0  0  0
   29.8670   25.5550   16.9770 C   0  0  0  0  0  0  0  0  0  0  0  0
   28.3450   25.7220   17.0260 C   0  0  0  0  0  0  0  0  0  0  0  0
   27.6020   24.3990   16.9230 C   0  0  0  0  0  0  0  0  0  0  0  0
   26.4580   24.3140   17.8950 C   0  0  0  0  0  0  0  0  0  0  0  0
   26.0260   25.7210   18.2960 C   0  0  0  0  0  0  0  0  0  0  0  0
   24.7080   26.0470   17.7030 N   0  0  0  0  0  0  0  0  0  0  0  0
  1  2  1  0  0  0  0
  1  5  1  0  0  0  0
  2  3  2  0  0  0  0
  4  1  1  0  0  0  0
  6  5  1  6  0  0  0
  7 27  1  6  0  0  0
  7  6  1  0  0  0  0
  8  7  1  1  0  0  0
  8 13  1  0  0  0  0
  9 16  1  6  0  0  0
  9 14  1  0  0  0  0
  9 11  1  0  0  0  0
  9 10  1  0  0  0  0
 10 12  1  0  0  0  0
 11  8  1  0  0  0  0
 12 13  1  0  0  0  0
 12 20  1  6  0  0  0
 13 22  1  1  0  0  0
 15 14  1  0  0  0  0
 17 16  2  0  0  0  0
 18 19  1  0  0  0  0
 18 16  1  0  0  0  0
 21 20  1  0  0  0  0
 22 24  1  0  0  0  0
 22 23  1  0  0  0  0
 23 25  1  0  0  0  0
 26 23  2  0  0  0  0
 28 27  1  0  0  0  0
 29 30  1  0  0  0  0
 29  6  1  0  0  0  0
 31  2  1  0  0  0  0
 32 31  1  0  0  0  0
 33 34  2  0  0  0  0
 33 32  1  0  0  0  0
 35 33  1  0  0  0  0
 36 34  1  0  0  0  0
 37 35  2  0  0  0  0
 37 36  1  0  0  0  0
 38 36  1  0  0  0  0
 39 40  2  0  0  0  0
 39 38  1  0  0  0  0
 41 39  1  0  0  0  0
 42 41  1  0  0  0  0
 43 41  1  0  0  0  0
 44 43  1  0  0  0  0
 45 44  2  0  0  0  0
 46 44  1  0  0  0  0
 47 48  2  0  0  0  0
 47 45  1  0  0  0  0
 48 46  1  0  0  0  0
 49 50  1  0  0  0  0
 51 50  1  0  0  0  0
 51 52  1  0  0  0  0
 52 53  1  0  0  0  0
 54 53  1  0  0  0  0
M  END
>  <REMARK>
 VINA RESULT:    -4.157      3.586      8.791
 INTER + INTRA:         -14.711
 INTER:                  -8.786
 INTRA:                  -5.926
 UNBOUND:                -6.788
 SMILES CC(=O)N[C@@H]1[C@@H](O)C[C@](O)(C(=O)O)O[C@H]1C(O)[C@H](O)CNC(=O)OCc1cn(CC(=O)NCc2cccs2)nn1
 SMILES IDX 21 1 22 2 23 3 20 5 18 6 16 7 15 8 9 9 8 10 14 11 6 12 5 13
 SMILES IDX 10 14 11 16 12 17 13 18 7 20 4 22 2 23 1 25 3 26 17 27 19 29
 SMILES IDX 24 31 25 32 26 33 27 34 40 35 28 36 39 37 29 38 30 39 31 40
 SMILES IDX 32 41 33 43 34 44 35 45 38 46 36 47 37 48
 H PARENT 21 4 10 15 13 19 7 21 4 24 17 28 19 30 32 42
 Flexibility Score: inf
  4 active torsions:
  status: ('A' for Active; 'I' for Inactive)
    1  A    between atoms: CA   and  CB  
    2  A    between atoms: CB   and  CG  
    3  A    between atoms: CG   and  CD  
    4  A    between atoms: CD   and  CE  

>  <TORSDO>
F 18

>  <BEGIN_>
RES LYS A 131

$$$$
ligand_18_pose_15_2HRL.pdbqt
 OpenBabel07062320523D

  6  5  0  0  0  0  0  0  0  0999 V2000
   33.1930   34.6630    9.2900 C   0  0  0  0  0  0  0  0  0  0  0  0
   32.0600   35.3600   10.0340 C   0  0  0  0  0  0  0  0  0  0  0  0
   30.8060   35.5170    9.2130 C   0  0  0  0  0  0  0  0  0  0  0  0
   30.0620   34.1940    9.1110 C   0  0  0  0  0  0  0  0  0  0  0  0
   28.6900   34.4000    8.5000 C   0  0  0  0  0  0  0  0  0  0  0  0
   28.3330   35.8460    8.4590 N   0  0  0  0  0  0  0  0  0  0  0  0
  1  2  1  0  0  0  0
  3  2  1  0  0  0  0
  4  3  1  0  0  0  0
  5  4  1  0  0  0  0
  6  5  1  0  0  0  0
M  END
>  <EGIN_R>
ES LYS A 135

>  <REMARK>
  4 active torsions:
  status: ('A' for Active; 'I' for Inactive)
    5  A    between atoms: CA   and  CB  
    6  A    between atoms: CB   and  CG  
    7  A    between atoms: CG   and  CD  
    8  A    between atoms: CD   and  CE  

$$$$
