ligand_61_pose_4_2HRL.pdbqt
 OpenBabel07062320523D

 49 50  0  0  1  0  0  0  0  0999 V2000
   25.3140   28.7870   17.5090 N   0  0  0  0  0  0  0  0  0  0  0  0
   24.6390   30.0280   17.4830 C   0  0  0  0  0  0  0  0  0  0  0  0
   24.1870   30.4990   18.5520 O   0  0  0  0  0  0  0  0  0  0  0  0
   25.6810   28.4370   16.5680 H   0  0  0  0  0  0  0  0  0  0  0  0
   25.5290   27.9920   18.6980 C   0  0  0  0  0  0  0  0  0  0  0  0
   26.9550   28.1300   19.1240 C   0  0  2  0  0  0  0  0  0  0  0  0
   27.3950   29.5600   19.3550 C   0  0  2  0  0  0  0  0  0  0  0  0
   28.8490   29.5740   19.6880 C   0  0  2  0  0  0  0  0  0  0  0  0
   30.4550   28.7310   21.1210 C   0  0  2  0  0  0  0  0  0  0  0  0
   31.3550   29.6780   20.3640 C   0  0  0  0  0  0  0  0  0  0  0  0
   29.2460   28.5210   20.4880 O   0  0  0  0  0  0  0  0  0  0  0  0
   30.7430   31.0220   20.1430 C   0  0  1  0  0  0  0  0  0  0  0  0
   29.2460   30.9080   20.3370 C   0  0  1  0  0  0  0  0  0  0  0  0
   30.3150   29.1020   22.4590 O   0  0  0  0  0  0  0  0  0  0  0  0
   29.8030   29.9400   22.5200 H   0  0  0  0  0  0  0  0  0  0  0  0
   31.1650   27.4010   21.1280 C   0  0  0  0  0  0  0  0  0  0  0  0
   31.1110   26.6100   22.0780 O   0  0  0  0  0  0  0  0  0  0  0  0
   31.9220   27.0380   20.0150 O   0  0  0  0  0  0  0  0  0  0  0  0
   32.0940   26.0750   19.7530 H   0  0  0  0  0  0  0  0  0  0  0  0
   31.3020   32.0270   20.9010 O   0  0  0  0  0  0  0  0  0  0  0  0
   32.2940   32.1040   20.7470 H   0  0  0  0  0  0  0  0  0  0  0  0
   28.5200   31.9890   19.7230 N   0  0  0  0  0  0  0  0  0  0  0  0
   28.1890   33.1680   20.4670 C   0  0  0  0  0  0  0  0  0  0  0  0
   28.2110   31.9580   18.7270 H   0  0  0  0  0  0  0  0  0  0  0  0
   27.4550   34.3080   19.9140 C   0  0  0  0  0  0  0  0  0  0  0  0
   28.5590   33.2290   21.6870 O   0  0  0  0  0  0  0  0  0  0  0  0
   26.6510   30.0300   20.4390 O   0  0  0  0  0  0  0  0  0  0  0  0
   26.3060   30.9340   20.2350 H   0  0  0  0  0  0  0  0  0  0  0  0
   27.7540   27.6360   18.0810 O   0  0  0  0  0  0  0  0  0  0  0  0
   27.8010   26.6560   18.0700 H   0  0  0  0  0  0  0  0  0  0  0  0
   24.4870   30.7130   16.2600 O   0  0  0  0  0  0  0  0  0  0  0  0
   25.5010   30.4590   15.2970 C   0  0  0  0  0  0  0  0  0  0  0  0
   26.7550   31.0470   15.7890 C   0  0  0  0  0  0  0  0  0  0  0  0
   28.0130   30.4690   15.8170 C   0  0  0  0  0  0  0  0  0  0  0  0
   26.8970   32.2850   16.3090 N   0  0  0  0  0  0  0  0  0  0  0  0
   28.8380   31.3810   16.3490 N   0  0  0  0  0  0  0  0  0  0  0  0
   28.1710   32.4790   16.6480 N   0  0  0  0  0  0  0  0  0  0  0  0
   30.2460   31.1940   16.5650 C   0  0  0  0  0  0  0  0  0  0  0  0
   31.0010   32.5040   16.3390 C   0  0  0  0  0  0  0  0  0  0  0  0
   31.2480   33.3520   17.3310 C   0  0  0  0  0  0  0  0  0  0  0  0
   31.4270   32.7890   15.0620 C   0  0  0  0  0  0  0  0  0  0  0  0
   31.9290   34.5130   17.0830 C   0  0  0  0  0  0  0  0  0  0  0  0
   32.2480   34.4040   15.3100 S   0  0  0  0  0  0  0  0  0  0  0  0
   29.8670   25.5550   16.9770 C   0  0  0  0  0  0  0  0  0  0  0  0
   28.3450   25.7220   17.0260 C   0  0  0  0  0  0  0  0  0  0  0  0
   27.6030   24.3960   16.9690 C   0  0  0  0  0  0  0  0  0  0  0  0
   26.4650   24.3410   17.9500 C   0  0  0  0  0  0  0  0  0  0  0  0
   25.4060   23.3640   17.4470 C   0  0  0  0  0  0  0  0  0  0  0  0
   24.8880   22.5400   18.5650 N   0  0  0  0  0  0  0  0  0  0  0  0
  1  5  1  0  0  0  0
  2  1  1  0  0  0  0
  2  3  2  0  0  0  0
  4  1  1  0  0  0  0
  6  5  1  6  0  0  0
  6  7  1  0  0  0  0
  7 27  1  1  0  0  0
  8  7  1  1  0  0  0
  8 13  1  0  0  0  0
  8 11  1  0  0  0  0
  9 16  1  1  0  0  0
  9 14  1  0  0  0  0
 10  9  1  0  0  0  0
 11  9  1  0  0  0  0
 12 13  1  0  0  0  0
 12 10  1  0  0  0  0
 12 20  1  1  0  0  0
 13 22  1  6  0  0  0
 14 15  1  0  0  0  0
 16 17  2  0  0  0  0
 18 16  1  0  0  0  0
 19 18  1  0  0  0  0
 21 20  1  0  0  0  0
 22 23  1  0  0  0  0
 23 26  2  0  0  0  0
 24 22  1  0  0  0  0
 25 23  1  0  0  0  0
 28 27  1  0  0  0  0
 29  6  1  0  0  0  0
 30 29  1  0  0  0  0
 31  2  1  0  0  0  0
 32 33  1  0  0  0  0
 32 31  1  0  0  0  0
 33 34  2  0  0  0  0
 33 35  1  0  0  0  0
 34 36  1  0  0  0  0
 35 37  2  0  0  0  0
 36 38  1  0  0  0  0
 36 37  1  0  0  0  0
 39 38  1  0  0  0  0
 39 40  1  0  0  0  0
 41 43  1  0  0  0  0
 41 39  2  0  0  0  0
 42 40  2  0  0  0  0
 43 42  1  0  0  0  0
 44 45  1  0  0  0  0
 46 45  1  0  0  0  0
 46 47  1  0  0  0  0
 48 47  1  0  0  0  0
 48 49  1  0  0  0  0
M  END
>  <REMARK>
 VINA RESULT:    -4.395      6.251     10.789
 INTER + INTRA:         -13.999
 INTER:                  -7.801
 INTRA:                  -6.198
 UNBOUND:                -6.136
 SMILES CC(=O)N[C@@H]1[C@@H](O)C[C@](O)(C(=O)O)O[C@H]1C(O)[C@H](O)CNC(=O)OCc1cn(Cc2ccsc2)nn1
 SMILES IDX 21 1 22 2 23 3 20 5 18 6 16 7 15 8 9 9 8 10 14 11 6 12 5 13
 SMILES IDX 10 14 11 16 12 17 13 18 7 20 4 22 2 23 1 25 3 26 17 27 19 29
 SMILES IDX 24 31 25 32 26 33 27 34 36 35 28 36 35 37 29 38 30 39 31 40
 SMILES IDX 34 41 32 42 33 43
 H PARENT 21 4 10 15 13 19 7 21 4 24 17 28 19 30
 Flexibility Score: inf
  4 active torsions:
  status: ('A' for Active; 'I' for Inactive)
    1  A    between atoms: CA   and  CB  
    2  A    between atoms: CB   and  CG  
    3  A    between atoms: CG   and  CD  
    4  A    between atoms: CD   and  CE  

>  <TORSDO>
F 16

>  <BEGIN_>
RES LYS A 131

$$$$
ligand_61_pose_4_2HRL.pdbqt
 OpenBabel07062320523D

  6  5  0  0  0  0  0  0  0  0999 V2000
   33.1930   34.6630    9.2900 C   0  0  0  0  0  0  0  0  0  0  0  0
   32.0600   35.3600   10.0340 C   0  0  0  0  0  0  0  0  0  0  0  0
   30.7340   34.6540    9.9110 C   0  0  0  0  0  0  0  0  0  0  0  0
   30.3330   34.5150    8.4510 C   0  0  0  0  0  0  0  0  0  0  0  0
   28.8230   34.5380    8.3090 C   0  0  0  0  0  0  0  0  0  0  0  0
   28.1680   33.8060    9.4270 N   0  0  0  0  0  0  0  0  0  0  0  0
  1  2  1  0  0  0  0
  3  2  1  0  0  0  0
  4  3  1  0  0  0  0
  5  4  1  0  0  0  0
  5  6  1  0  0  0  0
M  END
>  <EGIN_R>
ES LYS A 135

>  <REMARK>
  4 active torsions:
  status: ('A' for Active; 'I' for Inactive)
    5  A    between atoms: CA   and  CB  
    6  A    between atoms: CB   and  CG  
    7  A    between atoms: CG   and  CD  
    8  A    between atoms: CD   and  CE  

$$$$
