ligand_61_pose_16_2HRL.pdbqt
 OpenBabel07062320523D

 49 50  0  0  1  0  0  0  0  0999 V2000
   37.5250   32.7860   20.5780 N   0  0  0  0  0  0  0  0  0  0  0  0
   36.7630   32.0290   21.4970 C   0  0  0  0  0  0  0  0  0  0  0  0
   37.3550   31.3360   22.3550 O   0  0  0  0  0  0  0  0  0  0  0  0
   36.9660   33.3600   19.8720 H   0  0  0  0  0  0  0  0  0  0  0  0
   38.9700   32.8240   20.5440 C   0  0  0  0  0  0  0  0  0  0  0  0
   39.4180   33.0540   19.1370 C   0  0  2  0  0  0  0  0  0  0  0  0
   39.4290   34.5100   18.7230 C   0  0  2  0  0  0  0  0  0  0  0  0
   38.4310   34.7130   17.6320 C   0  0  2  0  0  0  0  0  0  0  0  0
   38.1800   35.1540   15.3770 C   0  0  2  0  0  0  0  0  0  0  0  0
   36.7160   35.1920   15.7430 C   0  0  0  0  0  0  0  0  0  0  0  0
   38.9630   34.5890   16.3640 O   0  0  0  0  0  0  0  0  0  0  0  0
   36.4420   35.9500   16.9990 C   0  0  1  0  0  0  0  0  0  0  0  0
   37.7330   36.0730   17.7800 C   0  0  1  0  0  0  0  0  0  0  0  0
   38.6460   36.4010   14.9570 O   0  0  0  0  0  0  0  0  0  0  0  0
   37.9480   36.8590   14.4350 H   0  0  0  0  0  0  0  0  0  0  0  0
   38.2850   34.2440   14.1800 C   0  0  0  0  0  0  0  0  0  0  0  0
   38.7430   34.6100   13.0900 O   0  0  0  0  0  0  0  0  0  0  0  0
   37.8470   32.9260   14.2980 O   0  0  0  0  0  0  0  0  0  0  0  0
   38.4790   32.1380   14.3640 H   0  0  0  0  0  0  0  0  0  0  0  0
   35.8230   37.1650   16.8020 O   0  0  0  0  0  0  0  0  0  0  0  0
   36.3340   37.9190   17.2310 H   0  0  0  0  0  0  0  0  0  0  0  0
   37.5170   36.3670   19.1720 N   0  0  0  0  0  0  0  0  0  0  0  0
   37.5240   37.7180   19.6480 C   0  0  0  0  0  0  0  0  0  0  0  0
   37.3510   35.6180   19.8800 H   0  0  0  0  0  0  0  0  0  0  0  0
   37.3130   38.0970   21.0470 C   0  0  0  0  0  0  0  0  0  0  0  0
   37.7250   38.6490   18.8000 O   0  0  0  0  0  0  0  0  0  0  0  0
   40.7160   34.7750   18.2510 O   0  0  0  0  0  0  0  0  0  0  0  0
   41.1130   33.9430   17.8940 H   0  0  0  0  0  0  0  0  0  0  0  0
   38.4970   32.4120   18.2940 O   0  0  0  0  0  0  0  0  0  0  0  0
   37.8470   31.8660   18.7870 H   0  0  0  0  0  0  0  0  0  0  0  0
   35.3550   32.0690   21.4330 O   0  0  0  0  0  0  0  0  0  0  0  0
   34.7540   33.1960   22.0560 C   0  0  0  0  0  0  0  0  0  0  0  0
   34.3190   34.1220   21.0010 C   0  0  0  0  0  0  0  0  0  0  0  0
   33.0630   34.2280   20.4260 C   0  0  0  0  0  0  0  0  0  0  0  0
   35.0900   35.0520   20.3980 N   0  0  0  0  0  0  0  0  0  0  0  0
   33.1440   35.2070   19.5150 N   0  0  0  0  0  0  0  0  0  0  0  0
   34.3640   35.7090   19.4930 N   0  0  0  0  0  0  0  0  0  0  0  0
   32.0620   35.6490   18.6810 C   0  0  0  0  0  0  0  0  0  0  0  0
   32.0990   34.9350   17.3310 C   0  0  0  0  0  0  0  0  0  0  0  0
   31.5240   33.7510   17.1460 C   0  0  0  0  0  0  0  0  0  0  0  0
   32.7520   35.5570   16.2910 C   0  0  0  0  0  0  0  0  0  0  0  0
   31.5810   33.1490   15.9190 C   0  0  0  0  0  0  0  0  0  0  0  0
   32.5200   34.3420   14.9430 S   0  0  0  0  0  0  0  0  0  0  0  0
   29.8670   25.5550   16.9770 C   0  0  0  0  0  0  0  0  0  0  0  0
   28.3450   25.7220   17.0260 C   0  0  0  0  0  0  0  0  0  0  0  0
   27.6020   24.3990   16.9190 C   0  0  0  0  0  0  0  0  0  0  0  0
   26.1570   24.5280   17.3140 C   0  0  0  0  0  0  0  0  0  0  0  0
   25.6980   23.2420   17.9930 C   0  0  0  0  0  0  0  0  0  0  0  0
   24.4880   22.7060   17.3260 N   0  0  0  0  0  0  0  0  0  0  0  0
  1  2  1  0  0  0  0
  2  3  2  0  0  0  0
  4  1  1  0  0  0  0
  5  1  1  0  0  0  0
  6  5  1  1  0  0  0
  7 27  1  6  0  0  0
  7  6  1  0  0  0  0
  8 13  1  0  0  0  0
  8  7  1  1  0  0  0
  9 16  1  6  0  0  0
  9 10  1  0  0  0  0
  9 11  1  0  0  0  0
 10 12  1  0  0  0  0
 11  8  1  0  0  0  0
 12 20  1  6  0  0  0
 12 13  1  0  0  0  0
 13 22  1  1  0  0  0
 14  9  1  0  0  0  0
 15 14  1  0  0  0  0
 16 18  1  0  0  0  0
 17 16  2  0  0  0  0
 18 19  1  0  0  0  0
 20 21  1  0  0  0  0
 22 23  1  0  0  0  0
 22 24  1  0  0  0  0
 23 25  1  0  0  0  0
 26 23  2  0  0  0  0
 28 27  1  0  0  0  0
 29 30  1  0  0  0  0
 29  6  1  0  0  0  0
 31  2  1  0  0  0  0
 31 32  1  0  0  0  0
 33 32  1  0  0  0  0
 34 33  2  0  0  0  0
 35 33  1  0  0  0  0
 36 34  1  0  0  0  0
 37 36  1  0  0  0  0
 37 35  2  0  0  0  0
 38 36  1  0  0  0  0
 39 38  1  0  0  0  0
 40 39  1  0  0  0  0
 41 39  2  0  0  0  0
 42 40  2  0  0  0  0
 43 42  1  0  0  0  0
 43 41  1  0  0  0  0
 44 45  1  0  0  0  0
 46 45  1  0  0  0  0
 46 47  1  0  0  0  0
 47 48  1  0  0  0  0
 49 48  1  0  0  0  0
M  END
>  <REMARK>
 VINA RESULT:    -4.072      7.366     11.774
 INTER + INTRA:         -13.422
 INTER:                  -7.182
 INTRA:                  -6.240
 UNBOUND:                -6.136
 SMILES CC(=O)N[C@@H]1[C@@H](O)C[C@](O)(C(=O)O)O[C@H]1C(O)[C@H](O)CNC(=O)OCc1cn(Cc2ccsc2)nn1
 SMILES IDX 21 1 22 2 23 3 20 5 18 6 16 7 15 8 9 9 8 10 14 11 6 12 5 13
 SMILES IDX 10 14 11 16 12 17 13 18 7 20 4 22 2 23 1 25 3 26 17 27 19 29
 SMILES IDX 24 31 25 32 26 33 27 34 36 35 28 36 35 37 29 38 30 39 31 40
 SMILES IDX 34 41 32 42 33 43
 H PARENT 21 4 10 15 13 19 7 21 4 24 17 28 19 30
 Flexibility Score: inf
  4 active torsions:
  status: ('A' for Active; 'I' for Inactive)
    1  A    between atoms: CA   and  CB  
    2  A    between atoms: CB   and  CG  
    3  A    between atoms: CG   and  CD  
    4  A    between atoms: CD   and  CE  

>  <TORSDO>
F 16

>  <BEGIN_>
RES LYS A 131

$$$$
ligand_61_pose_16_2HRL.pdbqt
 OpenBabel07062320523D

  6  5  0  0  0  0  0  0  0  0999 V2000
   33.1930   34.6630    9.2900 C   0  0  0  0  0  0  0  0  0  0  0  0
   32.0600   35.3600   10.0340 C   0  0  0  0  0  0  0  0  0  0  0  0
   30.7060   34.7510    9.7770 C   0  0  0  0  0  0  0  0  0  0  0  0
   30.5000   34.5070    8.2900 C   0  0  0  0  0  0  0  0  0  0  0  0
   29.0920   34.8910    7.8770 C   0  0  0  0  0  0  0  0  0  0  0  0
   28.8270   36.3310    8.1500 N   0  0  0  0  0  0  0  0  0  0  0  0
  1  2  1  0  0  0  0
  3  2  1  0  0  0  0
  4  3  1  0  0  0  0
  5  6  1  0  0  0  0
  5  4  1  0  0  0  0
M  END
>  <EGIN_R>
ES LYS A 135

>  <REMARK>
  4 active torsions:
  status: ('A' for Active; 'I' for Inactive)
    5  A    between atoms: CA   and  CB  
    6  A    between atoms: CB   and  CG  
    7  A    between atoms: CG   and  CD  
    8  A    between atoms: CD   and  CE  

$$$$
