ligand_4_pose_13_2HRL.pdbqt
 OpenBabel07062320523D

 52 53  0  0  1  0  0  0  0  0999 V2000
   24.3330   34.4080   14.3180 N   0  0  0  0  0  0  0  0  0  0  0  0
   23.7260   33.3200   13.6620 C   0  0  0  0  0  0  0  0  0  0  0  0
   23.6520   32.1970   14.2010 O   0  0  0  0  0  0  0  0  0  0  0  0
   24.3550   35.3370   13.8180 H   0  0  0  0  0  0  0  0  0  0  0  0
   24.9040   34.2940   15.6150 C   0  0  0  0  0  0  0  0  0  0  0  0
   26.4000   33.9840   15.6240 C   0  0  2  0  0  0  0  0  0  0  0  0
   26.4790   32.6660   16.3980 C   0  0  2  0  0  0  0  0  0  0  0  0
   27.7570   32.5090   17.1570 C   0  0  2  0  0  0  0  0  0  0  0  0
   29.8240   31.7510   16.4270 C   0  0  2  0  0  0  0  0  0  0  0  0
   30.1150   31.1280   17.7470 C   0  0  0  0  0  0  0  0  0  0  0  0
   28.8330   32.6830   16.3540 O   0  0  0  0  0  0  0  0  0  0  0  0
   28.9120   30.8710   18.6280 C   0  0  1  0  0  0  0  0  0  0  0  0
   27.7020   31.1210   17.7770 C   0  0  1  0  0  0  0  0  0  0  0  0
   29.6560   30.7350   15.4500 O   0  0  0  0  0  0  0  0  0  0  0  0
   29.5560   31.0810   14.5450 H   0  0  0  0  0  0  0  0  0  0  0  0
   31.0810   32.4790   16.0200 C   0  0  0  0  0  0  0  0  0  0  0  0
   31.5810   33.2900   16.8280 O   0  0  0  0  0  0  0  0  0  0  0  0
   31.7070   32.2800   14.7970 O   0  0  0  0  0  0  0  0  0  0  0  0
   32.7030   32.1020   14.6830 H   0  0  0  0  0  0  0  0  0  0  0  0
   28.9340   29.4930   19.0080 O   0  0  0  0  0  0  0  0  0  0  0  0
   29.5510   29.3480   19.7640 H   0  0  0  0  0  0  0  0  0  0  0  0
   26.4260   30.8650   18.3210 N   0  0  0  0  0  0  0  0  0  0  0  0
   25.7300   29.6350   18.2300 C   0  0  0  0  0  0  0  0  0  0  0  0
   25.9180   31.6530   18.8510 H   0  0  0  0  0  0  0  0  0  0  0  0
   24.4010   29.3910   18.8030 C   0  0  0  0  0  0  0  0  0  0  0  0
   26.3500   28.6920   17.5770 O   0  0  0  0  0  0  0  0  0  0  0  0
   26.2820   31.6730   15.4340 O   0  0  0  0  0  0  0  0  0  0  0  0
   26.5830   30.8150   15.8340 H   0  0  0  0  0  0  0  0  0  0  0  0
   27.1610   34.9270   16.2330 O   0  0  0  0  0  0  0  0  0  0  0  0
   26.9160   35.8260   16.0230 H   0  0  0  0  0  0  0  0  0  0  0  0
   23.1860   33.4690   12.3830 O   0  0  0  0  0  0  0  0  0  0  0  0
   22.4600   34.6580   12.1100 C   0  0  0  0  0  0  0  0  0  0  0  0
   23.0330   35.1920   10.8490 C   0  0  0  0  0  0  0  0  0  0  0  0
   24.4030   35.4000   10.6450 C   0  0  0  0  0  0  0  0  0  0  0  0
   22.4180   35.4590    9.6870 N   0  0  0  0  0  0  0  0  0  0  0  0
   24.5190   35.7730    9.3560 N   0  0  0  0  0  0  0  0  0  0  0  0
   23.3570   35.7920    8.8420 N   0  0  0  0  0  0  0  0  0  0  0  0
   25.7600   35.9530    8.7010 C   0  0  0  0  0  0  0  0  0  0  0  0
   26.1250   37.1650    8.2520 C   0  0  0  0  0  0  0  0  0  0  0  0
   26.5200   34.8200    8.3760 C   0  0  0  0  0  0  0  0  0  0  0  0
   27.2670   37.2790    7.4600 C   0  0  0  0  0  0  0  0  0  0  0  0
   27.6250   34.9130    7.6130 C   0  0  0  0  0  0  0  0  0  0  0  0
   28.0290   36.1500    7.1320 C   0  0  0  0  0  0  0  0  0  0  0  0
   25.4380   38.3660    8.6830 C   0  0  0  0  0  0  0  0  0  0  0  0
   24.8490   39.1530    7.5230 C   0  0  0  0  0  0  0  0  0  0  0  0
   26.6000   39.3700    9.1100 C   0  0  0  0  0  0  0  0  0  0  0  0
   29.8670   25.5550   16.9770 C   0  0  0  0  0  0  0  0  0  0  0  0
   28.3450   25.7220   17.0260 C   0  0  0  0  0  0  0  0  0  0  0  0
   27.6010   24.4020   16.8970 C   0  0  0  0  0  0  0  0  0  0  0  0
   26.5630   24.2290   17.9710 C   0  0  0  0  0  0  0  0  0  0  0  0
   25.1780   24.4870   17.3860 C   0  0  0  0  0  0  0  0  0  0  0  0
   24.1510   24.4590   18.4540 N   0  0  0  0  0  0  0  0  0  0  0  0
  1  5  1  0  0  0  0
  2  3  2  0  0  0  0
  2  1  1  0  0  0  0
  4  1  1  0  0  0  0
  6  5  1  1  0  0  0
  6 29  1  0  0  0  0
  6  7  1  0  0  0  0
  7 27  1  6  0  0  0
  8  7  1  6  0  0  0
  8 13  1  0  0  0  0
  9 14  1  6  0  0  0
  9 10  1  0  0  0  0
 10 12  1  0  0  0  0
 11  9  1  0  0  0  0
 11  8  1  0  0  0  0
 12 20  1  6  0  0  0
 13 22  1  1  0  0  0
 13 12  1  0  0  0  0
 15 14  1  0  0  0  0
 16  9  1  0  0  0  0
 16 17  2  0  0  0  0
 18 16  1  0  0  0  0
 19 18  1  0  0  0  0
 20 21  1  0  0  0  0
 22 24  1  0  0  0  0
 23 22  1  0  0  0  0
 23 25  1  0  0  0  0
 26 23  2  0  0  0  0
 27 28  1  0  0  0  0
 30 29  1  0  0  0  0
 31  2  1  0  0  0  0
 32 31  1  0  0  0  0
 33 32  1  0  0  0  0
 34 33  2  0  0  0  0
 35 33  1  0  0  0  0
 36 34  1  0  0  0  0
 37 36  1  0  0  0  0
 37 35  2  0  0  0  0
 38 36  1  0  0  0  0
 39 44  1  0  0  0  0
 39 38  2  0  0  0  0
 40 38  1  0  0  0  0
 41 39  1  0  0  0  0
 42 40  2  0  0  0  0
 43 41  2  0  0  0  0
 43 42  1  0  0  0  0
 44 46  1  0  0  0  0
 45 44  1  0  0  0  0
 47 48  1  0  0  0  0
 49 48  1  0  0  0  0
 49 50  1  0  0  0  0
 51 50  1  0  0  0  0
 51 52  1  0  0  0  0
M  END
>  <REMARK>
 VINA RESULT:    -4.066      3.805      8.801
 INTER + INTRA:         -14.511
 INTER:                  -9.922
 INTRA:                  -4.590
 UNBOUND:                -7.237
 SMILES CC(=O)N[C@@H]1[C@@H](O)C[C@](O)(C(=O)O)O[C@H]1C(O)[C@H](O)CNC(=O)OCc1cn(-c2ccccc2C(C)C)nn1
 SMILES IDX 21 1 22 2 23 3 20 5 18 6 16 7 15 8 9 9 8 10 14 11 6 12 5 13
 SMILES IDX 10 14 11 16 12 17 13 18 7 20 4 22 2 23 1 25 3 26 17 27 19 29
 SMILES IDX 24 31 25 32 26 33 27 34 39 35 28 36 38 37 29 38 34 39 30 40
 SMILES IDX 33 41 31 42 32 43 35 44 36 45 37 46
 H PARENT 21 4 10 15 13 19 7 21 4 24 17 28 19 30
 Flexibility Score: inf
  4 active torsions:
  status: ('A' for Active; 'I' for Inactive)
    1  A    between atoms: CA   and  CB  
    2  A    between atoms: CB   and  CG  
    3  A    between atoms: CG   and  CD  
    4  A    between atoms: CD   and  CE  

>  <TORSDO>
F 16

>  <BEGIN_>
RES LYS A 131

$$$$
ligand_4_pose_13_2HRL.pdbqt
 OpenBabel07062320523D

  6  5  0  0  0  0  0  0  0  0999 V2000
   33.1930   34.6630    9.2900 C   0  0  0  0  0  0  0  0  0  0  0  0
   32.0600   35.3600   10.0340 C   0  0  0  0  0  0  0  0  0  0  0  0
   30.6920   34.8460    9.6670 C   0  0  0  0  0  0  0  0  0  0  0  0
   29.6360   35.4170   10.6000 C   0  0  0  0  0  0  0  0  0  0  0  0
   30.1890   35.5650   12.0040 C   0  0  0  0  0  0  0  0  0  0  0  0
   29.6710   34.4950   12.9010 N   0  0  0  0  0  0  0  0  0  0  0  0
  1  2  1  0  0  0  0
  3  2  1  0  0  0  0
  3  4  1  0  0  0  0
  4  5  1  0  0  0  0
  5  6  1  0  0  0  0
M  END
>  <EGIN_R>
ES LYS A 135

>  <REMARK>
  4 active torsions:
  status: ('A' for Active; 'I' for Inactive)
    5  A    between atoms: CA   and  CB  
    6  A    between atoms: CB   and  CG  
    7  A    between atoms: CG   and  CD  
    8  A    between atoms: CD   and  CE  

$$$$
