ligand_51_pose_17_2HRL.pdbqt
 OpenBabel07062320523D

 53 56  0  0  1  0  0  0  0  0999 V2000
   29.3490   38.6690    5.8000 C   0  0  0  0  0  0  0  0  0  0  0  0
   27.9070   38.2320    5.7700 C   0  0  2  0  0  0  0  0  0  0  0  0
   27.5240   37.4030    6.9780 C   0  0  1  0  0  0  0  0  0  0  0  0
   26.1570   37.8480    7.5110 C   0  0  2  0  0  0  0  0  0  0  0  0
   26.1990   39.9900    8.4630 C   0  0  2  0  0  0  0  0  0  0  0  0
   26.8200   39.3380    9.6720 C   0  0  0  0  0  0  0  0  0  0  0  0
   25.9540   39.1860    7.4050 O   0  0  0  0  0  0  0  0  0  0  0  0
   26.0600   38.1070   10.0220 C   0  0  1  0  0  0  0  0  0  0  0  0
   25.8220   37.2340    8.8190 C   0  0  1  0  0  0  0  0  0  0  0  0
   27.1460   40.9540    8.0450 O   0  0  0  0  0  0  0  0  0  0  0  0
   26.6290   41.7420    7.7310 H   0  0  0  0  0  0  0  0  0  0  0  0
   25.0090   40.7400    8.9380 C   0  0  0  0  0  0  0  0  0  0  0  0
   25.1000   41.7110    9.7380 O   0  0  0  0  0  0  0  0  0  0  0  0
   23.7520   40.3800    8.5020 O   0  0  0  0  0  0  0  0  0  0  0  0
   23.5200   39.4290    8.2120 H   0  0  0  0  0  0  0  0  0  0  0  0
   26.7880   37.4310   11.0280 O   0  0  0  0  0  0  0  0  0  0  0  0
   27.6380   37.1060   10.6620 H   0  0  0  0  0  0  0  0  0  0  0  0
   24.4260   36.8150    8.7900 N   0  0  0  0  0  0  0  0  0  0  0  0
   23.9150   35.8120    9.6550 C   0  0  0  0  0  0  0  0  0  0  0  0
   23.7580   37.2690    8.1010 H   0  0  0  0  0  0  0  0  0  0  0  0
   22.4930   35.4510    9.5570 C   0  0  0  0  0  0  0  0  0  0  0  0
   24.7120   35.2670   10.4780 O   0  0  0  0  0  0  0  0  0  0  0  0
   27.5890   36.0600    6.7590 O   0  0  0  0  0  0  0  0  0  0  0  0
   28.0850   35.5310    7.4010 H   0  0  0  0  0  0  0  0  0  0  0  0
   27.7000   37.5440    4.5780 O   0  0  0  0  0  0  0  0  0  0  0  0
   27.5240   38.2200    3.8480 H   0  0  0  0  0  0  0  0  0  0  0  0
   29.8840   38.2850    7.0950 N   0  0  0  0  0  0  0  0  0  0  0  0
   30.9240   39.0360    7.7400 C   0  0  0  0  0  0  0  0  0  0  0  0
   29.5480   37.4490    7.6290 H   0  0  0  0  0  0  0  0  0  0  0  0
   31.3620   40.0490    7.1420 O   0  0  0  0  0  0  0  0  0  0  0  0
   31.4400   38.6850    8.9640 O   0  0  0  0  0  0  0  0  0  0  0  0
   31.1060   39.4530   10.0990 C   0  0  0  0  0  0  0  0  0  0  0  0
   30.6900   38.4980   11.1750 C   0  0  0  0  0  0  0  0  0  0  0  0
   31.5710   37.8680   12.0340 C   0  0  0  0  0  0  0  0  0  0  0  0
   29.4820   38.0650   11.5240 N   0  0  0  0  0  0  0  0  0  0  0  0
   30.8680   37.0960   12.8500 N   0  0  0  0  0  0  0  0  0  0  0  0
   29.5970   37.2250   12.5300 N   0  0  0  0  0  0  0  0  0  0  0  0
   31.4450   36.2640   13.9080 C   0  0  2  0  0  0  0  0  0  0  0  0
   31.9210   37.2210   14.9920 C   0  0  0  0  0  0  0  0  0  0  0  0
   32.5920   35.4550   13.3860 C   0  0  0  0  0  0  0  0  0  0  0  0
   30.3880   35.3300   14.4420 C   0  0  0  0  0  0  0  0  0  0  0  0
   32.5100   36.4210   16.1380 C   0  0  1  0  0  0  0  0  0  0  0  0
   33.2100   34.7040   14.5440 C   0  0  1  0  0  0  0  0  0  0  0  0
   30.9700   34.5420   15.5950 C   0  0  2  0  0  0  0  0  0  0  0  0
   31.4480   35.5020   16.6690 C   0  0  0  0  0  0  0  0  0  0  0  0
   33.6920   35.6540   15.6000 C   0  0  0  0  0  0  0  0  0  0  0  0
   32.1570   33.7620   15.0820 C   0  0  0  0  0  0  0  0  0  0  0  0
   29.8670   25.5550   16.9770 C   0  0  0  0  0  0  0  0  0  0  0  0
   28.3450   25.7220   17.0260 C   0  0  0  0  0  0  0  0  0  0  0  0
   27.6010   24.4030   16.8820 C   0  0  0  0  0  0  0  0  0  0  0  0
   26.1890   24.4910   17.3920 C   0  0  0  0  0  0  0  0  0  0  0  0
   25.6220   23.0850   17.5650 C   0  0  0  0  0  0  0  0  0  0  0  0
   25.1650   22.8780   18.9590 N   0  0  0  0  0  0  0  0  0  0  0  0
  1 27  1  0  0  0  0
  2  1  1  1  0  0  0
  2  3  1  0  0  0  0
  3 23  1  6  0  0  0
  4  3  1  1  0  0  0
  4  9  1  0  0  0  0
  5 10  1  6  0  0  0
  5 12  1  0  0  0  0
  5  6  1  0  0  0  0
  6  8  1  0  0  0  0
  7  4  1  0  0  0  0
  7  5  1  0  0  0  0
  8 16  1  1  0  0  0
  9 18  1  6  0  0  0
  9  8  1  0  0  0  0
 11 10  1  0  0  0  0
 12 13  2  0  0  0  0
 14 12  1  0  0  0  0
 15 14  1  0  0  0  0
 17 16  1  0  0  0  0
 18 19  1  0  0  0  0
 19 22  2  0  0  0  0
 20 18  1  0  0  0  0
 21 19  1  0  0  0  0
 23 24  1  0  0  0  0
 25  2  1  0  0  0  0
 26 25  1  0  0  0  0
 27 29  1  0  0  0  0
 27 28  1  0  0  0  0
 28 31  1  0  0  0  0
 30 28  2  0  0  0  0
 31 32  1  0  0  0  0
 32 33  1  0  0  0  0
 33 35  1  0  0  0  0
 33 34  2  0  0  0  0
 34 36  1  0  0  0  0
 35 37  2  0  0  0  0
 37 36  1  0  0  0  0
 38 36  1  6  0  0  0
 38 41  1  0  0  0  0
 38 39  1  0  0  0  0
 40 38  1  0  0  0  0
 42 39  1  6  0  0  0
 42 45  1  0  0  0  0
 43 40  1  6  0  0  0
 43 47  1  0  0  0  0
 43 46  1  0  0  0  0
 44 41  1  6  0  0  0
 44 45  1  0  0  0  0
 46 42  1  0  0  0  0
 47 44  1  0  0  0  0
 48 49  1  0  0  0  0
 50 49  1  0  0  0  0
 50 51  1  0  0  0  0
 51 52  1  0  0  0  0
 52 53  1  0  0  0  0
M  END
>  <REMARK>
 VINA RESULT:    -4.553      7.791     12.703
 INTER + INTRA:         -14.435
 INTER:                  -9.063
 INTRA:                  -5.372
 UNBOUND:                -6.554
 SMILES CC(=O)N[C@@H]1[C@@H](O)C[C@](O)(C(=O)O)O[C@H]1C(O)[C@H](O)CNC(=O)OCc1cn(C23CC4CC(CC(C4)C2)C3)nn1
 SMILES IDX 20 1 18 2 16 3 15 4 9 5 8 6 14 7 6 8 5 9 10 10 11 12 12 13
 SMILES IDX 13 14 7 16 4 18 2 19 1 21 3 22 17 23 19 25 21 27 22 28 23 30
 SMILES IDX 24 31 25 32 26 33 27 34 40 35 28 36 39 37 29 38 38 39 37 40
 SMILES IDX 30 41 33 42 35 43 31 44 32 45 34 46 36 47
 H PARENT 10 11 13 15 7 17 4 20 17 24 19 26 21 29
 Flexibility Score: inf
  4 active torsions:
  status: ('A' for Active; 'I' for Inactive)
    1  A    between atoms: CA   and  CB  
    2  A    between atoms: CB   and  CG  
    3  A    between atoms: CG   and  CD  
    4  A    between atoms: CD   and  CE  

>  <TORSDO>
F 15

>  <BEGIN_>
RES LYS A 131

$$$$
ligand_51_pose_17_2HRL.pdbqt
 OpenBabel07062320523D

  6  5  0  0  0  0  0  0  0  0999 V2000
   33.1930   34.6630    9.2900 C   0  0  0  0  0  0  0  0  0  0  0  0
   32.0600   35.3600   10.0340 C   0  0  0  0  0  0  0  0  0  0  0  0
   30.7750   35.4270    9.2490 C   0  0  0  0  0  0  0  0  0  0  0  0
   29.9510   34.1670    9.4610 C   0  0  0  0  0  0  0  0  0  0  0  0
   28.6160   34.5040   10.0990 C   0  0  0  0  0  0  0  0  0  0  0  0
   27.5030   33.7740    9.4320 N   0  0  0  0  0  0  0  0  0  0  0  0
  1  2  1  0  0  0  0
  3  4  1  0  0  0  0
  3  2  1  0  0  0  0
  4  5  1  0  0  0  0
  6  5  1  0  0  0  0
M  END
>  <EGIN_R>
ES LYS A 135

>  <REMARK>
  4 active torsions:
  status: ('A' for Active; 'I' for Inactive)
    5  A    between atoms: CA   and  CB  
    6  A    between atoms: CB   and  CG  
    7  A    between atoms: CG   and  CD  
    8  A    between atoms: CD   and  CE  

$$$$
