ligand_19_pose_14_2HRL.pdbqt
 OpenBabel07062320523D

 49 49  0  0  1  0  0  0  0  0999 V2000
   25.0360   33.8060   14.5810 N   0  0  0  0  0  0  0  0  0  0  0  0
   24.7980   33.5510   13.2120 C   0  0  0  0  0  0  0  0  0  0  0  0
   24.2260   32.5120   12.8540 O   0  0  0  0  0  0  0  0  0  0  0  0
   25.5340   34.7130   14.7980 H   0  0  0  0  0  0  0  0  0  0  0  0
   24.6490   32.9300   15.6660 C   0  0  0  0  0  0  0  0  0  0  0  0
   25.6690   31.8870   15.9280 C   0  0  2  0  0  0  0  0  0  0  0  0
   26.9170   32.3390   16.6520 C   0  0  2  0  0  0  0  0  0  0  0  0
   27.4070   31.4050   17.7170 C   0  0  2  0  0  0  0  0  0  0  0  0
   29.5040   32.4110   17.7690 C   0  0  2  0  0  0  0  0  0  0  0  0
   29.9390   31.5500   16.6460 C   0  0  0  0  0  0  0  0  0  0  0  0
   28.4190   31.9800   18.4840 O   0  0  0  0  0  0  0  0  0  0  0  0
   29.1920   30.2820   16.4430 C   0  0  1  0  0  0  0  0  0  0  0  0
   27.9590   30.0930   17.2570 C   0  0  1  0  0  0  0  0  0  0  0  0
   29.1950   33.7230   17.3350 O   0  0  0  0  0  0  0  0  0  0  0  0
   28.2500   33.7990   17.0630 H   0  0  0  0  0  0  0  0  0  0  0  0
   30.6130   32.5930   18.7470 C   0  0  0  0  0  0  0  0  0  0  0  0
   30.8160   31.7430   19.6800 O   0  0  0  0  0  0  0  0  0  0  0  0
   31.4910   33.6660   18.7260 O   0  0  0  0  0  0  0  0  0  0  0  0
   32.4840   33.4610   18.8810 H   0  0  0  0  0  0  0  0  0  0  0  0
   28.8350   30.2010   15.0930 O   0  0  0  0  0  0  0  0  0  0  0  0
   27.8380   30.2850   14.9830 H   0  0  0  0  0  0  0  0  0  0  0  0
   28.1460   29.2820   18.4370 N   0  0  0  0  0  0  0  0  0  0  0  0
   27.4720   28.0770   18.6540 C   0  0  0  0  0  0  0  0  0  0  0  0
   28.8180   29.6320   19.1450 H   0  0  0  0  0  0  0  0  0  0  0  0
   27.6460   27.2220   19.8560 C   0  0  0  0  0  0  0  0  0  0  0  0
   26.6730   27.7050   17.7730 O   0  0  0  0  0  0  0  0  0  0  0  0
   26.4350   33.4700   17.4160 O   0  0  0  0  0  0  0  0  0  0  0  0
   25.4520   33.2700   17.4890 H   0  0  0  0  0  0  0  0  0  0  0  0
   25.9050   30.9570   14.9610 O   0  0  0  0  0  0  0  0  0  0  0  0
   25.2930   31.0100   14.2110 H   0  0  0  0  0  0  0  0  0  0  0  0
   25.2110   34.4830   12.2320 O   0  0  0  0  0  0  0  0  0  0  0  0
   25.5240   35.8220   12.6140 C   0  0  0  0  0  0  0  0  0  0  0  0
   26.9750   36.0180   12.4300 C   0  0  0  0  0  0  0  0  0  0  0  0
   27.9740   35.1850   12.9060 C   0  0  0  0  0  0  0  0  0  0  0  0
   27.5970   37.0170   11.7890 N   0  0  0  0  0  0  0  0  0  0  0  0
   29.1520   35.7100   12.5370 N   0  0  0  0  0  0  0  0  0  0  0  0
   28.8970   36.8110   11.8670 N   0  0  0  0  0  0  0  0  0  0  0  0
   30.4420   35.1350   12.8410 C   0  0  0  0  0  0  0  0  0  0  0  0
   30.2580   34.0930   13.9190 C   0  0  0  0  0  0  0  0  0  0  0  0
   31.4750   33.8640   14.5680 O   0  0  0  0  0  0  0  0  0  0  0  0
   32.0430   34.8030   15.3780 C   0  0  0  0  0  0  0  0  0  0  0  0
   31.4210   35.2970   16.3360 O   0  0  0  0  0  0  0  0  0  0  0  0
   33.4520   35.2700   15.1300 C   0  0  0  0  0  0  0  0  0  0  0  0
   29.8670   25.5550   16.9770 C   0  0  0  0  0  0  0  0  0  0  0  0
   28.3450   25.7220   17.0260 C   0  0  0  0  0  0  0  0  0  0  0  0
   27.5990   24.4220   16.7670 C   0  0  0  0  0  0  0  0  0  0  0  0
   26.9060   23.9110   18.0000 C   0  0  0  0  0  0  0  0  0  0  0  0
   25.5310   23.3700   17.6240 C   0  0  0  0  0  0  0  0  0  0  0  0
   24.7690   24.3810   16.8530 N   0  0  0  0  0  0  0  0  0  0  0  0
  1  4  1  0  0  0  0
  1  5  1  0  0  0  0
  2  1  1  0  0  0  0
  3  2  2  0  0  0  0
  6  5  1  6  0  0  0
  6  7  1  0  0  0  0
  7 27  1  1  0  0  0
  8  7  1  6  0  0  0
  8 11  1  0  0  0  0
  9 14  1  6  0  0  0
  9 11  1  0  0  0  0
  9 16  1  0  0  0  0
 10  9  1  0  0  0  0
 12 20  1  6  0  0  0
 12 10  1  0  0  0  0
 12 13  1  0  0  0  0
 13  8  1  0  0  0  0
 13 22  1  1  0  0  0
 15 14  1  0  0  0  0
 16 17  2  0  0  0  0
 18 16  1  0  0  0  0
 18 19  1  0  0  0  0
 21 20  1  0  0  0  0
 22 23  1  0  0  0  0
 22 24  1  0  0  0  0
 23 25  1  0  0  0  0
 26 23  2  0  0  0  0
 27 28  1  0  0  0  0
 29  6  1  0  0  0  0
 30 29  1  0  0  0  0
 31 32  1  0  0  0  0
 31  2  1  0  0  0  0
 33 32  1  0  0  0  0
 33 34  2  0  0  0  0
 35 37  2  0  0  0  0
 35 33  1  0  0  0  0
 36 38  1  0  0  0  0
 36 34  1  0  0  0  0
 37 36  1  0  0  0  0
 38 39  1  0  0  0  0
 39 40  1  0  0  0  0
 40 41  1  0  0  0  0
 41 42  2  0  0  0  0
 43 41  1  0  0  0  0
 44 45  1  0  0  0  0
 46 45  1  0  0  0  0
 46 47  1  0  0  0  0
 48 47  1  0  0  0  0
 49 48  1  0  0  0  0
M  END
>  <REMARK>
 VINA RESULT:    -4.026      1.763      4.901
 INTER + INTRA:         -13.733
 INTER:                  -7.424
 INTRA:                  -6.309
 UNBOUND:                -6.059
 SMILES CC(=O)N[C@@H]1[C@@H](O)C[C@](O)(C(=O)O)O[C@H]1C(O)[C@H](O)CNC(=O)OCc1cn(CCOC(C)=O)nn1
 SMILES IDX 21 1 22 2 23 3 20 5 18 6 16 7 15 8 9 9 8 10 14 11 6 12 5 13
 SMILES IDX 10 14 11 16 12 17 13 18 7 20 4 22 2 23 1 25 3 26 17 27 19 29
 SMILES IDX 24 31 25 32 26 33 27 34 36 35 28 36 35 37 29 38 30 39 31 40
 SMILES IDX 32 41 34 42 33 43
 H PARENT 21 4 10 15 13 19 7 21 4 24 17 28 19 30
 Flexibility Score: inf
  4 active torsions:
  status: ('A' for Active; 'I' for Inactive)
    1  A    between atoms: CA   and  CB  
    2  A    between atoms: CB   and  CG  
    3  A    between atoms: CG   and  CD  
    4  A    between atoms: CD   and  CE  

>  <TORSDO>
F 18

>  <BEGIN_>
RES LYS A 131

$$$$
ligand_19_pose_14_2HRL.pdbqt
 OpenBabel07062320523D

  6  5  0  0  0  0  0  0  0  0999 V2000
   33.1930   34.6630    9.2900 C   0  0  0  0  0  0  0  0  0  0  0  0
   32.0600   35.3600   10.0340 C   0  0  0  0  0  0  0  0  0  0  0  0
   30.8510   35.6280    9.1760 C   0  0  0  0  0  0  0  0  0  0  0  0
   30.3030   34.3320    8.5990 C   0  0  0  0  0  0  0  0  0  0  0  0
   28.9610   33.9970    9.2220 C   0  0  0  0  0  0  0  0  0  0  0  0
   27.9550   35.0540    8.9260 N   0  0  0  0  0  0  0  0  0  0  0  0
  1  2  1  0  0  0  0
  3  2  1  0  0  0  0
  4  3  1  0  0  0  0
  4  5  1  0  0  0  0
  6  5  1  0  0  0  0
M  END
>  <EGIN_R>
ES LYS A 135

>  <REMARK>
  4 active torsions:
  status: ('A' for Active; 'I' for Inactive)
    5  A    between atoms: CA   and  CB  
    6  A    between atoms: CB   and  CG  
    7  A    between atoms: CG   and  CD  
    8  A    between atoms: CD   and  CE  

$$$$
