ligand_32_pose_3_2HRL.pdbqt
 OpenBabel07062320523D

 49 49  0  0  1  0  0  0  0  0999 V2000
   29.5090   29.9510   19.1730 N   0  0  0  0  0  0  0  0  0  0  0  0
   28.1940   30.4360   18.9570 C   0  0  0  0  0  0  0  0  0  0  0  0
   27.6000   31.1350   19.8310 O   0  0  0  0  0  0  0  0  0  0  0  0
   29.9630   29.3820   18.4320 H   0  0  0  0  0  0  0  0  0  0  0  0
   30.2290   30.2240   20.3930 C   0  0  0  0  0  0  0  0  0  0  0  0
   30.1700   29.1050   21.3970 C   0  0  2  0  0  0  0  0  0  0  0  0
   31.1200   27.9720   21.0100 C   0  0  1  0  0  0  0  0  0  0  0  0
   31.5760   27.2340   22.2560 C   0  0  2  0  0  0  0  0  0  0  0  0
   30.5780   26.6160   24.2750 C   0  0  2  0  0  0  0  0  0  0  0  0
   31.9380   26.4470   24.8930 C   0  0  0  0  0  0  0  0  0  0  0  0
   30.5770   26.5780   22.8980 O   0  0  0  0  0  0  0  0  0  0  0  0
   33.0470   27.1220   24.1690 C   0  0  1  0  0  0  0  0  0  0  0  0
   32.4130   28.0970   23.1640 C   0  0  1  0  0  0  0  0  0  0  0  0
   30.0060   27.7780   24.7810 O   0  0  0  0  0  0  0  0  0  0  0  0
   30.6250   28.0950   25.4960 H   0  0  0  0  0  0  0  0  0  0  0  0
   29.7590   25.4720   24.7370 C   0  0  0  0  0  0  0  0  0  0  0  0
   29.9370   24.8880   25.8270 O   0  0  0  0  0  0  0  0  0  0  0  0
   28.7340   25.0080   23.9310 O   0  0  0  0  0  0  0  0  0  0  0  0
   28.5420   24.0260   23.7800 H   0  0  0  0  0  0  0  0  0  0  0  0
   33.9250   27.7960   25.0130 O   0  0  0  0  0  0  0  0  0  0  0  0
   34.8230   27.3640   25.0460 H   0  0  0  0  0  0  0  0  0  0  0  0
   33.4440   28.8060   22.4320 N   0  0  0  0  0  0  0  0  0  0  0  0
   33.5810   30.2170   22.5640 C   0  0  0  0  0  0  0  0  0  0  0  0
   34.1110   28.3180   21.7900 H   0  0  0  0  0  0  0  0  0  0  0  0
   34.6330   30.9940   21.8260 C   0  0  0  0  0  0  0  0  0  0  0  0
   32.7970   30.8650   23.3290 O   0  0  0  0  0  0  0  0  0  0  0  0
   30.4240   27.0900   20.1880 O   0  0  0  0  0  0  0  0  0  0  0  0
   30.9370   26.8500   19.3680 H   0  0  0  0  0  0  0  0  0  0  0  0
   28.8510   28.6450   21.4220 O   0  0  0  0  0  0  0  0  0  0  0  0
   28.4680   28.7300   20.5130 H   0  0  0  0  0  0  0  0  0  0  0  0
   27.5560   30.1400   17.7740 O   0  0  0  0  0  0  0  0  0  0  0  0
   27.3770   28.8200   17.2920 C   0  0  0  0  0  0  0  0  0  0  0  0
   26.9720   27.9100   18.4150 C   0  0  0  0  0  0  0  0  0  0  0  0
   25.7000   27.6700   18.8660 C   0  0  0  0  0  0  0  0  0  0  0  0
   27.8190   27.1840   19.1700 N   0  0  0  0  0  0  0  0  0  0  0  0
   25.8020   26.7940   19.8950 N   0  0  0  0  0  0  0  0  0  0  0  0
   27.0900   26.5210   20.0530 N   0  0  0  0  0  0  0  0  0  0  0  0
   24.6710   26.2840   20.6410 C   0  0  0  0  0  0  0  0  0  0  0  0
   24.8470   24.7740   20.7770 C   0  0  0  0  0  0  0  0  0  0  0  0
   25.1740   24.5110   22.2110 C   0  0  0  0  0  0  0  0  0  0  0  0
   24.4990   23.7660   22.9330 O   0  0  0  0  0  0  0  0  0  0  0  0
   26.3020   25.1560   22.7200 O   0  0  0  0  0  0  0  0  0  0  0  0
   27.0590   24.6040   23.1200 H   0  0  0  0  0  0  0  0  0  0  0  0
   29.8670   25.5550   16.9770 C   0  0  0  0  0  0  0  0  0  0  0  0
   28.3450   25.7220   17.0260 C   0  0  0  0  0  0  0  0  0  0  0  0
   27.5990   24.4470   16.6630 C   0  0  0  0  0  0  0  0  0  0  0  0
   27.0360   23.7560   17.8740 C   0  0  0  0  0  0  0  0  0  0  0  0
   25.6150   23.2890   17.5800 C   0  0  0  0  0  0  0  0  0  0  0  0
   24.7890   24.4180   17.0900 N   0  0  0  0  0  0  0  0  0  0  0  0
  1  5  1  0  0  0  0
  2  1  1  0  0  0  0
  2  3  2  0  0  0  0
  4  1  1  0  0  0  0
  6  5  1  6  0  0  0
  6 29  1  0  0  0  0
  7 27  1  6  0  0  0
  7  6  1  0  0  0  0
  8  7  1  6  0  0  0
  8 11  1  0  0  0  0
  8 13  1  0  0  0  0
  9 16  1  1  0  0  0
  9 14  1  0  0  0  0
  9 10  1  0  0  0  0
 11  9  1  0  0  0  0
 12 10  1  0  0  0  0
 12 20  1  1  0  0  0
 13 22  1  6  0  0  0
 13 12  1  0  0  0  0
 14 15  1  0  0  0  0
 16 17  2  0  0  0  0
 18 16  1  0  0  0  0
 19 18  1  0  0  0  0
 20 21  1  0  0  0  0
 22 23  1  0  0  0  0
 23 26  2  0  0  0  0
 24 22  1  0  0  0  0
 25 23  1  0  0  0  0
 28 27  1  0  0  0  0
 30 29  1  0  0  0  0
 31  2  1  0  0  0  0
 32 31  1  0  0  0  0
 32 33  1  0  0  0  0
 33 34  2  0  0  0  0
 33 35  1  0  0  0  0
 34 36  1  0  0  0  0
 35 37  2  0  0  0  0
 36 37  1  0  0  0  0
 36 38  1  0  0  0  0
 38 39  1  0  0  0  0
 39 40  1  0  0  0  0
 40 42  1  0  0  0  0
 40 41  2  0  0  0  0
 42 43  1  0  0  0  0
 44 45  1  0  0  0  0
 46 45  1  0  0  0  0
 46 47  1  0  0  0  0
 48 47  1  0  0  0  0
 49 48  1  0  0  0  0
M  END
>  <REMARK>
 VINA RESULT:    -4.507      2.463      4.348
 INTER + INTRA:         -14.102
 INTER:                  -7.423
 INTRA:                  -6.680
 UNBOUND:                -5.644
 SMILES CC(=O)N[C@@H]1[C@@H](O)C[C@](O)(C(=O)O)O[C@H]1C(O)[C@H](O)CNC(=O)OCc1cn(CCC(=O)O)nn1
 SMILES IDX 21 1 22 2 23 3 20 5 18 6 16 7 15 8 9 9 8 10 14 11 6 12 5 13
 SMILES IDX 10 14 11 16 12 17 13 18 7 20 4 22 2 23 1 25 3 26 17 27 19 29
 SMILES IDX 24 31 25 32 26 33 27 34 35 35 28 36 34 37 29 38 30 39 31 40
 SMILES IDX 32 41 33 42
 H PARENT 21 4 10 15 13 19 7 21 4 24 17 28 19 30 33 43
 Flexibility Score: inf
  4 active torsions:
  status: ('A' for Active; 'I' for Inactive)
    1  A    between atoms: CA   and  CB  
    2  A    between atoms: CB   and  CG  
    3  A    between atoms: CG   and  CD  
    4  A    between atoms: CD   and  CE  

>  <TORSDO>
F 18

>  <BEGIN_>
RES LYS A 131

$$$$
ligand_32_pose_3_2HRL.pdbqt
 OpenBabel07062320523D

  6  5  0  0  0  0  0  0  0  0999 V2000
   33.1930   34.6630    9.2900 C   0  0  0  0  0  0  0  0  0  0  0  0
   32.0600   35.3600   10.0340 C   0  0  0  0  0  0  0  0  0  0  0  0
   30.7910   35.4740    9.2290 C   0  0  0  0  0  0  0  0  0  0  0  0
   30.1300   34.1130    9.0750 C   0  0  0  0  0  0  0  0  0  0  0  0
   28.6710   34.2700    8.6920 C   0  0  0  0  0  0  0  0  0  0  0  0
   28.5170   35.1890    7.5300 N   0  0  0  0  0  0  0  0  0  0  0  0
  1  2  1  0  0  0  0
  3  2  1  0  0  0  0
  4  3  1  0  0  0  0
  5  4  1  0  0  0  0
  6  5  1  0  0  0  0
M  END
>  <EGIN_R>
ES LYS A 135

>  <REMARK>
  4 active torsions:
  status: ('A' for Active; 'I' for Inactive)
    5  A    between atoms: CA   and  CB  
    6  A    between atoms: CB   and  CG  
    7  A    between atoms: CG   and  CD  
    8  A    between atoms: CD   and  CE  

$$$$
