ligand_69_pose_9_2HRL.pdbqt
 OpenBabel07062320523D

 54 51  0  0  1  0  0  0  0  0999 V2000
   25.6490   35.6450   13.2140 N   0  0  0  0  0  0  0  0  0  0  0  0
   24.5910   35.0550   12.4610 C   0  0  0  0  0  0  0  0  0  0  0  0
   24.3160   33.8280   12.5170 O   0  0  0  0  0  0  0  0  0  0  0  0
   25.8550   36.6650   13.1470 H   0  0  0  0  0  0  0  0  0  0  0  0
   26.4110   34.7360   14.0710 C   0  0  0  0  0  0  0  0  0  0  0  0
   27.8190   35.2960   14.1500 C   0  0  2  0  0  0  0  0  0  0  0  0
   28.6690   34.9040   12.9630 C   0  0  2  0  0  0  0  0  0  0  0  0
   29.9640   35.6520   12.9150 C   0  0  2  0  0  0  0  0  0  0  0  0
   31.9880   36.0880   13.8690 C   0  0  2  0  0  0  0  0  0  0  0  0
   32.1330   36.8640   12.5780 C   0  0  0  0  0  0  0  0  0  0  0  0
   30.8740   35.2580   13.8590 O   0  0  0  0  0  0  0  0  0  0  0  0
   30.9450   37.7730   12.3310 C   0  0  1  0  0  0  0  0  0  0  0  0
   29.7730   37.1490   13.0320 C   0  0  1  0  0  0  0  0  0  0  0  0
   32.0000   36.9330   14.9730 O   0  0  0  0  0  0  0  0  0  0  0  0
   32.3330   37.8410   14.7420 H   0  0  0  0  0  0  0  0  0  0  0  0
   33.1750   35.2040   13.9670 C   0  0  0  0  0  0  0  0  0  0  0  0
   33.6920   34.8820   15.0710 O   0  0  0  0  0  0  0  0  0  0  0  0
   33.7430   34.7110   12.8130 O   0  0  0  0  0  0  0  0  0  0  0  0
   33.2190   34.3410   12.0260 H   0  0  0  0  0  0  0  0  0  0  0  0
   31.2750   39.0240   12.7990 O   0  0  0  0  0  0  0  0  0  0  0  0
   30.5840   39.2770   13.4880 H   0  0  0  0  0  0  0  0  0  0  0  0
   28.5000   37.5980   12.6070 N   0  0  0  0  0  0  0  0  0  0  0  0
   27.8470   38.7790   13.0510 C   0  0  0  0  0  0  0  0  0  0  0  0
   27.9850   37.0200   11.9080 H   0  0  0  0  0  0  0  0  0  0  0  0
   26.4980   39.1660   12.5400 C   0  0  0  0  0  0  0  0  0  0  0  0
   28.4430   39.4860   13.8870 O   0  0  0  0  0  0  0  0  0  0  0  0
   27.9530   34.9220   11.7910 O   0  0  0  0  0  0  0  0  0  0  0  0
   28.5620   35.1490   11.0540 H   0  0  0  0  0  0  0  0  0  0  0  0
   28.4730   34.7480   15.2780 O   0  0  0  0  0  0  0  0  0  0  0  0
   28.0190   35.0280   16.1220 H   0  0  0  0  0  0  0  0  0  0  0  0
   23.8290   35.8420   11.6330 O   0  0  0  0  0  0  0  0  0  0  0  0
   23.8360   35.7540   10.2190 C   0  0  0  0  0  0  0  0  0  0  0  0
   25.0440   36.4450    9.7110 C   0  0  0  0  0  0  0  0  0  0  0  0
   25.2570   37.0470    8.4910 C   0  0  0  0  0  0  0  0  0  0  0  0
   26.1840   36.5950   10.4130 N   0  0  0  0  0  0  0  0  0  0  0  0
   26.5080   37.5440    8.4780 N   0  0  0  0  0  0  0  0  0  0  0  0
   27.0370   37.2470    9.6670 N   0  0  0  0  0  0  0  0  0  0  0  0
   27.1420   38.2640    7.3720 C   0  0  2  0  0  0  0  0  0  0  0  0
   26.3180   39.4730    7.0870 C   0  0  0  0  0  0  0  0  0  0  0  0
   26.9770   40.4910    6.2250 *   0  0  0  0  0  0  0  0  0  0  0  0
   26.3040   41.7330    6.2470 O   0  0  0  0  0  0  0  0  0  0  0  0
   26.3600   42.1330    5.3530 H   0  0  0  0  0  0  0  0  0  0  0  0
   27.2680   37.3170    6.2280 C   0  0  0  0  0  0  0  0  0  0  0  0
   28.2270   37.7530    5.1620 C   0  0  1  0  0  0  0  0  0  0  0  0
   27.7580   38.9180    4.3810 C   0  0  0  0  0  0  0  0  0  0  0  0
   27.2430   40.0420    4.8280 *   0  0  0  0  0  0  0  0  0  0  0  0
   29.5150   37.9580    5.6520 O   0  0  0  0  0  0  0  0  0  0  0  0
   29.8320   37.1830    6.1800 H   0  0  0  0  0  0  0  0  0  0  0  0
   29.8670   25.5550   16.9770 C   0  0  0  0  0  0  0  0  0  0  0  0
   28.3450   25.7220   17.0260 C   0  0  0  0  0  0  0  0  0  0  0  0
   27.6020   24.3970   16.9450 C   0  0  0  0  0  0  0  0  0  0  0  0
   26.2110   24.4930   17.5060 C   0  0  0  0  0  0  0  0  0  0  0  0
   26.0430   25.8270   18.2260 C   0  0  0  0  0  0  0  0  0  0  0  0
   24.8320   26.5290   17.7400 N   0  0  0  0  0  0  0  0  0  0  0  0
  1  5  1  0  0  0  0
  2  3  2  0  0  0  0
  2  1  1  0  0  0  0
  4  1  1  0  0  0  0
  6  5  1  6  0  0  0
  6 29  1  0  0  0  0
  7 27  1  6  0  0  0
  7  6  1  0  0  0  0
  8  7  1  1  0  0  0
  8 13  1  0  0  0  0
  8 11  1  0  0  0  0
  9 16  1  1  0  0  0
  9 14  1  0  0  0  0
 10  9  1  0  0  0  0
 11  9  1  0  0  0  0
 12 10  1  0  0  0  0
 12 20  1  1  0  0  0
 12 13  1  0  0  0  0
 13 22  1  6  0  0  0
 15 14  1  0  0  0  0
 16 17  2  0  0  0  0
 18 16  1  0  0  0  0
 19 18  1  0  0  0  0
 20 21  1  0  0  0  0
 22 23  1  0  0  0  0
 23 26  2  0  0  0  0
 24 22  1  0  0  0  0
 25 23  1  0  0  0  0
 28 27  1  0  0  0  0
 29 30  1  0  0  0  0
 31  2  1  0  0  0  0
 32 31  1  0  0  0  0
 33 32  1  0  0  0  0
 33 35  1  0  0  0  0
 34 33  2  0  0  0  0
 36 34  1  0  0  0  0
 36 37  1  0  0  0  0
 37 35  2  0  0  0  0
 38 39  1  6  0  0  0
 38 36  1  0  0  0  0
 42 41  1  0  0  0  0
 43 38  1  0  0  0  0
 44 45  1  1  0  0  0
 44 47  1  0  0  0  0
 44 43  1  0  0  0  0
 47 48  1  0  0  0  0
 49 50  1  0  0  0  0
 51 50  1  0  0  0  0
 51 52  1  0  0  0  0
 52 53  1  0  0  0  0
 54 53  1  0  0  0  0
M  END
>  <REMARK>
 VINA RESULT:    -7.770      3.765      5.996
 INTER + INTRA:         -13.141
 INTER:                  -8.187
 INTRA:                  -4.954
 UNBOUND:                 3.032
 SMILES CC(=O)N[C@@H]1[C@@H](O)C[C@](O)(C(=O)O)O[C@H]1C(O)[C@H](O)CNC(=O)OCc1cn(C2CC(O)C=C[C@@H](O)C2)nn1
 SMILES IDX 21 1 22 2 23 3 20 5 18 6 16 7 15 8 9 9 8 10 14 11 6 12 5 13
 SMILES IDX 10 14 11 16 12 17 13 18 7 20 4 22 2 23 1 25 3 26 17 27 19 29
 SMILES IDX 24 31 25 32 26 33 27 34 39 35 28 36 38 37 29 38 30 39 31 40
 SMILES IDX 32 42 37 44 35 45 34 46 33 47 36 49
 H PARENT 21 4 10 15 13 19 7 21 4 24 17 28 19 30 32 43 36 50
 Flexibility Score: 90.00
  4 active torsions:
  status: ('A' for Active; 'I' for Inactive)
    1  A    between atoms: CA   and  CB  
    2  A    between atoms: CB   and  CG  
    3  A    between atoms: CG   and  CD  
    4  A    between atoms: CD   and  CE  

>  <TORSDO>
F 17

>  <BEGIN_>
RES LYS A 131

$$$$
ligand_69_pose_9_2HRL.pdbqt
 OpenBabel07062320523D

  6  5  0  0  0  0  0  0  0  0999 V2000
   33.1930   34.6630    9.2900 C   0  0  0  0  0  0  0  0  0  0  0  0
   32.0600   35.3600   10.0340 C   0  0  0  0  0  0  0  0  0  0  0  0
   30.7050   34.7550    9.7710 C   0  0  0  0  0  0  0  0  0  0  0  0
   30.5550   34.3920    8.3020 C   0  0  0  0  0  0  0  0  0  0  0  0
   29.2610   34.9520    7.7440 C   0  0  0  0  0  0  0  0  0  0  0  0
   28.0790   34.3320    8.4060 N   0  0  0  0  0  0  0  0  0  0  0  0
  1  2  1  0  0  0  0
  3  2  1  0  0  0  0
  4  3  1  0  0  0  0
  5  4  1  0  0  0  0
  5  6  1  0  0  0  0
M  END
>  <EGIN_R>
ES LYS A 135

>  <REMARK>
  4 active torsions:
  status: ('A' for Active; 'I' for Inactive)
    5  A    between atoms: CA   and  CB  
    6  A    between atoms: CB   and  CG  
    7  A    between atoms: CG   and  CD  
    8  A    between atoms: CD   and  CE  

$$$$
