ligand_41_pose_10_2HRL.pdbqt
 OpenBabel07062320523D

 52 53  0  0  1  0  0  0  0  0999 V2000
   21.4700   40.6180   10.0450 N   0  0  0  0  0  0  0  0  0  0  0  0
   22.6220   40.4990   10.8970 C   0  0  0  0  0  0  0  0  0  0  0  0
   22.5800   39.6990   11.8620 O   0  0  0  0  0  0  0  0  0  0  0  0
   21.5470   41.2850    9.2520 H   0  0  0  0  0  0  0  0  0  0  0  0
   20.2970   39.8420   10.3170 C   0  0  0  0  0  0  0  0  0  0  0  0
   19.5440   39.3330    9.1320 C   0  0  2  0  0  0  0  0  0  0  0  0
   19.0100   37.9410    9.2890 C   0  0  2  0  0  0  0  0  0  0  0  0
   20.0490   36.9070    9.6370 C   0  0  2  0  0  0  0  0  0  0  0  0
   22.2750   36.6110   10.1760 C   0  0  2  0  0  0  0  0  0  0  0  0
   22.5140   35.5990    9.0710 C   0  0  0  0  0  0  0  0  0  0  0  0
   21.2730   37.4460    9.8370 O   0  0  0  0  0  0  0  0  0  0  0  0
   21.4490   35.6470    8.0270 C   0  0  1  0  0  0  0  0  0  0  0  0
   20.0830   35.8320    8.5730 C   0  0  1  0  0  0  0  0  0  0  0  0
   23.5070   37.3470   10.2290 O   0  0  0  0  0  0  0  0  0  0  0  0
   24.1310   36.9660    9.5370 H   0  0  0  0  0  0  0  0  0  0  0  0
   22.1940   35.9150   11.4650 C   0  0  0  0  0  0  0  0  0  0  0  0
   22.0980   34.6720   11.5750 O   0  0  0  0  0  0  0  0  0  0  0  0
   22.2240   36.6220   12.6690 O   0  0  0  0  0  0  0  0  0  0  0  0
   21.9570   37.6000   12.6980 H   0  0  0  0  0  0  0  0  0  0  0  0
   21.7350   36.7170    7.1610 O   0  0  0  0  0  0  0  0  0  0  0  0
   21.1720   36.7090    6.3500 H   0  0  0  0  0  0  0  0  0  0  0  0
   19.4970   34.5930    8.9750 N   0  0  0  0  0  0  0  0  0  0  0  0
   18.1750   34.2090    8.6170 C   0  0  0  0  0  0  0  0  0  0  0  0
   20.0500   33.9310    9.5500 H   0  0  0  0  0  0  0  0  0  0  0  0
   17.6120   32.9080    9.0610 C   0  0  0  0  0  0  0  0  0  0  0  0
   17.4430   34.9550    7.9170 O   0  0  0  0  0  0  0  0  0  0  0  0
   18.1070   37.5670    8.3280 O   0  0  0  0  0  0  0  0  0  0  0  0
   18.0420   38.3250    7.6740 H   0  0  0  0  0  0  0  0  0  0  0  0
   20.5350   39.2350    8.0690 O   0  0  0  0  0  0  0  0  0  0  0  0
   20.1440   39.7990    7.3500 H   0  0  0  0  0  0  0  0  0  0  0  0
   23.7740   41.2250   10.7040 O   0  0  0  0  0  0  0  0  0  0  0  0
   24.3120   41.4490    9.4040 C   0  0  0  0  0  0  0  0  0  0  0  0
   24.5900   40.1700    8.7040 C   0  0  0  0  0  0  0  0  0  0  0  0
   25.7630   39.4640    8.6600 C   0  0  0  0  0  0  0  0  0  0  0  0
   23.7050   39.4500    7.9590 N   0  0  0  0  0  0  0  0  0  0  0  0
   25.5550   38.3430    7.8930 N   0  0  0  0  0  0  0  0  0  0  0  0
   24.2980   38.3810    7.4940 N   0  0  0  0  0  0  0  0  0  0  0  0
   26.4890   37.3410    7.5290 C   0  0  0  0  0  0  0  0  0  0  0  0
   27.5420   37.5250    6.7010 C   0  0  0  0  0  0  0  0  0  0  0  0
   26.2480   36.0830    8.1240 C   0  0  0  0  0  0  0  0  0  0  0  0
   28.3930   36.4460    6.4410 C   0  0  0  0  0  0  0  0  0  0  0  0
   27.0910   35.0330    7.8600 C   0  0  0  0  0  0  0  0  0  0  0  0
   28.1530   35.2350    7.0190 C   0  0  0  0  0  0  0  0  0  0  0  0
   27.8530   38.7760    6.0460 C   0  0  2  0  0  0  0  0  0  0  0  0
   28.6350   39.5850    6.6930 O   0  0  0  0  0  0  0  0  0  0  0  0
   27.3940   39.2470    4.7400 C   0  0  0  0  0  0  0  0  0  0  0  0
   29.8670   25.5550   16.9770 C   0  0  0  0  0  0  0  0  0  0  0  0
   28.3450   25.7220   17.0260 C   0  0  0  0  0  0  0  0  0  0  0  0
   27.6020   24.3970   16.9410 C   0  0  0  0  0  0  0  0  0  0  0  0
   26.1330   24.5530   17.2210 C   0  0  0  0  0  0  0  0  0  0  0  0
   25.9200   25.7070   18.1950 C   0  0  0  0  0  0  0  0  0  0  0  0
   25.7280   25.1940   19.5720 N   0  0  0  0  0  0  0  0  0  0  0  0
  1  5  1  0  0  0  0
  1  2  1  0  0  0  0
  2  3  2  0  0  0  0
  4  1  1  0  0  0  0
  6  7  1  0  0  0  0
  6  5  1  1  0  0  0
  7 27  1  6  0  0  0
  8  7  1  6  0  0  0
  8 11  1  0  0  0  0
  9 14  1  1  0  0  0
  9 16  1  0  0  0  0
 10  9  1  0  0  0  0
 11  9  1  0  0  0  0
 12 20  1  6  0  0  0
 12 13  1  0  0  0  0
 12 10  1  0  0  0  0
 13 22  1  1  0  0  0
 13  8  1  0  0  0  0
 15 14  1  0  0  0  0
 16 17  2  0  0  0  0
 16 18  1  0  0  0  0
 18 19  1  0  0  0  0
 21 20  1  0  0  0  0
 22 24  1  0  0  0  0
 23 22  1  0  0  0  0
 23 25  1  0  0  0  0
 26 23  2  0  0  0  0
 28 27  1  0  0  0  0
 29  6  1  0  0  0  0
 30 29  1  0  0  0  0
 31  2  1  0  0  0  0
 32 31  1  0  0  0  0
 33 32  1  0  0  0  0
 34 33  2  0  0  0  0
 35 33  1  0  0  0  0
 36 34  1  0  0  0  0
 37 36  1  0  0  0  0
 37 35  2  0  0  0  0
 38 36  1  0  0  0  0
 38 40  2  0  0  0  0
 39 38  1  0  0  0  0
 41 39  2  0  0  0  0
 41 43  1  0  0  0  0
 42 40  1  0  0  0  0
 43 42  2  0  0  0  0
 44 46  1  1  0  0  0
 44 45  1  0  0  0  0
 44 39  1  0  0  0  0
 47 48  1  0  0  0  0
 49 48  1  0  0  0  0
 49 50  1  0  0  0  0
 50 51  1  0  0  0  0
 51 52  1  0  0  0  0
M  END
>  <REMARK>
 VINA RESULT:    -4.407      5.786     10.866
 INTER + INTRA:         -14.690
 INTER:                  -8.305
 INTRA:                  -6.384
 UNBOUND:                -6.804
 SMILES CC(=O)N[C@@H]1[C@@H](O)C[C@](O)(C(=O)O)O[C@H]1C(O)[C@H](O)CNC(=O)OCc1cn(-c2ccccc2C(C)=O)nn1
 SMILES IDX 21 1 22 2 23 3 20 5 18 6 16 7 15 8 9 9 8 10 14 11 6 12 5 13
 SMILES IDX 10 14 11 16 12 17 13 18 7 20 4 22 2 23 1 25 3 26 17 27 19 29
 SMILES IDX 24 31 25 32 26 33 27 34 39 35 28 36 38 37 29 38 34 39 30 40
 SMILES IDX 33 41 31 42 32 43 35 44 37 45 36 46
 H PARENT 21 4 10 15 13 19 7 21 4 24 17 28 19 30
 Flexibility Score: inf
  4 active torsions:
  status: ('A' for Active; 'I' for Inactive)
    1  A    between atoms: CA   and  CB  
    2  A    between atoms: CB   and  CG  
    3  A    between atoms: CG   and  CD  
    4  A    between atoms: CD   and  CE  

>  <TORSDO>
F 16

>  <BEGIN_>
RES LYS A 131

$$$$
ligand_41_pose_10_2HRL.pdbqt
 OpenBabel07062320523D

  6  5  0  0  0  0  0  0  0  0999 V2000
   33.1930   34.6630    9.2900 C   0  0  0  0  0  0  0  0  0  0  0  0
   32.0600   35.3600   10.0340 C   0  0  0  0  0  0  0  0  0  0  0  0
   30.6910   35.0110    9.5100 C   0  0  0  0  0  0  0  0  0  0  0  0
   29.6720   34.9950   10.6390 C   0  0  0  0  0  0  0  0  0  0  0  0
   30.3670   34.8740   11.9820 C   0  0  0  0  0  0  0  0  0  0  0  0
   29.4900   35.3540   13.0860 N   0  0  0  0  0  0  0  0  0  0  0  0
  1  2  1  0  0  0  0
  3  2  1  0  0  0  0
  3  4  1  0  0  0  0
  4  5  1  0  0  0  0
  5  6  1  0  0  0  0
M  END
>  <EGIN_R>
ES LYS A 135

>  <REMARK>
  4 active torsions:
  status: ('A' for Active; 'I' for Inactive)
    5  A    between atoms: CA   and  CB  
    6  A    between atoms: CB   and  CG  
    7  A    between atoms: CG   and  CD  
    8  A    between atoms: CD   and  CE  

$$$$
