ligand_3_pose_5_2HRL.pdbqt
 OpenBabel07062320523D

 49 50  0  0  1  0  0  0  0  0999 V2000
   29.6170   32.0300   20.6560 C   0  0  0  0  0  0  0  0  0  0  0  0
   31.0020   31.4950   20.3500 C   0  0  2  0  0  0  0  0  0  0  0  0
   31.0100   29.9870   20.2320 C   0  0  1  0  0  0  0  0  0  0  0  0
   30.5560   29.3080   21.4810 C   0  0  2  0  0  0  0  0  0  0  0  0
   32.4580   28.6650   22.6990 C   0  0  2  0  0  0  0  0  0  0  0  0
   32.4070   27.2640   22.1990 C   0  0  0  0  0  0  0  0  0  0  0  0
   31.3640   29.4290   22.5490 O   0  0  0  0  0  0  0  0  0  0  0  0
   31.3790   27.0100   21.1370 C   0  0  1  0  0  0  0  0  0  0  0  0
   30.1650   27.8730   21.2740 C   0  0  1  0  0  0  0  0  0  0  0  0
   33.5270   29.2910   22.0210 O   0  0  0  0  0  0  0  0  0  0  0  0
   33.1720   29.5860   21.1350 H   0  0  0  0  0  0  0  0  0  0  0  0
   32.8450   28.6750   24.1360 C   0  0  0  0  0  0  0  0  0  0  0  0
   33.8900   29.2220   24.5490 O   0  0  0  0  0  0  0  0  0  0  0  0
   32.0330   28.0630   25.0650 O   0  0  0  0  0  0  0  0  0  0  0  0
   31.4170   28.5550   25.7000 H   0  0  0  0  0  0  0  0  0  0  0  0
   31.9460   27.1810   19.8620 O   0  0  0  0  0  0  0  0  0  0  0  0
   31.8340   26.3930   19.2940 H   0  0  0  0  0  0  0  0  0  0  0  0
   29.4520   27.4410   22.4790 N   0  0  0  0  0  0  0  0  0  0  0  0
   28.0440   27.2490   22.4860 C   0  0  0  0  0  0  0  0  0  0  0  0
   29.9600   27.2620   23.3710 H   0  0  0  0  0  0  0  0  0  0  0  0
   27.3030   26.8100   23.6980 C   0  0  0  0  0  0  0  0  0  0  0  0
   27.3610   27.4470   21.4430 O   0  0  0  0  0  0  0  0  0  0  0  0
   30.1510   29.6970   19.1590 O   0  0  0  0  0  0  0  0  0  0  0  0
   30.7610   29.3870   18.4240 H   0  0  0  0  0  0  0  0  0  0  0  0
   31.9430   31.9870   21.2370 O   0  0  0  0  0  0  0  0  0  0  0  0
   31.5510   32.3230   22.0690 H   0  0  0  0  0  0  0  0  0  0  0  0
   28.8530   32.3460   19.4900 N   0  0  0  0  0  0  0  0  0  0  0  0
   27.7130   31.6090   19.0700 C   0  0  0  0  0  0  0  0  0  0  0  0
   29.1210   33.1610   18.8900 H   0  0  0  0  0  0  0  0  0  0  0  0
   27.3090   30.6280   19.7080 O   0  0  0  0  0  0  0  0  0  0  0  0
   27.0060   31.9590   17.9260 O   0  0  0  0  0  0  0  0  0  0  0  0
   27.2630   31.2890   16.7010 C   0  0  0  0  0  0  0  0  0  0  0  0
   28.6180   31.6850   16.2570 C   0  0  0  0  0  0  0  0  0  0  0  0
   28.9640   32.8000   15.5270 C   0  0  0  0  0  0  0  0  0  0  0  0
   29.7550   31.0020   16.5010 N   0  0  0  0  0  0  0  0  0  0  0  0
   30.2950   32.7420   15.3620 N   0  0  0  0  0  0  0  0  0  0  0  0
   30.7570   31.6590   15.9520 N   0  0  0  0  0  0  0  0  0  0  0  0
   31.0690   33.7070   14.6590 C   0  0  0  0  0  0  0  0  0  0  0  0
   32.3400   34.0150   15.1110 C   0  0  0  0  0  0  0  0  0  0  0  0
   30.5630   34.3350   13.5360 C   0  0  0  0  0  0  0  0  0  0  0  0
   33.0650   34.9570   14.4040 C   0  0  0  0  0  0  0  0  0  0  0  0
   31.2960   35.2670   12.8470 C   0  0  0  0  0  0  0  0  0  0  0  0
   32.5620   35.5780   13.2910 C   0  0  0  0  0  0  0  0  0  0  0  0
   29.8670   25.5550   16.9770 C   0  0  0  0  0  0  0  0  0  0  0  0
   28.3450   25.7220   17.0260 C   0  0  0  0  0  0  0  0  0  0  0  0
   27.6020   24.3980   16.9300 C   0  0  0  0  0  0  0  0  0  0  0  0
   26.1550   24.5320   17.3150 C   0  0  0  0  0  0  0  0  0  0  0  0
   25.8610   23.6320   18.5110 C   0  0  0  0  0  0  0  0  0  0  0  0
   25.5120   24.4460   19.7000 N   0  0  0  0  0  0  0  0  0  0  0  0
  2  1  1  1  0  0  0
  2 25  1  0  0  0  0
  3 23  1  6  0  0  0
  3  2  1  0  0  0  0
  4  3  1  6  0  0  0
  4  7  1  0  0  0  0
  5 10  1  6  0  0  0
  5 12  1  0  0  0  0
  6  5  1  0  0  0  0
  7  5  1  0  0  0  0
  8 16  1  6  0  0  0
  8  9  1  0  0  0  0
  8  6  1  0  0  0  0
  9  4  1  0  0  0  0
  9 18  1  1  0  0  0
 11 10  1  0  0  0  0
 12 13  2  0  0  0  0
 12 14  1  0  0  0  0
 14 15  1  0  0  0  0
 17 16  1  0  0  0  0
 18 19  1  0  0  0  0
 18 20  1  0  0  0  0
 19 21  1  0  0  0  0
 22 19  2  0  0  0  0
 24 23  1  0  0  0  0
 25 26  1  0  0  0  0
 27  1  1  0  0  0  0
 28 27  1  0  0  0  0
 28 30  2  0  0  0  0
 29 27  1  0  0  0  0
 31 28  1  0  0  0  0
 32 31  1  0  0  0  0
 33 35  1  0  0  0  0
 33 32  1  0  0  0  0
 34 33  2  0  0  0  0
 36 34  1  0  0  0  0
 36 37  1  0  0  0  0
 37 35  2  0  0  0  0
 38 39  1  0  0  0  0
 38 36  1  0  0  0  0
 40 38  2  0  0  0  0
 41 39  2  0  0  0  0
 42 43  2  0  0  0  0
 42 40  1  0  0  0  0
 43 41  1  0  0  0  0
 44 45  1  0  0  0  0
 46 45  1  0  0  0  0
 46 47  1  0  0  0  0
 47 48  1  0  0  0  0
 48 49  1  0  0  0  0
M  END
>  <REMARK>
 VINA RESULT:    -5.769      8.775     14.694
 INTER + INTRA:         -14.469
 INTER:                  -8.602
 INTRA:                  -5.867
 UNBOUND:                -4.485
 SMILES CC(=O)N[C@@H]1[C@@H](O)C[C@](O)(C(=O)O)O[C@H]1C(O)[C@H](O)CNC(=O)OCc1cn(-c2ccccc2)nn1
 SMILES IDX 20 1 18 2 16 3 15 4 9 5 8 6 14 7 6 8 5 9 10 10 11 12 12 13
 SMILES IDX 13 14 7 16 4 18 2 19 1 21 3 22 17 23 19 25 21 27 22 28 23 30
 SMILES IDX 24 31 25 32 26 33 27 34 36 35 28 36 35 37 29 38 30 39 34 40
 SMILES IDX 31 41 33 42 32 43
 H PARENT 10 11 13 15 7 17 4 20 17 24 19 26 21 29
 Flexibility Score: inf
  4 active torsions:
  status: ('A' for Active; 'I' for Inactive)
    1  A    between atoms: CA   and  CB  
    2  A    between atoms: CB   and  CG  
    3  A    between atoms: CG   and  CD  
    4  A    between atoms: CD   and  CE  

>  <TORSDO>
F 15

>  <BEGIN_>
RES LYS A 131

$$$$
ligand_3_pose_5_2HRL.pdbqt
 OpenBabel07062320523D

  6  5  0  0  0  0  0  0  0  0999 V2000
   33.1930   34.6630    9.2900 C   0  0  0  0  0  0  0  0  0  0  0  0
   32.0600   35.3600   10.0340 C   0  0  0  0  0  0  0  0  0  0  0  0
   30.7940   35.4840    9.2250 C   0  0  0  0  0  0  0  0  0  0  0  0
   30.1290   34.1260    9.0590 C   0  0  0  0  0  0  0  0  0  0  0  0
   28.6650   34.2920    8.6980 C   0  0  0  0  0  0  0  0  0  0  0  0
   27.7850   33.6910    9.7380 N   0  0  0  0  0  0  0  0  0  0  0  0
  1  2  1  0  0  0  0
  3  2  1  0  0  0  0
  4  3  1  0  0  0  0
  5  4  1  0  0  0  0
  5  6  1  0  0  0  0
M  END
>  <EGIN_R>
ES LYS A 135

>  <REMARK>
  4 active torsions:
  status: ('A' for Active; 'I' for Inactive)
    5  A    between atoms: CA   and  CB  
    6  A    between atoms: CB   and  CG  
    7  A    between atoms: CG   and  CD  
    8  A    between atoms: CD   and  CE  

$$$$
