ligand_33_pose_2_2HRL.pdbqt
 OpenBabel07062320523D

 52 52  0  0  1  0  0  0  0  0999 V2000
   16.1750   31.5380   10.3770 C   0  0  0  0  0  0  0  0  0  0  0  0
   16.3930   32.9410   10.4730 O   0  0  0  0  0  0  0  0  0  0  0  0
   16.8700   33.6030    9.3350 C   0  0  0  0  0  0  0  0  0  0  0  0
   17.4000   34.9150    9.4940 N   0  0  0  0  0  0  0  0  0  0  0  0
   17.4100   35.3230   10.4660 H   0  0  0  0  0  0  0  0  0  0  0  0
   16.8060   33.0070    8.2320 O   0  0  0  0  0  0  0  0  0  0  0  0
   17.8880   35.6120    8.3480 C   0  0  0  0  0  0  0  0  0  0  0  0
   19.2830   35.2270    7.9200 C   0  0  2  0  0  0  0  0  0  0  0  0
   20.0620   36.4990    7.6460 C   0  0  2  0  0  0  0  0  0  0  0  0
   20.7210   37.0970    8.8440 C   0  0  2  0  0  0  0  0  0  0  0  0
   22.8010   37.2820    7.7830 C   0  0  2  0  0  0  0  0  0  0  0  0
   23.2000   36.0000    8.5320 C   0  0  0  0  0  0  0  0  0  0  0  0
   21.7610   37.8970    8.4200 O   0  0  0  0  0  0  0  0  0  0  0  0
   22.7200   36.2060    9.9480 C   0  0  1  0  0  0  0  0  0  0  0  0
   21.1810   36.1590    9.9010 C   0  0  1  0  0  0  0  0  0  0  0  0
   22.5910   36.9990    6.4360 O   0  0  0  0  0  0  0  0  0  0  0  0
   23.4360   36.6710    5.9930 H   0  0  0  0  0  0  0  0  0  0  0  0
   23.9770   38.1850    7.8730 C   0  0  0  0  0  0  0  0  0  0  0  0
   23.9100   39.2420    8.5700 O   0  0  0  0  0  0  0  0  0  0  0  0
   25.1310   37.8500    7.1880 O   0  0  0  0  0  0  0  0  0  0  0  0
   25.4670   36.8860    7.3190 H   0  0  0  0  0  0  0  0  0  0  0  0
   23.2070   35.2280   10.8140 O   0  0  0  0  0  0  0  0  0  0  0  0
   22.4160   34.8270   11.2620 H   0  0  0  0  0  0  0  0  0  0  0  0
   20.6560   36.5060   11.2140 N   0  0  0  0  0  0  0  0  0  0  0  0
   19.8790   35.6220   11.9880 C   0  0  0  0  0  0  0  0  0  0  0  0
   20.8740   37.4680   11.6010 H   0  0  0  0  0  0  0  0  0  0  0  0
   19.3470   36.0130   13.3440 C   0  0  0  0  0  0  0  0  0  0  0  0
   19.6260   34.4700   11.5190 O   0  0  0  0  0  0  0  0  0  0  0  0
   19.0550   37.4340    7.2690 O   0  0  0  0  0  0  0  0  0  0  0  0
   18.2230   37.1050    7.6820 H   0  0  0  0  0  0  0  0  0  0  0  0
   19.1840   34.3970    6.8260 O   0  0  0  0  0  0  0  0  0  0  0  0
   18.6500   34.8120    6.1030 H   0  0  0  0  0  0  0  0  0  0  0  0
   17.1390   30.9070   11.3080 C   0  0  0  0  0  0  0  0  0  0  0  0
   18.2420   30.1880   10.8960 C   0  0  0  0  0  0  0  0  0  0  0  0
   17.1330   30.9090   12.6400 N   0  0  0  0  0  0  0  0  0  0  0  0
   18.8550   29.7860   12.0310 N   0  0  0  0  0  0  0  0  0  0  0  0
   18.1830   30.2230   13.0730 N   0  0  0  0  0  0  0  0  0  0  0  0
   20.0790   28.9830   12.0010 C   0  0  0  0  0  0  0  0  0  0  0  0
   21.2120   29.8560   12.4730 C   0  0  0  0  0  0  0  0  0  0  0  0
   22.5610   29.1780   12.3690 C   0  0  0  0  0  0  0  0  0  0  0  0
   23.6780   30.0410   12.8440 C   0  0  0  0  0  0  0  0  0  0  0  0
   23.2300   31.2570   13.6080 C   0  0  0  0  0  0  0  0  0  0  0  0
   23.3670   32.5150   12.8590 C   0  0  0  0  0  0  0  0  0  0  0  0
   24.4610   33.0940   12.7660 O   0  0  0  0  0  0  0  0  0  0  0  0
   22.2540   33.0970   12.2270 O   0  0  0  0  0  0  0  0  0  0  0  0
   22.2420   33.2090   11.2080 H   0  0  0  0  0  0  0  0  0  0  0  0
   29.8670   25.5550   16.9770 C   0  0  0  0  0  0  0  0  0  0  0  0
   28.3450   25.7220   17.0260 C   0  0  0  0  0  0  0  0  0  0  0  0
   27.6000   24.4130   16.8160 C   0  0  0  0  0  0  0  0  0  0  0  0
   26.7870   24.0240   18.0190 C   0  0  0  0  0  0  0  0  0  0  0  0
   25.4840   23.3750   17.5650 C   0  0  0  0  0  0  0  0  0  0  0  0
   24.6220   24.3660   16.8780 N   0  0  0  0  0  0  0  0  0  0  0  0
  1  2  1  0  0  0  0
  1 33  1  0  0  0  0
  3  4  1  0  0  0  0
  3  2  1  0  0  0  0
  4  5  1  0  0  0  0
  6  3  2  0  0  0  0
  7  4  1  0  0  0  0
  8  7  1  6  0  0  0
  9 29  1  1  0  0  0
  9  8  1  0  0  0  0
 10  9  1  6  0  0  0
 10 15  1  0  0  0  0
 11 16  1  6  0  0  0
 11 18  1  0  0  0  0
 11 13  1  0  0  0  0
 11 12  1  0  0  0  0
 12 14  1  0  0  0  0
 13 10  1  0  0  0  0
 14 22  1  1  0  0  0
 15 14  1  0  0  0  0
 15 24  1  1  0  0  0
 17 16  1  0  0  0  0
 18 19  2  0  0  0  0
 20 21  1  0  0  0  0
 20 18  1  0  0  0  0
 22 23  1  0  0  0  0
 24 26  1  0  0  0  0
 24 25  1  0  0  0  0
 25 27  1  0  0  0  0
 28 25  2  0  0  0  0
 29 30  1  0  0  0  0
 31  8  1  0  0  0  0
 32 31  1  0  0  0  0
 33 35  1  0  0  0  0
 34 33  2  0  0  0  0
 34 36  1  0  0  0  0
 35 37  2  0  0  0  0
 36 37  1  0  0  0  0
 38 36  1  0  0  0  0
 38 39  1  0  0  0  0
 40 39  1  0  0  0  0
 40 41  1  0  0  0  0
 41 42  1  0  0  0  0
 43 42  1  0  0  0  0
 44 43  2  0  0  0  0
 45 43  1  0  0  0  0
 46 45  1  0  0  0  0
 47 48  1  0  0  0  0
 49 48  1  0  0  0  0
 49 50  1  0  0  0  0
 51 50  1  0  0  0  0
 52 51  1  0  0  0  0
M  END
>  <REMARK>
 VINA RESULT:    -4.544      3.166      7.037
 INTER + INTRA:         -15.244
 INTER:                  -8.839
 INTRA:                  -6.405
 UNBOUND:                -5.918
 SMILES CC(=O)N[C@@H]1[C@@H](O)C[C@](O)(C(=O)O)O[C@H]1C(O)[C@H](O)CNC(=O)OCc1cn(CCCCCC(=O)O)nn1
 SMILES IDX 25 1 24 2 22 3 21 4 23 6 20 7 18 8 16 9 15 10 9 11 8 12
 SMILES IDX 14 13 6 14 5 15 10 16 11 18 12 19 13 20 7 22 4 24 2 25 1 27
 SMILES IDX 3 28 17 29 19 31 26 33 27 34 38 35 28 36 37 37 29 38 30 39
 SMILES IDX 31 40 32 41 33 42 34 43 35 44 36 45
 H PARENT 21 5 10 17 13 21 7 23 4 26 17 30 19 32 36 46
 Flexibility Score: inf
  4 active torsions:
  status: ('A' for Active; 'I' for Inactive)
    1  A    between atoms: CA   and  CB  
    2  A    between atoms: CB   and  CG  
    3  A    between atoms: CG   and  CD  
    4  A    between atoms: CD   and  CE  

>  <TORSDO>
F 21

>  <BEGIN_>
RES LYS A 131

$$$$
ligand_33_pose_2_2HRL.pdbqt
 OpenBabel07062320523D

  6  5  0  0  0  0  0  0  0  0999 V2000
   33.1930   34.6630    9.2900 C   0  0  0  0  0  0  0  0  0  0  0  0
   32.0600   35.3600   10.0340 C   0  0  0  0  0  0  0  0  0  0  0  0
   30.8250   35.5660    9.1950 C   0  0  0  0  0  0  0  0  0  0  0  0
   30.0670   34.2580    9.0260 C   0  0  0  0  0  0  0  0  0  0  0  0
   28.7000   34.5090    8.4190 C   0  0  0  0  0  0  0  0  0  0  0  0
   28.8080   35.3040    7.1650 N   0  0  0  0  0  0  0  0  0  0  0  0
  1  2  1  0  0  0  0
  3  2  1  0  0  0  0
  4  3  1  0  0  0  0
  5  4  1  0  0  0  0
  6  5  1  0  0  0  0
M  END
>  <EGIN_R>
ES LYS A 135

>  <REMARK>
  4 active torsions:
  status: ('A' for Active; 'I' for Inactive)
    5  A    between atoms: CA   and  CB  
    6  A    between atoms: CB   and  CG  
    7  A    between atoms: CG   and  CD  
    8  A    between atoms: CD   and  CE  

$$$$
