ligand_58_pose_5_2HRL.pdbqt
 OpenBabel07062320523D

 56 58  0  0  1  0  0  0  0  0999 V2000
   25.3030   37.6310   10.6410 N   0  0  0  0  0  0  0  0  0  0  0  0
   26.3300   38.1540   11.4560 C   0  0  0  0  0  0  0  0  0  0  0  0
   26.8910   39.2330   11.1490 O   0  0  0  0  0  0  0  0  0  0  0  0
   24.8610   36.7330   10.9210 H   0  0  0  0  0  0  0  0  0  0  0  0
   24.8680   38.3050    9.4580 C   0  0  0  0  0  0  0  0  0  0  0  0
   25.3570   37.5220    8.2380 C   0  0  2  0  0  0  0  0  0  0  0  0
   26.4870   38.3510    7.6490 C   0  0  2  0  0  0  0  0  0  0  0  0
   27.8620   37.7860    7.8660 C   0  0  2  0  0  0  0  0  0  0  0  0
   29.0630   38.9490    6.2080 C   0  0  2  0  0  0  0  0  0  0  0  0
   29.2060   37.6880    5.3840 C   0  0  0  0  0  0  0  0  0  0  0  0
   28.7610   38.7740    7.5150 O   0  0  0  0  0  0  0  0  0  0  0  0
   28.1400   36.6750    5.6770 C   0  0  1  0  0  0  0  0  0  0  0  0
   28.0790   36.5040    7.1650 C   0  0  1  0  0  0  0  0  0  0  0  0
   28.0300   39.6710    5.6070 O   0  0  0  0  0  0  0  0  0  0  0  0
   28.1660   40.6270    5.8630 H   0  0  0  0  0  0  0  0  0  0  0  0
   30.3150   39.7710    6.0300 C   0  0  0  0  0  0  0  0  0  0  0  0
   30.2720   40.9360    5.6240 O   0  0  0  0  0  0  0  0  0  0  0  0
   31.5230   39.1880    6.3340 O   0  0  0  0  0  0  0  0  0  0  0  0
   32.3780   39.7530    6.2790 H   0  0  0  0  0  0  0  0  0  0  0  0
   26.9730   37.0940    5.1020 O   0  0  0  0  0  0  0  0  0  0  0  0
   26.2290   36.4540    5.2750 H   0  0  0  0  0  0  0  0  0  0  0  0
   29.3560   35.8850    7.5750 N   0  0  0  0  0  0  0  0  0  0  0  0
   29.4060   34.7130    8.3490 C   0  0  0  0  0  0  0  0  0  0  0  0
   30.2400   36.3480    7.2730 H   0  0  0  0  0  0  0  0  0  0  0  0
   30.7140   34.1240    8.7400 C   0  0  0  0  0  0  0  0  0  0  0  0
   28.3430   34.1460    8.7220 O   0  0  0  0  0  0  0  0  0  0  0  0
   26.4180   39.6010    8.3670 O   0  0  0  0  0  0  0  0  0  0  0  0
   25.6860   40.1460    8.0410 H   0  0  0  0  0  0  0  0  0  0  0  0
   24.2610   37.4440    7.3920 O   0  0  0  0  0  0  0  0  0  0  0  0
   24.3730   37.9510    6.5650 H   0  0  0  0  0  0  0  0  0  0  0  0
   26.7540   37.5050   12.6100 O   0  0  0  0  0  0  0  0  0  0  0  0
   28.0710   37.6940   13.0480 C   0  0  0  0  0  0  0  0  0  0  0  0
   28.7750   36.3850   13.0380 C   0  0  0  0  0  0  0  0  0  0  0  0
   29.5120   35.8590   14.1030 C   0  0  0  0  0  0  0  0  0  0  0  0
   28.8750   35.4540   12.0740 N   0  0  0  0  0  0  0  0  0  0  0  0
   30.0060   34.6720   13.7430 N   0  0  0  0  0  0  0  0  0  0  0  0
   29.6130   34.4440   12.5180 N   0  0  0  0  0  0  0  0  0  0  0  0
   30.8320   33.7700   14.5320 C   0  0  0  0  0  0  0  0  0  0  0  0
   31.8770   34.4930   15.2580 C   0  0  0  0  0  0  0  0  0  0  0  0
   31.7250   34.8730   16.5970 C   0  0  0  0  0  0  0  0  0  0  0  0
   33.0660   34.8030   14.6290 C   0  0  0  0  0  0  0  0  0  0  0  0
   32.7330   35.5370   17.2610 C   0  0  0  0  0  0  0  0  0  0  0  0
   34.0600   35.4700   15.3170 C   0  0  0  0  0  0  0  0  0  0  0  0
   33.9230   35.8510   16.6360 C   0  0  0  0  0  0  0  0  0  0  0  0
   30.0600   32.7940   15.3050 C   0  0  0  0  0  0  0  0  0  0  0  0
   28.6710   32.9490   15.4610 C   0  0  0  0  0  0  0  0  0  0  0  0
   30.6760   31.7110   15.8820 C   0  0  0  0  0  0  0  0  0  0  0  0
   27.9420   32.0340   16.1760 C   0  0  0  0  0  0  0  0  0  0  0  0
   29.9220   30.7840   16.6110 C   0  0  0  0  0  0  0  0  0  0  0  0
   28.5640   30.9490   16.7540 C   0  0  0  0  0  0  0  0  0  0  0  0
   29.8670   25.5550   16.9770 C   0  0  0  0  0  0  0  0  0  0  0  0
   28.3450   25.7220   17.0260 C   0  0  0  0  0  0  0  0  0  0  0  0
   27.6000   24.4100   16.8330 C   0  0  0  0  0  0  0  0  0  0  0  0
   26.5600   24.1880   17.8960 C   0  0  0  0  0  0  0  0  0  0  0  0
   25.8910   25.5150   18.2390 C   0  0  0  0  0  0  0  0  0  0  0  0
   25.9050   25.7390   19.7040 N   0  0  0  0  0  0  0  0  0  0  0  0
  1  4  1  0  0  0  0
  1  2  1  0  0  0  0
  2 31  1  0  0  0  0
  3  2  2  0  0  0  0
  5  1  1  0  0  0  0
  6  5  1  1  0  0  0
  7  6  1  0  0  0  0
  7 27  1  1  0  0  0
  8  7  1  6  0  0  0
  9 14  1  6  0  0  0
  9 11  1  0  0  0  0
 10 12  1  0  0  0  0
 10  9  1  0  0  0  0
 11  8  1  0  0  0  0
 12 20  1  1  0  0  0
 12 13  1  0  0  0  0
 13 22  1  1  0  0  0
 13  8  1  0  0  0  0
 14 15  1  0  0  0  0
 16  9  1  0  0  0  0
 16 18  1  0  0  0  0
 17 16  2  0  0  0  0
 19 18  1  0  0  0  0
 20 21  1  0  0  0  0
 22 23  1  0  0  0  0
 23 26  2  0  0  0  0
 23 25  1  0  0  0  0
 24 22  1  0  0  0  0
 28 27  1  0  0  0  0
 29  6  1  0  0  0  0
 30 29  1  0  0  0  0
 31 32  1  0  0  0  0
 33 32  1  0  0  0  0
 33 34  2  0  0  0  0
 35 37  2  0  0  0  0
 35 33  1  0  0  0  0
 36 34  1  0  0  0  0
 36 38  1  0  0  0  0
 37 36  1  0  0  0  0
 38 39  1  0  0  0  0
 38 45  1  0  0  0  0
 39 40  1  0  0  0  0
 40 42  2  0  0  0  0
 41 39  2  0  0  0  0
 41 43  1  0  0  0  0
 43 44  2  0  0  0  0
 44 42  1  0  0  0  0
 45 46  2  0  0  0  0
 45 47  1  0  0  0  0
 46 48  1  0  0  0  0
 47 49  2  0  0  0  0
 48 50  2  0  0  0  0
 49 50  1  0  0  0  0
 51 52  1  0  0  0  0
 53 52  1  0  0  0  0
 53 54  1  0  0  0  0
 54 55  1  0  0  0  0
 55 56  1  0  0  0  0
M  END
>  <REMARK>
 VINA RESULT:    -5.914      3.900      9.989
 INTER + INTRA:         -16.417
 INTER:                 -11.989
 INTRA:                  -4.428
 UNBOUND:                -5.490
 SMILES CC(=O)N[C@@H]1[C@@H](O)C[C@](O)(C(=O)O)O[C@H]1C(O)[C@H](O)CNC(=O)OCc1cn(C(c2ccccc2)c2ccccc2)nn1
 SMILES IDX 21 1 22 2 23 3 20 5 18 6 16 7 15 8 9 9 8 10 14 11 6 12 5 13
 SMILES IDX 10 14 11 16 12 17 13 18 7 20 4 22 2 23 1 25 3 26 17 27 19 29
 SMILES IDX 24 31 25 32 26 33 27 34 43 35 28 36 42 37 29 38 30 39 31 40
 SMILES IDX 35 41 32 42 34 43 33 44 36 45 37 46 41 47 38 48 40 49 39 50
 H PARENT 21 4 10 15 13 19 7 21 4 24 17 28 19 30
 Flexibility Score: inf
  4 active torsions:
  status: ('A' for Active; 'I' for Inactive)
    1  A    between atoms: CA   and  CB  
    2  A    between atoms: CB   and  CG  
    3  A    between atoms: CG   and  CD  
    4  A    between atoms: CD   and  CE  

>  <TORSDO>
F 17

>  <BEGIN_>
RES LYS A 131

$$$$
ligand_58_pose_5_2HRL.pdbqt
 OpenBabel07062320523D

  6  5  0  0  0  0  0  0  0  0999 V2000
   33.1930   34.6630    9.2900 C   0  0  0  0  0  0  0  0  0  0  0  0
   32.0600   35.3600   10.0340 C   0  0  0  0  0  0  0  0  0  0  0  0
   32.5050   36.0540   11.2960 C   0  0  0  0  0  0  0  0  0  0  0  0
   31.8690   37.4310   11.4030 C   0  0  0  0  0  0  0  0  0  0  0  0
   31.3640   37.8920   10.0490 C   0  0  0  0  0  0  0  0  0  0  0  0
   31.9030   39.2360    9.7040 N   0  0  0  0  0  0  0  0  0  0  0  0
  1  2  1  0  0  0  0
  2  3  1  0  0  0  0
  3  4  1  0  0  0  0
  5  4  1  0  0  0  0
  6  5  1  0  0  0  0
M  END
>  <EGIN_R>
ES LYS A 135

>  <REMARK>
  4 active torsions:
  status: ('A' for Active; 'I' for Inactive)
    5  A    between atoms: CA   and  CB  
    6  A    between atoms: CB   and  CG  
    7  A    between atoms: CG   and  CD  
    8  A    between atoms: CD   and  CE  

$$$$
