ligand_2_pose_2_2HRL.pdbqt
 OpenBabel07062320523D

 50 51  0  0  1  0  0  0  0  0999 V2000
   26.5930   27.7230   19.6840 C   0  0  0  0  0  0  0  0  0  0  0  0
   26.9910   28.0350   21.0920 C   0  0  2  0  0  0  0  0  0  0  0  0
   28.5260   27.9960   21.1670 C   0  0  2  0  0  0  0  0  0  0  0  0
   29.0910   29.3720   21.5130 C   0  0  2  0  0  0  0  0  0  0  0  0
   29.0900   30.8480   19.6870 C   0  0  2  0  0  0  0  0  0  0  0  0
   30.3750   31.5550   20.0600 C   0  0  0  0  0  0  0  0  0  0  0  0
   28.4220   30.2760   20.7140 O   0  0  0  0  0  0  0  0  0  0  0  0
   30.9340   30.9300   21.2870 C   0  0  1  0  0  0  0  0  0  0  0  0
   30.5470   29.4640   21.3020 C   0  0  1  0  0  0  0  0  0  0  0  0
   29.4110   29.9790   18.6470 O   0  0  0  0  0  0  0  0  0  0  0  0
   28.6240   29.3900   18.5260 H   0  0  0  0  0  0  0  0  0  0  0  0
   28.2070   31.8970   19.1150 C   0  0  0  0  0  0  0  0  0  0  0  0
   28.7450   32.9220   18.6370 O   0  0  0  0  0  0  0  0  0  0  0  0
   26.8460   31.7730   19.0980 O   0  0  0  0  0  0  0  0  0  0  0  0
   26.2970   32.3170   18.4280 H   0  0  0  0  0  0  0  0  0  0  0  0
   32.3040   31.1110   21.4280 O   0  0  0  0  0  0  0  0  0  0  0  0
   32.7980   30.4860   20.8580 H   0  0  0  0  0  0  0  0  0  0  0  0
   31.3970   28.8060   22.2340 N   0  0  0  0  0  0  0  0  0  0  0  0
   32.0530   27.5820   21.9600 C   0  0  0  0  0  0  0  0  0  0  0  0
   31.5160   29.2900   23.1630 H   0  0  0  0  0  0  0  0  0  0  0  0
   32.9290   26.9280   22.9530 C   0  0  0  0  0  0  0  0  0  0  0  0
   31.8250   27.1100   20.8130 O   0  0  0  0  0  0  0  0  0  0  0  0
   29.0460   27.5630   19.9430 O   0  0  0  0  0  0  0  0  0  0  0  0
   29.2940   26.5970   19.9720 H   0  0  0  0  0  0  0  0  0  0  0  0
   26.4270   27.1870   22.0170 O   0  0  0  0  0  0  0  0  0  0  0  0
   25.5110   26.9040   21.8520 H   0  0  0  0  0  0  0  0  0  0  0  0
   26.3550   28.8390   18.8300 N   0  0  0  0  0  0  0  0  0  0  0  0
   25.1610   29.0660   18.1020 C   0  0  0  0  0  0  0  0  0  0  0  0
   27.1140   29.5670   18.7170 H   0  0  0  0  0  0  0  0  0  0  0  0
   24.1980   28.2840   18.1630 O   0  0  0  0  0  0  0  0  0  0  0  0
   25.0420   30.2030   17.2790 O   0  0  0  0  0  0  0  0  0  0  0  0
   25.3990   30.1430   15.9010 C   0  0  0  0  0  0  0  0  0  0  0  0
   26.8550   30.4180   15.8240 C   0  0  0  0  0  0  0  0  0  0  0  0
   27.4300   31.6140   15.5090 C   0  0  0  0  0  0  0  0  0  0  0  0
   27.8370   29.5570   16.0470 N   0  0  0  0  0  0  0  0  0  0  0  0
   28.7670   31.4330   15.5520 N   0  0  0  0  0  0  0  0  0  0  0  0
   28.9980   30.1750   15.8810 N   0  0  0  0  0  0  0  0  0  0  0  0
   29.7060   32.4760   15.2750 C   0  0  0  0  0  0  0  0  0  0  0  0
   29.2990   33.5820   14.5680 C   0  0  0  0  0  0  0  0  0  0  0  0
   30.9890   32.3210   15.7350 C   0  0  0  0  0  0  0  0  0  0  0  0
   30.2380   34.5650   14.3230 C   0  0  0  0  0  0  0  0  0  0  0  0
   31.9030   33.3230   15.4730 C   0  0  0  0  0  0  0  0  0  0  0  0
   31.5460   34.4470   14.7710 C   0  0  0  0  0  0  0  0  0  0  0  0
   32.7470   35.6730   14.4730 Cl  0  0  0  0  0  0  0  0  0  0  0  0
   29.8670   25.5550   16.9770 C   0  0  0  0  0  0  0  0  0  0  0  0
   28.3450   25.7220   17.0260 C   0  0  0  0  0  0  0  0  0  0  0  0
   27.6020   24.3980   16.9320 C   0  0  0  0  0  0  0  0  0  0  0  0
   26.1610   24.5270   17.3430 C   0  0  0  0  0  0  0  0  0  0  0  0
   25.8090   23.4090   18.3190 C   0  0  0  0  0  0  0  0  0  0  0  0
   25.4590   23.9700   19.6460 N   0  0  0  0  0  0  0  0  0  0  0  0
  2  1  1  6  0  0  0
  2  3  1  0  0  0  0
  2 25  1  0  0  0  0
  3 23  1  6  0  0  0
  4  3  1  6  0  0  0
  5 10  1  6  0  0  0
  5  6  1  0  0  0  0
  5  7  1  0  0  0  0
  6  8  1  0  0  0  0
  7  4  1  0  0  0  0
  8  9  1  0  0  0  0
  8 16  1  6  0  0  0
  9  4  1  0  0  0  0
  9 18  1  1  0  0  0
 11 10  1  0  0  0  0
 12  5  1  0  0  0  0
 13 12  2  0  0  0  0
 14 12  1  0  0  0  0
 15 14  1  0  0  0  0
 17 16  1  0  0  0  0
 18 20  1  0  0  0  0
 19 18  1  0  0  0  0
 19 21  1  0  0  0  0
 22 19  2  0  0  0  0
 23 24  1  0  0  0  0
 26 25  1  0  0  0  0
 27  1  1  0  0  0  0
 28 30  2  0  0  0  0
 28 27  1  0  0  0  0
 29 27  1  0  0  0  0
 31 28  1  0  0  0  0
 32 31  1  0  0  0  0
 33 32  1  0  0  0  0
 33 35  1  0  0  0  0
 34 36  1  0  0  0  0
 34 33  2  0  0  0  0
 36 37  1  0  0  0  0
 37 35  2  0  0  0  0
 38 36  1  0  0  0  0
 38 40  2  0  0  0  0
 39 38  1  0  0  0  0
 41 39  2  0  0  0  0
 41 43  1  0  0  0  0
 42 40  1  0  0  0  0
 43 42  2  0  0  0  0
 44 43  1  0  0  0  0
 45 46  1  0  0  0  0
 47 46  1  0  0  0  0
 47 48  1  0  0  0  0
 48 49  1  0  0  0  0
 49 50  1  0  0  0  0
M  END
>  <REMARK>
 VINA RESULT:    -4.560      2.381      4.406
 INTER + INTRA:         -14.900
 INTER:                  -8.352
 INTRA:                  -6.547
 UNBOUND:                -7.007
 SMILES CC(=O)N[C@@H]1[C@@H](O)C[C@](O)(C(=O)O)O[C@H]1C(O)[C@H](O)CNC(=O)OCc1cn(-c2ccc(Cl)cc2)nn1
 SMILES IDX 20 1 18 2 16 3 15 4 9 5 8 6 14 7 6 8 5 9 10 10 11 12 12 13
 SMILES IDX 13 14 7 16 4 18 2 19 1 21 3 22 17 23 19 25 21 27 22 28 23 30
 SMILES IDX 24 31 25 32 26 33 27 34 37 35 28 36 36 37 29 38 30 39 35 40
 SMILES IDX 31 41 34 42 32 43 33 44
 H PARENT 10 11 13 15 7 17 4 20 17 24 19 26 21 29
 Flexibility Score: inf
  4 active torsions:
  status: ('A' for Active; 'I' for Inactive)
    1  A    between atoms: CA   and  CB  
    2  A    between atoms: CB   and  CG  
    3  A    between atoms: CG   and  CD  
    4  A    between atoms: CD   and  CE  

>  <TORSDO>
F 15

>  <BEGIN_>
RES LYS A 131

$$$$
ligand_2_pose_2_2HRL.pdbqt
 OpenBabel07062320523D

  6  5  0  0  0  0  0  0  0  0999 V2000
   33.1930   34.6630    9.2900 C   0  0  0  0  0  0  0  0  0  0  0  0
   32.0600   35.3600   10.0340 C   0  0  0  0  0  0  0  0  0  0  0  0
   30.6950   35.0610    9.4700 C   0  0  0  0  0  0  0  0  0  0  0  0
   29.6880   34.8410   10.5890 C   0  0  0  0  0  0  0  0  0  0  0  0
   28.8640   36.0930   10.8170 C   0  0  0  0  0  0  0  0  0  0  0  0
   28.0940   36.4590    9.5960 N   0  0  0  0  0  0  0  0  0  0  0  0
  1  2  1  0  0  0  0
  3  2  1  0  0  0  0
  3  4  1  0  0  0  0
  4  5  1  0  0  0  0
  6  5  1  0  0  0  0
M  END
>  <EGIN_R>
ES LYS A 135

>  <REMARK>
  4 active torsions:
  status: ('A' for Active; 'I' for Inactive)
    5  A    between atoms: CA   and  CB  
    6  A    between atoms: CB   and  CG  
    7  A    between atoms: CG   and  CD  
    8  A    between atoms: CD   and  CE  

$$$$
