ligand_63_pose_3_2HRL.pdbqt
 OpenBabel07062320523D

 51 52  0  0  1  0  0  0  0  0999 V2000
   29.3970   39.3810   15.4960 N   0  0  0  0  0  0  0  0  0  0  0  0
   28.2660   39.4530   14.6130 C   0  0  0  0  0  0  0  0  0  0  0  0
   27.1640   38.9970   14.9350 O   0  0  0  0  0  0  0  0  0  0  0  0
   30.2740   39.8410   15.0820 H   0  0  0  0  0  0  0  0  0  0  0  0
   29.3850   38.8320   16.7660 C   0  0  0  0  0  0  0  0  0  0  0  0
   30.3200   37.6300   17.0490 C   0  0  2  0  0  0  0  0  0  0  0  0
   30.2340   36.8100   15.8200 C   0  0  1  0  0  0  0  0  0  0  0  0
   31.4130   36.6970   14.9220 C   0  0  2  0  0  0  0  0  0  0  0  0
   31.1960   37.3850   12.6840 C   0  0  2  0  0  0  0  0  0  0  0  0
   32.3670   36.5670   12.1980 C   0  0  0  0  0  0  0  0  0  0  0  0
   31.3510   37.7880   14.0120 O   0  0  0  0  0  0  0  0  0  0  0  0
   32.9210   35.7000   13.3470 C   0  0  1  0  0  0  0  0  0  0  0  0
   31.6720   35.4410   14.2250 C   0  0  1  0  0  0  0  0  0  0  0  0
   30.0030   36.7250   12.4290 O   0  0  0  0  0  0  0  0  0  0  0  0
   30.0990   35.8580   12.0090 H   0  0  0  0  0  0  0  0  0  0  0  0
   31.2430   38.6490   11.9200 C   0  0  0  0  0  0  0  0  0  0  0  0
   31.2390   38.8730   10.7710 O   0  0  0  0  0  0  0  0  0  0  0  0
   31.3030   39.8270   12.8110 O   0  0  0  0  0  0  0  0  0  0  0  0
   32.2270   40.0360   13.1980 H   0  0  0  0  0  0  0  0  0  0  0  0
   33.4570   34.5310   12.8720 O   0  0  0  0  0  0  0  0  0  0  0  0
   33.2230   34.3750   11.9400 H   0  0  0  0  0  0  0  0  0  0  0  0
   32.0110   34.3210   15.1150 N   0  0  0  0  0  0  0  0  0  0  0  0
   31.1720   33.1960   15.1250 C   0  0  0  0  0  0  0  0  0  0  0  0
   32.8360   34.3670   15.6810 H   0  0  0  0  0  0  0  0  0  0  0  0
   31.1640   31.9440   15.7860 C   0  0  0  0  0  0  0  0  0  0  0  0
   30.1410   33.4130   14.2590 O   0  0  0  0  0  0  0  0  0  0  0  0
   29.4810   35.6890   16.0130 O   0  0  0  0  0  0  0  0  0  0  0  0
   29.6220   35.2800   16.9070 H   0  0  0  0  0  0  0  0  0  0  0  0
   29.8720   37.0960   18.2240 O   0  0  0  0  0  0  0  0  0  0  0  0
   29.7650   36.1180   18.1250 H   0  0  0  0  0  0  0  0  0  0  0  0
   28.4280   40.0600   13.3660 O   0  0  0  0  0  0  0  0  0  0  0  0
   27.2940   40.3000   12.5050 C   0  0  0  0  0  0  0  0  0  0  0  0
   27.4730   39.2620   11.4250 C   0  0  0  0  0  0  0  0  0  0  0  0
   27.6120   39.4950   10.0880 C   0  0  0  0  0  0  0  0  0  0  0  0
   27.6090   37.9540   11.6420 N   0  0  0  0  0  0  0  0  0  0  0  0
   27.8440   38.2700    9.5240 N   0  0  0  0  0  0  0  0  0  0  0  0
   27.8350   37.3590   10.5070 N   0  0  0  0  0  0  0  0  0  0  0  0
   28.0770   37.9940    8.1810 C   0  0  0  0  0  0  0  0  0  0  0  0
   29.2250   38.4810    7.5480 N   0  0  0  0  0  0  0  0  0  0  0  0
   27.2130   37.3370    7.3300 C   0  0  0  0  0  0  0  0  0  0  0  0
   29.3920   38.3050    6.3050 C   0  0  0  0  0  0  0  0  0  0  0  0
   27.4000   37.1640    6.0320 C   0  0  0  0  0  0  0  0  0  0  0  0
   28.5600   37.6510    5.3610 C   0  0  0  0  0  0  0  0  0  0  0  0
   25.9070   36.8370    7.9090 C   0  0  0  0  0  0  0  0  0  0  0  0
   25.0270   36.5180    8.2890 N   0  0  0  0  0  0  0  0  0  0  0  0
   29.8670   25.5550   16.9770 C   0  0  0  0  0  0  0  0  0  0  0  0
   28.3450   25.7220   17.0260 C   0  0  0  0  0  0  0  0  0  0  0  0
   27.6030   24.3950   16.9730 C   0  0  0  0  0  0  0  0  0  0  0  0
   26.7040   24.2010   18.1620 C   0  0  0  0  0  0  0  0  0  0  0  0
   25.2820   23.9220   17.6850 C   0  0  0  0  0  0  0  0  0  0  0  0
   25.0800   22.4680   17.4810 N   0  0  0  0  0  0  0  0  0  0  0  0
  1  5  1  0  0  0  0
  2  3  2  0  0  0  0
  2  1  1  0  0  0  0
  4  1  1  0  0  0  0
  6  5  1  6  0  0  0
  6 29  1  0  0  0  0
  7 27  1  1  0  0  0
  7  6  1  0  0  0  0
  8  7  1  6  0  0  0
  9 16  1  6  0  0  0
  9 11  1  0  0  0  0
 10  9  1  0  0  0  0
 10 12  1  0  0  0  0
 11  8  1  0  0  0  0
 12 20  1  6  0  0  0
 12 13  1  0  0  0  0
 13  8  1  0  0  0  0
 13 22  1  1  0  0  0
 14  9  1  0  0  0  0
 15 14  1  0  0  0  0
 16 18  1  0  0  0  0
 17 16  2  0  0  0  0
 18 19  1  0  0  0  0
 21 20  1  0  0  0  0
 22 23  1  0  0  0  0
 22 24  1  0  0  0  0
 23 25  1  0  0  0  0
 26 23  2  0  0  0  0
 27 28  1  0  0  0  0
 30 29  1  0  0  0  0
 31  2  1  0  0  0  0
 32 31  1  0  0  0  0
 33 35  1  0  0  0  0
 33 32  1  0  0  0  0
 34 33  2  0  0  0  0
 36 34  1  0  0  0  0
 36 37  1  0  0  0  0
 37 35  2  0  0  0  0
 38 36  1  0  0  0  0
 39 38  1  0  0  0  0
 40 44  1  0  0  0  0
 40 38  2  0  0  0  0
 41 39  2  0  0  0  0
 42 40  1  0  0  0  0
 43 42  2  0  0  0  0
 43 41  1  0  0  0  0
 44 45  3  0  0  0  0
 46 47  1  0  0  0  0
 48 47  1  0  0  0  0
 48 49  1  0  0  0  0
 50 49  1  0  0  0  0
 51 50  1  0  0  0  0
M  END
>  <REMARK>
 VINA RESULT:    -4.284      3.270      7.600
 INTER + INTRA:         -14.707
 INTER:                  -8.048
 INTRA:                  -6.660
 UNBOUND:                -7.042
 SMILES CC(=O)N[C@@H]1[C@@H](O)C[C@](O)(C(=O)O)O[C@H]1C(O)[C@H](O)CNC(=O)OCc1cn(-c2ncccc2C#N)nn1
 SMILES IDX 21 1 22 2 23 3 20 5 18 6 16 7 15 8 9 9 8 10 14 11 6 12 5 13
 SMILES IDX 10 14 11 16 12 17 13 18 7 20 4 22 2 23 1 25 3 26 17 27 19 29
 SMILES IDX 24 31 25 32 26 33 27 34 38 35 28 36 37 37 29 38 30 39 34 40
 SMILES IDX 31 41 33 42 32 43 35 44 36 45
 H PARENT 21 4 10 15 13 19 7 21 4 24 17 28 19 30
 Flexibility Score: inf
  4 active torsions:
  status: ('A' for Active; 'I' for Inactive)
    1  A    between atoms: CA   and  CB  
    2  A    between atoms: CB   and  CG  
    3  A    between atoms: CG   and  CD  
    4  A    between atoms: CD   and  CE  

>  <TORSDO>
F 16

>  <BEGIN_>
RES LYS A 131

$$$$
ligand_63_pose_3_2HRL.pdbqt
 OpenBabel07062320523D

  6  5  0  0  0  0  0  0  0  0999 V2000
   33.1930   34.6630    9.2900 C   0  0  0  0  0  0  0  0  0  0  0  0
   32.0600   35.3600   10.0340 C   0  0  0  0  0  0  0  0  0  0  0  0
   30.7910   35.4740    9.2290 C   0  0  0  0  0  0  0  0  0  0  0  0
   30.0370   34.1530    9.2250 C   0  0  0  0  0  0  0  0  0  0  0  0
   28.6530   34.3320    8.6310 C   0  0  0  0  0  0  0  0  0  0  0  0
   27.6050   33.7920    9.5410 N   0  0  0  0  0  0  0  0  0  0  0  0
  1  2  1  0  0  0  0
  3  2  1  0  0  0  0
  4  3  1  0  0  0  0
  5  4  1  0  0  0  0
  5  6  1  0  0  0  0
M  END
>  <EGIN_R>
ES LYS A 135

>  <REMARK>
  4 active torsions:
  status: ('A' for Active; 'I' for Inactive)
    5  A    between atoms: CA   and  CB  
    6  A    between atoms: CB   and  CG  
    7  A    between atoms: CG   and  CD  
    8  A    between atoms: CD   and  CE  

$$$$
