ligand_42_pose_18_2HRL.pdbqt
 OpenBabel07062320523D

 52 54  0  0  1  0  0  0  0  0999 V2000
   30.6690   36.7790   13.1590 C   0  0  0  0  0  0  0  0  0  0  0  0
   30.1450   35.4590   12.7000 C   0  0  2  0  0  0  0  0  0  0  0  0
   28.9730   34.9960   13.5820 C   0  0  1  0  0  0  0  0  0  0  0  0
   27.7530   35.0000   12.7330 C   0  0  2  0  0  0  0  0  0  0  0  0
   26.9160   35.3100   10.6360 C   0  0  2  0  0  0  0  0  0  0  0  0
   25.6710   34.8440   11.3610 C   0  0  0  0  0  0  0  0  0  0  0  0
   28.0550   35.2510   11.3990 O   0  0  0  0  0  0  0  0  0  0  0  0
   25.4240   35.6280   12.6350 C   0  0  1  0  0  0  0  0  0  0  0  0
   26.7500   36.0750   13.1510 C   0  0  1  0  0  0  0  0  0  0  0  0
   26.6390   36.5980   10.1730 O   0  0  0  0  0  0  0  0  0  0  0  0
   27.3810   36.8270    9.5510 H   0  0  0  0  0  0  0  0  0  0  0  0
   27.1040   34.3980    9.4840 C   0  0  0  0  0  0  0  0  0  0  0  0
   26.4170   34.5670    8.4490 O   0  0  0  0  0  0  0  0  0  0  0  0
   28.0140   33.3550    9.4950 O   0  0  0  0  0  0  0  0  0  0  0  0
   27.7500   32.3800    9.3950 H   0  0  0  0  0  0  0  0  0  0  0  0
   24.6120   36.7210   12.2600 O   0  0  0  0  0  0  0  0  0  0  0  0
   24.5100   37.3490   12.9980 H   0  0  0  0  0  0  0  0  0  0  0  0
   26.8030   36.3920   14.5310 N   0  0  0  0  0  0  0  0  0  0  0  0
   26.4470   37.6280   15.1340 C   0  0  0  0  0  0  0  0  0  0  0  0
   27.1350   35.6490   15.1850 H   0  0  0  0  0  0  0  0  0  0  0  0
   26.5400   37.8590   16.6060 C   0  0  0  0  0  0  0  0  0  0  0  0
   26.0440   38.5390   14.3750 O   0  0  0  0  0  0  0  0  0  0  0  0
   29.2820   33.7510   14.0590 O   0  0  0  0  0  0  0  0  0  0  0  0
   28.6910   33.0190   13.8560 H   0  0  0  0  0  0  0  0  0  0  0  0
   31.1070   34.4860   12.7340 O   0  0  0  0  0  0  0  0  0  0  0  0
   30.8390   33.5900   12.4370 H   0  0  0  0  0  0  0  0  0  0  0  0
   31.5240   36.6560   14.2870 N   0  0  0  0  0  0  0  0  0  0  0  0
   31.1230   36.9390   15.6020 C   0  0  0  0  0  0  0  0  0  0  0  0
   32.5330   36.3350   14.1650 H   0  0  0  0  0  0  0  0  0  0  0  0
   29.9950   37.3360   15.9380 O   0  0  0  0  0  0  0  0  0  0  0  0
   32.0520   36.7670   16.6440 O   0  0  0  0  0  0  0  0  0  0  0  0
   32.9840   35.7320   16.5650 C   0  0  0  0  0  0  0  0  0  0  0  0
   32.2720   34.4540   16.3070 C   0  0  0  0  0  0  0  0  0  0  0  0
   31.4330   33.7850   17.1910 C   0  0  0  0  0  0  0  0  0  0  0  0
   32.2870   33.6940   15.1980 N   0  0  0  0  0  0  0  0  0  0  0  0
   30.9710   32.6640   16.6110 N   0  0  0  0  0  0  0  0  0  0  0  0
   31.5110   32.6470   15.4060 N   0  0  0  0  0  0  0  0  0  0  0  0
   30.0860   31.7190   17.2020 C   0  0  0  0  0  0  0  0  0  0  0  0
   30.1410   31.4590   18.5560 C   0  0  0  0  0  0  0  0  0  0  0  0
   29.1440   31.0240   16.4710 C   0  0  0  0  0  0  0  0  0  0  0  0
   29.2830   30.5370   19.1550 C   0  0  0  0  0  0  0  0  0  0  0  0
   28.2770   30.0980   17.0480 C   0  0  0  0  0  0  0  0  0  0  0  0
   28.3510   29.8560   18.4020 C   0  0  0  0  0  0  0  0  0  0  0  0
   27.2640   29.2880   16.5400 O   0  0  0  0  0  0  0  0  0  0  0  0
   27.3700   28.8920   18.6910 O   0  0  0  0  0  0  0  0  0  0  0  0
   26.9980   28.2500   17.4660 C   0  0  0  0  0  0  0  0  0  0  0  0
   29.8670   25.5550   16.9770 C   0  0  0  0  0  0  0  0  0  0  0  0
   28.3450   25.7220   17.0260 C   0  0  0  0  0  0  0  0  0  0  0  0
   27.6020   24.4000   16.9170 C   0  0  0  0  0  0  0  0  0  0  0  0
   26.1530   24.5310   17.2960 C   0  0  0  0  0  0  0  0  0  0  0  0
   25.6360   23.1890   17.8050 C   0  0  0  0  0  0  0  0  0  0  0  0
   25.5090   23.2080   19.2810 N   0  0  0  0  0  0  0  0  0  0  0  0
  1 27  1  0  0  0  0
  2 25  1  0  0  0  0
  2  1  1  1  0  0  0
  2  3  1  0  0  0  0
  3 23  1  6  0  0  0
  4  9  1  0  0  0  0
  4  3  1  1  0  0  0
  5 12  1  6  0  0  0
  5  6  1  0  0  0  0
  5  7  1  0  0  0  0
  6  8  1  0  0  0  0
  7  4  1  0  0  0  0
  8 16  1  6  0  0  0
  8  9  1  0  0  0  0
  9 18  1  1  0  0  0
 10  5  1  0  0  0  0
 11 10  1  0  0  0  0
 12 14  1  0  0  0  0
 13 12  2  0  0  0  0
 15 14  1  0  0  0  0
 16 17  1  0  0  0  0
 18 19  1  0  0  0  0
 18 20  1  0  0  0  0
 19 21  1  0  0  0  0
 22 19  2  0  0  0  0
 24 23  1  0  0  0  0
 26 25  1  0  0  0  0
 27 28  1  0  0  0  0
 28 30  2  0  0  0  0
 28 31  1  0  0  0  0
 29 27  1  0  0  0  0
 32 31  1  0  0  0  0
 33 32  1  0  0  0  0
 33 34  2  0  0  0  0
 35 37  2  0  0  0  0
 35 33  1  0  0  0  0
 36 34  1  0  0  0  0
 36 38  1  0  0  0  0
 37 36  1  0  0  0  0
 38 39  2  0  0  0  0
 39 41  1  0  0  0  0
 40 42  2  0  0  0  0
 40 38  1  0  0  0  0
 42 43  1  0  0  0  0
 43 45  1  0  0  0  0
 43 41  2  0  0  0  0
 44 42  1  0  0  0  0
 44 46  1  0  0  0  0
 46 45  1  0  0  0  0
 47 48  1  0  0  0  0
 49 48  1  0  0  0  0
 49 50  1  0  0  0  0
 50 51  1  0  0  0  0
 51 52  1  0  0  0  0
M  END
>  <REMARK>
 VINA RESULT:    -5.331      4.508      9.688
 INTER + INTRA:         -13.774
 INTER:                  -8.498
 INTRA:                  -5.275
 UNBOUND:                -4.548
 SMILES CC(=O)N[C@@H]1[C@@H](O)C[C@](O)(C(=O)O)O[C@H]1C(O)[C@H](O)CNC(=O)OCc1cn(-c2ccc3c(c2)OCO3)nn1
 SMILES IDX 20 1 18 2 16 3 15 4 9 5 8 6 14 7 6 8 5 9 10 10 11 12 12 13
 SMILES IDX 13 14 7 16 4 18 2 19 1 21 3 22 17 23 19 25 21 27 22 28 23 30
 SMILES IDX 24 31 25 32 26 33 27 34 39 35 28 36 38 37 29 38 30 39 34 40
 SMILES IDX 31 41 33 42 32 43 35 44 37 45 36 46
 H PARENT 10 11 13 15 7 17 4 20 17 24 19 26 21 29
 Flexibility Score: inf
  4 active torsions:
  status: ('A' for Active; 'I' for Inactive)
    1  A    between atoms: CA   and  CB  
    2  A    between atoms: CB   and  CG  
    3  A    between atoms: CG   and  CD  
    4  A    between atoms: CD   and  CE  

>  <TORSDO>
F 15

>  <BEGIN_>
RES LYS A 131

$$$$
ligand_42_pose_18_2HRL.pdbqt
 OpenBabel07062320523D

  6  5  0  0  0  0  0  0  0  0999 V2000
   33.1930   34.6630    9.2900 C   0  0  0  0  0  0  0  0  0  0  0  0
   32.0600   35.3600   10.0340 C   0  0  0  0  0  0  0  0  0  0  0  0
   30.7820   35.4470    9.2410 C   0  0  0  0  0  0  0  0  0  0  0  0
   30.3170   36.8900    9.1280 C   0  0  0  0  0  0  0  0  0  0  0  0
   29.3410   37.0470    7.9780 C   0  0  0  0  0  0  0  0  0  0  0  0
   29.0730   38.4840    7.6930 N   0  0  0  0  0  0  0  0  0  0  0  0
  1  2  1  0  0  0  0
  3  2  1  0  0  0  0
  4  3  1  0  0  0  0
  5  4  1  0  0  0  0
  6  5  1  0  0  0  0
M  END
>  <EGIN_R>
ES LYS A 135

>  <REMARK>
  4 active torsions:
  status: ('A' for Active; 'I' for Inactive)
    5  A    between atoms: CA   and  CB  
    6  A    between atoms: CB   and  CG  
    7  A    between atoms: CG   and  CD  
    8  A    between atoms: CD   and  CE  

$$$$
