ligand_15_pose_5_2HRL.pdbqt
 OpenBabel07062320523D

 50 51  0  0  1  0  0  0  0  0999 V2000
   27.5140   26.9930   22.2180 C   0  0  0  0  0  0  0  0  0  0  0  0
   28.2380   27.6960   23.3270 C   0  0  2  0  0  0  0  0  0  0  0  0
   29.6690   27.3250   23.4940 C   0  0  2  0  0  0  0  0  0  0  0  0
   30.6450   28.3500   22.9530 C   0  0  2  0  0  0  0  0  0  0  0  0
   31.7260   28.7360   20.9060 C   0  0  2  0  0  0  0  0  0  0  0  0
   32.8720   29.2430   21.7370 C   0  0  0  0  0  0  0  0  0  0  0  0
   30.8780   27.9780   21.6340 O   0  0  0  0  0  0  0  0  0  0  0  0
   33.1230   28.2430   22.8420 C   0  0  1  0  0  0  0  0  0  0  0  0
   31.9030   28.2840   23.7730 C   0  0  1  0  0  0  0  0  0  0  0  0
   32.2430   27.9000   19.8780 O   0  0  0  0  0  0  0  0  0  0  0  0
   32.5000   28.5250   19.1510 H   0  0  0  0  0  0  0  0  0  0  0  0
   30.9780   29.8530   20.2660 C   0  0  0  0  0  0  0  0  0  0  0  0
   31.3330   31.0430   20.3330 O   0  0  0  0  0  0  0  0  0  0  0  0
   29.8240   29.5630   19.5590 O   0  0  0  0  0  0  0  0  0  0  0  0
   29.2700   30.2770   19.0830 H   0  0  0  0  0  0  0  0  0  0  0  0
   33.1260   26.9740   22.2650 O   0  0  0  0  0  0  0  0  0  0  0  0
   33.5000   26.2830   22.8440 H   0  0  0  0  0  0  0  0  0  0  0  0
   32.0430   29.5000   24.5250 N   0  0  0  0  0  0  0  0  0  0  0  0
   31.6300   29.6560   25.8690 C   0  0  0  0  0  0  0  0  0  0  0  0
   32.4790   30.3470   24.0760 H   0  0  0  0  0  0  0  0  0  0  0  0
   31.7950   30.9430   26.6090 C   0  0  0  0  0  0  0  0  0  0  0  0
   31.1110   28.6870   26.4590 O   0  0  0  0  0  0  0  0  0  0  0  0
   29.8750   26.0810   22.8480 O   0  0  0  0  0  0  0  0  0  0  0  0
   30.8330   25.8780   22.9130 H   0  0  0  0  0  0  0  0  0  0  0  0
   27.5550   27.4030   24.5270 O   0  0  0  0  0  0  0  0  0  0  0  0
   28.0490   26.7310   25.0580 H   0  0  0  0  0  0  0  0  0  0  0  0
   27.9890   27.2630   20.9010 N   0  0  0  0  0  0  0  0  0  0  0  0
   27.0570   27.6120   19.8560 C   0  0  0  0  0  0  0  0  0  0  0  0
   28.9790   27.2320   20.5870 H   0  0  0  0  0  0  0  0  0  0  0  0
   25.8410   27.6630   20.1550 O   0  0  0  0  0  0  0  0  0  0  0  0
   27.4900   27.8810   18.5670 O   0  0  0  0  0  0  0  0  0  0  0  0
   26.4730   28.1120   17.6010 C   0  0  0  0  0  0  0  0  0  0  0  0
   26.8790   29.3220   16.8290 C   0  0  0  0  0  0  0  0  0  0  0  0
   28.1220   29.9270   16.8380 C   0  0  0  0  0  0  0  0  0  0  0  0
   26.1340   30.0560   15.9810 N   0  0  0  0  0  0  0  0  0  0  0  0
   28.0950   30.9880   16.0140 N   0  0  0  0  0  0  0  0  0  0  0  0
   26.8800   31.0290   15.5190 N   0  0  0  0  0  0  0  0  0  0  0  0
   29.1270   31.9170   15.6940 C   0  0  0  0  0  0  0  0  0  0  0  0
   28.8610   33.1540   15.1390 C   0  0  0  0  0  0  0  0  0  0  0  0
   30.4520   31.6120   15.9320 C   0  0  0  0  0  0  0  0  0  0  0  0
   29.8730   34.0460   14.8360 C   0  0  0  0  0  0  0  0  0  0  0  0
   31.4720   32.5050   15.6280 C   0  0  0  0  0  0  0  0  0  0  0  0
   31.1990   33.7350   15.0760 C   0  0  0  0  0  0  0  0  0  0  0  0
   32.5540   35.0010   14.6380 Br  0  0  0  0  0  0  0  0  0  0  0  0
   29.8670   25.5550   16.9770 C   0  0  0  0  0  0  0  0  0  0  0  0
   28.3450   25.7220   17.0260 C   0  0  0  0  0  0  0  0  0  0  0  0
   27.5990   24.4610   16.6180 C   0  0  0  0  0  0  0  0  0  0  0  0
   27.0260   23.7340   17.8030 C   0  0  0  0  0  0  0  0  0  0  0  0
   25.8860   24.5530   18.4000 C   0  0  0  0  0  0  0  0  0  0  0  0
   25.4460   23.9670   19.6880 N   0  0  0  0  0  0  0  0  0  0  0  0
  2  1  1  6  0  0  0
  2  3  1  0  0  0  0
  2 25  1  0  0  0  0
  3 23  1  6  0  0  0
  4  3  1  1  0  0  0
  4  9  1  0  0  0  0
  5 10  1  6  0  0  0
  5  7  1  0  0  0  0
  5  6  1  0  0  0  0
  6  8  1  0  0  0  0
  7  4  1  0  0  0  0
  8 16  1  6  0  0  0
  8  9  1  0  0  0  0
  9 18  1  1  0  0  0
 11 10  1  0  0  0  0
 12 13  2  0  0  0  0
 12  5  1  0  0  0  0
 14 12  1  0  0  0  0
 15 14  1  0  0  0  0
 16 17  1  0  0  0  0
 18 19  1  0  0  0  0
 19 22  2  0  0  0  0
 19 21  1  0  0  0  0
 20 18  1  0  0  0  0
 23 24  1  0  0  0  0
 25 26  1  0  0  0  0
 27  1  1  0  0  0  0
 28 30  2  0  0  0  0
 28 27  1  0  0  0  0
 29 27  1  0  0  0  0
 31 28  1  0  0  0  0
 32 31  1  0  0  0  0
 33 34  2  0  0  0  0
 33 32  1  0  0  0  0
 35 33  1  0  0  0  0
 36 34  1  0  0  0  0
 37 35  2  0  0  0  0
 37 36  1  0  0  0  0
 38 40  1  0  0  0  0
 38 36  1  0  0  0  0
 39 38  2  0  0  0  0
 41 43  2  0  0  0  0
 41 39  1  0  0  0  0
 42 40  2  0  0  0  0
 43 42  1  0  0  0  0
 44 43  1  0  0  0  0
 45 46  1  0  0  0  0
 47 46  1  0  0  0  0
 47 48  1  0  0  0  0
 48 49  1  0  0  0  0
 49 50  1  0  0  0  0
M  END
>  <REMARK>
 VINA RESULT:    -5.412      1.936      3.365
 INTER + INTRA:         -14.527
 INTER:                  -9.033
 INTRA:                  -5.494
 UNBOUND:                -5.161
 SMILES CC(=O)N[C@@H]1[C@@H](O)C[C@](O)(C(=O)O)O[C@H]1C(O)[C@H](O)CNC(=O)OCc1cn(-c2ccc(Br)cc2)nn1
 SMILES IDX 20 1 18 2 16 3 15 4 9 5 8 6 14 7 6 8 5 9 10 10 11 12 12 13
 SMILES IDX 13 14 7 16 4 18 2 19 1 21 3 22 17 23 19 25 21 27 22 28 23 30
 SMILES IDX 24 31 25 32 26 33 27 34 37 35 28 36 36 37 29 38 30 39 35 40
 SMILES IDX 31 41 34 42 32 43 33 44
 H PARENT 10 11 13 15 7 17 4 20 17 24 19 26 21 29
 Flexibility Score: inf
  4 active torsions:
  status: ('A' for Active; 'I' for Inactive)
    1  A    between atoms: CA   and  CB  
    2  A    between atoms: CB   and  CG  
    3  A    between atoms: CG   and  CD  
    4  A    between atoms: CD   and  CE  

>  <TORSDO>
F 15

>  <BEGIN_>
RES LYS A 131

$$$$
ligand_15_pose_5_2HRL.pdbqt
 OpenBabel07062320523D

  6  5  0  0  0  0  0  0  0  0999 V2000
   33.1930   34.6630    9.2900 C   0  0  0  0  0  0  0  0  0  0  0  0
   32.0600   35.3600   10.0340 C   0  0  0  0  0  0  0  0  0  0  0  0
   30.8130   35.5350    9.2060 C   0  0  0  0  0  0  0  0  0  0  0  0
   30.1490   34.1910    8.9470 C   0  0  0  0  0  0  0  0  0  0  0  0
   28.6790   34.3780    8.6200 C   0  0  0  0  0  0  0  0  0  0  0  0
   27.8160   33.6820    9.6140 N   0  0  0  0  0  0  0  0  0  0  0  0
  1  2  1  0  0  0  0
  3  2  1  0  0  0  0
  4  3  1  0  0  0  0
  5  4  1  0  0  0  0
  5  6  1  0  0  0  0
M  END
>  <EGIN_R>
ES LYS A 135

>  <REMARK>
  4 active torsions:
  status: ('A' for Active; 'I' for Inactive)
    5  A    between atoms: CA   and  CB  
    6  A    between atoms: CB   and  CG  
    7  A    between atoms: CG   and  CD  
    8  A    between atoms: CD   and  CE  

$$$$
