ligand_13_pose_15_2HRL.pdbqt
 OpenBabel07062320523D

 49 49  0  0  1  0  0  0  0  0999 V2000
   25.7990   31.3940   15.0680 N   0  0  0  0  0  0  0  0  0  0  0  0
   24.7400   32.2780   15.3740 C   0  0  0  0  0  0  0  0  0  0  0  0
   24.1570   32.2660   16.4630 O   0  0  0  0  0  0  0  0  0  0  0  0
   26.2030   31.5360   14.0830 H   0  0  0  0  0  0  0  0  0  0  0  0
   26.3370   30.3850   15.9210 C   0  0  0  0  0  0  0  0  0  0  0  0
   27.5610   30.7310   16.6970 C   0  0  2  0  0  0  0  0  0  0  0  0
   28.6500   31.3410   15.8880 C   0  0  1  0  0  0  0  0  0  0  0  0
   28.9950   32.7690   16.2130 C   0  0  2  0  0  0  0  0  0  0  0  0
   30.3160   33.7280   14.5390 C   0  0  2  0  0  0  0  0  0  0  0  0
   30.9350   34.7760   15.4380 C   0  0  0  0  0  0  0  0  0  0  0  0
   29.0680   33.4340   14.9910 O   0  0  0  0  0  0  0  0  0  0  0  0
   30.7900   34.3620   16.8560 C   0  0  1  0  0  0  0  0  0  0  0  0
   30.2540   32.9300   17.0180 C   0  0  1  0  0  0  0  0  0  0  0  0
   31.2120   32.6760   14.4760 O   0  0  0  0  0  0  0  0  0  0  0  0
   31.6730   32.6210   15.3440 H   0  0  0  0  0  0  0  0  0  0  0  0
   30.1940   34.3440   13.1990 C   0  0  0  0  0  0  0  0  0  0  0  0
   31.2320   34.7300   12.6210 O   0  0  0  0  0  0  0  0  0  0  0  0
   28.9790   34.4990   12.5830 O   0  0  0  0  0  0  0  0  0  0  0  0
   28.1030   34.2290   13.0310 H   0  0  0  0  0  0  0  0  0  0  0  0
   31.9630   34.4790   17.5950 O   0  0  0  0  0  0  0  0  0  0  0  0
   32.5070   35.2550   17.3550 H   0  0  0  0  0  0  0  0  0  0  0  0
   29.9990   32.8130   18.4380 N   0  0  0  0  0  0  0  0  0  0  0  0
   30.1790   31.6470   19.2040 C   0  0  0  0  0  0  0  0  0  0  0  0
   29.6560   33.6670   18.9300 H   0  0  0  0  0  0  0  0  0  0  0  0
   29.9130   31.5500   20.6600 C   0  0  0  0  0  0  0  0  0  0  0  0
   30.5980   30.6160   18.5940 O   0  0  0  0  0  0  0  0  0  0  0  0
   29.7530   30.5240   15.8310 O   0  0  0  0  0  0  0  0  0  0  0  0
   29.8990   30.0920   14.9520 H   0  0  0  0  0  0  0  0  0  0  0  0
   28.0900   29.5350   17.2240 O   0  0  0  0  0  0  0  0  0  0  0  0
   27.8840   28.7670   16.6140 H   0  0  0  0  0  0  0  0  0  0  0  0
   24.2980   33.2290   14.4260 O   0  0  0  0  0  0  0  0  0  0  0  0
   24.3340   32.9470   13.0400 C   0  0  0  0  0  0  0  0  0  0  0  0
   24.8840   34.1550   12.3710 C   0  0  0  0  0  0  0  0  0  0  0  0
   24.1950   35.2340   11.8660 C   0  0  0  0  0  0  0  0  0  0  0  0
   26.1940   34.4370   12.1230 N   0  0  0  0  0  0  0  0  0  0  0  0
   25.1100   36.0990   11.3460 N   0  0  0  0  0  0  0  0  0  0  0  0
   26.3150   35.5830   11.5190 N   0  0  0  0  0  0  0  0  0  0  0  0
   24.8590   37.3700   10.7070 C   0  0  0  0  0  0  0  0  0  0  0  0
   25.3620   37.3750    9.3250 C   0  0  0  0  0  0  0  0  0  0  0  0
   24.9910   36.4790    8.5360 O   0  0  0  0  0  0  0  0  0  0  0  0
   26.2430   38.3870    8.9430 O   0  0  0  0  0  0  0  0  0  0  0  0
   27.5930   37.9760    8.7040 C   0  0  0  0  0  0  0  0  0  0  0  0
   28.3970   38.2930    9.9390 C   0  0  0  0  0  0  0  0  0  0  0  0
   29.8670   25.5550   16.9770 C   0  0  0  0  0  0  0  0  0  0  0  0
   28.3450   25.7220   17.0260 C   0  0  0  0  0  0  0  0  0  0  0  0
   27.6020   24.4000   16.9160 C   0  0  0  0  0  0  0  0  0  0  0  0
   26.5520   24.2490   17.9820 C   0  0  0  0  0  0  0  0  0  0  0  0
   25.1690   24.4280   17.3640 C   0  0  0  0  0  0  0  0  0  0  0  0
   24.4630   23.1270   17.2890 N   0  0  0  0  0  0  0  0  0  0  0  0
  1  2  1  0  0  0  0
  1  5  1  0  0  0  0
  2  3  2  0  0  0  0
  4  1  1  0  0  0  0
  6  5  1  6  0  0  0
  6 29  1  0  0  0  0
  7 27  1  1  0  0  0
  7  6  1  0  0  0  0
  8  7  1  6  0  0  0
  8 13  1  0  0  0  0
  9 16  1  6  0  0  0
  9 11  1  0  0  0  0
  9 10  1  0  0  0  0
 10 12  1  0  0  0  0
 11  8  1  0  0  0  0
 12 13  1  0  0  0  0
 12 20  1  6  0  0  0
 13 22  1  1  0  0  0
 14  9  1  0  0  0  0
 14 15  1  0  0  0  0
 17 16  2  0  0  0  0
 18 19  1  0  0  0  0
 18 16  1  0  0  0  0
 21 20  1  0  0  0  0
 22 24  1  0  0  0  0
 22 23  1  0  0  0  0
 23 25  1  0  0  0  0
 26 23  2  0  0  0  0
 28 27  1  0  0  0  0
 30 29  1  0  0  0  0
 31  2  1  0  0  0  0
 32 31  1  0  0  0  0
 33 32  1  0  0  0  0
 34 33  2  0  0  0  0
 35 33  1  0  0  0  0
 36 37  1  0  0  0  0
 36 34  1  0  0  0  0
 37 35  2  0  0  0  0
 38 36  1  0  0  0  0
 39 38  1  0  0  0  0
 40 39  2  0  0  0  0
 41 39  1  0  0  0  0
 42 41  1  0  0  0  0
 42 43  1  0  0  0  0
 44 45  1  0  0  0  0
 46 45  1  0  0  0  0
 46 47  1  0  0  0  0
 48 47  1  0  0  0  0
 49 48  1  0  0  0  0
M  END
>  <REMARK>
 VINA RESULT:    -4.075      3.261      8.596
 INTER + INTRA:         -13.717
 INTER:                  -7.731
 INTRA:                  -5.987
 UNBOUND:                -5.949
 SMILES CCOC(=O)Cn1cc(COC(=O)NC[C@@H](O)C(O)[C@@H]2O[C@@](O)(C(=O)O)C[C@H](O)[C@H]2NC(C)=O)nn1
 SMILES IDX 14 1 12 2 13 3 15 5 16 6 18 7 20 8 22 9 27 10 21 11 28 12
 SMILES IDX 30 13 23 14 24 16 25 17 26 18 29 20 31 22 32 23 33 25 34 26
 SMILES IDX 19 27 17 29 11 31 10 32 9 33 8 34 35 35 7 36 36 37 6 38 4 39
 SMILES IDX 5 40 3 41 2 42 1 43
 H PARENT 14 4 23 15 26 19 29 21 31 24 19 28 17 30
 Flexibility Score: inf
  4 active torsions:
  status: ('A' for Active; 'I' for Inactive)
    1  A    between atoms: CA   and  CB  
    2  A    between atoms: CB   and  CG  
    3  A    between atoms: CG   and  CD  
    4  A    between atoms: CD   and  CE  

>  <TORSDO>
F 18

>  <BEGIN_>
RES LYS A 131

$$$$
ligand_13_pose_15_2HRL.pdbqt
 OpenBabel07062320523D

  6  5  0  0  0  0  0  0  0  0999 V2000
   33.1930   34.6630    9.2900 C   0  0  0  0  0  0  0  0  0  0  0  0
   32.0600   35.3600   10.0340 C   0  0  0  0  0  0  0  0  0  0  0  0
   30.8810   35.6970    9.1580 C   0  0  0  0  0  0  0  0  0  0  0  0
   30.2950   34.4380    8.5390 C   0  0  0  0  0  0  0  0  0  0  0  0
   29.0060   34.0510    9.2380 C   0  0  0  0  0  0  0  0  0  0  0  0
   27.8200   34.4050    8.4100 N   0  0  0  0  0  0  0  0  0  0  0  0
  1  2  1  0  0  0  0
  3  2  1  0  0  0  0
  4  3  1  0  0  0  0
  4  5  1  0  0  0  0
  6  5  1  0  0  0  0
M  END
>  <EGIN_R>
ES LYS A 135

>  <REMARK>
  4 active torsions:
  status: ('A' for Active; 'I' for Inactive)
    5  A    between atoms: CA   and  CB  
    6  A    between atoms: CB   and  CG  
    7  A    between atoms: CG   and  CD  
    8  A    between atoms: CD   and  CE  

$$$$
