ligand_65_pose_11_2HRL.pdbqt
 OpenBabel07062320523D

 53 54  0  0  1  0  0  0  0  0999 V2000
   27.8920   28.7890   17.8500 N   0  0  0  0  0  0  0  0  0  0  0  0
   27.0700   27.9150   18.5880 C   0  0  0  0  0  0  0  0  0  0  0  0
   25.8390   27.7870   18.4050 O   0  0  0  0  0  0  0  0  0  0  0  0
   28.9380   28.8670   18.0290 H   0  0  0  0  0  0  0  0  0  0  0  0
   27.3130   29.6140   16.8120 C   0  0  0  0  0  0  0  0  0  0  0  0
   28.3290   30.6180   16.3670 C   0  0  2  0  0  0  0  0  0  0  0  0
   27.6420   31.8620   15.8420 C   0  0  2  0  0  0  0  0  0  0  0  0
   28.4190   33.0700   16.3430 C   0  0  2  0  0  0  0  0  0  0  0  0
   30.6730   33.0930   15.6590 C   0  0  2  0  0  0  0  0  0  0  0  0
   31.1270   32.6240   17.0050 C   0  0  0  0  0  0  0  0  0  0  0  0
   29.3840   33.3540   15.4700 O   0  0  0  0  0  0  0  0  0  0  0  0
   30.2400   33.2950   18.0450 C   0  0  1  0  0  0  0  0  0  0  0  0
   28.8480   32.7390   17.7470 C   0  0  1  0  0  0  0  0  0  0  0  0
   31.0610   32.0850   14.7440 O   0  0  0  0  0  0  0  0  0  0  0  0
   30.6230   31.2260   14.9490 H   0  0  0  0  0  0  0  0  0  0  0  0
   31.4780   34.2930   15.3180 C   0  0  0  0  0  0  0  0  0  0  0  0
   32.6830   34.1830   14.9770 O   0  0  0  0  0  0  0  0  0  0  0  0
   30.9480   35.5720   15.3590 O   0  0  0  0  0  0  0  0  0  0  0  0
   30.5380   36.0270   14.5410 H   0  0  0  0  0  0  0  0  0  0  0  0
   30.5850   32.9250   19.3310 O   0  0  0  0  0  0  0  0  0  0  0  0
   30.4650   31.9350   19.3950 H   0  0  0  0  0  0  0  0  0  0  0  0
   27.8830   33.2120   18.7150 N   0  0  0  0  0  0  0  0  0  0  0  0
   27.4150   32.3700   19.7550 C   0  0  0  0  0  0  0  0  0  0  0  0
   27.5610   34.2000   18.5960 H   0  0  0  0  0  0  0  0  0  0  0  0
   26.4280   32.9150   20.7120 C   0  0  0  0  0  0  0  0  0  0  0  0
   27.8090   31.1900   19.8870 O   0  0  0  0  0  0  0  0  0  0  0  0
   26.3300   31.9060   16.3850 O   0  0  0  0  0  0  0  0  0  0  0  0
   26.1270   30.9510   16.5980 H   0  0  0  0  0  0  0  0  0  0  0  0
   29.1430   30.0380   15.3830 O   0  0  0  0  0  0  0  0  0  0  0  0
   29.9740   30.5340   15.2760 H   0  0  0  0  0  0  0  0  0  0  0  0
   27.6600   27.1320   19.5950 O   0  0  0  0  0  0  0  0  0  0  0  0
   27.9130   27.7500   20.8380 C   0  0  0  0  0  0  0  0  0  0  0  0
   29.3950   27.9190   20.9960 C   0  0  0  0  0  0  0  0  0  0  0  0
   30.0780   29.0730   21.3280 C   0  0  0  0  0  0  0  0  0  0  0  0
   30.3620   26.9850   20.8460 N   0  0  0  0  0  0  0  0  0  0  0  0
   31.4020   28.8250   21.3730 N   0  0  0  0  0  0  0  0  0  0  0  0
   31.5410   27.5520   21.0770 N   0  0  0  0  0  0  0  0  0  0  0  0
   32.4360   29.7650   21.6830 C   0  0  0  0  0  0  0  0  0  0  0  0
   33.6180   29.3770   22.1950 N   0  0  0  0  0  0  0  0  0  0  0  0
   32.2570   31.0840   21.4710 N   0  0  0  0  0  0  0  0  0  0  0  0
   34.6130   30.2260   22.4990 C   0  0  0  0  0  0  0  0  0  0  0  0
   33.2240   31.9920   21.7580 C   0  0  0  0  0  0  0  0  0  0  0  0
   34.3770   31.5460   22.2650 N   0  0  0  0  0  0  0  0  0  0  0  0
   33.0370   33.4500   21.5280 C   0  0  0  0  0  0  0  0  0  0  0  0
   35.8520   29.8220   23.0350 N   0  0  0  0  0  0  0  0  0  0  0  0
   35.8930   29.0550   23.7200 H   0  0  0  0  0  0  0  0  0  0  0  0
   36.7170   30.2970   22.7400 H   0  0  0  0  0  0  0  0  0  0  0  0
   29.8670   25.5550   16.9770 C   0  0  0  0  0  0  0  0  0  0  0  0
   28.3450   25.7220   17.0260 C   0  0  0  0  0  0  0  0  0  0  0  0
   27.6010   24.4050   16.8680 C   0  0  0  0  0  0  0  0  0  0  0  0
   26.4980   24.2530   17.8790 C   0  0  0  0  0  0  0  0  0  0  0  0
   25.1520   24.4960   17.2040 C   0  0  0  0  0  0  0  0  0  0  0  0
   24.1060   24.7700   18.2170 N   0  0  0  0  0  0  0  0  0  0  0  0
  1  4  1  0  0  0  0
  1  2  1  0  0  0  0
  2 31  1  0  0  0  0
  3  2  2  0  0  0  0
  5  1  1  0  0  0  0
  6  5  1  6  0  0  0
  7  6  1  0  0  0  0
  7 27  1  1  0  0  0
  8  7  1  6  0  0  0
  8 13  1  0  0  0  0
  9 14  1  6  0  0  0
  9 10  1  0  0  0  0
 10 12  1  0  0  0  0
 11  9  1  0  0  0  0
 11  8  1  0  0  0  0
 12 20  1  1  0  0  0
 13 12  1  0  0  0  0
 13 22  1  1  0  0  0
 14 15  1  0  0  0  0
 16 18  1  0  0  0  0
 16  9  1  0  0  0  0
 17 16  2  0  0  0  0
 19 18  1  0  0  0  0
 20 21  1  0  0  0  0
 22 23  1  0  0  0  0
 23 26  2  0  0  0  0
 23 25  1  0  0  0  0
 24 22  1  0  0  0  0
 27 28  1  0  0  0  0
 29  6  1  0  0  0  0
 30 29  1  0  0  0  0
 31 32  1  0  0  0  0
 32 33  1  0  0  0  0
 33 34  2  0  0  0  0
 34 36  1  0  0  0  0
 35 33  1  0  0  0  0
 35 37  2  0  0  0  0
 36 38  1  0  0  0  0
 37 36  1  0  0  0  0
 38 39  2  0  0  0  0
 39 41  2  0  0  0  0
 40 38  1  0  0  0  0
 40 42  2  0  0  0  0
 41 45  1  0  0  0  0
 42 43  1  0  0  0  0
 43 41  1  0  0  0  0
 44 42  1  0  0  0  0
 45 46  1  0  0  0  0
 47 45  1  0  0  0  0
 48 49  1  0  0  0  0
 50 49  1  0  0  0  0
 50 51  1  0  0  0  0
 52 51  1  0  0  0  0
 52 53  1  0  0  0  0
M  END
>  <REMARK>
 VINA RESULT:    -5.096      2.755      5.794
 INTER + INTRA:         -14.103
 INTER:                  -8.275
 INTRA:                  -5.828
 UNBOUND:                -5.134
 SMILES CC(=O)N[C@@H]1[C@@H](O)C[C@](O)(C(=O)O)O[C@H]1C(O)[C@H](O)CNC(=O)OCc1cn(-c2nc(C)nc(N)n2)nn1
 SMILES IDX 21 1 22 2 23 3 20 5 18 6 16 7 15 8 9 9 8 10 14 11 6 12 5 13
 SMILES IDX 10 14 11 16 12 17 13 18 7 20 4 22 2 23 1 25 3 26 17 27 19 29
 SMILES IDX 24 31 25 32 26 33 27 34 38 35 28 36 37 37 29 38 36 39 30 40
 SMILES IDX 34 41 31 42 33 43 32 44 35 45
 H PARENT 21 4 10 15 13 19 7 21 4 24 17 28 19 30 35 46 35 47
 Flexibility Score: inf
  4 active torsions:
  status: ('A' for Active; 'I' for Inactive)
    1  A    between atoms: CA   and  CB  
    2  A    between atoms: CB   and  CG  
    3  A    between atoms: CG   and  CD  
    4  A    between atoms: CD   and  CE  

>  <TORSDO>
F 16

>  <BEGIN_>
RES LYS A 131

$$$$
ligand_65_pose_11_2HRL.pdbqt
 OpenBabel07062320523D

  6  5  0  0  0  0  0  0  0  0999 V2000
   33.1930   34.6630    9.2900 C   0  0  0  0  0  0  0  0  0  0  0  0
   32.0600   35.3600   10.0340 C   0  0  0  0  0  0  0  0  0  0  0  0
   30.8010   35.5020    9.2180 C   0  0  0  0  0  0  0  0  0  0  0  0
   30.2460   34.1360    8.8450 C   0  0  0  0  0  0  0  0  0  0  0  0
   28.7530   34.0790    9.1060 C   0  0  0  0  0  0  0  0  0  0  0  0
   28.3320   35.1510   10.0490 N   0  0  0  0  0  0  0  0  0  0  0  0
  1  2  1  0  0  0  0
  3  2  1  0  0  0  0
  4  5  1  0  0  0  0
  4  3  1  0  0  0  0
  5  6  1  0  0  0  0
M  END
>  <EGIN_R>
ES LYS A 135

>  <REMARK>
  4 active torsions:
  status: ('A' for Active; 'I' for Inactive)
    5  A    between atoms: CA   and  CB  
    6  A    between atoms: CB   and  CG  
    7  A    between atoms: CG   and  CD  
    8  A    between atoms: CD   and  CE  

$$$$
