ligand_40_pose_11_2HRL.pdbqt
 OpenBabel07062320523D

 50 51  0  0  1  0  0  0  0  0999 V2000
   16.9430   35.6970    8.2150 C   0  0  0  0  0  0  0  0  0  0  0  0
   16.4420   34.3290    8.4300 C   0  0  2  0  0  0  0  0  0  0  0  0
   16.7030   33.2780    7.3990 C   0  0  2  0  0  0  0  0  0  0  0  0
   17.1680   31.9460    7.8950 C   0  0  2  0  0  0  0  0  0  0  0  0
   16.2590   30.5020    6.2890 C   0  0  2  0  0  0  0  0  0  0  0  0
   15.4770   29.7050    7.3180 C   0  0  0  0  0  0  0  0  0  0  0  0
   17.3680   31.1110    6.7850 O   0  0  0  0  0  0  0  0  0  0  0  0
   15.2240   30.5830    8.5330 C   0  0  1  0  0  0  0  0  0  0  0  0
   16.4650   31.2710    9.0000 C   0  0  1  0  0  0  0  0  0  0  0  0
   15.3620   31.3320    5.6620 O   0  0  0  0  0  0  0  0  0  0  0  0
   14.5090   30.8980    5.4020 H   0  0  0  0  0  0  0  0  0  0  0  0
   16.7310   29.4920    5.2900 C   0  0  0  0  0  0  0  0  0  0  0  0
   16.5710   29.6560    4.0440 O   0  0  0  0  0  0  0  0  0  0  0  0
   17.3580   28.3390    5.7170 O   0  0  0  0  0  0  0  0  0  0  0  0
   16.8730   27.4430    5.6220 H   0  0  0  0  0  0  0  0  0  0  0  0
   14.3440   31.5630    8.0710 O   0  0  0  0  0  0  0  0  0  0  0  0
   14.7530   32.1160    7.3560 H   0  0  0  0  0  0  0  0  0  0  0  0
   17.4260   30.3810    9.6250 N   0  0  0  0  0  0  0  0  0  0  0  0
   17.9070   30.5550   10.9330 C   0  0  0  0  0  0  0  0  0  0  0  0
   17.7470   29.5860    9.0340 H   0  0  0  0  0  0  0  0  0  0  0  0
   18.8820   29.6680   11.5950 C   0  0  0  0  0  0  0  0  0  0  0  0
   17.4590   31.5370   11.5540 O   0  0  0  0  0  0  0  0  0  0  0  0
   17.9330   33.7440    6.7400 O   0  0  0  0  0  0  0  0  0  0  0  0
   18.5900   33.9130    7.4670 H   0  0  0  0  0  0  0  0  0  0  0  0
   15.1500   34.3120    8.9330 O   0  0  0  0  0  0  0  0  0  0  0  0
   15.1050   34.7210    9.8510 H   0  0  0  0  0  0  0  0  0  0  0  0
   17.9810   36.1290    9.1540 N   0  0  0  0  0  0  0  0  0  0  0  0
   19.3370   36.2270    8.7710 C   0  0  0  0  0  0  0  0  0  0  0  0
   17.7630   36.3770   10.1540 H   0  0  0  0  0  0  0  0  0  0  0  0
   19.6730   35.9420    7.6170 O   0  0  0  0  0  0  0  0  0  0  0  0
   20.3420   36.6380    9.6490 O   0  0  0  0  0  0  0  0  0  0  0  0
   20.8310   35.7320   10.6110 C   0  0  0  0  0  0  0  0  0  0  0  0
   22.2870   35.5680   10.5610 C   0  0  0  0  0  0  0  0  0  0  0  0
   23.0410   35.7630    9.4230 C   0  0  0  0  0  0  0  0  0  0  0  0
   23.1780   35.2200   11.5110 N   0  0  0  0  0  0  0  0  0  0  0  0
   24.3440   35.5360    9.6920 N   0  0  0  0  0  0  0  0  0  0  0  0
   24.3890   35.2090   10.9660 N   0  0  0  0  0  0  0  0  0  0  0  0
   25.4710   35.6160    8.8220 C   0  0  0  0  0  0  0  0  0  0  0  0
   26.3990   34.5960    8.7640 C   0  0  0  0  0  0  0  0  0  0  0  0
   25.6900   36.7060    8.0050 C   0  0  0  0  0  0  0  0  0  0  0  0
   27.4960   34.6610    7.9270 C   0  0  0  0  0  0  0  0  0  0  0  0
   26.7830   36.7770    7.1670 C   0  0  0  0  0  0  0  0  0  0  0  0
   27.7050   35.7540    7.1130 C   0  0  0  0  0  0  0  0  0  0  0  0
   28.8700   35.8700    6.1970 C   0  0  0  0  0  0  0  0  0  0  0  0
   29.8670   25.5550   16.9770 C   0  0  0  0  0  0  0  0  0  0  0  0
   28.3450   25.7220   17.0260 C   0  0  0  0  0  0  0  0  0  0  0  0
   27.6000   24.4070   16.8560 C   0  0  0  0  0  0  0  0  0  0  0  0
   26.1550   24.5190   17.2530 C   0  0  0  0  0  0  0  0  0  0  0  0
   26.0560   25.1270   18.6490 C   0  0  0  0  0  0  0  0  0  0  0  0
   25.5720   24.1190   19.6210 N   0  0  0  0  0  0  0  0  0  0  0  0
  1 27  1  0  0  0  0
  2  1  1  6  0  0  0
  2 25  1  0  0  0  0
  3 23  1  6  0  0  0
  3  2  1  0  0  0  0
  4  3  1  6  0  0  0
  4  9  1  0  0  0  0
  5 12  1  6  0  0  0
  5  7  1  0  0  0  0
  5  6  1  0  0  0  0
  6  8  1  0  0  0  0
  7  4  1  0  0  0  0
  8 16  1  6  0  0  0
  8  9  1  0  0  0  0
  9 18  1  6  0  0  0
 10  5  1  0  0  0  0
 11 10  1  0  0  0  0
 12 14  1  0  0  0  0
 13 12  2  0  0  0  0
 15 14  1  0  0  0  0
 17 16  1  0  0  0  0
 18 19  1  0  0  0  0
 19 22  2  0  0  0  0
 19 21  1  0  0  0  0
 20 18  1  0  0  0  0
 23 24  1  0  0  0  0
 25 26  1  0  0  0  0
 27 29  1  0  0  0  0
 28 27  1  0  0  0  0
 28 31  1  0  0  0  0
 30 28  2  0  0  0  0
 31 32  1  0  0  0  0
 33 32  1  0  0  0  0
 33 35  1  0  0  0  0
 34 36  1  0  0  0  0
 34 33  2  0  0  0  0
 36 37  1  0  0  0  0
 37 35  2  0  0  0  0
 38 36  1  0  0  0  0
 39 38  1  0  0  0  0
 40 38  2  0  0  0  0
 41 39  2  0  0  0  0
 42 40  1  0  0  0  0
 43 42  2  0  0  0  0
 43 41  1  0  0  0  0
 44 43  1  0  0  0  0
 45 46  1  0  0  0  0
 47 46  1  0  0  0  0
 47 48  1  0  0  0  0
 48 49  1  0  0  0  0
 49 50  1  0  0  0  0
M  END
>  <REMARK>
 VINA RESULT:    -5.190      7.229     11.938
 INTER + INTRA:         -13.995
 INTER:                  -9.751
 INTRA:                  -4.243
 UNBOUND:                -5.012
 SMILES CC(=O)N[C@@H]1[C@@H](O)C[C@](O)(C(=O)O)O[C@H]1C(O)[C@H](O)CNC(=O)OCc1cn(-c2ccc(C)cc2)nn1
 SMILES IDX 20 1 18 2 16 3 15 4 9 5 8 6 14 7 6 8 5 9 10 10 11 12 12 13
 SMILES IDX 13 14 7 16 4 18 2 19 1 21 3 22 17 23 19 25 21 27 22 28 23 30
 SMILES IDX 24 31 25 32 26 33 27 34 37 35 28 36 36 37 29 38 30 39 35 40
 SMILES IDX 31 41 34 42 32 43 33 44
 H PARENT 10 11 13 15 7 17 4 20 17 24 19 26 21 29
 Flexibility Score: inf
  4 active torsions:
  status: ('A' for Active; 'I' for Inactive)
    1  A    between atoms: CA   and  CB  
    2  A    between atoms: CB   and  CG  
    3  A    between atoms: CG   and  CD  
    4  A    between atoms: CD   and  CE  

>  <TORSDO>
F 15

>  <BEGIN_>
RES LYS A 131

$$$$
ligand_40_pose_11_2HRL.pdbqt
 OpenBabel07062320523D

  6  5  0  0  0  0  0  0  0  0999 V2000
   33.1930   34.6630    9.2900 C   0  0  0  0  0  0  0  0  0  0  0  0
   32.0600   35.3600   10.0340 C   0  0  0  0  0  0  0  0  0  0  0  0
   30.6880   34.9390    9.5740 C   0  0  0  0  0  0  0  0  0  0  0  0
   29.7430   34.8060   10.7580 C   0  0  0  0  0  0  0  0  0  0  0  0
   30.4200   35.2640   12.0350 C   0  0  0  0  0  0  0  0  0  0  0  0
   30.1230   34.3380   13.1620 N   0  0  0  0  0  0  0  0  0  0  0  0
  1  2  1  0  0  0  0
  3  2  1  0  0  0  0
  3  4  1  0  0  0  0
  4  5  1  0  0  0  0
  5  6  1  0  0  0  0
M  END
>  <EGIN_R>
ES LYS A 135

>  <REMARK>
  4 active torsions:
  status: ('A' for Active; 'I' for Inactive)
    5  A    between atoms: CA   and  CB  
    6  A    between atoms: CB   and  CG  
    7  A    between atoms: CG   and  CD  
    8  A    between atoms: CD   and  CE  

$$$$
