ligand_81_pose_4_2HRL.pdbqt
 OpenBabel07062320523D

 63 65  0  0  1  0  0  0  0  0999 V2000
   28.5310   32.7220   23.2350 O   0  0  0  0  0  0  0  0  0  0  0  0
   28.7360   31.3800   23.4710 C   0  0  0  0  0  0  0  0  0  0  0  0
   28.3200   30.3720   22.5250 N   0  0  0  0  0  0  0  0  0  0  0  0
   27.8600   30.7460   21.6720 H   0  0  0  0  0  0  0  0  0  0  0  0
   29.3000   31.0470   24.5430 O   0  0  0  0  0  0  0  0  0  0  0  0
   28.5600   28.9800   22.8250 C   0  0  0  0  0  0  0  0  0  0  0  0
   28.9440   28.2860   21.5240 C   0  0  2  0  0  0  0  0  0  0  0  0
   28.2940   29.0720   20.4110 C   0  0  2  0  0  0  0  0  0  0  0  0
   27.2970   28.3080   19.5950 C   0  0  2  0  0  0  0  0  0  0  0  0
   26.4700   30.1720   18.4430 C   0  0  2  0  0  0  0  0  0  0  0  0
   25.3310   30.1890   19.4480 C   0  0  0  0  0  0  0  0  0  0  0  0
   27.1250   28.9750   18.4060 O   0  0  0  0  0  0  0  0  0  0  0  0
   24.8750   28.7610   19.6710 C   0  0  1  0  0  0  0  0  0  0  0  0
   26.0300   27.9360   20.2730 C   0  0  1  0  0  0  0  0  0  0  0  0
   27.3020   31.2420   18.7950 O   0  0  0  0  0  0  0  0  0  0  0  0
   27.7080   31.1210   19.6810 H   0  0  0  0  0  0  0  0  0  0  0  0
   25.9620   30.4430   17.0820 C   0  0  0  0  0  0  0  0  0  0  0  0
   25.3370   31.4970   16.8600 O   0  0  0  0  0  0  0  0  0  0  0  0
   26.1730   29.5420   16.0710 O   0  0  0  0  0  0  0  0  0  0  0  0
   25.5520   29.3990   15.2840 H   0  0  0  0  0  0  0  0  0  0  0  0
   23.7570   28.7150   20.4700 O   0  0  0  0  0  0  0  0  0  0  0  0
   23.9940   28.6170   21.4170 H   0  0  0  0  0  0  0  0  0  0  0  0
   25.6470   26.5400   20.0240 N   0  0  0  0  0  0  0  0  0  0  0  0
   25.4550   25.6620   21.1170 C   0  0  0  0  0  0  0  0  0  0  0  0
   25.5140   26.1810   19.0540 H   0  0  0  0  0  0  0  0  0  0  0  0
   25.0660   24.2290   20.9370 C   0  0  0  0  0  0  0  0  0  0  0  0
   25.6240   26.1310   22.2770 O   0  0  0  0  0  0  0  0  0  0  0  0
   29.3850   29.3030   19.5090 O   0  0  0  0  0  0  0  0  0  0  0  0
   29.0700   29.2370   18.5860 H   0  0  0  0  0  0  0  0  0  0  0  0
   28.4960   26.9800   21.6350 O   0  0  0  0  0  0  0  0  0  0  0  0
   28.9920   26.3690   21.0500 H   0  0  0  0  0  0  0  0  0  0  0  0
   29.5240   33.6500   22.8580 C   0  0  0  0  0  0  0  0  0  0  0  0
   30.2170   33.1700   21.6200 C   0  0  0  0  0  0  0  0  0  0  0  0
   29.7320   33.1360   20.3370 C   0  0  0  0  0  0  0  0  0  0  0  0
   31.4700   32.6700   21.5420 N   0  0  0  0  0  0  0  0  0  0  0  0
   30.6820   32.6220   19.4980 N   0  0  0  0  0  0  0  0  0  0  0  0
   31.7170   32.3570   20.2850 N   0  0  0  0  0  0  0  0  0  0  0  0
   30.5540   32.4100   18.1030 C   0  0  0  0  0  0  0  0  0  0  0  0
   29.9400   31.3220   17.6170 N   0  0  0  0  0  0  0  0  0  0  0  0
   31.0940   33.3240   17.1890 C   0  0  0  0  0  0  0  0  0  0  0  0
   29.8390   31.1030   16.2820 C   0  0  0  0  0  0  0  0  0  0  0  0
   30.9960   33.1030   15.8450 C   0  0  0  0  0  0  0  0  0  0  0  0
   30.3520   31.9650   15.3980 N   0  0  0  0  0  0  0  0  0  0  0  0
   31.8000   34.5090   17.7170 C   0  0  0  0  0  0  0  0  0  0  0  0
   30.9640   35.7540   17.8190 C   0  0  0  0  0  0  0  0  0  0  0  0
   31.6600   36.8870   17.5020 O   0  0  0  0  0  0  0  0  0  0  0  0
   31.3870   37.3880   16.2510 C   0  0  0  0  0  0  0  0  0  0  0  0
   29.9170   37.2720   15.9070 C   0  0  0  0  0  0  0  0  0  0  0  0
   29.1820   29.9410   15.8140 N   0  0  0  0  0  0  0  0  0  0  0  0
   28.3650   29.5640   16.3260 H   0  0  0  0  0  0  0  0  0  0  0  0
   29.4920   29.4410   14.9600 H   0  0  0  0  0  0  0  0  0  0  0  0
   31.6320   33.9500   14.8550 C   0  0  0  0  0  0  0  0  0  0  0  0
   32.9200   34.3340   14.7780 C   0  0  0  0  0  0  0  0  0  0  0  0
   30.7800   34.4090   13.8250 C   0  0  0  0  0  0  0  0  0  0  0  0
   33.3750   35.1480   13.7230 C   0  0  0  0  0  0  0  0  0  0  0  0
   31.2090   35.2000   12.7960 C   0  0  0  0  0  0  0  0  0  0  0  0
   32.5360   35.5880   12.7290 C   0  0  0  0  0  0  0  0  0  0  0  0
   29.8670   25.5550   16.9770 C   0  0  0  0  0  0  0  0  0  0  0  0
   28.3450   25.7220   17.0260 C   0  0  0  0  0  0  0  0  0  0  0  0
   27.5990   24.4600   16.6200 C   0  0  0  0  0  0  0  0  0  0  0  0
   26.9960   23.7530   17.8020 C   0  0  0  0  0  0  0  0  0  0  0  0
   25.5640   23.3450   17.4750 C   0  0  0  0  0  0  0  0  0  0  0  0
   24.7660   24.5270   17.0710 N   0  0  0  0  0  0  0  0  0  0  0  0
  1  2  1  0  0  0  0
  2  5  2  0  0  0  0
  3  6  1  0  0  0  0
  3  2  1  0  0  0  0
  4  3  1  0  0  0  0
  7 30  1  0  0  0  0
  7  6  1  1  0  0  0
  8 28  1  6  0  0  0
  8  7  1  0  0  0  0
  9 14  1  0  0  0  0
  9  8  1  1  0  0  0
 10 17  1  6  0  0  0
 10 15  1  0  0  0  0
 10 11  1  0  0  0  0
 11 13  1  0  0  0  0
 12 10  1  0  0  0  0
 12  9  1  0  0  0  0
 13 14  1  0  0  0  0
 13 21  1  1  0  0  0
 14 23  1  6  0  0  0
 15 16  1  0  0  0  0
 18 17  2  0  0  0  0
 19 17  1  0  0  0  0
 20 19  1  0  0  0  0
 21 22  1  0  0  0  0
 23 24  1  0  0  0  0
 24 27  2  0  0  0  0
 25 23  1  0  0  0  0
 26 24  1  0  0  0  0
 29 28  1  0  0  0  0
 31 30  1  0  0  0  0
 32  1  1  0  0  0  0
 33 32  1  0  0  0  0
 34 33  2  0  0  0  0
 35 33  1  0  0  0  0
 36 37  1  0  0  0  0
 36 34  1  0  0  0  0
 37 35  2  0  0  0  0
 38 36  1  0  0  0  0
 39 38  1  0  0  0  0
 40 44  1  0  0  0  0
 40 38  2  0  0  0  0
 41 39  2  0  0  0  0
 42 40  1  0  0  0  0
 43 42  2  0  0  0  0
 43 41  1  0  0  0  0
 44 45  1  0  0  0  0
 46 45  1  0  0  0  0
 47 46  1  0  0  0  0
 48 47  1  0  0  0  0
 49 41  1  0  0  0  0
 49 50  1  0  0  0  0
 51 49  1  0  0  0  0
 52 42  1  0  0  0  0
 53 52  1  0  0  0  0
 54 52  2  0  0  0  0
 55 53  2  0  0  0  0
 56 54  1  0  0  0  0
 57 56  2  0  0  0  0
 57 55  1  0  0  0  0
 58 59  1  0  0  0  0
 60 59  1  0  0  0  0
 60 61  1  0  0  0  0
 62 61  1  0  0  0  0
 63 62  1  0  0  0  0
M  END
>  <REMARK>
 VINA RESULT:    -4.800      6.239     10.623
 INTER + INTRA:         -17.023
 INTER:                  -9.087
 INTRA:                  -7.936
 UNBOUND:                -7.171
 SMILES CCOCCc1c(-c2ccccc2)nc(N)nc1-n1cc(COC(=O)NC[C@@H](O)C(O)[C@@H]2O[C@@](O)(C(=O)O)C[C@H](O)[C@H]2NC(C)=O)nn1
 SMILES IDX 23 1 24 2 26 3 25 5 27 6 28 7 30 8 32 9 34 10 39 11 33 12
 SMILES IDX 40 13 42 14 35 15 36 17 37 18 38 19 41 21 43 23 44 24 45 26
 SMILES IDX 46 27 31 28 29 30 22 32 21 33 20 34 47 35 19 36 48 37 18 38
 SMILES IDX 17 39 6 40 15 41 7 42 14 43 5 44 4 45 3 46 2 47 1 48 16 49
 SMILES IDX 8 52 9 53 13 54 10 55 12 56 11 57
 H PARENT 26 4 35 16 38 20 41 22 43 25 31 29 29 31 16 50 16 51
 Flexibility Score: inf
  4 active torsions:
  status: ('A' for Active; 'I' for Inactive)
    1  A    between atoms: CA   and  CB  
    2  A    between atoms: CB   and  CG  
    3  A    between atoms: CG   and  CD  
    4  A    between atoms: CD   and  CE  

>  <TORSDO>
F 21

>  <BEGIN_>
RES LYS A 131

$$$$
ligand_81_pose_4_2HRL.pdbqt
 OpenBabel07062320523D

  6  5  0  0  0  0  0  0  0  0999 V2000
   33.1930   34.6630    9.2900 C   0  0  0  0  0  0  0  0  0  0  0  0
   32.0600   35.3600   10.0340 C   0  0  0  0  0  0  0  0  0  0  0  0
   30.8040   35.5090    9.2150 C   0  0  0  0  0  0  0  0  0  0  0  0
   30.0900   34.1730    9.0790 C   0  0  0  0  0  0  0  0  0  0  0  0
   28.6370   34.3810    8.6970 C   0  0  0  0  0  0  0  0  0  0  0  0
   27.7280   33.6670    9.6350 N   0  0  0  0  0  0  0  0  0  0  0  0
  1  2  1  0  0  0  0
  3  2  1  0  0  0  0
  4  3  1  0  0  0  0
  5  4  1  0  0  0  0
  5  6  1  0  0  0  0
M  END
>  <EGIN_R>
ES LYS A 135

>  <REMARK>
  4 active torsions:
  status: ('A' for Active; 'I' for Inactive)
    5  A    between atoms: CA   and  CB  
    6  A    between atoms: CB   and  CG  
    7  A    between atoms: CG   and  CD  
    8  A    between atoms: CD   and  CE  

$$$$
