ligand_57_pose_2_2HRL.pdbqt
 OpenBabel07062320523D

 50 51  0  0  1  0  0  0  0  0999 V2000
   26.0960   27.2200   20.1560 C   0  0  0  0  0  0  0  0  0  0  0  0
   27.0370   27.4470   21.2920 C   0  0  2  0  0  0  0  0  0  0  0  0
   28.4880   27.4160   20.8600 C   0  0  2  0  0  0  0  0  0  0  0  0
   29.0390   28.8250   20.8260 C   0  0  2  0  0  0  0  0  0  0  0  0
   29.8380   30.5060   19.4150 C   0  0  2  0  0  0  0  0  0  0  0  0
   30.9870   30.7700   20.3400 C   0  0  0  0  0  0  0  0  0  0  0  0
   29.2130   29.3040   19.5660 O   0  0  0  0  0  0  0  0  0  0  0  0
   30.6660   30.3560   21.7510 C   0  0  1  0  0  0  0  0  0  0  0  0
   30.2540   28.8870   21.6960 C   0  0  1  0  0  0  0  0  0  0  0  0
   30.3180   30.6650   18.0850 O   0  0  0  0  0  0  0  0  0  0  0  0
   31.0720   31.3030   18.0530 H   0  0  0  0  0  0  0  0  0  0  0  0
   28.8190   31.5650   19.6290 C   0  0  0  0  0  0  0  0  0  0  0  0
   29.1750   32.7650   19.7310 O   0  0  0  0  0  0  0  0  0  0  0  0
   27.4560   31.3300   19.7280 O   0  0  0  0  0  0  0  0  0  0  0  0
   27.0720   30.4210   19.9870 H   0  0  0  0  0  0  0  0  0  0  0  0
   31.7730   30.4950   22.5930 O   0  0  0  0  0  0  0  0  0  0  0  0
   32.5830   30.0840   22.2200 H   0  0  0  0  0  0  0  0  0  0  0  0
   29.8940   28.5520   23.0800 N   0  0  0  0  0  0  0  0  0  0  0  0
   30.7380   27.7890   23.9120 C   0  0  0  0  0  0  0  0  0  0  0  0
   28.9890   28.9040   23.4180 H   0  0  0  0  0  0  0  0  0  0  0  0
   30.3540   27.4550   25.3280 C   0  0  0  0  0  0  0  0  0  0  0  0
   31.8340   27.3860   23.4440 O   0  0  0  0  0  0  0  0  0  0  0  0
   28.5750   26.7810   19.6430 O   0  0  0  0  0  0  0  0  0  0  0  0
   27.7620   26.9470   19.1010 H   0  0  0  0  0  0  0  0  0  0  0  0
   26.8510   26.4050   22.2300 O   0  0  0  0  0  0  0  0  0  0  0  0
   26.8770   26.7580   23.1580 H   0  0  0  0  0  0  0  0  0  0  0  0
   25.8900   28.4750   19.4660 N   0  0  0  0  0  0  0  0  0  0  0  0
   26.2110   28.7030   18.1010 C   0  0  0  0  0  0  0  0  0  0  0  0
   25.4740   29.3220   19.9590 H   0  0  0  0  0  0  0  0  0  0  0  0
   26.7000   27.7810   17.4310 O   0  0  0  0  0  0  0  0  0  0  0  0
   25.9960   29.9280   17.4820 O   0  0  0  0  0  0  0  0  0  0  0  0
   26.3030   30.1060   16.1140 C   0  0  0  0  0  0  0  0  0  0  0  0
   27.5210   30.9410   15.9520 C   0  0  0  0  0  0  0  0  0  0  0  0
   27.6670   32.2810   16.1700 C   0  0  0  0  0  0  0  0  0  0  0  0
   28.7290   30.5030   15.5480 N   0  0  0  0  0  0  0  0  0  0  0  0
   28.9350   32.6330   15.9010 N   0  0  0  0  0  0  0  0  0  0  0  0
   29.5580   31.5140   15.5220 N   0  0  0  0  0  0  0  0  0  0  0  0
   29.4910   33.9630   16.0080 C   0  0  0  0  0  0  0  0  0  0  0  0
   29.3900   34.7130   14.6990 C   0  0  0  0  0  0  0  0  0  0  0  0
   30.8910   33.9320   16.5450 C   0  0  0  0  0  0  0  0  0  0  0  0
   30.5280   34.3920   13.7590 C   0  0  0  0  0  0  0  0  0  0  0  0
   31.9270   33.5680   15.5270 C   0  0  0  0  0  0  0  0  0  0  0  0
   31.8090   34.4400   14.3980 N   0  0  0  0  0  0  0  0  0  0  0  0
   32.2120   35.7680   14.7630 C   0  0  0  0  0  0  0  0  0  0  0  0
   29.8670   25.5550   16.9770 C   0  0  0  0  0  0  0  0  0  0  0  0
   28.3450   25.7220   17.0260 C   0  0  0  0  0  0  0  0  0  0  0  0
   27.6010   24.4030   16.8880 C   0  0  0  0  0  0  0  0  0  0  0  0
   26.5470   24.2330   17.9470 C   0  0  0  0  0  0  0  0  0  0  0  0
   25.2490   23.7600   17.3010 C   0  0  0  0  0  0  0  0  0  0  0  0
   24.1450   24.7020   17.6020 N   0  0  0  0  0  0  0  0  0  0  0  0
  2  1  1  6  0  0  0
  2 25  1  0  0  0  0
  3 23  1  6  0  0  0
  3  2  1  0  0  0  0
  4  3  1  6  0  0  0
  4  9  1  0  0  0  0
  5 10  1  6  0  0  0
  5  7  1  0  0  0  0
  5 12  1  0  0  0  0
  5  6  1  0  0  0  0
  6  8  1  0  0  0  0
  7  4  1  0  0  0  0
  8 16  1  1  0  0  0
  9  8  1  0  0  0  0
  9 18  1  1  0  0  0
 11 10  1  0  0  0  0
 12 14  1  0  0  0  0
 12 13  2  0  0  0  0
 14 15  1  0  0  0  0
 17 16  1  0  0  0  0
 18 20  1  0  0  0  0
 18 19  1  0  0  0  0
 19 21  1  0  0  0  0
 22 19  2  0  0  0  0
 24 23  1  0  0  0  0
 25 26  1  0  0  0  0
 27 29  1  0  0  0  0
 27  1  1  0  0  0  0
 28 27  1  0  0  0  0
 30 28  2  0  0  0  0
 31 28  1  0  0  0  0
 32 31  1  0  0  0  0
 33 32  1  0  0  0  0
 33 34  2  0  0  0  0
 35 33  1  0  0  0  0
 36 38  1  0  0  0  0
 36 34  1  0  0  0  0
 37 35  2  0  0  0  0
 37 36  1  0  0  0  0
 38 40  1  0  0  0  0
 39 38  1  0  0  0  0
 41 43  1  0  0  0  0
 41 39  1  0  0  0  0
 42 40  1  0  0  0  0
 43 44  1  0  0  0  0
 43 42  1  0  0  0  0
 45 46  1  0  0  0  0
 47 46  1  0  0  0  0
 47 48  1  0  0  0  0
 49 50  1  0  0  0  0
 49 48  1  0  0  0  0
M  END
>  <REMARK>
 VINA RESULT:    -4.812      1.775      2.548
 INTER + INTRA:         -14.114
 INTER:                  -7.845
 INTRA:                  -6.269
 UNBOUND:                -5.786
 SMILES CC(=O)N[C@@H]1[C@@H](O)C[C@](O)(C(=O)O)O[C@H]1C(O)[C@H](O)CNC(=O)OCc1cn(C2CCN(C)CC2)nn1
 SMILES IDX 20 1 18 2 16 3 15 4 9 5 8 6 14 7 6 8 5 9 10 10 11 12 12 13
 SMILES IDX 13 14 7 16 4 18 2 19 1 21 3 22 17 23 19 25 21 27 22 28 23 30
 SMILES IDX 24 31 25 32 26 33 27 34 37 35 28 36 36 37 29 38 30 39 35 40
 SMILES IDX 31 41 34 42 32 43 33 44
 H PARENT 10 11 13 15 7 17 4 20 17 24 19 26 21 29
 Flexibility Score: inf
  4 active torsions:
  status: ('A' for Active; 'I' for Inactive)
    1  A    between atoms: CA   and  CB  
    2  A    between atoms: CB   and  CG  
    3  A    between atoms: CG   and  CD  
    4  A    between atoms: CD   and  CE  

>  <TORSDO>
F 15

>  <BEGIN_>
RES LYS A 131

$$$$
ligand_57_pose_2_2HRL.pdbqt
 OpenBabel07062320523D

  6  5  0  0  0  0  0  0  0  0999 V2000
   33.1930   34.6630    9.2900 C   0  0  0  0  0  0  0  0  0  0  0  0
   32.0600   35.3600   10.0340 C   0  0  0  0  0  0  0  0  0  0  0  0
   30.8030   35.5080    9.2160 C   0  0  0  0  0  0  0  0  0  0  0  0
   30.1550   34.1530    8.9780 C   0  0  0  0  0  0  0  0  0  0  0  0
   28.7000   34.3200    8.5840 C   0  0  0  0  0  0  0  0  0  0  0  0
   27.7970   33.6800    9.5790 N   0  0  0  0  0  0  0  0  0  0  0  0
  1  2  1  0  0  0  0
  3  2  1  0  0  0  0
  4  3  1  0  0  0  0
  5  4  1  0  0  0  0
  5  6  1  0  0  0  0
M  END
>  <EGIN_R>
ES LYS A 135

>  <REMARK>
  4 active torsions:
  status: ('A' for Active; 'I' for Inactive)
    5  A    between atoms: CA   and  CB  
    6  A    between atoms: CB   and  CG  
    7  A    between atoms: CG   and  CD  
    8  A    between atoms: CD   and  CE  

$$$$
