ligand_64_pose_14_2HRL.pdbqt
 OpenBabel07062320523D

 59 61  0  0  1  0  0  0  0  0999 V2000
   27.1770   36.0950   18.6770 N   0  0  0  0  0  0  0  0  0  0  0  0
   25.8780   35.5840   18.3660 C   0  0  0  0  0  0  0  0  0  0  0  0
   25.4260   34.6430   19.0680 O   0  0  0  0  0  0  0  0  0  0  0  0
   27.5000   36.8860   18.0470 H   0  0  0  0  0  0  0  0  0  0  0  0
   27.9930   35.5930   19.7490 C   0  0  0  0  0  0  0  0  0  0  0  0
   29.2690   35.0030   19.2280 C   0  0  2  0  0  0  0  0  0  0  0  0
   29.1230   33.4870   19.2310 C   0  0  2  0  0  0  0  0  0  0  0  0
   29.4560   32.9380   17.8870 C   0  0  2  0  0  0  0  0  0  0  0  0
   28.8070   33.1120   15.6610 C   0  0  2  0  0  0  0  0  0  0  0  0
   30.0840   32.3000   15.4830 C   0  0  0  0  0  0  0  0  0  0  0  0
   28.6490   33.5960   16.9340 O   0  0  0  0  0  0  0  0  0  0  0  0
   29.9990   31.1190   16.3840 C   0  0  1  0  0  0  0  0  0  0  0  0
   29.2300   31.4810   17.6740 C   0  0  1  0  0  0  0  0  0  0  0  0
   27.7670   32.2170   15.3100 O   0  0  0  0  0  0  0  0  0  0  0  0
   27.8870   31.4360   15.9090 H   0  0  0  0  0  0  0  0  0  0  0  0
   28.7640   34.2540   14.7290 C   0  0  0  0  0  0  0  0  0  0  0  0
   29.4640   34.2470   13.7000 O   0  0  0  0  0  0  0  0  0  0  0  0
   27.9510   35.3370   14.9860 O   0  0  0  0  0  0  0  0  0  0  0  0
   28.1410   36.2690   14.6280 H   0  0  0  0  0  0  0  0  0  0  0  0
   29.4650   29.9950   15.7930 O   0  0  0  0  0  0  0  0  0  0  0  0
   30.1720   29.4360   15.4020 H   0  0  0  0  0  0  0  0  0  0  0  0
   29.6770   30.6090   18.7250 N   0  0  0  0  0  0  0  0  0  0  0  0
   28.7430   29.8340   19.5060 C   0  0  0  0  0  0  0  0  0  0  0  0
   30.6760   30.5190   18.9280 H   0  0  0  0  0  0  0  0  0  0  0  0
   29.1580   28.9300   20.5900 C   0  0  0  0  0  0  0  0  0  0  0  0
   27.5240   29.9840   19.1960 O   0  0  0  0  0  0  0  0  0  0  0  0
   27.9270   33.0480   19.7320 O   0  0  0  0  0  0  0  0  0  0  0  0
   27.7230   33.3090   20.6470 H   0  0  0  0  0  0  0  0  0  0  0  0
   30.2620   35.3670   20.1600 O   0  0  0  0  0  0  0  0  0  0  0  0
   30.0810   34.8300   20.9590 H   0  0  0  0  0  0  0  0  0  0  0  0
   25.1430   36.1150   17.3170 O   0  0  0  0  0  0  0  0  0  0  0  0
   24.0990   35.3310   16.7760 C   0  0  0  0  0  0  0  0  0  0  0  0
   24.6130   34.7290   15.5180 C   0  0  0  0  0  0  0  0  0  0  0  0
   24.5760   35.2960   14.2380 C   0  0  0  0  0  0  0  0  0  0  0  0
   25.2170   33.5350   15.3160 N   0  0  0  0  0  0  0  0  0  0  0  0
   25.1370   34.4540   13.3520 N   0  0  0  0  0  0  0  0  0  0  0  0
   25.5160   33.3980   14.0310 N   0  0  0  0  0  0  0  0  0  0  0  0
   25.2590   34.7380   11.9430 C   0  0  0  0  0  0  0  0  0  0  0  0
   24.1780   35.1110   11.1870 C   0  0  0  0  0  0  0  0  0  0  0  0
   26.4930   34.6370   11.3110 C   0  0  0  0  0  0  0  0  0  0  0  0
   24.2600   35.3880    9.8380 C   0  0  0  0  0  0  0  0  0  0  0  0
   26.5890   34.9090    9.9710 C   0  0  0  0  0  0  0  0  0  0  0  0
   25.4790   35.2720    9.2880 N   0  0  0  0  0  0  0  0  0  0  0  0
   23.1000   35.7830    9.0560 C   0  0  0  0  0  0  0  0  0  0  0  0
   23.1570   36.8240    8.3730 O   0  0  0  0  0  0  0  0  0  0  0  0
   21.9420   35.0340    9.0530 O   0  0  0  0  0  0  0  0  0  0  0  0
   21.0450   35.3950    9.3960 H   0  0  0  0  0  0  0  0  0  0  0  0
   27.8840   34.8090    9.2730 C   0  0  0  0  0  0  0  0  0  0  0  0
   27.9810   35.3360    8.0040 C   0  0  0  0  0  0  0  0  0  0  0  0
   28.9510   34.2080    9.8780 C   0  0  0  0  0  0  0  0  0  0  0  0
   29.1870   35.2440    7.3510 C   0  0  0  0  0  0  0  0  0  0  0  0
   30.1450   34.1370    9.1860 C   0  0  0  0  0  0  0  0  0  0  0  0
   30.2940   34.6480    7.9170 C   0  0  0  0  0  0  0  0  0  0  0  0
   29.8670   25.5550   16.9770 C   0  0  0  0  0  0  0  0  0  0  0  0
   28.3450   25.7220   17.0260 C   0  0  0  0  0  0  0  0  0  0  0  0
   27.6020   24.3990   16.9260 C   0  0  0  0  0  0  0  0  0  0  0  0
   26.1590   24.5270   17.3290 C   0  0  0  0  0  0  0  0  0  0  0  0
   25.8810   23.6190   18.5230 C   0  0  0  0  0  0  0  0  0  0  0  0
   25.4980   24.4220   19.7080 N   0  0  0  0  0  0  0  0  0  0  0  0
  1  5  1  0  0  0  0
  2  1  1  0  0  0  0
  2  3  2  0  0  0  0
  4  1  1  0  0  0  0
  6  7  1  0  0  0  0
  6  5  1  1  0  0  0
  6 29  1  0  0  0  0
  7 27  1  6  0  0  0
  8  7  1  1  0  0  0
  9 16  1  6  0  0  0
  9 11  1  0  0  0  0
 10  9  1  0  0  0  0
 10 12  1  0  0  0  0
 11  8  1  0  0  0  0
 12 20  1  6  0  0  0
 12 13  1  0  0  0  0
 13  8  1  0  0  0  0
 13 22  1  1  0  0  0
 14  9  1  0  0  0  0
 14 15  1  0  0  0  0
 16 18  1  0  0  0  0
 17 16  2  0  0  0  0
 19 18  1  0  0  0  0
 21 20  1  0  0  0  0
 22 24  1  0  0  0  0
 22 23  1  0  0  0  0
 23 25  1  0  0  0  0
 26 23  2  0  0  0  0
 27 28  1  0  0  0  0
 29 30  1  0  0  0  0
 31  2  1  0  0  0  0
 32 31  1  0  0  0  0
 33 32  1  0  0  0  0
 34 33  2  0  0  0  0
 35 33  1  0  0  0  0
 36 37  1  0  0  0  0
 36 34  1  0  0  0  0
 37 35  2  0  0  0  0
 38 36  1  0  0  0  0
 39 38  2  0  0  0  0
 40 38  1  0  0  0  0
 41 39  1  0  0  0  0
 42 40  2  0  0  0  0
 43 41  2  0  0  0  0
 43 42  1  0  0  0  0
 44 41  1  0  0  0  0
 45 44  2  0  0  0  0
 46 44  1  0  0  0  0
 46 47  1  0  0  0  0
 48 50  1  0  0  0  0
 48 42  1  0  0  0  0
 49 48  2  0  0  0  0
 51 53  2  0  0  0  0
 51 49  1  0  0  0  0
 52 50  2  0  0  0  0
 53 52  1  0  0  0  0
 54 55  1  0  0  0  0
 56 55  1  0  0  0  0
 56 57  1  0  0  0  0
 57 58  1  0  0  0  0
 58 59  1  0  0  0  0
M  END
>  <REMARK>
 VINA RESULT:    -5.919      2.189      3.032
 INTER + INTRA:         -16.325
 INTER:                 -10.406
 INTRA:                  -5.920
 UNBOUND:                -5.216
 SMILES CC(=O)N[C@@H]1[C@@H](O)C[C@](O)(C(=O)O)O[C@H]1C(O)[C@H](O)CNC(=O)OCc1cn(-c2cc(C(=O)O)nc(-c3ccccc3)c2)nn1
 SMILES IDX 21 1 22 2 23 3 20 5 18 6 16 7 15 8 9 9 8 10 14 11 6 12 5 13
 SMILES IDX 10 14 11 16 12 17 13 18 7 20 4 22 2 23 1 25 3 26 17 27 19 29
 SMILES IDX 24 31 25 32 26 33 27 34 45 35 28 36 44 37 29 38 30 39 43 40
 SMILES IDX 31 41 36 42 35 43 32 44 33 45 34 46 37 48 38 49 42 50 39 51
 SMILES IDX 41 52 40 53
 H PARENT 21 4 10 15 13 19 7 21 4 24 17 28 19 30 34 47
 Flexibility Score: inf
  4 active torsions:
  status: ('A' for Active; 'I' for Inactive)
    1  A    between atoms: CA   and  CB  
    2  A    between atoms: CB   and  CG  
    3  A    between atoms: CG   and  CD  
    4  A    between atoms: CD   and  CE  

>  <TORSDO>
F 18

>  <BEGIN_>
RES LYS A 131

$$$$
ligand_64_pose_14_2HRL.pdbqt
 OpenBabel07062320523D

  6  5  0  0  0  0  0  0  0  0999 V2000
   33.1930   34.6630    9.2900 C   0  0  0  0  0  0  0  0  0  0  0  0
   32.0600   35.3600   10.0340 C   0  0  0  0  0  0  0  0  0  0  0  0
   32.5360   36.3170   11.0970 C   0  0  0  0  0  0  0  0  0  0  0  0
   31.5890   37.5010   11.2150 C   0  0  0  0  0  0  0  0  0  0  0  0
   30.9710   37.8260    9.8680 C   0  0  0  0  0  0  0  0  0  0  0  0
   29.5000   38.0250    9.9870 N   0  0  0  0  0  0  0  0  0  0  0  0
  1  2  1  0  0  0  0
  2  3  1  0  0  0  0
  3  4  1  0  0  0  0
  5  6  1  0  0  0  0
  5  4  1  0  0  0  0
M  END
>  <EGIN_R>
ES LYS A 135

>  <REMARK>
  4 active torsions:
  status: ('A' for Active; 'I' for Inactive)
    5  A    between atoms: CA   and  CB  
    6  A    between atoms: CB   and  CG  
    7  A    between atoms: CG   and  CD  
    8  A    between atoms: CD   and  CE  

$$$$
