ligand_34_pose_5_2HRL.pdbqt
 OpenBabel07062320523D

 69 73  0  0  1  0  0  0  0  0999 V2000
   31.9230   27.9980   23.3160 N   0  0  0  0  0  0  0  0  0  0  0  0
   33.1780   28.5260   23.7760 C   0  0  0  0  0  0  0  0  0  0  0  0
   34.2210   28.0540   23.2460 O   0  0  0  0  0  0  0  0  0  0  0  0
   31.0340   28.3480   23.7170 H   0  0  0  0  0  0  0  0  0  0  0  0
   31.8720   26.9780   22.2960 C   0  0  0  0  0  0  0  0  0  0  0  0
   31.5120   27.6060   20.9900 C   0  0  2  0  0  0  0  0  0  0  0  0
   29.9990   27.7040   20.8000 C   0  0  2  0  0  0  0  0  0  0  0  0
   29.5460   29.1520   20.8930 C   0  0  2  0  0  0  0  0  0  0  0  0
   28.6300   29.9060   22.8980 C   0  0  2  0  0  0  0  0  0  0  0  0
   27.8780   31.0210   22.2050 C   0  0  0  0  0  0  0  0  0  0  0  0
   29.7490   29.5730   22.1770 O   0  0  0  0  0  0  0  0  0  0  0  0
   27.5370   30.6440   20.8090 C   0  0  1  0  0  0  0  0  0  0  0  0
   28.1730   29.3550   20.3540 C   0  0  1  0  0  0  0  0  0  0  0  0
   27.7510   28.8720   23.0990 O   0  0  0  0  0  0  0  0  0  0  0  0
   27.4510   28.4280   22.2850 H   0  0  0  0  0  0  0  0  0  0  0  0
   29.0770   30.4390   24.2070 C   0  0  0  0  0  0  0  0  0  0  0  0
   28.4580   31.3930   24.7400 O   0  0  0  0  0  0  0  0  0  0  0  0
   30.1670   29.9330   24.8960 O   0  0  0  0  0  0  0  0  0  0  0  0
   31.1150   30.3170   24.7640 H   0  0  0  0  0  0  0  0  0  0  0  0
   26.1620   30.5340   20.6180 O   0  0  0  0  0  0  0  0  0  0  0  0
   25.8360   31.0040   19.8200 H   0  0  0  0  0  0  0  0  0  0  0  0
   28.2120   29.4240   18.8850 N   0  0  0  0  0  0  0  0  0  0  0  0
   27.2690   28.7970   18.0520 C   0  0  0  0  0  0  0  0  0  0  0  0
   28.9920   29.9770   18.4610 H   0  0  0  0  0  0  0  0  0  0  0  0
   27.3760   28.9130   16.5800 C   0  0  0  0  0  0  0  0  0  0  0  0
   26.3410   28.1400   18.6300 O   0  0  0  0  0  0  0  0  0  0  0  0
   29.4360   26.9370   21.8260 O   0  0  0  0  0  0  0  0  0  0  0  0
   28.8780   27.5580   22.3660 H   0  0  0  0  0  0  0  0  0  0  0  0
   32.1040   26.9480   19.9150 O   0  0  0  0  0  0  0  0  0  0  0  0
   32.0550   25.9660   20.0000 H   0  0  0  0  0  0  0  0  0  0  0  0
   33.2770   29.4890   24.7350 O   0  0  0  0  0  0  0  0  0  0  0  0
   33.8580   30.7430   24.4660 C   0  0  0  0  0  0  0  0  0  0  0  0
   32.8630   31.5950   23.7860 C   0  0  0  0  0  0  0  0  0  0  0  0
   32.5920   31.6450   22.4170 C   0  0  0  0  0  0  0  0  0  0  0  0
   32.0330   32.4900   24.3420 N   0  0  0  0  0  0  0  0  0  0  0  0
   31.6230   32.5520   22.2000 N   0  0  0  0  0  0  0  0  0  0  0  0
   31.3070   33.0440   23.3790 N   0  0  0  0  0  0  0  0  0  0  0  0
   31.1070   32.8610   20.9150 C   0  0  0  0  0  0  0  0  0  0  0  0
   30.6140   34.0750   20.5410 C   0  0  0  0  0  0  0  0  0  0  0  0
   31.0980   31.8430   19.9560 C   0  0  0  0  0  0  0  0  0  0  0  0
   30.1140   34.3310   19.2680 C   0  0  0  0  0  0  0  0  0  0  0  0
   30.6130   32.0710   18.6980 C   0  0  0  0  0  0  0  0  0  0  0  0
   30.1160   33.3270   18.3500 C   0  0  0  0  0  0  0  0  0  0  0  0
   29.5940   35.6470   18.9030 C   0  0  0  0  0  0  0  0  0  0  0  0
   28.3710   35.9440   19.0820 O   0  0  0  0  0  0  0  0  0  0  0  0
   30.4200   36.5930   18.3600 O   0  0  0  0  0  0  0  0  0  0  0  0
   29.6220   33.4670   16.9900 C   0  0  0  0  0  0  0  0  0  0  0  0
   30.3940   33.8600   15.9180 C   0  0  0  0  0  0  0  0  0  0  0  0
   28.2890   33.1860   16.7430 C   0  0  0  0  0  0  0  0  0  0  0  0
   31.7290   34.1500   16.1240 C   0  0  0  0  0  0  0  0  0  0  0  0
   29.8630   33.9730   14.6390 C   0  0  0  0  0  0  0  0  0  0  0  0
   27.7810   33.3190   15.3860 C   0  0  0  0  0  0  0  0  0  0  0  0
   27.4320   32.7860   17.7430 C   0  0  0  0  0  0  0  0  0  0  0  0
   32.5460   34.5490   15.0770 C   0  0  0  0  0  0  0  0  0  0  0  0
   30.6480   34.3670   13.5790 C   0  0  0  0  0  0  0  0  0  0  0  0
   28.6000   33.7060   14.4110 O   0  0  0  0  0  0  0  0  0  0  0  0
   26.4700   33.0440   15.1330 C   0  0  0  0  0  0  0  0  0  0  0  0
   26.1270   32.5220   17.4390 C   0  0  0  0  0  0  0  0  0  0  0  0
   31.9910   34.6520   13.8180 C   0  0  0  0  0  0  0  0  0  0  0  0
   25.6310   32.6440   16.1500 C   0  0  0  0  0  0  0  0  0  0  0  0
   24.4180   32.3890   15.9210 O   0  0  0  0  0  0  0  0  0  0  0  0
   32.7980   35.0510   12.7660 O   0  0  0  0  0  0  0  0  0  0  0  0
   33.6910   35.4940   12.8770 H   0  0  0  0  0  0  0  0  0  0  0  0
   29.8670   25.5550   16.9770 C   0  0  0  0  0  0  0  0  0  0  0  0
   28.3450   25.7220   17.0260 C   0  0  0  0  0  0  0  0  0  0  0  0
   27.6020   24.3990   16.9180 C   0  0  0  0  0  0  0  0  0  0  0  0
   26.1540   24.5300   17.3040 C   0  0  0  0  0  0  0  0  0  0  0  0
   25.7930   23.4350   18.3020 C   0  0  0  0  0  0  0  0  0  0  0  0
   25.0470   22.3450   17.6290 N   0  0  0  0  0  0  0  0  0  0  0  0
  1  4  1  0  0  0  0
  1  2  1  0  0  0  0
  2 31  1  0  0  0  0
  3  2  2  0  0  0  0
  5  1  1  0  0  0  0
  6  5  1  1  0  0  0
  7  6  1  0  0  0  0
  7 27  1  1  0  0  0
  8  7  1  1  0  0  0
  8 11  1  0  0  0  0
  9 14  1  1  0  0  0
  9 16  1  0  0  0  0
 10  9  1  0  0  0  0
 11  9  1  0  0  0  0
 12 20  1  1  0  0  0
 12 10  1  0  0  0  0
 13 22  1  6  0  0  0
 13 12  1  0  0  0  0
 13  8  1  0  0  0  0
 15 14  1  0  0  0  0
 16 17  2  0  0  0  0
 16 18  1  0  0  0  0
 19 18  1  0  0  0  0
 21 20  1  0  0  0  0
 23 26  2  0  0  0  0
 23 22  1  0  0  0  0
 24 22  1  0  0  0  0
 25 23  1  0  0  0  0
 27 28  1  0  0  0  0
 29 30  1  0  0  0  0
 29  6  1  0  0  0  0
 32 31  1  0  0  0  0
 33 35  1  0  0  0  0
 33 32  1  0  0  0  0
 34 33  2  0  0  0  0
 36 34  1  0  0  0  0
 36 37  1  0  0  0  0
 37 35  2  0  0  0  0
 38 36  1  0  0  0  0
 39 38  1  0  0  0  0
 40 38  2  0  0  0  0
 41 39  2  0  0  0  0
 42 40  1  0  0  0  0
 43 42  2  0  0  0  0
 43 41  1  0  0  0  0
 44 45  1  0  0  0  0
 44 41  1  0  0  0  0
 46 44  2  0  0  0  0
 47 43  1  0  0  0  0
 48 50  2  0  0  0  0
 48 47  1  0  0  0  0
 49 47  2  0  0  0  0
 49 53  1  0  0  0  0
 51 48  1  0  0  0  0
 52 49  1  0  0  0  0
 54 50  1  0  0  0  0
 55 59  1  0  0  0  0
 55 51  2  0  0  0  0
 56 51  1  0  0  0  0
 56 52  1  0  0  0  0
 57 52  2  0  0  0  0
 57 60  1  0  0  0  0
 58 53  2  0  0  0  0
 59 54  2  0  0  0  0
 60 58  1  0  0  0  0
 61 60  2  0  0  0  0
 62 63  1  0  0  0  0
 62 59  1  0  0  0  0
 64 65  1  0  0  0  0
 66 65  1  0  0  0  0
 66 67  1  0  0  0  0
 67 68  1  0  0  0  0
 69 68  1  0  0  0  0
M  END
>  <REMARK>
 VINA RESULT:    -5.507      3.871      8.417
 INTER + INTRA:         -18.053
 INTER:                  -9.123
 INTRA:                  -8.930
 UNBOUND:                -7.717
 SMILES CC(=O)N[C@@H]1[C@@H](O)C[C@](O)(C(=O)O)O[C@H]1C(O)[C@H](O)CNC(=O)OCc1cn(-c2ccc(-c3c4ccc(=O)cc-4oc4cc(O)ccc34)c(C(=O)[O-])c2)nn1
 SMILES IDX 21 1 22 2 23 3 20 5 18 6 16 7 15 8 9 9 8 10 14 11 6 12 5 13
 SMILES IDX 10 14 11 16 12 17 13 18 7 20 4 22 2 23 1 25 3 26 17 27 19 29
 SMILES IDX 24 31 25 32 26 33 27 34 55 35 28 36 54 37 29 38 53 39 30 40
 SMILES IDX 49 41 31 42 32 43 50 44 51 45 52 46 33 47 48 48 34 49 47 50
 SMILES IDX 42 51 40 52 35 53 46 54 43 55 41 56 39 57 36 58 44 59 37 60
 SMILES IDX 38 61 45 62
 H PARENT 21 4 10 15 13 19 7 21 4 24 17 28 19 30 45 63
 Flexibility Score: inf
  4 active torsions:
  status: ('A' for Active; 'I' for Inactive)
    1  A    between atoms: CA   and  CB  
    2  A    between atoms: CB   and  CG  
    3  A    between atoms: CG   and  CD  
    4  A    between atoms: CD   and  CE  

>  <TORSDO>
F 18

>  <BEGIN_>
RES LYS A 131

$$$$
ligand_34_pose_5_2HRL.pdbqt
 OpenBabel07062320523D

  6  5  0  0  0  0  0  0  0  0999 V2000
   33.1930   34.6630    9.2900 C   0  0  0  0  0  0  0  0  0  0  0  0
   32.0600   35.3600   10.0340 C   0  0  0  0  0  0  0  0  0  0  0  0
   30.7180   34.7010    9.8420 C   0  0  0  0  0  0  0  0  0  0  0  0
   30.2010   34.9370    8.4320 C   0  0  0  0  0  0  0  0  0  0  0  0
   28.7610   34.4770    8.3090 C   0  0  0  0  0  0  0  0  0  0  0  0
   28.2260   34.0300    9.6250 N   0  0  0  0  0  0  0  0  0  0  0  0
  1  2  1  0  0  0  0
  3  2  1  0  0  0  0
  4  3  1  0  0  0  0
  5  4  1  0  0  0  0
  5  6  1  0  0  0  0
M  END
>  <EGIN_R>
ES LYS A 135

>  <REMARK>
  4 active torsions:
  status: ('A' for Active; 'I' for Inactive)
    5  A    between atoms: CA   and  CB  
    6  A    between atoms: CB   and  CG  
    7  A    between atoms: CG   and  CD  
    8  A    between atoms: CD   and  CE  

$$$$
