ligand_28_pose_12_2HRL.pdbqt
 OpenBabel07062320523D

 53 55  0  0  1  0  0  0  0  0999 V2000
   28.8630   39.0930   10.9710 N   0  0  0  0  0  0  0  0  0  0  0  0
   30.2290   39.0780   10.5730 C   0  0  0  0  0  0  0  0  0  0  0  0
   30.5430   39.4410    9.3920 O   0  0  0  0  0  0  0  0  0  0  0  0
   28.6400   38.7940   11.9310 H   0  0  0  0  0  0  0  0  0  0  0  0
   27.8940   39.5270    9.9970 C   0  0  0  0  0  0  0  0  0  0  0  0
   27.1650   38.4020    9.3350 C   0  0  2  0  0  0  0  0  0  0  0  0
   26.7180   37.3380   10.3130 C   0  0  2  0  0  0  0  0  0  0  0  0
   25.6210   36.4720    9.7000 C   0  0  2  0  0  0  0  0  0  0  0  0
   23.7000   37.4430    8.8330 C   0  0  2  0  0  0  0  0  0  0  0  0
   22.8030   36.3140    9.2870 C   0  0  0  0  0  0  0  0  0  0  0  0
   25.0040   37.0800    8.6480 O   0  0  0  0  0  0  0  0  0  0  0  0
   23.5710   35.2370   10.0250 C   0  0  1  0  0  0  0  0  0  0  0  0
   24.6970   35.9280   10.7580 C   0  0  1  0  0  0  0  0  0  0  0  0
   23.5960   38.5400    9.7100 O   0  0  0  0  0  0  0  0  0  0  0  0
   24.4530   38.7880   10.1020 H   0  0  0  0  0  0  0  0  0  0  0  0
   23.1670   37.9130    7.5260 C   0  0  0  0  0  0  0  0  0  0  0  0
   23.2880   39.1290    7.1850 O   0  0  0  0  0  0  0  0  0  0  0  0
   22.5230   37.0870    6.6210 O   0  0  0  0  0  0  0  0  0  0  0  0
   23.0980   36.6190    5.9120 H   0  0  0  0  0  0  0  0  0  0  0  0
   22.7440   34.5110   10.8760 O   0  0  0  0  0  0  0  0  0  0  0  0
   23.3230   34.0650   11.5410 H   0  0  0  0  0  0  0  0  0  0  0  0
   25.4050   35.0860   11.6540 N   0  0  0  0  0  0  0  0  0  0  0  0
   25.1020   35.0190   13.0380 C   0  0  0  0  0  0  0  0  0  0  0  0
   26.1880   34.4930   11.2470 H   0  0  0  0  0  0  0  0  0  0  0  0
   25.8690   34.1180   13.9570 C   0  0  0  0  0  0  0  0  0  0  0  0
   24.1630   35.7500   13.4450 O   0  0  0  0  0  0  0  0  0  0  0  0
   26.1570   37.9850   11.4130 O   0  0  0  0  0  0  0  0  0  0  0  0
   26.6580   38.8160   11.6030 H   0  0  0  0  0  0  0  0  0  0  0  0
   28.0210   37.8420    8.3870 O   0  0  0  0  0  0  0  0  0  0  0  0
   28.4230   38.5250    7.7970 H   0  0  0  0  0  0  0  0  0  0  0  0
   31.2560   38.6800   11.4220 O   0  0  0  0  0  0  0  0  0  0  0  0
   30.9470   38.4360   12.7900 C   0  0  0  0  0  0  0  0  0  0  0  0
   31.1030   36.9980   13.1080 C   0  0  0  0  0  0  0  0  0  0  0  0
   32.0980   36.4750   13.8830 C   0  0  0  0  0  0  0  0  0  0  0  0
   30.3480   35.9710   12.7200 N   0  0  0  0  0  0  0  0  0  0  0  0
   31.9170   35.1480   13.9430 N   0  0  0  0  0  0  0  0  0  0  0  0
   30.8530   34.8560   13.2340 N   0  0  0  0  0  0  0  0  0  0  0  0
   32.7600   34.2220   14.6680 C   0  0  0  0  0  0  0  0  0  0  0  0
   31.9090   33.5870   15.7140 C   0  0  0  0  0  0  0  0  0  0  0  0
   31.8100   34.1950   16.9440 C   0  0  0  0  0  0  0  0  0  0  0  0
   31.2260   32.4190   15.4880 C   0  0  0  0  0  0  0  0  0  0  0  0
   31.0210   33.6200   17.9350 C   0  0  0  0  0  0  0  0  0  0  0  0
   30.4440   31.8500   16.4750 C   0  0  0  0  0  0  0  0  0  0  0  0
   30.3360   32.4450   17.7030 C   0  0  0  0  0  0  0  0  0  0  0  0
   29.6820   30.6980   16.4680 O   0  0  0  0  0  0  0  0  0  0  0  0
   29.5060   31.6890   18.5040 O   0  0  0  0  0  0  0  0  0  0  0  0
   28.9200   30.7110   17.6550 C   0  0  0  0  0  0  0  0  0  0  0  0
   29.8670   25.5550   16.9770 C   0  0  0  0  0  0  0  0  0  0  0  0
   28.3450   25.7220   17.0260 C   0  0  0  0  0  0  0  0  0  0  0  0
   27.6020   24.3990   16.9170 C   0  0  0  0  0  0  0  0  0  0  0  0
   26.3130   24.4080   17.6920 C   0  0  0  0  0  0  0  0  0  0  0  0
   26.2750   25.6320   18.6030 C   0  0  0  0  0  0  0  0  0  0  0  0
   25.5980   25.3060   19.8800 N   0  0  0  0  0  0  0  0  0  0  0  0
  1  4  1  0  0  0  0
  2  1  1  0  0  0  0
  2 31  1  0  0  0  0
  3  2  2  0  0  0  0
  5  1  1  0  0  0  0
  6  5  1  1  0  0  0
  6  7  1  0  0  0  0
  7 27  1  1  0  0  0
  8  7  1  1  0  0  0
  8 13  1  0  0  0  0
  9 16  1  6  0  0  0
  9 10  1  0  0  0  0
  9 14  1  0  0  0  0
 10 12  1  0  0  0  0
 11  9  1  0  0  0  0
 11  8  1  0  0  0  0
 12 13  1  0  0  0  0
 12 20  1  1  0  0  0
 13 22  1  1  0  0  0
 14 15  1  0  0  0  0
 17 16  2  0  0  0  0
 18 16  1  0  0  0  0
 19 18  1  0  0  0  0
 20 21  1  0  0  0  0
 22 23  1  0  0  0  0
 23 26  2  0  0  0  0
 23 25  1  0  0  0  0
 24 22  1  0  0  0  0
 27 28  1  0  0  0  0
 29  6  1  0  0  0  0
 30 29  1  0  0  0  0
 31 32  1  0  0  0  0
 32 33  1  0  0  0  0
 33 34  2  0  0  0  0
 34 36  1  0  0  0  0
 35 33  1  0  0  0  0
 35 37  2  0  0  0  0
 36 38  1  0  0  0  0
 37 36  1  0  0  0  0
 38 39  1  0  0  0  0
 39 40  1  0  0  0  0
 40 42  2  0  0  0  0
 41 39  2  0  0  0  0
 41 43  1  0  0  0  0
 43 44  2  0  0  0  0
 44 42  1  0  0  0  0
 44 46  1  0  0  0  0
 45 43  1  0  0  0  0
 45 47  1  0  0  0  0
 47 46  1  0  0  0  0
 48 49  1  0  0  0  0
 50 49  1  0  0  0  0
 50 51  1  0  0  0  0
 51 52  1  0  0  0  0
 52 53  1  0  0  0  0
M  END
>  <REMARK>
 VINA RESULT:    -4.908      2.415      4.911
 INTER + INTRA:         -14.785
 INTER:                  -9.140
 INTRA:                  -5.645
 UNBOUND:                -6.003
 SMILES CC(=O)N[C@@H]1[C@@H](O)C[C@](O)(C(=O)O)O[C@H]1C(O)[C@H](O)CNC(=O)OCc1cn(Cc2ccc3c(c2)OCO3)nn1
 SMILES IDX 21 1 22 2 23 3 20 5 18 6 16 7 15 8 9 9 8 10 14 11 6 12 5 13
 SMILES IDX 10 14 11 16 12 17 13 18 7 20 4 22 2 23 1 25 3 26 17 27 19 29
 SMILES IDX 24 31 25 32 26 33 27 34 40 35 28 36 39 37 29 38 30 39 31 40
 SMILES IDX 35 41 32 42 34 43 33 44 36 45 38 46 37 47
 H PARENT 21 4 10 15 13 19 7 21 4 24 17 28 19 30
 Flexibility Score: inf
  4 active torsions:
  status: ('A' for Active; 'I' for Inactive)
    1  A    between atoms: CA   and  CB  
    2  A    between atoms: CB   and  CG  
    3  A    between atoms: CG   and  CD  
    4  A    between atoms: CD   and  CE  

>  <TORSDO>
F 16

>  <BEGIN_>
RES LYS A 131

$$$$
ligand_28_pose_12_2HRL.pdbqt
 OpenBabel07062320523D

  6  5  0  0  0  0  0  0  0  0999 V2000
   33.1930   34.6630    9.2900 C   0  0  0  0  0  0  0  0  0  0  0  0
   32.0600   35.3600   10.0340 C   0  0  0  0  0  0  0  0  0  0  0  0
   30.8340   35.5870    9.1880 C   0  0  0  0  0  0  0  0  0  0  0  0
   30.1920   34.2610    8.8080 C   0  0  0  0  0  0  0  0  0  0  0  0
   28.7150   34.4480    8.5190 C   0  0  0  0  0  0  0  0  0  0  0  0
   27.8780   33.6700    9.4730 N   0  0  0  0  0  0  0  0  0  0  0  0
  1  2  1  0  0  0  0
  3  2  1  0  0  0  0
  4  3  1  0  0  0  0
  5  4  1  0  0  0  0
  5  6  1  0  0  0  0
M  END
>  <EGIN_R>
ES LYS A 135

>  <REMARK>
  4 active torsions:
  status: ('A' for Active; 'I' for Inactive)
    5  A    between atoms: CA   and  CB  
    6  A    between atoms: CB   and  CG  
    7  A    between atoms: CG   and  CD  
    8  A    between atoms: CD   and  CE  

$$$$
