ligand_34_pose_14_2HRL.pdbqt
 OpenBabel07062320523D

 69 73  0  0  1  0  0  0  0  0999 V2000
   30.6350   30.3940   19.7360 N   0  0  0  0  0  0  0  0  0  0  0  0
   29.9850   31.3410   18.8720 C   0  0  0  0  0  0  0  0  0  0  0  0
   28.7320   31.4410   18.9800 O   0  0  0  0  0  0  0  0  0  0  0  0
   31.6620   30.2700   19.6900 H   0  0  0  0  0  0  0  0  0  0  0  0
   29.8800   29.6020   20.6780 C   0  0  0  0  0  0  0  0  0  0  0  0
   29.6730   28.2350   20.1140 C   0  0  2  0  0  0  0  0  0  0  0  0
   28.4330   27.5590   20.6980 C   0  0  2  0  0  0  0  0  0  0  0  0
   27.5250   27.0640   19.5830 C   0  0  2  0  0  0  0  0  0  0  0  0
   26.7580   28.6000   18.0090 C   0  0  2  0  0  0  0  0  0  0  0  0
   25.5580   27.7450   17.6690 C   0  0  0  0  0  0  0  0  0  0  0  0
   27.7820   27.8130   18.4700 O   0  0  0  0  0  0  0  0  0  0  0  0
   25.1370   26.9310   18.8390 C   0  0  1  0  0  0  0  0  0  0  0  0
   26.0970   26.9950   20.0010 C   0  0  1  0  0  0  0  0  0  0  0  0
   26.3450   29.5720   18.8850 O   0  0  0  0  0  0  0  0  0  0  0  0
   26.7430   29.5160   19.7720 H   0  0  0  0  0  0  0  0  0  0  0  0
   27.2060   29.2310   16.7440 C   0  0  0  0  0  0  0  0  0  0  0  0
   26.4150   29.9540   16.0890 O   0  0  0  0  0  0  0  0  0  0  0  0
   28.4810   29.0650   16.2270 O   0  0  0  0  0  0  0  0  0  0  0  0
   28.8470   28.1320   15.9830 H   0  0  0  0  0  0  0  0  0  0  0  0
   23.8770   27.2970   19.3040 O   0  0  0  0  0  0  0  0  0  0  0  0
   23.1550   26.7080   18.9920 H   0  0  0  0  0  0  0  0  0  0  0  0
   25.8590   25.7740   20.7840 N   0  0  0  0  0  0  0  0  0  0  0  0
   25.5700   25.7770   22.1610 C   0  0  0  0  0  0  0  0  0  0  0  0
   25.9110   24.8660   20.2680 H   0  0  0  0  0  0  0  0  0  0  0  0
   25.3420   24.5040   22.8810 C   0  0  0  0  0  0  0  0  0  0  0  0
   25.5190   26.9150   22.7330 O   0  0  0  0  0  0  0  0  0  0  0  0
   27.7930   28.5360   21.4690 O   0  0  0  0  0  0  0  0  0  0  0  0
   28.4910   29.1990   21.7170 H   0  0  0  0  0  0  0  0  0  0  0  0
   30.7970   27.4290   20.2750 O   0  0  0  0  0  0  0  0  0  0  0  0
   31.4360   27.7990   20.9300 H   0  0  0  0  0  0  0  0  0  0  0  0
   30.6540   32.1110   17.9690 O   0  0  0  0  0  0  0  0  0  0  0  0
   30.5350   31.8980   16.5820 C   0  0  0  0  0  0  0  0  0  0  0  0
   29.9840   33.1170   15.9570 C   0  0  0  0  0  0  0  0  0  0  0  0
   29.7340   33.3270   14.5990 C   0  0  0  0  0  0  0  0  0  0  0  0
   29.6250   34.2580   16.5620 N   0  0  0  0  0  0  0  0  0  0  0  0
   29.2400   34.5680   14.4370 N   0  0  0  0  0  0  0  0  0  0  0  0
   29.1870   35.1030   15.6380 N   0  0  0  0  0  0  0  0  0  0  0  0
   28.8800   35.1130   13.1780 C   0  0  0  0  0  0  0  0  0  0  0  0
   28.9230   34.4410   11.9930 C   0  0  0  0  0  0  0  0  0  0  0  0
   28.4490   36.4430   13.1450 C   0  0  0  0  0  0  0  0  0  0  0  0
   28.5620   35.0190   10.7800 C   0  0  0  0  0  0  0  0  0  0  0  0
   28.0880   37.0330   11.9650 C   0  0  0  0  0  0  0  0  0  0  0  0
   28.1450   36.3140   10.7710 C   0  0  0  0  0  0  0  0  0  0  0  0
   28.6210   34.2660    9.5290 C   0  0  0  0  0  0  0  0  0  0  0  0
   29.7110   34.1420    8.8870 O   0  0  0  0  0  0  0  0  0  0  0  0
   27.4950   33.6750    9.0220 O   0  0  0  0  0  0  0  0  0  0  0  0
   27.7410   37.0310    9.5720 C   0  0  0  0  0  0  0  0  0  0  0  0
   26.4540   37.0640    9.0810 C   0  0  0  0  0  0  0  0  0  0  0  0
   28.7070   37.7320    8.8690 C   0  0  0  0  0  0  0  0  0  0  0  0
   25.4630   36.3770    9.7540 C   0  0  0  0  0  0  0  0  0  0  0  0
   26.1300   37.7710    7.9290 C   0  0  0  0  0  0  0  0  0  0  0  0
   28.3180   38.4560    7.6690 C   0  0  0  0  0  0  0  0  0  0  0  0
   30.0230   37.7620    9.2740 C   0  0  0  0  0  0  0  0  0  0  0  0
   24.1520   36.3820    9.2990 C   0  0  0  0  0  0  0  0  0  0  0  0
   24.8400   37.7950    7.4520 C   0  0  0  0  0  0  0  0  0  0  0  0
   27.0490   38.4330    7.2680 O   0  0  0  0  0  0  0  0  0  0  0  0
   29.2620   39.1500    6.9710 C   0  0  0  0  0  0  0  0  0  0  0  0
   30.9310   38.4710    8.5410 C   0  0  0  0  0  0  0  0  0  0  0  0
   23.8610   37.0930    8.1520 C   0  0  0  0  0  0  0  0  0  0  0  0
   30.5730   39.1670    7.3960 C   0  0  0  0  0  0  0  0  0  0  0  0
   31.4480   39.8060    6.7540 O   0  0  0  0  0  0  0  0  0  0  0  0
   22.5560   37.1020    7.6890 O   0  0  0  0  0  0  0  0  0  0  0  0
   22.2430   37.6240    6.8920 H   0  0  0  0  0  0  0  0  0  0  0  0
   29.8670   25.5550   16.9770 C   0  0  0  0  0  0  0  0  0  0  0  0
   28.3450   25.7220   17.0260 C   0  0  0  0  0  0  0  0  0  0  0  0
   27.5990   24.4490   16.6580 C   0  0  0  0  0  0  0  0  0  0  0  0
   26.9270   23.8220   17.8480 C   0  0  0  0  0  0  0  0  0  0  0  0
   25.4720   23.5160   17.5090 C   0  0  0  0  0  0  0  0  0  0  0  0
   24.7430   23.0590   18.7150 N   0  0  0  0  0  0  0  0  0  0  0  0
  1  5  1  0  0  0  0
  2  3  2  0  0  0  0
  2  1  1  0  0  0  0
  4  1  1  0  0  0  0
  6 29  1  0  0  0  0
  6  5  1  1  0  0  0
  6  7  1  0  0  0  0
  7 27  1  1  0  0  0
  8 13  1  0  0  0  0
  8  7  1  1  0  0  0
  9 16  1  6  0  0  0
  9 11  1  0  0  0  0
  9 14  1  0  0  0  0
 10  9  1  0  0  0  0
 10 12  1  0  0  0  0
 11  8  1  0  0  0  0
 12 20  1  1  0  0  0
 12 13  1  0  0  0  0
 13 22  1  1  0  0  0
 14 15  1  0  0  0  0
 17 16  2  0  0  0  0
 18 16  1  0  0  0  0
 19 18  1  0  0  0  0
 21 20  1  0  0  0  0
 22 23  1  0  0  0  0
 23 26  2  0  0  0  0
 23 25  1  0  0  0  0
 24 22  1  0  0  0  0
 27 28  1  0  0  0  0
 29 30  1  0  0  0  0
 31  2  1  0  0  0  0
 32 31  1  0  0  0  0
 33 35  1  0  0  0  0
 33 32  1  0  0  0  0
 34 33  2  0  0  0  0
 36 34  1  0  0  0  0
 36 37  1  0  0  0  0
 37 35  2  0  0  0  0
 38 36  1  0  0  0  0
 39 38  2  0  0  0  0
 40 38  1  0  0  0  0
 41 39  1  0  0  0  0
 42 40  2  0  0  0  0
 43 41  2  0  0  0  0
 43 42  1  0  0  0  0
 44 41  1  0  0  0  0
 45 44  2  0  0  0  0
 46 44  1  0  0  0  0
 47 43  1  0  0  0  0
 48 47  1  0  0  0  0
 48 50  2  0  0  0  0
 49 53  1  0  0  0  0
 49 47  2  0  0  0  0
 51 48  1  0  0  0  0
 52 49  1  0  0  0  0
 54 50  1  0  0  0  0
 55 51  2  0  0  0  0
 55 59  1  0  0  0  0
 56 52  1  0  0  0  0
 56 51  1  0  0  0  0
 57 60  1  0  0  0  0
 57 52  2  0  0  0  0
 58 53  2  0  0  0  0
 59 54  2  0  0  0  0
 60 58  1  0  0  0  0
 61 60  2  0  0  0  0
 62 59  1  0  0  0  0
 63 62  1  0  0  0  0
 64 65  1  0  0  0  0
 66 65  1  0  0  0  0
 66 67  1  0  0  0  0
 68 67  1  0  0  0  0
 68 69  1  0  0  0  0
M  END
>  <REMARK>
 VINA RESULT:    -5.389      3.852      7.236
 INTER + INTRA:         -17.833
 INTER:                 -12.848
 INTRA:                  -4.984
 UNBOUND:                -7.717
 SMILES CC(=O)N[C@@H]1[C@@H](O)C[C@](O)(C(=O)O)O[C@H]1C(O)[C@H](O)CNC(=O)OCc1cn(-c2ccc(-c3c4ccc(=O)cc-4oc4cc(O)ccc34)c(C(=O)[O-])c2)nn1
 SMILES IDX 21 1 22 2 23 3 20 5 18 6 16 7 15 8 9 9 8 10 14 11 6 12 5 13
 SMILES IDX 10 14 11 16 12 17 13 18 7 20 4 22 2 23 1 25 3 26 17 27 19 29
 SMILES IDX 24 31 25 32 26 33 27 34 55 35 28 36 54 37 29 38 53 39 30 40
 SMILES IDX 49 41 31 42 32 43 50 44 51 45 52 46 33 47 48 48 34 49 47 50
 SMILES IDX 42 51 40 52 35 53 46 54 43 55 41 56 39 57 36 58 44 59 37 60
 SMILES IDX 38 61 45 62
 H PARENT 21 4 10 15 13 19 7 21 4 24 17 28 19 30 45 63
 Flexibility Score: inf
  4 active torsions:
  status: ('A' for Active; 'I' for Inactive)
    1  A    between atoms: CA   and  CB  
    2  A    between atoms: CB   and  CG  
    3  A    between atoms: CG   and  CD  
    4  A    between atoms: CD   and  CE  

>  <TORSDO>
F 18

>  <BEGIN_>
RES LYS A 131

$$$$
ligand_34_pose_14_2HRL.pdbqt
 OpenBabel07062320523D

  6  5  0  0  0  0  0  0  0  0999 V2000
   33.1930   34.6630    9.2900 C   0  0  0  0  0  0  0  0  0  0  0  0
   32.0600   35.3600   10.0340 C   0  0  0  0  0  0  0  0  0  0  0  0
   32.2780   35.4420   11.5230 C   0  0  0  0  0  0  0  0  0  0  0  0
   32.0550   36.8620   12.0200 C   0  0  0  0  0  0  0  0  0  0  0  0
   32.0490   36.9000   13.5370 C   0  0  0  0  0  0  0  0  0  0  0  0
   32.5930   35.6370   14.1070 N   0  0  0  0  0  0  0  0  0  0  0  0
  1  2  1  0  0  0  0
  2  3  1  0  0  0  0
  3  4  1  0  0  0  0
  4  5  1  0  0  0  0
  5  6  1  0  0  0  0
M  END
>  <EGIN_R>
ES LYS A 135

>  <REMARK>
  4 active torsions:
  status: ('A' for Active; 'I' for Inactive)
    5  A    between atoms: CA   and  CB  
    6  A    between atoms: CB   and  CG  
    7  A    between atoms: CG   and  CD  
    8  A    between atoms: CD   and  CE  

$$$$
