ligand_63_pose_2_2HRL.pdbqt
 OpenBabel07062320523D

 51 52  0  0  1  0  0  0  0  0999 V2000
   33.1660   37.2060   18.6470 N   0  0  0  0  0  0  0  0  0  0  0  0
   33.4520   35.8710   19.0910 C   0  0  0  0  0  0  0  0  0  0  0  0
   32.5910   34.9850   19.0770 O   0  0  0  0  0  0  0  0  0  0  0  0
   34.0230   37.8510   18.6980 H   0  0  0  0  0  0  0  0  0  0  0  0
   31.9490   37.6390   18.1520 C   0  0  0  0  0  0  0  0  0  0  0  0
   31.8200   37.8600   16.6240 C   0  0  2  0  0  0  0  0  0  0  0  0
   32.0360   36.5140   16.0480 C   0  0  1  0  0  0  0  0  0  0  0  0
   30.8830   35.7440   15.5130 C   0  0  2  0  0  0  0  0  0  0  0  0
   31.0230   33.3970   15.4540 C   0  0  2  0  0  0  0  0  0  0  0  0
   29.9610   33.2460   14.3930 C   0  0  0  0  0  0  0  0  0  0  0  0
   30.8150   34.5280   16.2470 O   0  0  0  0  0  0  0  0  0  0  0  0
   29.5130   34.6330   13.8880 C   0  0  1  0  0  0  0  0  0  0  0  0
   30.7810   35.5010   14.0760 C   0  0  1  0  0  0  0  0  0  0  0  0
   32.2880   33.3270   14.8910 O   0  0  0  0  0  0  0  0  0  0  0  0
   32.9270   32.7940   15.3870 H   0  0  0  0  0  0  0  0  0  0  0  0
   30.8250   32.2680   16.3860 C   0  0  0  0  0  0  0  0  0  0  0  0
   30.5570   31.1420   16.2090 O   0  0  0  0  0  0  0  0  0  0  0  0
   31.0130   32.6780   17.7940 O   0  0  0  0  0  0  0  0  0  0  0  0
   31.8310   32.2780   18.2600 H   0  0  0  0  0  0  0  0  0  0  0  0
   29.1250   34.5810   12.5750 O   0  0  0  0  0  0  0  0  0  0  0  0
   29.8860   34.6090   11.9690 H   0  0  0  0  0  0  0  0  0  0  0  0
   30.5780   36.7180   13.2760 N   0  0  0  0  0  0  0  0  0  0  0  0
   31.5850   37.1040   12.3780 C   0  0  0  0  0  0  0  0  0  0  0  0
   29.7260   37.2370   13.3680 H   0  0  0  0  0  0  0  0  0  0  0  0
   31.7570   38.1490   11.4380 C   0  0  0  0  0  0  0  0  0  0  0  0
   32.6140   36.2130   12.4660 O   0  0  0  0  0  0  0  0  0  0  0  0
   33.2130   36.4420   15.3610 O   0  0  0  0  0  0  0  0  0  0  0  0
   33.7150   35.6030   15.5440 H   0  0  0  0  0  0  0  0  0  0  0  0
   32.7130   38.8500   16.3280 O   0  0  0  0  0  0  0  0  0  0  0  0
   32.4350   39.3110   15.4980 H   0  0  0  0  0  0  0  0  0  0  0  0
   34.7410   35.5770   19.5430 O   0  0  0  0  0  0  0  0  0  0  0  0
   35.8410   36.4750   19.2840 C   0  0  0  0  0  0  0  0  0  0  0  0
   36.6670   35.7070   18.2810 C   0  0  0  0  0  0  0  0  0  0  0  0
   36.6790   35.8880   16.9300 C   0  0  0  0  0  0  0  0  0  0  0  0
   37.5790   34.7870   18.5940 N   0  0  0  0  0  0  0  0  0  0  0  0
   37.6440   35.0410   16.4550 N   0  0  0  0  0  0  0  0  0  0  0  0
   38.1670   34.3890   17.5030 N   0  0  0  0  0  0  0  0  0  0  0  0
   38.0480   34.8840   15.1330 C   0  0  0  0  0  0  0  0  0  0  0  0
   37.4390   33.9250   14.3170 N   0  0  0  0  0  0  0  0  0  0  0  0
   39.1010   35.5360   14.5280 C   0  0  0  0  0  0  0  0  0  0  0  0
   37.8680   33.7210   13.1430 C   0  0  0  0  0  0  0  0  0  0  0  0
   39.5390   35.3100   13.3010 C   0  0  0  0  0  0  0  0  0  0  0  0
   38.9390   34.3390   12.4480 C   0  0  0  0  0  0  0  0  0  0  0  0
   39.8700   36.5420   15.3580 C   0  0  0  0  0  0  0  0  0  0  0  0
   40.3830   37.2250   15.8980 N   0  0  0  0  0  0  0  0  0  0  0  0
   29.8670   25.5550   16.9770 C   0  0  0  0  0  0  0  0  0  0  0  0
   28.3450   25.7220   17.0260 C   0  0  0  0  0  0  0  0  0  0  0  0
   27.5990   24.4380   16.6980 C   0  0  0  0  0  0  0  0  0  0  0  0
   26.9940   23.8060   17.9200 C   0  0  0  0  0  0  0  0  0  0  0  0
   25.6190   23.2420   17.5750 C   0  0  0  0  0  0  0  0  0  0  0  0
   24.7700   24.2880   16.9560 N   0  0  0  0  0  0  0  0  0  0  0  0
  1  4  1  0  0  0  0
  1  2  1  0  0  0  0
  2 31  1  0  0  0  0
  3  2  2  0  0  0  0
  5  1  1  0  0  0  0
  6  5  1  1  0  0  0
  7 27  1  6  0  0  0
  7  6  1  0  0  0  0
  8  7  1  6  0  0  0
  8 11  1  0  0  0  0
  9 14  1  6  0  0  0
  9 11  1  0  0  0  0
  9 16  1  0  0  0  0
 10  9  1  0  0  0  0
 12 20  1  6  0  0  0
 12 13  1  0  0  0  0
 12 10  1  0  0  0  0
 13 22  1  6  0  0  0
 13  8  1  0  0  0  0
 14 15  1  0  0  0  0
 16 18  1  0  0  0  0
 17 16  2  0  0  0  0
 18 19  1  0  0  0  0
 21 20  1  0  0  0  0
 22 24  1  0  0  0  0
 23 26  2  0  0  0  0
 23 22  1  0  0  0  0
 25 23  1  0  0  0  0
 27 28  1  0  0  0  0
 29  6  1  0  0  0  0
 30 29  1  0  0  0  0
 32 31  1  0  0  0  0
 33 35  1  0  0  0  0
 33 32  1  0  0  0  0
 34 33  2  0  0  0  0
 36 34  1  0  0  0  0
 36 37  1  0  0  0  0
 37 35  2  0  0  0  0
 38 36  1  0  0  0  0
 39 38  2  0  0  0  0
 40 38  1  0  0  0  0
 40 44  1  0  0  0  0
 41 39  1  0  0  0  0
 42 40  2  0  0  0  0
 43 41  2  0  0  0  0
 43 42  1  0  0  0  0
 44 45  3  0  0  0  0
 46 47  1  0  0  0  0
 48 47  1  0  0  0  0
 48 49  1  0  0  0  0
 50 49  1  0  0  0  0
 51 50  1  0  0  0  0
M  END
>  <REMARK>
 VINA RESULT:    -4.323      5.788      9.123
 INTER + INTRA:         -14.776
 INTER:                  -8.883
 INTRA:                  -5.893
 UNBOUND:                -7.042
 SMILES CC(=O)N[C@@H]1[C@@H](O)C[C@](O)(C(=O)O)O[C@H]1C(O)[C@H](O)CNC(=O)OCc1cn(-c2ncccc2C#N)nn1
 SMILES IDX 21 1 22 2 23 3 20 5 18 6 16 7 15 8 9 9 8 10 14 11 6 12 5 13
 SMILES IDX 10 14 11 16 12 17 13 18 7 20 4 22 2 23 1 25 3 26 17 27 19 29
 SMILES IDX 24 31 25 32 26 33 27 34 38 35 28 36 37 37 29 38 30 39 34 40
 SMILES IDX 31 41 33 42 32 43 35 44 36 45
 H PARENT 21 4 10 15 13 19 7 21 4 24 17 28 19 30
 Flexibility Score: inf
  4 active torsions:
  status: ('A' for Active; 'I' for Inactive)
    1  A    between atoms: CA   and  CB  
    2  A    between atoms: CB   and  CG  
    3  A    between atoms: CG   and  CD  
    4  A    between atoms: CD   and  CE  

>  <TORSDO>
F 16

>  <BEGIN_>
RES LYS A 131

$$$$
ligand_63_pose_2_2HRL.pdbqt
 OpenBabel07062320523D

  6  5  0  0  0  0  0  0  0  0999 V2000
   33.1930   34.6630    9.2900 C   0  0  0  0  0  0  0  0  0  0  0  0
   32.0600   35.3600   10.0340 C   0  0  0  0  0  0  0  0  0  0  0  0
   30.7780   35.4360    9.2450 C   0  0  0  0  0  0  0  0  0  0  0  0
   30.2000   34.0470    9.0240 C   0  0  0  0  0  0  0  0  0  0  0  0
   28.6850   34.0850    9.0840 C   0  0  0  0  0  0  0  0  0  0  0  0
   28.1910   35.4730    9.3010 N   0  0  0  0  0  0  0  0  0  0  0  0
  1  2  1  0  0  0  0
  3  2  1  0  0  0  0
  4  5  1  0  0  0  0
  4  3  1  0  0  0  0
  5  6  1  0  0  0  0
M  END
>  <EGIN_R>
ES LYS A 135

>  <REMARK>
  4 active torsions:
  status: ('A' for Active; 'I' for Inactive)
    5  A    between atoms: CA   and  CB  
    6  A    between atoms: CB   and  CG  
    7  A    between atoms: CG   and  CD  
    8  A    between atoms: CD   and  CE  

$$$$
