ligand_2_pose_10_2HRL.pdbqt
 OpenBabel07062320523D

 50 51  0  0  1  0  0  0  0  0999 V2000
   30.1890   33.8830   14.8340 C   0  0  0  0  0  0  0  0  0  0  0  0
   30.4570   32.5790   15.5160 C   0  0  2  0  0  0  0  0  0  0  0  0
   30.6550   32.8630   17.0130 C   0  0  2  0  0  0  0  0  0  0  0  0
   30.4930   31.5880   17.8380 C   0  0  2  0  0  0  0  0  0  0  0  0
   28.3960   30.5730   17.5520 C   0  0  2  0  0  0  0  0  0  0  0  0
   28.2690   30.0760   18.9760 C   0  0  0  0  0  0  0  0  0  0  0  0
   29.6600   30.7620   17.1120 O   0  0  0  0  0  0  0  0  0  0  0  0
   29.4570   30.5210   19.7520 C   0  0  1  0  0  0  0  0  0  0  0  0
   29.9410   31.8400   19.1810 C   0  0  1  0  0  0  0  0  0  0  0  0
   27.5730   31.6930   17.4560 O   0  0  0  0  0  0  0  0  0  0  0  0
   26.7040   31.3680   17.1080 H   0  0  0  0  0  0  0  0  0  0  0  0
   27.7850   29.5170   16.7040 C   0  0  0  0  0  0  0  0  0  0  0  0
   27.5400   29.7920   15.5080 O   0  0  0  0  0  0  0  0  0  0  0  0
   27.4900   28.2740   17.1910 O   0  0  0  0  0  0  0  0  0  0  0  0
   27.3840   28.1380   18.2000 H   0  0  0  0  0  0  0  0  0  0  0  0
   29.2300   30.5950   21.1200 O   0  0  0  0  0  0  0  0  0  0  0  0
   28.8940   31.4790   21.3710 H   0  0  0  0  0  0  0  0  0  0  0  0
   30.7930   32.4380   20.1500 N   0  0  0  0  0  0  0  0  0  0  0  0
   30.5540   33.7130   20.7160 C   0  0  0  0  0  0  0  0  0  0  0  0
   31.6340   31.8680   20.4320 H   0  0  0  0  0  0  0  0  0  0  0  0
   31.4620   34.3030   21.7210 C   0  0  0  0  0  0  0  0  0  0  0  0
   29.5140   34.2890   20.2930 O   0  0  0  0  0  0  0  0  0  0  0  0
   29.7300   33.8240   17.4360 O   0  0  0  0  0  0  0  0  0  0  0  0
   29.9890   34.7390   17.1340 H   0  0  0  0  0  0  0  0  0  0  0  0
   31.5340   31.9010   14.9920 O   0  0  0  0  0  0  0  0  0  0  0  0
   32.4160   32.2640   15.1860 H   0  0  0  0  0  0  0  0  0  0  0  0
   28.8240   34.1890   14.5640 N   0  0  0  0  0  0  0  0  0  0  0  0
   28.1460   35.3510   15.0090 C   0  0  0  0  0  0  0  0  0  0  0  0
   28.2520   33.5100   13.9880 H   0  0  0  0  0  0  0  0  0  0  0  0
   28.7180   36.2230   15.6850 O   0  0  0  0  0  0  0  0  0  0  0  0
   26.7880   35.5430   14.6880 O   0  0  0  0  0  0  0  0  0  0  0  0
   26.2600   35.0680   13.4530 C   0  0  0  0  0  0  0  0  0  0  0  0
   25.6040   33.7690   13.7390 C   0  0  0  0  0  0  0  0  0  0  0  0
   24.5860   33.2100   13.0240 C   0  0  0  0  0  0  0  0  0  0  0  0
   25.8910   32.9380   14.7290 N   0  0  0  0  0  0  0  0  0  0  0  0
   24.2850   32.0360   13.6170 N   0  0  0  0  0  0  0  0  0  0  0  0
   25.0880   31.8840   14.6540 N   0  0  0  0  0  0  0  0  0  0  0  0
   23.2570   31.1610   13.1420 C   0  0  0  0  0  0  0  0  0  0  0  0
   22.0040   31.6640   12.8930 C   0  0  0  0  0  0  0  0  0  0  0  0
   23.5760   29.8400   12.9560 C   0  0  0  0  0  0  0  0  0  0  0  0
   21.0410   30.7850   12.4360 C   0  0  0  0  0  0  0  0  0  0  0  0
   22.5910   28.9870   12.4980 C   0  0  0  0  0  0  0  0  0  0  0  0
   21.3230   29.4420   12.2340 C   0  0  0  0  0  0  0  0  0  0  0  0
   20.1250   28.3150   11.6590 Cl  0  0  0  0  0  0  0  0  0  0  0  0
   29.8670   25.5550   16.9770 C   0  0  0  0  0  0  0  0  0  0  0  0
   28.3450   25.7220   17.0260 C   0  0  0  0  0  0  0  0  0  0  0  0
   27.6020   24.4000   16.9170 C   0  0  0  0  0  0  0  0  0  0  0  0
   26.1540   24.5300   17.3000 C   0  0  0  0  0  0  0  0  0  0  0  0
   25.9770   24.1320   18.7620 C   0  0  0  0  0  0  0  0  0  0  0  0
   25.1210   25.1150   19.4670 N   0  0  0  0  0  0  0  0  0  0  0  0
  2  1  1  6  0  0  0
  2  3  1  0  0  0  0
  3 23  1  1  0  0  0
  4  3  1  6  0  0  0
  4  9  1  0  0  0  0
  5 12  1  6  0  0  0
  5  6  1  0  0  0  0
  6  8  1  0  0  0  0
  7  5  1  0  0  0  0
  7  4  1  0  0  0  0
  8 16  1  1  0  0  0
  9  8  1  0  0  0  0
  9 18  1  1  0  0  0
 10  5  1  0  0  0  0
 11 10  1  0  0  0  0
 12 14  1  0  0  0  0
 13 12  2  0  0  0  0
 14 15  1  0  0  0  0
 16 17  1  0  0  0  0
 18 20  1  0  0  0  0
 18 19  1  0  0  0  0
 19 21  1  0  0  0  0
 22 19  2  0  0  0  0
 24 23  1  0  0  0  0
 25 26  1  0  0  0  0
 25  2  1  0  0  0  0
 27  1  1  0  0  0  0
 27 28  1  0  0  0  0
 28 30  2  0  0  0  0
 29 27  1  0  0  0  0
 31 28  1  0  0  0  0
 32 33  1  0  0  0  0
 32 31  1  0  0  0  0
 33 35  1  0  0  0  0
 34 36  1  0  0  0  0
 34 33  2  0  0  0  0
 36 37  1  0  0  0  0
 37 35  2  0  0  0  0
 38 36  1  0  0  0  0
 39 38  2  0  0  0  0
 40 38  1  0  0  0  0
 41 39  1  0  0  0  0
 42 40  2  0  0  0  0
 43 41  2  0  0  0  0
 43 42  1  0  0  0  0
 44 43  1  0  0  0  0
 45 46  1  0  0  0  0
 47 46  1  0  0  0  0
 47 48  1  0  0  0  0
 48 49  1  0  0  0  0
 49 50  1  0  0  0  0
M  END
>  <REMARK>
 VINA RESULT:    -4.163      4.957      7.435
 INTER + INTRA:         -14.213
 INTER:                  -8.249
 INTRA:                  -5.963
 UNBOUND:                -7.007
 SMILES CC(=O)N[C@@H]1[C@@H](O)C[C@](O)(C(=O)O)O[C@H]1C(O)[C@H](O)CNC(=O)OCc1cn(-c2ccc(Cl)cc2)nn1
 SMILES IDX 20 1 18 2 16 3 15 4 9 5 8 6 14 7 6 8 5 9 10 10 11 12 12 13
 SMILES IDX 13 14 7 16 4 18 2 19 1 21 3 22 17 23 19 25 21 27 22 28 23 30
 SMILES IDX 24 31 25 32 26 33 27 34 37 35 28 36 36 37 29 38 30 39 35 40
 SMILES IDX 31 41 34 42 32 43 33 44
 H PARENT 10 11 13 15 7 17 4 20 17 24 19 26 21 29
 Flexibility Score: inf
  4 active torsions:
  status: ('A' for Active; 'I' for Inactive)
    1  A    between atoms: CA   and  CB  
    2  A    between atoms: CB   and  CG  
    3  A    between atoms: CG   and  CD  
    4  A    between atoms: CD   and  CE  

>  <TORSDO>
F 15

>  <BEGIN_>
RES LYS A 131

$$$$
ligand_2_pose_10_2HRL.pdbqt
 OpenBabel07062320523D

  6  5  0  0  0  0  0  0  0  0999 V2000
   33.1930   34.6630    9.2900 C   0  0  0  0  0  0  0  0  0  0  0  0
   32.0600   35.3600   10.0340 C   0  0  0  0  0  0  0  0  0  0  0  0
   30.7130   34.7190    9.8180 C   0  0  0  0  0  0  0  0  0  0  0  0
   30.4470   34.5180    8.3340 C   0  0  0  0  0  0  0  0  0  0  0  0
   28.9980   34.8250    8.0070 C   0  0  0  0  0  0  0  0  0  0  0  0
   28.8810   35.5460    6.7090 N   0  0  0  0  0  0  0  0  0  0  0  0
  1  2  1  0  0  0  0
  3  2  1  0  0  0  0
  4  3  1  0  0  0  0
  5  4  1  0  0  0  0
  6  5  1  0  0  0  0
M  END
>  <EGIN_R>
ES LYS A 135

>  <REMARK>
  4 active torsions:
  status: ('A' for Active; 'I' for Inactive)
    5  A    between atoms: CA   and  CB  
    6  A    between atoms: CB   and  CG  
    7  A    between atoms: CG   and  CD  
    8  A    between atoms: CD   and  CE  

$$$$
