ligand_90_pose_14_2HRL.pdbqt
 OpenBabel07062320523D

 61 62  0  0  1  0  0  0  0  0999 V2000
   31.8000   33.2090   15.7880 C   0  0  0  0  0  0  0  0  0  0  0  0
   31.9450   34.5560   16.1920 O   0  0  0  0  0  0  0  0  0  0  0  0
   31.8260   35.6020   15.2950 C   0  0  0  0  0  0  0  0  0  0  0  0
   30.7890   35.6150   14.2990 N   0  0  0  0  0  0  0  0  0  0  0  0
   30.1500   34.7950   14.2930 H   0  0  0  0  0  0  0  0  0  0  0  0
   32.6400   36.5390   15.3640 O   0  0  0  0  0  0  0  0  0  0  0  0
   30.6180   36.6700   13.3600 C   0  0  0  0  0  0  0  0  0  0  0  0
   29.2010   36.9810   13.0260 C   0  0  2  0  0  0  0  0  0  0  0  0
   28.2960   35.9980   13.7500 C   0  0  1  0  0  0  0  0  0  0  0  0
   26.9590   36.5780   14.0840 C   0  0  2  0  0  0  0  0  0  0  0  0
   26.0380   35.4710   15.9160 C   0  0  2  0  0  0  0  0  0  0  0  0
   24.6180   35.4310   15.3700 C   0  0  0  0  0  0  0  0  0  0  0  0
   26.7390   36.5430   15.4370 O   0  0  0  0  0  0  0  0  0  0  0  0
   24.5400   36.2500   14.0890 C   0  0  1  0  0  0  0  0  0  0  0  0
   25.8360   35.9530   13.3240 C   0  0  1  0  0  0  0  0  0  0  0  0
   26.6400   34.2970   15.5030 O   0  0  0  0  0  0  0  0  0  0  0  0
   27.6130   34.4280   15.3710 H   0  0  0  0  0  0  0  0  0  0  0  0
   26.0470   35.4940   17.4010 C   0  0  0  0  0  0  0  0  0  0  0  0
   25.1220   36.0450   18.0640 O   0  0  0  0  0  0  0  0  0  0  0  0
   27.0740   34.9050   18.1190 O   0  0  0  0  0  0  0  0  0  0  0  0
   27.5730   34.0760   17.8530 H   0  0  0  0  0  0  0  0  0  0  0  0
   23.4320   35.8190   13.3820 O   0  0  0  0  0  0  0  0  0  0  0  0
   23.6030   35.0150   12.8420 H   0  0  0  0  0  0  0  0  0  0  0  0
   25.7340   36.4900   11.9730 N   0  0  0  0  0  0  0  0  0  0  0  0
   25.8380   35.6170   10.8720 C   0  0  0  0  0  0  0  0  0  0  0  0
   25.5940   37.4930   11.8370 H   0  0  0  0  0  0  0  0  0  0  0  0
   25.7380   36.1310    9.4560 C   0  0  0  0  0  0  0  0  0  0  0  0
   26.0180   34.3820   10.9830 O   0  0  0  0  0  0  0  0  0  0  0  0
   28.1250   34.8360   13.0140 O   0  0  0  0  0  0  0  0  0  0  0  0
   27.1910   34.6000   12.8710 H   0  0  0  0  0  0  0  0  0  0  0  0
   28.9060   36.9550   11.6730 O   0  0  0  0  0  0  0  0  0  0  0  0
   28.1780   36.3130   11.4520 H   0  0  0  0  0  0  0  0  0  0  0  0
   30.4600   32.7890   16.2660 C   0  0  0  0  0  0  0  0  0  0  0  0
   30.0780   31.4780   16.4400 C   0  0  0  0  0  0  0  0  0  0  0  0
   29.3790   33.5030   16.6130 N   0  0  0  0  0  0  0  0  0  0  0  0
   28.7840   31.4220   16.8850 N   0  0  0  0  0  0  0  0  0  0  0  0
   28.3890   32.6680   16.9800 N   0  0  0  0  0  0  0  0  0  0  0  0
   28.1170   30.1660   17.1460 C   0  0  0  0  0  0  0  0  0  0  0  0
   26.6990   30.3260   16.6290 C   0  0  0  0  0  0  0  0  0  0  0  0
   25.7430   29.8340   17.2660 O   0  0  0  0  0  0  0  0  0  0  0  0
   26.4110   31.0130   15.4480 N   0  0  0  0  0  0  0  0  0  0  0  0
   27.3010   31.4260   14.9730 H   0  0  0  0  0  0  0  0  0  0  0  0
   25.1720   31.2400   14.7990 C   0  0  0  0  0  0  0  0  0  0  0  0
   24.4070   30.1250   14.2480 C   0  0  1  0  0  0  0  0  0  0  0  0
   23.4230   29.6290   15.1450 O   0  0  0  0  0  0  0  0  0  0  0  0
   23.8640   29.3200   15.9730 H   0  0  0  0  0  0  0  0  0  0  0  0
   24.0110   30.0750   12.8310 C   0  0  0  0  0  0  0  0  0  0  0  0
   22.5810   30.2050   12.6210 N   0  0  0  0  0  0  0  0  0  0  0  0
   21.7310   29.1910   12.3240 C   0  0  0  0  0  0  0  0  0  0  0  0
   21.8770   31.3510   12.6690 C   0  0  0  0  0  0  0  0  0  0  0  0
   20.4760   29.7550   12.1890 C   0  0  0  0  0  0  0  0  0  0  0  0
   20.5660   31.0700   12.3990 N   0  0  0  0  0  0  0  0  0  0  0  0
   22.3260   32.6660   12.9450 N   0  0  0  0  0  0  0  0  0  0  0  0
   22.2310   33.0800   14.1380 O   0  0  0  0  0  0  0  0  0  0  0  0
   22.8500   33.5390   12.0530 O   0  0  0  0  0  0  0  0  0  0  0  0
   29.8670   25.5550   16.9770 C   0  0  0  0  0  0  0  0  0  0  0  0
   28.3450   25.7220   17.0260 C   0  0  0  0  0  0  0  0  0  0  0  0
   27.5990   24.4770   16.5700 C   0  0  0  0  0  0  0  0  0  0  0  0
   26.9980   23.7220   17.7230 C   0  0  0  0  0  0  0  0  0  0  0  0
   25.4910   23.6030   17.5240 C   0  0  0  0  0  0  0  0  0  0  0  0
   24.8370   24.9200   17.7120 N   0  0  0  0  0  0  0  0  0  0  0  0
  1  2  1  0  0  0  0
  1 33  1  0  0  0  0
  3  6  2  0  0  0  0
  3  2  1  0  0  0  0
  4  3  1  0  0  0  0
  5  4  1  0  0  0  0
  7  4  1  0  0  0  0
  8  7  1  6  0  0  0
  8  9  1  0  0  0  0
  9 29  1  6  0  0  0
 10  9  1  1  0  0  0
 10 13  1  0  0  0  0
 11 16  1  6  0  0  0
 11 18  1  0  0  0  0
 12 11  1  0  0  0  0
 13 11  1  0  0  0  0
 14 22  1  6  0  0  0
 14 12  1  0  0  0  0
 15 24  1  6  0  0  0
 15 10  1  0  0  0  0
 15 14  1  0  0  0  0
 17 16  1  0  0  0  0
 18 19  2  0  0  0  0
 18 20  1  0  0  0  0
 21 20  1  0  0  0  0
 23 22  1  0  0  0  0
 25 28  2  0  0  0  0
 25 24  1  0  0  0  0
 26 24  1  0  0  0  0
 27 25  1  0  0  0  0
 30 29  1  0  0  0  0
 31  8  1  0  0  0  0
 32 31  1  0  0  0  0
 33 34  2  0  0  0  0
 33 35  1  0  0  0  0
 34 36  1  0  0  0  0
 35 37  2  0  0  0  0
 36 37  1  0  0  0  0
 36 38  1  0  0  0  0
 39 38  1  0  0  0  0
 39 40  2  0  0  0  0
 41 39  1  0  0  0  0
 42 41  1  0  0  0  0
 43 41  1  0  0  0  0
 44 47  1  6  0  0  0
 44 43  1  0  0  0  0
 44 45  1  0  0  0  0
 45 46  1  0  0  0  0
 48 50  1  0  0  0  0
 48 47  1  0  0  0  0
 49 48  1  0  0  0  0
 50 53  1  0  0  0  0
 51 49  2  0  0  0  0
 51 52  1  0  0  0  0
 52 50  2  0  0  0  0
 53 54  2  0  0  0  0
 55 53  2  0  0  0  0
 56 57  1  0  0  0  0
 58 57  1  0  0  0  0
 58 59  1  0  0  0  0
 60 61  1  0  0  0  0
 60 59  1  0  0  0  0
M  END
>  <REMARK>
 VINA RESULT:    -5.169      4.528      9.257
 INTER + INTRA:         -16.670
 INTER:                  -7.430
 INTRA:                  -9.240
 UNBOUND:                -5.759
 SMILES CC(=O)N[C@@H]1[C@@H](O)C[C@](O)(C(=O)O)O[C@H]1C(O)[C@H](O)CNC(=O)OCc1cn(CC(=O)NCC(O)Cn2ccnc2[N+](=O)[O-])nn1
 SMILES IDX 25 1 24 2 22 3 21 4 23 6 20 7 18 8 16 9 15 10 9 11 8 12
 SMILES IDX 14 13 6 14 5 15 10 16 11 18 12 19 13 20 7 22 4 24 2 25 1 27
 SMILES IDX 3 28 17 29 19 31 26 33 27 34 46 35 28 36 45 37 29 38 30 39
 SMILES IDX 31 40 32 41 33 43 34 44 35 45 36 47 37 48 38 49 41 50 39 51
 SMILES IDX 40 52 42 53 43 54 44 55
 H PARENT 21 5 10 17 13 21 7 23 4 26 17 30 19 32 32 42 35 46
 Flexibility Score: inf
  4 active torsions:
  status: ('A' for Active; 'I' for Inactive)
    1  A    between atoms: CA   and  CB  
    2  A    between atoms: CB   and  CG  
    3  A    between atoms: CG   and  CD  
    4  A    between atoms: CD   and  CE  

>  <TORSDO>
F 22

>  <BEGIN_>
RES LYS A 131

$$$$
ligand_90_pose_14_2HRL.pdbqt
 OpenBabel07062320523D

  6  5  0  0  0  0  0  0  0  0999 V2000
   33.1930   34.6630    9.2900 C   0  0  0  0  0  0  0  0  0  0  0  0
   32.0600   35.3600   10.0340 C   0  0  0  0  0  0  0  0  0  0  0  0
   30.7740   34.5740   10.0470 C   0  0  0  0  0  0  0  0  0  0  0  0
   30.3930   34.1460    8.6380 C   0  0  0  0  0  0  0  0  0  0  0  0
   28.9490   34.5070    8.3450 C   0  0  0  0  0  0  0  0  0  0  0  0
   28.8600   35.5160    7.2530 N   0  0  0  0  0  0  0  0  0  0  0  0
  1  2  1  0  0  0  0
  2  3  1  0  0  0  0
  4  3  1  0  0  0  0
  5  4  1  0  0  0  0
  6  5  1  0  0  0  0
M  END
>  <EGIN_R>
ES LYS A 135

>  <REMARK>
  4 active torsions:
  status: ('A' for Active; 'I' for Inactive)
    5  A    between atoms: CA   and  CB  
    6  A    between atoms: CB   and  CG  
    7  A    between atoms: CG   and  CD  
    8  A    between atoms: CD   and  CE  

$$$$
