ligand_59_pose_8_2HRL.pdbqt
 OpenBabel07062320523D

 52 53  0  0  1  0  0  0  0  0999 V2000
   21.1590   34.3640   13.6040 N   0  0  0  0  0  0  0  0  0  0  0  0
   22.2360   33.5870   14.1490 C   0  0  0  0  0  0  0  0  0  0  0  0
   22.0320   32.3560   14.2580 O   0  0  0  0  0  0  0  0  0  0  0  0
   21.3760   35.3800   13.5190 H   0  0  0  0  0  0  0  0  0  0  0  0
   19.9250   33.7450   13.2020 C   0  0  0  0  0  0  0  0  0  0  0  0
   19.8610   33.6800   11.6840 C   0  0  2  0  0  0  0  0  0  0  0  0
   20.5650   34.9080   11.1850 C   0  0  2  0  0  0  0  0  0  0  0  0
   19.8420   35.7480   10.1730 C   0  0  2  0  0  0  0  0  0  0  0  0
   18.9950   35.3100    8.0150 C   0  0  2  0  0  0  0  0  0  0  0  0
   19.4610   36.6430    7.4830 C   0  0  0  0  0  0  0  0  0  0  0  0
   19.6910   34.9070    9.1010 O   0  0  0  0  0  0  0  0  0  0  0  0
   20.7520   36.9280    8.2260 C   0  0  1  0  0  0  0  0  0  0  0  0
   20.4610   37.0090    9.7450 C   0  0  1  0  0  0  0  0  0  0  0  0
   19.2230   34.3840    6.9480 O   0  0  0  0  0  0  0  0  0  0  0  0
   20.0360   34.6590    6.4510 H   0  0  0  0  0  0  0  0  0  0  0  0
   17.5430   35.2530    8.2810 C   0  0  0  0  0  0  0  0  0  0  0  0
   16.8240   36.2240    7.9760 O   0  0  0  0  0  0  0  0  0  0  0  0
   16.9660   34.1400    8.8610 O   0  0  0  0  0  0  0  0  0  0  0  0
   16.4010   33.5260    8.2880 H   0  0  0  0  0  0  0  0  0  0  0  0
   21.7410   36.0190    7.9460 O   0  0  0  0  0  0  0  0  0  0  0  0
   22.6030   36.3320    8.3440 H   0  0  0  0  0  0  0  0  0  0  0  0
   19.6650   38.1860    9.8860 N   0  0  0  0  0  0  0  0  0  0  0  0
   20.2120   39.4240   10.2570 C   0  0  0  0  0  0  0  0  0  0  0  0
   18.6470   38.1220    9.7120 H   0  0  0  0  0  0  0  0  0  0  0  0
   19.3860   40.6460   10.4020 C   0  0  0  0  0  0  0  0  0  0  0  0
   21.4380   39.5070   10.4740 O   0  0  0  0  0  0  0  0  0  0  0  0
   21.7490   34.4890   10.5500 O   0  0  0  0  0  0  0  0  0  0  0  0
   22.2090   33.7750   11.0680 H   0  0  0  0  0  0  0  0  0  0  0  0
   18.4680   33.7970   11.4210 O   0  0  0  0  0  0  0  0  0  0  0  0
   18.1010   32.9060   11.3030 H   0  0  0  0  0  0  0  0  0  0  0  0
   23.4300   34.1280   14.5370 O   0  0  0  0  0  0  0  0  0  0  0  0
   24.6130   34.0380   13.8030 C   0  0  0  0  0  0  0  0  0  0  0  0
   24.6130   34.8560   12.5650 C   0  0  0  0  0  0  0  0  0  0  0  0
   25.5500   34.7200   11.5370 C   0  0  0  0  0  0  0  0  0  0  0  0
   23.8080   35.8290   12.1550 N   0  0  0  0  0  0  0  0  0  0  0  0
   25.2700   35.6030   10.5780 N   0  0  0  0  0  0  0  0  0  0  0  0
   24.2100   36.2720   10.9630 N   0  0  0  0  0  0  0  0  0  0  0  0
   26.0040   35.7860    9.3580 C   0  0  0  0  0  0  0  0  0  0  0  0
   26.7250   34.7750    8.7570 C   0  0  0  0  0  0  0  0  0  0  0  0
   26.0160   36.9880    8.7600 N   0  0  0  0  0  0  0  0  0  0  0  0
   27.4370   34.9460    7.5990 C   0  0  0  0  0  0  0  0  0  0  0  0
   26.6980   37.2040    7.6250 C   0  0  0  0  0  0  0  0  0  0  0  0
   27.4290   36.1940    7.0080 C   0  0  0  0  0  0  0  0  0  0  0  0
   28.1680   36.4880    5.7470 C   0  0  0  0  0  0  0  0  0  0  0  0
   27.3900   37.3210    4.9530 O   0  0  0  0  0  0  0  0  0  0  0  0
   26.4730   37.3840    5.3260 H   0  0  0  0  0  0  0  0  0  0  0  0
   29.8670   25.5550   16.9770 C   0  0  0  0  0  0  0  0  0  0  0  0
   28.3450   25.7220   17.0260 C   0  0  0  0  0  0  0  0  0  0  0  0
   27.6000   24.4070   16.8510 C   0  0  0  0  0  0  0  0  0  0  0  0
   26.7470   24.0760   18.0440 C   0  0  0  0  0  0  0  0  0  0  0  0
   25.4600   23.4030   17.5780 C   0  0  0  0  0  0  0  0  0  0  0  0
   24.6080   24.3670   16.8420 N   0  0  0  0  0  0  0  0  0  0  0  0
  1  2  1  0  0  0  0
  2  3  2  0  0  0  0
  2 31  1  0  0  0  0
  4  1  1  0  0  0  0
  5  1  1  0  0  0  0
  6  5  1  1  0  0  0
  7 27  1  6  0  0  0
  7  6  1  0  0  0  0
  8  7  1  1  0  0  0
  9 14  1  6  0  0  0
  9 16  1  0  0  0  0
  9 11  1  0  0  0  0
 10  9  1  0  0  0  0
 10 12  1  0  0  0  0
 11  8  1  0  0  0  0
 12 20  1  1  0  0  0
 12 13  1  0  0  0  0
 13 22  1  6  0  0  0
 13  8  1  0  0  0  0
 15 14  1  0  0  0  0
 16 18  1  0  0  0  0
 17 16  2  0  0  0  0
 19 18  1  0  0  0  0
 20 21  1  0  0  0  0
 22 23  1  0  0  0  0
 23 25  1  0  0  0  0
 23 26  2  0  0  0  0
 24 22  1  0  0  0  0
 27 28  1  0  0  0  0
 29  6  1  0  0  0  0
 30 29  1  0  0  0  0
 32 31  1  0  0  0  0
 33 32  1  0  0  0  0
 34 33  2  0  0  0  0
 35 33  1  0  0  0  0
 36 37  1  0  0  0  0
 36 34  1  0  0  0  0
 37 35  2  0  0  0  0
 38 36  1  0  0  0  0
 39 38  2  0  0  0  0
 40 38  1  0  0  0  0
 41 39  1  0  0  0  0
 42 40  2  0  0  0  0
 43 41  2  0  0  0  0
 43 42  1  0  0  0  0
 44 43  1  0  0  0  0
 45 46  1  0  0  0  0
 45 44  1  0  0  0  0
 47 48  1  0  0  0  0
 49 48  1  0  0  0  0
 49 50  1  0  0  0  0
 51 50  1  0  0  0  0
 52 51  1  0  0  0  0
M  END
>  <REMARK>
 VINA RESULT:    -4.944      7.736     12.322
 INTER + INTRA:         -14.726
 INTER:                  -8.765
 INTRA:                  -5.961
 UNBOUND:                -5.735
 SMILES CC(=O)N[C@@H]1[C@@H](O)C[C@](O)(C(=O)O)O[C@H]1C(O)[C@H](O)CNC(=O)OCc1cn(-c2ccc(CO)cn2)nn1
 SMILES IDX 21 1 22 2 23 3 20 5 18 6 16 7 15 8 9 9 8 10 14 11 6 12 5 13
 SMILES IDX 10 14 11 16 12 17 13 18 7 20 4 22 2 23 1 25 3 26 17 27 19 29
 SMILES IDX 24 31 25 32 26 33 27 34 38 35 28 36 37 37 29 38 30 39 36 40
 SMILES IDX 31 41 35 42 32 43 33 44 34 45
 H PARENT 21 4 10 15 13 19 7 21 4 24 17 28 19 30 34 46
 Flexibility Score: inf
  4 active torsions:
  status: ('A' for Active; 'I' for Inactive)
    1  A    between atoms: CA   and  CB  
    2  A    between atoms: CB   and  CG  
    3  A    between atoms: CG   and  CD  
    4  A    between atoms: CD   and  CE  

>  <TORSDO>
F 17

>  <BEGIN_>
RES LYS A 131

$$$$
ligand_59_pose_8_2HRL.pdbqt
 OpenBabel07062320523D

  6  5  0  0  0  0  0  0  0  0999 V2000
   33.1930   34.6630    9.2900 C   0  0  0  0  0  0  0  0  0  0  0  0
   32.0600   35.3600   10.0340 C   0  0  0  0  0  0  0  0  0  0  0  0
   30.6950   34.8200    9.6950 C   0  0  0  0  0  0  0  0  0  0  0  0
   29.6930   35.1700   10.7850 C   0  0  0  0  0  0  0  0  0  0  0  0
   30.2660   34.8580   12.1550 C   0  0  0  0  0  0  0  0  0  0  0  0
   29.1860   34.5270   13.1250 N   0  0  0  0  0  0  0  0  0  0  0  0
  1  2  1  0  0  0  0
  3  2  1  0  0  0  0
  3  4  1  0  0  0  0
  4  5  1  0  0  0  0
  5  6  1  0  0  0  0
M  END
>  <EGIN_R>
ES LYS A 135

>  <REMARK>
  4 active torsions:
  status: ('A' for Active; 'I' for Inactive)
    5  A    between atoms: CA   and  CB  
    6  A    between atoms: CB   and  CG  
    7  A    between atoms: CG   and  CD  
    8  A    between atoms: CD   and  CE  

$$$$
