ligand_59_pose_5_2HRL.pdbqt
 OpenBabel07062320523D

 52 53  0  0  1  0  0  0  0  0999 V2000
   28.9110   31.7650   16.7820 N   0  0  0  0  0  0  0  0  0  0  0  0
   28.1820   30.8360   15.9670 C   0  0  0  0  0  0  0  0  0  0  0  0
   28.8300   29.8640   15.5170 O   0  0  0  0  0  0  0  0  0  0  0  0
   28.3310   32.5500   17.1460 H   0  0  0  0  0  0  0  0  0  0  0  0
   30.3080   31.5700   17.0630 C   0  0  0  0  0  0  0  0  0  0  0  0
   31.1330   32.5580   16.2540 C   0  0  2  0  0  0  0  0  0  0  0  0
   30.2900   33.7940   16.1240 C   0  0  2  0  0  0  0  0  0  0  0  0
   30.8400   34.9130   15.2880 C   0  0  2  0  0  0  0  0  0  0  0  0
   31.1790   35.1840   12.9690 C   0  0  2  0  0  0  0  0  0  0  0  0
   32.5130   35.8590   13.1700 C   0  0  0  0  0  0  0  0  0  0  0  0
   30.8230   34.4050   14.0150 O   0  0  0  0  0  0  0  0  0  0  0  0
   33.1070   35.1900   14.3960 C   0  0  1  0  0  0  0  0  0  0  0  0
   32.1760   35.4300   15.6110 C   0  0  1  0  0  0  0  0  0  0  0  0
   31.3510   34.3580   11.8140 O   0  0  0  0  0  0  0  0  0  0  0  0
   30.7870   33.5490   11.9080 H   0  0  0  0  0  0  0  0  0  0  0  0
   30.0880   36.1190   12.6260 C   0  0  0  0  0  0  0  0  0  0  0  0
   30.2180   37.3330   12.8740 O   0  0  0  0  0  0  0  0  0  0  0  0
   28.9240   35.6720   12.0320 O   0  0  0  0  0  0  0  0  0  0  0  0
   28.1660   36.3270   11.8840 H   0  0  0  0  0  0  0  0  0  0  0  0
   33.3590   33.8540   14.2050 O   0  0  0  0  0  0  0  0  0  0  0  0
   32.6170   33.3150   14.6030 H   0  0  0  0  0  0  0  0  0  0  0  0
   32.2710   36.8340   15.8510 N   0  0  0  0  0  0  0  0  0  0  0  0
   32.1360   37.3880   17.1340 C   0  0  0  0  0  0  0  0  0  0  0  0
   32.4410   37.4660   15.0500 H   0  0  0  0  0  0  0  0  0  0  0  0
   32.2360   38.8460   17.3840 C   0  0  0  0  0  0  0  0  0  0  0  0
   31.9250   36.6330   18.1040 O   0  0  0  0  0  0  0  0  0  0  0  0
   30.1250   34.3330   17.4130 O   0  0  0  0  0  0  0  0  0  0  0  0
   30.3200   35.3090   17.4290 H   0  0  0  0  0  0  0  0  0  0  0  0
   31.2350   31.9230   14.9860 O   0  0  0  0  0  0  0  0  0  0  0  0
   30.3560   31.9150   14.5740 H   0  0  0  0  0  0  0  0  0  0  0  0
   26.8520   30.9730   15.6800 O   0  0  0  0  0  0  0  0  0  0  0  0
   26.0900   32.1020   15.9840 C   0  0  0  0  0  0  0  0  0  0  0  0
   26.2420   33.2070   15.0040 C   0  0  0  0  0  0  0  0  0  0  0  0
   25.3880   33.4120   13.9170 C   0  0  0  0  0  0  0  0  0  0  0  0
   27.1360   34.1830   14.9130 N   0  0  0  0  0  0  0  0  0  0  0  0
   25.8020   34.4800   13.2370 N   0  0  0  0  0  0  0  0  0  0  0  0
   26.8660   34.9420   13.8490 N   0  0  0  0  0  0  0  0  0  0  0  0
   25.1970   35.0130   12.0490 C   0  0  0  0  0  0  0  0  0  0  0  0
   23.8360   34.9850   11.8240 C   0  0  0  0  0  0  0  0  0  0  0  0
   25.9670   35.5580   11.0950 N   0  0  0  0  0  0  0  0  0  0  0  0
   23.2530   35.4810   10.6880 C   0  0  0  0  0  0  0  0  0  0  0  0
   25.4420   36.0580    9.9660 C   0  0  0  0  0  0  0  0  0  0  0  0
   24.0720   36.0370    9.7240 C   0  0  0  0  0  0  0  0  0  0  0  0
   23.5420   36.6070    8.4520 C   0  0  0  0  0  0  0  0  0  0  0  0
   23.0120   37.8650    8.7090 O   0  0  0  0  0  0  0  0  0  0  0  0
   23.3090   38.1800    9.6010 H   0  0  0  0  0  0  0  0  0  0  0  0
   29.8670   25.5550   16.9770 C   0  0  0  0  0  0  0  0  0  0  0  0
   28.3450   25.7220   17.0260 C   0  0  0  0  0  0  0  0  0  0  0  0
   27.5990   24.4410   16.6860 C   0  0  0  0  0  0  0  0  0  0  0  0
   27.1990   23.6750   17.9160 C   0  0  0  0  0  0  0  0  0  0  0  0
   25.6790   23.6810   18.0480 C   0  0  0  0  0  0  0  0  0  0  0  0
   25.0650   24.4440   16.9350 N   0  0  0  0  0  0  0  0  0  0  0  0
  1  5  1  0  0  0  0
  1  4  1  0  0  0  0
  2  1  1  0  0  0  0
  3  2  2  0  0  0  0
  6  5  1  1  0  0  0
  7  6  1  0  0  0  0
  7 27  1  1  0  0  0
  8 13  1  0  0  0  0
  8  7  1  1  0  0  0
  9 14  1  6  0  0  0
  9 10  1  0  0  0  0
  9 11  1  0  0  0  0
 10 12  1  0  0  0  0
 11  8  1  0  0  0  0
 12 20  1  6  0  0  0
 12 13  1  0  0  0  0
 13 22  1  6  0  0  0
 14 15  1  0  0  0  0
 16 17  2  0  0  0  0
 16  9  1  0  0  0  0
 18 16  1  0  0  0  0
 19 18  1  0  0  0  0
 20 21  1  0  0  0  0
 22 23  1  0  0  0  0
 23 25  1  0  0  0  0
 23 26  2  0  0  0  0
 24 22  1  0  0  0  0
 27 28  1  0  0  0  0
 29  6  1  0  0  0  0
 30 29  1  0  0  0  0
 31  2  1  0  0  0  0
 31 32  1  0  0  0  0
 33 32  1  0  0  0  0
 34 33  2  0  0  0  0
 35 33  1  0  0  0  0
 36 37  1  0  0  0  0
 36 34  1  0  0  0  0
 37 35  2  0  0  0  0
 38 36  1  0  0  0  0
 39 38  1  0  0  0  0
 40 38  2  0  0  0  0
 41 39  2  0  0  0  0
 42 40  1  0  0  0  0
 43 42  2  0  0  0  0
 43 41  1  0  0  0  0
 44 45  1  0  0  0  0
 44 43  1  0  0  0  0
 45 46  1  0  0  0  0
 47 48  1  0  0  0  0
 49 48  1  0  0  0  0
 49 50  1  0  0  0  0
 50 51  1  0  0  0  0
 52 51  1  0  0  0  0
M  END
>  <REMARK>
 VINA RESULT:    -5.097      3.852      7.196
 INTER + INTRA:         -15.003
 INTER:                  -8.658
 INTRA:                  -6.346
 UNBOUND:                -5.735
 SMILES CC(=O)N[C@@H]1[C@@H](O)C[C@](O)(C(=O)O)O[C@H]1C(O)[C@H](O)CNC(=O)OCc1cn(-c2ccc(CO)cn2)nn1
 SMILES IDX 21 1 22 2 23 3 20 5 18 6 16 7 15 8 9 9 8 10 14 11 6 12 5 13
 SMILES IDX 10 14 11 16 12 17 13 18 7 20 4 22 2 23 1 25 3 26 17 27 19 29
 SMILES IDX 24 31 25 32 26 33 27 34 38 35 28 36 37 37 29 38 30 39 36 40
 SMILES IDX 31 41 35 42 32 43 33 44 34 45
 H PARENT 21 4 10 15 13 19 7 21 4 24 17 28 19 30 34 46
 Flexibility Score: inf
  4 active torsions:
  status: ('A' for Active; 'I' for Inactive)
    1  A    between atoms: CA   and  CB  
    2  A    between atoms: CB   and  CG  
    3  A    between atoms: CG   and  CD  
    4  A    between atoms: CD   and  CE  

>  <TORSDO>
F 17

>  <BEGIN_>
RES LYS A 131

$$$$
ligand_59_pose_5_2HRL.pdbqt
 OpenBabel07062320523D

  6  5  0  0  0  0  0  0  0  0999 V2000
   33.1930   34.6630    9.2900 C   0  0  0  0  0  0  0  0  0  0  0  0
   32.0600   35.3600   10.0340 C   0  0  0  0  0  0  0  0  0  0  0  0
   30.9060   35.7480    9.1470 C   0  0  0  0  0  0  0  0  0  0  0  0
   30.2470   34.5130    8.5520 C   0  0  0  0  0  0  0  0  0  0  0  0
   28.8990   34.8650    7.9530 C   0  0  0  0  0  0  0  0  0  0  0  0
   28.6460   36.3310    8.0250 N   0  0  0  0  0  0  0  0  0  0  0  0
  1  2  1  0  0  0  0
  3  2  1  0  0  0  0
  4  3  1  0  0  0  0
  5  6  1  0  0  0  0
  5  4  1  0  0  0  0
M  END
>  <EGIN_R>
ES LYS A 135

>  <REMARK>
  4 active torsions:
  status: ('A' for Active; 'I' for Inactive)
    5  A    between atoms: CA   and  CB  
    6  A    between atoms: CB   and  CG  
    7  A    between atoms: CG   and  CD  
    8  A    between atoms: CD   and  CE  

$$$$
