ligand_39_pose_6_2HRL.pdbqt
 OpenBabel07062320523D

 51 52  0  0  1  0  0  0  0  0999 V2000
   28.1090   31.6190   17.6220 N   0  0  0  0  0  0  0  0  0  0  0  0
   27.3910   30.9500   18.6190 C   0  0  0  0  0  0  0  0  0  0  0  0
   27.9360   30.7510   19.7400 O   0  0  0  0  0  0  0  0  0  0  0  0
   27.6170   31.7670   16.6960 H   0  0  0  0  0  0  0  0  0  0  0  0
   29.4600   32.1160   17.7630 C   0  0  0  0  0  0  0  0  0  0  0  0
   30.3440   31.4750   16.7160 C   0  0  2  0  0  0  0  0  0  0  0  0
   31.1640   32.5110   15.9780 C   0  0  2  0  0  0  0  0  0  0  0  0
   30.3920   33.7970   15.7570 C   0  0  2  0  0  0  0  0  0  0  0  0
   28.3240   34.5140   14.9530 C   0  0  2  0  0  0  0  0  0  0  0  0
   28.9500   35.4590   13.9990 C   0  0  0  0  0  0  0  0  0  0  0  0
   29.1860   33.4620   15.2200 O   0  0  0  0  0  0  0  0  0  0  0  0
   30.4130   35.3630   13.7980 C   0  0  1  0  0  0  0  0  0  0  0  0
   31.1870   34.7790   14.9440 C   0  0  1  0  0  0  0  0  0  0  0  0
   27.2030   33.9140   14.3230 O   0  0  0  0  0  0  0  0  0  0  0  0
   27.0560   32.9910   14.6610 H   0  0  0  0  0  0  0  0  0  0  0  0
   27.8400   35.1940   16.1560 C   0  0  0  0  0  0  0  0  0  0  0  0
   28.1170   36.3930   16.4320 O   0  0  0  0  0  0  0  0  0  0  0  0
   27.0370   34.5010   17.0510 O   0  0  0  0  0  0  0  0  0  0  0  0
   26.0650   34.7350   17.2150 H   0  0  0  0  0  0  0  0  0  0  0  0
   30.6980   34.6780   12.6020 O   0  0  0  0  0  0  0  0  0  0  0  0
   29.8300   34.2190   12.3660 H   0  0  0  0  0  0  0  0  0  0  0  0
   31.7880   35.8120   15.7590 N   0  0  0  0  0  0  0  0  0  0  0  0
   33.1900   36.0090   15.8340 C   0  0  0  0  0  0  0  0  0  0  0  0
   31.1790   36.4420   16.3170 H   0  0  0  0  0  0  0  0  0  0  0  0
   33.8250   37.0680   16.6680 C   0  0  0  0  0  0  0  0  0  0  0  0
   33.9170   35.2220   15.1380 O   0  0  0  0  0  0  0  0  0  0  0  0
   31.6410   31.9750   14.7860 O   0  0  0  0  0  0  0  0  0  0  0  0
   32.3930   31.3410   15.0000 H   0  0  0  0  0  0  0  0  0  0  0  0
   29.4550   30.8290   15.8230 O   0  0  0  0  0  0  0  0  0  0  0  0
   29.8250   30.0040   15.4730 H   0  0  0  0  0  0  0  0  0  0  0  0
   26.0960   30.4770   18.4720 O   0  0  0  0  0  0  0  0  0  0  0  0
   25.0050   31.3810   18.4520 C   0  0  0  0  0  0  0  0  0  0  0  0
   24.7850   31.9360   17.1000 C   0  0  0  0  0  0  0  0  0  0  0  0
   24.7680   31.2260   15.8910 C   0  0  0  0  0  0  0  0  0  0  0  0
   24.5600   33.2010   16.7290 N   0  0  0  0  0  0  0  0  0  0  0  0
   24.5480   32.0360   14.8690 N   0  0  0  0  0  0  0  0  0  0  0  0
   24.4210   33.2660   15.4220 N   0  0  0  0  0  0  0  0  0  0  0  0
   24.4440   31.8560   13.4410 C   0  0  0  0  0  0  0  0  0  0  0  0
   23.4080   30.9360   12.9900 C   0  0  0  0  0  0  0  0  0  0  0  0
   23.6730   29.5720   12.8400 C   0  0  0  0  0  0  0  0  0  0  0  0
   22.1340   31.3470   12.7240 C   0  0  0  0  0  0  0  0  0  0  0  0
   22.6800   28.7180   12.4470 C   0  0  0  0  0  0  0  0  0  0  0  0
   21.1330   30.4800   12.3270 C   0  0  0  0  0  0  0  0  0  0  0  0
   21.6440   33.2100   12.8420 Br  0  0  0  0  0  0  0  0  0  0  0  0
   21.4020   29.1420   12.1830 C   0  0  0  0  0  0  0  0  0  0  0  0
   29.8670   25.5550   16.9770 C   0  0  0  0  0  0  0  0  0  0  0  0
   28.3450   25.7220   17.0260 C   0  0  0  0  0  0  0  0  0  0  0  0
   27.6040   24.3940   17.0180 C   0  0  0  0  0  0  0  0  0  0  0  0
   26.1400   24.5600   17.3140 C   0  0  0  0  0  0  0  0  0  0  0  0
   25.8710   24.2010   18.7720 C   0  0  0  0  0  0  0  0  0  0  0  0
   25.2290   22.8690   18.8690 N   0  0  0  0  0  0  0  0  0  0  0  0
  1  5  1  0  0  0  0
  1  2  1  0  0  0  0
  2  3  2  0  0  0  0
  4  1  1  0  0  0  0
  6  5  1  1  0  0  0
  7 27  1  6  0  0  0
  7  6  1  0  0  0  0
  8  7  1  6  0  0  0
  9 14  1  6  0  0  0
  9 11  1  0  0  0  0
  9 16  1  0  0  0  0
 10  9  1  0  0  0  0
 11  8  1  0  0  0  0
 12 20  1  6  0  0  0
 12 10  1  0  0  0  0
 12 13  1  0  0  0  0
 13  8  1  0  0  0  0
 13 22  1  1  0  0  0
 14 15  1  0  0  0  0
 16 17  2  0  0  0  0
 16 18  1  0  0  0  0
 18 19  1  0  0  0  0
 21 20  1  0  0  0  0
 22 23  1  0  0  0  0
 22 24  1  0  0  0  0
 23 25  1  0  0  0  0
 26 23  2  0  0  0  0
 27 28  1  0  0  0  0
 29  6  1  0  0  0  0
 30 29  1  0  0  0  0
 31  2  1  0  0  0  0
 32 31  1  0  0  0  0
 33 32  1  0  0  0  0
 34 33  2  0  0  0  0
 35 33  1  0  0  0  0
 36 37  1  0  0  0  0
 36 34  1  0  0  0  0
 37 35  2  0  0  0  0
 38 36  1  0  0  0  0
 39 38  1  0  0  0  0
 40 39  1  0  0  0  0
 41 44  1  0  0  0  0
 41 39  2  0  0  0  0
 42 40  2  0  0  0  0
 43 41  1  0  0  0  0
 45 43  2  0  0  0  0
 45 42  1  0  0  0  0
 46 47  1  0  0  0  0
 48 47  1  0  0  0  0
 48 49  1  0  0  0  0
 49 50  1  0  0  0  0
 50 51  1  0  0  0  0
M  END
>  <REMARK>
 VINA RESULT:    -4.133      3.554      6.129
 INTER + INTRA:         -14.821
 INTER:                  -8.859
 INTRA:                  -5.963
 UNBOUND:                -7.426
 SMILES CC(=O)N[C@@H]1[C@@H](O)C[C@](O)(C(=O)O)O[C@H]1C(O)[C@H](O)CNC(=O)OCc1cn(Cc2ccccc2Br)nn1
 SMILES IDX 21 1 22 2 23 3 20 5 18 6 16 7 15 8 9 9 8 10 14 11 6 12 5 13
 SMILES IDX 10 14 11 16 12 17 13 18 7 20 4 22 2 23 1 25 3 26 17 27 19 29
 SMILES IDX 24 31 25 32 26 33 27 34 38 35 28 36 37 37 29 38 30 39 31 40
 SMILES IDX 35 41 32 42 34 43 36 44 33 45
 H PARENT 21 4 10 15 13 19 7 21 4 24 17 28 19 30
 Flexibility Score: inf
  4 active torsions:
  status: ('A' for Active; 'I' for Inactive)
    1  A    between atoms: CA   and  CB  
    2  A    between atoms: CB   and  CG  
    3  A    between atoms: CG   and  CD  
    4  A    between atoms: CD   and  CE  

>  <TORSDO>
F 16

>  <BEGIN_>
RES LYS A 131

$$$$
ligand_39_pose_6_2HRL.pdbqt
 OpenBabel07062320523D

  6  5  0  0  0  0  0  0  0  0999 V2000
   33.1930   34.6630    9.2900 C   0  0  0  0  0  0  0  0  0  0  0  0
   32.0600   35.3600   10.0340 C   0  0  0  0  0  0  0  0  0  0  0  0
   30.7970   35.4910    9.2230 C   0  0  0  0  0  0  0  0  0  0  0  0
   30.2020   34.1210    8.9310 C   0  0  0  0  0  0  0  0  0  0  0  0
   28.7730   34.0440    9.4330 C   0  0  0  0  0  0  0  0  0  0  0  0
   27.8180   34.5610    8.4150 N   0  0  0  0  0  0  0  0  0  0  0  0
  1  2  1  0  0  0  0
  3  2  1  0  0  0  0
  4  3  1  0  0  0  0
  4  5  1  0  0  0  0
  6  5  1  0  0  0  0
M  END
>  <EGIN_R>
ES LYS A 135

>  <REMARK>
  4 active torsions:
  status: ('A' for Active; 'I' for Inactive)
    5  A    between atoms: CA   and  CB  
    6  A    between atoms: CB   and  CG  
    7  A    between atoms: CG   and  CD  
    8  A    between atoms: CD   and  CE  

$$$$
