ligand_62_pose_5_2HRL.pdbqt
 OpenBabel07062320523D

 52 52  0  0  1  0  0  0  0  0999 V2000
   27.7690   28.5030   18.3730 N   0  0  0  0  0  0  0  0  0  0  0  0
   26.7840   28.8920   17.4440 C   0  0  0  0  0  0  0  0  0  0  0  0
   25.7190   28.2500   17.2940 O   0  0  0  0  0  0  0  0  0  0  0  0
   28.6260   29.1100   18.4300 H   0  0  0  0  0  0  0  0  0  0  0  0
   27.7120   27.3720   19.2340 C   0  0  0  0  0  0  0  0  0  0  0  0
   27.6910   27.6190   20.6970 C   0  0  2  0  0  0  0  0  0  0  0  0
   29.0740   27.7040   21.3060 C   0  0  2  0  0  0  0  0  0  0  0  0
   29.5230   29.0860   21.6590 C   0  0  2  0  0  0  0  0  0  0  0  0
   29.8280   31.1510   20.6600 C   0  0  2  0  0  0  0  0  0  0  0  0
   29.9980   31.4900   22.1180 C   0  0  0  0  0  0  0  0  0  0  0  0
   29.5030   29.8220   20.4550 O   0  0  0  0  0  0  0  0  0  0  0  0
   30.9800   30.6260   22.8250 C   0  0  1  0  0  0  0  0  0  0  0  0
   30.8950   29.2140   22.2250 C   0  0  1  0  0  0  0  0  0  0  0  0
   30.9630   31.5440   19.9740 O   0  0  0  0  0  0  0  0  0  0  0  0
   31.5960   30.8040   19.8020 H   0  0  0  0  0  0  0  0  0  0  0  0
   28.6930   31.9670   20.1490 C   0  0  0  0  0  0  0  0  0  0  0  0
   28.5440   33.1780   20.4730 O   0  0  0  0  0  0  0  0  0  0  0  0
   27.7290   31.4370   19.2850 O   0  0  0  0  0  0  0  0  0  0  0  0
   26.7450   31.4390   19.5210 H   0  0  0  0  0  0  0  0  0  0  0  0
   32.2870   31.1060   22.7560 O   0  0  0  0  0  0  0  0  0  0  0  0
   32.4850   31.5140   23.6430 H   0  0  0  0  0  0  0  0  0  0  0  0
   31.2600   28.3220   23.2710 N   0  0  0  0  0  0  0  0  0  0  0  0
   32.6170   27.8640   23.4690 C   0  0  0  0  0  0  0  0  0  0  0  0
   30.5790   27.9530   23.9680 H   0  0  0  0  0  0  0  0  0  0  0  0
   32.9500   26.9350   24.5730 C   0  0  0  0  0  0  0  0  0  0  0  0
   33.5120   28.2510   22.7080 O   0  0  0  0  0  0  0  0  0  0  0  0
   29.9360   27.3030   20.2380 O   0  0  0  0  0  0  0  0  0  0  0  0
   29.8560   27.9050   19.4800 H   0  0  0  0  0  0  0  0  0  0  0  0
   27.0470   26.5730   21.3520 O   0  0  0  0  0  0  0  0  0  0  0  0
   26.0790   26.6060   21.1680 H   0  0  0  0  0  0  0  0  0  0  0  0
   26.9560   30.0210   16.6470 O   0  0  0  0  0  0  0  0  0  0  0  0
   27.9310   30.0710   15.6390 C   0  0  0  0  0  0  0  0  0  0  0  0
   29.0770   30.9000   16.0560 C   0  0  0  0  0  0  0  0  0  0  0  0
   29.5260   32.0700   15.4750 C   0  0  0  0  0  0  0  0  0  0  0  0
   29.8860   30.6290   17.1020 N   0  0  0  0  0  0  0  0  0  0  0  0
   30.5800   32.4650   16.1810 N   0  0  0  0  0  0  0  0  0  0  0  0
   30.7900   31.6120   17.1410 N   0  0  0  0  0  0  0  0  0  0  0  0
   31.3820   33.6590   15.9320 C   0  0  1  0  0  0  0  0  0  0  0  0
   30.6260   34.5550   14.9930 C   0  0  0  0  0  0  0  0  0  0  0  0
   31.2400   34.6070   13.7620 O   0  0  0  0  0  0  0  0  0  0  0  0
   32.3820   35.3760   13.7190 C   0  0  0  0  0  0  0  0  0  0  0  0
   31.5770   34.3860   17.2290 C   0  0  0  0  0  0  0  0  0  0  0  0
   32.6100   35.0370   17.4420 O   0  0  0  0  0  0  0  0  0  0  0  0
   30.5400   34.2990   18.1950 N   0  0  0  0  0  0  0  0  0  0  0  0
   30.4550   35.0610   18.9060 H   0  0  0  0  0  0  0  0  0  0  0  0
   29.8860   33.5080   18.2000 H   0  0  0  0  0  0  0  0  0  0  0  0
   29.8670   25.5550   16.9770 C   0  0  0  0  0  0  0  0  0  0  0  0
   28.3450   25.7220   17.0260 C   0  0  0  0  0  0  0  0  0  0  0  0
   27.6010   24.4020   16.8900 C   0  0  0  0  0  0  0  0  0  0  0  0
   26.1510   24.5280   17.2690 C   0  0  0  0  0  0  0  0  0  0  0  0
   25.9620   24.0780   18.7140 C   0  0  0  0  0  0  0  0  0  0  0  0
   24.5990   24.4160   19.1880 N   0  0  0  0  0  0  0  0  0  0  0  0
  1  4  1  0  0  0  0
  1  5  1  0  0  0  0
  2  1  1  0  0  0  0
  3  2  2  0  0  0  0
  6  5  1  6  0  0  0
  6  7  1  0  0  0  0
  6 29  1  0  0  0  0
  7 27  1  6  0  0  0
  8  7  1  6  0  0  0
  8 13  1  0  0  0  0
  9 14  1  6  0  0  0
  9 10  1  0  0  0  0
 10 12  1  0  0  0  0
 11  9  1  0  0  0  0
 11  8  1  0  0  0  0
 12 20  1  6  0  0  0
 13 12  1  0  0  0  0
 13 22  1  1  0  0  0
 15 14  1  0  0  0  0
 16 17  2  0  0  0  0
 16  9  1  0  0  0  0
 18 19  1  0  0  0  0
 18 16  1  0  0  0  0
 20 21  1  0  0  0  0
 22 23  1  0  0  0  0
 22 24  1  0  0  0  0
 23 25  1  0  0  0  0
 26 23  2  0  0  0  0
 28 27  1  0  0  0  0
 30 29  1  0  0  0  0
 31  2  1  0  0  0  0
 32 33  1  0  0  0  0
 32 31  1  0  0  0  0
 33 35  1  0  0  0  0
 34 33  2  0  0  0  0
 34 36  1  0  0  0  0
 35 37  2  0  0  0  0
 36 37  1  0  0  0  0
 38 39  1  6  0  0  0
 38 36  1  0  0  0  0
 38 42  1  0  0  0  0
 40 39  1  0  0  0  0
 41 40  1  0  0  0  0
 42 43  2  0  0  0  0
 42 44  1  0  0  0  0
 44 46  1  0  0  0  0
 44 45  1  0  0  0  0
 47 48  1  0  0  0  0
 49 48  1  0  0  0  0
 49 50  1  0  0  0  0
 50 51  1  0  0  0  0
 51 52  1  0  0  0  0
M  END
>  <REMARK>
 VINA RESULT:    -4.182      2.056      3.854
 INTER + INTRA:         -14.725
 INTER:                  -7.247
 INTRA:                  -7.478
 UNBOUND:                -6.753
 SMILES COCC(C(N)=O)n1cc(COC(=O)NC[C@@H](O)C(O)[C@@H]2O[C@@](O)(C(=O)O)C[C@H](O)[C@H]2NC(C)=O)nn1
 SMILES IDX 15 1 13 2 14 3 16 5 17 6 19 7 21 8 23 9 28 10 22 11 29 12
 SMILES IDX 31 13 24 14 25 16 26 17 27 18 30 20 32 22 33 23 34 25 35 26
 SMILES IDX 20 27 18 29 12 31 11 32 10 33 9 34 36 35 8 36 37 37 4 38
 SMILES IDX 3 39 2 40 1 41 5 42 7 43 6 44
 H PARENT 15 4 24 15 27 19 30 21 32 24 20 28 18 30 6 45 6 46
 Flexibility Score: inf
  4 active torsions:
  status: ('A' for Active; 'I' for Inactive)
    1  A    between atoms: CA   and  CB  
    2  A    between atoms: CB   and  CG  
    3  A    between atoms: CG   and  CD  
    4  A    between atoms: CD   and  CE  

>  <TORSDO>
F 18

>  <BEGIN_>
RES LYS A 131

$$$$
ligand_62_pose_5_2HRL.pdbqt
 OpenBabel07062320523D

  6  5  0  0  0  0  0  0  0  0999 V2000
   33.1930   34.6630    9.2900 C   0  0  0  0  0  0  0  0  0  0  0  0
   32.0600   35.3600   10.0340 C   0  0  0  0  0  0  0  0  0  0  0  0
   30.8450   35.6140    9.1800 C   0  0  0  0  0  0  0  0  0  0  0  0
   30.2150   34.3010    8.7400 C   0  0  0  0  0  0  0  0  0  0  0  0
   28.7420   34.4940    8.4340 C   0  0  0  0  0  0  0  0  0  0  0  0
   27.8900   33.7820    9.4270 N   0  0  0  0  0  0  0  0  0  0  0  0
  1  2  1  0  0  0  0
  3  2  1  0  0  0  0
  4  3  1  0  0  0  0
  5  4  1  0  0  0  0
  5  6  1  0  0  0  0
M  END
>  <EGIN_R>
ES LYS A 135

>  <REMARK>
  4 active torsions:
  status: ('A' for Active; 'I' for Inactive)
    5  A    between atoms: CA   and  CB  
    6  A    between atoms: CB   and  CG  
    7  A    between atoms: CG   and  CD  
    8  A    between atoms: CD   and  CE  

$$$$
