ligand_72_pose_3_2HRL.pdbqt
 OpenBabel07062320523D

 49 49  0  0  1  0  0  0  0  0999 V2000
   26.2520   28.7870   18.5750 N   0  0  0  0  0  0  0  0  0  0  0  0
   25.0040   28.9620   17.8950 C   0  0  0  0  0  0  0  0  0  0  0  0
   24.0150   28.1840   18.1110 O   0  0  0  0  0  0  0  0  0  0  0  0
   27.0190   29.4540   18.3720 H   0  0  0  0  0  0  0  0  0  0  0  0
   26.4000   27.7070   19.5270 C   0  0  0  0  0  0  0  0  0  0  0  0
   27.7230   27.6870   20.1840 C   0  0  2  0  0  0  0  0  0  0  0  0
   28.4960   28.9500   20.2470 C   0  0  1  0  0  0  0  0  0  0  0  0
   29.1190   29.1540   21.6060 C   0  0  2  0  0  0  0  0  0  0  0  0
   31.1300   27.9160   21.4700 C   0  0  2  0  0  0  0  0  0  0  0  0
   30.5580   26.9080   22.4840 C   0  0  0  0  0  0  0  0  0  0  0  0
   30.4940   29.1150   21.5090 O   0  0  0  0  0  0  0  0  0  0  0  0
   29.7880   27.7270   23.4650 C   0  0  1  0  0  0  0  0  0  0  0  0
   28.5590   28.2850   22.6910 C   0  0  1  0  0  0  0  0  0  0  0  0
   31.2060   27.3040   20.2360 O   0  0  0  0  0  0  0  0  0  0  0  0
   31.2570   27.9850   19.5240 H   0  0  0  0  0  0  0  0  0  0  0  0
   32.5540   28.1960   21.9060 C   0  0  0  0  0  0  0  0  0  0  0  0
   33.0880   27.5280   22.8220 O   0  0  0  0  0  0  0  0  0  0  0  0
   33.2390   29.2060   21.2660 O   0  0  0  0  0  0  0  0  0  0  0  0
   32.8880   30.1570   21.2480 H   0  0  0  0  0  0  0  0  0  0  0  0
   29.3640   27.0200   24.5720 O   0  0  0  0  0  0  0  0  0  0  0  0
   28.5730   26.4890   24.2900 H   0  0  0  0  0  0  0  0  0  0  0  0
   27.8670   29.0500   23.7410 N   0  0  0  0  0  0  0  0  0  0  0  0
   26.4760   29.0650   23.8910 C   0  0  0  0  0  0  0  0  0  0  0  0
   28.4660   29.5970   24.3920 H   0  0  0  0  0  0  0  0  0  0  0  0
   25.7560   29.8340   24.9400 C   0  0  0  0  0  0  0  0  0  0  0  0
   25.7760   28.3870   23.0890 O   0  0  0  0  0  0  0  0  0  0  0  0
   29.2410   29.3150   19.1750 O   0  0  0  0  0  0  0  0  0  0  0  0
   29.4260   30.2870   19.1040 H   0  0  0  0  0  0  0  0  0  0  0  0
   28.5340   26.7050   19.5710 O   0  0  0  0  0  0  0  0  0  0  0  0
   29.4590   26.8530   19.8710 H   0  0  0  0  0  0  0  0  0  0  0  0
   24.8930   29.9940   16.9990 O   0  0  0  0  0  0  0  0  0  0  0  0
   25.5640   30.0270   15.7740 C   0  0  0  0  0  0  0  0  0  0  0  0
   26.9870   30.4190   15.9480 C   0  0  0  0  0  0  0  0  0  0  0  0
   27.4470   31.7120   15.9100 C   0  0  0  0  0  0  0  0  0  0  0  0
   28.0500   29.6450   16.1620 N   0  0  0  0  0  0  0  0  0  0  0  0
   28.7700   31.6950   16.1020 N   0  0  0  0  0  0  0  0  0  0  0  0
   29.1120   30.4140   16.2540 N   0  0  0  0  0  0  0  0  0  0  0  0
   29.6270   32.8520   16.1330 C   0  0  0  0  0  0  0  0  0  0  0  0
   30.5250   32.8240   17.3510 C   0  0  0  0  0  0  0  0  0  0  0  0
   28.7570   34.1020   16.1500 C   0  0  0  0  0  0  0  0  0  0  0  0
   30.4480   32.9100   14.8690 C   0  0  0  0  0  0  0  0  0  0  0  0
   31.4490   31.9350   14.9050 O   0  0  0  0  0  0  0  0  0  0  0  0
   32.0340   32.0570   14.1140 H   0  0  0  0  0  0  0  0  0  0  0  0
   29.8670   25.5550   16.9770 C   0  0  0  0  0  0  0  0  0  0  0  0
   28.3450   25.7220   17.0260 C   0  0  0  0  0  0  0  0  0  0  0  0
   27.6010   24.4010   16.9050 C   0  0  0  0  0  0  0  0  0  0  0  0
   26.6260   24.1940   18.0300 C   0  0  0  0  0  0  0  0  0  0  0  0
   25.2610   24.7420   17.6270 C   0  0  0  0  0  0  0  0  0  0  0  0
   24.4660   23.6980   16.9380 N   0  0  0  0  0  0  0  0  0  0  0  0
  1  5  1  0  0  0  0
  2  3  2  0  0  0  0
  2  1  1  0  0  0  0
  4  1  1  0  0  0  0
  6  5  1  6  0  0  0
  6  7  1  0  0  0  0
  7 27  1  6  0  0  0
  8  7  1  6  0  0  0
  8 13  1  0  0  0  0
  9 14  1  6  0  0  0
  9 11  1  0  0  0  0
  9 16  1  0  0  0  0
  9 10  1  0  0  0  0
 10 12  1  0  0  0  0
 11  8  1  0  0  0  0
 12 20  1  1  0  0  0
 13 12  1  0  0  0  0
 13 22  1  1  0  0  0
 15 14  1  0  0  0  0
 16 17  2  0  0  0  0
 18 16  1  0  0  0  0
 19 18  1  0  0  0  0
 21 20  1  0  0  0  0
 22 23  1  0  0  0  0
 22 24  1  0  0  0  0
 23 25  1  0  0  0  0
 26 23  2  0  0  0  0
 28 27  1  0  0  0  0
 29 30  1  0  0  0  0
 29  6  1  0  0  0  0
 31  2  1  0  0  0  0
 32 33  1  0  0  0  0
 32 31  1  0  0  0  0
 33 35  1  0  0  0  0
 34 33  2  0  0  0  0
 34 36  1  0  0  0  0
 35 37  2  0  0  0  0
 36 38  1  0  0  0  0
 36 37  1  0  0  0  0
 38 40  1  0  0  0  0
 38 39  1  0  0  0  0
 41 42  1  0  0  0  0
 41 38  1  0  0  0  0
 43 42  1  0  0  0  0
 44 45  1  0  0  0  0
 46 45  1  0  0  0  0
 46 47  1  0  0  0  0
 48 47  1  0  0  0  0
 49 48  1  0  0  0  0
M  END
>  <REMARK>
 VINA RESULT:    -4.648      8.127     14.641
 INTER + INTRA:         -14.596
 INTER:                  -8.473
 INTRA:                  -6.123
 UNBOUND:                -6.145
 SMILES CC(=O)N[C@@H]1[C@@H](O)C[C@](O)(C(=O)O)O[C@H]1C(O)[C@H](O)CNC(=O)OCc1cn(C(C)(C)CO)nn1
 SMILES IDX 21 1 22 2 23 3 20 5 18 6 16 7 15 8 9 9 8 10 14 11 6 12 5 13
 SMILES IDX 10 14 11 16 12 17 13 18 7 20 4 22 2 23 1 25 3 26 17 27 19 29
 SMILES IDX 24 31 25 32 26 33 27 34 35 35 28 36 34 37 29 38 30 39 31 40
 SMILES IDX 32 41 33 42
 H PARENT 21 4 10 15 13 19 7 21 4 24 17 28 19 30 33 43
 Flexibility Score: inf
  4 active torsions:
  status: ('A' for Active; 'I' for Inactive)
    1  A    between atoms: CA   and  CB  
    2  A    between atoms: CB   and  CG  
    3  A    between atoms: CG   and  CD  
    4  A    between atoms: CD   and  CE  

>  <TORSDO>
F 17

>  <BEGIN_>
RES LYS A 131

$$$$
ligand_72_pose_3_2HRL.pdbqt
 OpenBabel07062320523D

  6  5  0  0  0  0  0  0  0  0999 V2000
   33.1930   34.6630    9.2900 C   0  0  0  0  0  0  0  0  0  0  0  0
   32.0600   35.3600   10.0340 C   0  0  0  0  0  0  0  0  0  0  0  0
   30.8840   35.7030    9.1560 C   0  0  0  0  0  0  0  0  0  0  0  0
   30.3870   34.4690    8.4200 C   0  0  0  0  0  0  0  0  0  0  0  0
   28.8720   34.4680    8.3440 C   0  0  0  0  0  0  0  0  0  0  0  0
   28.2770   33.7580    9.5100 N   0  0  0  0  0  0  0  0  0  0  0  0
  1  2  1  0  0  0  0
  3  2  1  0  0  0  0
  4  3  1  0  0  0  0
  5  4  1  0  0  0  0
  5  6  1  0  0  0  0
M  END
>  <EGIN_R>
ES LYS A 135

>  <REMARK>
  4 active torsions:
  status: ('A' for Active; 'I' for Inactive)
    5  A    between atoms: CA   and  CB  
    6  A    between atoms: CB   and  CG  
    7  A    between atoms: CG   and  CD  
    8  A    between atoms: CD   and  CE  

$$$$
