ligand_52_pose_11_2HRL.pdbqt
 OpenBabel07062320523D

 49 50  0  0  1  0  0  0  0  0999 V2000
   26.1730   30.2360   19.3300 C   0  0  0  0  0  0  0  0  0  0  0  0
   26.8590   29.0030   18.8670 C   0  0  2  0  0  0  0  0  0  0  0  0
   28.0440   28.6370   19.6770 C   0  0  2  0  0  0  0  0  0  0  0  0
   29.0600   29.6870   19.9630 C   0  0  2  0  0  0  0  0  0  0  0  0
   30.0650   31.6090   19.3030 C   0  0  2  0  0  0  0  0  0  0  0  0
   31.0950   31.4630   20.3650 C   0  0  0  0  0  0  0  0  0  0  0  0
   29.4220   30.4530   18.9020 O   0  0  0  0  0  0  0  0  0  0  0  0
   30.8780   30.3920   21.3750 C   0  0  1  0  0  0  0  0  0  0  0  0
   30.2710   29.1450   20.6700 C   0  0  1  0  0  0  0  0  0  0  0  0
   30.7810   32.0530   18.1450 O   0  0  0  0  0  0  0  0  0  0  0  0
   30.8170   31.2580   17.5660 H   0  0  0  0  0  0  0  0  0  0  0  0
   29.0820   32.6780   19.5910 C   0  0  0  0  0  0  0  0  0  0  0  0
   28.8770   33.0300   20.7790 O   0  0  0  0  0  0  0  0  0  0  0  0
   28.3400   33.3500   18.6280 O   0  0  0  0  0  0  0  0  0  0  0  0
   28.4820   33.0420   17.6600 H   0  0  0  0  0  0  0  0  0  0  0  0
   32.0920   29.9490   21.9030 O   0  0  0  0  0  0  0  0  0  0  0  0
   32.6010   30.7230   22.2490 H   0  0  0  0  0  0  0  0  0  0  0  0
   29.8380   28.2850   21.7380 N   0  0  0  0  0  0  0  0  0  0  0  0
   30.5470   27.1390   22.1660 C   0  0  0  0  0  0  0  0  0  0  0  0
   28.9410   28.5110   22.2440 H   0  0  0  0  0  0  0  0  0  0  0  0
   30.0180   26.3160   23.2770 C   0  0  0  0  0  0  0  0  0  0  0  0
   31.6180   26.8300   21.5970 O   0  0  0  0  0  0  0  0  0  0  0  0
   28.5570   27.3810   19.4130 O   0  0  0  0  0  0  0  0  0  0  0  0
   29.5070   27.2570   19.5640 H   0  0  0  0  0  0  0  0  0  0  0  0
   27.3300   29.1880   17.5440 O   0  0  0  0  0  0  0  0  0  0  0  0
   26.6010   29.6010   17.0370 H   0  0  0  0  0  0  0  0  0  0  0  0
   26.2290   31.3730   18.4610 N   0  0  0  0  0  0  0  0  0  0  0  0
   25.2110   31.8260   17.6300 C   0  0  0  0  0  0  0  0  0  0  0  0
   27.1350   31.9360   18.4410 H   0  0  0  0  0  0  0  0  0  0  0  0
   24.1200   31.2460   17.5640 O   0  0  0  0  0  0  0  0  0  0  0  0
   25.3410   32.9610   16.8110 O   0  0  0  0  0  0  0  0  0  0  0  0
   25.8510   32.8490   15.5010 C   0  0  0  0  0  0  0  0  0  0  0  0
   27.3220   32.7460   15.4930 C   0  0  0  0  0  0  0  0  0  0  0  0
   28.1450   33.7130   14.9380 C   0  0  0  0  0  0  0  0  0  0  0  0
   28.1420   31.8050   15.9610 N   0  0  0  0  0  0  0  0  0  0  0  0
   29.4240   33.3270   15.0880 N   0  0  0  0  0  0  0  0  0  0  0  0
   29.4060   32.1750   15.7070 N   0  0  0  0  0  0  0  0  0  0  0  0
   30.5950   34.0300   14.6610 C   0  0  0  0  0  0  0  0  0  0  0  0
   31.8360   33.7650   15.2120 C   0  0  0  0  0  0  0  0  0  0  0  0
   30.4980   34.9950   13.6790 C   0  0  0  0  0  0  0  0  0  0  0  0
   32.9500   34.4770   14.7610 C   0  0  0  0  0  0  0  0  0  0  0  0
   31.6010   35.6750   13.2590 N   0  0  0  0  0  0  0  0  0  0  0  0
   32.8200   35.4380   13.7760 C   0  0  0  0  0  0  0  0  0  0  0  0
   29.8670   25.5550   16.9770 C   0  0  0  0  0  0  0  0  0  0  0  0
   28.3450   25.7220   17.0260 C   0  0  0  0  0  0  0  0  0  0  0  0
   27.6020   24.3990   16.9260 C   0  0  0  0  0  0  0  0  0  0  0  0
   26.1230   24.5610   17.1450 C   0  0  0  0  0  0  0  0  0  0  0  0
   25.8830   25.5510   18.2810 C   0  0  0  0  0  0  0  0  0  0  0  0
   24.4580   25.9570   18.3230 N   0  0  0  0  0  0  0  0  0  0  0  0
  2  1  1  1  0  0  0
  2  3  1  0  0  0  0
  3 23  1  6  0  0  0
  4  3  1  6  0  0  0
  4  9  1  0  0  0  0
  5 10  1  6  0  0  0
  5 12  1  0  0  0  0
  5  6  1  0  0  0  0
  6  8  1  0  0  0  0
  7  5  1  0  0  0  0
  7  4  1  0  0  0  0
  8 16  1  6  0  0  0
  9  8  1  0  0  0  0
  9 18  1  1  0  0  0
 11 10  1  0  0  0  0
 12 13  2  0  0  0  0
 14 12  1  0  0  0  0
 15 14  1  0  0  0  0
 16 17  1  0  0  0  0
 18 19  1  0  0  0  0
 18 20  1  0  0  0  0
 19 21  1  0  0  0  0
 22 19  2  0  0  0  0
 23 24  1  0  0  0  0
 25  2  1  0  0  0  0
 26 25  1  0  0  0  0
 27  1  1  0  0  0  0
 28 27  1  0  0  0  0
 29 27  1  0  0  0  0
 30 28  2  0  0  0  0
 31 28  1  0  0  0  0
 32 31  1  0  0  0  0
 33 32  1  0  0  0  0
 33 35  1  0  0  0  0
 34 36  1  0  0  0  0
 34 33  2  0  0  0  0
 36 37  1  0  0  0  0
 37 35  2  0  0  0  0
 38 36  1  0  0  0  0
 38 39  2  0  0  0  0
 40 38  1  0  0  0  0
 41 39  1  0  0  0  0
 42 40  2  0  0  0  0
 42 43  1  0  0  0  0
 43 41  2  0  0  0  0
 44 45  1  0  0  0  0
 46 45  1  0  0  0  0
 46 47  1  0  0  0  0
 47 48  1  0  0  0  0
 48 49  1  0  0  0  0
M  END
>  <REMARK>
 VINA RESULT:    -4.867      1.799      2.424
 INTER + INTRA:         -13.587
 INTER:                  -7.260
 INTRA:                  -6.327
 UNBOUND:                -5.164
 SMILES CC(=O)N[C@@H]1[C@@H](O)C[C@](O)(C(=O)O)O[C@H]1C(O)[C@H](O)CNC(=O)OCc1cn(-c2cccnc2)nn1
 SMILES IDX 20 1 18 2 16 3 15 4 9 5 8 6 14 7 6 8 5 9 10 10 11 12 12 13
 SMILES IDX 13 14 7 16 4 18 2 19 1 21 3 22 17 23 19 25 21 27 22 28 23 30
 SMILES IDX 24 31 25 32 26 33 27 34 36 35 28 36 35 37 29 38 30 39 34 40
 SMILES IDX 31 41 33 42 32 43
 H PARENT 10 11 13 15 7 17 4 20 17 24 19 26 21 29
 Flexibility Score: inf
  4 active torsions:
  status: ('A' for Active; 'I' for Inactive)
    1  A    between atoms: CA   and  CB  
    2  A    between atoms: CB   and  CG  
    3  A    between atoms: CG   and  CD  
    4  A    between atoms: CD   and  CE  

>  <TORSDO>
F 15

>  <BEGIN_>
RES LYS A 131

$$$$
ligand_52_pose_11_2HRL.pdbqt
 OpenBabel07062320523D

  6  5  0  0  0  0  0  0  0  0999 V2000
   33.1930   34.6630    9.2900 C   0  0  0  0  0  0  0  0  0  0  0  0
   32.0600   35.3600   10.0340 C   0  0  0  0  0  0  0  0  0  0  0  0
   30.7250   34.6800    9.8720 C   0  0  0  0  0  0  0  0  0  0  0  0
   30.3500   34.5760    8.4020 C   0  0  0  0  0  0  0  0  0  0  0  0
   28.8440   34.6300    8.2320 C   0  0  0  0  0  0  0  0  0  0  0  0
   28.2560   35.7560    9.0080 N   0  0  0  0  0  0  0  0  0  0  0  0
  1  2  1  0  0  0  0
  3  2  1  0  0  0  0
  4  3  1  0  0  0  0
  5  4  1  0  0  0  0
  5  6  1  0  0  0  0
M  END
>  <EGIN_R>
ES LYS A 135

>  <REMARK>
  4 active torsions:
  status: ('A' for Active; 'I' for Inactive)
    5  A    between atoms: CA   and  CB  
    6  A    between atoms: CB   and  CG  
    7  A    between atoms: CG   and  CD  
    8  A    between atoms: CD   and  CE  

$$$$
