ligand_10_pose_17_2HRL.pdbqt
 OpenBabel07062320523D

 53 53  0  0  1  0  0  0  0  0999 V2000
   25.8260   37.2060   10.2000 N   0  0  0  0  0  0  0  0  0  0  0  0
   25.2370   35.9180   10.3780 C   0  0  0  0  0  0  0  0  0  0  0  0
   24.2890   35.5940    9.6550 O   0  0  0  0  0  0  0  0  0  0  0  0
   26.6280   37.4120   10.8510 H   0  0  0  0  0  0  0  0  0  0  0  0
   25.3990   38.1690    9.2330 C   0  0  0  0  0  0  0  0  0  0  0  0
   26.1350   37.9820    7.9220 C   0  0  2  0  0  0  0  0  0  0  0  0
   26.3230   39.3070    7.2060 C   0  0  2  0  0  0  0  0  0  0  0  0
   27.7420   39.7090    7.0250 C   0  0  2  0  0  0  0  0  0  0  0  0
   27.3740   40.6010    4.9110 C   0  0  2  0  0  0  0  0  0  0  0  0
   27.5460   39.2710    4.3080 C   0  0  0  0  0  0  0  0  0  0  0  0
   27.8710   40.8090    6.1710 O   0  0  0  0  0  0  0  0  0  0  0  0
   28.2480   38.2250    5.0780 C   0  0  1  0  0  0  0  0  0  0  0  0
   28.5980   38.5940    6.4920 C   0  0  1  0  0  0  0  0  0  0  0  0
   26.0020   40.9550    4.9840 O   0  0  0  0  0  0  0  0  0  0  0  0
   25.5350   40.2690    4.4360 H   0  0  0  0  0  0  0  0  0  0  0  0
   27.9710   41.6590    4.0490 C   0  0  0  0  0  0  0  0  0  0  0  0
   27.3190   42.5850    3.5140 O   0  0  0  0  0  0  0  0  0  0  0  0
   29.3380   41.6100    3.8280 O   0  0  0  0  0  0  0  0  0  0  0  0
   29.9530   40.9640    4.3400 H   0  0  0  0  0  0  0  0  0  0  0  0
   27.5150   37.0410    5.0750 O   0  0  0  0  0  0  0  0  0  0  0  0
   26.6950   37.0700    5.5960 H   0  0  0  0  0  0  0  0  0  0  0  0
   30.0180   39.0140    6.5710 N   0  0  0  0  0  0  0  0  0  0  0  0
   30.7180   38.9810    7.7980 C   0  0  0  0  0  0  0  0  0  0  0  0
   30.5350   39.3430    5.7280 H   0  0  0  0  0  0  0  0  0  0  0  0
   32.1460   39.3940    7.9250 C   0  0  0  0  0  0  0  0  0  0  0  0
   30.1110   38.5880    8.8170 O   0  0  0  0  0  0  0  0  0  0  0  0
   25.6760   40.2300    8.0770 O   0  0  0  0  0  0  0  0  0  0  0  0
   24.7040   40.2370    7.9110 H   0  0  0  0  0  0  0  0  0  0  0  0
   25.4500   37.0350    7.1720 O   0  0  0  0  0  0  0  0  0  0  0  0
   25.6380   36.1040    7.4490 H   0  0  0  0  0  0  0  0  0  0  0  0
   25.6900   35.0210   11.3310 O   0  0  0  0  0  0  0  0  0  0  0  0
   25.7220   35.3870   12.6870 C   0  0  0  0  0  0  0  0  0  0  0  0
   26.8400   34.7520   13.4250 C   0  0  0  0  0  0  0  0  0  0  0  0
   28.1500   34.8550   13.0220 C   0  0  0  0  0  0  0  0  0  0  0  0
   26.8360   34.0150   14.5330 N   0  0  0  0  0  0  0  0  0  0  0  0
   28.9120   34.1670   13.9110 N   0  0  0  0  0  0  0  0  0  0  0  0
   28.0890   33.6810   14.7960 N   0  0  0  0  0  0  0  0  0  0  0  0
   30.3630   34.0650   13.7890 C   0  0  1  0  0  0  0  0  0  0  0  0
   30.9630   35.4440   13.7760 C   0  0  0  0  0  0  0  0  0  0  0  0
   32.4310   35.4180   13.6840 C   0  0  0  0  0  0  0  0  0  0  0  0
   33.1080   35.8720   14.6390 O   0  0  0  0  0  0  0  0  0  0  0  0
   33.0310   34.8960   12.5480 O   0  0  0  0  0  0  0  0  0  0  0  0
   33.7000   35.4810   12.0230 H   0  0  0  0  0  0  0  0  0  0  0  0
   30.8850   33.3720   14.9990 C   0  0  0  0  0  0  0  0  0  0  0  0
   30.8260   33.8490   16.1600 O   0  0  0  0  0  0  0  0  0  0  0  0
   31.4710   32.1290   14.8360 O   0  0  0  0  0  0  0  0  0  0  0  0
   32.1010   31.7270   15.5210 H   0  0  0  0  0  0  0  0  0  0  0  0
   29.8670   25.5550   16.9770 C   0  0  0  0  0  0  0  0  0  0  0  0
   28.3450   25.7220   17.0260 C   0  0  0  0  0  0  0  0  0  0  0  0
   27.5990   24.4660   16.6020 C   0  0  0  0  0  0  0  0  0  0  0  0
   27.0160   23.7300   17.7770 C   0  0  0  0  0  0  0  0  0  0  0  0
   25.5070   23.5990   17.5970 C   0  0  0  0  0  0  0  0  0  0  0  0
   24.7980   24.0360   18.8230 N   0  0  0  0  0  0  0  0  0  0  0  0
  1  2  1  0  0  0  0
  1  4  1  0  0  0  0
  2 31  1  0  0  0  0
  3  2  2  0  0  0  0
  5  1  1  0  0  0  0
  6  5  1  1  0  0  0
  7  6  1  0  0  0  0
  7 27  1  1  0  0  0
  8  7  1  6  0  0  0
  9 16  1  6  0  0  0
  9 14  1  0  0  0  0
  9 11  1  0  0  0  0
 10  9  1  0  0  0  0
 10 12  1  0  0  0  0
 11  8  1  0  0  0  0
 12 20  1  1  0  0  0
 12 13  1  0  0  0  0
 13 22  1  6  0  0  0
 13  8  1  0  0  0  0
 15 14  1  0  0  0  0
 17 16  2  0  0  0  0
 18 16  1  0  0  0  0
 18 19  1  0  0  0  0
 20 21  1  0  0  0  0
 22 23  1  0  0  0  0
 23 25  1  0  0  0  0
 23 26  2  0  0  0  0
 24 22  1  0  0  0  0
 28 27  1  0  0  0  0
 29 30  1  0  0  0  0
 29  6  1  0  0  0  0
 31 32  1  0  0  0  0
 32 33  1  0  0  0  0
 33 35  1  0  0  0  0
 34 33  2  0  0  0  0
 34 36  1  0  0  0  0
 35 37  2  0  0  0  0
 36 37  1  0  0  0  0
 38 39  1  1  0  0  0
 38 36  1  0  0  0  0
 38 44  1  0  0  0  0
 40 39  1  0  0  0  0
 40 41  2  0  0  0  0
 42 40  1  0  0  0  0
 43 42  1  0  0  0  0
 44 45  2  0  0  0  0
 46 44  1  0  0  0  0
 46 47  1  0  0  0  0
 48 49  1  0  0  0  0
 50 49  1  0  0  0  0
 50 51  1  0  0  0  0
 52 51  1  0  0  0  0
 52 53  1  0  0  0  0
M  END
>  <REMARK>
 VINA RESULT:    -4.390      4.397      9.353
 INTER + INTRA:         -14.369
 INTER:                  -9.713
 INTRA:                  -4.657
 UNBOUND:                -5.744
 SMILES CC(=O)N[C@@H]1[C@@H](O)C[C@](O)(C(=O)O)O[C@H]1C(O)[C@H](O)CNC(=O)OCc1cn([C@@H](CC(=O)O)C(=O)O)nn1
 SMILES IDX 21 1 22 2 23 3 20 5 18 6 16 7 15 8 9 9 8 10 14 11 6 12 5 13
 SMILES IDX 10 14 11 16 12 17 13 18 7 20 4 22 2 23 1 25 3 26 17 27 19 29
 SMILES IDX 24 31 25 32 26 33 27 34 38 35 28 36 37 37 29 38 30 39 31 40
 SMILES IDX 32 41 33 42 34 44 35 45 36 46
 H PARENT 21 4 10 15 13 19 7 21 4 24 17 28 19 30 33 43 36 47
 Flexibility Score: inf
  4 active torsions:
  status: ('A' for Active; 'I' for Inactive)
    1  A    between atoms: CA   and  CB  
    2  A    between atoms: CB   and  CG  
    3  A    between atoms: CG   and  CD  
    4  A    between atoms: CD   and  CE  

>  <TORSDO>
F 20

>  <BEGIN_>
RES LYS A 131

$$$$
ligand_10_pose_17_2HRL.pdbqt
 OpenBabel07062320523D

  6  5  0  0  0  0  0  0  0  0999 V2000
   33.1930   34.6630    9.2900 C   0  0  0  0  0  0  0  0  0  0  0  0
   32.0600   35.3600   10.0340 C   0  0  0  0  0  0  0  0  0  0  0  0
   30.7090   34.7390    9.7920 C   0  0  0  0  0  0  0  0  0  0  0  0
   30.4760   34.5210    8.3050 C   0  0  0  0  0  0  0  0  0  0  0  0
   29.2750   35.3170    7.8310 C   0  0  0  0  0  0  0  0  0  0  0  0
   28.0030   34.6780    8.2660 N   0  0  0  0  0  0  0  0  0  0  0  0
  1  2  1  0  0  0  0
  3  2  1  0  0  0  0
  4  3  1  0  0  0  0
  5  6  1  0  0  0  0
  5  4  1  0  0  0  0
M  END
>  <EGIN_R>
ES LYS A 135

>  <REMARK>
  4 active torsions:
  status: ('A' for Active; 'I' for Inactive)
    5  A    between atoms: CA   and  CB  
    6  A    between atoms: CB   and  CG  
    7  A    between atoms: CG   and  CD  
    8  A    between atoms: CD   and  CE  

$$$$
