ligand_85_pose_18_2HRL.pdbqt
 OpenBabel07062320523D

 55 56  0  0  1  0  0  0  0  0999 V2000
   27.8190   31.6800   18.0260 N   0  0  0  0  0  0  0  0  0  0  0  0
   28.6700   30.8800   17.2470 C   0  0  0  0  0  0  0  0  0  0  0  0
   28.1970   29.9920   16.5090 O   0  0  0  0  0  0  0  0  0  0  0  0
   28.2260   32.4240   18.6380 H   0  0  0  0  0  0  0  0  0  0  0  0
   26.3890   31.5210   18.0220 C   0  0  0  0  0  0  0  0  0  0  0  0
   25.7620   32.5640   17.1330 C   0  0  2  0  0  0  0  0  0  0  0  0
   25.1060   31.9690   15.9130 C   0  0  2  0  0  0  0  0  0  0  0  0
   24.9020   32.9970   14.8660 C   0  0  2  0  0  0  0  0  0  0  0  0
   24.5440   35.2020   14.3500 C   0  0  2  0  0  0  0  0  0  0  0  0
   24.9180   34.6910   12.9820 C   0  0  0  0  0  0  0  0  0  0  0  0
   24.4460   34.2260   15.3100 O   0  0  0  0  0  0  0  0  0  0  0  0
   24.1810   33.4530   12.5910 C   0  0  1  0  0  0  0  0  0  0  0  0
   23.9210   32.5400   13.7850 C   0  0  1  0  0  0  0  0  0  0  0  0
   23.2700   35.7890   14.2480 O   0  0  0  0  0  0  0  0  0  0  0  0
   22.6810   35.0750   13.8540 H   0  0  0  0  0  0  0  0  0  0  0  0
   25.4900   36.2200   14.8220 C   0  0  0  0  0  0  0  0  0  0  0  0
   25.4230   37.3880   14.3680 O   0  0  0  0  0  0  0  0  0  0  0  0
   26.4830   35.9820   15.7590 O   0  0  0  0  0  0  0  0  0  0  0  0
   26.2420   35.3430   16.5330 H   0  0  0  0  0  0  0  0  0  0  0  0
   22.9650   33.8340   11.9890 O   0  0  0  0  0  0  0  0  0  0  0  0
   22.3070   33.1380   12.2560 H   0  0  0  0  0  0  0  0  0  0  0  0
   24.0770   31.1630   13.4620 N   0  0  0  0  0  0  0  0  0  0  0  0
   23.0250   30.4520   12.8320 C   0  0  0  0  0  0  0  0  0  0  0  0
   24.9550   30.6520   13.6750 H   0  0  0  0  0  0  0  0  0  0  0  0
   23.2370   29.0000   12.5090 C   0  0  0  0  0  0  0  0  0  0  0  0
   21.9290   30.9550   12.5270 O   0  0  0  0  0  0  0  0  0  0  0  0
   23.9920   31.2580   16.2820 O   0  0  0  0  0  0  0  0  0  0  0  0
   24.2300   30.2790   16.2230 H   0  0  0  0  0  0  0  0  0  0  0  0
   26.7810   33.4360   16.6390 O   0  0  0  0  0  0  0  0  0  0  0  0
   26.6820   33.5800   15.6760 H   0  0  0  0  0  0  0  0  0  0  0  0
   30.0540   31.0150   17.2410 O   0  0  0  0  0  0  0  0  0  0  0  0
   30.7070   31.4490   16.0640 C   0  0  0  0  0  0  0  0  0  0  0  0
   30.2650   32.7960   15.6790 C   0  0  0  0  0  0  0  0  0  0  0  0
   30.3380   33.4350   14.4590 C   0  0  0  0  0  0  0  0  0  0  0  0
   29.6820   33.6810   16.5060 N   0  0  0  0  0  0  0  0  0  0  0  0
   29.8030   34.6800   14.5720 N   0  0  0  0  0  0  0  0  0  0  0  0
   29.4210   34.7840   15.8220 N   0  0  0  0  0  0  0  0  0  0  0  0
   29.6760   35.6720   13.5630 C   0  0  0  0  0  0  0  0  0  0  0  0
   28.5170   35.7690   12.8070 C   0  0  0  0  0  0  0  0  0  0  0  0
   30.7180   36.5410   13.3390 C   0  0  0  0  0  0  0  0  0  0  0  0
   28.3730   36.7200   11.8270 C   0  0  0  0  0  0  0  0  0  0  0  0
   30.6070   37.5130   12.3590 C   0  0  0  0  0  0  0  0  0  0  0  0
   26.9070   36.8530   10.8610 Cl  0  0  0  0  0  0  0  0  0  0  0  0
   29.4290   37.5830   11.6170 C   0  0  0  0  0  0  0  0  0  0  0  0
   31.9180   36.4280   14.1340 C   0  0  0  0  0  0  0  0  0  0  0  0
   32.8870   35.6810   13.8190 O   0  0  0  0  0  0  0  0  0  0  0  0
   32.0430   37.1760   15.3270 N   0  0  0  0  0  0  0  0  0  0  0  0
   30.9620   38.0430   15.7270 C   0  0  0  0  0  0  0  0  0  0  0  0
   33.2300   37.1020   16.1670 C   0  0  0  0  0  0  0  0  0  0  0  0
   29.8670   25.5550   16.9770 C   0  0  0  0  0  0  0  0  0  0  0  0
   28.3450   25.7220   17.0260 C   0  0  0  0  0  0  0  0  0  0  0  0
   27.6020   24.3990   16.9260 C   0  0  0  0  0  0  0  0  0  0  0  0
   26.5250   24.2740   17.9680 C   0  0  0  0  0  0  0  0  0  0  0  0
   25.2010   24.7660   17.3930 C   0  0  0  0  0  0  0  0  0  0  0  0
   24.3760   23.6220   16.9380 N   0  0  0  0  0  0  0  0  0  0  0  0
  1  4  1  0  0  0  0
  2  1  1  0  0  0  0
  3  2  2  0  0  0  0
  5  1  1  0  0  0  0
  6  5  1  1  0  0  0
  7 27  1  1  0  0  0
  7  6  1  0  0  0  0
  8 11  1  0  0  0  0
  8  7  1  1  0  0  0
  9 14  1  6  0  0  0
  9 16  1  0  0  0  0
  9 11  1  0  0  0  0
 10  9  1  0  0  0  0
 12 20  1  1  0  0  0
 12 10  1  0  0  0  0
 12 13  1  0  0  0  0
 13 22  1  6  0  0  0
 13  8  1  0  0  0  0
 15 14  1  0  0  0  0
 16 18  1  0  0  0  0
 17 16  2  0  0  0  0
 18 19  1  0  0  0  0
 20 21  1  0  0  0  0
 22 24  1  0  0  0  0
 23 22  1  0  0  0  0
 25 23  1  0  0  0  0
 26 23  2  0  0  0  0
 28 27  1  0  0  0  0
 29  6  1  0  0  0  0
 30 29  1  0  0  0  0
 31  2  1  0  0  0  0
 32 31  1  0  0  0  0
 33 32  1  0  0  0  0
 33 35  1  0  0  0  0
 34 36  1  0  0  0  0
 34 33  2  0  0  0  0
 36 37  1  0  0  0  0
 37 35  2  0  0  0  0
 38 36  1  0  0  0  0
 39 38  2  0  0  0  0
 40 38  1  0  0  0  0
 40 45  1  0  0  0  0
 41 39  1  0  0  0  0
 42 40  2  0  0  0  0
 43 41  1  0  0  0  0
 44 41  2  0  0  0  0
 44 42  1  0  0  0  0
 45 47  1  0  0  0  0
 46 45  2  0  0  0  0
 47 48  1  0  0  0  0
 47 49  1  0  0  0  0
 50 51  1  0  0  0  0
 52 51  1  0  0  0  0
 52 53  1  0  0  0  0
 54 53  1  0  0  0  0
 55 54  1  0  0  0  0
M  END
>  <REMARK>
 VINA RESULT:    -4.556      4.375      7.269
 INTER + INTRA:         -14.339
 INTER:                  -7.441
 INTRA:                  -6.898
 UNBOUND:                -6.187
 SMILES CC(=O)N[C@@H]1[C@@H](O)C[C@](O)(C(=O)O)O[C@H]1C(O)[C@H](O)CNC(=O)OCc1cn(-c2cc(Cl)ccc2C(=O)N(C)C)nn1
 SMILES IDX 21 1 22 2 23 3 20 5 18 6 16 7 15 8 9 9 8 10 14 11 6 12 5 13
 SMILES IDX 10 14 11 16 12 17 13 18 7 20 4 22 2 23 1 25 3 26 17 27 19 29
 SMILES IDX 24 31 25 32 26 33 27 34 42 35 28 36 41 37 29 38 30 39 35 40
 SMILES IDX 31 41 34 42 32 43 33 44 36 45 37 46 38 47 39 48 40 49
 H PARENT 21 4 10 15 13 19 7 21 4 24 17 28 19 30
 Flexibility Score: inf
  4 active torsions:
  status: ('A' for Active; 'I' for Inactive)
    1  A    between atoms: CA   and  CB  
    2  A    between atoms: CB   and  CG  
    3  A    between atoms: CG   and  CD  
    4  A    between atoms: CD   and  CE  

>  <TORSDO>
F 16

>  <BEGIN_>
RES LYS A 131

$$$$
ligand_85_pose_18_2HRL.pdbqt
 OpenBabel07062320523D

  6  5  0  0  0  0  0  0  0  0999 V2000
   33.1930   34.6630    9.2900 C   0  0  0  0  0  0  0  0  0  0  0  0
   32.0600   35.3600   10.0340 C   0  0  0  0  0  0  0  0  0  0  0  0
   30.7940   35.4820    9.2260 C   0  0  0  0  0  0  0  0  0  0  0  0
   30.0300   34.1670    9.2230 C   0  0  0  0  0  0  0  0  0  0  0  0
   28.6160   34.3730    8.7140 C   0  0  0  0  0  0  0  0  0  0  0  0
   27.6260   33.6830    9.5860 N   0  0  0  0  0  0  0  0  0  0  0  0
  1  2  1  0  0  0  0
  3  2  1  0  0  0  0
  4  3  1  0  0  0  0
  5  4  1  0  0  0  0
  5  6  1  0  0  0  0
M  END
>  <EGIN_R>
ES LYS A 135

>  <REMARK>
  4 active torsions:
  status: ('A' for Active; 'I' for Inactive)
    5  A    between atoms: CA   and  CB  
    6  A    between atoms: CB   and  CG  
    7  A    between atoms: CG   and  CD  
    8  A    between atoms: CD   and  CE  

$$$$
