ligand_36_pose_9_2HRL.pdbqt
 OpenBabel07062320523D

 52 53  0  0  1  0  0  0  0  0999 V2000
   30.1600   38.7950   10.2600 N   0  0  0  0  0  0  0  0  0  0  0  0
   28.9590   38.0580   10.4750 C   0  0  0  0  0  0  0  0  0  0  0  0
   27.9260   38.3340    9.7710 O   0  0  0  0  0  0  0  0  0  0  0  0
   30.9840   38.5510   10.8400 H   0  0  0  0  0  0  0  0  0  0  0  0
   30.1880   39.8160    9.2770 C   0  0  0  0  0  0  0  0  0  0  0  0
   31.2080   39.6580    8.1750 C   0  0  2  0  0  0  0  0  0  0  0  0
   30.6540   39.9670    6.7990 C   0  0  2  0  0  0  0  0  0  0  0  0
   29.1980   39.6720    6.6810 C   0  0  2  0  0  0  0  0  0  0  0  0
   27.7260   38.0120    5.9740 C   0  0  2  0  0  0  0  0  0  0  0  0
   26.6940   38.9820    6.5040 C   0  0  0  0  0  0  0  0  0  0  0  0
   29.0040   38.3310    6.3250 O   0  0  0  0  0  0  0  0  0  0  0  0
   26.9510   40.3900    6.0990 C   0  0  1  0  0  0  0  0  0  0  0  0
   28.4320   40.4960    5.6950 C   0  0  1  0  0  0  0  0  0  0  0  0
   27.5630   37.9130    4.5750 O   0  0  0  0  0  0  0  0  0  0  0  0
   27.1430   37.0230    4.3870 H   0  0  0  0  0  0  0  0  0  0  0  0
   27.4010   36.6890    6.5450 C   0  0  0  0  0  0  0  0  0  0  0  0
   27.8800   35.6580    6.0220 O   0  0  0  0  0  0  0  0  0  0  0  0
   26.5800   36.5860    7.6440 O   0  0  0  0  0  0  0  0  0  0  0  0
   26.8490   36.2060    8.5340 H   0  0  0  0  0  0  0  0  0  0  0  0
   26.1290   40.8520    5.0900 O   0  0  0  0  0  0  0  0  0  0  0  0
   26.7170   41.0280    4.2930 H   0  0  0  0  0  0  0  0  0  0  0  0
   28.8240   41.8670    5.5780 N   0  0  0  0  0  0  0  0  0  0  0  0
   28.7770   42.5490    4.3140 C   0  0  0  0  0  0  0  0  0  0  0  0
   29.1540   42.4370    6.4070 H   0  0  0  0  0  0  0  0  0  0  0  0
   29.1880   43.9800    4.2030 C   0  0  0  0  0  0  0  0  0  0  0  0
   28.3900   41.9570    3.2770 O   0  0  0  0  0  0  0  0  0  0  0  0
   31.4440   39.4320    5.8330 O   0  0  0  0  0  0  0  0  0  0  0  0
   31.1920   39.6040    4.9250 H   0  0  0  0  0  0  0  0  0  0  0  0
   31.5660   38.2860    8.2310 O   0  0  0  0  0  0  0  0  0  0  0  0
   31.6330   37.8900    7.3430 H   0  0  0  0  0  0  0  0  0  0  0  0
   28.8150   37.0450   11.4060 O   0  0  0  0  0  0  0  0  0  0  0  0
   28.8900   37.3650   12.7780 C   0  0  0  0  0  0  0  0  0  0  0  0
   30.1370   36.8590   13.3990 C   0  0  0  0  0  0  0  0  0  0  0  0
   30.4850   35.5450   13.6710 C   0  0  0  0  0  0  0  0  0  0  0  0
   31.1650   37.6110   13.8110 N   0  0  0  0  0  0  0  0  0  0  0  0
   31.6990   35.5440   14.2300 N   0  0  0  0  0  0  0  0  0  0  0  0
   32.0810   36.8010   14.3010 N   0  0  0  0  0  0  0  0  0  0  0  0
   32.4630   34.3970   14.6700 C   0  0  0  0  0  0  0  0  0  0  0  0
   31.7850   33.5830   15.6800 C   0  0  0  0  0  0  0  0  0  0  0  0
   31.2830   32.3520   15.3460 C   0  0  0  0  0  0  0  0  0  0  0  0
   31.6480   34.0600   16.9740 C   0  0  0  0  0  0  0  0  0  0  0  0
   30.6360   31.5740   16.2880 C   0  0  0  0  0  0  0  0  0  0  0  0
   31.0030   33.2980   17.9390 C   0  0  0  0  0  0  0  0  0  0  0  0
   30.4990   32.0480   17.5750 C   0  0  0  0  0  0  0  0  0  0  0  0
   29.8280   31.2510   18.5600 C   0  0  0  0  0  0  0  0  0  0  0  0
   29.2920   30.5870   19.3620 N   0  0  0  0  0  0  0  0  0  0  0  0
   29.8670   25.5550   16.9770 C   0  0  0  0  0  0  0  0  0  0  0  0
   28.3450   25.7220   17.0260 C   0  0  0  0  0  0  0  0  0  0  0  0
   27.6030   24.3950   16.9750 C   0  0  0  0  0  0  0  0  0  0  0  0
   26.1120   24.5780   17.0330 C   0  0  0  0  0  0  0  0  0  0  0  0
   25.7430   25.3570   18.2910 C   0  0  0  0  0  0  0  0  0  0  0  0
   25.7260   24.4600   19.4710 N   0  0  0  0  0  0  0  0  0  0  0  0
  1  2  1  0  0  0  0
  1  4  1  0  0  0  0
  2 31  1  0  0  0  0
  3  2  2  0  0  0  0
  5  1  1  0  0  0  0
  6 29  1  0  0  0  0
  6  5  1  1  0  0  0
  7 27  1  6  0  0  0
  7  6  1  0  0  0  0
  8  7  1  6  0  0  0
  9 14  1  6  0  0  0
  9 11  1  0  0  0  0
  9 10  1  0  0  0  0
  9 16  1  0  0  0  0
 11  8  1  0  0  0  0
 12 20  1  6  0  0  0
 12 10  1  0  0  0  0
 13 22  1  1  0  0  0
 13 12  1  0  0  0  0
 13  8  1  0  0  0  0
 15 14  1  0  0  0  0
 16 18  1  0  0  0  0
 17 16  2  0  0  0  0
 18 19  1  0  0  0  0
 21 20  1  0  0  0  0
 22 24  1  0  0  0  0
 23 22  1  0  0  0  0
 25 23  1  0  0  0  0
 26 23  2  0  0  0  0
 28 27  1  0  0  0  0
 30 29  1  0  0  0  0
 31 32  1  0  0  0  0
 32 33  1  0  0  0  0
 33 34  2  0  0  0  0
 33 35  1  0  0  0  0
 34 36  1  0  0  0  0
 35 37  2  0  0  0  0
 36 37  1  0  0  0  0
 36 38  1  0  0  0  0
 38 39  1  0  0  0  0
 39 41  1  0  0  0  0
 40 39  2  0  0  0  0
 40 42  1  0  0  0  0
 41 43  2  0  0  0  0
 42 44  2  0  0  0  0
 44 43  1  0  0  0  0
 44 45  1  0  0  0  0
 45 46  3  0  0  0  0
 47 48  1  0  0  0  0
 49 48  1  0  0  0  0
 49 50  1  0  0  0  0
 50 51  1  0  0  0  0
 51 52  1  0  0  0  0
M  END
>  <REMARK>
 VINA RESULT:    -4.297      7.041     13.742
 INTER + INTRA:         -14.920
 INTER:                 -10.353
 INTRA:                  -4.567
 UNBOUND:                -6.980
 SMILES CC(=O)N[C@@H]1[C@@H](O)C[C@](O)(C(=O)O)O[C@H]1C(O)[C@H](O)CNC(=O)OCc1cn(Cc2ccc(C#N)cc2)nn1
 SMILES IDX 21 1 22 2 23 3 20 5 18 6 16 7 15 8 9 9 8 10 14 11 6 12 5 13
 SMILES IDX 10 14 11 16 12 17 13 18 7 20 4 22 2 23 1 25 3 26 17 27 19 29
 SMILES IDX 24 31 25 32 26 33 27 34 39 35 28 36 38 37 29 38 30 39 31 40
 SMILES IDX 37 41 32 42 36 43 33 44 34 45 35 46
 H PARENT 21 4 10 15 13 19 7 21 4 24 17 28 19 30
 Flexibility Score: inf
  4 active torsions:
  status: ('A' for Active; 'I' for Inactive)
    1  A    between atoms: CA   and  CB  
    2  A    between atoms: CB   and  CG  
    3  A    between atoms: CG   and  CD  
    4  A    between atoms: CD   and  CE  

>  <TORSDO>
F 17

>  <BEGIN_>
RES LYS A 131

$$$$
ligand_36_pose_9_2HRL.pdbqt
 OpenBabel07062320523D

  6  5  0  0  0  0  0  0  0  0999 V2000
   33.1930   34.6630    9.2900 C   0  0  0  0  0  0  0  0  0  0  0  0
   32.0600   35.3600   10.0340 C   0  0  0  0  0  0  0  0  0  0  0  0
   30.7390   35.3020    9.3110 C   0  0  0  0  0  0  0  0  0  0  0  0
   29.9400   34.0850    9.7500 C   0  0  0  0  0  0  0  0  0  0  0  0
   28.5630   34.0940    9.1140 C   0  0  0  0  0  0  0  0  0  0  0  0
   27.4940   34.0090   10.1480 N   0  0  0  0  0  0  0  0  0  0  0  0
  1  2  1  0  0  0  0
  3  4  1  0  0  0  0
  3  2  1  0  0  0  0
  5  4  1  0  0  0  0
  5  6  1  0  0  0  0
M  END
>  <EGIN_R>
ES LYS A 135

>  <REMARK>
  4 active torsions:
  status: ('A' for Active; 'I' for Inactive)
    5  A    between atoms: CA   and  CB  
    6  A    between atoms: CB   and  CG  
    7  A    between atoms: CG   and  CD  
    8  A    between atoms: CD   and  CE  

$$$$
