ligand_17_pose_0_2HRL.pdbqt
 OpenBabel07062320523D

 50 50  0  0  1  0  0  0  0  0999 V2000
   28.8600   33.2200   19.5070 N   0  0  0  0  0  0  0  0  0  0  0  0
   27.4980   32.8000   19.4080 C   0  0  0  0  0  0  0  0  0  0  0  0
   27.0060   32.0640   20.2810 O   0  0  0  0  0  0  0  0  0  0  0  0
   29.2020   33.8300   18.7440 H   0  0  0  0  0  0  0  0  0  0  0  0
   29.7320   32.8430   20.5750 C   0  0  0  0  0  0  0  0  0  0  0  0
   31.0300   32.2370   20.1190 C   0  0  2  0  0  0  0  0  0  0  0  0
   30.8420   30.7700   19.7990 C   0  0  1  0  0  0  0  0  0  0  0  0
   29.9750   30.0890   20.8190 C   0  0  2  0  0  0  0  0  0  0  0  0
   31.6400   28.6780   21.6980 C   0  0  2  0  0  0  0  0  0  0  0  0
   31.0800   27.5430   20.8530 C   0  0  0  0  0  0  0  0  0  0  0  0
   30.7540   29.6990   21.8790 O   0  0  0  0  0  0  0  0  0  0  0  0
   29.5550   27.6740   20.9130 C   0  0  1  0  0  0  0  0  0  0  0  0
   29.1980   28.9550   20.2480 C   0  0  1  0  0  0  0  0  0  0  0  0
   32.8640   29.0420   21.1420 O   0  0  0  0  0  0  0  0  0  0  0  0
   33.3780   29.6310   21.7640 H   0  0  0  0  0  0  0  0  0  0  0  0
   31.9230   28.1160   23.0570 C   0  0  0  0  0  0  0  0  0  0  0  0
   31.9590   26.8860   23.2780 O   0  0  0  0  0  0  0  0  0  0  0  0
   32.1520   28.9860   24.1020 O   0  0  0  0  0  0  0  0  0  0  0  0
   31.9350   28.7710   25.0700 H   0  0  0  0  0  0  0  0  0  0  0  0
   29.0120   26.5540   20.2840 O   0  0  0  0  0  0  0  0  0  0  0  0
   28.0270   26.5660   20.5050 H   0  0  0  0  0  0  0  0  0  0  0  0
   27.7690   29.2050   20.2220 N   0  0  0  0  0  0  0  0  0  0  0  0
   26.9250   28.7920   19.1520 C   0  0  0  0  0  0  0  0  0  0  0  0
   27.2840   29.7140   21.0140 H   0  0  0  0  0  0  0  0  0  0  0  0
   25.4560   29.0780   19.1760 C   0  0  0  0  0  0  0  0  0  0  0  0
   27.4040   28.1860   18.1740 O   0  0  0  0  0  0  0  0  0  0  0  0
   30.2550   30.7590   18.5210 O   0  0  0  0  0  0  0  0  0  0  0  0
   30.6540   29.9780   18.0540 H   0  0  0  0  0  0  0  0  0  0  0  0
   32.0290   32.5100   21.0080 O   0  0  0  0  0  0  0  0  0  0  0  0
   32.0380   33.4760   21.2200 H   0  0  0  0  0  0  0  0  0  0  0  0
   26.6770   33.1840   18.3600 O   0  0  0  0  0  0  0  0  0  0  0  0
   26.3390   32.2990   17.3010 C   0  0  0  0  0  0  0  0  0  0  0  0
   27.5800   31.9990   16.5420 C   0  0  0  0  0  0  0  0  0  0  0  0
   28.3740   32.9770   15.9430 C   0  0  0  0  0  0  0  0  0  0  0  0
   28.1850   30.8350   16.2720 N   0  0  0  0  0  0  0  0  0  0  0  0
   29.3990   32.3670   15.3540 N   0  0  0  0  0  0  0  0  0  0  0  0
   29.2740   31.0740   15.5600 N   0  0  0  0  0  0  0  0  0  0  0  0
   30.4580   33.0030   14.6180 C   0  0  0  0  0  0  0  0  0  0  0  0
   31.6500   33.1860   15.5400 C   0  0  0  0  0  0  0  0  0  0  0  0
   32.4530   34.3210   15.2200 N   0  0  0  0  0  0  0  0  0  0  0  0
   32.7160   35.2020   16.3080 C   0  0  0  0  0  0  0  0  0  0  0  0
   31.9450   34.6580   17.5200 C   0  0  0  0  0  0  0  0  0  0  0  0
   32.1210   34.9250   13.9740 C   0  0  0  0  0  0  0  0  0  0  0  0
   32.0640   36.4210   14.0120 C   0  0  0  0  0  0  0  0  0  0  0  0
   29.8670   25.5550   16.9770 C   0  0  0  0  0  0  0  0  0  0  0  0
   28.3450   25.7220   17.0260 C   0  0  0  0  0  0  0  0  0  0  0  0
   27.6000   24.4090   16.8390 C   0  0  0  0  0  0  0  0  0  0  0  0
   26.7880   24.0410   18.0500 C   0  0  0  0  0  0  0  0  0  0  0  0
   25.7970   25.1590   18.3570 C   0  0  0  0  0  0  0  0  0  0  0  0
   25.6950   25.3750   19.8190 N   0  0  0  0  0  0  0  0  0  0  0  0
  1  5  1  0  0  0  0
  2  1  1  0  0  0  0
  2  3  2  0  0  0  0
  4  1  1  0  0  0  0
  6  5  1  1  0  0  0
  6 29  1  0  0  0  0
  7 27  1  6  0  0  0
  7  6  1  0  0  0  0
  8  7  1  6  0  0  0
  8 11  1  0  0  0  0
  9 14  1  6  0  0  0
  9 11  1  0  0  0  0
  9 16  1  0  0  0  0
 10 12  1  0  0  0  0
 10  9  1  0  0  0  0
 12 20  1  6  0  0  0
 13 22  1  1  0  0  0
 13  8  1  0  0  0  0
 13 12  1  0  0  0  0
 14 15  1  0  0  0  0
 16 17  2  0  0  0  0
 16 18  1  0  0  0  0
 18 19  1  0  0  0  0
 20 21  1  0  0  0  0
 22 24  1  0  0  0  0
 23 25  1  0  0  0  0
 23 22  1  0  0  0  0
 26 23  2  0  0  0  0
 28 27  1  0  0  0  0
 29 30  1  0  0  0  0
 31  2  1  0  0  0  0
 32 31  1  0  0  0  0
 33 32  1  0  0  0  0
 34 33  2  0  0  0  0
 35 33  1  0  0  0  0
 36 37  1  0  0  0  0
 36 34  1  0  0  0  0
 37 35  2  0  0  0  0
 38 36  1  0  0  0  0
 38 39  1  0  0  0  0
 40 39  1  0  0  0  0
 40 41  1  0  0  0  0
 41 42  1  0  0  0  0
 43 44  1  0  0  0  0
 43 40  1  0  0  0  0
 45 46  1  0  0  0  0
 47 46  1  0  0  0  0
 47 48  1  0  0  0  0
 48 49  1  0  0  0  0
 49 50  1  0  0  0  0
M  END
>  <REMARK>
 VINA RESULT:    -4.036      0.000      0.000
 INTER + INTRA:         -15.087
 INTER:                  -8.117
 INTRA:                  -6.970
 UNBOUND:                -7.158
 SMILES CCN(CC)CCn1cc(COC(=O)NC[C@@H](O)C(O)[C@@H]2O[C@@](O)(C(=O)O)C[C@H](O)[C@H]2NC(C)=O)nn1
 SMILES IDX 15 1 13 2 14 3 16 5 17 6 19 7 21 8 23 9 28 10 22 11 29 12
 SMILES IDX 31 13 24 14 25 16 26 17 27 18 30 20 32 22 33 23 34 25 35 26
 SMILES IDX 20 27 18 29 12 31 11 32 10 33 9 34 36 35 8 36 37 37 7 38
 SMILES IDX 6 39 3 40 2 41 1 42 4 43 5 44
 H PARENT 15 4 24 15 27 19 30 21 32 24 20 28 18 30
 Flexibility Score: inf
  4 active torsions:
  status: ('A' for Active; 'I' for Inactive)
    1  A    between atoms: CA   and  CB  
    2  A    between atoms: CB   and  CG  
    3  A    between atoms: CG   and  CD  
    4  A    between atoms: CD   and  CE  

>  <TORSDO>
F 19

>  <BEGIN_>
RES LYS A 131

$$$$
ligand_17_pose_0_2HRL.pdbqt
 OpenBabel07062320523D

  6  5  0  0  0  0  0  0  0  0999 V2000
   33.1930   34.6630    9.2900 C   0  0  0  0  0  0  0  0  0  0  0  0
   32.0600   35.3600   10.0340 C   0  0  0  0  0  0  0  0  0  0  0  0
   30.7320   34.6600    9.9020 C   0  0  0  0  0  0  0  0  0  0  0  0
   30.3490   34.5080    8.4380 C   0  0  0  0  0  0  0  0  0  0  0  0
   28.8430   34.5650    8.2720 C   0  0  0  0  0  0  0  0  0  0  0  0
   28.1530   33.8710    9.3940 N   0  0  0  0  0  0  0  0  0  0  0  0
  1  2  1  0  0  0  0
  3  2  1  0  0  0  0
  4  3  1  0  0  0  0
  5  4  1  0  0  0  0
  5  6  1  0  0  0  0
M  END
>  <EGIN_R>
ES LYS A 135

>  <REMARK>
  4 active torsions:
  status: ('A' for Active; 'I' for Inactive)
    5  A    between atoms: CA   and  CB  
    6  A    between atoms: CB   and  CG  
    7  A    between atoms: CG   and  CD  
    8  A    between atoms: CD   and  CE  

$$$$
