ligand_41_pose_1_2HRL.pdbqt
 OpenBabel07062320523D

 52 53  0  0  1  0  0  0  0  0999 V2000
   29.2070   29.6820   19.1540 N   0  0  0  0  0  0  0  0  0  0  0  0
   27.8930   29.8540   19.7120 C   0  0  0  0  0  0  0  0  0  0  0  0
   27.6040   30.9490   20.2520 O   0  0  0  0  0  0  0  0  0  0  0  0
   29.4060   28.7640   18.7100 H   0  0  0  0  0  0  0  0  0  0  0  0
   30.1630   30.7470   19.2350 C   0  0  0  0  0  0  0  0  0  0  0  0
   30.3660   31.5560   17.9960 C   0  0  2  0  0  0  0  0  0  0  0  0
   29.5060   32.7810   17.9090 C   0  0  2  0  0  0  0  0  0  0  0  0
   29.9600   33.7940   16.8900 C   0  0  2  0  0  0  0  0  0  0  0  0
   29.6610   34.5130   14.7170 C   0  0  2  0  0  0  0  0  0  0  0  0
   31.1320   34.3980   14.3670 C   0  0  0  0  0  0  0  0  0  0  0  0
   29.3440   33.6440   15.6970 O   0  0  0  0  0  0  0  0  0  0  0  0
   31.8740   33.5400   15.3360 C   0  0  1  0  0  0  0  0  0  0  0  0
   31.4660   33.7400   16.7470 C   0  0  1  0  0  0  0  0  0  0  0  0
   28.9960   34.1230   13.5050 O   0  0  0  0  0  0  0  0  0  0  0  0
   28.9700   34.9200   12.8900 H   0  0  0  0  0  0  0  0  0  0  0  0
   29.3120   35.9260   14.9010 C   0  0  0  0  0  0  0  0  0  0  0  0
   28.1350   36.3520   14.9170 O   0  0  0  0  0  0  0  0  0  0  0  0
   30.3020   36.8970   15.0760 O   0  0  0  0  0  0  0  0  0  0  0  0
   31.2350   36.7500   14.7100 H   0  0  0  0  0  0  0  0  0  0  0  0
   31.6480   32.1970   14.9900 O   0  0  0  0  0  0  0  0  0  0  0  0
   32.2940   31.5820   15.4140 H   0  0  0  0  0  0  0  0  0  0  0  0
   32.1500   34.8400   17.3490 N   0  0  0  0  0  0  0  0  0  0  0  0
   32.4540   34.8980   18.7370 C   0  0  0  0  0  0  0  0  0  0  0  0
   32.4480   35.6390   16.7590 H   0  0  0  0  0  0  0  0  0  0  0  0
   33.1680   36.0670   19.3140 C   0  0  0  0  0  0  0  0  0  0  0  0
   32.1310   33.9660   19.5180 O   0  0  0  0  0  0  0  0  0  0  0  0
   29.1250   33.2950   19.1210 O   0  0  0  0  0  0  0  0  0  0  0  0
   29.6910   34.1060   19.2880 H   0  0  0  0  0  0  0  0  0  0  0  0
   29.9100   30.7020   16.9090 O   0  0  0  0  0  0  0  0  0  0  0  0
   28.9750   30.4900   17.1720 H   0  0  0  0  0  0  0  0  0  0  0  0
   26.9340   28.8700   19.6850 O   0  0  0  0  0  0  0  0  0  0  0  0
   26.7490   28.0330   18.5460 C   0  0  0  0  0  0  0  0  0  0  0  0
   26.5600   28.8320   17.3100 C   0  0  0  0  0  0  0  0  0  0  0  0
   25.3880   29.2700   16.7530 C   0  0  0  0  0  0  0  0  0  0  0  0
   27.5450   29.2850   16.4860 N   0  0  0  0  0  0  0  0  0  0  0  0
   25.6970   29.9710   15.6120 N   0  0  0  0  0  0  0  0  0  0  0  0
   27.0100   29.9510   15.4960 N   0  0  0  0  0  0  0  0  0  0  0  0
   24.8100   30.5710   14.6830 C   0  0  0  0  0  0  0  0  0  0  0  0
   24.7200   31.8980   14.4400 C   0  0  0  0  0  0  0  0  0  0  0  0
   23.9960   29.6510   13.9860 C   0  0  0  0  0  0  0  0  0  0  0  0
   23.8060   32.3480   13.4830 C   0  0  0  0  0  0  0  0  0  0  0  0
   23.1030   30.1070   13.0480 C   0  0  0  0  0  0  0  0  0  0  0  0
   23.0250   31.4540   12.8140 C   0  0  0  0  0  0  0  0  0  0  0  0
   25.5090   32.9040   15.1160 C   0  0  2  0  0  0  0  0  0  0  0  0
   26.3030   33.6090   14.3700 O   0  0  0  0  0  0  0  0  0  0  0  0
   25.5250   33.2270   16.5420 C   0  0  0  0  0  0  0  0  0  0  0  0
   29.8670   25.5550   16.9770 C   0  0  0  0  0  0  0  0  0  0  0  0
   28.3450   25.7220   17.0260 C   0  0  0  0  0  0  0  0  0  0  0  0
   27.5990   24.4180   16.7850 C   0  0  0  0  0  0  0  0  0  0  0  0
   26.9720   23.8840   18.0420 C   0  0  0  0  0  0  0  0  0  0  0  0
   25.5370   24.3910   18.1500 C   0  0  0  0  0  0  0  0  0  0  0  0
   24.9080   24.4580   16.8100 N   0  0  0  0  0  0  0  0  0  0  0  0
  1  5  1  0  0  0  0
  1  2  1  0  0  0  0
  2  3  2  0  0  0  0
  4  1  1  0  0  0  0
  6  5  1  1  0  0  0
  7  6  1  0  0  0  0
  7 27  1  1  0  0  0
  8  7  1  1  0  0  0
  9 14  1  6  0  0  0
  9 16  1  0  0  0  0
  9 11  1  0  0  0  0
 10  9  1  0  0  0  0
 10 12  1  0  0  0  0
 11  8  1  0  0  0  0
 12 20  1  6  0  0  0
 12 13  1  0  0  0  0
 13  8  1  0  0  0  0
 13 22  1  6  0  0  0
 15 14  1  0  0  0  0
 16 17  2  0  0  0  0
 16 18  1  0  0  0  0
 19 18  1  0  0  0  0
 20 21  1  0  0  0  0
 22 23  1  0  0  0  0
 23 25  1  0  0  0  0
 23 26  2  0  0  0  0
 24 22  1  0  0  0  0
 27 28  1  0  0  0  0
 29 30  1  0  0  0  0
 29  6  1  0  0  0  0
 31  2  1  0  0  0  0
 32 31  1  0  0  0  0
 33 32  1  0  0  0  0
 34 33  2  0  0  0  0
 35 33  1  0  0  0  0
 36 34  1  0  0  0  0
 37 36  1  0  0  0  0
 37 35  2  0  0  0  0
 38 36  1  0  0  0  0
 39 38  1  0  0  0  0
 39 44  1  0  0  0  0
 40 38  2  0  0  0  0
 41 39  2  0  0  0  0
 42 40  1  0  0  0  0
 43 42  2  0  0  0  0
 43 41  1  0  0  0  0
 44 46  1  1  0  0  0
 45 44  1  0  0  0  0
 47 48  1  0  0  0  0
 49 48  1  0  0  0  0
 49 50  1  0  0  0  0
 50 51  1  0  0  0  0
 52 51  1  0  0  0  0
M  END
>  <REMARK>
 VINA RESULT:    -4.693      1.980      3.362
 INTER + INTRA:         -15.200
 INTER:                  -8.888
 INTRA:                  -6.313
 UNBOUND:                -6.804
 SMILES CC(=O)N[C@@H]1[C@@H](O)C[C@](O)(C(=O)O)O[C@H]1C(O)[C@H](O)CNC(=O)OCc1cn(-c2ccccc2C(C)=O)nn1
 SMILES IDX 21 1 22 2 23 3 20 5 18 6 16 7 15 8 9 9 8 10 14 11 6 12 5 13
 SMILES IDX 10 14 11 16 12 17 13 18 7 20 4 22 2 23 1 25 3 26 17 27 19 29
 SMILES IDX 24 31 25 32 26 33 27 34 39 35 28 36 38 37 29 38 34 39 30 40
 SMILES IDX 33 41 31 42 32 43 35 44 37 45 36 46
 H PARENT 21 4 10 15 13 19 7 21 4 24 17 28 19 30
 Flexibility Score: inf
  4 active torsions:
  status: ('A' for Active; 'I' for Inactive)
    1  A    between atoms: CA   and  CB  
    2  A    between atoms: CB   and  CG  
    3  A    between atoms: CG   and  CD  
    4  A    between atoms: CD   and  CE  

>  <TORSDO>
F 16

>  <BEGIN_>
RES LYS A 131

$$$$
ligand_41_pose_1_2HRL.pdbqt
 OpenBabel07062320523D

  6  5  0  0  0  0  0  0  0  0999 V2000
   33.1930   34.6630    9.2900 C   0  0  0  0  0  0  0  0  0  0  0  0
   32.0600   35.3600   10.0340 C   0  0  0  0  0  0  0  0  0  0  0  0
   30.7720   35.4180    9.2530 C   0  0  0  0  0  0  0  0  0  0  0  0
   29.5890   35.0730   10.1440 C   0  0  0  0  0  0  0  0  0  0  0  0
   28.6990   34.0450    9.4720 C   0  0  0  0  0  0  0  0  0  0  0  0
   27.3710   33.9660   10.1410 N   0  0  0  0  0  0  0  0  0  0  0  0
  1  2  1  0  0  0  0
  3  2  1  0  0  0  0
  3  4  1  0  0  0  0
  5  6  1  0  0  0  0
  5  4  1  0  0  0  0
M  END
>  <EGIN_R>
ES LYS A 135

>  <REMARK>
  4 active torsions:
  status: ('A' for Active; 'I' for Inactive)
    5  A    between atoms: CA   and  CB  
    6  A    between atoms: CB   and  CG  
    7  A    between atoms: CG   and  CD  
    8  A    between atoms: CD   and  CE  

$$$$
