ligand_37_pose_7_2HRL.pdbqt
 OpenBabel07062320523D

 55 56  0  0  1  0  0  0  0  0999 V2000
   28.9450   40.0680    7.4500 O   0  0  0  0  0  0  0  0  0  0  0  0
   27.6680   39.9130    6.8610 C   0  0  0  0  0  0  0  0  0  0  0  0
   26.5270   40.4770    7.4710 N   0  0  0  0  0  0  0  0  0  0  0  0
   26.7080   40.9950    8.3880 H   0  0  0  0  0  0  0  0  0  0  0  0
   27.6410   39.2630    5.8000 O   0  0  0  0  0  0  0  0  0  0  0  0
   25.2110   40.3770    6.9260 C   0  0  0  0  0  0  0  0  0  0  0  0
   24.4740   39.1870    7.4430 C   0  0  2  0  0  0  0  0  0  0  0  0
   24.2680   39.3150    8.9500 C   0  0  2  0  0  0  0  0  0  0  0  0
   22.9260   38.8390    9.4120 C   0  0  2  0  0  0  0  0  0  0  0  0
   23.4820   36.6030    9.8320 C   0  0  2  0  0  0  0  0  0  0  0  0
   22.8340   36.2260    8.5380 C   0  0  0  0  0  0  0  0  0  0  0  0
   23.0550   37.8010   10.3500 O   0  0  0  0  0  0  0  0  0  0  0  0
   21.5520   37.0180    8.3810 C   0  0  1  0  0  0  0  0  0  0  0  0
   21.9530   38.4850    8.3360 C   0  0  1  0  0  0  0  0  0  0  0  0
   24.8520   36.5660    9.7100 O   0  0  0  0  0  0  0  0  0  0  0  0
   25.1650   35.9120    9.0260 H   0  0  0  0  0  0  0  0  0  0  0  0
   23.1040   35.5640   10.8580 C   0  0  0  0  0  0  0  0  0  0  0  0
   21.9830   34.9950   10.8130 O   0  0  0  0  0  0  0  0  0  0  0  0
   23.9640   35.1950   11.8820 O   0  0  0  0  0  0  0  0  0  0  0  0
   24.9610   34.9950   11.7080 H   0  0  0  0  0  0  0  0  0  0  0  0
   20.8720   36.6320    7.2440 O   0  0  0  0  0  0  0  0  0  0  0  0
   21.4650   36.2620    6.5420 H   0  0  0  0  0  0  0  0  0  0  0  0
   20.7430   39.3120    8.3670 N   0  0  0  0  0  0  0  0  0  0  0  0
   20.7430   40.6880    7.9930 C   0  0  0  0  0  0  0  0  0  0  0  0
   19.8190   38.9070    8.6730 H   0  0  0  0  0  0  0  0  0  0  0  0
   19.4760   41.4810    8.0470 C   0  0  0  0  0  0  0  0  0  0  0  0
   21.8100   41.2280    7.6200 O   0  0  0  0  0  0  0  0  0  0  0  0
   24.4050   40.6620    9.3090 O   0  0  0  0  0  0  0  0  0  0  0  0
   24.4270   40.7310   10.3020 H   0  0  0  0  0  0  0  0  0  0  0  0
   25.1990   38.0280    7.1690 O   0  0  0  0  0  0  0  0  0  0  0  0
   26.1270   38.0630    7.5450 H   0  0  0  0  0  0  0  0  0  0  0  0
   29.5970   38.9240    7.9610 C   0  0  0  0  0  0  0  0  0  0  0  0
   28.8780   38.3420    9.1100 C   0  0  0  0  0  0  0  0  0  0  0  0
   29.3830   37.6550   10.1890 C   0  0  0  0  0  0  0  0  0  0  0  0
   27.5490   38.3900    9.3040 N   0  0  0  0  0  0  0  0  0  0  0  0
   28.3620   37.3030   11.0050 N   0  0  0  0  0  0  0  0  0  0  0  0
   27.2730   37.7580   10.4490 N   0  0  0  0  0  0  0  0  0  0  0  0
   28.4860   36.5730   12.2380 C   0  0  1  0  0  0  0  0  0  0  0  0
   28.0110   37.4210   13.3970 C   0  0  0  0  0  0  0  0  0  0  0  0
   27.7590   35.3010   12.1280 C   0  0  0  0  0  0  0  0  0  0  0  0
   26.7780   35.0740   12.8970 O   0  0  0  0  0  0  0  0  0  0  0  0
   28.0980   34.3260   11.2130 O   0  0  0  0  0  0  0  0  0  0  0  0
   27.3480   33.9220   10.1110 C   0  0  0  0  0  0  0  0  0  0  0  0
   27.9670   34.4690    8.8720 C   0  0  0  0  0  0  0  0  0  0  0  0
   29.3300   34.3940    8.6830 C   0  0  0  0  0  0  0  0  0  0  0  0
   27.1820   35.0460    7.9110 C   0  0  0  0  0  0  0  0  0  0  0  0
   29.9040   34.8940    7.5400 C   0  0  0  0  0  0  0  0  0  0  0  0
   27.7270   35.5520    6.7640 C   0  0  0  0  0  0  0  0  0  0  0  0
   29.0870   35.4760    6.5810 C   0  0  0  0  0  0  0  0  0  0  0  0
   29.8670   25.5550   16.9770 C   0  0  0  0  0  0  0  0  0  0  0  0
   28.3450   25.7220   17.0260 C   0  0  0  0  0  0  0  0  0  0  0  0
   27.6020   24.4000   16.9110 C   0  0  0  0  0  0  0  0  0  0  0  0
   26.5310   24.2590   17.9580 C   0  0  0  0  0  0  0  0  0  0  0  0
   25.1590   24.3540   17.2980 C   0  0  0  0  0  0  0  0  0  0  0  0
   24.5100   25.6430   17.6340 N   0  0  0  0  0  0  0  0  0  0  0  0
  1 32  1  0  0  0  0
  2  1  1  0  0  0  0
  2  3  1  0  0  0  0
  3  4  1  0  0  0  0
  5  2  2  0  0  0  0
  6  3  1  0  0  0  0
  7  6  1  1  0  0  0
  7  8  1  0  0  0  0
  8 28  1  6  0  0  0
  9  8  1  6  0  0  0
  9 12  1  0  0  0  0
 10 15  1  6  0  0  0
 10 12  1  0  0  0  0
 10 17  1  0  0  0  0
 11 10  1  0  0  0  0
 13 21  1  6  0  0  0
 13 11  1  0  0  0  0
 14 23  1  1  0  0  0
 14 13  1  0  0  0  0
 14  9  1  0  0  0  0
 16 15  1  0  0  0  0
 17 19  1  0  0  0  0
 18 17  2  0  0  0  0
 20 19  1  0  0  0  0
 22 21  1  0  0  0  0
 23 25  1  0  0  0  0
 24 26  1  0  0  0  0
 24 23  1  0  0  0  0
 27 24  2  0  0  0  0
 28 29  1  0  0  0  0
 30  7  1  0  0  0  0
 30 31  1  0  0  0  0
 32 33  1  0  0  0  0
 33 35  1  0  0  0  0
 33 34  2  0  0  0  0
 34 36  1  0  0  0  0
 35 37  2  0  0  0  0
 36 38  1  0  0  0  0
 37 36  1  0  0  0  0
 38 39  1  1  0  0  0
 40 38  1  0  0  0  0
 40 41  2  0  0  0  0
 42 40  1  0  0  0  0
 43 42  1  0  0  0  0
 44 43  1  0  0  0  0
 45 44  1  0  0  0  0
 46 44  2  0  0  0  0
 47 45  2  0  0  0  0
 48 46  1  0  0  0  0
 49 48  2  0  0  0  0
 49 47  1  0  0  0  0
 50 51  1  0  0  0  0
 52 51  1  0  0  0  0
 52 53  1  0  0  0  0
 54 55  1  0  0  0  0
 54 53  1  0  0  0  0
M  END
>  <REMARK>
 VINA RESULT:    -5.681      2.130      4.132
 INTER + INTRA:         -16.271
 INTER:                 -10.047
 INTRA:                  -6.225
 UNBOUND:                -5.110
 SMILES CC(=O)N[C@@H]1[C@@H](O)C[C@](O)(C(=O)O)O[C@H]1C(O)[C@H](O)CNC(=O)OCc1cn([C@@H](C)C(=O)OCc2ccccc2)nn1
 SMILES IDX 24 1 22 2 21 3 23 5 20 6 18 7 16 8 15 9 9 10 8 11 14 12 6 13
 SMILES IDX 5 14 10 15 11 17 12 18 13 19 7 21 4 23 2 24 1 26 3 27 17 28
 SMILES IDX 19 30 25 32 26 33 27 34 42 35 28 36 41 37 29 38 30 39 31 40
 SMILES IDX 32 41 33 42 34 43 35 44 36 45 40 46 37 47 39 48 38 49
 H PARENT 21 4 10 16 13 20 7 22 4 25 17 29 19 31
 Flexibility Score: inf
  4 active torsions:
  status: ('A' for Active; 'I' for Inactive)
    1  A    between atoms: CA   and  CB  
    2  A    between atoms: CB   and  CG  
    3  A    between atoms: CG   and  CD  
    4  A    between atoms: CD   and  CE  

>  <TORSDO>
F 19

>  <BEGIN_>
RES LYS A 131

$$$$
ligand_37_pose_7_2HRL.pdbqt
 OpenBabel07062320523D

  6  5  0  0  0  0  0  0  0  0999 V2000
   33.1930   34.6630    9.2900 C   0  0  0  0  0  0  0  0  0  0  0  0
   32.0600   35.3600   10.0340 C   0  0  0  0  0  0  0  0  0  0  0  0
   32.5140   36.1000   11.2660 C   0  0  0  0  0  0  0  0  0  0  0  0
   31.9300   35.4660   12.5190 C   0  0  0  0  0  0  0  0  0  0  0  0
   33.0130   35.2400   13.5560 C   0  0  0  0  0  0  0  0  0  0  0  0
   32.4890   34.4760   14.7220 N   0  0  0  0  0  0  0  0  0  0  0  0
  1  2  1  0  0  0  0
  2  3  1  0  0  0  0
  3  4  1  0  0  0  0
  4  5  1  0  0  0  0
  5  6  1  0  0  0  0
M  END
>  <EGIN_R>
ES LYS A 135

>  <REMARK>
  4 active torsions:
  status: ('A' for Active; 'I' for Inactive)
    5  A    between atoms: CA   and  CB  
    6  A    between atoms: CB   and  CG  
    7  A    between atoms: CG   and  CD  
    8  A    between atoms: CD   and  CE  

$$$$
