ligand_8_pose_2_2HRL.pdbqt
 OpenBabel07062320523D

 50 51  0  0  1  0  0  0  0  0999 V2000
   25.8370   28.5570   20.6640 C   0  0  0  0  0  0  0  0  0  0  0  0
   26.8940   27.5660   21.0760 C   0  0  2  0  0  0  0  0  0  0  0  0
   28.2100   28.0450   20.5450 C   0  0  1  0  0  0  0  0  0  0  0  0
   29.3590   28.0220   21.5250 C   0  0  2  0  0  0  0  0  0  0  0  0
   30.9520   29.6150   20.8770 C   0  0  2  0  0  0  0  0  0  0  0  0
   32.0660   28.8230   21.5610 C   0  0  0  0  0  0  0  0  0  0  0  0
   29.8250   29.3300   21.5710 O   0  0  0  0  0  0  0  0  0  0  0  0
   31.8010   27.3850   21.2190 C   0  0  1  0  0  0  0  0  0  0  0  0
   30.3580   26.9670   21.3260 C   0  0  1  0  0  0  0  0  0  0  0  0
   30.9760   29.2720   19.5490 O   0  0  0  0  0  0  0  0  0  0  0  0
   31.5710   28.4880   19.4510 H   0  0  0  0  0  0  0  0  0  0  0  0
   31.2520   31.0690   20.9930 C   0  0  0  0  0  0  0  0  0  0  0  0
   32.3420   31.4280   21.5030 O   0  0  0  0  0  0  0  0  0  0  0  0
   30.3540   32.0350   20.5510 O   0  0  0  0  0  0  0  0  0  0  0  0
   30.6430   32.9510   20.2170 H   0  0  0  0  0  0  0  0  0  0  0  0
   32.2440   27.2030   19.9080 O   0  0  0  0  0  0  0  0  0  0  0  0
   31.5650   27.4620   19.2600 H   0  0  0  0  0  0  0  0  0  0  0  0
   30.2410   26.0030   22.4400 N   0  0  0  0  0  0  0  0  0  0  0  0
   30.2050   26.4330   23.7850 C   0  0  0  0  0  0  0  0  0  0  0  0
   30.1800   24.9630   22.2410 H   0  0  0  0  0  0  0  0  0  0  0  0
   30.0950   25.4580   24.9230 C   0  0  0  0  0  0  0  0  0  0  0  0
   30.2690   27.6670   24.0140 O   0  0  0  0  0  0  0  0  0  0  0  0
   28.4740   27.4850   19.3220 O   0  0  0  0  0  0  0  0  0  0  0  0
   28.1740   28.0640   18.5570 H   0  0  0  0  0  0  0  0  0  0  0  0
   26.5920   26.3200   20.5880 O   0  0  0  0  0  0  0  0  0  0  0  0
   25.6220   26.1030   20.6570 H   0  0  0  0  0  0  0  0  0  0  0  0
   26.0420   29.2390   19.4310 N   0  0  0  0  0  0  0  0  0  0  0  0
   25.6690   28.7290   18.1680 C   0  0  0  0  0  0  0  0  0  0  0  0
   26.5070   30.2060   19.4210 H   0  0  0  0  0  0  0  0  0  0  0  0
   25.1280   27.6100   18.0070 O   0  0  0  0  0  0  0  0  0  0  0  0
   25.9160   29.5130   17.0310 O   0  0  0  0  0  0  0  0  0  0  0  0
   27.1160   29.2780   16.3300 C   0  0  0  0  0  0  0  0  0  0  0  0
   28.1200   30.2660   16.7970 C   0  0  0  0  0  0  0  0  0  0  0  0
   28.7000   31.2500   15.9860 C   0  0  0  0  0  0  0  0  0  0  0  0
   28.6860   30.4610   17.9940 N   0  0  0  0  0  0  0  0  0  0  0  0
   29.5710   31.9800   16.7040 N   0  0  0  0  0  0  0  0  0  0  0  0
   29.5420   31.4750   17.9260 N   0  0  0  0  0  0  0  0  0  0  0  0
   30.3550   33.0720   16.2240 C   0  0  0  0  0  0  0  0  0  0  0  0
   31.5720   32.8750   15.6100 C   0  0  0  0  0  0  0  0  0  0  0  0
   29.9190   34.3730   16.3580 C   0  0  0  0  0  0  0  0  0  0  0  0
   32.3260   33.9550   15.1460 C   0  0  0  0  0  0  0  0  0  0  0  0
   30.6650   35.4480   15.8990 C   0  0  0  0  0  0  0  0  0  0  0  0
   28.2250   34.6580   17.2130 Br  0  0  0  0  0  0  0  0  0  0  0  0
   31.8830   35.2540   15.2830 C   0  0  0  0  0  0  0  0  0  0  0  0
   29.8670   25.5550   16.9770 C   0  0  0  0  0  0  0  0  0  0  0  0
   28.3450   25.7220   17.0260 C   0  0  0  0  0  0  0  0  0  0  0  0
   27.5990   24.4310   16.7240 C   0  0  0  0  0  0  0  0  0  0  0  0
   26.9730   23.8370   17.9550 C   0  0  0  0  0  0  0  0  0  0  0  0
   25.5790   23.3200   17.6190 C   0  0  0  0  0  0  0  0  0  0  0  0
   24.8100   24.3460   16.8750 N   0  0  0  0  0  0  0  0  0  0  0  0
  2  1  1  6  0  0  0
  3 23  1  6  0  0  0
  3  2  1  0  0  0  0
  4  3  1  6  0  0  0
  4  7  1  0  0  0  0
  5 10  1  6  0  0  0
  5 12  1  0  0  0  0
  5  6  1  0  0  0  0
  5  7  1  0  0  0  0
  8 16  1  6  0  0  0
  8  9  1  0  0  0  0
  8  6  1  0  0  0  0
  9  4  1  0  0  0  0
  9 18  1  1  0  0  0
 11 10  1  0  0  0  0
 12 13  2  0  0  0  0
 14 12  1  0  0  0  0
 15 14  1  0  0  0  0
 17 16  1  0  0  0  0
 18 19  1  0  0  0  0
 19 22  2  0  0  0  0
 19 21  1  0  0  0  0
 20 18  1  0  0  0  0
 24 23  1  0  0  0  0
 25 26  1  0  0  0  0
 25  2  1  0  0  0  0
 27  1  1  0  0  0  0
 28 27  1  0  0  0  0
 29 27  1  0  0  0  0
 30 28  2  0  0  0  0
 31 28  1  0  0  0  0
 32 33  1  0  0  0  0
 32 31  1  0  0  0  0
 33 35  1  0  0  0  0
 34 36  1  0  0  0  0
 34 33  2  0  0  0  0
 36 37  1  0  0  0  0
 37 35  2  0  0  0  0
 38 40  1  0  0  0  0
 38 36  1  0  0  0  0
 39 38  2  0  0  0  0
 40 43  1  0  0  0  0
 41 44  2  0  0  0  0
 41 39  1  0  0  0  0
 42 40  2  0  0  0  0
 44 42  1  0  0  0  0
 45 46  1  0  0  0  0
 47 46  1  0  0  0  0
 47 48  1  0  0  0  0
 49 48  1  0  0  0  0
 50 49  1  0  0  0  0
M  END
>  <REMARK>
 VINA RESULT:    -5.844      1.705      1.912
 INTER + INTRA:         -14.510
 INTER:                  -8.898
 INTRA:                  -5.613
 UNBOUND:                -4.396
 SMILES CC(=O)N[C@@H]1[C@@H](O)C[C@](O)(C(=O)O)O[C@H]1C(O)[C@H](O)CNC(=O)OCc1cn(-c2ccccc2Br)nn1
 SMILES IDX 20 1 18 2 16 3 15 4 9 5 8 6 14 7 6 8 5 9 10 10 11 12 12 13
 SMILES IDX 13 14 7 16 4 18 2 19 1 21 3 22 17 23 19 25 21 27 22 28 23 30
 SMILES IDX 24 31 25 32 26 33 27 34 37 35 28 36 36 37 29 38 30 39 34 40
 SMILES IDX 31 41 33 42 35 43 32 44
 H PARENT 10 11 13 15 7 17 4 20 17 24 19 26 21 29
 Flexibility Score: inf
  4 active torsions:
  status: ('A' for Active; 'I' for Inactive)
    1  A    between atoms: CA   and  CB  
    2  A    between atoms: CB   and  CG  
    3  A    between atoms: CG   and  CD  
    4  A    between atoms: CD   and  CE  

>  <TORSDO>
F 15

>  <BEGIN_>
RES LYS A 131

$$$$
ligand_8_pose_2_2HRL.pdbqt
 OpenBabel07062320523D

  6  5  0  0  0  0  0  0  0  0999 V2000
   33.1930   34.6630    9.2900 C   0  0  0  0  0  0  0  0  0  0  0  0
   32.0600   35.3600   10.0340 C   0  0  0  0  0  0  0  0  0  0  0  0
   30.9260   35.7890    9.1390 C   0  0  0  0  0  0  0  0  0  0  0  0
   30.3590   34.5980    8.3820 C   0  0  0  0  0  0  0  0  0  0  0  0
   28.9090   34.8430    8.0110 C   0  0  0  0  0  0  0  0  0  0  0  0
   28.7930   35.3850    6.6290 N   0  0  0  0  0  0  0  0  0  0  0  0
  1  2  1  0  0  0  0
  3  2  1  0  0  0  0
  4  3  1  0  0  0  0
  5  4  1  0  0  0  0
  6  5  1  0  0  0  0
M  END
>  <EGIN_R>
ES LYS A 135

>  <REMARK>
  4 active torsions:
  status: ('A' for Active; 'I' for Inactive)
    5  A    between atoms: CA   and  CB  
    6  A    between atoms: CB   and  CG  
    7  A    between atoms: CG   and  CD  
    8  A    between atoms: CD   and  CE  

$$$$
