ligand_91_pose_18_2HRL.pdbqt
 OpenBabel07062320523D

 57 60  0  0  1  0  0  0  0  0999 V2000
   24.9190   41.1500    8.8940 C   0  0  0  0  0  0  0  0  0  0  0  0
   24.9360   40.0610    7.8560 C   0  0  2  0  0  0  0  0  0  0  0  0
   26.1800   40.2480    7.0450 C   0  0  2  0  0  0  0  0  0  0  0  0
   27.2850   39.2540    7.3730 C   0  0  2  0  0  0  0  0  0  0  0  0
   29.3400   38.6640    6.6220 C   0  0  2  0  0  0  0  0  0  0  0  0
   29.0540   37.1910    6.4940 C   0  0  0  0  0  0  0  0  0  0  0  0
   28.2430   39.4360    6.4140 O   0  0  0  0  0  0  0  0  0  0  0  0
   27.5910   36.8700    6.5880 C   0  0  1  0  0  0  0  0  0  0  0  0
   26.8000   37.8520    7.3860 C   0  0  1  0  0  0  0  0  0  0  0  0
   30.2480   39.0260    5.5720 O   0  0  0  0  0  0  0  0  0  0  0  0
   29.7360   39.3800    4.8050 H   0  0  0  0  0  0  0  0  0  0  0  0
   30.1030   38.9370    7.8640 C   0  0  0  0  0  0  0  0  0  0  0  0
   30.6360   40.0560    8.0880 O   0  0  0  0  0  0  0  0  0  0  0  0
   30.2800   37.9700    8.8670 O   0  0  0  0  0  0  0  0  0  0  0  0
   30.6110   38.2590    9.7760 H   0  0  0  0  0  0  0  0  0  0  0  0
   27.0790   36.7440    5.2930 O   0  0  0  0  0  0  0  0  0  0  0  0
   27.6870   36.2200    4.7150 H   0  0  0  0  0  0  0  0  0  0  0  0
   26.6000   37.3070    8.7340 N   0  0  0  0  0  0  0  0  0  0  0  0
   25.3800   36.7000    9.1410 C   0  0  0  0  0  0  0  0  0  0  0  0
   27.3520   37.3440    9.4560 H   0  0  0  0  0  0  0  0  0  0  0  0
   25.1960   36.1470   10.5180 C   0  0  0  0  0  0  0  0  0  0  0  0
   24.4190   36.6160    8.3330 O   0  0  0  0  0  0  0  0  0  0  0  0
   26.6760   41.5250    7.2590 O   0  0  0  0  0  0  0  0  0  0  0  0
   27.6560   41.4530    7.3600 H   0  0  0  0  0  0  0  0  0  0  0  0
   23.7830   40.0960    7.1070 O   0  0  0  0  0  0  0  0  0  0  0  0
   23.4610   39.1510    7.0000 H   0  0  0  0  0  0  0  0  0  0  0  0
   25.4240   40.8080   10.1790 N   0  0  0  0  0  0  0  0  0  0  0  0
   26.7180   41.1170   10.6450 C   0  0  0  0  0  0  0  0  0  0  0  0
   24.8170   40.2690   10.8950 H   0  0  0  0  0  0  0  0  0  0  0  0
   27.5440   41.7250    9.9340 O   0  0  0  0  0  0  0  0  0  0  0  0
   27.1490   40.7610   11.9330 O   0  0  0  0  0  0  0  0  0  0  0  0
   28.5200   40.4460   12.1750 C   0  0  0  0  0  0  0  0  0  0  0  0
   28.6530   38.9700   12.1440 C   0  0  0  0  0  0  0  0  0  0  0  0
   28.9860   38.1510   13.2030 C   0  0  0  0  0  0  0  0  0  0  0  0
   28.4840   38.1180   11.1030 N   0  0  0  0  0  0  0  0  0  0  0  0
   29.0100   36.8700   12.8000 N   0  0  0  0  0  0  0  0  0  0  0  0
   28.7030   36.8710   11.5210 N   0  0  0  0  0  0  0  0  0  0  0  0
   29.3030   35.7280   13.5770 C   0  0  0  0  0  0  0  0  0  0  0  0
   28.2700   34.9210   14.0620 C   0  0  0  0  0  0  0  0  0  0  0  0
   30.6030   35.3620   13.8820 C   0  0  0  0  0  0  0  0  0  0  0  0
   26.9540   35.2320   13.7920 C   0  0  0  0  0  0  0  0  0  0  0  0
   28.5210   33.8120   14.8070 C   0  0  0  0  0  0  0  0  0  0  0  0
   30.8350   34.2340   14.6400 C   0  0  0  0  0  0  0  0  0  0  0  0
   31.6160   36.1560   13.4080 C   0  0  0  0  0  0  0  0  0  0  0  0
   25.9000   34.4700   14.2470 C   0  0  0  0  0  0  0  0  0  0  0  0
   27.4670   33.0320   15.2730 C   0  0  0  0  0  0  0  0  0  0  0  0
   29.7990   33.4890   15.0830 N   0  0  0  0  0  0  0  0  0  0  0  0
   32.1410   33.9100   14.9190 C   0  0  0  0  0  0  0  0  0  0  0  0
   32.9320   35.8000   13.7100 C   0  0  0  0  0  0  0  0  0  0  0  0
   26.1470   33.3260   15.0150 C   0  0  0  0  0  0  0  0  0  0  0  0
   33.2090   34.6810   14.4640 C   0  0  0  0  0  0  0  0  0  0  0  0
   29.8670   25.5550   16.9770 C   0  0  0  0  0  0  0  0  0  0  0  0
   28.3450   25.7220   17.0260 C   0  0  0  0  0  0  0  0  0  0  0  0
   27.6020   24.3990   16.9210 C   0  0  0  0  0  0  0  0  0  0  0  0
   26.1410   24.5430   17.2470 C   0  0  0  0  0  0  0  0  0  0  0  0
   25.5980   23.2090   17.7500 C   0  0  0  0  0  0  0  0  0  0  0  0
   25.5680   23.1870   19.2310 N   0  0  0  0  0  0  0  0  0  0  0  0
  1 27  1  0  0  0  0
  2  1  1  1  0  0  0
  3 23  1  1  0  0  0
  3  2  1  0  0  0  0
  4  3  1  6  0  0  0
  4  9  1  0  0  0  0
  5 10  1  6  0  0  0
  5 12  1  0  0  0  0
  6  8  1  0  0  0  0
  6  5  1  0  0  0  0
  7  5  1  0  0  0  0
  7  4  1  0  0  0  0
  8 16  1  6  0  0  0
  8  9  1  0  0  0  0
  9 18  1  1  0  0  0
 11 10  1  0  0  0  0
 12 13  2  0  0  0  0
 12 14  1  0  0  0  0
 14 15  1  0  0  0  0
 17 16  1  0  0  0  0
 18 19  1  0  0  0  0
 18 20  1  0  0  0  0
 19 21  1  0  0  0  0
 22 19  2  0  0  0  0
 23 24  1  0  0  0  0
 25  2  1  0  0  0  0
 26 25  1  0  0  0  0
 27 28  1  0  0  0  0
 27 29  1  0  0  0  0
 28 31  1  0  0  0  0
 30 28  2  0  0  0  0
 31 32  1  0  0  0  0
 33 32  1  0  0  0  0
 33 34  2  0  0  0  0
 35 37  2  0  0  0  0
 35 33  1  0  0  0  0
 36 34  1  0  0  0  0
 36 38  1  0  0  0  0
 37 36  1  0  0  0  0
 38 40  2  0  0  0  0
 38 39  1  0  0  0  0
 39 42  1  0  0  0  0
 40 43  1  0  0  0  0
 41 39  2  0  0  0  0
 41 45  1  0  0  0  0
 42 47  1  0  0  0  0
 42 46  2  0  0  0  0
 43 48  1  0  0  0  0
 43 47  2  0  0  0  0
 44 49  2  0  0  0  0
 44 40  1  0  0  0  0
 45 50  2  0  0  0  0
 49 51  1  0  0  0  0
 50 46  1  0  0  0  0
 51 48  2  0  0  0  0
 52 53  1  0  0  0  0
 54 53  1  0  0  0  0
 54 55  1  0  0  0  0
 55 56  1  0  0  0  0
 56 57  1  0  0  0  0
M  END
>  <REMARK>
 VINA RESULT:    -5.081      2.063      3.877
 INTER + INTRA:         -14.877
 INTER:                  -8.456
 INTRA:                  -6.422
 UNBOUND:                -6.084
 SMILES CC(=O)N[C@@H]1[C@@H](O)C[C@](O)(C(=O)O)O[C@H]1C(O)[C@H](O)CNC(=O)OCc1cn(-c2c3ccccc3nc3ccccc23)nn1
 SMILES IDX 20 1 18 2 16 3 15 4 9 5 8 6 14 7 6 8 5 9 10 10 11 12 12 13
 SMILES IDX 13 14 7 16 4 18 2 19 1 21 3 22 17 23 19 25 21 27 22 28 23 30
 SMILES IDX 24 31 25 32 26 33 27 34 44 35 28 36 43 37 29 38 30 39 42 40
 SMILES IDX 31 41 35 42 37 43 41 44 32 45 34 46 36 47 38 48 40 49 33 50
 SMILES IDX 39 51
 H PARENT 10 11 13 15 7 17 4 20 17 24 19 26 21 29
 Flexibility Score: inf
  4 active torsions:
  status: ('A' for Active; 'I' for Inactive)
    1  A    between atoms: CA   and  CB  
    2  A    between atoms: CB   and  CG  
    3  A    between atoms: CG   and  CD  
    4  A    between atoms: CD   and  CE  

>  <TORSDO>
F 15

>  <BEGIN_>
RES LYS A 131

$$$$
ligand_91_pose_18_2HRL.pdbqt
 OpenBabel07062320523D

  6  5  0  0  0  0  0  0  0  0999 V2000
   33.1930   34.6630    9.2900 C   0  0  0  0  0  0  0  0  0  0  0  0
   32.0600   35.3600   10.0340 C   0  0  0  0  0  0  0  0  0  0  0  0
   30.7970   34.5420   10.1100 C   0  0  0  0  0  0  0  0  0  0  0  0
   30.2970   34.1940    8.7170 C   0  0  0  0  0  0  0  0  0  0  0  0
   28.7930   34.3720    8.6300 C   0  0  0  0  0  0  0  0  0  0  0  0
   28.1110   33.7410    9.7930 N   0  0  0  0  0  0  0  0  0  0  0  0
  1  2  1  0  0  0  0
  2  3  1  0  0  0  0
  4  3  1  0  0  0  0
  5  4  1  0  0  0  0
  5  6  1  0  0  0  0
M  END
>  <EGIN_R>
ES LYS A 135

>  <REMARK>
  4 active torsions:
  status: ('A' for Active; 'I' for Inactive)
    5  A    between atoms: CA   and  CB  
    6  A    between atoms: CB   and  CG  
    7  A    between atoms: CG   and  CD  
    8  A    between atoms: CD   and  CE  

$$$$
