ligand_85_pose_11_2HRL.pdbqt
 OpenBabel07062320523D

 55 56  0  0  1  0  0  0  0  0999 V2000
   23.2810   35.9600   10.3950 N   0  0  0  0  0  0  0  0  0  0  0  0
   23.2740   36.4730   11.7010 C   0  0  0  0  0  0  0  0  0  0  0  0
   23.0880   37.6910   11.8980 O   0  0  0  0  0  0  0  0  0  0  0  0
   23.4340   34.9370   10.2410 H   0  0  0  0  0  0  0  0  0  0  0  0
   23.0830   36.7900    9.2360 C   0  0  0  0  0  0  0  0  0  0  0  0
   24.3680   36.8920    8.4540 C   0  0  2  0  0  0  0  0  0  0  0  0
   25.3720   37.8090    9.1060 C   0  0  2  0  0  0  0  0  0  0  0  0
   25.9260   38.7710    8.1240 C   0  0  2  0  0  0  0  0  0  0  0  0
   27.4550   39.1970    6.4690 C   0  0  2  0  0  0  0  0  0  0  0  0
   26.5380   40.3760    6.2610 C   0  0  0  0  0  0  0  0  0  0  0  0
   27.1390   38.4200    7.5560 O   0  0  0  0  0  0  0  0  0  0  0  0
   26.2190   41.1070    7.5240 C   0  0  1  0  0  0  0  0  0  0  0  0
   26.1160   40.1660    8.7200 C   0  0  1  0  0  0  0  0  0  0  0  0
   28.7460   39.7020    6.7040 O   0  0  0  0  0  0  0  0  0  0  0  0
   28.6260   40.6940    6.8120 H   0  0  0  0  0  0  0  0  0  0  0  0
   27.5000   38.3350    5.2830 C   0  0  0  0  0  0  0  0  0  0  0  0
   27.7890   38.8280    4.1670 O   0  0  0  0  0  0  0  0  0  0  0  0
   27.2390   36.9740    5.3030 O   0  0  0  0  0  0  0  0  0  0  0  0
   27.9430   36.3760    5.7630 H   0  0  0  0  0  0  0  0  0  0  0  0
   27.2220   42.0730    7.7410 O   0  0  0  0  0  0  0  0  0  0  0  0
   27.9730   41.5830    8.1740 H   0  0  0  0  0  0  0  0  0  0  0  0
   25.0620   40.5240    9.6060 N   0  0  0  0  0  0  0  0  0  0  0  0
   25.2380   41.5740   10.5420 C   0  0  0  0  0  0  0  0  0  0  0  0
   24.1490   40.0320    9.5890 H   0  0  0  0  0  0  0  0  0  0  0  0
   24.0960   41.9160   11.4550 C   0  0  0  0  0  0  0  0  0  0  0  0
   26.2850   42.2360   10.6570 O   0  0  0  0  0  0  0  0  0  0  0  0
   26.2910   37.0700    9.8070 O   0  0  0  0  0  0  0  0  0  0  0  0
   26.9930   37.7120   10.1460 H   0  0  0  0  0  0  0  0  0  0  0  0
   24.0950   37.4640    7.1730 O   0  0  0  0  0  0  0  0  0  0  0  0
   24.8490   37.3330    6.5640 H   0  0  0  0  0  0  0  0  0  0  0  0
   23.4680   35.6870   12.8330 O   0  0  0  0  0  0  0  0  0  0  0  0
   24.0780   34.4180   12.7020 C   0  0  0  0  0  0  0  0  0  0  0  0
   25.5220   34.5450   12.4630 C   0  0  0  0  0  0  0  0  0  0  0  0
   26.5490   34.7730   13.3550 C   0  0  0  0  0  0  0  0  0  0  0  0
   26.1140   34.4550   11.2600 N   0  0  0  0  0  0  0  0  0  0  0  0
   27.7280   34.8150   12.6790 N   0  0  0  0  0  0  0  0  0  0  0  0
   27.4170   34.6190   11.4210 N   0  0  0  0  0  0  0  0  0  0  0  0
   29.0310   35.0250   13.2060 C   0  0  0  0  0  0  0  0  0  0  0  0
   29.6930   34.0130   13.8860 C   0  0  0  0  0  0  0  0  0  0  0  0
   29.6350   36.2490   13.0370 C   0  0  0  0  0  0  0  0  0  0  0  0
   30.9510   34.1950   14.4030 C   0  0  0  0  0  0  0  0  0  0  0  0
   30.9050   36.4680   13.5450 C   0  0  0  0  0  0  0  0  0  0  0  0
   31.8010   32.9180   15.2680 Cl  0  0  0  0  0  0  0  0  0  0  0  0
   31.5420   35.4300   14.2230 C   0  0  0  0  0  0  0  0  0  0  0  0
   28.9350   37.2930   12.3270 C   0  0  0  0  0  0  0  0  0  0  0  0
   29.0190   37.4540   11.0760 O   0  0  0  0  0  0  0  0  0  0  0  0
   28.1070   38.1930   13.0360 N   0  0  0  0  0  0  0  0  0  0  0  0
   27.9800   38.0470   14.4650 C   0  0  0  0  0  0  0  0  0  0  0  0
   27.3780   39.2630   12.3720 C   0  0  0  0  0  0  0  0  0  0  0  0
   29.8670   25.5550   16.9770 C   0  0  0  0  0  0  0  0  0  0  0  0
   28.3450   25.7220   17.0260 C   0  0  0  0  0  0  0  0  0  0  0  0
   27.6020   24.3990   16.9280 C   0  0  0  0  0  0  0  0  0  0  0  0
   26.1330   24.5520   17.2080 C   0  0  0  0  0  0  0  0  0  0  0  0
   25.5720   23.2290   17.7220 C   0  0  0  0  0  0  0  0  0  0  0  0
   25.5550   23.2130   19.2030 N   0  0  0  0  0  0  0  0  0  0  0  0
  1  2  1  0  0  0  0
  2  3  2  0  0  0  0
  2 31  1  0  0  0  0
  4  1  1  0  0  0  0
  5  1  1  0  0  0  0
  6  7  1  0  0  0  0
  6  5  1  1  0  0  0
  7 27  1  6  0  0  0
  8 13  1  0  0  0  0
  8  7  1  1  0  0  0
  9 16  1  6  0  0  0
  9 14  1  0  0  0  0
  9 11  1  0  0  0  0
 10  9  1  0  0  0  0
 10 12  1  0  0  0  0
 11  8  1  0  0  0  0
 12 20  1  1  0  0  0
 12 13  1  0  0  0  0
 13 22  1  1  0  0  0
 14 15  1  0  0  0  0
 16 18  1  0  0  0  0
 17 16  2  0  0  0  0
 18 19  1  0  0  0  0
 20 21  1  0  0  0  0
 22 23  1  0  0  0  0
 23 26  2  0  0  0  0
 23 25  1  0  0  0  0
 24 22  1  0  0  0  0
 27 28  1  0  0  0  0
 29  6  1  0  0  0  0
 30 29  1  0  0  0  0
 32 31  1  0  0  0  0
 33 32  1  0  0  0  0
 33 34  2  0  0  0  0
 35 37  2  0  0  0  0
 35 33  1  0  0  0  0
 36 38  1  0  0  0  0
 36 34  1  0  0  0  0
 37 36  1  0  0  0  0
 38 39  1  0  0  0  0
 39 41  2  0  0  0  0
 40 38  2  0  0  0  0
 40 42  1  0  0  0  0
 41 43  1  0  0  0  0
 42 44  2  0  0  0  0
 44 41  1  0  0  0  0
 45 47  1  0  0  0  0
 45 40  1  0  0  0  0
 46 45  2  0  0  0  0
 47 48  1  0  0  0  0
 49 47  1  0  0  0  0
 50 51  1  0  0  0  0
 52 51  1  0  0  0  0
 52 53  1  0  0  0  0
 53 54  1  0  0  0  0
 54 55  1  0  0  0  0
M  END
>  <REMARK>
 VINA RESULT:    -4.772      2.060      2.776
 INTER + INTRA:         -14.725
 INTER:                  -8.078
 INTRA:                  -6.647
 UNBOUND:                -6.187
 SMILES CC(=O)N[C@@H]1[C@@H](O)C[C@](O)(C(=O)O)O[C@H]1C(O)[C@H](O)CNC(=O)OCc1cn(-c2cc(Cl)ccc2C(=O)N(C)C)nn1
 SMILES IDX 21 1 22 2 23 3 20 5 18 6 16 7 15 8 9 9 8 10 14 11 6 12 5 13
 SMILES IDX 10 14 11 16 12 17 13 18 7 20 4 22 2 23 1 25 3 26 17 27 19 29
 SMILES IDX 24 31 25 32 26 33 27 34 42 35 28 36 41 37 29 38 30 39 35 40
 SMILES IDX 31 41 34 42 32 43 33 44 36 45 37 46 38 47 39 48 40 49
 H PARENT 21 4 10 15 13 19 7 21 4 24 17 28 19 30
 Flexibility Score: inf
  4 active torsions:
  status: ('A' for Active; 'I' for Inactive)
    1  A    between atoms: CA   and  CB  
    2  A    between atoms: CB   and  CG  
    3  A    between atoms: CG   and  CD  
    4  A    between atoms: CD   and  CE  

>  <TORSDO>
F 16

>  <BEGIN_>
RES LYS A 131

$$$$
ligand_85_pose_11_2HRL.pdbqt
 OpenBabel07062320523D

  6  5  0  0  0  0  0  0  0  0999 V2000
   33.1930   34.6630    9.2900 C   0  0  0  0  0  0  0  0  0  0  0  0
   32.0600   35.3600   10.0340 C   0  0  0  0  0  0  0  0  0  0  0  0
   30.7130   34.7220    9.8150 C   0  0  0  0  0  0  0  0  0  0  0  0
   30.4540   34.5100    8.3310 C   0  0  0  0  0  0  0  0  0  0  0  0
   29.3890   35.4680    7.8330 C   0  0  0  0  0  0  0  0  0  0  0  0
   28.0350   34.8540    7.9170 N   0  0  0  0  0  0  0  0  0  0  0  0
  1  2  1  0  0  0  0
  3  2  1  0  0  0  0
  4  3  1  0  0  0  0
  5  6  1  0  0  0  0
  5  4  1  0  0  0  0
M  END
>  <EGIN_R>
ES LYS A 135

>  <REMARK>
  4 active torsions:
  status: ('A' for Active; 'I' for Inactive)
    5  A    between atoms: CA   and  CB  
    6  A    between atoms: CB   and  CG  
    7  A    between atoms: CG   and  CD  
    8  A    between atoms: CD   and  CE  

$$$$
