ligand_0_pose_8_2HRL.pdbqt
 OpenBabel07062320523D

 54 55  0  0  1  0  0  0  0  0999 V2000
   30.1810   37.0610   17.8480 N   0  0  0  0  0  0  0  0  0  0  0  0
   29.2250   36.8630   18.8780 C   0  0  0  0  0  0  0  0  0  0  0  0
   28.5120   37.8180   19.2330 O   0  0  0  0  0  0  0  0  0  0  0  0
   30.7560   36.2060   17.5950 H   0  0  0  0  0  0  0  0  0  0  0  0
   30.4020   38.3070   17.1580 C   0  0  0  0  0  0  0  0  0  0  0  0
   29.9980   38.2410   15.6950 C   0  0  2  0  0  0  0  0  0  0  0  0
   31.0590   37.6020   14.8490 C   0  0  1  0  0  0  0  0  0  0  0  0
   30.8370   36.1670   14.5540 C   0  0  2  0  0  0  0  0  0  0  0  0
   29.1330   34.5830   14.7930 C   0  0  2  0  0  0  0  0  0  0  0  0
   30.0790   33.7640   13.9660 C   0  0  0  0  0  0  0  0  0  0  0  0
   29.5130   35.8740   14.9760 O   0  0  0  0  0  0  0  0  0  0  0  0
   31.5040   33.8560   14.3920 C   0  0  1  0  0  0  0  0  0  0  0  0
   31.7060   35.1490   15.1740 C   0  0  1  0  0  0  0  0  0  0  0  0
   28.8870   33.9100   16.0130 O   0  0  0  0  0  0  0  0  0  0  0  0
   29.6760   33.3200   16.1930 H   0  0  0  0  0  0  0  0  0  0  0  0
   27.8260   34.5880   14.0720 C   0  0  0  0  0  0  0  0  0  0  0  0
   27.7330   35.2810   13.0130 O   0  0  0  0  0  0  0  0  0  0  0  0
   26.7180   33.8840   14.4890 O   0  0  0  0  0  0  0  0  0  0  0  0
   26.3230   33.1490   13.9240 H   0  0  0  0  0  0  0  0  0  0  0  0
   31.8190   32.7460   15.1600 O   0  0  0  0  0  0  0  0  0  0  0  0
   31.4280   32.7680   16.0690 H   0  0  0  0  0  0  0  0  0  0  0  0
   33.0670   35.4470   15.4040 N   0  0  0  0  0  0  0  0  0  0  0  0
   33.5660   35.7380   16.6910 C   0  0  0  0  0  0  0  0  0  0  0  0
   33.7550   35.4400   14.6250 H   0  0  0  0  0  0  0  0  0  0  0  0
   34.9790   36.0560   16.9880 C   0  0  0  0  0  0  0  0  0  0  0  0
   32.7590   35.7250   17.6450 O   0  0  0  0  0  0  0  0  0  0  0  0
   31.5630   38.3850   13.8380 O   0  0  0  0  0  0  0  0  0  0  0  0
   31.1830   39.3130   13.9030 H   0  0  0  0  0  0  0  0  0  0  0  0
   29.4970   39.4260   15.2350 O   0  0  0  0  0  0  0  0  0  0  0  0
   28.5040   39.3940   15.1570 H   0  0  0  0  0  0  0  0  0  0  0  0
   29.0540   35.6350   19.5080 O   0  0  0  0  0  0  0  0  0  0  0  0
   30.1490   34.8030   19.8500 C   0  0  0  0  0  0  0  0  0  0  0  0
   30.0580   33.5010   19.1220 C   0  0  0  0  0  0  0  0  0  0  0  0
   29.0880   32.5370   19.3230 C   0  0  0  0  0  0  0  0  0  0  0  0
   30.8690   33.0280   18.1640 N   0  0  0  0  0  0  0  0  0  0  0  0
   29.3560   31.5050   18.4660 N   0  0  0  0  0  0  0  0  0  0  0  0
   30.4200   31.8290   17.7920 N   0  0  0  0  0  0  0  0  0  0  0  0
   28.5850   30.3020   18.3690 C   0  0  0  0  0  0  0  0  0  0  0  0
   27.9840   29.9130   17.1950 C   0  0  0  0  0  0  0  0  0  0  0  0
   28.4540   29.5180   19.5100 C   0  0  0  0  0  0  0  0  0  0  0  0
   27.2490   28.7240   17.1800 C   0  0  0  0  0  0  0  0  0  0  0  0
   27.7270   28.3530   19.4760 C   0  0  0  0  0  0  0  0  0  0  0  0
   27.1280   27.9670   18.3060 C   0  0  0  0  0  0  0  0  0  0  0  0
   28.0830   30.6850   15.9660 C   0  0  0  0  0  0  0  0  0  0  0  0
   27.0410   31.3110   15.5830 O   0  0  0  0  0  0  0  0  0  0  0  0
   29.2740   30.7640   15.1960 N   0  0  0  0  0  0  0  0  0  0  0  0
   30.1040   31.2930   15.5090 H   0  0  0  0  0  0  0  0  0  0  0  0
   29.2670   30.2500   14.2640 H   0  0  0  0  0  0  0  0  0  0  0  0
   29.8670   25.5550   16.9770 C   0  0  0  0  0  0  0  0  0  0  0  0
   28.3450   25.7220   17.0260 C   0  0  0  0  0  0  0  0  0  0  0  0
   27.6010   24.4030   16.8870 C   0  0  0  0  0  0  0  0  0  0  0  0
   26.1540   24.5240   17.2790 C   0  0  0  0  0  0  0  0  0  0  0  0
   25.9710   24.0310   18.7100 C   0  0  0  0  0  0  0  0  0  0  0  0
   25.1230   24.9730   19.4790 N   0  0  0  0  0  0  0  0  0  0  0  0
  1  2  1  0  0  0  0
  2  3  2  0  0  0  0
  2 31  1  0  0  0  0
  4  1  1  0  0  0  0
  5  1  1  0  0  0  0
  6  5  1  1  0  0  0
  7 27  1  6  0  0  0
  7  6  1  0  0  0  0
  8  7  1  1  0  0  0
  8 11  1  0  0  0  0
  8 13  1  0  0  0  0
  9 16  1  6  0  0  0
  9 11  1  0  0  0  0
  9 14  1  0  0  0  0
 10 12  1  0  0  0  0
 10  9  1  0  0  0  0
 12 20  1  1  0  0  0
 12 13  1  0  0  0  0
 13 22  1  6  0  0  0
 14 15  1  0  0  0  0
 16 18  1  0  0  0  0
 17 16  2  0  0  0  0
 19 18  1  0  0  0  0
 20 21  1  0  0  0  0
 22 23  1  0  0  0  0
 23 25  1  0  0  0  0
 23 26  2  0  0  0  0
 24 22  1  0  0  0  0
 27 28  1  0  0  0  0
 29  6  1  0  0  0  0
 30 29  1  0  0  0  0
 31 32  1  0  0  0  0
 33 34  2  0  0  0  0
 33 32  1  0  0  0  0
 35 33  1  0  0  0  0
 36 34  1  0  0  0  0
 37 35  2  0  0  0  0
 37 36  1  0  0  0  0
 38 36  1  0  0  0  0
 38 40  2  0  0  0  0
 39 38  1  0  0  0  0
 41 39  2  0  0  0  0
 41 43  1  0  0  0  0
 42 40  1  0  0  0  0
 43 42  2  0  0  0  0
 44 39  1  0  0  0  0
 45 44  2  0  0  0  0
 46 47  1  0  0  0  0
 46 44  1  0  0  0  0
 48 46  1  0  0  0  0
 49 50  1  0  0  0  0
 51 50  1  0  0  0  0
 51 52  1  0  0  0  0
 52 53  1  0  0  0  0
 53 54  1  0  0  0  0
M  END
>  <REMARK>
 VINA RESULT:    -5.280      3.860      8.421
 INTER + INTRA:         -14.861
 INTER:                  -7.243
 INTRA:                  -7.618
 UNBOUND:                -5.414
 SMILES CC(=O)N[C@@H]1[C@@H](O)C[C@](O)(C(=O)O)O[C@H]1C(O)[C@H](O)CNC(=O)OCc1cn(-c2ccccc2C(N)=O)nn1
 SMILES IDX 21 1 22 2 23 3 20 5 18 6 16 7 15 8 9 9 8 10 14 11 6 12 5 13
 SMILES IDX 10 14 11 16 12 17 13 18 7 20 4 22 2 23 1 25 3 26 17 27 19 29
 SMILES IDX 24 31 25 32 26 33 27 34 39 35 28 36 38 37 29 38 34 39 30 40
 SMILES IDX 33 41 31 42 32 43 35 44 37 45 36 46
 H PARENT 21 4 10 15 13 19 7 21 4 24 17 28 19 30 36 47 36 48
 Flexibility Score: inf
  4 active torsions:
  status: ('A' for Active; 'I' for Inactive)
    1  A    between atoms: CA   and  CB  
    2  A    between atoms: CB   and  CG  
    3  A    between atoms: CG   and  CD  
    4  A    between atoms: CD   and  CE  

>  <TORSDO>
F 16

>  <BEGIN_>
RES LYS A 131

$$$$
ligand_0_pose_8_2HRL.pdbqt
 OpenBabel07062320523D

  6  5  0  0  0  0  0  0  0  0999 V2000
   33.1930   34.6630    9.2900 C   0  0  0  0  0  0  0  0  0  0  0  0
   32.0600   35.3600   10.0340 C   0  0  0  0  0  0  0  0  0  0  0  0
   30.7050   34.7550    9.7710 C   0  0  0  0  0  0  0  0  0  0  0  0
   30.5400   34.4270    8.2950 C   0  0  0  0  0  0  0  0  0  0  0  0
   29.2300   34.9820    7.7690 C   0  0  0  0  0  0  0  0  0  0  0  0
   28.1250   34.7610    8.7430 N   0  0  0  0  0  0  0  0  0  0  0  0
  1  2  1  0  0  0  0
  3  2  1  0  0  0  0
  4  3  1  0  0  0  0
  5  4  1  0  0  0  0
  5  6  1  0  0  0  0
M  END
>  <EGIN_R>
ES LYS A 135

>  <REMARK>
  4 active torsions:
  status: ('A' for Active; 'I' for Inactive)
    5  A    between atoms: CA   and  CB  
    6  A    between atoms: CB   and  CG  
    7  A    between atoms: CG   and  CD  
    8  A    between atoms: CD   and  CE  

$$$$
