ligand_71_pose_7_2HRL.pdbqt
 OpenBabel07062320523D

 54 55  0  0  1  0  0  0  0  0999 V2000
   25.5250   32.5970   17.2970 N   0  0  0  0  0  0  0  0  0  0  0  0
   25.6030   31.8480   16.0730 C   0  0  0  0  0  0  0  0  0  0  0  0
   25.8770   32.4120   14.9860 O   0  0  0  0  0  0  0  0  0  0  0  0
   25.3000   32.1140   18.1830 H   0  0  0  0  0  0  0  0  0  0  0  0
   25.7700   34.0110   17.2310 C   0  0  0  0  0  0  0  0  0  0  0  0
   26.8570   34.4760   18.1690 C   0  0  2  0  0  0  0  0  0  0  0  0
   28.0870   34.7390   17.3340 C   0  0  1  0  0  0  0  0  0  0  0  0
   28.7130   33.4310   16.8450 C   0  0  2  0  0  0  0  0  0  0  0  0
   29.7560   31.5540   17.5410 C   0  0  2  0  0  0  0  0  0  0  0  0
   30.4340   31.4550   16.2230 C   0  0  0  0  0  0  0  0  0  0  0  0
   29.4390   32.8440   17.8530 O   0  0  0  0  0  0  0  0  0  0  0  0
   30.7430   32.7680   15.5450 C   0  0  1  0  0  0  0  0  0  0  0  0
   29.6240   33.7630   15.6740 C   0  0  1  0  0  0  0  0  0  0  0  0
   30.6820   31.1540   18.5630 O   0  0  0  0  0  0  0  0  0  0  0  0
   31.5780   31.0370   18.1430 H   0  0  0  0  0  0  0  0  0  0  0  0
   28.6250   30.5890   17.6680 C   0  0  0  0  0  0  0  0  0  0  0  0
   27.8700   30.6210   18.6410 O   0  0  0  0  0  0  0  0  0  0  0  0
   28.3800   29.6170   16.6950 O   0  0  0  0  0  0  0  0  0  0  0  0
   28.6370   29.7470   15.7330 H   0  0  0  0  0  0  0  0  0  0  0  0
   31.9220   33.2510   16.1190 O   0  0  0  0  0  0  0  0  0  0  0  0
   31.8790   33.2360   17.1170 H   0  0  0  0  0  0  0  0  0  0  0  0
   28.8310   33.9330   14.5070 N   0  0  0  0  0  0  0  0  0  0  0  0
   29.2080   34.6960   13.3720 C   0  0  0  0  0  0  0  0  0  0  0  0
   27.8900   33.4720   14.4520 H   0  0  0  0  0  0  0  0  0  0  0  0
   28.3190   34.8360   12.1770 C   0  0  0  0  0  0  0  0  0  0  0  0
   30.3170   35.2570   13.3970 O   0  0  0  0  0  0  0  0  0  0  0  0
   27.8220   35.5820   16.2710 O   0  0  0  0  0  0  0  0  0  0  0  0
   27.6430   35.0130   15.4620 H   0  0  0  0  0  0  0  0  0  0  0  0
   27.0750   33.4630   19.1000 O   0  0  0  0  0  0  0  0  0  0  0  0
   26.5430   33.6930   19.9090 H   0  0  0  0  0  0  0  0  0  0  0  0
   25.3820   30.4900   16.0530 O   0  0  0  0  0  0  0  0  0  0  0  0
   24.4970   29.7840   16.8720 C   0  0  0  0  0  0  0  0  0  0  0  0
   25.2340   28.7950   17.6870 C   0  0  0  0  0  0  0  0  0  0  0  0
   25.1110   28.5220   19.0330 C   0  0  0  0  0  0  0  0  0  0  0  0
   26.1760   27.9660   17.2100 N   0  0  0  0  0  0  0  0  0  0  0  0
   25.9740   27.5480   19.3190 N   0  0  0  0  0  0  0  0  0  0  0  0
   26.6000   27.2360   18.1990 N   0  0  0  0  0  0  0  0  0  0  0  0
   26.1490   26.9570   20.6500 C   0  0  0  0  0  0  0  0  0  0  0  0
   27.4520   27.3970   21.2300 C   0  0  0  0  0  0  0  0  0  0  0  0
   27.5850   27.8750   22.3690 O   0  0  0  0  0  0  0  0  0  0  0  0
   28.6250   27.2580   20.4180 N   0  0  0  0  0  0  0  0  0  0  0  0
   28.5430   26.8590   19.4560 H   0  0  0  0  0  0  0  0  0  0  0  0
   29.9050   27.6400   20.8820 C   0  0  0  0  0  0  0  0  0  0  0  0
   30.4290   28.8660   20.6880 N   0  0  0  0  0  0  0  0  0  0  0  0
   30.6690   26.7590   21.5560 N   0  0  0  0  0  0  0  0  0  0  0  0
   31.6520   29.2030   21.1430 C   0  0  0  0  0  0  0  0  0  0  0  0
   31.8820   27.0300   22.0310 C   0  0  0  0  0  0  0  0  0  0  0  0
   32.4190   28.2870   21.8320 C   0  0  0  0  0  0  0  0  0  0  0  0
   29.8670   25.5550   16.9770 C   0  0  0  0  0  0  0  0  0  0  0  0
   28.3450   25.7220   17.0260 C   0  0  0  0  0  0  0  0  0  0  0  0
   27.5990   24.4720   16.5850 C   0  0  0  0  0  0  0  0  0  0  0  0
   27.2830   23.5640   17.7400 C   0  0  0  0  0  0  0  0  0  0  0  0
   25.8320   23.7660   18.1640 C   0  0  0  0  0  0  0  0  0  0  0  0
   25.0210   24.2540   17.0240 N   0  0  0  0  0  0  0  0  0  0  0  0
  1  4  1  0  0  0  0
  2  1  1  0  0  0  0
  3  2  2  0  0  0  0
  5  1  1  0  0  0  0
  6  5  1  6  0  0  0
  6 29  1  0  0  0  0
  7 27  1  6  0  0  0
  7  6  1  0  0  0  0
  8  7  1  1  0  0  0
  8 11  1  0  0  0  0
  9 16  1  1  0  0  0
  9 11  1  0  0  0  0
  9 14  1  0  0  0  0
 10  9  1  0  0  0  0
 12 13  1  0  0  0  0
 12 20  1  1  0  0  0
 12 10  1  0  0  0  0
 13 22  1  6  0  0  0
 13  8  1  0  0  0  0
 15 14  1  0  0  0  0
 16 17  2  0  0  0  0
 18 16  1  0  0  0  0
 19 18  1  0  0  0  0
 20 21  1  0  0  0  0
 23 26  2  0  0  0  0
 23 22  1  0  0  0  0
 24 22  1  0  0  0  0
 25 23  1  0  0  0  0
 28 27  1  0  0  0  0
 29 30  1  0  0  0  0
 31  2  1  0  0  0  0
 31 32  1  0  0  0  0
 32 33  1  0  0  0  0
 33 34  2  0  0  0  0
 34 36  1  0  0  0  0
 35 33  1  0  0  0  0
 35 37  2  0  0  0  0
 36 38  1  0  0  0  0
 37 36  1  0  0  0  0
 38 39  1  0  0  0  0
 39 40  2  0  0  0  0
 41 43  1  0  0  0  0
 41 39  1  0  0  0  0
 42 41  1  0  0  0  0
 43 45  1  0  0  0  0
 44 43  2  0  0  0  0
 44 46  1  0  0  0  0
 45 47  2  0  0  0  0
 46 48  2  0  0  0  0
 48 47  1  0  0  0  0
 49 50  1  0  0  0  0
 51 50  1  0  0  0  0
 51 52  1  0  0  0  0
 52 53  1  0  0  0  0
 54 53  1  0  0  0  0
M  END
>  <REMARK>
 VINA RESULT:    -4.033      2.721      7.007
 INTER + INTRA:         -15.018
 INTER:                  -7.729
 INTRA:                  -7.288
 UNBOUND:                -7.565
 SMILES CC(=O)N[C@@H]1[C@@H](O)C[C@](O)(C(=O)O)O[C@H]1C(O)[C@H](O)CNC(=O)OCc1cn(CC(=O)Nc2ncccn2)nn1
 SMILES IDX 21 1 22 2 23 3 20 5 18 6 16 7 15 8 9 9 8 10 14 11 6 12 5 13
 SMILES IDX 10 14 11 16 12 17 13 18 7 20 4 22 2 23 1 25 3 26 17 27 19 29
 SMILES IDX 24 31 25 32 26 33 27 34 40 35 28 36 39 37 29 38 30 39 31 40
 SMILES IDX 32 41 33 43 34 44 38 45 35 46 37 47 36 48
 H PARENT 21 4 10 15 13 19 7 21 4 24 17 28 19 30 32 42
 Flexibility Score: inf
  4 active torsions:
  status: ('A' for Active; 'I' for Inactive)
    1  A    between atoms: CA   and  CB  
    2  A    between atoms: CB   and  CG  
    3  A    between atoms: CG   and  CD  
    4  A    between atoms: CD   and  CE  

>  <TORSDO>
F 17

>  <BEGIN_>
RES LYS A 131

$$$$
ligand_71_pose_7_2HRL.pdbqt
 OpenBabel07062320523D

  6  5  0  0  0  0  0  0  0  0999 V2000
   33.1930   34.6630    9.2900 C   0  0  0  0  0  0  0  0  0  0  0  0
   32.0600   35.3600   10.0340 C   0  0  0  0  0  0  0  0  0  0  0  0
   30.8120   35.5330    9.2070 C   0  0  0  0  0  0  0  0  0  0  0  0
   30.1630   34.1860    8.9270 C   0  0  0  0  0  0  0  0  0  0  0  0
   28.7350   34.3720    8.4500 C   0  0  0  0  0  0  0  0  0  0  0  0
   28.6730   35.3090    7.2940 N   0  0  0  0  0  0  0  0  0  0  0  0
  1  2  1  0  0  0  0
  3  2  1  0  0  0  0
  4  3  1  0  0  0  0
  5  4  1  0  0  0  0
  6  5  1  0  0  0  0
M  END
>  <EGIN_R>
ES LYS A 135

>  <REMARK>
  4 active torsions:
  status: ('A' for Active; 'I' for Inactive)
    5  A    between atoms: CA   and  CB  
    6  A    between atoms: CB   and  CG  
    7  A    between atoms: CG   and  CD  
    8  A    between atoms: CD   and  CE  

$$$$
