ligand_85_pose_8_2HRL.pdbqt
 OpenBabel07062320523D

 55 56  0  0  1  0  0  0  0  0999 V2000
   27.5860   33.7020   18.2560 N   0  0  0  0  0  0  0  0  0  0  0  0
   27.0770   33.1510   17.0710 C   0  0  0  0  0  0  0  0  0  0  0  0
   26.7020   31.9620   17.0400 O   0  0  0  0  0  0  0  0  0  0  0  0
   27.8940   34.7010   18.2720 H   0  0  0  0  0  0  0  0  0  0  0  0
   27.7070   32.9440   19.4740 C   0  0  0  0  0  0  0  0  0  0  0  0
   29.0750   32.3170   19.5520 C   0  0  2  0  0  0  0  0  0  0  0  0
   29.1130   30.9310   18.9590 C   0  0  2  0  0  0  0  0  0  0  0  0
   29.6920   29.9600   19.9160 C   0  0  2  0  0  0  0  0  0  0  0  0
   31.5690   28.9730   20.7880 C   0  0  2  0  0  0  0  0  0  0  0  0
   30.5640   28.5420   21.8270 C   0  0  0  0  0  0  0  0  0  0  0  0
   31.0270   29.6460   19.7220 O   0  0  0  0  0  0  0  0  0  0  0  0
   29.3220   27.9570   21.2400 C   0  0  1  0  0  0  0  0  0  0  0  0
   28.9350   28.6320   19.9280 C   0  0  1  0  0  0  0  0  0  0  0  0
   32.1610   27.8100   20.2640 O   0  0  0  0  0  0  0  0  0  0  0  0
   31.5920   27.0510   20.5980 H   0  0  0  0  0  0  0  0  0  0  0  0
   32.6230   29.8090   21.3740 C   0  0  0  0  0  0  0  0  0  0  0  0
   32.4210   31.0360   21.5430 O   0  0  0  0  0  0  0  0  0  0  0  0
   33.8640   29.3320   21.7660 O   0  0  0  0  0  0  0  0  0  0  0  0
   33.9950   29.1620   22.7760 H   0  0  0  0  0  0  0  0  0  0  0  0
   29.5340   26.5780   21.0410 O   0  0  0  0  0  0  0  0  0  0  0  0
   28.6950   26.1350   21.3410 H   0  0  0  0  0  0  0  0  0  0  0  0
   27.5290   28.8110   19.8010 N   0  0  0  0  0  0  0  0  0  0  0  0
   26.7010   27.7260   19.4170 C   0  0  0  0  0  0  0  0  0  0  0  0
   27.0800   29.7280   19.9860 H   0  0  0  0  0  0  0  0  0  0  0  0
   25.2220   27.9640   19.2980 C   0  0  0  0  0  0  0  0  0  0  0  0
   27.1220   26.5820   19.1700 O   0  0  0  0  0  0  0  0  0  0  0  0
   29.6970   30.9720   17.7180 O   0  0  0  0  0  0  0  0  0  0  0  0
   29.2210   31.6870   17.1880 H   0  0  0  0  0  0  0  0  0  0  0  0
   29.4430   32.1610   20.9240 O   0  0  0  0  0  0  0  0  0  0  0  0
   29.2840   31.2440   21.2270 H   0  0  0  0  0  0  0  0  0  0  0  0
   26.9570   33.8670   15.8840 O   0  0  0  0  0  0  0  0  0  0  0  0
   27.8640   33.6190   14.8280 C   0  0  0  0  0  0  0  0  0  0  0  0
   29.2520   33.6170   15.3100 C   0  0  0  0  0  0  0  0  0  0  0  0
   29.9670   34.6090   15.9470 C   0  0  0  0  0  0  0  0  0  0  0  0
   30.1030   32.5820   15.2020 N   0  0  0  0  0  0  0  0  0  0  0  0
   31.2240   34.1580   16.2080 N   0  0  0  0  0  0  0  0  0  0  0  0
   31.2590   32.9340   15.7430 N   0  0  0  0  0  0  0  0  0  0  0  0
   32.2850   34.8510   16.8490 C   0  0  0  0  0  0  0  0  0  0  0  0
   32.3580   34.9140   18.2330 C   0  0  0  0  0  0  0  0  0  0  0  0
   33.2480   35.4650   16.0820 C   0  0  0  0  0  0  0  0  0  0  0  0
   33.3750   35.5780   18.8720 C   0  0  0  0  0  0  0  0  0  0  0  0
   34.2890   36.1440   16.6930 C   0  0  0  0  0  0  0  0  0  0  0  0
   33.4770   35.6650   20.6280 Cl  0  0  0  0  0  0  0  0  0  0  0  0
   34.3320   36.1880   18.0860 C   0  0  0  0  0  0  0  0  0  0  0  0
   33.1600   35.3900   14.6430 C   0  0  0  0  0  0  0  0  0  0  0  0
   33.7160   34.4820   13.9630 O   0  0  0  0  0  0  0  0  0  0  0  0
   32.4250   36.3670   13.9320 N   0  0  0  0  0  0  0  0  0  0  0  0
   31.7730   37.4230   14.6660 C   0  0  0  0  0  0  0  0  0  0  0  0
   32.3020   36.3400   12.4820 C   0  0  0  0  0  0  0  0  0  0  0  0
   29.8670   25.5550   16.9770 C   0  0  0  0  0  0  0  0  0  0  0  0
   28.3450   25.7220   17.0260 C   0  0  0  0  0  0  0  0  0  0  0  0
   27.5990   24.4890   16.5400 C   0  0  0  0  0  0  0  0  0  0  0  0
   27.0550   23.6700   17.6780 C   0  0  0  0  0  0  0  0  0  0  0  0
   25.5680   23.4150   17.4560 C   0  0  0  0  0  0  0  0  0  0  0  0
   24.8410   24.6960   17.2870 N   0  0  0  0  0  0  0  0  0  0  0  0
  1  4  1  0  0  0  0
  1  5  1  0  0  0  0
  2  1  1  0  0  0  0
  3  2  2  0  0  0  0
  6  5  1  1  0  0  0
  6 29  1  0  0  0  0
  7 27  1  6  0  0  0
  7  6  1  0  0  0  0
  8  7  1  6  0  0  0
  8 13  1  0  0  0  0
  9 14  1  6  0  0  0
  9 16  1  0  0  0  0
  9 10  1  0  0  0  0
 11  8  1  0  0  0  0
 11  9  1  0  0  0  0
 12 20  1  6  0  0  0
 12 10  1  0  0  0  0
 13 22  1  1  0  0  0
 13 12  1  0  0  0  0
 14 15  1  0  0  0  0
 16 17  2  0  0  0  0
 16 18  1  0  0  0  0
 18 19  1  0  0  0  0
 20 21  1  0  0  0  0
 22 24  1  0  0  0  0
 23 22  1  0  0  0  0
 25 23  1  0  0  0  0
 26 23  2  0  0  0  0
 28 27  1  0  0  0  0
 29 30  1  0  0  0  0
 31  2  1  0  0  0  0
 32 33  1  0  0  0  0
 32 31  1  0  0  0  0
 33 34  2  0  0  0  0
 34 36  1  0  0  0  0
 35 33  1  0  0  0  0
 35 37  2  0  0  0  0
 36 38  1  0  0  0  0
 37 36  1  0  0  0  0
 38 39  2  0  0  0  0
 39 41  1  0  0  0  0
 40 42  2  0  0  0  0
 40 38  1  0  0  0  0
 41 43  1  0  0  0  0
 42 44  1  0  0  0  0
 44 41  2  0  0  0  0
 45 40  1  0  0  0  0
 46 45  2  0  0  0  0
 47 45  1  0  0  0  0
 47 48  1  0  0  0  0
 49 47  1  0  0  0  0
 50 51  1  0  0  0  0
 52 51  1  0  0  0  0
 52 53  1  0  0  0  0
 54 53  1  0  0  0  0
 55 54  1  0  0  0  0
M  END
>  <REMARK>
 VINA RESULT:    -4.805      5.601     10.925
 INTER + INTRA:         -14.784
 INTER:                  -8.836
 INTRA:                  -5.948
 UNBOUND:                -6.187
 SMILES CC(=O)N[C@@H]1[C@@H](O)C[C@](O)(C(=O)O)O[C@H]1C(O)[C@H](O)CNC(=O)OCc1cn(-c2cc(Cl)ccc2C(=O)N(C)C)nn1
 SMILES IDX 21 1 22 2 23 3 20 5 18 6 16 7 15 8 9 9 8 10 14 11 6 12 5 13
 SMILES IDX 10 14 11 16 12 17 13 18 7 20 4 22 2 23 1 25 3 26 17 27 19 29
 SMILES IDX 24 31 25 32 26 33 27 34 42 35 28 36 41 37 29 38 30 39 35 40
 SMILES IDX 31 41 34 42 32 43 33 44 36 45 37 46 38 47 39 48 40 49
 H PARENT 21 4 10 15 13 19 7 21 4 24 17 28 19 30
 Flexibility Score: inf
  4 active torsions:
  status: ('A' for Active; 'I' for Inactive)
    1  A    between atoms: CA   and  CB  
    2  A    between atoms: CB   and  CG  
    3  A    between atoms: CG   and  CD  
    4  A    between atoms: CD   and  CE  

>  <TORSDO>
F 16

>  <BEGIN_>
RES LYS A 131

$$$$
ligand_85_pose_8_2HRL.pdbqt
 OpenBabel07062320523D

  6  5  0  0  0  0  0  0  0  0999 V2000
   33.1930   34.6630    9.2900 C   0  0  0  0  0  0  0  0  0  0  0  0
   32.0600   35.3600   10.0340 C   0  0  0  0  0  0  0  0  0  0  0  0
   30.8040   35.5110    9.2150 C   0  0  0  0  0  0  0  0  0  0  0  0
   30.1130   34.1680    9.0400 C   0  0  0  0  0  0  0  0  0  0  0  0
   28.6590   34.3630    8.6550 C   0  0  0  0  0  0  0  0  0  0  0  0
   27.7550   33.6320    9.5860 N   0  0  0  0  0  0  0  0  0  0  0  0
  1  2  1  0  0  0  0
  3  2  1  0  0  0  0
  4  3  1  0  0  0  0
  5  4  1  0  0  0  0
  5  6  1  0  0  0  0
M  END
>  <EGIN_R>
ES LYS A 135

>  <REMARK>
  4 active torsions:
  status: ('A' for Active; 'I' for Inactive)
    5  A    between atoms: CA   and  CB  
    6  A    between atoms: CB   and  CG  
    7  A    between atoms: CG   and  CD  
    8  A    between atoms: CD   and  CE  

$$$$
