ligand_41_pose_3_2HRL.pdbqt
 OpenBabel07062320523D

 52 53  0  0  1  0  0  0  0  0999 V2000
   27.0940   32.1590   17.3400 N   0  0  0  0  0  0  0  0  0  0  0  0
   26.5840   32.2700   16.0010 C   0  0  0  0  0  0  0  0  0  0  0  0
   26.1690   31.2350   15.4240 O   0  0  0  0  0  0  0  0  0  0  0  0
   27.4210   33.0390   17.7860 H   0  0  0  0  0  0  0  0  0  0  0  0
   27.1350   30.8800   17.9860 C   0  0  0  0  0  0  0  0  0  0  0  0
   28.4460   30.1650   17.9670 C   0  0  2  0  0  0  0  0  0  0  0  0
   29.5340   30.8460   18.7430 C   0  0  2  0  0  0  0  0  0  0  0  0
   30.0690   30.0480   19.9030 C   0  0  2  0  0  0  0  0  0  0  0  0
   30.0570   27.9620   20.8930 C   0  0  2  0  0  0  0  0  0  0  0  0
   29.6150   28.4910   22.2440 C   0  0  0  0  0  0  0  0  0  0  0  0
   29.6220   28.7720   19.9080 O   0  0  0  0  0  0  0  0  0  0  0  0
   29.0300   29.8600   22.1460 C   0  0  1  0  0  0  0  0  0  0  0  0
   29.7480   30.7520   21.2040 C   0  0  1  0  0  0  0  0  0  0  0  0
   29.3870   26.6950   20.7930 O   0  0  0  0  0  0  0  0  0  0  0  0
   29.6340   26.2780   19.9110 H   0  0  0  0  0  0  0  0  0  0  0  0
   31.4850   27.6320   20.9410 C   0  0  0  0  0  0  0  0  0  0  0  0
   32.2010   27.8030   21.9540 O   0  0  0  0  0  0  0  0  0  0  0  0
   32.1390   27.0920   19.8310 O   0  0  0  0  0  0  0  0  0  0  0  0
   32.8620   27.6190   19.3540 H   0  0  0  0  0  0  0  0  0  0  0  0
   27.6970   29.7350   21.7160 O   0  0  0  0  0  0  0  0  0  0  0  0
   27.6270   29.5440   20.7500 H   0  0  0  0  0  0  0  0  0  0  0  0
   30.8720   31.3830   21.8190 N   0  0  0  0  0  0  0  0  0  0  0  0
   31.0010   32.7950   21.9350 C   0  0  0  0  0  0  0  0  0  0  0  0
   31.6350   30.7980   22.2080 H   0  0  0  0  0  0  0  0  0  0  0  0
   32.1920   33.4020   22.5850 C   0  0  0  0  0  0  0  0  0  0  0  0
   30.1160   33.5720   21.4940 O   0  0  0  0  0  0  0  0  0  0  0  0
   29.3040   32.1740   18.9970 O   0  0  0  0  0  0  0  0  0  0  0  0
   28.3140   32.3200   18.9280 H   0  0  0  0  0  0  0  0  0  0  0  0
   28.8860   30.2210   16.5800 O   0  0  0  0  0  0  0  0  0  0  0  0
   28.4440   31.0440   16.2410 H   0  0  0  0  0  0  0  0  0  0  0  0
   26.5310   33.4600   15.3160 O   0  0  0  0  0  0  0  0  0  0  0  0
   27.6130   33.9080   14.5020 C   0  0  0  0  0  0  0  0  0  0  0  0
   28.9150   33.7540   15.1980 C   0  0  0  0  0  0  0  0  0  0  0  0
   29.6380   34.7060   15.8660 C   0  0  0  0  0  0  0  0  0  0  0  0
   29.6440   32.6080   15.2980 N   0  0  0  0  0  0  0  0  0  0  0  0
   30.7790   34.1110   16.3490 N   0  0  0  0  0  0  0  0  0  0  0  0
   30.7350   32.8460   15.9800 N   0  0  0  0  0  0  0  0  0  0  0  0
   31.8470   34.7100   17.0620 C   0  0  0  0  0  0  0  0  0  0  0  0
   32.8600   35.4090   16.5030 C   0  0  0  0  0  0  0  0  0  0  0  0
   31.7770   34.5340   18.4620 C   0  0  0  0  0  0  0  0  0  0  0  0
   33.8420   35.9570   17.3340 C   0  0  0  0  0  0  0  0  0  0  0  0
   32.7480   35.0770   19.2660 C   0  0  0  0  0  0  0  0  0  0  0  0
   33.7670   35.7820   18.6830 C   0  0  0  0  0  0  0  0  0  0  0  0
   33.0090   35.6280   15.0810 C   0  0  2  0  0  0  0  0  0  0  0  0
   32.4780   36.7120   14.6070 O   0  0  0  0  0  0  0  0  0  0  0  0
   33.6870   34.7740   14.1050 C   0  0  0  0  0  0  0  0  0  0  0  0
   29.8670   25.5550   16.9770 C   0  0  0  0  0  0  0  0  0  0  0  0
   28.3450   25.7220   17.0260 C   0  0  0  0  0  0  0  0  0  0  0  0
   27.6010   24.4020   16.8930 C   0  0  0  0  0  0  0  0  0  0  0  0
   26.6790   24.1520   18.0530 C   0  0  0  0  0  0  0  0  0  0  0  0
   26.2780   25.4830   18.6810 C   0  0  0  0  0  0  0  0  0  0  0  0
   24.9240   25.8830   18.2310 N   0  0  0  0  0  0  0  0  0  0  0  0
  1  4  1  0  0  0  0
  1  5  1  0  0  0  0
  2  1  1  0  0  0  0
  3  2  2  0  0  0  0
  6  5  1  6  0  0  0
  6  7  1  0  0  0  0
  7 27  1  1  0  0  0
  8  7  1  6  0  0  0
  8 11  1  0  0  0  0
  8 13  1  0  0  0  0
  9 14  1  6  0  0  0
  9 16  1  0  0  0  0
  9 10  1  0  0  0  0
 11  9  1  0  0  0  0
 12 20  1  6  0  0  0
 12 10  1  0  0  0  0
 13 22  1  1  0  0  0
 13 12  1  0  0  0  0
 15 14  1  0  0  0  0
 16 17  2  0  0  0  0
 18 16  1  0  0  0  0
 19 18  1  0  0  0  0
 21 20  1  0  0  0  0
 22 23  1  0  0  0  0
 22 24  1  0  0  0  0
 23 25  1  0  0  0  0
 26 23  2  0  0  0  0
 28 27  1  0  0  0  0
 29  6  1  0  0  0  0
 30 29  1  0  0  0  0
 31  2  1  0  0  0  0
 32 33  1  0  0  0  0
 32 31  1  0  0  0  0
 33 35  1  0  0  0  0
 33 34  2  0  0  0  0
 34 36  1  0  0  0  0
 35 37  2  0  0  0  0
 36 38  1  0  0  0  0
 37 36  1  0  0  0  0
 38 40  1  0  0  0  0
 39 38  2  0  0  0  0
 39 41  1  0  0  0  0
 40 42  2  0  0  0  0
 41 43  2  0  0  0  0
 43 42  1  0  0  0  0
 44 46  1  6  0  0  0
 44 39  1  0  0  0  0
 45 44  1  0  0  0  0
 47 48  1  0  0  0  0
 49 48  1  0  0  0  0
 49 50  1  0  0  0  0
 50 51  1  0  0  0  0
 52 51  1  0  0  0  0
M  END
>  <REMARK>
 VINA RESULT:    -4.644      3.327      7.747
 INTER + INTRA:         -15.113
 INTER:                  -8.485
 INTRA:                  -6.628
 UNBOUND:                -6.804
 SMILES CC(=O)N[C@@H]1[C@@H](O)C[C@](O)(C(=O)O)O[C@H]1C(O)[C@H](O)CNC(=O)OCc1cn(-c2ccccc2C(C)=O)nn1
 SMILES IDX 21 1 22 2 23 3 20 5 18 6 16 7 15 8 9 9 8 10 14 11 6 12 5 13
 SMILES IDX 10 14 11 16 12 17 13 18 7 20 4 22 2 23 1 25 3 26 17 27 19 29
 SMILES IDX 24 31 25 32 26 33 27 34 39 35 28 36 38 37 29 38 34 39 30 40
 SMILES IDX 33 41 31 42 32 43 35 44 37 45 36 46
 H PARENT 21 4 10 15 13 19 7 21 4 24 17 28 19 30
 Flexibility Score: inf
  4 active torsions:
  status: ('A' for Active; 'I' for Inactive)
    1  A    between atoms: CA   and  CB  
    2  A    between atoms: CB   and  CG  
    3  A    between atoms: CG   and  CD  
    4  A    between atoms: CD   and  CE  

>  <TORSDO>
F 16

>  <BEGIN_>
RES LYS A 131

$$$$
ligand_41_pose_3_2HRL.pdbqt
 OpenBabel07062320523D

  6  5  0  0  0  0  0  0  0  0999 V2000
   33.1930   34.6630    9.2900 C   0  0  0  0  0  0  0  0  0  0  0  0
   32.0600   35.3600   10.0340 C   0  0  0  0  0  0  0  0  0  0  0  0
   30.7850   34.5580   10.0790 C   0  0  0  0  0  0  0  0  0  0  0  0
   30.3260   34.2000    8.6740 C   0  0  0  0  0  0  0  0  0  0  0  0
   28.8540   34.5170    8.4980 C   0  0  0  0  0  0  0  0  0  0  0  0
   28.0200   33.7470    9.4620 N   0  0  0  0  0  0  0  0  0  0  0  0
  1  2  1  0  0  0  0
  2  3  1  0  0  0  0
  4  3  1  0  0  0  0
  5  4  1  0  0  0  0
  5  6  1  0  0  0  0
M  END
>  <EGIN_R>
ES LYS A 135

>  <REMARK>
  4 active torsions:
  status: ('A' for Active; 'I' for Inactive)
    5  A    between atoms: CA   and  CB  
    6  A    between atoms: CB   and  CG  
    7  A    between atoms: CG   and  CD  
    8  A    between atoms: CD   and  CE  

$$$$
