ligand_90_pose_15_2HRL.pdbqt
 OpenBabel07062320523D

 61 62  0  0  1  0  0  0  0  0999 V2000
   26.4470   27.0200   21.3590 C   0  0  0  0  0  0  0  0  0  0  0  0
   27.2420   27.7260   22.2910 O   0  0  0  0  0  0  0  0  0  0  0  0
   28.4950   27.2750   22.6670 C   0  0  0  0  0  0  0  0  0  0  0  0
   29.5130   27.0030   21.6910 N   0  0  0  0  0  0  0  0  0  0  0  0
   29.2480   27.1570   20.6970 H   0  0  0  0  0  0  0  0  0  0  0  0
   28.7250   27.1070   23.8770 O   0  0  0  0  0  0  0  0  0  0  0  0
   30.8180   26.5470   22.0270 C   0  0  0  0  0  0  0  0  0  0  0  0
   31.9170   27.1720   21.2410 C   0  0  2  0  0  0  0  0  0  0  0  0
   31.9380   28.6660   21.5230 C   0  0  1  0  0  0  0  0  0  0  0  0
   31.8430   28.9820   22.9810 C   0  0  2  0  0  0  0  0  0  0  0  0
   30.9710   31.1210   23.2850 C   0  0  2  0  0  0  0  0  0  0  0  0
   31.9060   31.5060   24.4230 C   0  0  0  0  0  0  0  0  0  0  0  0
   30.7520   29.7730   23.2370 O   0  0  0  0  0  0  0  0  0  0  0  0
   32.7240   30.2930   24.8430 C   0  0  1  0  0  0  0  0  0  0  0  0
   33.0960   29.5700   23.5420 C   0  0  1  0  0  0  0  0  0  0  0  0
   31.5940   31.5350   22.1220 O   0  0  0  0  0  0  0  0  0  0  0  0
   31.5570   30.8250   21.4310 H   0  0  0  0  0  0  0  0  0  0  0  0
   29.6710   31.8330   23.3880 C   0  0  0  0  0  0  0  0  0  0  0  0
   28.9000   31.6710   24.3750 O   0  0  0  0  0  0  0  0  0  0  0  0
   29.2550   32.7090   22.3990 O   0  0  0  0  0  0  0  0  0  0  0  0
   29.4170   32.5980   21.4140 H   0  0  0  0  0  0  0  0  0  0  0  0
   33.8520   30.7550   25.4980 O   0  0  0  0  0  0  0  0  0  0  0  0
   34.4100   31.3460   24.9440 H   0  0  0  0  0  0  0  0  0  0  0  0
   34.0920   28.5450   23.8260 N   0  0  0  0  0  0  0  0  0  0  0  0
   35.4510   28.8090   23.5650 C   0  0  0  0  0  0  0  0  0  0  0  0
   33.7960   27.6440   24.2070 H   0  0  0  0  0  0  0  0  0  0  0  0
   36.5160   27.7770   23.8450 C   0  0  0  0  0  0  0  0  0  0  0  0
   35.8670   29.8940   23.0920 O   0  0  0  0  0  0  0  0  0  0  0  0
   33.0710   29.2610   20.9940 O   0  0  0  0  0  0  0  0  0  0  0  0
   33.8660   29.1440   21.5450 H   0  0  0  0  0  0  0  0  0  0  0  0
   31.8380   26.9720   19.8730 O   0  0  0  0  0  0  0  0  0  0  0  0
   32.2100   26.0930   19.5930 H   0  0  0  0  0  0  0  0  0  0  0  0
   26.6940   27.6690   20.0480 C   0  0  0  0  0  0  0  0  0  0  0  0
   26.1480   28.8760   19.6680 C   0  0  0  0  0  0  0  0  0  0  0  0
   27.4310   27.2880   18.9950 N   0  0  0  0  0  0  0  0  0  0  0  0
   26.5620   29.1990   18.4040 N   0  0  0  0  0  0  0  0  0  0  0  0
   27.3400   28.2160   18.0230 N   0  0  0  0  0  0  0  0  0  0  0  0
   26.1350   30.4140   17.7460 C   0  0  0  0  0  0  0  0  0  0  0  0
   27.1400   30.6690   16.6380 C   0  0  0  0  0  0  0  0  0  0  0  0
   26.7440   30.9600   15.4890 O   0  0  0  0  0  0  0  0  0  0  0  0
   28.5180   30.5910   16.8510 N   0  0  0  0  0  0  0  0  0  0  0  0
   28.7710   30.3540   17.8840 H   0  0  0  0  0  0  0  0  0  0  0  0
   29.5960   30.7640   15.9480 C   0  0  0  0  0  0  0  0  0  0  0  0
   30.5280   31.8780   16.1080 C   0  0  1  0  0  0  0  0  0  0  0  0
   31.4620   31.9780   15.0410 O   0  0  0  0  0  0  0  0  0  0  0  0
   31.3350   32.8410   14.5790 H   0  0  0  0  0  0  0  0  0  0  0  0
   30.1070   33.1740   16.6640 C   0  0  0  0  0  0  0  0  0  0  0  0
   30.7610   33.5110   17.9140 N   0  0  0  0  0  0  0  0  0  0  0  0
   31.8010   34.3710   18.0550 C   0  0  0  0  0  0  0  0  0  0  0  0
   30.4550   33.0110   19.1250 C   0  0  0  0  0  0  0  0  0  0  0  0
   32.1240   34.3820   19.4000 C   0  0  0  0  0  0  0  0  0  0  0  0
   31.3050   33.5530   20.0500 N   0  0  0  0  0  0  0  0  0  0  0  0
   29.4450   32.0830   19.4810 N   0  0  0  0  0  0  0  0  0  0  0  0
   28.2470   32.4960   19.4940 O   0  0  0  0  0  0  0  0  0  0  0  0
   29.6300   30.7840   19.8150 O   0  0  0  0  0  0  0  0  0  0  0  0
   29.8670   25.5550   16.9770 C   0  0  0  0  0  0  0  0  0  0  0  0
   28.3450   25.7220   17.0260 C   0  0  0  0  0  0  0  0  0  0  0  0
   27.6010   24.4050   16.8650 C   0  0  0  0  0  0  0  0  0  0  0  0
   26.1470   24.5290   17.2270 C   0  0  0  0  0  0  0  0  0  0  0  0
   25.5830   23.1480   17.5480 C   0  0  0  0  0  0  0  0  0  0  0  0
   24.1270   23.1060   17.2720 N   0  0  0  0  0  0  0  0  0  0  0  0
  1  2  1  0  0  0  0
  2  3  1  0  0  0  0
  3  6  2  0  0  0  0
  4  7  1  0  0  0  0
  4  3  1  0  0  0  0
  5  4  1  0  0  0  0
  8  9  1  0  0  0  0
  8  7  1  1  0  0  0
  9 29  1  1  0  0  0
 10  9  1  6  0  0  0
 10 13  1  0  0  0  0
 10 15  1  0  0  0  0
 11 16  1  6  0  0  0
 11 18  1  0  0  0  0
 11 12  1  0  0  0  0
 12 14  1  0  0  0  0
 13 11  1  0  0  0  0
 14 22  1  6  0  0  0
 15 24  1  1  0  0  0
 15 14  1  0  0  0  0
 17 16  1  0  0  0  0
 18 19  2  0  0  0  0
 20 18  1  0  0  0  0
 21 20  1  0  0  0  0
 23 22  1  0  0  0  0
 24 26  1  0  0  0  0
 25 24  1  0  0  0  0
 25 27  1  0  0  0  0
 28 25  2  0  0  0  0
 29 30  1  0  0  0  0
 31  8  1  0  0  0  0
 32 31  1  0  0  0  0
 33  1  1  0  0  0  0
 34 33  2  0  0  0  0
 35 33  1  0  0  0  0
 36 34  1  0  0  0  0
 37 36  1  0  0  0  0
 37 35  2  0  0  0  0
 38 36  1  0  0  0  0
 39 41  1  0  0  0  0
 39 38  1  0  0  0  0
 40 39  2  0  0  0  0
 41 42  1  0  0  0  0
 43 41  1  0  0  0  0
 44 43  1  6  0  0  0
 44 47  1  0  0  0  0
 45 44  1  0  0  0  0
 46 45  1  0  0  0  0
 47 48  1  0  0  0  0
 48 49  1  0  0  0  0
 48 50  1  0  0  0  0
 49 51  2  0  0  0  0
 50 53  1  0  0  0  0
 50 52  2  0  0  0  0
 51 52  1  0  0  0  0
 53 54  2  0  0  0  0
 53 55  2  0  0  0  0
 56 57  1  0  0  0  0
 58 57  1  0  0  0  0
 58 59  1  0  0  0  0
 59 60  1  0  0  0  0
 61 60  1  0  0  0  0
M  END
>  <REMARK>
 VINA RESULT:    -5.162      7.853     15.648
 INTER + INTRA:         -16.655
 INTER:                  -8.750
 INTRA:                  -7.905
 UNBOUND:                -5.759
 SMILES CC(=O)N[C@@H]1[C@@H](O)C[C@](O)(C(=O)O)O[C@H]1C(O)[C@H](O)CNC(=O)OCc1cn(CC(=O)NCC(O)Cn2ccnc2[N+](=O)[O-])nn1
 SMILES IDX 25 1 24 2 22 3 21 4 23 6 20 7 18 8 16 9 15 10 9 11 8 12
 SMILES IDX 14 13 6 14 5 15 10 16 11 18 12 19 13 20 7 22 4 24 2 25 1 27
 SMILES IDX 3 28 17 29 19 31 26 33 27 34 46 35 28 36 45 37 29 38 30 39
 SMILES IDX 31 40 32 41 33 43 34 44 35 45 36 47 37 48 38 49 41 50 39 51
 SMILES IDX 40 52 42 53 43 54 44 55
 H PARENT 21 5 10 17 13 21 7 23 4 26 17 30 19 32 32 42 35 46
 Flexibility Score: inf
  4 active torsions:
  status: ('A' for Active; 'I' for Inactive)
    1  A    between atoms: CA   and  CB  
    2  A    between atoms: CB   and  CG  
    3  A    between atoms: CG   and  CD  
    4  A    between atoms: CD   and  CE  

>  <TORSDO>
F 22

>  <BEGIN_>
RES LYS A 131

$$$$
ligand_90_pose_15_2HRL.pdbqt
 OpenBabel07062320523D

  6  5  0  0  0  0  0  0  0  0999 V2000
   33.1930   34.6630    9.2900 C   0  0  0  0  0  0  0  0  0  0  0  0
   32.0600   35.3600   10.0340 C   0  0  0  0  0  0  0  0  0  0  0  0
   30.6880   34.9570    9.5580 C   0  0  0  0  0  0  0  0  0  0  0  0
   29.6980   34.9560   10.7120 C   0  0  0  0  0  0  0  0  0  0  0  0
   30.3640   35.4420   11.9850 C   0  0  0  0  0  0  0  0  0  0  0  0
   30.1380   34.4880   13.1060 N   0  0  0  0  0  0  0  0  0  0  0  0
  1  2  1  0  0  0  0
  3  2  1  0  0  0  0
  3  4  1  0  0  0  0
  4  5  1  0  0  0  0
  5  6  1  0  0  0  0
M  END
>  <EGIN_R>
ES LYS A 135

>  <REMARK>
  4 active torsions:
  status: ('A' for Active; 'I' for Inactive)
    5  A    between atoms: CA   and  CB  
    6  A    between atoms: CB   and  CG  
    7  A    between atoms: CG   and  CD  
    8  A    between atoms: CD   and  CE  

$$$$
