ligand_16_pose_12_2HRL.pdbqt
 OpenBabel07062320523D

 54 55  0  0  1  0  0  0  0  0999 V2000
   25.2060   35.0540   10.7310 N   0  0  0  0  0  0  0  0  0  0  0  0
   25.3190   35.2910   12.1110 C   0  0  0  0  0  0  0  0  0  0  0  0
   24.6420   36.1850   12.6440 O   0  0  0  0  0  0  0  0  0  0  0  0
   25.8240   34.2730   10.3520 H   0  0  0  0  0  0  0  0  0  0  0  0
   24.3300   35.7900    9.8580 C   0  0  0  0  0  0  0  0  0  0  0  0
   25.1450   36.5170    8.8220 C   0  0  2  0  0  0  0  0  0  0  0  0
   26.2950   37.2920    9.3830 C   0  0  1  0  0  0  0  0  0  0  0  0
   26.9930   38.0920    8.2690 C   0  0  2  0  0  0  0  0  0  0  0  0
   27.5530   37.8540    6.0380 C   0  0  2  0  0  0  0  0  0  0  0  0
   29.0440   37.7300    6.3100 C   0  0  0  0  0  0  0  0  0  0  0  0
   26.9060   37.3240    7.1280 O   0  0  0  0  0  0  0  0  0  0  0  0
   29.4030   38.4400    7.5750 C   0  0  1  0  0  0  0  0  0  0  0  0
   28.4110   38.2440    8.6870 C   0  0  1  0  0  0  0  0  0  0  0  0
   27.3290   36.9640    4.9480 O   0  0  0  0  0  0  0  0  0  0  0  0
   26.4650   36.4770    5.1270 H   0  0  0  0  0  0  0  0  0  0  0  0
   27.1740   39.2160    5.6530 C   0  0  0  0  0  0  0  0  0  0  0  0
   28.0680   39.9910    5.1670 O   0  0  0  0  0  0  0  0  0  0  0  0
   25.9200   39.7840    5.7580 O   0  0  0  0  0  0  0  0  0  0  0  0
   25.1270   39.1870    5.5650 H   0  0  0  0  0  0  0  0  0  0  0  0
   30.6290   37.8870    8.0160 O   0  0  0  0  0  0  0  0  0  0  0  0
   31.0850   37.5610    7.2020 H   0  0  0  0  0  0  0  0  0  0  0  0
   28.6080   39.2700    9.6910 N   0  0  0  0  0  0  0  0  0  0  0  0
   29.3480   39.0310   10.8760 C   0  0  0  0  0  0  0  0  0  0  0  0
   28.2080   40.2250    9.5680 H   0  0  0  0  0  0  0  0  0  0  0  0
   29.5400   40.1140   11.9070 C   0  0  0  0  0  0  0  0  0  0  0  0
   29.8420   37.9020   11.0550 O   0  0  0  0  0  0  0  0  0  0  0  0
   25.9880   38.0860   10.4610 O   0  0  0  0  0  0  0  0  0  0  0  0
   26.1990   37.6090   11.3040 H   0  0  0  0  0  0  0  0  0  0  0  0
   24.3590   37.3520    8.0170 O   0  0  0  0  0  0  0  0  0  0  0  0
   23.6220   37.7370    8.5720 H   0  0  0  0  0  0  0  0  0  0  0  0
   26.1640   34.5670   12.9420 O   0  0  0  0  0  0  0  0  0  0  0  0
   26.8530   35.1210   14.0370 C   0  0  0  0  0  0  0  0  0  0  0  0
   27.7320   34.1020   14.6450 C   0  0  0  0  0  0  0  0  0  0  0  0
   29.0990   33.9610   14.3990 C   0  0  0  0  0  0  0  0  0  0  0  0
   27.4470   33.1200   15.5230 N   0  0  0  0  0  0  0  0  0  0  0  0
   29.5640   32.9320   15.1180 N   0  0  0  0  0  0  0  0  0  0  0  0
   28.5490   32.4410   15.7860 N   0  0  0  0  0  0  0  0  0  0  0  0
   30.9500   32.4390   15.1410 C   0  0  0  0  0  0  0  0  0  0  0  0
   31.7780   33.6060   15.5850 C   0  0  0  0  0  0  0  0  0  0  0  0
   31.6850   34.0420   16.8770 C   0  0  0  0  0  0  0  0  0  0  0  0
   32.6280   34.2550   14.7250 C   0  0  0  0  0  0  0  0  0  0  0  0
   32.4410   35.1310   17.3210 C   0  0  0  0  0  0  0  0  0  0  0  0
   33.3800   35.3390   15.1650 C   0  0  0  0  0  0  0  0  0  0  0  0
   33.2950   35.7890   16.4680 C   0  0  0  0  0  0  0  0  0  0  0  0
   34.0890   36.9230   16.9190 C   0  0  0  0  0  0  0  0  0  0  0  0
   35.3400   36.9190   16.9260 O   0  0  0  0  0  0  0  0  0  0  0  0
   33.4430   38.0710   17.3640 O   0  0  0  0  0  0  0  0  0  0  0  0
   33.9580   38.8930   17.6270 H   0  0  0  0  0  0  0  0  0  0  0  0
   29.8670   25.5550   16.9770 C   0  0  0  0  0  0  0  0  0  0  0  0
   28.3450   25.7220   17.0260 C   0  0  0  0  0  0  0  0  0  0  0  0
   27.6000   24.4080   16.8470 C   0  0  0  0  0  0  0  0  0  0  0  0
   26.1540   24.5180   17.2410 C   0  0  0  0  0  0  0  0  0  0  0  0
   26.0530   24.7840   18.7400 C   0  0  0  0  0  0  0  0  0  0  0  0
   25.5170   23.5950   19.4430 N   0  0  0  0  0  0  0  0  0  0  0  0
  1  2  1  0  0  0  0
  2  3  2  0  0  0  0
  2 31  1  0  0  0  0
  4  1  1  0  0  0  0
  5  1  1  0  0  0  0
  6  7  1  0  0  0  0
  6  5  1  1  0  0  0
  7 27  1  1  0  0  0
  8 13  1  0  0  0  0
  8  7  1  1  0  0  0
  9 14  1  6  0  0  0
  9 10  1  0  0  0  0
  9 11  1  0  0  0  0
 10 12  1  0  0  0  0
 11  8  1  0  0  0  0
 12 20  1  1  0  0  0
 12 13  1  0  0  0  0
 13 22  1  1  0  0  0
 14 15  1  0  0  0  0
 16 18  1  0  0  0  0
 16  9  1  0  0  0  0
 17 16  2  0  0  0  0
 19 18  1  0  0  0  0
 21 20  1  0  0  0  0
 22 23  1  0  0  0  0
 23 26  2  0  0  0  0
 23 25  1  0  0  0  0
 24 22  1  0  0  0  0
 27 28  1  0  0  0  0
 29 30  1  0  0  0  0
 29  6  1  0  0  0  0
 31 32  1  0  0  0  0
 32 33  1  0  0  0  0
 33 35  1  0  0  0  0
 34 33  2  0  0  0  0
 34 36  1  0  0  0  0
 35 37  2  0  0  0  0
 36 38  1  0  0  0  0
 36 37  1  0  0  0  0
 38 39  1  0  0  0  0
 39 40  2  0  0  0  0
 40 42  1  0  0  0  0
 41 43  2  0  0  0  0
 41 39  1  0  0  0  0
 43 44  1  0  0  0  0
 44 45  1  0  0  0  0
 44 42  2  0  0  0  0
 45 46  2  0  0  0  0
 45 47  1  0  0  0  0
 47 48  1  0  0  0  0
 49 50  1  0  0  0  0
 51 50  1  0  0  0  0
 51 52  1  0  0  0  0
 52 53  1  0  0  0  0
 53 54  1  0  0  0  0
M  END
>  <REMARK>
 VINA RESULT:    -5.857      5.762     11.604
 INTER + INTRA:         -14.985
 INTER:                  -9.772
 INTRA:                  -5.214
 UNBOUND:                -3.993
 SMILES CC(=O)N[C@@H]1[C@@H](O)C[C@](O)(C(=O)O)O[C@H]1C(O)[C@H](O)CNC(=O)OCc1cn(Cc2ccc(C(=O)O)cc2)nn1
 SMILES IDX 21 1 22 2 23 3 20 5 18 6 16 7 15 8 9 9 8 10 14 11 6 12 5 13
 SMILES IDX 10 14 11 16 12 17 13 18 7 20 4 22 2 23 1 25 3 26 17 27 19 29
 SMILES IDX 24 31 25 32 26 33 27 34 40 35 28 36 39 37 29 38 30 39 31 40
 SMILES IDX 38 41 32 42 37 43 33 44 34 45 35 46 36 47
 H PARENT 21 4 10 15 13 19 7 21 4 24 17 28 19 30 36 48
 Flexibility Score: inf
  4 active torsions:
  status: ('A' for Active; 'I' for Inactive)
    1  A    between atoms: CA   and  CB  
    2  A    between atoms: CB   and  CG  
    3  A    between atoms: CG   and  CD  
    4  A    between atoms: CD   and  CE  

>  <TORSDO>
F 18

>  <BEGIN_>
RES LYS A 131

$$$$
ligand_16_pose_12_2HRL.pdbqt
 OpenBabel07062320523D

  6  5  0  0  0  0  0  0  0  0999 V2000
   33.1930   34.6630    9.2900 C   0  0  0  0  0  0  0  0  0  0  0  0
   32.0600   35.3600   10.0340 C   0  0  0  0  0  0  0  0  0  0  0  0
   30.7400   34.6410    9.9310 C   0  0  0  0  0  0  0  0  0  0  0  0
   30.3280   34.4810    8.4760 C   0  0  0  0  0  0  0  0  0  0  0  0
   28.8190   34.5530    8.3380 C   0  0  0  0  0  0  0  0  0  0  0  0
   28.1440   33.8600    9.4710 N   0  0  0  0  0  0  0  0  0  0  0  0
  1  2  1  0  0  0  0
  3  2  1  0  0  0  0
  4  3  1  0  0  0  0
  5  4  1  0  0  0  0
  5  6  1  0  0  0  0
M  END
>  <EGIN_R>
ES LYS A 135

>  <REMARK>
  4 active torsions:
  status: ('A' for Active; 'I' for Inactive)
    5  A    between atoms: CA   and  CB  
    6  A    between atoms: CB   and  CG  
    7  A    between atoms: CG   and  CD  
    8  A    between atoms: CD   and  CE  

$$$$
