ligand_54_pose_17_2HRL.pdbqt
 OpenBabel07062320523D

 52 52  0  0  1  0  0  0  0  0999 V2000
   30.2500   38.9620    9.4390 O   0  0  0  0  0  0  0  0  0  0  0  0
   29.4580   39.4850    8.4060 C   0  0  0  0  0  0  0  0  0  0  0  0
   28.2730   38.8470    7.9820 N   0  0  0  0  0  0  0  0  0  0  0  0
   28.0230   37.9530    8.5140 H   0  0  0  0  0  0  0  0  0  0  0  0
   29.8350   40.5300    7.8710 O   0  0  0  0  0  0  0  0  0  0  0  0
   27.3850   39.2590    6.9420 C   0  0  0  0  0  0  0  0  0  0  0  0
   25.9950   39.4860    7.4630 C   0  0  2  0  0  0  0  0  0  0  0  0
   25.7030   38.3200    8.4040 C   0  0  2  0  0  0  0  0  0  0  0  0
   24.2790   37.8680    8.3080 C   0  0  2  0  0  0  0  0  0  0  0  0
   22.1920   38.4480    9.1380 C   0  0  2  0  0  0  0  0  0  0  0  0
   21.7170   37.0850    8.7550 C   0  0  0  0  0  0  0  0  0  0  0  0
   23.3600   38.8560    8.5100 O   0  0  0  0  0  0  0  0  0  0  0  0
   22.7780   36.0240    8.7470 C   0  0  1  0  0  0  0  0  0  0  0  0
   24.0650   36.6650    9.2200 C   0  0  1  0  0  0  0  0  0  0  0  0
   22.2830   38.5640   10.5280 O   0  0  0  0  0  0  0  0  0  0  0  0
   22.8480   39.3730   10.7110 H   0  0  0  0  0  0  0  0  0  0  0  0
   21.1380   39.4040    8.6930 C   0  0  0  0  0  0  0  0  0  0  0  0
   20.0140   39.4240    9.2370 O   0  0  0  0  0  0  0  0  0  0  0  0
   21.4310   40.2900    7.6390 O   0  0  0  0  0  0  0  0  0  0  0  0
   20.6710   40.4510    6.9800 H   0  0  0  0  0  0  0  0  0  0  0  0
   22.4390   34.8990    9.4880 O   0  0  0  0  0  0  0  0  0  0  0  0
   23.0550   34.8790   10.2650 H   0  0  0  0  0  0  0  0  0  0  0  0
   25.2050   35.7870    9.0590 N   0  0  0  0  0  0  0  0  0  0  0  0
   25.7940   35.1930   10.2070 C   0  0  0  0  0  0  0  0  0  0  0  0
   25.6290   35.5550    8.1440 H   0  0  0  0  0  0  0  0  0  0  0  0
   26.9570   34.2860   10.1370 C   0  0  0  0  0  0  0  0  0  0  0  0
   25.3020   35.4530   11.3390 O   0  0  0  0  0  0  0  0  0  0  0  0
   26.0530   38.6960    9.6910 O   0  0  0  0  0  0  0  0  0  0  0  0
   25.3660   38.4450   10.3660 H   0  0  0  0  0  0  0  0  0  0  0  0
   25.0740   39.4210    6.4490 O   0  0  0  0  0  0  0  0  0  0  0  0
   24.3020   38.8350    6.6590 H   0  0  0  0  0  0  0  0  0  0  0  0
   30.1350   39.4770   10.7620 C   0  0  0  0  0  0  0  0  0  0  0  0
   29.1650   38.6660   11.5190 C   0  0  0  0  0  0  0  0  0  0  0  0
   29.5170   37.4490   12.1110 C   0  0  0  0  0  0  0  0  0  0  0  0
   27.8830   38.8330   11.8100 N   0  0  0  0  0  0  0  0  0  0  0  0
   28.4300   36.9420   12.7280 N   0  0  0  0  0  0  0  0  0  0  0  0
   27.4610   37.7900   12.5350 N   0  0  0  0  0  0  0  0  0  0  0  0
   28.4220   35.6950   13.4400 C   0  0  0  0  0  0  0  0  0  0  0  0
   29.6120   34.8220   13.1190 C   0  0  0  0  0  0  0  0  0  0  0  0
   30.5030   34.5900   14.3000 C   0  0  0  0  0  0  0  0  0  0  0  0
   29.7110   34.2030   15.3740 O   0  0  0  0  0  0  0  0  0  0  0  0
   30.4730   33.4830   16.3020 C   0  0  0  0  0  0  0  0  0  0  0  0
   31.1120   32.2720   15.6740 C   0  0  0  0  0  0  0  0  0  0  0  0
   31.2200   35.7040   14.6520 O   0  0  0  0  0  0  0  0  0  0  0  0
   32.3550   35.8770   13.8600 C   0  0  0  0  0  0  0  0  0  0  0  0
   33.4060   34.8570   14.2840 C   0  0  0  0  0  0  0  0  0  0  0  0
   29.8670   25.5550   16.9770 C   0  0  0  0  0  0  0  0  0  0  0  0
   28.3450   25.7220   17.0260 C   0  0  0  0  0  0  0  0  0  0  0  0
   27.6010   24.4050   16.8650 C   0  0  0  0  0  0  0  0  0  0  0  0
   26.5730   24.2000   17.9430 C   0  0  0  0  0  0  0  0  0  0  0  0
   26.4080   25.4890   18.7410 C   0  0  0  0  0  0  0  0  0  0  0  0
   25.0380   26.0300   18.5760 N   0  0  0  0  0  0  0  0  0  0  0  0
  1 32  1  0  0  0  0
  2  1  1  0  0  0  0
  3  2  1  0  0  0  0
  3  4  1  0  0  0  0
  5  2  2  0  0  0  0
  6  3  1  0  0  0  0
  7  6  1  6  0  0  0
  7  8  1  0  0  0  0
  8 28  1  1  0  0  0
  9  8  1  1  0  0  0
  9 12  1  0  0  0  0
  9 14  1  0  0  0  0
 10 17  1  6  0  0  0
 10 15  1  0  0  0  0
 11 10  1  0  0  0  0
 12 10  1  0  0  0  0
 13 11  1  0  0  0  0
 13 14  1  0  0  0  0
 13 21  1  1  0  0  0
 14 23  1  6  0  0  0
 15 16  1  0  0  0  0
 17 18  2  0  0  0  0
 19 17  1  0  0  0  0
 20 19  1  0  0  0  0
 21 22  1  0  0  0  0
 23 24  1  0  0  0  0
 24 27  2  0  0  0  0
 25 23  1  0  0  0  0
 26 24  1  0  0  0  0
 28 29  1  0  0  0  0
 30 31  1  0  0  0  0
 30  7  1  0  0  0  0
 32 33  1  0  0  0  0
 33 35  1  0  0  0  0
 33 34  2  0  0  0  0
 34 36  1  0  0  0  0
 35 37  2  0  0  0  0
 36 38  1  0  0  0  0
 37 36  1  0  0  0  0
 39 38  1  0  0  0  0
 39 40  1  0  0  0  0
 40 44  1  0  0  0  0
 40 41  1  0  0  0  0
 41 42  1  0  0  0  0
 43 42  1  0  0  0  0
 45 46  1  0  0  0  0
 45 44  1  0  0  0  0
 47 48  1  0  0  0  0
 49 48  1  0  0  0  0
 49 50  1  0  0  0  0
 50 51  1  0  0  0  0
 52 51  1  0  0  0  0
M  END
>  <REMARK>
 VINA RESULT:    -4.043      6.120     11.807
 INTER + INTRA:         -14.355
 INTER:                  -7.970
 INTRA:                  -6.385
 UNBOUND:                -5.938
 SMILES CCOC(CCn1cc(COC(=O)NC[C@@H](O)C(O)[C@@H]2O[C@@](O)(C(=O)O)C[C@H](O)[C@H]2NC(C)=O)nn1)OCC
 SMILES IDX 11 1 12 2 14 3 13 5 15 6 16 7 18 8 20 9 22 10 27 11 21 12
 SMILES IDX 28 13 30 14 23 15 24 17 25 18 26 19 29 21 31 23 32 24 33 26
 SMILES IDX 34 27 19 28 17 30 10 32 9 33 8 34 35 35 7 36 36 37 6 38 5 39
 SMILES IDX 4 40 3 41 2 42 1 43 37 44 38 45 39 46
 H PARENT 14 4 23 16 26 20 29 22 31 25 19 29 17 31
 Flexibility Score: inf
  4 active torsions:
  status: ('A' for Active; 'I' for Inactive)
    1  A    between atoms: CA   and  CB  
    2  A    between atoms: CB   and  CG  
    3  A    between atoms: CG   and  CD  
    4  A    between atoms: CD   and  CE  

>  <TORSDO>
F 21

>  <BEGIN_>
RES LYS A 131

$$$$
ligand_54_pose_17_2HRL.pdbqt
 OpenBabel07062320523D

  6  5  0  0  0  0  0  0  0  0999 V2000
   33.1930   34.6630    9.2900 C   0  0  0  0  0  0  0  0  0  0  0  0
   32.0600   35.3600   10.0340 C   0  0  0  0  0  0  0  0  0  0  0  0
   30.7360   34.6510    9.9160 C   0  0  0  0  0  0  0  0  0  0  0  0
   30.3340   34.5030    8.4570 C   0  0  0  0  0  0  0  0  0  0  0  0
   29.6010   35.7410    7.9780 C   0  0  0  0  0  0  0  0  0  0  0  0
   28.7990   35.4510    6.7570 N   0  0  0  0  0  0  0  0  0  0  0  0
  1  2  1  0  0  0  0
  3  2  1  0  0  0  0
  4  3  1  0  0  0  0
  5  4  1  0  0  0  0
  6  5  1  0  0  0  0
M  END
>  <EGIN_R>
ES LYS A 135

>  <REMARK>
  4 active torsions:
  status: ('A' for Active; 'I' for Inactive)
    5  A    between atoms: CA   and  CB  
    6  A    between atoms: CB   and  CG  
    7  A    between atoms: CG   and  CD  
    8  A    between atoms: CD   and  CE  

$$$$
