ligand_39_pose_2_2HRL.pdbqt
 OpenBabel07062320523D

 51 52  0  0  1  0  0  0  0  0999 V2000
   28.6550   31.4340   16.8810 N   0  0  0  0  0  0  0  0  0  0  0  0
   27.9550   30.5720   16.0300 C   0  0  0  0  0  0  0  0  0  0  0  0
   28.5800   29.6490   15.4390 O   0  0  0  0  0  0  0  0  0  0  0  0
   28.0950   32.1940   17.3590 H   0  0  0  0  0  0  0  0  0  0  0  0
   30.0740   31.3610   17.1500 C   0  0  0  0  0  0  0  0  0  0  0  0
   30.8050   32.3490   16.2660 C   0  0  2  0  0  0  0  0  0  0  0  0
   30.0840   33.6790   16.2120 C   0  0  2  0  0  0  0  0  0  0  0  0
   30.9080   34.7460   15.5200 C   0  0  2  0  0  0  0  0  0  0  0  0
   32.8870   34.9550   14.3030 C   0  0  2  0  0  0  0  0  0  0  0  0
   33.3990   36.0200   15.1960 C   0  0  0  0  0  0  0  0  0  0  0  0
   32.0060   34.1360   14.9920 O   0  0  0  0  0  0  0  0  0  0  0  0
   32.6660   36.2720   16.4550 C   0  0  1  0  0  0  0  0  0  0  0  0
   31.2140   35.8870   16.4480 C   0  0  1  0  0  0  0  0  0  0  0  0
   33.9670   34.1070   13.9460 O   0  0  0  0  0  0  0  0  0  0  0  0
   34.7960   34.6320   13.7880 H   0  0  0  0  0  0  0  0  0  0  0  0
   32.3300   35.5020   13.0640 C   0  0  0  0  0  0  0  0  0  0  0  0
   32.2440   36.7390   12.8310 O   0  0  0  0  0  0  0  0  0  0  0  0
   31.8670   34.6340   12.0860 O   0  0  0  0  0  0  0  0  0  0  0  0
   30.9200   34.2740   12.0710 H   0  0  0  0  0  0  0  0  0  0  0  0
   33.3350   35.6720   17.5390 O   0  0  0  0  0  0  0  0  0  0  0  0
   34.2400   36.1180   17.5500 H   0  0  0  0  0  0  0  0  0  0  0  0
   30.3640   37.0330   16.2130 N   0  0  0  0  0  0  0  0  0  0  0  0
   29.4400   37.5120   17.1760 C   0  0  0  0  0  0  0  0  0  0  0  0
   30.4220   37.5360   15.3050 H   0  0  0  0  0  0  0  0  0  0  0  0
   28.5560   38.6900   16.9500 C   0  0  0  0  0  0  0  0  0  0  0  0
   29.3880   36.8770   18.2840 O   0  0  0  0  0  0  0  0  0  0  0  0
   29.7010   34.0600   17.4930 O   0  0  0  0  0  0  0  0  0  0  0  0
   30.5220   34.3560   17.9960 H   0  0  0  0  0  0  0  0  0  0  0  0
   30.8270   31.7530   14.9820 O   0  0  0  0  0  0  0  0  0  0  0  0
   31.0080   32.3990   14.2820 H   0  0  0  0  0  0  0  0  0  0  0  0
   26.5930   30.6520   15.7790 O   0  0  0  0  0  0  0  0  0  0  0  0
   25.8840   31.8470   16.0610 C   0  0  0  0  0  0  0  0  0  0  0  0
   25.6950   32.6660   14.8460 C   0  0  0  0  0  0  0  0  0  0  0  0
   26.4460   33.7850   14.4590 C   0  0  0  0  0  0  0  0  0  0  0  0
   24.7910   32.5350   13.8680 N   0  0  0  0  0  0  0  0  0  0  0  0
   26.0030   34.2800   13.3160 N   0  0  0  0  0  0  0  0  0  0  0  0
   24.9670   33.4790   12.9690 N   0  0  0  0  0  0  0  0  0  0  0  0
   26.3800   35.3990   12.4850 C   0  0  0  0  0  0  0  0  0  0  0  0
   26.6060   35.0970   11.0780 C   0  0  0  0  0  0  0  0  0  0  0  0
   27.5650   34.1580   10.6890 C   0  0  0  0  0  0  0  0  0  0  0  0
   25.8810   35.6840   10.0820 C   0  0  0  0  0  0  0  0  0  0  0  0
   27.7410   33.8630    9.3650 C   0  0  0  0  0  0  0  0  0  0  0  0
   26.0630   35.3840    8.7440 C   0  0  0  0  0  0  0  0  0  0  0  0
   24.5600   37.0350   10.4750 Br  0  0  0  0  0  0  0  0  0  0  0  0
   27.0060   34.4590    8.3710 C   0  0  0  0  0  0  0  0  0  0  0  0
   29.8670   25.5550   16.9770 C   0  0  0  0  0  0  0  0  0  0  0  0
   28.3450   25.7220   17.0260 C   0  0  0  0  0  0  0  0  0  0  0  0
   27.6010   24.4030   16.8860 C   0  0  0  0  0  0  0  0  0  0  0  0
   26.1460   24.5330   17.2410 C   0  0  0  0  0  0  0  0  0  0  0  0
   25.9660   24.3130   18.7400 C   0  0  0  0  0  0  0  0  0  0  0  0
   25.5520   25.5720   19.4030 N   0  0  0  0  0  0  0  0  0  0  0  0
  1  5  1  0  0  0  0
  1  4  1  0  0  0  0
  2  1  1  0  0  0  0
  3  2  2  0  0  0  0
  6  5  1  1  0  0  0
  7  6  1  0  0  0  0
  7 27  1  1  0  0  0
  8  7  1  1  0  0  0
  8 13  1  0  0  0  0
  9 16  1  6  0  0  0
  9 11  1  0  0  0  0
  9 10  1  0  0  0  0
 10 12  1  0  0  0  0
 11  8  1  0  0  0  0
 12 20  1  1  0  0  0
 13 22  1  6  0  0  0
 13 12  1  0  0  0  0
 14  9  1  0  0  0  0
 15 14  1  0  0  0  0
 17 16  2  0  0  0  0
 18 16  1  0  0  0  0
 19 18  1  0  0  0  0
 20 21  1  0  0  0  0
 22 23  1  0  0  0  0
 23 26  2  0  0  0  0
 24 22  1  0  0  0  0
 25 23  1  0  0  0  0
 27 28  1  0  0  0  0
 29  6  1  0  0  0  0
 30 29  1  0  0  0  0
 31  2  1  0  0  0  0
 31 32  1  0  0  0  0
 33 32  1  0  0  0  0
 34 33  2  0  0  0  0
 35 33  1  0  0  0  0
 36 34  1  0  0  0  0
 37 36  1  0  0  0  0
 37 35  2  0  0  0  0
 38 36  1  0  0  0  0
 39 38  1  0  0  0  0
 40 39  1  0  0  0  0
 41 44  1  0  0  0  0
 41 39  2  0  0  0  0
 42 40  2  0  0  0  0
 43 41  1  0  0  0  0
 45 43  2  0  0  0  0
 45 42  1  0  0  0  0
 46 47  1  0  0  0  0
 48 47  1  0  0  0  0
 48 49  1  0  0  0  0
 49 50  1  0  0  0  0
 50 51  1  0  0  0  0
M  END
>  <REMARK>
 VINA RESULT:    -4.437      3.817      6.848
 INTER + INTRA:         -15.364
 INTER:                 -10.293
 INTRA:                  -5.071
 UNBOUND:                -7.426
 SMILES CC(=O)N[C@@H]1[C@@H](O)C[C@](O)(C(=O)O)O[C@H]1C(O)[C@H](O)CNC(=O)OCc1cn(Cc2ccccc2Br)nn1
 SMILES IDX 21 1 22 2 23 3 20 5 18 6 16 7 15 8 9 9 8 10 14 11 6 12 5 13
 SMILES IDX 10 14 11 16 12 17 13 18 7 20 4 22 2 23 1 25 3 26 17 27 19 29
 SMILES IDX 24 31 25 32 26 33 27 34 38 35 28 36 37 37 29 38 30 39 31 40
 SMILES IDX 35 41 32 42 34 43 36 44 33 45
 H PARENT 21 4 10 15 13 19 7 21 4 24 17 28 19 30
 Flexibility Score: inf
  4 active torsions:
  status: ('A' for Active; 'I' for Inactive)
    1  A    between atoms: CA   and  CB  
    2  A    between atoms: CB   and  CG  
    3  A    between atoms: CG   and  CD  
    4  A    between atoms: CD   and  CE  

>  <TORSDO>
F 16

>  <BEGIN_>
RES LYS A 131

$$$$
ligand_39_pose_2_2HRL.pdbqt
 OpenBabel07062320523D

  6  5  0  0  0  0  0  0  0  0999 V2000
   33.1930   34.6630    9.2900 C   0  0  0  0  0  0  0  0  0  0  0  0
   32.0600   35.3600   10.0340 C   0  0  0  0  0  0  0  0  0  0  0  0
   30.8100   35.5260    9.2090 C   0  0  0  0  0  0  0  0  0  0  0  0
   30.1030   36.8260    9.5600 C   0  0  0  0  0  0  0  0  0  0  0  0
   31.0910   37.9770    9.5920 C   0  0  0  0  0  0  0  0  0  0  0  0
   30.7570   38.9400   10.6770 N   0  0  0  0  0  0  0  0  0  0  0  0
  1  2  1  0  0  0  0
  3  4  1  0  0  0  0
  3  2  1  0  0  0  0
  4  5  1  0  0  0  0
  5  6  1  0  0  0  0
M  END
>  <EGIN_R>
ES LYS A 135

>  <REMARK>
  4 active torsions:
  status: ('A' for Active; 'I' for Inactive)
    5  A    between atoms: CA   and  CB  
    6  A    between atoms: CB   and  CG  
    7  A    between atoms: CG   and  CD  
    8  A    between atoms: CD   and  CE  

$$$$
