ligand_11_pose_12_2HRL.pdbqt
 OpenBabel07062320523D

 54 54  0  0  1  0  0  0  0  0999 V2000
   28.1740   38.8120   11.4250 O   0  0  0  0  0  0  0  0  0  0  0  0
   27.0150   38.7210   10.6450 C   0  0  0  0  0  0  0  0  0  0  0  0
   26.9570   37.9700    9.4620 N   0  0  0  0  0  0  0  0  0  0  0  0
   27.8690   37.4750    9.1860 H   0  0  0  0  0  0  0  0  0  0  0  0
   26.0210   39.3450   11.0510 O   0  0  0  0  0  0  0  0  0  0  0  0
   25.8240   37.8000    8.5970 C   0  0  0  0  0  0  0  0  0  0  0  0
   25.1230   36.5240    8.8540 C   0  0  2  0  0  0  0  0  0  0  0  0
   24.1020   36.6140    9.9730 C   0  0  1  0  0  0  0  0  0  0  0  0
   23.0110   35.5550    9.7820 C   0  0  2  0  0  0  0  0  0  0  0  0
   21.3750   36.4770    8.3850 C   0  0  2  0  0  0  0  0  0  0  0  0
   20.9180   37.1970    9.6210 C   0  0  0  0  0  0  0  0  0  0  0  0
   22.4090   35.6120    8.5680 O   0  0  0  0  0  0  0  0  0  0  0  0
   20.9240   36.3930   10.8710 C   0  0  1  0  0  0  0  0  0  0  0  0
   22.1090   35.4790   10.9770 C   0  0  1  0  0  0  0  0  0  0  0  0
   21.8010   37.4680    7.4980 O   0  0  0  0  0  0  0  0  0  0  0  0
   21.2000   38.2410    7.4960 H   0  0  0  0  0  0  0  0  0  0  0  0
   20.2260   35.7800    7.7550 C   0  0  0  0  0  0  0  0  0  0  0  0
   19.1910   36.4210    7.4560 O   0  0  0  0  0  0  0  0  0  0  0  0
   20.2510   34.4170    7.4780 O   0  0  0  0  0  0  0  0  0  0  0  0
   21.1730   33.9800    7.4600 H   0  0  0  0  0  0  0  0  0  0  0  0
   20.9380   37.2770   11.9490 O   0  0  0  0  0  0  0  0  0  0  0  0
   21.6600   37.9520   11.8520 H   0  0  0  0  0  0  0  0  0  0  0  0
   21.7400   34.1070   11.1720 N   0  0  0  0  0  0  0  0  0  0  0  0
   21.7080   33.5700   12.4840 C   0  0  0  0  0  0  0  0  0  0  0  0
   21.4920   33.4960   10.3410 H   0  0  0  0  0  0  0  0  0  0  0  0
   21.3280   32.1570   12.6890 C   0  0  0  0  0  0  0  0  0  0  0  0
   21.9950   34.2560   13.5020 O   0  0  0  0  0  0  0  0  0  0  0  0
   24.7340   36.4030   11.1830 O   0  0  0  0  0  0  0  0  0  0  0  0
   25.3420   35.6270   11.0910 H   0  0  0  0  0  0  0  0  0  0  0  0
   25.9630   35.4650    8.9750 O   0  0  0  0  0  0  0  0  0  0  0  0
   26.8770   35.6060    8.6390 H   0  0  0  0  0  0  0  0  0  0  0  0
   29.0080   37.6680   11.5810 C   0  0  0  0  0  0  0  0  0  0  0  0
   28.2580   36.4930   12.0030 C   0  0  0  0  0  0  0  0  0  0  0  0
   27.9880   36.0640   13.2750 C   0  0  0  0  0  0  0  0  0  0  0  0
   27.6770   35.5910   11.1970 N   0  0  0  0  0  0  0  0  0  0  0  0
   27.2640   34.9370   13.2320 N   0  0  0  0  0  0  0  0  0  0  0  0
   27.0910   34.6760   11.9500 N   0  0  0  0  0  0  0  0  0  0  0  0
   26.7320   34.1000   14.2920 C   0  0  1  0  0  0  0  0  0  0  0  0
   27.7000   34.0080   15.4150 C   0  0  0  0  0  0  0  0  0  0  0  0
   28.6470   32.8680   15.3740 C   0  0  0  0  0  0  0  0  0  0  0  0
   30.0280   33.2560   15.0930 C   0  0  0  0  0  0  0  0  0  0  0  0
   30.4190   34.4680   15.2170 O   0  0  0  0  0  0  0  0  0  0  0  0
   30.9510   32.2930   14.6770 O   0  0  0  0  0  0  0  0  0  0  0  0
   31.5330   31.8720   15.3880 H   0  0  0  0  0  0  0  0  0  0  0  0
   25.3460   34.3820   14.6210 C   0  0  0  0  0  0  0  0  0  0  0  0
   24.7140   33.9100   15.5650 O   0  0  0  0  0  0  0  0  0  0  0  0
   24.6620   35.2740   13.7740 O   0  0  0  0  0  0  0  0  0  0  0  0
   23.6570   35.2400   13.7500 H   0  0  0  0  0  0  0  0  0  0  0  0
   29.8670   25.5550   16.9770 C   0  0  0  0  0  0  0  0  0  0  0  0
   28.3450   25.7220   17.0260 C   0  0  0  0  0  0  0  0  0  0  0  0
   27.6010   24.4030   16.8840 C   0  0  0  0  0  0  0  0  0  0  0  0
   26.6350   24.1730   18.0120 C   0  0  0  0  0  0  0  0  0  0  0  0
   25.5570   23.1900   17.5670 C   0  0  0  0  0  0  0  0  0  0  0  0
   24.4560   23.9030   16.8780 N   0  0  0  0  0  0  0  0  0  0  0  0
  1 32  1  0  0  0  0
  2  5  2  0  0  0  0
  2  1  1  0  0  0  0
  3  2  1  0  0  0  0
  4  3  1  0  0  0  0
  6  3  1  0  0  0  0
  7  6  1  1  0  0  0
  7 30  1  0  0  0  0
  7  8  1  0  0  0  0
  8 28  1  1  0  0  0
  9  8  1  1  0  0  0
  9 14  1  0  0  0  0
 10 15  1  6  0  0  0
 10 12  1  0  0  0  0
 10 11  1  0  0  0  0
 11 13  1  0  0  0  0
 12  9  1  0  0  0  0
 13 14  1  0  0  0  0
 13 21  1  1  0  0  0
 14 23  1  6  0  0  0
 16 15  1  0  0  0  0
 17 10  1  0  0  0  0
 18 17  2  0  0  0  0
 19 17  1  0  0  0  0
 20 19  1  0  0  0  0
 22 21  1  0  0  0  0
 23 24  1  0  0  0  0
 24 26  1  0  0  0  0
 24 27  2  0  0  0  0
 25 23  1  0  0  0  0
 29 28  1  0  0  0  0
 31 30  1  0  0  0  0
 32 33  1  0  0  0  0
 33 34  2  0  0  0  0
 35 37  2  0  0  0  0
 35 33  1  0  0  0  0
 36 34  1  0  0  0  0
 36 38  1  0  0  0  0
 37 36  1  0  0  0  0
 38 45  1  0  0  0  0
 38 39  1  1  0  0  0
 40 39  1  0  0  0  0
 41 42  2  0  0  0  0
 41 40  1  0  0  0  0
 43 41  1  0  0  0  0
 43 44  1  0  0  0  0
 45 46  2  0  0  0  0
 47 45  1  0  0  0  0
 48 47  1  0  0  0  0
 49 50  1  0  0  0  0
 51 50  1  0  0  0  0
 51 52  1  0  0  0  0
 53 52  1  0  0  0  0
 54 53  1  0  0  0  0
M  END
>  <REMARK>
 VINA RESULT:    -3.896      2.416      5.414
 INTER + INTRA:         -15.320
 INTER:                  -8.139
 INTRA:                  -7.181
 UNBOUND:                -7.438
 SMILES CC(=O)N[C@@H]1[C@@H](O)C[C@](O)(C(=O)O)O[C@H]1C(O)[C@H](O)CNC(=O)OCc1cn([C@@H](CCC(=O)O)C(=O)O)nn1
 SMILES IDX 24 1 22 2 21 3 23 5 20 6 18 7 16 8 15 9 9 10 8 11 14 12 6 13
 SMILES IDX 5 14 10 15 11 17 12 18 13 19 7 21 4 23 2 24 1 26 3 27 17 28
 SMILES IDX 19 30 25 32 26 33 27 34 39 35 28 36 38 37 29 38 30 39 31 40
 SMILES IDX 32 41 33 42 34 43 35 45 36 46 37 47
 H PARENT 21 4 10 16 13 20 7 22 4 25 17 29 19 31 34 44 37 48
 Flexibility Score: inf
  4 active torsions:
  status: ('A' for Active; 'I' for Inactive)
    1  A    between atoms: CA   and  CB  
    2  A    between atoms: CB   and  CG  
    3  A    between atoms: CG   and  CD  
    4  A    between atoms: CD   and  CE  

>  <TORSDO>
F 21

>  <BEGIN_>
RES LYS A 131

$$$$
ligand_11_pose_12_2HRL.pdbqt
 OpenBabel07062320523D

  6  5  0  0  0  0  0  0  0  0999 V2000
   33.1930   34.6630    9.2900 C   0  0  0  0  0  0  0  0  0  0  0  0
   32.0600   35.3600   10.0340 C   0  0  0  0  0  0  0  0  0  0  0  0
   30.6910   34.8630    9.6480 C   0  0  0  0  0  0  0  0  0  0  0  0
   30.1170   35.6990    8.5140 C   0  0  0  0  0  0  0  0  0  0  0  0
   29.1070   34.8940    7.7180 C   0  0  0  0  0  0  0  0  0  0  0  0
   28.6310   35.6550    6.5300 N   0  0  0  0  0  0  0  0  0  0  0  0
  1  2  1  0  0  0  0
  3  2  1  0  0  0  0
  4  3  1  0  0  0  0
  5  4  1  0  0  0  0
  6  5  1  0  0  0  0
M  END
>  <EGIN_R>
ES LYS A 135

>  <REMARK>
  4 active torsions:
  status: ('A' for Active; 'I' for Inactive)
    5  A    between atoms: CA   and  CB  
    6  A    between atoms: CB   and  CG  
    7  A    between atoms: CG   and  CD  
    8  A    between atoms: CD   and  CE  

$$$$
