ligand_71_pose_4_2HRL.pdbqt
 OpenBabel07062320523D

 54 55  0  0  1  0  0  0  0  0999 V2000
   29.6200   40.8020    8.6520 N   0  0  0  0  0  0  0  0  0  0  0  0
   31.0340   40.6570    8.4370 C   0  0  0  0  0  0  0  0  0  0  0  0
   31.7700   40.1350    9.3100 O   0  0  0  0  0  0  0  0  0  0  0  0
   29.0300   41.2330    7.9210 H   0  0  0  0  0  0  0  0  0  0  0  0
   29.0820   40.3310    9.8980 C   0  0  0  0  0  0  0  0  0  0  0  0
   28.0840   39.2120    9.7350 C   0  0  2  0  0  0  0  0  0  0  0  0
   28.6950   37.9730   10.3430 C   0  0  1  0  0  0  0  0  0  0  0  0
   28.3670   36.7290    9.5130 C   0  0  2  0  0  0  0  0  0  0  0  0
   28.9980   35.5480    7.6960 C   0  0  2  0  0  0  0  0  0  0  0  0
   27.6070   35.0500    7.5490 C   0  0  0  0  0  0  0  0  0  0  0  0
   29.0400   36.7640    8.3160 O   0  0  0  0  0  0  0  0  0  0  0  0
   26.5210   36.0000    7.9940 C   0  0  1  0  0  0  0  0  0  0  0  0
   26.8670   36.7210    9.2670 C   0  0  1  0  0  0  0  0  0  0  0  0
   29.5360   35.7940    6.3880 O   0  0  0  0  0  0  0  0  0  0  0  0
   29.4830   36.7730    6.2080 H   0  0  0  0  0  0  0  0  0  0  0  0
   29.9070   34.5220    8.2830 C   0  0  0  0  0  0  0  0  0  0  0  0
   29.4900   33.6930    9.0930 O   0  0  0  0  0  0  0  0  0  0  0  0
   31.2600   34.4610    7.9390 O   0  0  0  0  0  0  0  0  0  0  0  0
   31.8930   33.8090    8.3690 H   0  0  0  0  0  0  0  0  0  0  0  0
   26.3140   36.8960    6.9420 O   0  0  0  0  0  0  0  0  0  0  0  0
   26.1070   37.8150    7.2760 H   0  0  0  0  0  0  0  0  0  0  0  0
   26.2110   36.2370   10.4310 N   0  0  0  0  0  0  0  0  0  0  0  0
   24.9960   36.7490   10.9520 C   0  0  0  0  0  0  0  0  0  0  0  0
   26.6340   35.4410   10.9670 H   0  0  0  0  0  0  0  0  0  0  0  0
   24.3620   36.1930   12.1870 C   0  0  0  0  0  0  0  0  0  0  0  0
   24.4600   37.6930   10.3440 O   0  0  0  0  0  0  0  0  0  0  0  0
   30.0600   38.1000   10.5140 O   0  0  0  0  0  0  0  0  0  0  0  0
   30.4370   37.1840   10.6910 H   0  0  0  0  0  0  0  0  0  0  0  0
   27.8470   39.0510    8.3710 O   0  0  0  0  0  0  0  0  0  0  0  0
   26.9790   38.5730    8.2810 H   0  0  0  0  0  0  0  0  0  0  0  0
   31.6260   41.0840    7.2710 O   0  0  0  0  0  0  0  0  0  0  0  0
   31.6600   40.3890    6.0590 C   0  0  0  0  0  0  0  0  0  0  0  0
   30.2980   39.9610    5.6770 C   0  0  0  0  0  0  0  0  0  0  0  0
   29.3420   40.6550    4.9660 C   0  0  0  0  0  0  0  0  0  0  0  0
   29.7640   38.7650    5.9730 N   0  0  0  0  0  0  0  0  0  0  0  0
   28.2760   39.8640    4.8600 N   0  0  0  0  0  0  0  0  0  0  0  0
   28.5630   38.7320    5.4780 N   0  0  0  0  0  0  0  0  0  0  0  0
   27.0380   40.2260    4.1620 C   0  0  0  0  0  0  0  0  0  0  0  0
   25.9950   40.6190    5.1550 C   0  0  0  0  0  0  0  0  0  0  0  0
   25.3020   41.6460    5.0710 O   0  0  0  0  0  0  0  0  0  0  0  0
   25.7830   39.7540    6.2770 N   0  0  0  0  0  0  0  0  0  0  0  0
   26.3530   38.8830    6.3740 H   0  0  0  0  0  0  0  0  0  0  0  0
   24.8140   40.0380    7.2680 C   0  0  0  0  0  0  0  0  0  0  0  0
   25.0660   40.7850    8.3600 N   0  0  0  0  0  0  0  0  0  0  0  0
   23.5630   39.5540    7.1460 N   0  0  0  0  0  0  0  0  0  0  0  0
   24.1220   41.0400    9.2870 C   0  0  0  0  0  0  0  0  0  0  0  0
   22.5880   39.7700    8.0240 C   0  0  0  0  0  0  0  0  0  0  0  0
   22.8460   40.5360    9.1440 C   0  0  0  0  0  0  0  0  0  0  0  0
   29.8670   25.5550   16.9770 C   0  0  0  0  0  0  0  0  0  0  0  0
   28.3450   25.7220   17.0260 C   0  0  0  0  0  0  0  0  0  0  0  0
   27.6010   24.4050   16.8660 C   0  0  0  0  0  0  0  0  0  0  0  0
   26.4920   24.2560   17.8710 C   0  0  0  0  0  0  0  0  0  0  0  0
   25.1510   24.5090   17.1910 C   0  0  0  0  0  0  0  0  0  0  0  0
   24.3610   23.2570   17.1190 N   0  0  0  0  0  0  0  0  0  0  0  0
  1  5  1  0  0  0  0
  2  1  1  0  0  0  0
  2  3  2  0  0  0  0
  4  1  1  0  0  0  0
  6  5  1  6  0  0  0
  6  7  1  0  0  0  0
  7 27  1  6  0  0  0
  8  7  1  1  0  0  0
  9 14  1  6  0  0  0
  9 16  1  0  0  0  0
  9 11  1  0  0  0  0
 10  9  1  0  0  0  0
 10 12  1  0  0  0  0
 11  8  1  0  0  0  0
 12 20  1  6  0  0  0
 12 13  1  0  0  0  0
 13  8  1  0  0  0  0
 13 22  1  1  0  0  0
 15 14  1  0  0  0  0
 16 17  2  0  0  0  0
 18 16  1  0  0  0  0
 18 19  1  0  0  0  0
 20 21  1  0  0  0  0
 22 23  1  0  0  0  0
 22 24  1  0  0  0  0
 23 25  1  0  0  0  0
 26 23  2  0  0  0  0
 27 28  1  0  0  0  0
 29  6  1  0  0  0  0
 30 29  1  0  0  0  0
 31  2  1  0  0  0  0
 32 31  1  0  0  0  0
 33 35  1  0  0  0  0
 33 32  1  0  0  0  0
 34 33  2  0  0  0  0
 36 34  1  0  0  0  0
 36 37  1  0  0  0  0
 37 35  2  0  0  0  0
 38 36  1  0  0  0  0
 38 39  1  0  0  0  0
 39 41  1  0  0  0  0
 40 39  2  0  0  0  0
 41 42  1  0  0  0  0
 41 43  1  0  0  0  0
 43 44  2  0  0  0  0
 44 46  1  0  0  0  0
 45 43  1  0  0  0  0
 45 47  2  0  0  0  0
 47 48  1  0  0  0  0
 48 46  2  0  0  0  0
 49 50  1  0  0  0  0
 51 50  1  0  0  0  0
 51 52  1  0  0  0  0
 53 52  1  0  0  0  0
 54 53  1  0  0  0  0
M  END
>  <REMARK>
 VINA RESULT:    -4.166      4.723      9.638
 INTER + INTRA:         -15.263
 INTER:                  -9.031
 INTRA:                  -6.232
 UNBOUND:                -7.565
 SMILES CC(=O)N[C@@H]1[C@@H](O)C[C@](O)(C(=O)O)O[C@H]1C(O)[C@H](O)CNC(=O)OCc1cn(CC(=O)Nc2ncccn2)nn1
 SMILES IDX 21 1 22 2 23 3 20 5 18 6 16 7 15 8 9 9 8 10 14 11 6 12 5 13
 SMILES IDX 10 14 11 16 12 17 13 18 7 20 4 22 2 23 1 25 3 26 17 27 19 29
 SMILES IDX 24 31 25 32 26 33 27 34 40 35 28 36 39 37 29 38 30 39 31 40
 SMILES IDX 32 41 33 43 34 44 38 45 35 46 37 47 36 48
 H PARENT 21 4 10 15 13 19 7 21 4 24 17 28 19 30 32 42
 Flexibility Score: inf
  4 active torsions:
  status: ('A' for Active; 'I' for Inactive)
    1  A    between atoms: CA   and  CB  
    2  A    between atoms: CB   and  CG  
    3  A    between atoms: CG   and  CD  
    4  A    between atoms: CD   and  CE  

>  <TORSDO>
F 17

>  <BEGIN_>
RES LYS A 131

$$$$
ligand_71_pose_4_2HRL.pdbqt
 OpenBabel07062320523D

  6  5  0  0  0  0  0  0  0  0999 V2000
   33.1930   34.6630    9.2900 C   0  0  0  0  0  0  0  0  0  0  0  0
   32.0600   35.3600   10.0340 C   0  0  0  0  0  0  0  0  0  0  0  0
   32.2050   35.3130   11.5330 C   0  0  0  0  0  0  0  0  0  0  0  0
   30.8670   35.0190   12.1930 C   0  0  0  0  0  0  0  0  0  0  0  0
   30.9370   35.2870   13.6840 C   0  0  0  0  0  0  0  0  0  0  0  0
   32.2680   34.9080   14.2350 N   0  0  0  0  0  0  0  0  0  0  0  0
  1  2  1  0  0  0  0
  2  3  1  0  0  0  0
  3  4  1  0  0  0  0
  4  5  1  0  0  0  0
  5  6  1  0  0  0  0
M  END
>  <EGIN_R>
ES LYS A 135

>  <REMARK>
  4 active torsions:
  status: ('A' for Active; 'I' for Inactive)
    5  A    between atoms: CA   and  CB  
    6  A    between atoms: CB   and  CG  
    7  A    between atoms: CG   and  CD  
    8  A    between atoms: CD   and  CE  

$$$$
