ligand_20_pose_17_2HRL.pdbqt
 OpenBabel07062320523D

 53 55  0  0  1  0  0  0  0  0999 V2000
   26.0110   36.7710   14.8820 C   0  0  0  0  0  0  0  0  0  0  0  0
   27.0730   35.7990   14.6030 C   0  0  2  0  0  0  0  0  0  0  0  0
   28.4650   36.4160   14.8640 C   0  0  1  0  0  0  0  0  0  0  0  0
   29.3680   36.3430   13.7120 C   0  0  2  0  0  0  0  0  0  0  0  0
   31.4110   35.5350   14.5120 C   0  0  2  0  0  0  0  0  0  0  0  0
   31.7080   36.9540   14.9070 C   0  0  0  0  0  0  0  0  0  0  0  0
   30.3300   35.3770   13.6960 O   0  0  0  0  0  0  0  0  0  0  0  0
   31.2960   37.9610   13.8920 C   0  0  1  0  0  0  0  0  0  0  0  0
   29.9290   37.7200   13.3360 C   0  0  1  0  0  0  0  0  0  0  0  0
   31.2530   34.7620   15.6620 O   0  0  0  0  0  0  0  0  0  0  0  0
   31.7610   33.9150   15.6160 H   0  0  0  0  0  0  0  0  0  0  0  0
   32.6000   35.0320   13.7860 C   0  0  0  0  0  0  0  0  0  0  0  0
   33.6420   34.7650   14.4070 O   0  0  0  0  0  0  0  0  0  0  0  0
   32.5480   34.8620   12.4190 O   0  0  0  0  0  0  0  0  0  0  0  0
   33.2020   34.2590   11.9000 H   0  0  0  0  0  0  0  0  0  0  0  0
   31.3910   39.2350   14.4840 O   0  0  0  0  0  0  0  0  0  0  0  0
   31.1790   39.0960   15.4380 H   0  0  0  0  0  0  0  0  0  0  0  0
   29.8400   37.9700   11.9220 N   0  0  0  0  0  0  0  0  0  0  0  0
   28.6070   38.2500   11.2730 C   0  0  0  0  0  0  0  0  0  0  0  0
   30.7210   37.9490   11.3240 H   0  0  0  0  0  0  0  0  0  0  0  0
   28.5680   38.4990    9.8200 C   0  0  0  0  0  0  0  0  0  0  0  0
   27.5570   38.2790   11.9640 O   0  0  0  0  0  0  0  0  0  0  0  0
   28.1100   37.8070   14.9980 O   0  0  0  0  0  0  0  0  0  0  0  0
   27.1370   37.8970   15.1220 H   0  0  0  0  0  0  0  0  0  0  0  0
   27.0500   35.6210   13.1670 O   0  0  0  0  0  0  0  0  0  0  0  0
   27.6260   34.8410   12.9330 H   0  0  0  0  0  0  0  0  0  0  0  0
   25.1900   37.1640   13.7710 N   0  0  0  0  0  0  0  0  0  0  0  0
   23.7810   36.9870   13.7760 C   0  0  0  0  0  0  0  0  0  0  0  0
   25.6050   37.6360   12.9530 H   0  0  0  0  0  0  0  0  0  0  0  0
   23.2510   36.4680   14.7920 O   0  0  0  0  0  0  0  0  0  0  0  0
   22.9630   37.3480   12.7310 O   0  0  0  0  0  0  0  0  0  0  0  0
   22.5790   36.4900   11.6730 C   0  0  0  0  0  0  0  0  0  0  0  0
   23.7990   36.2250   10.8380 C   0  0  0  0  0  0  0  0  0  0  0  0
   24.1870   36.8450    9.6700 C   0  0  0  0  0  0  0  0  0  0  0  0
   24.7710   35.3020   11.0850 N   0  0  0  0  0  0  0  0  0  0  0  0
   25.3600   36.2660    9.2810 N   0  0  0  0  0  0  0  0  0  0  0  0
   25.6890   35.3350   10.1570 N   0  0  0  0  0  0  0  0  0  0  0  0
   26.0860   36.6260    8.1170 C   0  0  0  0  0  0  0  0  0  0  0  0
   26.8920   35.6870    7.5020 C   0  0  0  0  0  0  0  0  0  0  0  0
   26.0360   37.8820    7.5500 C   0  0  0  0  0  0  0  0  0  0  0  0
   27.6210   35.9790    6.3690 C   0  0  0  0  0  0  0  0  0  0  0  0
   26.7490   38.1930    6.4290 C   0  0  0  0  0  0  0  0  0  0  0  0
   27.5610   37.2440    5.8100 C   0  0  0  0  0  0  0  0  0  0  0  0
   26.8850   39.3320    5.6700 C   0  0  0  0  0  0  0  0  0  0  0  0
   28.1390   37.8140    4.7410 N   0  0  0  0  0  0  0  0  0  0  0  0
   27.7440   39.0630    4.6450 N   0  0  0  0  0  0  0  0  0  0  0  0
   28.7940   37.3340    4.0960 H   0  0  0  0  0  0  0  0  0  0  0  0
   29.8670   25.5550   16.9770 C   0  0  0  0  0  0  0  0  0  0  0  0
   28.3450   25.7220   17.0260 C   0  0  0  0  0  0  0  0  0  0  0  0
   27.6010   24.4030   16.8850 C   0  0  0  0  0  0  0  0  0  0  0  0
   26.5360   24.2390   17.9340 C   0  0  0  0  0  0  0  0  0  0  0  0
   25.2090   23.9010   17.2620 C   0  0  0  0  0  0  0  0  0  0  0  0
   24.7890   22.5220   17.6070 N   0  0  0  0  0  0  0  0  0  0  0  0
  2  3  1  0  0  0  0
  2  1  1  6  0  0  0
  3 23  1  6  0  0  0
  4  3  1  1  0  0  0
  5 12  1  6  0  0  0
  5  6  1  0  0  0  0
  5 10  1  0  0  0  0
  7  4  1  0  0  0  0
  7  5  1  0  0  0  0
  8 16  1  1  0  0  0
  8  6  1  0  0  0  0
  9 18  1  6  0  0  0
  9  4  1  0  0  0  0
  9  8  1  0  0  0  0
 11 10  1  0  0  0  0
 12 13  2  0  0  0  0
 14 12  1  0  0  0  0
 15 14  1  0  0  0  0
 16 17  1  0  0  0  0
 19 18  1  0  0  0  0
 19 22  2  0  0  0  0
 20 18  1  0  0  0  0
 21 19  1  0  0  0  0
 23 24  1  0  0  0  0
 25  2  1  0  0  0  0
 26 25  1  0  0  0  0
 27 28  1  0  0  0  0
 27  1  1  0  0  0  0
 28 30  2  0  0  0  0
 29 27  1  0  0  0  0
 31 28  1  0  0  0  0
 32 31  1  0  0  0  0
 33 35  1  0  0  0  0
 33 32  1  0  0  0  0
 34 33  2  0  0  0  0
 36 34  1  0  0  0  0
 36 37  1  0  0  0  0
 37 35  2  0  0  0  0
 38 36  1  0  0  0  0
 39 38  2  0  0  0  0
 40 38  1  0  0  0  0
 41 39  1  0  0  0  0
 42 40  2  0  0  0  0
 43 41  2  0  0  0  0
 43 42  1  0  0  0  0
 44 42  1  0  0  0  0
 45 43  1  0  0  0  0
 46 45  1  0  0  0  0
 46 44  2  0  0  0  0
 47 45  1  0  0  0  0
 48 49  1  0  0  0  0
 50 49  1  0  0  0  0
 50 51  1  0  0  0  0
 52 53  1  0  0  0  0
 52 51  1  0  0  0  0
M  END
>  <REMARK>
 VINA RESULT:    -4.397      2.656      4.523
 INTER + INTRA:         -14.101
 INTER:                  -7.952
 INTRA:                  -6.150
 UNBOUND:                -6.490
 SMILES CC(=O)N[C@@H]1[C@@H](O)C[C@](O)(C(=O)O)O[C@H]1C(O)[C@H](O)CNC(=O)OCc1cn(-c2ccc3[nH]ncc3c2)nn1
 SMILES IDX 20 1 18 2 16 3 15 4 9 5 8 6 14 7 6 8 5 9 10 10 11 12 12 13
 SMILES IDX 13 14 7 16 4 18 2 19 1 21 3 22 17 23 19 25 21 27 22 28 23 30
 SMILES IDX 24 31 25 32 26 33 27 34 39 35 28 36 38 37 29 38 30 39 37 40
 SMILES IDX 31 41 36 42 32 43 35 44 33 45 34 46
 H PARENT 10 11 13 15 7 17 4 20 17 24 19 26 21 29 33 47
 Flexibility Score: inf
  4 active torsions:
  status: ('A' for Active; 'I' for Inactive)
    1  A    between atoms: CA   and  CB  
    2  A    between atoms: CB   and  CG  
    3  A    between atoms: CG   and  CD  
    4  A    between atoms: CD   and  CE  

>  <TORSDO>
F 15

>  <BEGIN_>
RES LYS A 131

$$$$
ligand_20_pose_17_2HRL.pdbqt
 OpenBabel07062320523D

  6  5  0  0  0  0  0  0  0  0999 V2000
   33.1930   34.6630    9.2900 C   0  0  0  0  0  0  0  0  0  0  0  0
   32.0600   35.3600   10.0340 C   0  0  0  0  0  0  0  0  0  0  0  0
   30.8260   35.5690    9.1940 C   0  0  0  0  0  0  0  0  0  0  0  0
   30.3220   34.2440    8.6430 C   0  0  0  0  0  0  0  0  0  0  0  0
   29.0160   33.8530    9.3080 C   0  0  0  0  0  0  0  0  0  0  0  0
   28.8520   34.5450   10.6170 N   0  0  0  0  0  0  0  0  0  0  0  0
  1  2  1  0  0  0  0
  3  2  1  0  0  0  0
  4  3  1  0  0  0  0
  4  5  1  0  0  0  0
  5  6  1  0  0  0  0
M  END
>  <EGIN_R>
ES LYS A 135

>  <REMARK>
  4 active torsions:
  status: ('A' for Active; 'I' for Inactive)
    5  A    between atoms: CA   and  CB  
    6  A    between atoms: CB   and  CG  
    7  A    between atoms: CG   and  CD  
    8  A    between atoms: CD   and  CE  

$$$$
