ligand_67_pose_1_2HRL.pdbqt
 OpenBabel07062320523D

 50 51  0  0  1  0  0  0  0  0999 V2000
   31.6960   39.2590   10.0340 N   0  0  0  0  0  0  0  0  0  0  0  0
   31.2160   39.8640   11.2200 C   0  0  0  0  0  0  0  0  0  0  0  0
   30.8090   41.0750   11.1780 O   0  0  0  0  0  0  0  0  0  0  0  0
   32.0270   38.2800   10.0570 H   0  0  0  0  0  0  0  0  0  0  0  0
   31.7190   40.0040    8.8200 C   0  0  0  0  0  0  0  0  0  0  0  0
   30.9110   39.3840    7.7130 C   0  0  2  0  0  0  0  0  0  0  0  0
   29.5160   39.9270    7.6290 C   0  0  1  0  0  0  0  0  0  0  0  0
   28.5040   38.8110    7.7700 C   0  0  2  0  0  0  0  0  0  0  0  0
   27.5510   37.0990    6.5170 C   0  0  2  0  0  0  0  0  0  0  0  0
   26.2270   37.4300    7.1420 C   0  0  0  0  0  0  0  0  0  0  0  0
   28.4920   38.0910    6.6040 O   0  0  0  0  0  0  0  0  0  0  0  0
   26.0940   38.9380    7.1590 C   0  0  1  0  0  0  0  0  0  0  0  0
   27.1690   39.4630    8.1010 C   0  0  1  0  0  0  0  0  0  0  0  0
   27.3150   36.8880    5.1380 O   0  0  0  0  0  0  0  0  0  0  0  0
   26.3810   37.0480    4.9010 H   0  0  0  0  0  0  0  0  0  0  0  0
   28.0480   35.7840    7.0310 C   0  0  0  0  0  0  0  0  0  0  0  0
   27.3340   34.9540    7.6350 O   0  0  0  0  0  0  0  0  0  0  0  0
   29.3870   35.4870    6.8140 O   0  0  0  0  0  0  0  0  0  0  0  0
   29.8200   35.4540    5.8970 H   0  0  0  0  0  0  0  0  0  0  0  0
   26.3640   39.4180    5.8690 O   0  0  0  0  0  0  0  0  0  0  0  0
   26.8300   38.7490    5.3140 H   0  0  0  0  0  0  0  0  0  0  0  0
   26.7570   39.1700    9.4650 N   0  0  0  0  0  0  0  0  0  0  0  0
   26.4290   40.2430   10.3320 C   0  0  0  0  0  0  0  0  0  0  0  0
   26.7020   38.1710    9.8140 H   0  0  0  0  0  0  0  0  0  0  0  0
   25.9990   40.0480   11.7400 C   0  0  0  0  0  0  0  0  0  0  0  0
   26.5080   41.4190    9.8730 O   0  0  0  0  0  0  0  0  0  0  0  0
   29.3150   40.9500    8.5550 O   0  0  0  0  0  0  0  0  0  0  0  0
   29.8350   40.8460    9.3800 H   0  0  0  0  0  0  0  0  0  0  0  0
   30.8660   38.0110    7.9020 O   0  0  0  0  0  0  0  0  0  0  0  0
   31.5330   37.6750    8.5290 H   0  0  0  0  0  0  0  0  0  0  0  0
   31.1500   39.2450   12.4350 O   0  0  0  0  0  0  0  0  0  0  0  0
   29.9720   38.9770   13.1720 C   0  0  0  0  0  0  0  0  0  0  0  0
   29.0460   38.0740   12.4480 C   0  0  0  0  0  0  0  0  0  0  0  0
   28.0610   37.2920   13.0050 C   0  0  0  0  0  0  0  0  0  0  0  0
   28.9950   37.8490   11.1260 N   0  0  0  0  0  0  0  0  0  0  0  0
   27.4440   36.6180   12.0110 N   0  0  0  0  0  0  0  0  0  0  0  0
   28.0300   36.9750   10.8830 N   0  0  0  0  0  0  0  0  0  0  0  0
   26.3380   35.6730   12.1020 C   0  0  0  0  0  0  0  0  0  0  0  0
   25.8460   35.2960   10.7220 C   0  0  0  0  0  0  0  0  0  0  0  0
   24.5030   35.8840   10.4450 C   0  0  0  0  0  0  0  0  0  0  0  0
   23.8710   35.3570    9.3260 O   0  0  0  0  0  0  0  0  0  0  0  0
   24.5050   37.2620   10.2900 O   0  0  0  0  0  0  0  0  0  0  0  0
   22.9420   36.3090    8.9170 C   0  0  0  0  0  0  0  0  0  0  0  0
   23.4300   37.6010    9.5040 C   0  0  0  0  0  0  0  0  0  0  0  0
   29.8670   25.5550   16.9770 C   0  0  0  0  0  0  0  0  0  0  0  0
   28.3450   25.7220   17.0260 C   0  0  0  0  0  0  0  0  0  0  0  0
   27.6020   24.3970   16.9480 C   0  0  0  0  0  0  0  0  0  0  0  0
   26.6430   24.2170   18.0920 C   0  0  0  0  0  0  0  0  0  0  0  0
   25.2550   23.9000   17.5470 C   0  0  0  0  0  0  0  0  0  0  0  0
   25.0340   22.4350   17.5110 N   0  0  0  0  0  0  0  0  0  0  0  0
  1  4  1  0  0  0  0
  1  2  1  0  0  0  0
  2 31  1  0  0  0  0
  3  2  2  0  0  0  0
  5  1  1  0  0  0  0
  6 29  1  0  0  0  0
  6  5  1  1  0  0  0
  7  6  1  0  0  0  0
  7 27  1  1  0  0  0
  8  7  1  6  0  0  0
  8 13  1  0  0  0  0
  9 14  1  6  0  0  0
  9 11  1  0  0  0  0
  9 16  1  0  0  0  0
  9 10  1  0  0  0  0
 10 12  1  0  0  0  0
 11  8  1  0  0  0  0
 12 20  1  6  0  0  0
 12 13  1  0  0  0  0
 13 22  1  1  0  0  0
 15 14  1  0  0  0  0
 16 17  2  0  0  0  0
 18 16  1  0  0  0  0
 19 18  1  0  0  0  0
 21 20  1  0  0  0  0
 22 24  1  0  0  0  0
 22 23  1  0  0  0  0
 23 25  1  0  0  0  0
 26 23  2  0  0  0  0
 27 28  1  0  0  0  0
 29 30  1  0  0  0  0
 31 32  1  0  0  0  0
 33 34  2  0  0  0  0
 33 32  1  0  0  0  0
 35 33  1  0  0  0  0
 36 38  1  0  0  0  0
 36 34  1  0  0  0  0
 37 35  2  0  0  0  0
 37 36  1  0  0  0  0
 39 38  1  0  0  0  0
 40 39  1  0  0  0  0
 41 40  1  0  0  0  0
 42 40  1  0  0  0  0
 43 41  1  0  0  0  0
 43 44  1  0  0  0  0
 44 42  1  0  0  0  0
 45 46  1  0  0  0  0
 47 46  1  0  0  0  0
 47 48  1  0  0  0  0
 49 48  1  0  0  0  0
 50 49  1  0  0  0  0
M  END
>  <REMARK>
 VINA RESULT:    -4.606      4.873      8.696
 INTER + INTRA:         -14.803
 INTER:                  -7.847
 INTRA:                  -6.956
 UNBOUND:                -6.292
 SMILES CC(=O)N[C@@H]1[C@@H](O)C[C@](O)(C(=O)O)O[C@H]1C(O)[C@H](O)CNC(=O)OCc1cn(CCC2OCCO2)nn1
 SMILES IDX 21 1 22 2 23 3 20 5 18 6 16 7 15 8 9 9 8 10 14 11 6 12 5 13
 SMILES IDX 10 14 11 16 12 17 13 18 7 20 4 22 2 23 1 25 3 26 17 27 19 29
 SMILES IDX 24 31 25 32 26 33 27 34 37 35 28 36 36 37 29 38 30 39 31 40
 SMILES IDX 32 41 35 42 33 43 34 44
 H PARENT 21 4 10 15 13 19 7 21 4 24 17 28 19 30
 Flexibility Score: inf
  4 active torsions:
  status: ('A' for Active; 'I' for Inactive)
    1  A    between atoms: CA   and  CB  
    2  A    between atoms: CB   and  CG  
    3  A    between atoms: CG   and  CD  
    4  A    between atoms: CD   and  CE  

>  <TORSDO>
F 17

>  <BEGIN_>
RES LYS A 131

$$$$
ligand_67_pose_1_2HRL.pdbqt
 OpenBabel07062320523D

  6  5  0  0  0  0  0  0  0  0999 V2000
   33.1930   34.6630    9.2900 C   0  0  0  0  0  0  0  0  0  0  0  0
   32.0600   35.3600   10.0340 C   0  0  0  0  0  0  0  0  0  0  0  0
   30.7450   34.6280    9.9510 C   0  0  0  0  0  0  0  0  0  0  0  0
   30.1590   34.4190   11.3390 C   0  0  0  0  0  0  0  0  0  0  0  0
   31.0680   35.0170   12.3970 C   0  0  0  0  0  0  0  0  0  0  0  0
   30.5510   34.7420   13.7660 N   0  0  0  0  0  0  0  0  0  0  0  0
  1  2  1  0  0  0  0
  3  2  1  0  0  0  0
  3  4  1  0  0  0  0
  4  5  1  0  0  0  0
  5  6  1  0  0  0  0
M  END
>  <EGIN_R>
ES LYS A 135

>  <REMARK>
  4 active torsions:
  status: ('A' for Active; 'I' for Inactive)
    5  A    between atoms: CA   and  CB  
    6  A    between atoms: CB   and  CG  
    7  A    between atoms: CG   and  CD  
    8  A    between atoms: CD   and  CE  

$$$$
