ligand_61_pose_5_2HRL.pdbqt
 OpenBabel07062320523D

 49 50  0  0  1  0  0  0  0  0999 V2000
   25.9830   30.1350   16.2260 N   0  0  0  0  0  0  0  0  0  0  0  0
   27.0190   29.2290   16.5490 C   0  0  0  0  0  0  0  0  0  0  0  0
   28.1750   29.4460   16.1200 O   0  0  0  0  0  0  0  0  0  0  0  0
   25.0190   29.9000   16.6210 H   0  0  0  0  0  0  0  0  0  0  0  0
   26.1520   31.3220   15.4160 C   0  0  0  0  0  0  0  0  0  0  0  0
   25.9350   32.5280   16.2700 C   0  0  2  0  0  0  0  0  0  0  0  0
   27.0100   33.5850   16.1290 C   0  0  2  0  0  0  0  0  0  0  0  0
   28.3490   32.9300   16.1880 C   0  0  2  0  0  0  0  0  0  0  0  0
   30.1860   32.5320   17.5340 C   0  0  2  0  0  0  0  0  0  0  0  0
   30.7330   31.9030   16.2750 C   0  0  0  0  0  0  0  0  0  0  0  0
   28.8240   32.7550   17.4730 O   0  0  0  0  0  0  0  0  0  0  0  0
   30.4820   32.7210   15.0510 C   0  0  1  0  0  0  0  0  0  0  0  0
   29.3730   33.7070   15.3490 C   0  0  1  0  0  0  0  0  0  0  0  0
   30.9090   33.6660   17.9070 O   0  0  0  0  0  0  0  0  0  0  0  0
   31.8440   33.4190   18.0920 H   0  0  0  0  0  0  0  0  0  0  0  0
   30.4010   31.5190   18.6300 C   0  0  0  0  0  0  0  0  0  0  0  0
   30.9180   31.8000   19.7190 O   0  0  0  0  0  0  0  0  0  0  0  0
   30.0010   30.2010   18.4140 O   0  0  0  0  0  0  0  0  0  0  0  0
   30.6140   29.4930   18.0300 H   0  0  0  0  0  0  0  0  0  0  0  0
   31.6080   33.3260   14.5380 O   0  0  0  0  0  0  0  0  0  0  0  0
   31.9070   34.1020   15.1060 H   0  0  0  0  0  0  0  0  0  0  0  0
   28.7460   34.2180   14.1580 N   0  0  0  0  0  0  0  0  0  0  0  0
   29.1610   35.4630   13.5860 C   0  0  0  0  0  0  0  0  0  0  0  0
   27.9760   33.7080   13.6710 H   0  0  0  0  0  0  0  0  0  0  0  0
   28.5740   36.0480   12.3780 C   0  0  0  0  0  0  0  0  0  0  0  0
   30.1020   36.1030   14.1630 O   0  0  0  0  0  0  0  0  0  0  0  0
   26.8530   34.4530   17.2120 O   0  0  0  0  0  0  0  0  0  0  0  0
   26.9850   35.3850   16.9100 H   0  0  0  0  0  0  0  0  0  0  0  0
   25.9720   32.1060   17.6090 O   0  0  0  0  0  0  0  0  0  0  0  0
   26.5140   31.2980   17.7380 H   0  0  0  0  0  0  0  0  0  0  0  0
   26.7340   28.1010   17.3460 O   0  0  0  0  0  0  0  0  0  0  0  0
   26.2050   28.3910   18.6330 C   0  0  0  0  0  0  0  0  0  0  0  0
   27.3240   28.4390   19.5850 C   0  0  0  0  0  0  0  0  0  0  0  0
   28.2030   27.4200   19.9170 C   0  0  0  0  0  0  0  0  0  0  0  0
   27.6960   29.5120   20.3150 N   0  0  0  0  0  0  0  0  0  0  0  0
   29.0490   27.9300   20.8230 N   0  0  0  0  0  0  0  0  0  0  0  0
   28.7490   29.1920   21.0670 N   0  0  0  0  0  0  0  0  0  0  0  0
   30.1280   27.2110   21.4410 C   0  0  0  0  0  0  0  0  0  0  0  0
   31.2670   28.1620   21.8050 C   0  0  0  0  0  0  0  0  0  0  0  0
   31.4970   28.5360   23.0590 C   0  0  0  0  0  0  0  0  0  0  0  0
   32.0640   28.6320   20.7860 C   0  0  0  0  0  0  0  0  0  0  0  0
   32.5300   29.3880   23.3390 C   0  0  0  0  0  0  0  0  0  0  0  0
   33.2360   29.6920   21.7060 S   0  0  0  0  0  0  0  0  0  0  0  0
   29.8670   25.5550   16.9770 C   0  0  0  0  0  0  0  0  0  0  0  0
   28.3450   25.7220   17.0260 C   0  0  0  0  0  0  0  0  0  0  0  0
   27.6020   24.3990   16.9260 C   0  0  0  0  0  0  0  0  0  0  0  0
   26.5250   24.2730   17.9680 C   0  0  0  0  0  0  0  0  0  0  0  0
   25.2270   23.8220   17.3060 C   0  0  0  0  0  0  0  0  0  0  0  0
   24.3440   24.9840   17.0510 N   0  0  0  0  0  0  0  0  0  0  0  0
  1  2  1  0  0  0  0
  1  4  1  0  0  0  0
  2 31  1  0  0  0  0
  3  2  2  0  0  0  0
  5  1  1  0  0  0  0
  6  5  1  6  0  0  0
  6 29  1  0  0  0  0
  7  6  1  0  0  0  0
  7 27  1  1  0  0  0
  8  7  1  1  0  0  0
  8 11  1  0  0  0  0
  9 14  1  1  0  0  0
  9 16  1  0  0  0  0
 10  9  1  0  0  0  0
 11  9  1  0  0  0  0
 12 20  1  1  0  0  0
 12 13  1  0  0  0  0
 12 10  1  0  0  0  0
 13 22  1  6  0  0  0
 13  8  1  0  0  0  0
 14 15  1  0  0  0  0
 16 17  2  0  0  0  0
 18 16  1  0  0  0  0
 19 18  1  0  0  0  0
 20 21  1  0  0  0  0
 23 22  1  0  0  0  0
 23 26  2  0  0  0  0
 24 22  1  0  0  0  0
 25 23  1  0  0  0  0
 28 27  1  0  0  0  0
 29 30  1  0  0  0  0
 31 32  1  0  0  0  0
 32 33  1  0  0  0  0
 33 34  2  0  0  0  0
 33 35  1  0  0  0  0
 34 36  1  0  0  0  0
 35 37  2  0  0  0  0
 36 37  1  0  0  0  0
 36 38  1  0  0  0  0
 38 39  1  0  0  0  0
 39 40  1  0  0  0  0
 40 42  2  0  0  0  0
 41 43  1  0  0  0  0
 41 39  2  0  0  0  0
 43 42  1  0  0  0  0
 44 45  1  0  0  0  0
 46 45  1  0  0  0  0
 46 47  1  0  0  0  0
 48 47  1  0  0  0  0
 49 48  1  0  0  0  0
M  END
>  <REMARK>
 VINA RESULT:    -4.359      5.090      8.416
 INTER + INTRA:         -13.936
 INTER:                  -7.717
 INTRA:                  -6.219
 UNBOUND:                -6.136
 SMILES CC(=O)N[C@@H]1[C@@H](O)C[C@](O)(C(=O)O)O[C@H]1C(O)[C@H](O)CNC(=O)OCc1cn(Cc2ccsc2)nn1
 SMILES IDX 21 1 22 2 23 3 20 5 18 6 16 7 15 8 9 9 8 10 14 11 6 12 5 13
 SMILES IDX 10 14 11 16 12 17 13 18 7 20 4 22 2 23 1 25 3 26 17 27 19 29
 SMILES IDX 24 31 25 32 26 33 27 34 36 35 28 36 35 37 29 38 30 39 31 40
 SMILES IDX 34 41 32 42 33 43
 H PARENT 21 4 10 15 13 19 7 21 4 24 17 28 19 30
 Flexibility Score: inf
  4 active torsions:
  status: ('A' for Active; 'I' for Inactive)
    1  A    between atoms: CA   and  CB  
    2  A    between atoms: CB   and  CG  
    3  A    between atoms: CG   and  CD  
    4  A    between atoms: CD   and  CE  

>  <TORSDO>
F 16

>  <BEGIN_>
RES LYS A 131

$$$$
ligand_61_pose_5_2HRL.pdbqt
 OpenBabel07062320523D

  6  5  0  0  0  0  0  0  0  0999 V2000
   33.1930   34.6630    9.2900 C   0  0  0  0  0  0  0  0  0  0  0  0
   32.0600   35.3600   10.0340 C   0  0  0  0  0  0  0  0  0  0  0  0
   30.7100   34.7320    9.8010 C   0  0  0  0  0  0  0  0  0  0  0  0
   30.4950   34.4570    8.3210 C   0  0  0  0  0  0  0  0  0  0  0  0
   29.4050   35.3530    7.7650 C   0  0  0  0  0  0  0  0  0  0  0  0
   28.0550   34.7790    8.0230 N   0  0  0  0  0  0  0  0  0  0  0  0
  1  2  1  0  0  0  0
  3  2  1  0  0  0  0
  4  3  1  0  0  0  0
  5  6  1  0  0  0  0
  5  4  1  0  0  0  0
M  END
>  <EGIN_R>
ES LYS A 135

>  <REMARK>
  4 active torsions:
  status: ('A' for Active; 'I' for Inactive)
    5  A    between atoms: CA   and  CB  
    6  A    between atoms: CB   and  CG  
    7  A    between atoms: CG   and  CD  
    8  A    between atoms: CD   and  CE  

$$$$
