ligand_78_pose_11_2HRL.pdbqt
 OpenBabel07062320523D

 53 54  0  0  1  0  0  0  0  0999 V2000
   31.0630   35.0680   14.7090 N   0  0  0  0  0  0  0  0  0  0  0  0
   31.3170   35.3960   13.3290 C   0  0  0  0  0  0  0  0  0  0  0  0
   32.4730   35.3030   12.8940 O   0  0  0  0  0  0  0  0  0  0  0  0
   30.0700   35.1660   14.9920 H   0  0  0  0  0  0  0  0  0  0  0  0
   32.1470   34.6380   15.5750 C   0  0  0  0  0  0  0  0  0  0  0  0
   31.6990   33.6770   16.6240 C   0  0  2  0  0  0  0  0  0  0  0  0
   30.6580   32.7100   16.1720 C   0  0  2  0  0  0  0  0  0  0  0  0
   30.5210   31.4530   16.9520 C   0  0  2  0  0  0  0  0  0  0  0  0
   28.2620   31.1390   16.4340 C   0  0  2  0  0  0  0  0  0  0  0  0
   27.8980   31.9790   17.6140 C   0  0  0  0  0  0  0  0  0  0  0  0
   29.5370   30.6360   16.4000 O   0  0  0  0  0  0  0  0  0  0  0  0
   28.8670   32.0250   18.7300 C   0  0  1  0  0  0  0  0  0  0  0  0
   30.2420   31.5160   18.4000 C   0  0  1  0  0  0  0  0  0  0  0  0
   28.0700   31.8320   15.2380 O   0  0  0  0  0  0  0  0  0  0  0  0
   27.2120   32.2800   15.1700 H   0  0  0  0  0  0  0  0  0  0  0  0
   27.3550   29.9620   16.3920 C   0  0  0  0  0  0  0  0  0  0  0  0
   26.2350   30.0730   15.8480 O   0  0  0  0  0  0  0  0  0  0  0  0
   27.6900   28.7270   16.9320 O   0  0  0  0  0  0  0  0  0  0  0  0
   28.0500   27.9690   16.3350 H   0  0  0  0  0  0  0  0  0  0  0  0
   28.9200   33.3200   19.2400 O   0  0  0  0  0  0  0  0  0  0  0  0
   28.3030   33.9310   18.7960 H   0  0  0  0  0  0  0  0  0  0  0  0
   30.4660   30.1820   18.9660 N   0  0  0  0  0  0  0  0  0  0  0  0
   31.1490   29.9950   20.1880 C   0  0  0  0  0  0  0  0  0  0  0  0
   30.1190   29.3420   18.4640 H   0  0  0  0  0  0  0  0  0  0  0  0
   31.3860   28.6430   20.7780 C   0  0  0  0  0  0  0  0  0  0  0  0
   31.5610   31.0230   20.7790 O   0  0  0  0  0  0  0  0  0  0  0  0
   31.2200   32.2210   14.9120 O   0  0  0  0  0  0  0  0  0  0  0  0
   30.9010   31.3060   14.8230 H   0  0  0  0  0  0  0  0  0  0  0  0
   31.4420   34.2200   17.8670 O   0  0  0  0  0  0  0  0  0  0  0  0
   32.2400   34.2310   18.4480 H   0  0  0  0  0  0  0  0  0  0  0  0
   30.2980   35.8070   12.4910 O   0  0  0  0  0  0  0  0  0  0  0  0
   29.6240   37.0410   12.6550 C   0  0  0  0  0  0  0  0  0  0  0  0
   28.2690   37.0040   12.0860 C   0  0  0  0  0  0  0  0  0  0  0  0
   27.6810   37.7910   11.1370 C   0  0  0  0  0  0  0  0  0  0  0  0
   27.3230   36.1110   12.4470 N   0  0  0  0  0  0  0  0  0  0  0  0
   26.4080   37.3600   10.9520 N   0  0  0  0  0  0  0  0  0  0  0  0
   26.2190   36.3340   11.7650 N   0  0  0  0  0  0  0  0  0  0  0  0
   25.4720   37.9420   10.0280 C   0  0  0  0  0  0  0  0  0  0  0  0
   25.2060   36.8490    8.6390 S   0  0  0  0  0  0  0  0  0  0  0  0
   23.9900   37.3380    7.8940 O   0  0  0  0  0  0  0  0  0  0  0  0
   24.9610   35.4890    9.1750 O   0  0  0  0  0  0  0  0  0  0  0  0
   26.6260   36.9010    7.6090 C   0  0  0  0  0  0  0  0  0  0  0  0
   27.1680   38.1460    7.3100 C   0  0  0  0  0  0  0  0  0  0  0  0
   27.1720   35.7380    7.1210 C   0  0  0  0  0  0  0  0  0  0  0  0
   28.2800   38.1840    6.5030 C   0  0  0  0  0  0  0  0  0  0  0  0
   28.2870   35.8320    6.3160 C   0  0  0  0  0  0  0  0  0  0  0  0
   28.8670   37.0330    5.9860 C   0  0  0  0  0  0  0  0  0  0  0  0
   29.8670   25.5550   16.9770 C   0  0  0  0  0  0  0  0  0  0  0  0
   28.3450   25.7220   17.0260 C   0  0  0  0  0  0  0  0  0  0  0  0
   27.6030   24.3950   16.9780 C   0  0  0  0  0  0  0  0  0  0  0  0
   26.5660   24.2870   18.0610 C   0  0  0  0  0  0  0  0  0  0  0  0
   25.2290   24.8030   17.5390 C   0  0  0  0  0  0  0  0  0  0  0  0
   24.4440   23.6980   16.9400 N   0  0  0  0  0  0  0  0  0  0  0  0
  1  4  1  0  0  0  0
  1  5  1  0  0  0  0
  2  1  1  0  0  0  0
  3  2  2  0  0  0  0
  6  5  1  6  0  0  0
  6 29  1  0  0  0  0
  7 27  1  6  0  0  0
  7  6  1  0  0  0  0
  8  7  1  6  0  0  0
  8 13  1  0  0  0  0
  9 14  1  6  0  0  0
  9 10  1  0  0  0  0
 10 12  1  0  0  0  0
 11  9  1  0  0  0  0
 11  8  1  0  0  0  0
 12 20  1  6  0  0  0
 13 12  1  0  0  0  0
 13 22  1  6  0  0  0
 15 14  1  0  0  0  0
 16  9  1  0  0  0  0
 16 18  1  0  0  0  0
 17 16  2  0  0  0  0
 19 18  1  0  0  0  0
 21 20  1  0  0  0  0
 22 23  1  0  0  0  0
 23 25  1  0  0  0  0
 23 26  2  0  0  0  0
 24 22  1  0  0  0  0
 28 27  1  0  0  0  0
 29 30  1  0  0  0  0
 31 32  1  0  0  0  0
 31  2  1  0  0  0  0
 33 35  1  0  0  0  0
 33 32  1  0  0  0  0
 34 33  2  0  0  0  0
 36 34  1  0  0  0  0
 36 37  1  0  0  0  0
 37 35  2  0  0  0  0
 38 36  1  0  0  0  0
 39 41  2  0  0  0  0
 39 38  1  0  0  0  0
 40 39  2  0  0  0  0
 42 39  1  0  0  0  0
 43 42  1  0  0  0  0
 44 42  2  0  0  0  0
 45 43  2  0  0  0  0
 46 44  1  0  0  0  0
 47 46  2  0  0  0  0
 47 45  1  0  0  0  0
 48 49  1  0  0  0  0
 50 49  1  0  0  0  0
 50 51  1  0  0  0  0
 52 51  1  0  0  0  0
 53 52  1  0  0  0  0
M  END
>  <REMARK>
 VINA RESULT:    -5.256      3.691      7.681
 INTER + INTRA:         -14.724
 INTER:                 -10.302
 INTRA:                  -4.422
 UNBOUND:                -5.011
 SMILES CC(=O)N[C@@H]1[C@@H](O)C[C@](O)(C(=O)O)O[C@H]1C(O)[C@H](O)CNC(=O)OCc1cn(CS(=O)(=O)c2ccccc2)nn1
 SMILES IDX 21 1 22 2 23 3 20 5 18 6 16 7 15 8 9 9 8 10 14 11 6 12 5 13
 SMILES IDX 10 14 11 16 12 17 13 18 7 20 4 22 2 23 1 25 3 26 17 27 19 29
 SMILES IDX 24 31 25 32 26 33 27 34 40 35 28 36 39 37 29 38 30 39 31 40
 SMILES IDX 32 41 33 42 34 43 38 44 35 45 37 46 36 47
 H PARENT 21 4 10 15 13 19 7 21 4 24 17 28 19 30
 Flexibility Score: inf
  4 active torsions:
  status: ('A' for Active; 'I' for Inactive)
    1  A    between atoms: CA   and  CB  
    2  A    between atoms: CB   and  CG  
    3  A    between atoms: CG   and  CD  
    4  A    between atoms: CD   and  CE  

>  <TORSDO>
F 17

>  <BEGIN_>
RES LYS A 131

$$$$
ligand_78_pose_11_2HRL.pdbqt
 OpenBabel07062320523D

  6  5  0  0  0  0  0  0  0  0999 V2000
   33.1930   34.6630    9.2900 C   0  0  0  0  0  0  0  0  0  0  0  0
   32.0600   35.3600   10.0340 C   0  0  0  0  0  0  0  0  0  0  0  0
   30.8050   35.5140    9.2130 C   0  0  0  0  0  0  0  0  0  0  0  0
   30.0900   34.1800    9.0710 C   0  0  0  0  0  0  0  0  0  0  0  0
   29.0230   34.0310   10.1380 C   0  0  0  0  0  0  0  0  0  0  0  0
   27.7300   33.5890    9.5450 N   0  0  0  0  0  0  0  0  0  0  0  0
  1  2  1  0  0  0  0
  3  2  1  0  0  0  0
  4  3  1  0  0  0  0
  4  5  1  0  0  0  0
  6  5  1  0  0  0  0
M  END
>  <EGIN_R>
ES LYS A 135

>  <REMARK>
  4 active torsions:
  status: ('A' for Active; 'I' for Inactive)
    5  A    between atoms: CA   and  CB  
    6  A    between atoms: CB   and  CG  
    7  A    between atoms: CG   and  CD  
    8  A    between atoms: CD   and  CE  

$$$$
