ligand_54_pose_3_2HRL.pdbqt
 OpenBabel07062320523D

 52 52  0  0  1  0  0  0  0  0999 V2000
   27.9400   29.9480   19.9990 O   0  0  0  0  0  0  0  0  0  0  0  0
   29.1690   30.3800   19.4800 C   0  0  0  0  0  0  0  0  0  0  0  0
   29.2430   31.2460   18.3690 N   0  0  0  0  0  0  0  0  0  0  0  0
   28.3000   31.5530   17.9690 H   0  0  0  0  0  0  0  0  0  0  0  0
   30.1950   29.9730   20.0300 O   0  0  0  0  0  0  0  0  0  0  0  0
   30.4190   31.7510   17.7340 C   0  0  0  0  0  0  0  0  0  0  0  0
   30.3850   31.5180   16.2500 C   0  0  2  0  0  0  0  0  0  0  0  0
   29.5560   32.6590   15.6650 C   0  0  2  0  0  0  0  0  0  0  0  0
   30.2850   33.3760   14.5730 C   0  0  2  0  0  0  0  0  0  0  0  0
   31.9830   34.9360   14.3240 C   0  0  2  0  0  0  0  0  0  0  0  0
   31.4870   35.1810   12.9370 C   0  0  0  0  0  0  0  0  0  0  0  0
   31.5580   33.7450   14.8930 O   0  0  0  0  0  0  0  0  0  0  0  0
   30.0220   34.9250   12.7350 C   0  0  1  0  0  0  0  0  0  0  0  0
   29.4380   34.5440   14.0770 C   0  0  1  0  0  0  0  0  0  0  0  0
   31.7040   36.0320   15.1450 O   0  0  0  0  0  0  0  0  0  0  0  0
   30.7630   35.9120   15.4710 H   0  0  0  0  0  0  0  0  0  0  0  0
   33.4680   34.8330   14.2300 C   0  0  0  0  0  0  0  0  0  0  0  0
   34.2030   35.2470   15.1500 O   0  0  0  0  0  0  0  0  0  0  0  0
   34.0330   34.2580   13.0760 O   0  0  0  0  0  0  0  0  0  0  0  0
   33.7260   33.3100   12.8650 H   0  0  0  0  0  0  0  0  0  0  0  0
   29.3520   35.9900   12.1450 O   0  0  0  0  0  0  0  0  0  0  0  0
   29.9240   36.2990   11.3960 H   0  0  0  0  0  0  0  0  0  0  0  0
   28.0720   34.0760   13.9670 N   0  0  0  0  0  0  0  0  0  0  0  0
   27.0040   34.9790   14.2180 C   0  0  0  0  0  0  0  0  0  0  0  0
   27.8130   33.1080   13.7120 H   0  0  0  0  0  0  0  0  0  0  0  0
   25.5830   34.5910   14.1280 C   0  0  0  0  0  0  0  0  0  0  0  0
   27.2840   36.1690   14.5310 O   0  0  0  0  0  0  0  0  0  0  0  0
   29.1830   33.5050   16.6970 O   0  0  0  0  0  0  0  0  0  0  0  0
   28.4060   34.0810   16.4620 H   0  0  0  0  0  0  0  0  0  0  0  0
   29.7270   30.3530   15.9520 O   0  0  0  0  0  0  0  0  0  0  0  0
   29.0330   30.4640   15.2520 H   0  0  0  0  0  0  0  0  0  0  0  0
   27.2300   28.8830   19.3720 C   0  0  0  0  0  0  0  0  0  0  0  0
   26.8990   29.2660   17.9880 C   0  0  0  0  0  0  0  0  0  0  0  0
   25.8160   30.0970   17.6860 C   0  0  0  0  0  0  0  0  0  0  0  0
   27.4490   28.9770   16.8170 N   0  0  0  0  0  0  0  0  0  0  0  0
   25.7660   30.2680   16.3490 N   0  0  0  0  0  0  0  0  0  0  0  0
   26.7560   29.5870   15.8470 N   0  0  0  0  0  0  0  0  0  0  0  0
   24.7750   31.0620   15.6800 C   0  0  0  0  0  0  0  0  0  0  0  0
   24.6710   30.7590   14.2040 C   0  0  0  0  0  0  0  0  0  0  0  0
   23.7940   29.5820   13.9080 C   0  0  0  0  0  0  0  0  0  0  0  0
   23.1800   29.7950   12.6780 O   0  0  0  0  0  0  0  0  0  0  0  0
   22.3840   30.9460   12.7280 C   0  0  0  0  0  0  0  0  0  0  0  0
   20.9640   30.6570   12.3160 C   0  0  0  0  0  0  0  0  0  0  0  0
   22.8280   29.3840   14.8600 O   0  0  0  0  0  0  0  0  0  0  0  0
   22.5940   28.0310   15.1040 C   0  0  0  0  0  0  0  0  0  0  0  0
   23.2000   27.6660   16.4550 C   0  0  0  0  0  0  0  0  0  0  0  0
   29.8670   25.5550   16.9770 C   0  0  0  0  0  0  0  0  0  0  0  0
   28.3450   25.7220   17.0260 C   0  0  0  0  0  0  0  0  0  0  0  0
   27.6010   24.4010   16.8980 C   0  0  0  0  0  0  0  0  0  0  0  0
   26.5000   24.2710   17.9130 C   0  0  0  0  0  0  0  0  0  0  0  0
   25.1500   24.4480   17.2250 C   0  0  0  0  0  0  0  0  0  0  0  0
   24.4060   23.1660   17.2050 N   0  0  0  0  0  0  0  0  0  0  0  0
  2  1  1  0  0  0  0
  2  5  2  0  0  0  0
  3  2  1  0  0  0  0
  4  3  1  0  0  0  0
  6  3  1  0  0  0  0
  7  6  1  1  0  0  0
  8  7  1  0  0  0  0
  8 28  1  1  0  0  0
  9 12  1  0  0  0  0
  9  8  1  1  0  0  0
 10 17  1  6  0  0  0
 10 12  1  0  0  0  0
 10 15  1  0  0  0  0
 11 10  1  0  0  0  0
 13 21  1  1  0  0  0
 13 11  1  0  0  0  0
 13 14  1  0  0  0  0
 14 23  1  6  0  0  0
 14  9  1  0  0  0  0
 15 16  1  0  0  0  0
 17 18  2  0  0  0  0
 19 17  1  0  0  0  0
 20 19  1  0  0  0  0
 22 21  1  0  0  0  0
 23 24  1  0  0  0  0
 24 27  2  0  0  0  0
 25 23  1  0  0  0  0
 26 24  1  0  0  0  0
 29 28  1  0  0  0  0
 30  7  1  0  0  0  0
 31 30  1  0  0  0  0
 32  1  1  0  0  0  0
 33 32  1  0  0  0  0
 34 33  2  0  0  0  0
 35 33  1  0  0  0  0
 36 34  1  0  0  0  0
 37 36  1  0  0  0  0
 37 35  2  0  0  0  0
 38 36  1  0  0  0  0
 39 38  1  0  0  0  0
 40 39  1  0  0  0  0
 40 44  1  0  0  0  0
 41 42  1  0  0  0  0
 41 40  1  0  0  0  0
 43 42  1  0  0  0  0
 44 45  1  0  0  0  0
 45 46  1  0  0  0  0
 47 48  1  0  0  0  0
 49 48  1  0  0  0  0
 49 50  1  0  0  0  0
 51 50  1  0  0  0  0
 52 51  1  0  0  0  0
M  END
>  <REMARK>
 VINA RESULT:    -4.336      2.940      7.900
 INTER + INTRA:         -14.964
 INTER:                  -9.004
 INTRA:                  -5.959
 UNBOUND:                -5.938
 SMILES CCOC(CCn1cc(COC(=O)NC[C@@H](O)C(O)[C@@H]2O[C@@](O)(C(=O)O)C[C@H](O)[C@H]2NC(C)=O)nn1)OCC
 SMILES IDX 11 1 12 2 14 3 13 5 15 6 16 7 18 8 20 9 22 10 27 11 21 12
 SMILES IDX 28 13 30 14 23 15 24 17 25 18 26 19 29 21 31 23 32 24 33 26
 SMILES IDX 34 27 19 28 17 30 10 32 9 33 8 34 35 35 7 36 36 37 6 38 5 39
 SMILES IDX 4 40 3 41 2 42 1 43 37 44 38 45 39 46
 H PARENT 14 4 23 16 26 20 29 22 31 25 19 29 17 31
 Flexibility Score: inf
  4 active torsions:
  status: ('A' for Active; 'I' for Inactive)
    1  A    between atoms: CA   and  CB  
    2  A    between atoms: CB   and  CG  
    3  A    between atoms: CG   and  CD  
    4  A    between atoms: CD   and  CE  

>  <TORSDO>
F 21

>  <BEGIN_>
RES LYS A 131

$$$$
ligand_54_pose_3_2HRL.pdbqt
 OpenBabel07062320523D

  6  5  0  0  0  0  0  0  0  0999 V2000
   33.1930   34.6630    9.2900 C   0  0  0  0  0  0  0  0  0  0  0  0
   32.0600   35.3600   10.0340 C   0  0  0  0  0  0  0  0  0  0  0  0
   30.9170   35.7710    9.1420 C   0  0  0  0  0  0  0  0  0  0  0  0
   30.4380   34.5930    8.3070 C   0  0  0  0  0  0  0  0  0  0  0  0
   29.2310   34.9850    7.4770 C   0  0  0  0  0  0  0  0  0  0  0  0
   28.0530   35.2690    8.3430 N   0  0  0  0  0  0  0  0  0  0  0  0
  1  2  1  0  0  0  0
  3  2  1  0  0  0  0
  4  3  1  0  0  0  0
  5  4  1  0  0  0  0
  5  6  1  0  0  0  0
M  END
>  <EGIN_R>
ES LYS A 135

>  <REMARK>
  4 active torsions:
  status: ('A' for Active; 'I' for Inactive)
    5  A    between atoms: CA   and  CB  
    6  A    between atoms: CB   and  CG  
    7  A    between atoms: CG   and  CD  
    8  A    between atoms: CD   and  CE  

$$$$
