ligand_24_pose_8_2HRL.pdbqt
 OpenBabel07062320523D

 52 53  0  0  1  0  0  0  0  0999 V2000
   29.0130   31.8590   17.6000 N   0  0  0  0  0  0  0  0  0  0  0  0
   27.9820   30.9210   17.8230 C   0  0  0  0  0  0  0  0  0  0  0  0
   28.0960   29.6990   17.5620 O   0  0  0  0  0  0  0  0  0  0  0  0
   28.8070   32.8550   17.8490 H   0  0  0  0  0  0  0  0  0  0  0  0
   30.2980   31.5350   17.0670 C   0  0  0  0  0  0  0  0  0  0  0  0
   30.8210   32.5000   16.0590 C   0  0  2  0  0  0  0  0  0  0  0  0
   29.7560   33.4390   15.5380 C   0  0  1  0  0  0  0  0  0  0  0  0
   30.2780   34.5690   14.7250 C   0  0  2  0  0  0  0  0  0  0  0  0
   32.0380   36.0520   14.4830 C   0  0  2  0  0  0  0  0  0  0  0  0
   31.1120   37.2020   14.2000 C   0  0  0  0  0  0  0  0  0  0  0  0
   31.5060   35.0260   15.1970 O   0  0  0  0  0  0  0  0  0  0  0  0
   29.7020   36.7530   13.8810 C   0  0  1  0  0  0  0  0  0  0  0  0
   29.3180   35.7490   14.9150 C   0  0  1  0  0  0  0  0  0  0  0  0
   33.0660   36.6030   15.2910 O   0  0  0  0  0  0  0  0  0  0  0  0
   33.8510   36.0210   15.1440 H   0  0  0  0  0  0  0  0  0  0  0  0
   32.6820   35.6650   13.2060 C   0  0  0  0  0  0  0  0  0  0  0  0
   32.5730   36.3600   12.1530 O   0  0  0  0  0  0  0  0  0  0  0  0
   33.4480   34.5060   13.0920 O   0  0  0  0  0  0  0  0  0  0  0  0
   34.4390   34.5270   13.2410 H   0  0  0  0  0  0  0  0  0  0  0  0
   28.8620   37.8480   13.8320 O   0  0  0  0  0  0  0  0  0  0  0  0
   29.3830   38.6540   13.6940 H   0  0  0  0  0  0  0  0  0  0  0  0
   27.9410   35.3740   14.9040 N   0  0  0  0  0  0  0  0  0  0  0  0
   26.9270   35.9860   15.6530 C   0  0  0  0  0  0  0  0  0  0  0  0
   27.6590   34.5710   14.2770 H   0  0  0  0  0  0  0  0  0  0  0  0
   25.5310   35.5010   15.5520 C   0  0  0  0  0  0  0  0  0  0  0  0
   27.1920   36.9320   16.4020 O   0  0  0  0  0  0  0  0  0  0  0  0
   28.8160   32.7160   14.8360 O   0  0  0  0  0  0  0  0  0  0  0  0
   29.0990   31.8210   14.5450 H   0  0  0  0  0  0  0  0  0  0  0  0
   31.5290   31.9130   15.0510 O   0  0  0  0  0  0  0  0  0  0  0  0
   31.4060   30.9180   15.1280 H   0  0  0  0  0  0  0  0  0  0  0  0
   26.7570   31.3540   18.3630 O   0  0  0  0  0  0  0  0  0  0  0  0
   25.8760   32.0720   17.5290 C   0  0  0  0  0  0  0  0  0  0  0  0
   25.2980   31.2310   16.4670 C   0  0  0  0  0  0  0  0  0  0  0  0
   25.2950   31.4890   15.0930 C   0  0  0  0  0  0  0  0  0  0  0  0
   24.6570   30.0560   16.5990 N   0  0  0  0  0  0  0  0  0  0  0  0
   24.6690   30.4830   14.4660 N   0  0  0  0  0  0  0  0  0  0  0  0
   24.2930   29.6300   15.3990 N   0  0  0  0  0  0  0  0  0  0  0  0
   24.4340   30.3330   13.0540 C   0  0  0  0  0  0  0  0  0  0  0  0
   22.9890   30.2910   12.7450 C   0  0  0  0  0  0  0  0  0  0  0  0
   22.2320   31.4390   12.7920 C   0  0  0  0  0  0  0  0  0  0  0  0
   22.3990   29.1000   12.4100 C   0  0  0  0  0  0  0  0  0  0  0  0
   20.8710   31.3910   12.4980 C   0  0  0  0  0  0  0  0  0  0  0  0
   21.0390   29.0380   12.1140 C   0  0  0  0  0  0  0  0  0  0  0  0
   20.2850   30.1820   12.1600 C   0  0  0  0  0  0  0  0  0  0  0  0
   18.9190   30.1530   11.8700 O   0  0  0  0  0  0  0  0  0  0  0  0
   18.0320   30.9760   12.6080 C   0  0  0  0  0  0  0  0  0  0  0  0
   29.8670   25.5550   16.9770 C   0  0  0  0  0  0  0  0  0  0  0  0
   28.3450   25.7220   17.0260 C   0  0  0  0  0  0  0  0  0  0  0  0
   27.6020   24.3990   16.9230 C   0  0  0  0  0  0  0  0  0  0  0  0
   26.5380   24.2640   17.9770 C   0  0  0  0  0  0  0  0  0  0  0  0
   25.2100   24.7770   17.4290 C   0  0  0  0  0  0  0  0  0  0  0  0
   24.3830   23.6500   16.9360 N   0  0  0  0  0  0  0  0  0  0  0  0
  1  2  1  0  0  0  0
  1  4  1  0  0  0  0
  2 31  1  0  0  0  0
  3  2  2  0  0  0  0
  5  1  1  0  0  0  0
  6  5  1  6  0  0  0
  7 27  1  6  0  0  0
  7  6  1  0  0  0  0
  8 13  1  0  0  0  0
  8 11  1  0  0  0  0
  8  7  1  1  0  0  0
  9 16  1  6  0  0  0
  9 11  1  0  0  0  0
  9 14  1  0  0  0  0
 10  9  1  0  0  0  0
 12 20  1  1  0  0  0
 12 10  1  0  0  0  0
 12 13  1  0  0  0  0
 13 22  1  6  0  0  0
 15 14  1  0  0  0  0
 17 16  2  0  0  0  0
 18 16  1  0  0  0  0
 18 19  1  0  0  0  0
 21 20  1  0  0  0  0
 22 23  1  0  0  0  0
 23 26  2  0  0  0  0
 24 22  1  0  0  0  0
 25 23  1  0  0  0  0
 28 27  1  0  0  0  0
 29 30  1  0  0  0  0
 29  6  1  0  0  0  0
 32 31  1  0  0  0  0
 33 35  1  0  0  0  0
 33 32  1  0  0  0  0
 34 33  2  0  0  0  0
 36 34  1  0  0  0  0
 36 37  1  0  0  0  0
 37 35  2  0  0  0  0
 38 36  1  0  0  0  0
 39 40  1  0  0  0  0
 39 38  1  0  0  0  0
 41 39  2  0  0  0  0
 42 40  2  0  0  0  0
 43 44  2  0  0  0  0
 43 41  1  0  0  0  0
 44 42  1  0  0  0  0
 45 44  1  0  0  0  0
 45 46  1  0  0  0  0
 47 48  1  0  0  0  0
 49 48  1  0  0  0  0
 49 50  1  0  0  0  0
 51 50  1  0  0  0  0
 52 51  1  0  0  0  0
M  END
>  <REMARK>
 VINA RESULT:    -5.131      3.626      8.166
 INTER + INTRA:         -14.755
 INTER:                  -9.290
 INTRA:                  -5.466
 UNBOUND:                -5.276
 SMILES COc1ccc(Cn2cc(COC(=O)NC[C@@H](O)C(O)[C@@H]3O[C@@](O)(C(=O)O)C[C@H](O)[C@H]3NC(C)=O)nn2)cc1
 SMILES IDX 15 1 13 2 14 3 16 5 17 6 19 7 21 8 23 9 28 10 22 11 29 12
 SMILES IDX 31 13 24 14 25 16 26 17 27 18 30 20 32 22 33 23 34 25 35 26
 SMILES IDX 20 27 18 29 12 31 11 32 10 33 9 34 36 35 8 36 37 37 7 38
 SMILES IDX 6 39 5 40 38 41 4 42 39 43 3 44 2 45 1 46
 H PARENT 15 4 24 15 27 19 30 21 32 24 20 28 18 30
 Flexibility Score: inf
  4 active torsions:
  status: ('A' for Active; 'I' for Inactive)
    1  A    between atoms: CA   and  CB  
    2  A    between atoms: CB   and  CG  
    3  A    between atoms: CG   and  CD  
    4  A    between atoms: CD   and  CE  

>  <TORSDO>
F 17

>  <BEGIN_>
RES LYS A 131

$$$$
ligand_24_pose_8_2HRL.pdbqt
 OpenBabel07062320523D

  6  5  0  0  0  0  0  0  0  0999 V2000
   33.1930   34.6630    9.2900 C   0  0  0  0  0  0  0  0  0  0  0  0
   32.0600   35.3600   10.0340 C   0  0  0  0  0  0  0  0  0  0  0  0
   30.7900   35.4700    9.2310 C   0  0  0  0  0  0  0  0  0  0  0  0
   30.1940   34.0940    8.9780 C   0  0  0  0  0  0  0  0  0  0  0  0
   28.7370   34.0590    9.3960 C   0  0  0  0  0  0  0  0  0  0  0  0
   27.8570   34.5980    8.3220 N   0  0  0  0  0  0  0  0  0  0  0  0
  1  2  1  0  0  0  0
  3  2  1  0  0  0  0
  4  3  1  0  0  0  0
  4  5  1  0  0  0  0
  6  5  1  0  0  0  0
M  END
>  <EGIN_R>
ES LYS A 135

>  <REMARK>
  4 active torsions:
  status: ('A' for Active; 'I' for Inactive)
    5  A    between atoms: CA   and  CB  
    6  A    between atoms: CB   and  CG  
    7  A    between atoms: CG   and  CD  
    8  A    between atoms: CD   and  CE  

$$$$
