ligand_29_pose_11_2HRL.pdbqt
 OpenBabel07062320523D

 54 55  0  0  1  0  0  0  0  0999 V2000
   30.3840   38.7090    5.9960 N   0  0  0  0  0  0  0  0  0  0  0  0
   29.0530   38.4470    5.6440 C   0  0  0  0  0  0  0  0  0  0  0  0
   28.2740   39.3670    5.3140 O   0  0  0  0  0  0  0  0  0  0  0  0
   30.9790   37.8700    6.2750 H   0  0  0  0  0  0  0  0  0  0  0  0
   31.0210   40.0140    6.0130 C   0  0  0  0  0  0  0  0  0  0  0  0
   32.4540   39.9000    6.3910 C   0  0  2  0  0  0  0  0  0  0  0  0
   33.4190   40.1020    5.2480 C   0  0  2  0  0  0  0  0  0  0  0  0
   34.7330   40.6930    5.6360 C   0  0  2  0  0  0  0  0  0  0  0  0
   36.2910   38.9650    5.4670 C   0  0  2  0  0  0  0  0  0  0  0  0
   37.2000   39.4870    6.5700 C   0  0  0  0  0  0  0  0  0  0  0  0
   35.7250   40.0560    4.8630 O   0  0  0  0  0  0  0  0  0  0  0  0
   36.6690   40.8030    7.0620 C   0  0  1  0  0  0  0  0  0  0  0  0
   35.0960   40.7960    7.0540 C   0  0  1  0  0  0  0  0  0  0  0  0
   35.3890   38.0280    5.9590 O   0  0  0  0  0  0  0  0  0  0  0  0
   34.4490   38.3400    5.9080 H   0  0  0  0  0  0  0  0  0  0  0  0
   37.1220   38.2590    4.4490 C   0  0  0  0  0  0  0  0  0  0  0  0
   37.3860   38.8440    3.3720 O   0  0  0  0  0  0  0  0  0  0  0  0
   37.6150   36.9780    4.6440 O   0  0  0  0  0  0  0  0  0  0  0  0
   37.6190   36.2730    3.8950 H   0  0  0  0  0  0  0  0  0  0  0  0
   37.0960   41.0970    8.3520 O   0  0  0  0  0  0  0  0  0  0  0  0
   36.9750   40.3320    8.9550 H   0  0  0  0  0  0  0  0  0  0  0  0
   34.7820   42.1230    7.6040 N   0  0  0  0  0  0  0  0  0  0  0  0
   33.9070   42.3400    8.6950 C   0  0  0  0  0  0  0  0  0  0  0  0
   35.2210   42.9930    7.1820 H   0  0  0  0  0  0  0  0  0  0  0  0
   33.6060   43.6930    9.2270 C   0  0  0  0  0  0  0  0  0  0  0  0
   33.3530   41.3580    9.2490 O   0  0  0  0  0  0  0  0  0  0  0  0
   32.8170   41.0930    4.3720 O   0  0  0  0  0  0  0  0  0  0  0  0
   33.2550   41.9540    4.5740 H   0  0  0  0  0  0  0  0  0  0  0  0
   32.7780   38.8800    7.2470 O   0  0  0  0  0  0  0  0  0  0  0  0
   33.7090   38.5910    7.1960 H   0  0  0  0  0  0  0  0  0  0  0  0
   28.5470   37.1300    5.6520 O   0  0  0  0  0  0  0  0  0  0  0  0
   27.1720   36.9480    6.0270 C   0  0  0  0  0  0  0  0  0  0  0  0
   27.0520   36.1720    7.2590 C   0  0  0  0  0  0  0  0  0  0  0  0
   26.5050   36.5960    8.4440 C   0  0  0  0  0  0  0  0  0  0  0  0
   27.4520   34.9020    7.4310 N   0  0  0  0  0  0  0  0  0  0  0  0
   26.5830   35.5880    9.3070 N   0  0  0  0  0  0  0  0  0  0  0  0
   27.1540   34.5790    8.6830 N   0  0  0  0  0  0  0  0  0  0  0  0
   26.1350   35.5770   10.6940 C   0  0  0  0  0  0  0  0  0  0  0  0
   27.3020   35.9220   11.5650 C   0  0  0  0  0  0  0  0  0  0  0  0
   28.1050   34.8980   12.0650 C   0  0  0  0  0  0  0  0  0  0  0  0
   27.6270   37.2210   11.8920 C   0  0  0  0  0  0  0  0  0  0  0  0
   29.1900   35.1720   12.8610 C   0  0  0  0  0  0  0  0  0  0  0  0
   28.7110   37.5290   12.6900 C   0  0  0  0  0  0  0  0  0  0  0  0
   29.4790   36.4900   13.1630 C   0  0  0  0  0  0  0  0  0  0  0  0
   30.0010   34.1600   13.3690 O   0  0  0  0  0  0  0  0  0  0  0  0
   29.5480   33.4410   14.5020 C   0  0  0  0  0  0  0  0  0  0  0  0
   30.5760   36.7570   13.9670 O   0  0  0  0  0  0  0  0  0  0  0  0
   31.8050   37.2140   13.4330 C   0  0  0  0  0  0  0  0  0  0  0  0
   29.8670   25.5550   16.9770 C   0  0  0  0  0  0  0  0  0  0  0  0
   28.3450   25.7220   17.0260 C   0  0  0  0  0  0  0  0  0  0  0  0
   27.6010   24.4020   16.8950 C   0  0  0  0  0  0  0  0  0  0  0  0
   26.1640   24.5170   17.3200 C   0  0  0  0  0  0  0  0  0  0  0  0
   25.9670   23.7970   18.6510 C   0  0  0  0  0  0  0  0  0  0  0  0
   24.5290   23.5310   18.8890 N   0  0  0  0  0  0  0  0  0  0  0  0
  1  5  1  0  0  0  0
  1  4  1  0  0  0  0
  2 31  1  0  0  0  0
  2  1  1  0  0  0  0
  3  2  2  0  0  0  0
  6  5  1  6  0  0  0
  6 29  1  0  0  0  0
  7 27  1  6  0  0  0
  7  6  1  0  0  0  0
  8  7  1  1  0  0  0
  8 13  1  0  0  0  0
  9 16  1  6  0  0  0
  9 14  1  0  0  0  0
  9 10  1  0  0  0  0
 10 12  1  0  0  0  0
 11  9  1  0  0  0  0
 11  8  1  0  0  0  0
 12 20  1  1  0  0  0
 13 12  1  0  0  0  0
 13 22  1  6  0  0  0
 15 14  1  0  0  0  0
 16 18  1  0  0  0  0
 17 16  2  0  0  0  0
 19 18  1  0  0  0  0
 20 21  1  0  0  0  0
 22 23  1  0  0  0  0
 23 25  1  0  0  0  0
 23 26  2  0  0  0  0
 24 22  1  0  0  0  0
 27 28  1  0  0  0  0
 30 29  1  0  0  0  0
 31 32  1  0  0  0  0
 32 33  1  0  0  0  0
 33 35  1  0  0  0  0
 33 34  2  0  0  0  0
 34 36  1  0  0  0  0
 35 37  2  0  0  0  0
 36 38  1  0  0  0  0
 37 36  1  0  0  0  0
 38 39  1  0  0  0  0
 39 41  2  0  0  0  0
 39 40  1  0  0  0  0
 40 42  2  0  0  0  0
 41 43  1  0  0  0  0
 42 44  1  0  0  0  0
 42 45  1  0  0  0  0
 43 44  2  0  0  0  0
 44 47  1  0  0  0  0
 45 46  1  0  0  0  0
 48 47  1  0  0  0  0
 49 50  1  0  0  0  0
 51 50  1  0  0  0  0
 51 52  1  0  0  0  0
 52 53  1  0  0  0  0
 53 54  1  0  0  0  0
M  END
>  <REMARK>
 VINA RESULT:    -5.005      6.166     11.890
 INTER + INTRA:         -14.659
 INTER:                 -11.057
 INTRA:                  -3.602
 UNBOUND:                -5.118
 SMILES COc1ccc(Cn2cc(COC(=O)NC[C@@H](O)C(O)[C@@H]3O[C@@](O)(C(=O)O)C[C@H](O)[C@H]3NC(C)=O)nn2)cc1OC
 SMILES IDX 15 1 13 2 14 3 16 5 17 6 19 7 21 8 23 9 28 10 22 11 29 12
 SMILES IDX 31 13 24 14 25 16 26 17 27 18 30 20 32 22 33 23 34 25 35 26
 SMILES IDX 20 27 18 29 12 31 11 32 10 33 9 34 36 35 8 36 37 37 7 38
 SMILES IDX 6 39 38 40 5 41 39 42 4 43 3 44 40 45 41 46 2 47 1 48
 H PARENT 15 4 24 15 27 19 30 21 32 24 20 28 18 30
 Flexibility Score: inf
  4 active torsions:
  status: ('A' for Active; 'I' for Inactive)
    1  A    between atoms: CA   and  CB  
    2  A    between atoms: CB   and  CG  
    3  A    between atoms: CG   and  CD  
    4  A    between atoms: CD   and  CE  

>  <TORSDO>
F 18

>  <BEGIN_>
RES LYS A 131

$$$$
ligand_29_pose_11_2HRL.pdbqt
 OpenBabel07062320523D

  6  5  0  0  0  0  0  0  0  0999 V2000
   33.1930   34.6630    9.2900 C   0  0  0  0  0  0  0  0  0  0  0  0
   32.0600   35.3600   10.0340 C   0  0  0  0  0  0  0  0  0  0  0  0
   30.7390   35.3020    9.3110 C   0  0  0  0  0  0  0  0  0  0  0  0
   30.1660   36.6990    9.1280 C   0  0  0  0  0  0  0  0  0  0  0  0
   31.0320   37.7260    9.8320 C   0  0  0  0  0  0  0  0  0  0  0  0
   30.4160   39.0810    9.7690 N   0  0  0  0  0  0  0  0  0  0  0  0
  1  2  1  0  0  0  0
  3  2  1  0  0  0  0
  4  3  1  0  0  0  0
  4  5  1  0  0  0  0
  6  5  1  0  0  0  0
M  END
>  <EGIN_R>
ES LYS A 135

>  <REMARK>
  4 active torsions:
  status: ('A' for Active; 'I' for Inactive)
    5  A    between atoms: CA   and  CB  
    6  A    between atoms: CB   and  CG  
    7  A    between atoms: CG   and  CD  
    8  A    between atoms: CD   and  CE  

$$$$
