ligand_65_pose_2_2HRL.pdbqt
 OpenBabel07062320523D

 53 54  0  0  1  0  0  0  0  0999 V2000
   27.7370   28.9290   18.3920 N   0  0  0  0  0  0  0  0  0  0  0  0
   26.6380   29.3980   17.6470 C   0  0  0  0  0  0  0  0  0  0  0  0
   25.6140   28.7210   17.4040 O   0  0  0  0  0  0  0  0  0  0  0  0
   28.5900   29.5350   18.5850 H   0  0  0  0  0  0  0  0  0  0  0  0
   27.7230   27.5810   18.9200 C   0  0  0  0  0  0  0  0  0  0  0  0
   27.6060   27.6460   20.4100 C   0  0  2  0  0  0  0  0  0  0  0  0
   28.9800   27.5770   21.0470 C   0  0  2  0  0  0  0  0  0  0  0  0
   29.2650   28.9270   21.6880 C   0  0  2  0  0  0  0  0  0  0  0  0
   30.3720   30.4370   20.2570 C   0  0  2  0  0  0  0  0  0  0  0  0
   31.6810   30.1800   20.9340 C   0  0  0  0  0  0  0  0  0  0  0  0
   29.2740   29.8610   20.7380 O   0  0  0  0  0  0  0  0  0  0  0  0
   31.4000   30.0090   22.4210 C   0  0  1  0  0  0  0  0  0  0  0  0
   30.5310   28.7530   22.4830 C   0  0  1  0  0  0  0  0  0  0  0  0
   30.5380   30.0210   18.9150 O   0  0  0  0  0  0  0  0  0  0  0  0
   29.9120   30.4870   18.3140 H   0  0  0  0  0  0  0  0  0  0  0  0
   30.1810   31.9100   20.2140 C   0  0  0  0  0  0  0  0  0  0  0  0
   30.8630   32.6220   19.4340 O   0  0  0  0  0  0  0  0  0  0  0  0
   29.2590   32.5570   21.0180 O   0  0  0  0  0  0  0  0  0  0  0  0
   28.8110   32.1060   21.8190 H   0  0  0  0  0  0  0  0  0  0  0  0
   32.5560   29.7680   23.1380 O   0  0  0  0  0  0  0  0  0  0  0  0
   33.0560   30.6320   23.1890 H   0  0  0  0  0  0  0  0  0  0  0  0
   30.2430   28.3900   23.8530 N   0  0  0  0  0  0  0  0  0  0  0  0
   30.9940   27.3890   24.5200 C   0  0  0  0  0  0  0  0  0  0  0  0
   29.4570   28.9080   24.3090 H   0  0  0  0  0  0  0  0  0  0  0  0
   30.6480   27.0650   25.9210 C   0  0  0  0  0  0  0  0  0  0  0  0
   31.9320   26.7780   23.9630 O   0  0  0  0  0  0  0  0  0  0  0  0
   29.9340   27.3490   20.0190 O   0  0  0  0  0  0  0  0  0  0  0  0
   30.7060   26.9320   20.4980 H   0  0  0  0  0  0  0  0  0  0  0  0
   26.7930   26.5920   20.8510 O   0  0  0  0  0  0  0  0  0  0  0  0
   26.1620   26.3220   20.1600 H   0  0  0  0  0  0  0  0  0  0  0  0
   26.6830   30.7090   17.1400 O   0  0  0  0  0  0  0  0  0  0  0  0
   27.1560   30.8820   15.8220 C   0  0  0  0  0  0  0  0  0  0  0  0
   28.5790   31.3500   15.8810 C   0  0  0  0  0  0  0  0  0  0  0  0
   29.0750   32.5800   15.4920 C   0  0  0  0  0  0  0  0  0  0  0  0
   29.6630   30.6730   16.3240 N   0  0  0  0  0  0  0  0  0  0  0  0
   30.4070   32.6230   15.7000 N   0  0  0  0  0  0  0  0  0  0  0  0
   30.7320   31.4530   16.2040 N   0  0  0  0  0  0  0  0  0  0  0  0
   31.2780   33.7250   15.4240 C   0  0  0  0  0  0  0  0  0  0  0  0
   32.0730   34.2550   16.3710 N   0  0  0  0  0  0  0  0  0  0  0  0
   31.3300   34.2730   14.1940 N   0  0  0  0  0  0  0  0  0  0  0  0
   32.9040   35.2870   16.1530 C   0  0  0  0  0  0  0  0  0  0  0  0
   32.1480   35.3190   13.9110 C   0  0  0  0  0  0  0  0  0  0  0  0
   32.9150   35.8020   14.8930 N   0  0  0  0  0  0  0  0  0  0  0  0
   32.2130   35.9320   12.5580 C   0  0  0  0  0  0  0  0  0  0  0  0
   33.7380   35.8450   17.1430 N   0  0  0  0  0  0  0  0  0  0  0  0
   33.3980   36.6190   17.7280 H   0  0  0  0  0  0  0  0  0  0  0  0
   34.6900   35.4750   17.2770 H   0  0  0  0  0  0  0  0  0  0  0  0
   29.8670   25.5550   16.9770 C   0  0  0  0  0  0  0  0  0  0  0  0
   28.3450   25.7220   17.0260 C   0  0  0  0  0  0  0  0  0  0  0  0
   27.6010   24.4010   16.8990 C   0  0  0  0  0  0  0  0  0  0  0  0
   26.1630   24.5180   17.3230 C   0  0  0  0  0  0  0  0  0  0  0  0
   25.9690   23.8170   18.6630 C   0  0  0  0  0  0  0  0  0  0  0  0
   24.5680   23.3550   18.8090 N   0  0  0  0  0  0  0  0  0  0  0  0
  1  4  1  0  0  0  0
  1  5  1  0  0  0  0
  2  1  1  0  0  0  0
  3  2  2  0  0  0  0
  6  5  1  6  0  0  0
  6 29  1  0  0  0  0
  6  7  1  0  0  0  0
  7 27  1  6  0  0  0
  8  7  1  6  0  0  0
  8 13  1  0  0  0  0
  9 14  1  6  0  0  0
  9 11  1  0  0  0  0
  9 10  1  0  0  0  0
 10 12  1  0  0  0  0
 11  8  1  0  0  0  0
 12 13  1  0  0  0  0
 12 20  1  1  0  0  0
 13 22  1  1  0  0  0
 15 14  1  0  0  0  0
 16  9  1  0  0  0  0
 16 18  1  0  0  0  0
 17 16  2  0  0  0  0
 18 19  1  0  0  0  0
 20 21  1  0  0  0  0
 22 24  1  0  0  0  0
 22 23  1  0  0  0  0
 23 25  1  0  0  0  0
 26 23  2  0  0  0  0
 27 28  1  0  0  0  0
 30 29  1  0  0  0  0
 31  2  1  0  0  0  0
 32 33  1  0  0  0  0
 32 31  1  0  0  0  0
 33 35  1  0  0  0  0
 34 36  1  0  0  0  0
 34 33  2  0  0  0  0
 36 37  1  0  0  0  0
 37 35  2  0  0  0  0
 38 36  1  0  0  0  0
 38 39  2  0  0  0  0
 40 38  1  0  0  0  0
 41 39  2  0  0  0  0
 41 45  1  0  0  0  0
 42 40  2  0  0  0  0
 42 43  1  0  0  0  0
 43 41  1  0  0  0  0
 44 42  1  0  0  0  0
 45 47  1  0  0  0  0
 45 46  1  0  0  0  0
 48 49  1  0  0  0  0
 50 49  1  0  0  0  0
 50 51  1  0  0  0  0
 51 52  1  0  0  0  0
 52 53  1  0  0  0  0
M  END
>  <REMARK>
 VINA RESULT:    -5.283      0.913      1.476
 INTER + INTRA:         -14.433
 INTER:                  -8.401
 INTRA:                  -6.032
 UNBOUND:                -5.134
 SMILES CC(=O)N[C@@H]1[C@@H](O)C[C@](O)(C(=O)O)O[C@H]1C(O)[C@H](O)CNC(=O)OCc1cn(-c2nc(C)nc(N)n2)nn1
 SMILES IDX 21 1 22 2 23 3 20 5 18 6 16 7 15 8 9 9 8 10 14 11 6 12 5 13
 SMILES IDX 10 14 11 16 12 17 13 18 7 20 4 22 2 23 1 25 3 26 17 27 19 29
 SMILES IDX 24 31 25 32 26 33 27 34 38 35 28 36 37 37 29 38 36 39 30 40
 SMILES IDX 34 41 31 42 33 43 32 44 35 45
 H PARENT 21 4 10 15 13 19 7 21 4 24 17 28 19 30 35 46 35 47
 Flexibility Score: inf
  4 active torsions:
  status: ('A' for Active; 'I' for Inactive)
    1  A    between atoms: CA   and  CB  
    2  A    between atoms: CB   and  CG  
    3  A    between atoms: CG   and  CD  
    4  A    between atoms: CD   and  CE  

>  <TORSDO>
F 16

>  <BEGIN_>
RES LYS A 131

$$$$
ligand_65_pose_2_2HRL.pdbqt
 OpenBabel07062320523D

  6  5  0  0  0  0  0  0  0  0999 V2000
   33.1930   34.6630    9.2900 C   0  0  0  0  0  0  0  0  0  0  0  0
   32.0600   35.3600   10.0340 C   0  0  0  0  0  0  0  0  0  0  0  0
   30.7830   35.4520    9.2380 C   0  0  0  0  0  0  0  0  0  0  0  0
   30.0270   34.1330    9.2840 C   0  0  0  0  0  0  0  0  0  0  0  0
   28.6520   34.2860    8.6630 C   0  0  0  0  0  0  0  0  0  0  0  0
   28.6830   35.2380    7.5180 N   0  0  0  0  0  0  0  0  0  0  0  0
  1  2  1  0  0  0  0
  3  4  1  0  0  0  0
  3  2  1  0  0  0  0
  5  4  1  0  0  0  0
  6  5  1  0  0  0  0
M  END
>  <EGIN_R>
ES LYS A 135

>  <REMARK>
  4 active torsions:
  status: ('A' for Active; 'I' for Inactive)
    5  A    between atoms: CA   and  CB  
    6  A    between atoms: CB   and  CG  
    7  A    between atoms: CG   and  CD  
    8  A    between atoms: CD   and  CE  

$$$$
