ligand_89_pose_2_2HRL.pdbqt
 OpenBabel07062320523D

 60 63  0  0  1  0  0  0  0  0999 V2000
   27.7020   38.1230    8.4490 N   0  0  0  0  0  0  0  0  0  0  0  0
   27.8150   39.5110    8.3680 C   0  0  0  0  0  0  0  0  0  0  0  0
   27.4510   40.1770    7.3980 O   0  0  0  0  0  0  0  0  0  0  0  0
   28.0400   37.6760    9.3900 H   0  0  0  0  0  0  0  0  0  0  0  0
   27.2020   37.2550    7.4530 C   0  0  0  0  0  0  0  0  0  0  0  0
   25.8910   36.6520    7.6950 C   0  0  2  0  0  0  0  0  0  0  0  0
   24.6220   37.3700    7.4840 C   0  0  1  0  0  0  0  0  0  0  0  0
   23.8460   37.2590    8.8290 C   0  0  2  0  0  0  0  0  0  0  0  0
   21.6920   36.5610    8.2060 C   0  0  2  0  0  0  0  0  0  0  0  0
   21.1080   37.7820    8.8340 C   0  0  0  0  0  0  0  0  0  0  0  0
   22.9240   36.2890    8.7030 O   0  0  0  0  0  0  0  0  0  0  0  0
   22.0280   38.9760    8.8430 C   0  0  1  0  0  0  0  0  0  0  0  0
   23.4180   38.5980    9.3020 C   0  0  1  0  0  0  0  0  0  0  0  0
   21.8100   36.7470    6.8050 O   0  0  0  0  0  0  0  0  0  0  0  0
   22.4390   37.5100    6.7010 H   0  0  0  0  0  0  0  0  0  0  0  0
   20.7170   35.4480    8.4620 C   0  0  0  0  0  0  0  0  0  0  0  0
   20.1300   35.3870    9.5510 O   0  0  0  0  0  0  0  0  0  0  0  0
   20.4780   34.5060    7.4900 O   0  0  0  0  0  0  0  0  0  0  0  0
   20.3350   34.7870    6.5160 H   0  0  0  0  0  0  0  0  0  0  0  0
   22.0830   39.6200    7.6060 O   0  0  0  0  0  0  0  0  0  0  0  0
   22.0970   40.5980    7.7460 H   0  0  0  0  0  0  0  0  0  0  0  0
   23.4180   38.6860   10.7690 N   0  0  0  0  0  0  0  0  0  0  0  0
   24.6030   38.6470   11.5320 C   0  0  0  0  0  0  0  0  0  0  0  0
   22.5090   38.7810   11.3030 H   0  0  0  0  0  0  0  0  0  0  0  0
   24.5980   38.7350   13.0150 C   0  0  0  0  0  0  0  0  0  0  0  0
   25.7250   38.5330   10.9530 O   0  0  0  0  0  0  0  0  0  0  0  0
   24.7490   38.7230    7.1660 O   0  0  0  0  0  0  0  0  0  0  0  0
   25.3950   38.8430    6.4020 H   0  0  0  0  0  0  0  0  0  0  0  0
   25.9320   36.1770    9.0610 O   0  0  0  0  0  0  0  0  0  0  0  0
   25.5400   36.8340    9.6630 H   0  0  0  0  0  0  0  0  0  0  0  0
   28.3770   40.2520    9.4320 O   0  0  0  0  0  0  0  0  0  0  0  0
   29.5260   39.8220   10.1020 C   0  0  0  0  0  0  0  0  0  0  0  0
   29.1450   39.1780   11.3850 C   0  0  0  0  0  0  0  0  0  0  0  0
   28.9630   37.8180   11.6170 C   0  0  0  0  0  0  0  0  0  0  0  0
   28.9040   39.7550   12.5760 N   0  0  0  0  0  0  0  0  0  0  0  0
   28.6220   37.6100   12.9200 N   0  0  0  0  0  0  0  0  0  0  0  0
   28.6030   38.8090   13.4430 N   0  0  0  0  0  0  0  0  0  0  0  0
   28.3710   36.3210   13.4720 C   0  0  0  0  0  0  0  0  0  0  0  0
   27.1510   35.7100   13.5450 N   0  0  0  0  0  0  0  0  0  0  0  0
   29.2550   35.4350   14.0300 C   0  0  0  0  0  0  0  0  0  0  0  0
   27.3050   34.5110   14.1230 C   0  0  0  0  0  0  0  0  0  0  0  0
   28.5970   34.3060   14.4380 N   0  0  0  0  0  0  0  0  0  0  0  0
   30.5980   35.4840   14.2350 C   0  0  0  0  0  0  0  0  0  0  0  0
   29.2360   33.2750   15.0210 C   0  0  0  0  0  0  0  0  0  0  0  0
   31.2700   34.4890   14.8070 N   0  0  0  0  0  0  0  0  0  0  0  0
   31.2690   36.4890   13.8880 O   0  0  0  0  0  0  0  0  0  0  0  0
   28.5390   32.1530   15.4190 C   0  0  0  0  0  0  0  0  0  0  0  0
   30.6000   33.3850   15.2000 C   0  0  0  0  0  0  0  0  0  0  0  0
   29.1700   31.0770   16.0210 C   0  0  0  0  0  0  0  0  0  0  0  0
   31.2080   32.2950   15.8060 C   0  0  0  0  0  0  0  0  0  0  0  0
   30.5230   31.1660   16.2090 C   0  0  0  0  0  0  0  0  0  0  0  0
   32.6950   34.4760   15.0510 C   0  0  0  0  0  0  0  0  0  0  0  0
   32.9700   35.4930   16.1380 C   0  0  0  0  0  0  0  0  0  0  0  0
   33.5350   34.8380   13.8670 C   0  0  0  0  0  0  0  0  0  0  0  0
   29.8670   25.5550   16.9770 C   0  0  0  0  0  0  0  0  0  0  0  0
   28.3450   25.7220   17.0260 C   0  0  0  0  0  0  0  0  0  0  0  0
   27.6020   24.3980   16.9310 C   0  0  0  0  0  0  0  0  0  0  0  0
   26.6310   24.2110   18.0640 C   0  0  0  0  0  0  0  0  0  0  0  0
   26.3170   25.5640   18.6940 C   0  0  0  0  0  0  0  0  0  0  0  0
   24.9280   25.9740   18.3770 N   0  0  0  0  0  0  0  0  0  0  0  0
  1  4  1  0  0  0  0
  2  1  1  0  0  0  0
  2 31  1  0  0  0  0
  3  2  2  0  0  0  0
  5  1  1  0  0  0  0
  6  5  1  1  0  0  0
  6 29  1  0  0  0  0
  7 27  1  1  0  0  0
  7  6  1  0  0  0  0
  8  7  1  6  0  0  0
  8 13  1  0  0  0  0
  9 14  1  6  0  0  0
  9 16  1  0  0  0  0
  9 11  1  0  0  0  0
  9 10  1  0  0  0  0
 10 12  1  0  0  0  0
 11  8  1  0  0  0  0
 12 20  1  6  0  0  0
 12 13  1  0  0  0  0
 13 22  1  1  0  0  0
 15 14  1  0  0  0  0
 16 17  2  0  0  0  0
 18 16  1  0  0  0  0
 19 18  1  0  0  0  0
 20 21  1  0  0  0  0
 22 24  1  0  0  0  0
 22 23  1  0  0  0  0
 23 25  1  0  0  0  0
 26 23  2  0  0  0  0
 28 27  1  0  0  0  0
 29 30  1  0  0  0  0
 31 32  1  0  0  0  0
 32 33  1  0  0  0  0
 33 34  2  0  0  0  0
 33 35  1  0  0  0  0
 34 36  1  0  0  0  0
 35 37  2  0  0  0  0
 36 37  1  0  0  0  0
 36 38  1  0  0  0  0
 38 39  1  0  0  0  0
 38 40  2  0  0  0  0
 39 41  2  0  0  0  0
 40 43  1  0  0  0  0
 40 42  1  0  0  0  0
 41 42  1  0  0  0  0
 42 44  1  0  0  0  0
 43 45  1  0  0  0  0
 44 48  2  0  0  0  0
 44 47  1  0  0  0  0
 45 52  1  0  0  0  0
 45 48  1  0  0  0  0
 46 43  2  0  0  0  0
 47 49  2  0  0  0  0
 48 50  1  0  0  0  0
 49 51  1  0  0  0  0
 50 51  2  0  0  0  0
 52 53  1  0  0  0  0
 54 52  1  0  0  0  0
 55 56  1  0  0  0  0
 57 56  1  0  0  0  0
 57 58  1  0  0  0  0
 58 59  1  0  0  0  0
 60 59  1  0  0  0  0
M  END
>  <REMARK>
 VINA RESULT:    -4.921      5.689     12.173
 INTER + INTRA:         -15.914
 INTER:                 -10.494
 INTRA:                  -5.420
 UNBOUND:                -7.109
 SMILES CC(=O)N[C@@H]1[C@@H](O)C[C@](O)(C(=O)O)O[C@H]1C(O)[C@H](O)CNC(=O)OCc1cn(-c2ncn3c2c(=O)n(C(C)C)c2ccccc23)nn1
 SMILES IDX 21 1 22 2 23 3 20 5 18 6 16 7 15 8 9 9 8 10 14 11 6 12 5 13
 SMILES IDX 10 14 11 16 12 17 13 18 7 20 4 22 2 23 1 25 3 26 17 27 19 29
 SMILES IDX 24 31 25 32 26 33 27 34 47 35 28 36 46 37 29 38 30 39 33 40
 SMILES IDX 31 41 32 42 34 43 45 44 36 45 35 46 44 47 40 48 43 49 41 50
 SMILES IDX 42 51 37 52 38 53 39 54
 H PARENT 21 4 10 15 13 19 7 21 4 24 17 28 19 30
 Flexibility Score: inf
  4 active torsions:
  status: ('A' for Active; 'I' for Inactive)
    1  A    between atoms: CA   and  CB  
    2  A    between atoms: CB   and  CG  
    3  A    between atoms: CG   and  CD  
    4  A    between atoms: CD   and  CE  

>  <TORSDO>
F 16

>  <BEGIN_>
RES LYS A 131

$$$$
ligand_89_pose_2_2HRL.pdbqt
 OpenBabel07062320523D

  6  5  0  0  0  0  0  0  0  0999 V2000
   33.1930   34.6630    9.2900 C   0  0  0  0  0  0  0  0  0  0  0  0
   32.0600   35.3600   10.0340 C   0  0  0  0  0  0  0  0  0  0  0  0
   30.8250   35.5650    9.1950 C   0  0  0  0  0  0  0  0  0  0  0  0
   30.2960   34.2340    8.6840 C   0  0  0  0  0  0  0  0  0  0  0  0
   28.8200   34.0890    9.0010 C   0  0  0  0  0  0  0  0  0  0  0  0
   28.5530   34.3520   10.4430 N   0  0  0  0  0  0  0  0  0  0  0  0
  1  2  1  0  0  0  0
  3  2  1  0  0  0  0
  4  5  1  0  0  0  0
  4  3  1  0  0  0  0
  5  6  1  0  0  0  0
M  END
>  <EGIN_R>
ES LYS A 135

>  <REMARK>
  4 active torsions:
  status: ('A' for Active; 'I' for Inactive)
    5  A    between atoms: CA   and  CB  
    6  A    between atoms: CB   and  CG  
    7  A    between atoms: CG   and  CD  
    8  A    between atoms: CD   and  CE  

$$$$
