ligand_29_pose_9_2HRL.pdbqt
 OpenBabel07062320523D

 54 55  0  0  1  0  0  0  0  0999 V2000
   30.7470   32.3190   14.9870 N   0  0  0  0  0  0  0  0  0  0  0  0
   31.6940   33.2370   15.4600 C   0  0  0  0  0  0  0  0  0  0  0  0
   31.7030   33.6070   16.6550 O   0  0  0  0  0  0  0  0  0  0  0  0
   30.8030   32.0650   13.9540 H   0  0  0  0  0  0  0  0  0  0  0  0
   29.7050   31.6860   15.7760 C   0  0  0  0  0  0  0  0  0  0  0  0
   28.5770   32.6240   16.0150 C   0  0  2  0  0  0  0  0  0  0  0  0
   27.2970   31.9600   16.4610 C   0  0  2  0  0  0  0  0  0  0  0  0
   27.3970   30.4860   16.6700 C   0  0  2  0  0  0  0  0  0  0  0  0
   25.2240   29.6610   16.4800 C   0  0  2  0  0  0  0  0  0  0  0  0
   25.4290   28.5010   17.4450 C   0  0  0  0  0  0  0  0  0  0  0  0
   26.4210   29.8790   15.8540 O   0  0  0  0  0  0  0  0  0  0  0  0
   26.8640   28.4770   17.8850 C   0  0  1  0  0  0  0  0  0  0  0  0
   27.4160   29.9430   18.0330 C   0  0  1  0  0  0  0  0  0  0  0  0
   24.6860   30.7670   17.1290 O   0  0  0  0  0  0  0  0  0  0  0  0
   25.0270   30.8680   18.0560 H   0  0  0  0  0  0  0  0  0  0  0  0
   24.2320   29.2560   15.4420 C   0  0  0  0  0  0  0  0  0  0  0  0
   24.2550   29.8290   14.3270 O   0  0  0  0  0  0  0  0  0  0  0  0
   23.2810   28.2700   15.6590 O   0  0  0  0  0  0  0  0  0  0  0  0
   23.4350   27.2920   15.3850 H   0  0  0  0  0  0  0  0  0  0  0  0
   27.0340   27.8230   19.1000 O   0  0  0  0  0  0  0  0  0  0  0  0
   26.2590   27.9490   19.6880 H   0  0  0  0  0  0  0  0  0  0  0  0
   28.7870   29.7070   18.5090 N   0  0  0  0  0  0  0  0  0  0  0  0
   29.4920   30.5890   19.3610 C   0  0  0  0  0  0  0  0  0  0  0  0
   29.3100   28.8300   18.2150 H   0  0  0  0  0  0  0  0  0  0  0  0
   30.8790   30.3260   19.8220 C   0  0  0  0  0  0  0  0  0  0  0  0
   28.9370   31.6460   19.7530 O   0  0  0  0  0  0  0  0  0  0  0  0
   26.3520   32.1110   15.3670 O   0  0  0  0  0  0  0  0  0  0  0  0
   25.4510   32.0040   15.7550 H   0  0  0  0  0  0  0  0  0  0  0  0
   28.4170   33.6290   15.0980 O   0  0  0  0  0  0  0  0  0  0  0  0
   29.2400   34.1010   14.8690 H   0  0  0  0  0  0  0  0  0  0  0  0
   32.6730   33.7790   14.5990 O   0  0  0  0  0  0  0  0  0  0  0  0
   32.4740   35.1200   14.1260 C   0  0  0  0  0  0  0  0  0  0  0  0
   31.1320   35.2990   13.5760 C   0  0  0  0  0  0  0  0  0  0  0  0
   30.3040   36.3750   13.7720 C   0  0  0  0  0  0  0  0  0  0  0  0
   30.4890   34.4370   12.7730 N   0  0  0  0  0  0  0  0  0  0  0  0
   29.1830   36.1500   13.0940 N   0  0  0  0  0  0  0  0  0  0  0  0
   29.3110   34.9820   12.5000 N   0  0  0  0  0  0  0  0  0  0  0  0
   28.0120   37.0140   13.0120 C   0  0  0  0  0  0  0  0  0  0  0  0
   27.6640   37.1950   11.5680 C   0  0  0  0  0  0  0  0  0  0  0  0
   26.4840   36.6400   11.0760 C   0  0  0  0  0  0  0  0  0  0  0  0
   28.4630   37.9010   10.6940 C   0  0  0  0  0  0  0  0  0  0  0  0
   26.1240   36.7890    9.7590 C   0  0  0  0  0  0  0  0  0  0  0  0
   28.1290   38.0690    9.3650 C   0  0  0  0  0  0  0  0  0  0  0  0
   26.9560   37.5060    8.9190 C   0  0  0  0  0  0  0  0  0  0  0  0
   24.9490   36.2400    9.2540 O   0  0  0  0  0  0  0  0  0  0  0  0
   23.7180   36.8500    9.6000 C   0  0  0  0  0  0  0  0  0  0  0  0
   26.5840   37.6520    7.5910 O   0  0  0  0  0  0  0  0  0  0  0  0
   26.6850   38.8910    6.9160 C   0  0  0  0  0  0  0  0  0  0  0  0
   29.8670   25.5550   16.9770 C   0  0  0  0  0  0  0  0  0  0  0  0
   28.3450   25.7220   17.0260 C   0  0  0  0  0  0  0  0  0  0  0  0
   27.6020   24.3990   16.9250 C   0  0  0  0  0  0  0  0  0  0  0  0
   26.5170   24.2780   17.9590 C   0  0  0  0  0  0  0  0  0  0  0  0
   25.1900   24.7340   17.3610 C   0  0  0  0  0  0  0  0  0  0  0  0
   24.3580   23.5650   16.9930 N   0  0  0  0  0  0  0  0  0  0  0  0
  1  2  1  0  0  0  0
  1  5  1  0  0  0  0
  2  3  2  0  0  0  0
  4  1  1  0  0  0  0
  6  5  1  6  0  0  0
  6  7  1  0  0  0  0
  7 27  1  6  0  0  0
  8  7  1  1  0  0  0
  8 13  1  0  0  0  0
  9 16  1  6  0  0  0
  9 14  1  0  0  0  0
  9 10  1  0  0  0  0
 10 12  1  0  0  0  0
 11  9  1  0  0  0  0
 11  8  1  0  0  0  0
 12 13  1  0  0  0  0
 12 20  1  1  0  0  0
 13 22  1  6  0  0  0
 14 15  1  0  0  0  0
 16 18  1  0  0  0  0
 17 16  2  0  0  0  0
 19 18  1  0  0  0  0
 20 21  1  0  0  0  0
 22 23  1  0  0  0  0
 23 26  2  0  0  0  0
 23 25  1  0  0  0  0
 24 22  1  0  0  0  0
 27 28  1  0  0  0  0
 29  6  1  0  0  0  0
 30 29  1  0  0  0  0
 31  2  1  0  0  0  0
 32 31  1  0  0  0  0
 33 34  2  0  0  0  0
 33 32  1  0  0  0  0
 35 33  1  0  0  0  0
 36 34  1  0  0  0  0
 37 35  2  0  0  0  0
 37 36  1  0  0  0  0
 38 36  1  0  0  0  0
 39 38  1  0  0  0  0
 40 39  1  0  0  0  0
 41 39  2  0  0  0  0
 42 40  2  0  0  0  0
 43 41  1  0  0  0  0
 44 43  2  0  0  0  0
 44 42  1  0  0  0  0
 45 46  1  0  0  0  0
 45 42  1  0  0  0  0
 47 44  1  0  0  0  0
 48 47  1  0  0  0  0
 49 50  1  0  0  0  0
 51 50  1  0  0  0  0
 51 52  1  0  0  0  0
 53 52  1  0  0  0  0
 54 53  1  0  0  0  0
M  END
>  <REMARK>
 VINA RESULT:    -5.041      2.502      4.537
 INTER + INTRA:         -14.727
 INTER:                  -9.528
 INTRA:                  -5.199
 UNBOUND:                -5.118
 SMILES COc1ccc(Cn2cc(COC(=O)NC[C@@H](O)C(O)[C@@H]3O[C@@](O)(C(=O)O)C[C@H](O)[C@H]3NC(C)=O)nn2)cc1OC
 SMILES IDX 15 1 13 2 14 3 16 5 17 6 19 7 21 8 23 9 28 10 22 11 29 12
 SMILES IDX 31 13 24 14 25 16 26 17 27 18 30 20 32 22 33 23 34 25 35 26
 SMILES IDX 20 27 18 29 12 31 11 32 10 33 9 34 36 35 8 36 37 37 7 38
 SMILES IDX 6 39 38 40 5 41 39 42 4 43 3 44 40 45 41 46 2 47 1 48
 H PARENT 15 4 24 15 27 19 30 21 32 24 20 28 18 30
 Flexibility Score: inf
  4 active torsions:
  status: ('A' for Active; 'I' for Inactive)
    1  A    between atoms: CA   and  CB  
    2  A    between atoms: CB   and  CG  
    3  A    between atoms: CG   and  CD  
    4  A    between atoms: CD   and  CE  

>  <TORSDO>
F 18

>  <BEGIN_>
RES LYS A 131

$$$$
ligand_29_pose_9_2HRL.pdbqt
 OpenBabel07062320523D

  6  5  0  0  0  0  0  0  0  0999 V2000
   33.1930   34.6630    9.2900 C   0  0  0  0  0  0  0  0  0  0  0  0
   32.0600   35.3600   10.0340 C   0  0  0  0  0  0  0  0  0  0  0  0
   30.7990   35.4960    9.2200 C   0  0  0  0  0  0  0  0  0  0  0  0
   30.1270   34.1430    9.0410 C   0  0  0  0  0  0  0  0  0  0  0  0
   28.6740   34.3190    8.6450 C   0  0  0  0  0  0  0  0  0  0  0  0
   27.7710   33.6000    9.5860 N   0  0  0  0  0  0  0  0  0  0  0  0
  1  2  1  0  0  0  0
  3  2  1  0  0  0  0
  4  3  1  0  0  0  0
  5  4  1  0  0  0  0
  5  6  1  0  0  0  0
M  END
>  <EGIN_R>
ES LYS A 135

>  <REMARK>
  4 active torsions:
  status: ('A' for Active; 'I' for Inactive)
    5  A    between atoms: CA   and  CB  
    6  A    between atoms: CB   and  CG  
    7  A    between atoms: CG   and  CD  
    8  A    between atoms: CD   and  CE  

$$$$
