ligand_86_pose_8_2HRL.pdbqt
 OpenBabel07062320523D

 52 54  0  0  1  0  0  0  0  0999 V2000
   29.9860   33.4910   18.7420 C   0  0  0  0  0  0  0  0  0  0  0  0
   30.5060   32.1460   19.1170 C   0  0  2  0  0  0  0  0  0  0  0  0
   29.4500   31.0880   19.2070 C   0  0  2  0  0  0  0  0  0  0  0  0
   29.7070   30.0980   20.3180 C   0  0  2  0  0  0  0  0  0  0  0  0
   31.1920   28.4500   20.9720 C   0  0  2  0  0  0  0  0  0  0  0  0
   30.1450   28.3060   22.0430 C   0  0  0  0  0  0  0  0  0  0  0  0
   30.9510   29.5180   20.1200 O   0  0  0  0  0  0  0  0  0  0  0  0
   28.7480   28.2160   21.5090 C   0  0  1  0  0  0  0  0  0  0  0  0
   28.6790   28.9890   20.2210 C   0  0  1  0  0  0  0  0  0  0  0  0
   31.3840   27.2740   20.2500 O   0  0  0  0  0  0  0  0  0  0  0  0
   31.7020   26.5540   20.8420 H   0  0  0  0  0  0  0  0  0  0  0  0
   32.4870   28.7400   21.6650 C   0  0  0  0  0  0  0  0  0  0  0  0
   32.9530   27.9330   22.5370 O   0  0  0  0  0  0  0  0  0  0  0  0
   33.2380   29.8640   21.4110 O   0  0  0  0  0  0  0  0  0  0  0  0
   34.0200   29.7770   20.7500 H   0  0  0  0  0  0  0  0  0  0  0  0
   28.2690   26.9300   21.4160 O   0  0  0  0  0  0  0  0  0  0  0  0
   27.4020   26.8930   21.8990 H   0  0  0  0  0  0  0  0  0  0  0  0
   27.3590   29.4870   19.9250 N   0  0  0  0  0  0  0  0  0  0  0  0
   26.5900   29.0090   18.8210 C   0  0  0  0  0  0  0  0  0  0  0  0
   26.9190   30.2250   20.5190 H   0  0  0  0  0  0  0  0  0  0  0  0
   25.2430   29.5610   18.5720 C   0  0  0  0  0  0  0  0  0  0  0  0
   27.0990   28.1230   18.0960 O   0  0  0  0  0  0  0  0  0  0  0  0
   29.4100   30.3820   18.0050 O   0  0  0  0  0  0  0  0  0  0  0  0
   30.2930   30.0850   17.7230 H   0  0  0  0  0  0  0  0  0  0  0  0
   31.1810   32.1920   20.3580 O   0  0  0  0  0  0  0  0  0  0  0  0
   31.3230   31.2360   20.6100 H   0  0  0  0  0  0  0  0  0  0  0  0
   28.9650   33.4230   17.7240 N   0  0  0  0  0  0  0  0  0  0  0  0
   29.1610   34.0870   16.4840 C   0  0  0  0  0  0  0  0  0  0  0  0
   28.0670   32.8980   17.8510 H   0  0  0  0  0  0  0  0  0  0  0  0
   30.2000   34.7500   16.2140 O   0  0  0  0  0  0  0  0  0  0  0  0
   28.2090   34.0530   15.4650 O   0  0  0  0  0  0  0  0  0  0  0  0
   26.8330   33.8480   15.7140 C   0  0  0  0  0  0  0  0  0  0  0  0
   26.4900   32.4130   15.5260 C   0  0  0  0  0  0  0  0  0  0  0  0
   25.2960   31.9420   15.0210 C   0  0  0  0  0  0  0  0  0  0  0  0
   27.2220   31.3150   15.7870 N   0  0  0  0  0  0  0  0  0  0  0  0
   25.3310   30.5810   14.9870 N   0  0  0  0  0  0  0  0  0  0  0  0
   26.5200   30.2550   15.4630 N   0  0  0  0  0  0  0  0  0  0  0  0
   24.2760   29.6840   14.5250 C   0  0  2  0  0  0  0  0  0  0  0  0
   24.0290   29.9650   13.0890 C   0  0  0  0  0  0  0  0  0  0  0  0
   23.1040   29.8600   15.4230 C   0  0  0  0  0  0  0  0  0  0  0  0
   22.6280   29.7780   12.6300 C   0  0  1  0  0  0  0  0  0  0  0  0
   21.7850   29.9690   14.7040 C   0  0  2  0  0  0  0  0  0  0  0  0
   21.8290   29.0440   13.5850 N   0  0  0  0  0  0  0  0  0  0  0  0
   21.9480   31.1380   12.6260 C   0  0  0  0  0  0  0  0  0  0  0  0
   21.6910   31.3490   14.1050 C   0  0  0  0  0  0  0  0  0  0  0  0
   20.5190   28.7840   13.0420 C   0  0  0  0  0  0  0  0  0  0  0  0
   29.8670   25.5550   16.9770 C   0  0  0  0  0  0  0  0  0  0  0  0
   28.3450   25.7220   17.0260 C   0  0  0  0  0  0  0  0  0  0  0  0
   27.5990   24.4310   16.7270 C   0  0  0  0  0  0  0  0  0  0  0  0
   26.8100   23.9450   17.9110 C   0  0  0  0  0  0  0  0  0  0  0  0
   25.6740   24.9210   18.2000 C   0  0  0  0  0  0  0  0  0  0  0  0
   25.7050   25.3470   19.6190 N   0  0  0  0  0  0  0  0  0  0  0  0
  2  1  1  1  0  0  0
  2  3  1  0  0  0  0
  2 25  1  0  0  0  0
  3 23  1  6  0  0  0
  4  3  1  6  0  0  0
  5 10  1  6  0  0  0
  5 12  1  0  0  0  0
  5  6  1  0  0  0  0
  7  4  1  0  0  0  0
  7  5  1  0  0  0  0
  8 16  1  6  0  0  0
  8  6  1  0  0  0  0
  9 18  1  1  0  0  0
  9  4  1  0  0  0  0
  9  8  1  0  0  0  0
 10 11  1  0  0  0  0
 12 13  2  0  0  0  0
 14 12  1  0  0  0  0
 15 14  1  0  0  0  0
 16 17  1  0  0  0  0
 18 20  1  0  0  0  0
 19 18  1  0  0  0  0
 21 19  1  0  0  0  0
 22 19  2  0  0  0  0
 24 23  1  0  0  0  0
 25 26  1  0  0  0  0
 27 29  1  0  0  0  0
 27  1  1  0  0  0  0
 28 27  1  0  0  0  0
 30 28  2  0  0  0  0
 31 32  1  0  0  0  0
 31 28  1  0  0  0  0
 33 32  1  0  0  0  0
 33 35  1  0  0  0  0
 34 33  2  0  0  0  0
 36 34  1  0  0  0  0
 36 37  1  0  0  0  0
 37 35  2  0  0  0  0
 38 39  1  6  0  0  0
 38 36  1  0  0  0  0
 38 40  1  0  0  0  0
 41 44  1  1  0  0  0
 41 39  1  0  0  0  0
 41 43  1  0  0  0  0
 42 45  1  6  0  0  0
 42 40  1  0  0  0  0
 43 42  1  0  0  0  0
 44 45  1  0  0  0  0
 46 43  1  0  0  0  0
 47 48  1  0  0  0  0
 49 48  1  0  0  0  0
 49 50  1  0  0  0  0
 50 51  1  0  0  0  0
 51 52  1  0  0  0  0
M  END
>  <REMARK>
 VINA RESULT:    -4.496      2.728      4.854
 INTER + INTRA:         -14.336
 INTER:                  -8.344
 INTRA:                  -5.992
 UNBOUND:                -6.555
 SMILES CC(=O)N[C@@H]1[C@@H](O)C[C@](O)(C(=O)O)O[C@H]1C(O)[C@H](O)CNC(=O)OCc1cn([C@H]2C[C@H]3CC[C@@H](C2)N3C)nn1
 SMILES IDX 20 1 18 2 16 3 15 4 9 5 8 6 14 7 6 8 5 9 10 10 11 12 12 13
 SMILES IDX 13 14 7 16 4 18 2 19 1 21 3 22 17 23 19 25 21 27 22 28 23 30
 SMILES IDX 24 31 25 32 26 33 27 34 39 35 28 36 38 37 29 38 35 39 30 40
 SMILES IDX 34 41 31 42 36 43 33 44 32 45 37 46
 H PARENT 10 11 13 15 7 17 4 20 17 24 19 26 21 29
 Flexibility Score: inf
  4 active torsions:
  status: ('A' for Active; 'I' for Inactive)
    1  A    between atoms: CA   and  CB  
    2  A    between atoms: CB   and  CG  
    3  A    between atoms: CG   and  CD  
    4  A    between atoms: CD   and  CE  

>  <TORSDO>
F 15

>  <BEGIN_>
RES LYS A 131

$$$$
ligand_86_pose_8_2HRL.pdbqt
 OpenBabel07062320523D

  6  5  0  0  0  0  0  0  0  0999 V2000
   33.1930   34.6630    9.2900 C   0  0  0  0  0  0  0  0  0  0  0  0
   32.0600   35.3600   10.0340 C   0  0  0  0  0  0  0  0  0  0  0  0
   30.8120   35.5310    9.2070 C   0  0  0  0  0  0  0  0  0  0  0  0
   30.0630   34.2130    9.0860 C   0  0  0  0  0  0  0  0  0  0  0  0
   28.6370   34.4500    8.6270 C   0  0  0  0  0  0  0  0  0  0  0  0
   27.6690   33.7050    9.4780 N   0  0  0  0  0  0  0  0  0  0  0  0
  1  2  1  0  0  0  0
  3  2  1  0  0  0  0
  4  3  1  0  0  0  0
  5  4  1  0  0  0  0
  5  6  1  0  0  0  0
M  END
>  <EGIN_R>
ES LYS A 135

>  <REMARK>
  4 active torsions:
  status: ('A' for Active; 'I' for Inactive)
    5  A    between atoms: CA   and  CB  
    6  A    between atoms: CB   and  CG  
    7  A    between atoms: CG   and  CD  
    8  A    between atoms: CD   and  CE  

$$$$
