ligand_20_pose_11_2HRL.pdbqt
 OpenBabel07062320523D

 53 55  0  0  1  0  0  0  0  0999 V2000
   27.8270   27.3950   19.9680 C   0  0  0  0  0  0  0  0  0  0  0  0
   28.8730   28.0350   20.7710 C   0  0  2  0  0  0  0  0  0  0  0  0
   29.0530   29.5130   20.3610 C   0  0  1  0  0  0  0  0  0  0  0  0
   29.7250   30.3290   21.3770 C   0  0  2  0  0  0  0  0  0  0  0  0
   28.3950   32.2260   21.7000 C   0  0  2  0  0  0  0  0  0  0  0  0
   29.0870   32.7980   20.4950 C   0  0  0  0  0  0  0  0  0  0  0  0
   28.9640   31.0950   22.2090 O   0  0  0  0  0  0  0  0  0  0  0  0
   30.5500   32.5300   20.4560 C   0  0  1  0  0  0  0  0  0  0  0  0
   30.9050   31.1160   20.7900 C   0  0  1  0  0  0  0  0  0  0  0  0
   27.0580   31.9840   21.3900 O   0  0  0  0  0  0  0  0  0  0  0  0
   26.7670   32.4730   20.5820 H   0  0  0  0  0  0  0  0  0  0  0  0
   28.4380   33.2640   22.7550 C   0  0  0  0  0  0  0  0  0  0  0  0
   29.2000   33.1340   23.7270 O   0  0  0  0  0  0  0  0  0  0  0  0
   27.6280   34.3760   22.6570 O   0  0  0  0  0  0  0  0  0  0  0  0
   26.8560   34.5710   23.3090 H   0  0  0  0  0  0  0  0  0  0  0  0
   31.0210   32.8870   19.1780 O   0  0  0  0  0  0  0  0  0  0  0  0
   31.6560   32.1760   18.9250 H   0  0  0  0  0  0  0  0  0  0  0  0
   32.0850   31.0050   21.6060 N   0  0  0  0  0  0  0  0  0  0  0  0
   32.9510   29.8800   21.5450 C   0  0  0  0  0  0  0  0  0  0  0  0
   32.3340   31.7850   22.2870 H   0  0  0  0  0  0  0  0  0  0  0  0
   34.1490   29.8140   22.4030 C   0  0  0  0  0  0  0  0  0  0  0  0
   32.6720   28.9490   20.7470 O   0  0  0  0  0  0  0  0  0  0  0  0
   30.0000   29.3690   19.2840 O   0  0  0  0  0  0  0  0  0  0  0  0
   29.5430   29.4650   18.4170 H   0  0  0  0  0  0  0  0  0  0  0  0
   30.1080   27.4150   20.3410 O   0  0  0  0  0  0  0  0  0  0  0  0
   30.2520   27.6260   19.3770 H   0  0  0  0  0  0  0  0  0  0  0  0
   27.7660   27.7610   18.5810 N   0  0  0  0  0  0  0  0  0  0  0  0
   26.6280   28.3990   18.0190 C   0  0  0  0  0  0  0  0  0  0  0  0
   28.5790   27.6130   17.9630 H   0  0  0  0  0  0  0  0  0  0  0  0
   25.6510   28.6430   18.7740 O   0  0  0  0  0  0  0  0  0  0  0  0
   26.5330   28.7630   16.6960 O   0  0  0  0  0  0  0  0  0  0  0  0
   26.3710   30.0910   16.2360 C   0  0  0  0  0  0  0  0  0  0  0  0
   27.7280   30.7340   16.2150 C   0  0  0  0  0  0  0  0  0  0  0  0
   28.1540   31.8070   15.4640 C   0  0  0  0  0  0  0  0  0  0  0  0
   28.8150   30.3670   16.9510 N   0  0  0  0  0  0  0  0  0  0  0  0
   29.4620   32.0260   15.7860 N   0  0  0  0  0  0  0  0  0  0  0  0
   29.8350   31.1380   16.6890 N   0  0  0  0  0  0  0  0  0  0  0  0
   30.2670   33.0500   15.2230 C   0  0  0  0  0  0  0  0  0  0  0  0
   31.6020   33.1320   15.5730 C   0  0  0  0  0  0  0  0  0  0  0  0
   29.7900   33.9860   14.3310 C   0  0  0  0  0  0  0  0  0  0  0  0
   32.4330   34.1050   15.0590 C   0  0  0  0  0  0  0  0  0  0  0  0
   30.5950   34.9580   13.8090 C   0  0  0  0  0  0  0  0  0  0  0  0
   31.9410   35.0390   14.1630 C   0  0  0  0  0  0  0  0  0  0  0  0
   30.3930   35.9910   12.9250 C   0  0  0  0  0  0  0  0  0  0  0  0
   32.4890   36.0760   13.5100 N   0  0  0  0  0  0  0  0  0  0  0  0
   31.5740   36.6540   12.7660 N   0  0  0  0  0  0  0  0  0  0  0  0
   33.4810   36.3660   13.5870 H   0  0  0  0  0  0  0  0  0  0  0  0
   29.8670   25.5550   16.9770 C   0  0  0  0  0  0  0  0  0  0  0  0
   28.3450   25.7220   17.0260 C   0  0  0  0  0  0  0  0  0  0  0  0
   27.6020   24.3990   16.9220 C   0  0  0  0  0  0  0  0  0  0  0  0
   26.1460   24.5380   17.2710 C   0  0  0  0  0  0  0  0  0  0  0  0
   25.9550   24.2950   18.7640 C   0  0  0  0  0  0  0  0  0  0  0  0
   24.9360   25.2200   19.3140 N   0  0  0  0  0  0  0  0  0  0  0  0
  2  1  1  6  0  0  0
  3 23  1  6  0  0  0
  3  2  1  0  0  0  0
  4  3  1  6  0  0  0
  4  7  1  0  0  0  0
  5 10  1  6  0  0  0
  5  7  1  0  0  0  0
  5 12  1  0  0  0  0
  6  5  1  0  0  0  0
  8 16  1  6  0  0  0
  8  6  1  0  0  0  0
  8  9  1  0  0  0  0
  9  4  1  0  0  0  0
  9 18  1  1  0  0  0
 11 10  1  0  0  0  0
 12 13  2  0  0  0  0
 14 12  1  0  0  0  0
 14 15  1  0  0  0  0
 17 16  1  0  0  0  0
 18 20  1  0  0  0  0
 19 18  1  0  0  0  0
 19 21  1  0  0  0  0
 22 19  2  0  0  0  0
 24 23  1  0  0  0  0
 25  2  1  0  0  0  0
 26 25  1  0  0  0  0
 27  1  1  0  0  0  0
 28 27  1  0  0  0  0
 28 30  2  0  0  0  0
 29 27  1  0  0  0  0
 31 28  1  0  0  0  0
 32 31  1  0  0  0  0
 33 32  1  0  0  0  0
 33 35  1  0  0  0  0
 34 36  1  0  0  0  0
 34 33  2  0  0  0  0
 36 37  1  0  0  0  0
 37 35  2  0  0  0  0
 38 39  1  0  0  0  0
 38 36  1  0  0  0  0
 40 38  2  0  0  0  0
 41 39  2  0  0  0  0
 42 43  2  0  0  0  0
 42 40  1  0  0  0  0
 43 41  1  0  0  0  0
 44 42  1  0  0  0  0
 45 47  1  0  0  0  0
 45 43  1  0  0  0  0
 46 44  2  0  0  0  0
 46 45  1  0  0  0  0
 48 49  1  0  0  0  0
 50 49  1  0  0  0  0
 50 51  1  0  0  0  0
 51 52  1  0  0  0  0
 52 53  1  0  0  0  0
M  END
>  <REMARK>
 VINA RESULT:    -4.643      4.266      7.255
 INTER + INTRA:         -14.526
 INTER:                  -8.561
 INTRA:                  -5.965
 UNBOUND:                -6.490
 SMILES CC(=O)N[C@@H]1[C@@H](O)C[C@](O)(C(=O)O)O[C@H]1C(O)[C@H](O)CNC(=O)OCc1cn(-c2ccc3[nH]ncc3c2)nn1
 SMILES IDX 20 1 18 2 16 3 15 4 9 5 8 6 14 7 6 8 5 9 10 10 11 12 12 13
 SMILES IDX 13 14 7 16 4 18 2 19 1 21 3 22 17 23 19 25 21 27 22 28 23 30
 SMILES IDX 24 31 25 32 26 33 27 34 39 35 28 36 38 37 29 38 30 39 37 40
 SMILES IDX 31 41 36 42 32 43 35 44 33 45 34 46
 H PARENT 10 11 13 15 7 17 4 20 17 24 19 26 21 29 33 47
 Flexibility Score: inf
  4 active torsions:
  status: ('A' for Active; 'I' for Inactive)
    1  A    between atoms: CA   and  CB  
    2  A    between atoms: CB   and  CG  
    3  A    between atoms: CG   and  CD  
    4  A    between atoms: CD   and  CE  

>  <TORSDO>
F 15

>  <BEGIN_>
RES LYS A 131

$$$$
ligand_20_pose_11_2HRL.pdbqt
 OpenBabel07062320523D

  6  5  0  0  0  0  0  0  0  0999 V2000
   33.1930   34.6630    9.2900 C   0  0  0  0  0  0  0  0  0  0  0  0
   32.0600   35.3600   10.0340 C   0  0  0  0  0  0  0  0  0  0  0  0
   30.7800   35.4400    9.2430 C   0  0  0  0  0  0  0  0  0  0  0  0
   29.9740   34.1590    9.3950 C   0  0  0  0  0  0  0  0  0  0  0  0
   28.6590   34.4370   10.0980 C   0  0  0  0  0  0  0  0  0  0  0  0
   27.5280   33.7550    9.4100 N   0  0  0  0  0  0  0  0  0  0  0  0
  1  2  1  0  0  0  0
  3  4  1  0  0  0  0
  3  2  1  0  0  0  0
  4  5  1  0  0  0  0
  6  5  1  0  0  0  0
M  END
>  <EGIN_R>
ES LYS A 135

>  <REMARK>
  4 active torsions:
  status: ('A' for Active; 'I' for Inactive)
    5  A    between atoms: CA   and  CB  
    6  A    between atoms: CB   and  CG  
    7  A    between atoms: CG   and  CD  
    8  A    between atoms: CD   and  CE  

$$$$
