ligand_72_pose_14_2HRL.pdbqt
 OpenBabel07062320523D

 49 49  0  0  1  0  0  0  0  0999 V2000
   24.0790   35.6660   12.4990 N   0  0  0  0  0  0  0  0  0  0  0  0
   25.2170   34.8160   12.6790 C   0  0  0  0  0  0  0  0  0  0  0  0
   25.0830   33.5680   12.9190 O   0  0  0  0  0  0  0  0  0  0  0  0
   24.2430   36.6690   12.2940 H   0  0  0  0  0  0  0  0  0  0  0  0
   22.7480   35.1050   12.5910 C   0  0  0  0  0  0  0  0  0  0  0  0
   22.3210   34.4150   11.3550 C   0  0  2  0  0  0  0  0  0  0  0  0
   22.2350   35.2040   10.1030 C   0  0  1  0  0  0  0  0  0  0  0  0
   21.0540   36.1430   10.1190 C   0  0  2  0  0  0  0  0  0  0  0  0
   19.7410   35.3920    8.3010 C   0  0  2  0  0  0  0  0  0  0  0  0
   20.0730   36.6920    7.5460 C   0  0  0  0  0  0  0  0  0  0  0  0
   19.9310   35.5020    9.6410 O   0  0  0  0  0  0  0  0  0  0  0  0
   20.0750   37.7630    8.5850 C   0  0  1  0  0  0  0  0  0  0  0  0
   21.3060   37.4820    9.4940 C   0  0  1  0  0  0  0  0  0  0  0  0
   20.3850   34.3430    7.6770 O   0  0  0  0  0  0  0  0  0  0  0  0
   20.7750   34.6480    6.8230 H   0  0  0  0  0  0  0  0  0  0  0  0
   18.2540   35.1620    8.1180 C   0  0  0  0  0  0  0  0  0  0  0  0
   17.7240   34.0810    8.4670 O   0  0  0  0  0  0  0  0  0  0  0  0
   17.5070   36.1760    7.5590 O   0  0  0  0  0  0  0  0  0  0  0  0
   17.6050   36.4300    6.5820 H   0  0  0  0  0  0  0  0  0  0  0  0
   20.1550   39.0410    8.0680 O   0  0  0  0  0  0  0  0  0  0  0  0
   20.2750   39.6560    8.8390 H   0  0  0  0  0  0  0  0  0  0  0  0
   21.2260   38.5910   10.4570 N   0  0  0  0  0  0  0  0  0  0  0  0
   22.2990   38.9910   11.2610 C   0  0  0  0  0  0  0  0  0  0  0  0
   20.3140   39.0880   10.5230 H   0  0  0  0  0  0  0  0  0  0  0  0
   22.2400   40.1040   12.2430 C   0  0  0  0  0  0  0  0  0  0  0  0
   23.3940   38.3720   11.1540 O   0  0  0  0  0  0  0  0  0  0  0  0
   23.3780   35.6720    9.5450 O   0  0  0  0  0  0  0  0  0  0  0  0
   23.8100   35.0560    8.8970 H   0  0  0  0  0  0  0  0  0  0  0  0
   21.0680   33.7980   11.5740 O   0  0  0  0  0  0  0  0  0  0  0  0
   21.2080   32.8250   11.5550 H   0  0  0  0  0  0  0  0  0  0  0  0
   26.4650   35.3750   12.5860 O   0  0  0  0  0  0  0  0  0  0  0  0
   27.3450   35.1250   11.5300 C   0  0  0  0  0  0  0  0  0  0  0  0
   26.8340   35.6910   10.2550 C   0  0  0  0  0  0  0  0  0  0  0  0
   26.7710   37.0320    9.9680 C   0  0  0  0  0  0  0  0  0  0  0  0
   26.3570   35.0530    9.1860 N   0  0  0  0  0  0  0  0  0  0  0  0
   26.2630   37.1790    8.7410 N   0  0  0  0  0  0  0  0  0  0  0  0
   26.0190   35.9480    8.2850 N   0  0  0  0  0  0  0  0  0  0  0  0
   26.0350   38.4340    8.0720 C   0  0  0  0  0  0  0  0  0  0  0  0
   26.7500   38.4690    6.7380 C   0  0  0  0  0  0  0  0  0  0  0  0
   26.5370   39.5590    8.9680 C   0  0  0  0  0  0  0  0  0  0  0  0
   24.5550   38.6510    7.8880 C   0  0  0  0  0  0  0  0  0  0  0  0
   23.9940   37.5650    7.2100 O   0  0  0  0  0  0  0  0  0  0  0  0
   23.8080   37.8390    6.2770 H   0  0  0  0  0  0  0  0  0  0  0  0
   29.8670   25.5550   16.9770 C   0  0  0  0  0  0  0  0  0  0  0  0
   28.3450   25.7220   17.0260 C   0  0  0  0  0  0  0  0  0  0  0  0
   27.6010   24.4040   16.8790 C   0  0  0  0  0  0  0  0  0  0  0  0
   26.6660   24.1500   18.0290 C   0  0  0  0  0  0  0  0  0  0  0  0
   26.3210   25.4730   18.7060 C   0  0  0  0  0  0  0  0  0  0  0  0
   25.5290   25.2350   19.9360 N   0  0  0  0  0  0  0  0  0  0  0  0
  1  5  1  0  0  0  0
  1  2  1  0  0  0  0
  2  3  2  0  0  0  0
  4  1  1  0  0  0  0
  6 29  1  0  0  0  0
  6  5  1  1  0  0  0
  7 27  1  1  0  0  0
  7  6  1  0  0  0  0
  8  7  1  6  0  0  0
  9 14  1  6  0  0  0
  9 11  1  0  0  0  0
 10  9  1  0  0  0  0
 10 12  1  0  0  0  0
 11  8  1  0  0  0  0
 12 20  1  6  0  0  0
 12 13  1  0  0  0  0
 13  8  1  0  0  0  0
 13 22  1  1  0  0  0
 15 14  1  0  0  0  0
 16  9  1  0  0  0  0
 16 17  2  0  0  0  0
 18 16  1  0  0  0  0
 19 18  1  0  0  0  0
 20 21  1  0  0  0  0
 22 24  1  0  0  0  0
 22 23  1  0  0  0  0
 23 25  1  0  0  0  0
 26 23  2  0  0  0  0
 28 27  1  0  0  0  0
 30 29  1  0  0  0  0
 31  2  1  0  0  0  0
 32 31  1  0  0  0  0
 33 32  1  0  0  0  0
 34 33  2  0  0  0  0
 35 33  1  0  0  0  0
 36 34  1  0  0  0  0
 37 36  1  0  0  0  0
 37 35  2  0  0  0  0
 38 36  1  0  0  0  0
 38 40  1  0  0  0  0
 39 38  1  0  0  0  0
 41 38  1  0  0  0  0
 42 41  1  0  0  0  0
 43 42  1  0  0  0  0
 44 45  1  0  0  0  0
 46 45  1  0  0  0  0
 46 47  1  0  0  0  0
 47 48  1  0  0  0  0
 48 49  1  0  0  0  0
M  END
>  <REMARK>
 VINA RESULT:    -4.260      4.523      8.131
 INTER + INTRA:         -13.891
 INTER:                  -7.109
 INTRA:                  -6.781
 UNBOUND:                -6.145
 SMILES CC(=O)N[C@@H]1[C@@H](O)C[C@](O)(C(=O)O)O[C@H]1C(O)[C@H](O)CNC(=O)OCc1cn(C(C)(C)CO)nn1
 SMILES IDX 21 1 22 2 23 3 20 5 18 6 16 7 15 8 9 9 8 10 14 11 6 12 5 13
 SMILES IDX 10 14 11 16 12 17 13 18 7 20 4 22 2 23 1 25 3 26 17 27 19 29
 SMILES IDX 24 31 25 32 26 33 27 34 35 35 28 36 34 37 29 38 30 39 31 40
 SMILES IDX 32 41 33 42
 H PARENT 21 4 10 15 13 19 7 21 4 24 17 28 19 30 33 43
 Flexibility Score: inf
  4 active torsions:
  status: ('A' for Active; 'I' for Inactive)
    1  A    between atoms: CA   and  CB  
    2  A    between atoms: CB   and  CG  
    3  A    between atoms: CG   and  CD  
    4  A    between atoms: CD   and  CE  

>  <TORSDO>
F 17

>  <BEGIN_>
RES LYS A 131

$$$$
ligand_72_pose_14_2HRL.pdbqt
 OpenBabel07062320523D

  6  5  0  0  0  0  0  0  0  0999 V2000
   33.1930   34.6630    9.2900 C   0  0  0  0  0  0  0  0  0  0  0  0
   32.0600   35.3600   10.0340 C   0  0  0  0  0  0  0  0  0  0  0  0
   30.7190   34.6990    9.8460 C   0  0  0  0  0  0  0  0  0  0  0  0
   30.3900   34.5630    8.3670 C   0  0  0  0  0  0  0  0  0  0  0  0
   29.6450   35.7880    7.8730 C   0  0  0  0  0  0  0  0  0  0  0  0
   28.9780   35.5190    6.5680 N   0  0  0  0  0  0  0  0  0  0  0  0
  1  2  1  0  0  0  0
  3  2  1  0  0  0  0
  4  3  1  0  0  0  0
  5  4  1  0  0  0  0
  6  5  1  0  0  0  0
M  END
>  <EGIN_R>
ES LYS A 135

>  <REMARK>
  4 active torsions:
  status: ('A' for Active; 'I' for Inactive)
    5  A    between atoms: CA   and  CB  
    6  A    between atoms: CB   and  CG  
    7  A    between atoms: CG   and  CD  
    8  A    between atoms: CD   and  CE  

$$$$
