ligand_92_pose_8_2HRL.pdbqt
 OpenBabel07062320523D

 59 61  0  0  1  0  0  0  0  0999 V2000
   27.1030   31.3940   19.8450 N   0  0  0  0  0  0  0  0  0  0  0  0
   26.1940   30.4840   19.2620 C   0  0  0  0  0  0  0  0  0  0  0  0
   26.1640   29.2850   19.7030 O   0  0  0  0  0  0  0  0  0  0  0  0
   27.1320   32.3670   19.4950 H   0  0  0  0  0  0  0  0  0  0  0  0
   27.9860   31.0050   20.9110 C   0  0  0  0  0  0  0  0  0  0  0  0
   29.4320   30.9570   20.4830 C   0  0  2  0  0  0  0  0  0  0  0  0
   29.9420   29.5500   20.3650 C   0  0  1  0  0  0  0  0  0  0  0  0
   30.0800   28.9030   21.7550 C   0  0  2  0  0  0  0  0  0  0  0  0
   32.4160   28.7180   22.0360 C   0  0  2  0  0  0  0  0  0  0  0  0
   32.2550   27.2240   22.2420 C   0  0  0  0  0  0  0  0  0  0  0  0
   31.2500   29.3520   22.2860 O   0  0  0  0  0  0  0  0  0  0  0  0
   31.2100   26.7840   21.2450 C   0  0  1  0  0  0  0  0  0  0  0  0
   29.9050   27.4420   21.6220 C   0  0  1  0  0  0  0  0  0  0  0  0
   32.7520   28.8780   20.6850 O   0  0  0  0  0  0  0  0  0  0  0  0
   33.3240   29.6510   20.5220 H   0  0  0  0  0  0  0  0  0  0  0  0
   33.5520   29.2450   22.8350 C   0  0  0  0  0  0  0  0  0  0  0  0
   34.4090   29.9540   22.2870 O   0  0  0  0  0  0  0  0  0  0  0  0
   33.6670   28.9540   24.1800 O   0  0  0  0  0  0  0  0  0  0  0  0
   33.4350   29.6700   24.8850 H   0  0  0  0  0  0  0  0  0  0  0  0
   31.6250   27.0910   19.9550 O   0  0  0  0  0  0  0  0  0  0  0  0
   32.5880   27.3600   20.0100 H   0  0  0  0  0  0  0  0  0  0  0  0
   29.3970   26.7660   22.7720 N   0  0  0  0  0  0  0  0  0  0  0  0
   28.0060   26.6730   22.9900 C   0  0  0  0  0  0  0  0  0  0  0  0
   30.0440   26.3410   23.4570 H   0  0  0  0  0  0  0  0  0  0  0  0
   27.3910   25.9910   24.1570 C   0  0  0  0  0  0  0  0  0  0  0  0
   27.2530   27.1920   22.1550 O   0  0  0  0  0  0  0  0  0  0  0  0
   29.1050   28.7430   19.5590 O   0  0  0  0  0  0  0  0  0  0  0  0
   29.3660   28.8890   18.6320 H   0  0  0  0  0  0  0  0  0  0  0  0
   30.1380   31.6780   21.4710 O   0  0  0  0  0  0  0  0  0  0  0  0
   29.7220   31.4370   22.3350 H   0  0  0  0  0  0  0  0  0  0  0  0
   25.3290   30.8110   18.2390 O   0  0  0  0  0  0  0  0  0  0  0  0
   25.4020   30.1780   16.9540 C   0  0  0  0  0  0  0  0  0  0  0  0
   26.8080   30.3530   16.4840 C   0  0  0  0  0  0  0  0  0  0  0  0
   27.4380   31.5560   16.1580 C   0  0  0  0  0  0  0  0  0  0  0  0
   27.7540   29.4140   16.2760 N   0  0  0  0  0  0  0  0  0  0  0  0
   28.7010   31.3080   15.7770 N   0  0  0  0  0  0  0  0  0  0  0  0
   28.8500   30.0010   15.8630 N   0  0  0  0  0  0  0  0  0  0  0  0
   29.6440   32.2920   15.3730 C   0  0  0  0  0  0  0  0  0  0  0  0
   29.3120   33.3450   14.5520 C   0  0  0  0  0  0  0  0  0  0  0  0
   30.9480   32.2060   15.8100 C   0  0  0  0  0  0  0  0  0  0  0  0
   30.2530   34.2990   14.1660 C   0  0  0  0  0  0  0  0  0  0  0  0
   31.8790   33.1470   15.4310 C   0  0  0  0  0  0  0  0  0  0  0  0
   31.5570   34.2230   14.5970 C   0  0  0  0  0  0  0  0  0  0  0  0
   32.7620   35.3950   14.1530 S   0  0  0  0  0  0  0  0  0  0  0  0
   34.0840   34.6460   14.0380 O   0  0  0  0  0  0  0  0  0  0  0  0
   32.9150   36.3460   15.2900 O   0  0  0  0  0  0  0  0  0  0  0  0
   32.4530   36.2080   12.6930 N   0  0  0  0  0  0  0  0  0  0  0  0
   32.8520   35.7900   11.8080 H   0  0  0  0  0  0  0  0  0  0  0  0
   31.7190   37.3920   12.5190 C   0  0  0  0  0  0  0  0  0  0  0  0
   31.5040   38.2820   11.7120 N   0  0  0  0  0  0  0  0  0  0  0  0
   30.5960   37.9880   13.9170 S   0  0  0  0  0  0  0  0  0  0  0  0
   30.7270   39.3100   11.8270 C   0  0  0  0  0  0  0  0  0  0  0  0
   30.0270   39.4840   12.9710 C   0  0  0  0  0  0  0  0  0  0  0  0
   29.8670   25.5550   16.9770 C   0  0  0  0  0  0  0  0  0  0  0  0
   28.3450   25.7220   17.0260 C   0  0  0  0  0  0  0  0  0  0  0  0
   27.6020   24.3980   16.9350 C   0  0  0  0  0  0  0  0  0  0  0  0
   26.1520   24.5350   17.3100 C   0  0  0  0  0  0  0  0  0  0  0  0
   25.9120   23.8740   18.6630 C   0  0  0  0  0  0  0  0  0  0  0  0
   24.8610   22.8350   18.5540 N   0  0  0  0  0  0  0  0  0  0  0  0
  1  5  1  0  0  0  0
  2  3  2  0  0  0  0
  2  1  1  0  0  0  0
  4  1  1  0  0  0  0
  6  5  1  1  0  0  0
  6 29  1  0  0  0  0
  7 27  1  6  0  0  0
  7  6  1  0  0  0  0
  8  7  1  6  0  0  0
  8 11  1  0  0  0  0
  9 14  1  6  0  0  0
  9 10  1  0  0  0  0
  9 11  1  0  0  0  0
  9 16  1  0  0  0  0
 12 20  1  6  0  0  0
 12 13  1  0  0  0  0
 12 10  1  0  0  0  0
 13  8  1  0  0  0  0
 13 22  1  1  0  0  0
 15 14  1  0  0  0  0
 16 18  1  0  0  0  0
 17 16  2  0  0  0  0
 18 19  1  0  0  0  0
 20 21  1  0  0  0  0
 22 23  1  0  0  0  0
 22 24  1  0  0  0  0
 23 25  1  0  0  0  0
 26 23  2  0  0  0  0
 28 27  1  0  0  0  0
 29 30  1  0  0  0  0
 31  2  1  0  0  0  0
 32 31  1  0  0  0  0
 33 32  1  0  0  0  0
 34 33  2  0  0  0  0
 35 33  1  0  0  0  0
 36 37  1  0  0  0  0
 36 34  1  0  0  0  0
 37 35  2  0  0  0  0
 38 36  1  0  0  0  0
 38 40  2  0  0  0  0
 39 38  1  0  0  0  0
 41 39  2  0  0  0  0
 41 43  1  0  0  0  0
 42 40  1  0  0  0  0
 43 42  2  0  0  0  0
 44 43  1  0  0  0  0
 44 46  2  0  0  0  0
 45 44  2  0  0  0  0
 47 44  1  0  0  0  0
 48 47  1  0  0  0  0
 49 47  1  0  0  0  0
 49 51  1  0  0  0  0
 50 52  1  0  0  0  0
 50 49  2  0  0  0  0
 52 53  2  0  0  0  0
 53 51  1  0  0  0  0
 54 55  1  0  0  0  0
 56 55  1  0  0  0  0
 56 57  1  0  0  0  0
 57 58  1  0  0  0  0
 59 58  1  0  0  0  0
M  END
>  <REMARK>
 VINA RESULT:    -5.052      2.152      3.805
 INTER + INTRA:         -16.037
 INTER:                 -10.531
 INTRA:                  -5.506
 UNBOUND:                -6.408
 SMILES CC(=O)N[C@@H]1[C@@H](O)C[C@](O)(C(=O)O)O[C@H]1C(O)[C@H](O)CNC(=O)OCc1cn(-c2ccc(S(=O)(=O)Nc3nccs3)cc2)nn1
 SMILES IDX 21 1 22 2 23 3 20 5 18 6 16 7 15 8 9 9 8 10 14 11 6 12 5 13
 SMILES IDX 10 14 11 16 12 17 13 18 7 20 4 22 2 23 1 25 3 26 17 27 19 29
 SMILES IDX 24 31 25 32 26 33 27 34 45 35 28 36 44 37 29 38 30 39 43 40
 SMILES IDX 31 41 42 42 32 43 33 44 34 45 35 46 36 47 37 49 38 50 41 51
 SMILES IDX 39 52 40 53
 H PARENT 21 4 10 15 13 19 7 21 4 24 17 28 19 30 36 48
 Flexibility Score: inf
  4 active torsions:
  status: ('A' for Active; 'I' for Inactive)
    1  A    between atoms: CA   and  CB  
    2  A    between atoms: CB   and  CG  
    3  A    between atoms: CG   and  CD  
    4  A    between atoms: CD   and  CE  

>  <TORSDO>
F 18

>  <BEGIN_>
RES LYS A 131

$$$$
ligand_92_pose_8_2HRL.pdbqt
 OpenBabel07062320523D

  6  5  0  0  0  0  0  0  0  0999 V2000
   33.1930   34.6630    9.2900 C   0  0  0  0  0  0  0  0  0  0  0  0
   32.0600   35.3600   10.0340 C   0  0  0  0  0  0  0  0  0  0  0  0
   30.8930   35.7210    9.1520 C   0  0  0  0  0  0  0  0  0  0  0  0
   30.3980   34.5020    8.3900 C   0  0  0  0  0  0  0  0  0  0  0  0
   28.8840   34.5010    8.3090 C   0  0  0  0  0  0  0  0  0  0  0  0
   28.2800   33.9750    9.5650 N   0  0  0  0  0  0  0  0  0  0  0  0
  1  2  1  0  0  0  0
  3  2  1  0  0  0  0
  4  3  1  0  0  0  0
  5  4  1  0  0  0  0
  5  6  1  0  0  0  0
M  END
>  <EGIN_R>
ES LYS A 135

>  <REMARK>
  4 active torsions:
  status: ('A' for Active; 'I' for Inactive)
    5  A    between atoms: CA   and  CB  
    6  A    between atoms: CB   and  CG  
    7  A    between atoms: CG   and  CD  
    8  A    between atoms: CD   and  CE  

$$$$
