ligand_62_pose_9_2HRL.pdbqt
 OpenBabel07062320523D

 52 52  0  0  1  0  0  0  0  0999 V2000
   29.5840   31.2560   16.7140 N   0  0  0  0  0  0  0  0  0  0  0  0
   28.5650   30.3220   16.4410 C   0  0  0  0  0  0  0  0  0  0  0  0
   28.5550   29.6330   15.3960 O   0  0  0  0  0  0  0  0  0  0  0  0
   29.5070   31.7830   17.6210 H   0  0  0  0  0  0  0  0  0  0  0  0
   30.6990   31.5500   15.8810 C   0  0  0  0  0  0  0  0  0  0  0  0
   30.9470   32.9730   15.5380 C   0  0  2  0  0  0  0  0  0  0  0  0
   30.0920   33.4670   14.3920 C   0  0  2  0  0  0  0  0  0  0  0  0
   30.3390   34.8850   13.9880 C   0  0  2  0  0  0  0  0  0  0  0  0
   31.0210   36.8910   14.9170 C   0  0  2  0  0  0  0  0  0  0  0  0
   31.0380   37.2160   13.4470 C   0  0  0  0  0  0  0  0  0  0  0  0
   30.6900   35.5710   15.1700 O   0  0  0  0  0  0  0  0  0  0  0  0
   29.7720   36.8810   12.7420 C   0  0  1  0  0  0  0  0  0  0  0  0
   29.1870   35.6140   13.3860 C   0  0  1  0  0  0  0  0  0  0  0  0
   30.1940   37.7910   15.5650 O   0  0  0  0  0  0  0  0  0  0  0  0
   29.7660   37.4210   16.3750 H   0  0  0  0  0  0  0  0  0  0  0  0
   32.4020   37.1050   15.4300 C   0  0  0  0  0  0  0  0  0  0  0  0
   33.2480   36.1700   15.4740 O   0  0  0  0  0  0  0  0  0  0  0  0
   32.8360   38.3520   15.8920 O   0  0  0  0  0  0  0  0  0  0  0  0
   32.4350   39.2150   15.5490 H   0  0  0  0  0  0  0  0  0  0  0  0
   28.8380   37.9140   12.7660 O   0  0  0  0  0  0  0  0  0  0  0  0
   29.1290   38.5760   12.0810 H   0  0  0  0  0  0  0  0  0  0  0  0
   28.4570   34.9550   12.3580 N   0  0  0  0  0  0  0  0  0  0  0  0
   27.0360   35.1440   12.1650 C   0  0  0  0  0  0  0  0  0  0  0  0
   28.8990   34.3060   11.6730 H   0  0  0  0  0  0  0  0  0  0  0  0
   26.3180   34.4370   11.0800 C   0  0  0  0  0  0  0  0  0  0  0  0
   26.4130   35.9060   12.9140 O   0  0  0  0  0  0  0  0  0  0  0  0
   28.7700   33.4680   14.9350 O   0  0  0  0  0  0  0  0  0  0  0  0
   28.6320   34.2340   15.5160 H   0  0  0  0  0  0  0  0  0  0  0  0
   32.2690   33.1460   15.1340 O   0  0  0  0  0  0  0  0  0  0  0  0
   32.6310   32.2940   14.7930 H   0  0  0  0  0  0  0  0  0  0  0  0
   27.5150   30.1260   17.3340 O   0  0  0  0  0  0  0  0  0  0  0  0
   26.1950   30.4780   17.0120 C   0  0  0  0  0  0  0  0  0  0  0  0
   26.1030   31.9060   16.6580 C   0  0  0  0  0  0  0  0  0  0  0  0
   26.1980   32.9930   17.5050 C   0  0  0  0  0  0  0  0  0  0  0  0
   25.9020   32.3810   15.4100 N   0  0  0  0  0  0  0  0  0  0  0  0
   26.0560   34.0770   16.7510 N   0  0  0  0  0  0  0  0  0  0  0  0
   25.8810   33.7130   15.5140 N   0  0  0  0  0  0  0  0  0  0  0  0
   26.0870   35.4600   17.2190 C   0  0  1  0  0  0  0  0  0  0  0  0
   26.1060   35.4550   18.7220 C   0  0  0  0  0  0  0  0  0  0  0  0
   26.5330   36.6670   19.2130 O   0  0  0  0  0  0  0  0  0  0  0  0
   27.0960   36.6140   20.4690 C   0  0  0  0  0  0  0  0  0  0  0  0
   27.3490   36.1050   16.7300 C   0  0  0  0  0  0  0  0  0  0  0  0
   27.3090   37.0580   15.9370 O   0  0  0  0  0  0  0  0  0  0  0  0
   28.5820   35.5860   17.2060 N   0  0  0  0  0  0  0  0  0  0  0  0
   29.4200   36.2110   17.2090 H   0  0  0  0  0  0  0  0  0  0  0  0
   28.6540   34.6170   17.5410 H   0  0  0  0  0  0  0  0  0  0  0  0
   29.8670   25.5550   16.9770 C   0  0  0  0  0  0  0  0  0  0  0  0
   28.3450   25.7220   17.0260 C   0  0  0  0  0  0  0  0  0  0  0  0
   27.6020   24.3990   16.9250 C   0  0  0  0  0  0  0  0  0  0  0  0
   26.6370   24.2030   18.0620 C   0  0  0  0  0  0  0  0  0  0  0  0
   26.1070   25.5580   18.5180 C   0  0  0  0  0  0  0  0  0  0  0  0
   24.8070   25.8530   17.8700 N   0  0  0  0  0  0  0  0  0  0  0  0
  1  4  1  0  0  0  0
  2  1  1  0  0  0  0
  2 31  1  0  0  0  0
  3  2  2  0  0  0  0
  5  1  1  0  0  0  0
  6  5  1  6  0  0  0
  7 27  1  1  0  0  0
  7  6  1  0  0  0  0
  8  7  1  1  0  0  0
  8 11  1  0  0  0  0
  9 11  1  0  0  0  0
  9 16  1  1  0  0  0
  9 14  1  0  0  0  0
 10  9  1  0  0  0  0
 12 20  1  1  0  0  0
 12 13  1  0  0  0  0
 12 10  1  0  0  0  0
 13 22  1  6  0  0  0
 13  8  1  0  0  0  0
 14 15  1  0  0  0  0
 16 17  2  0  0  0  0
 16 18  1  0  0  0  0
 19 18  1  0  0  0  0
 21 20  1  0  0  0  0
 23 22  1  0  0  0  0
 23 26  2  0  0  0  0
 24 22  1  0  0  0  0
 25 23  1  0  0  0  0
 27 28  1  0  0  0  0
 29  6  1  0  0  0  0
 30 29  1  0  0  0  0
 32 31  1  0  0  0  0
 33 32  1  0  0  0  0
 33 34  2  0  0  0  0
 35 37  2  0  0  0  0
 35 33  1  0  0  0  0
 36 38  1  0  0  0  0
 36 34  1  0  0  0  0
 37 36  1  0  0  0  0
 38 39  1  1  0  0  0
 39 40  1  0  0  0  0
 40 41  1  0  0  0  0
 42 44  1  0  0  0  0
 42 38  1  0  0  0  0
 43 42  2  0  0  0  0
 44 45  1  0  0  0  0
 44 46  1  0  0  0  0
 47 48  1  0  0  0  0
 49 48  1  0  0  0  0
 49 50  1  0  0  0  0
 50 51  1  0  0  0  0
 52 51  1  0  0  0  0
M  END
>  <REMARK>
 VINA RESULT:    -4.027      3.459      7.075
 INTER + INTRA:         -14.430
 INTER:                  -6.195
 INTRA:                  -8.235
 UNBOUND:                -6.753
 SMILES COCC(C(N)=O)n1cc(COC(=O)NC[C@@H](O)C(O)[C@@H]2O[C@@](O)(C(=O)O)C[C@H](O)[C@H]2NC(C)=O)nn1
 SMILES IDX 15 1 13 2 14 3 16 5 17 6 19 7 21 8 23 9 28 10 22 11 29 12
 SMILES IDX 31 13 24 14 25 16 26 17 27 18 30 20 32 22 33 23 34 25 35 26
 SMILES IDX 20 27 18 29 12 31 11 32 10 33 9 34 36 35 8 36 37 37 4 38
 SMILES IDX 3 39 2 40 1 41 5 42 7 43 6 44
 H PARENT 15 4 24 15 27 19 30 21 32 24 20 28 18 30 6 45 6 46
 Flexibility Score: inf
  4 active torsions:
  status: ('A' for Active; 'I' for Inactive)
    1  A    between atoms: CA   and  CB  
    2  A    between atoms: CB   and  CG  
    3  A    between atoms: CG   and  CD  
    4  A    between atoms: CD   and  CE  

>  <TORSDO>
F 18

>  <BEGIN_>
RES LYS A 131

$$$$
ligand_62_pose_9_2HRL.pdbqt
 OpenBabel07062320523D

  6  5  0  0  0  0  0  0  0  0999 V2000
   33.1930   34.6630    9.2900 C   0  0  0  0  0  0  0  0  0  0  0  0
   32.0600   35.3600   10.0340 C   0  0  0  0  0  0  0  0  0  0  0  0
   30.7090   34.7350    9.7970 C   0  0  0  0  0  0  0  0  0  0  0  0
   30.4290   34.6100    8.3080 C   0  0  0  0  0  0  0  0  0  0  0  0
   28.9490   34.7820    8.0280 C   0  0  0  0  0  0  0  0  0  0  0  0
   28.4430   36.0670    8.5860 N   0  0  0  0  0  0  0  0  0  0  0  0
  1  2  1  0  0  0  0
  3  2  1  0  0  0  0
  4  3  1  0  0  0  0
  5  4  1  0  0  0  0
  5  6  1  0  0  0  0
M  END
>  <EGIN_R>
ES LYS A 135

>  <REMARK>
  4 active torsions:
  status: ('A' for Active; 'I' for Inactive)
    5  A    between atoms: CA   and  CB  
    6  A    between atoms: CB   and  CG  
    7  A    between atoms: CG   and  CD  
    8  A    between atoms: CD   and  CE  

$$$$
