ligand_38_pose_15_2HRL.pdbqt
 OpenBabel07062320523D

 51 52  0  0  1  0  0  0  0  0999 V2000
   32.2210   33.7070   14.6310 N   0  0  0  0  0  0  0  0  0  0  0  0
   31.9120   33.6110   16.0090 C   0  0  0  0  0  0  0  0  0  0  0  0
   32.3280   34.4920   16.8310 O   0  0  0  0  0  0  0  0  0  0  0  0
   31.8610   32.9650   13.9950 H   0  0  0  0  0  0  0  0  0  0  0  0
   33.0160   34.8290   14.2110 C   0  0  0  0  0  0  0  0  0  0  0  0
   32.4240   35.4930   12.9590 C   0  0  2  0  0  0  0  0  0  0  0  0
   31.6800   36.6850   13.4490 C   0  0  2  0  0  0  0  0  0  0  0  0
   30.2050   36.5060   13.6590 C   0  0  2  0  0  0  0  0  0  0  0  0
   28.2950   36.5500   12.3140 C   0  0  2  0  0  0  0  0  0  0  0  0
   27.5350   37.0500   13.5280 C   0  0  0  0  0  0  0  0  0  0  0  0
   29.6250   36.8680   12.4370 O   0  0  0  0  0  0  0  0  0  0  0  0
   28.3940   37.9920   14.3550 C   0  0  1  0  0  0  0  0  0  0  0  0
   29.6170   37.1880   14.8340 C   0  0  1  0  0  0  0  0  0  0  0  0
   27.8230   37.3280   11.2350 O   0  0  0  0  0  0  0  0  0  0  0  0
   28.2320   37.0660   10.3880 H   0  0  0  0  0  0  0  0  0  0  0  0
   28.0080   35.1470   12.0060 C   0  0  0  0  0  0  0  0  0  0  0  0
   28.8110   34.4750   11.3180 O   0  0  0  0  0  0  0  0  0  0  0  0
   26.8630   34.4970   12.4440 O   0  0  0  0  0  0  0  0  0  0  0  0
   26.3550   33.9160   11.8070 H   0  0  0  0  0  0  0  0  0  0  0  0
   28.7520   39.1080   13.6440 O   0  0  0  0  0  0  0  0  0  0  0  0
   29.6800   39.3870   13.9280 H   0  0  0  0  0  0  0  0  0  0  0  0
   29.0530   36.2280   15.7910 N   0  0  0  0  0  0  0  0  0  0  0  0
   29.4440   36.2240   17.1560 C   0  0  0  0  0  0  0  0  0  0  0  0
   28.3470   35.5100   15.5150 H   0  0  0  0  0  0  0  0  0  0  0  0
   28.8530   35.2270   18.1200 C   0  0  0  0  0  0  0  0  0  0  0  0
   30.2770   37.0300   17.6010 O   0  0  0  0  0  0  0  0  0  0  0  0
   31.7830   37.6550   12.4170 O   0  0  0  0  0  0  0  0  0  0  0  0
   32.5110   37.3110   11.8250 H   0  0  0  0  0  0  0  0  0  0  0  0
   31.6260   34.5210   12.3620 O   0  0  0  0  0  0  0  0  0  0  0  0
   30.7710   34.4830   12.8430 H   0  0  0  0  0  0  0  0  0  0  0  0
   31.1550   32.5810   16.5470 O   0  0  0  0  0  0  0  0  0  0  0  0
   30.2770   31.7730   15.7860 C   0  0  0  0  0  0  0  0  0  0  0  0
   28.9220   32.3790   15.6970 C   0  0  0  0  0  0  0  0  0  0  0  0
   27.7910   31.9840   16.4210 C   0  0  0  0  0  0  0  0  0  0  0  0
   28.5000   33.4040   14.9340 N   0  0  0  0  0  0  0  0  0  0  0  0
   26.7670   32.7680   16.0670 N   0  0  0  0  0  0  0  0  0  0  0  0
   27.2210   33.6190   15.1670 N   0  0  0  0  0  0  0  0  0  0  0  0
   25.4020   32.7380   16.5430 C   0  0  0  0  0  0  0  0  0  0  0  0
   24.7820   31.4220   16.2400 C   0  0  0  0  0  0  0  0  0  0  0  0
   24.4990   30.5190   17.2420 C   0  0  0  0  0  0  0  0  0  0  0  0
   24.4820   31.0870   14.9490 C   0  0  0  0  0  0  0  0  0  0  0  0
   23.9160   29.2810   16.9580 C   0  0  0  0  0  0  0  0  0  0  0  0
   23.9010   29.8540   14.6540 C   0  0  0  0  0  0  0  0  0  0  0  0
   23.6180   28.9500   15.6650 C   0  0  0  0  0  0  0  0  0  0  0  0
   23.4980   29.4240   12.8490 Br  0  0  0  0  0  0  0  0  0  0  0  0
   29.8670   25.5550   16.9770 C   0  0  0  0  0  0  0  0  0  0  0  0
   28.3450   25.7220   17.0260 C   0  0  0  0  0  0  0  0  0  0  0  0
   27.6010   24.4010   16.9030 C   0  0  0  0  0  0  0  0  0  0  0  0
   26.1490   24.5320   17.2700 C   0  0  0  0  0  0  0  0  0  0  0  0
   26.0290   24.9370   18.7350 C   0  0  0  0  0  0  0  0  0  0  0  0
   24.6880   25.5070   19.0080 N   0  0  0  0  0  0  0  0  0  0  0  0
  1  2  1  0  0  0  0
  2 31  1  0  0  0  0
  2  3  2  0  0  0  0
  4  1  1  0  0  0  0
  5  1  1  0  0  0  0
  6  7  1  0  0  0  0
  6  5  1  1  0  0  0
  7 27  1  6  0  0  0
  8  7  1  6  0  0  0
  8 13  1  0  0  0  0
  9 14  1  6  0  0  0
  9 11  1  0  0  0  0
  9 10  1  0  0  0  0
 10 12  1  0  0  0  0
 11  8  1  0  0  0  0
 12 20  1  6  0  0  0
 12 13  1  0  0  0  0
 13 22  1  1  0  0  0
 15 14  1  0  0  0  0
 16  9  1  0  0  0  0
 16 18  1  0  0  0  0
 17 16  2  0  0  0  0
 19 18  1  0  0  0  0
 20 21  1  0  0  0  0
 22 23  1  0  0  0  0
 23 26  2  0  0  0  0
 23 25  1  0  0  0  0
 24 22  1  0  0  0  0
 28 27  1  0  0  0  0
 29 30  1  0  0  0  0
 29  6  1  0  0  0  0
 32 31  1  0  0  0  0
 33 32  1  0  0  0  0
 33 34  2  0  0  0  0
 35 37  2  0  0  0  0
 35 33  1  0  0  0  0
 36 34  1  0  0  0  0
 36 38  1  0  0  0  0
 37 36  1  0  0  0  0
 39 38  1  0  0  0  0
 39 40  2  0  0  0  0
 41 39  1  0  0  0  0
 42 40  1  0  0  0  0
 43 41  2  0  0  0  0
 43 44  1  0  0  0  0
 44 42  2  0  0  0  0
 45 43  1  0  0  0  0
 46 47  1  0  0  0  0
 48 47  1  0  0  0  0
 48 49  1  0  0  0  0
 49 50  1  0  0  0  0
 50 51  1  0  0  0  0
M  END
>  <REMARK>
 VINA RESULT:    -4.501      2.647      4.755
 INTER + INTRA:         -14.348
 INTER:                  -7.773
 INTRA:                  -6.575
 UNBOUND:                -6.295
 SMILES CC(=O)N[C@@H]1[C@@H](O)C[C@](O)(C(=O)O)O[C@H]1C(O)[C@H](O)CNC(=O)OCc1cn(Cc2cccc(Br)c2)nn1
 SMILES IDX 21 1 22 2 23 3 20 5 18 6 16 7 15 8 9 9 8 10 14 11 6 12 5 13
 SMILES IDX 10 14 11 16 12 17 13 18 7 20 4 22 2 23 1 25 3 26 17 27 19 29
 SMILES IDX 24 31 25 32 26 33 27 34 38 35 28 36 37 37 29 38 30 39 31 40
 SMILES IDX 36 41 32 42 34 43 33 44 35 45
 H PARENT 21 4 10 15 13 19 7 21 4 24 17 28 19 30
 Flexibility Score: inf
  4 active torsions:
  status: ('A' for Active; 'I' for Inactive)
    1  A    between atoms: CA   and  CB  
    2  A    between atoms: CB   and  CG  
    3  A    between atoms: CG   and  CD  
    4  A    between atoms: CD   and  CE  

>  <TORSDO>
F 16

>  <BEGIN_>
RES LYS A 131

$$$$
ligand_38_pose_15_2HRL.pdbqt
 OpenBabel07062320523D

  6  5  0  0  0  0  0  0  0  0999 V2000
   33.1930   34.6630    9.2900 C   0  0  0  0  0  0  0  0  0  0  0  0
   32.0600   35.3600   10.0340 C   0  0  0  0  0  0  0  0  0  0  0  0
   30.9170   35.7710    9.1420 C   0  0  0  0  0  0  0  0  0  0  0  0
   30.4530   34.6000    8.2900 C   0  0  0  0  0  0  0  0  0  0  0  0
   29.1170   34.9100    7.6420 C   0  0  0  0  0  0  0  0  0  0  0  0
   28.6200   36.2520    8.0520 N   0  0  0  0  0  0  0  0  0  0  0  0
  1  2  1  0  0  0  0
  3  2  1  0  0  0  0
  4  3  1  0  0  0  0
  5  6  1  0  0  0  0
  5  4  1  0  0  0  0
M  END
>  <EGIN_R>
ES LYS A 135

>  <REMARK>
  4 active torsions:
  status: ('A' for Active; 'I' for Inactive)
    5  A    between atoms: CA   and  CB  
    6  A    between atoms: CB   and  CG  
    7  A    between atoms: CG   and  CD  
    8  A    between atoms: CD   and  CE  

$$$$
