ligand_22_pose_15_2HRL.pdbqt
 OpenBabel07062320523D

 50 50  0  0  1  0  0  0  0  0999 V2000
   29.8790   30.8730   18.0070 N   0  0  0  0  0  0  0  0  0  0  0  0
   28.5170   30.9150   18.3890 C   0  0  0  0  0  0  0  0  0  0  0  0
   27.6010   31.0940   17.5150 O   0  0  0  0  0  0  0  0  0  0  0  0
   30.6150   30.7240   18.7220 H   0  0  0  0  0  0  0  0  0  0  0  0
   30.1950   31.0350   16.6100 C   0  0  0  0  0  0  0  0  0  0  0  0
   30.9460   32.2720   16.2670 C   0  0  2  0  0  0  0  0  0  0  0  0
   30.0720   33.4960   16.1520 C   0  0  1  0  0  0  0  0  0  0  0  0
   30.6880   34.4140   15.0880 C   0  0  2  0  0  0  0  0  0  0  0  0
   32.5390   35.8030   14.8600 C   0  0  2  0  0  0  0  0  0  0  0  0
   31.6760   36.9090   14.2940 C   0  0  0  0  0  0  0  0  0  0  0  0
   31.8510   34.9220   15.6570 O   0  0  0  0  0  0  0  0  0  0  0  0
   30.3190   36.8810   14.9350 C   0  0  1  0  0  0  0  0  0  0  0  0
   29.7060   35.5090   14.7340 C   0  0  1  0  0  0  0  0  0  0  0  0
   33.4820   36.4330   15.6880 O   0  0  0  0  0  0  0  0  0  0  0  0
   34.1530   35.7890   15.9790 H   0  0  0  0  0  0  0  0  0  0  0  0
   33.2750   35.1120   13.7790 C   0  0  0  0  0  0  0  0  0  0  0  0
   34.3620   34.5500   14.0230 O   0  0  0  0  0  0  0  0  0  0  0  0
   32.7960   35.0620   12.4780 O   0  0  0  0  0  0  0  0  0  0  0  0
   33.0640   35.7370   11.7770 H   0  0  0  0  0  0  0  0  0  0  0  0
   30.3320   37.2640   16.2540 O   0  0  0  0  0  0  0  0  0  0  0  0
   31.1410   37.7440   16.5370 H   0  0  0  0  0  0  0  0  0  0  0  0
   29.3210   35.4280   13.3270 N   0  0  0  0  0  0  0  0  0  0  0  0
   28.0240   34.9900   12.9390 C   0  0  0  0  0  0  0  0  0  0  0  0
   30.0000   35.6920   12.5830 H   0  0  0  0  0  0  0  0  0  0  0  0
   27.6150   34.9010   11.5060 C   0  0  0  0  0  0  0  0  0  0  0  0
   27.2320   34.6790   13.8840 O   0  0  0  0  0  0  0  0  0  0  0  0
   28.7530   33.2490   15.8970 O   0  0  0  0  0  0  0  0  0  0  0  0
   28.4330   33.7860   15.1480 H   0  0  0  0  0  0  0  0  0  0  0  0
   31.5470   32.0250   15.0060 O   0  0  0  0  0  0  0  0  0  0  0  0
   32.5290   31.9000   15.1480 H   0  0  0  0  0  0  0  0  0  0  0  0
   28.0810   30.7740   19.6900 O   0  0  0  0  0  0  0  0  0  0  0  0
   27.5820   29.5170   20.1810 C   0  0  0  0  0  0  0  0  0  0  0  0
   28.7350   28.7650   20.7400 C   0  0  0  0  0  0  0  0  0  0  0  0
   29.6510   29.2590   21.6550 C   0  0  0  0  0  0  0  0  0  0  0  0
   29.1370   27.5020   20.5010 N   0  0  0  0  0  0  0  0  0  0  0  0
   30.5640   28.3030   21.9410 N   0  0  0  0  0  0  0  0  0  0  0  0
   30.2200   27.2510   21.2220 N   0  0  0  0  0  0  0  0  0  0  0  0
   31.6780   28.4430   22.8560 C   0  0  0  0  0  0  0  0  0  0  0  0
   31.3360   29.4350   23.9490 C   0  0  0  0  0  0  0  0  0  0  0  0
   31.9960   27.0960   23.4700 C   0  0  0  0  0  0  0  0  0  0  0  0
   32.8840   28.9720   22.1530 C   0  0  0  0  0  0  0  0  0  0  0  0
   33.8260   29.4010   22.8660 O   0  0  0  0  0  0  0  0  0  0  0  0
   32.9840   28.9980   20.7760 O   0  0  0  0  0  0  0  0  0  0  0  0
   33.9150   28.9300   20.3750 H   0  0  0  0  0  0  0  0  0  0  0  0
   29.8670   25.5550   16.9770 C   0  0  0  0  0  0  0  0  0  0  0  0
   28.3450   25.7220   17.0260 C   0  0  0  0  0  0  0  0  0  0  0  0
   27.6020   24.3980   16.9340 C   0  0  0  0  0  0  0  0  0  0  0  0
   26.6090   24.2270   18.0500 C   0  0  0  0  0  0  0  0  0  0  0  0
   26.2120   25.5960   18.5920 C   0  0  0  0  0  0  0  0  0  0  0  0
   25.6820   25.4750   19.9710 N   0  0  0  0  0  0  0  0  0  0  0  0
  1  2  1  0  0  0  0
  1  4  1  0  0  0  0
  2 31  1  0  0  0  0
  3  2  2  0  0  0  0
  5  1  1  0  0  0  0
  6  5  1  6  0  0  0
  7 27  1  6  0  0  0
  7  6  1  0  0  0  0
  8 11  1  0  0  0  0
  8  7  1  1  0  0  0
  9 16  1  6  0  0  0
  9 11  1  0  0  0  0
  9 14  1  0  0  0  0
 10  9  1  0  0  0  0
 10 12  1  0  0  0  0
 12 20  1  1  0  0  0
 13 22  1  6  0  0  0
 13 12  1  0  0  0  0
 13  8  1  0  0  0  0
 14 15  1  0  0  0  0
 16 17  2  0  0  0  0
 18 16  1  0  0  0  0
 19 18  1  0  0  0  0
 20 21  1  0  0  0  0
 23 22  1  0  0  0  0
 23 26  2  0  0  0  0
 24 22  1  0  0  0  0
 25 23  1  0  0  0  0
 28 27  1  0  0  0  0
 29 30  1  0  0  0  0
 29  6  1  0  0  0  0
 31 32  1  0  0  0  0
 32 33  1  0  0  0  0
 33 34  2  0  0  0  0
 34 36  1  0  0  0  0
 35 33  1  0  0  0  0
 35 37  2  0  0  0  0
 36 38  1  0  0  0  0
 37 36  1  0  0  0  0
 38 40  1  0  0  0  0
 38 39  1  0  0  0  0
 41 38  1  0  0  0  0
 41 42  2  0  0  0  0
 43 41  1  0  0  0  0
 44 43  1  0  0  0  0
 45 46  1  0  0  0  0
 47 46  1  0  0  0  0
 47 48  1  0  0  0  0
 48 49  1  0  0  0  0
 49 50  1  0  0  0  0
M  END
>  <REMARK>
 VINA RESULT:    -4.806      4.094      5.332
 INTER + INTRA:         -14.317
 INTER:                  -8.739
 INTRA:                  -5.578
 UNBOUND:                -5.578
 SMILES CC(=O)N[C@@H]1[C@@H](O)C[C@](O)(C(=O)O)O[C@H]1C(O)[C@H](O)CNC(=O)OCc1cn(C(C)(C)C(=O)O)nn1
 SMILES IDX 21 1 22 2 23 3 20 5 18 6 16 7 15 8 9 9 8 10 14 11 6 12 5 13
 SMILES IDX 10 14 11 16 12 17 13 18 7 20 4 22 2 23 1 25 3 26 17 27 19 29
 SMILES IDX 24 31 25 32 26 33 27 34 36 35 28 36 35 37 29 38 30 39 31 40
 SMILES IDX 32 41 33 42 34 43
 H PARENT 21 4 10 15 13 19 7 21 4 24 17 28 19 30 34 44
 Flexibility Score: inf
  4 active torsions:
  status: ('A' for Active; 'I' for Inactive)
    1  A    between atoms: CA   and  CB  
    2  A    between atoms: CB   and  CG  
    3  A    between atoms: CG   and  CD  
    4  A    between atoms: CD   and  CE  

>  <TORSDO>
F 17

>  <BEGIN_>
RES LYS A 131

$$$$
ligand_22_pose_15_2HRL.pdbqt
 OpenBabel07062320523D

  6  5  0  0  0  0  0  0  0  0999 V2000
   33.1930   34.6630    9.2900 C   0  0  0  0  0  0  0  0  0  0  0  0
   32.0600   35.3600   10.0340 C   0  0  0  0  0  0  0  0  0  0  0  0
   30.7050   34.7530    9.7740 C   0  0  0  0  0  0  0  0  0  0  0  0
   30.4770   34.5700    8.2810 C   0  0  0  0  0  0  0  0  0  0  0  0
   29.0330   34.8640    7.9230 C   0  0  0  0  0  0  0  0  0  0  0  0
   28.9400   35.5950    6.6290 N   0  0  0  0  0  0  0  0  0  0  0  0
  1  2  1  0  0  0  0
  3  2  1  0  0  0  0
  4  3  1  0  0  0  0
  5  4  1  0  0  0  0
  6  5  1  0  0  0  0
M  END
>  <EGIN_R>
ES LYS A 135

>  <REMARK>
  4 active torsions:
  status: ('A' for Active; 'I' for Inactive)
    5  A    between atoms: CA   and  CB  
    6  A    between atoms: CB   and  CG  
    7  A    between atoms: CG   and  CD  
    8  A    between atoms: CD   and  CE  

$$$$
