ligand_7_pose_18_2HRL.pdbqt
 OpenBabel07062320523D

 52 53  0  0  1  0  0  0  0  0999 V2000
   26.5270   41.5620    6.8180 C   0  0  0  0  0  0  0  0  0  0  0  0
   25.5550   40.5590    7.3250 C   0  0  2  0  0  0  0  0  0  0  0  0
   25.8840   39.9560    8.6530 C   0  0  1  0  0  0  0  0  0  0  0  0
   26.2610   38.5220    8.6450 C   0  0  2  0  0  0  0  0  0  0  0  0
   27.2820   37.0440    7.1480 C   0  0  2  0  0  0  0  0  0  0  0  0
   26.8150   35.8670    7.9570 C   0  0  0  0  0  0  0  0  0  0  0  0
   27.3030   38.2320    7.8150 O   0  0  0  0  0  0  0  0  0  0  0  0
   25.7020   36.1850    8.8960 C   0  0  1  0  0  0  0  0  0  0  0  0
   25.1210   37.5580    8.5120 C   0  0  1  0  0  0  0  0  0  0  0  0
   26.4760   37.1280    6.0150 O   0  0  0  0  0  0  0  0  0  0  0  0
   27.0790   37.1290    5.2170 H   0  0  0  0  0  0  0  0  0  0  0  0
   28.6710   36.7400    6.7130 C   0  0  0  0  0  0  0  0  0  0  0  0
   28.9480   35.6390    6.1970 O   0  0  0  0  0  0  0  0  0  0  0  0
   29.6950   37.6830    6.8760 O   0  0  0  0  0  0  0  0  0  0  0  0
   29.8240   38.3950    6.1430 H   0  0  0  0  0  0  0  0  0  0  0  0
   24.7210   35.2170    8.9740 O   0  0  0  0  0  0  0  0  0  0  0  0
   23.8620   35.6830    9.2040 H   0  0  0  0  0  0  0  0  0  0  0  0
   24.0830   37.8050    9.4780 N   0  0  0  0  0  0  0  0  0  0  0  0
   22.7310   37.6570    9.0690 C   0  0  0  0  0  0  0  0  0  0  0  0
   24.2880   38.0880   10.4680 H   0  0  0  0  0  0  0  0  0  0  0  0
   21.5870   37.8920    9.9890 C   0  0  0  0  0  0  0  0  0  0  0  0
   22.4560   37.3180    7.8900 O   0  0  0  0  0  0  0  0  0  0  0  0
   26.9110   40.7050    9.2200 O   0  0  0  0  0  0  0  0  0  0  0  0
   27.7230   40.1390    9.2390 H   0  0  0  0  0  0  0  0  0  0  0  0
   25.2640   39.5970    6.3560 O   0  0  0  0  0  0  0  0  0  0  0  0
   25.1250   40.0000    5.4630 H   0  0  0  0  0  0  0  0  0  0  0  0
   27.8480   41.0110    6.5960 N   0  0  0  0  0  0  0  0  0  0  0  0
   28.2780   40.5060    5.3360 C   0  0  0  0  0  0  0  0  0  0  0  0
   28.5770   40.9540    7.3680 H   0  0  0  0  0  0  0  0  0  0  0  0
   27.5080   40.5210    4.3580 O   0  0  0  0  0  0  0  0  0  0  0  0
   29.5640   39.9850    5.1690 O   0  0  0  0  0  0  0  0  0  0  0  0
   30.6700   40.8910    5.0370 C   0  0  0  0  0  0  0  0  0  0  0  0
   31.7090   40.5010    6.0240 C   0  0  0  0  0  0  0  0  0  0  0  0
   33.0420   40.8730    5.9780 C   0  0  0  0  0  0  0  0  0  0  0  0
   31.5810   39.7500    7.1090 N   0  0  0  0  0  0  0  0  0  0  0  0
   33.6850   40.3460    7.0220 N   0  0  0  0  0  0  0  0  0  0  0  0
   32.7430   39.6620    7.6920 N   0  0  0  0  0  0  0  0  0  0  0  0
   35.0510   40.4440    7.4020 C   0  0  0  0  0  0  0  0  0  0  0  0
   35.4560   41.4140    8.2930 C   0  0  0  0  0  0  0  0  0  0  0  0
   36.0150   39.5850    6.8980 C   0  0  0  0  0  0  0  0  0  0  0  0
   34.4470   42.3440    8.8470 C   0  0  0  0  0  0  0  0  0  0  0  0
   36.8040   41.5070    8.6640 C   0  0  0  0  0  0  0  0  0  0  0  0
   37.3410   39.6860    7.2710 C   0  0  0  0  0  0  0  0  0  0  0  0
   35.5520   38.5320    5.9250 C   0  0  0  0  0  0  0  0  0  0  0  0
   37.7600   40.6500    8.1610 C   0  0  0  0  0  0  0  0  0  0  0  0
   39.1900   40.7710    8.5740 C   0  0  0  0  0  0  0  0  0  0  0  0
   29.8670   25.5550   16.9770 C   0  0  0  0  0  0  0  0  0  0  0  0
   28.3450   25.7220   17.0260 C   0  0  0  0  0  0  0  0  0  0  0  0
   27.6000   24.4130   16.8170 C   0  0  0  0  0  0  0  0  0  0  0  0
   26.1910   24.4730   17.3390 C   0  0  0  0  0  0  0  0  0  0  0  0
   26.0380   23.5020   18.5050 C   0  0  0  0  0  0  0  0  0  0  0  0
   25.4250   24.1830   19.6700 N   0  0  0  0  0  0  0  0  0  0  0  0
  2  1  1  6  0  0  0
  2  3  1  0  0  0  0
  3 23  1  6  0  0  0
  4  3  1  6  0  0  0
  5 10  1  6  0  0  0
  5  7  1  0  0  0  0
  5  6  1  0  0  0  0
  6  8  1  0  0  0  0
  7  4  1  0  0  0  0
  8 16  1  6  0  0  0
  9  4  1  0  0  0  0
  9  8  1  0  0  0  0
  9 18  1  1  0  0  0
 11 10  1  0  0  0  0
 12 14  1  0  0  0  0
 12  5  1  0  0  0  0
 13 12  2  0  0  0  0
 15 14  1  0  0  0  0
 16 17  1  0  0  0  0
 18 20  1  0  0  0  0
 19 18  1  0  0  0  0
 19 21  1  0  0  0  0
 22 19  2  0  0  0  0
 23 24  1  0  0  0  0
 25  2  1  0  0  0  0
 26 25  1  0  0  0  0
 27  1  1  0  0  0  0
 27 29  1  0  0  0  0
 28 27  1  0  0  0  0
 30 28  2  0  0  0  0
 31 28  1  0  0  0  0
 32 31  1  0  0  0  0
 32 33  1  0  0  0  0
 33 35  1  0  0  0  0
 34 33  2  0  0  0  0
 34 36  1  0  0  0  0
 35 37  2  0  0  0  0
 36 38  1  0  0  0  0
 36 37  1  0  0  0  0
 38 39  2  0  0  0  0
 39 42  1  0  0  0  0
 39 41  1  0  0  0  0
 40 43  2  0  0  0  0
 40 38  1  0  0  0  0
 43 45  1  0  0  0  0
 44 40  1  0  0  0  0
 45 46  1  0  0  0  0
 45 42  2  0  0  0  0
 47 48  1  0  0  0  0
 49 48  1  0  0  0  0
 49 50  1  0  0  0  0
 50 51  1  0  0  0  0
 51 52  1  0  0  0  0
M  END
>  <REMARK>
 VINA RESULT:    -4.554      8.262     14.085
 INTER + INTRA:         -13.799
 INTER:                  -8.659
 INTRA:                  -5.140
 UNBOUND:                -5.917
 SMILES CC(=O)N[C@@H]1[C@@H](O)C[C@](O)(C(=O)O)O[C@H]1C(O)[C@H](O)CNC(=O)OCc1cn(-c2c(C)cc(C)cc2C)nn1
 SMILES IDX 20 1 18 2 16 3 15 4 9 5 8 6 14 7 6 8 5 9 10 10 11 12 12 13
 SMILES IDX 13 14 7 16 4 18 2 19 1 21 3 22 17 23 19 25 21 27 22 28 23 30
 SMILES IDX 24 31 25 32 26 33 27 34 39 35 28 36 38 37 29 38 30 39 36 40
 SMILES IDX 31 41 32 42 35 43 37 44 33 45 34 46
 H PARENT 10 11 13 15 7 17 4 20 17 24 19 26 21 29
 Flexibility Score: inf
  4 active torsions:
  status: ('A' for Active; 'I' for Inactive)
    1  A    between atoms: CA   and  CB  
    2  A    between atoms: CB   and  CG  
    3  A    between atoms: CG   and  CD  
    4  A    between atoms: CD   and  CE  

>  <TORSDO>
F 15

>  <BEGIN_>
RES LYS A 131

$$$$
ligand_7_pose_18_2HRL.pdbqt
 OpenBabel07062320523D

  6  5  0  0  0  0  0  0  0  0999 V2000
   33.1930   34.6630    9.2900 C   0  0  0  0  0  0  0  0  0  0  0  0
   32.0600   35.3600   10.0340 C   0  0  0  0  0  0  0  0  0  0  0  0
   30.7560   35.3660    9.2780 C   0  0  0  0  0  0  0  0  0  0  0  0
   29.8090   34.3140    9.8340 C   0  0  0  0  0  0  0  0  0  0  0  0
   28.8630   34.9310   10.8460 C   0  0  0  0  0  0  0  0  0  0  0  0
   29.3080   34.6470   12.2390 N   0  0  0  0  0  0  0  0  0  0  0  0
  1  2  1  0  0  0  0
  3  4  1  0  0  0  0
  3  2  1  0  0  0  0
  4  5  1  0  0  0  0
  5  6  1  0  0  0  0
M  END
>  <EGIN_R>
ES LYS A 135

>  <REMARK>
  4 active torsions:
  status: ('A' for Active; 'I' for Inactive)
    5  A    between atoms: CA   and  CB  
    6  A    between atoms: CB   and  CG  
    7  A    between atoms: CG   and  CD  
    8  A    between atoms: CD   and  CE  

$$$$
