ligand_56_pose_8_2HRL.pdbqt
 OpenBabel07062320523D

 49 50  0  0  1  0  0  0  0  0999 V2000
   23.5640   38.3120    9.2770 C   0  0  0  0  0  0  0  0  0  0  0  0
   23.9110   37.4780    8.0950 C   0  0  2  0  0  0  0  0  0  0  0  0
   25.2770   37.8150    7.5210 C   0  0  2  0  0  0  0  0  0  0  0  0
   26.2600   36.7060    7.6320 C   0  0  2  0  0  0  0  0  0  0  0  0
   27.8380   35.7160    8.9940 C   0  0  2  0  0  0  0  0  0  0  0  0
   28.0780   34.8290    7.7980 C   0  0  0  0  0  0  0  0  0  0  0  0
   26.6930   36.4600    8.9050 O   0  0  0  0  0  0  0  0  0  0  0  0
   28.1010   35.5920    6.5020 C   0  0  1  0  0  0  0  0  0  0  0  0
   27.4830   36.9520    6.7640 C   0  0  1  0  0  0  0  0  0  0  0  0
   28.9470   36.5120    9.2810 O   0  0  0  0  0  0  0  0  0  0  0  0
   28.7360   37.2110    9.9560 H   0  0  0  0  0  0  0  0  0  0  0  0
   27.6730   34.7960   10.1730 C   0  0  0  0  0  0  0  0  0  0  0  0
   26.5980   34.2510   10.4680 O   0  0  0  0  0  0  0  0  0  0  0  0
   28.8170   34.5810   10.9360 O   0  0  0  0  0  0  0  0  0  0  0  0
   29.0520   35.2120   11.6980 H   0  0  0  0  0  0  0  0  0  0  0  0
   29.3950   35.7360    6.0030 O   0  0  0  0  0  0  0  0  0  0  0  0
   29.4860   35.2140    5.1700 H   0  0  0  0  0  0  0  0  0  0  0  0
   27.1500   37.6350    5.5360 N   0  0  0  0  0  0  0  0  0  0  0  0
   27.6840   38.9210    5.2490 C   0  0  0  0  0  0  0  0  0  0  0  0
   26.5170   37.2120    4.8330 H   0  0  0  0  0  0  0  0  0  0  0  0
   27.3600   39.6560    3.9860 C   0  0  0  0  0  0  0  0  0  0  0  0
   28.4550   39.4570    6.0850 O   0  0  0  0  0  0  0  0  0  0  0  0
   25.7020   39.0490    7.9430 O   0  0  0  0  0  0  0  0  0  0  0  0
   26.2550   38.9390    8.7630 H   0  0  0  0  0  0  0  0  0  0  0  0
   23.0180   37.6200    7.0480 O   0  0  0  0  0  0  0  0  0  0  0  0
   23.4470   37.7470    6.1720 H   0  0  0  0  0  0  0  0  0  0  0  0
   24.5300   38.1560   10.3270 N   0  0  0  0  0  0  0  0  0  0  0  0
   24.5510   37.1940   11.3450 C   0  0  0  0  0  0  0  0  0  0  0  0
   25.3490   38.8560   10.3530 H   0  0  0  0  0  0  0  0  0  0  0  0
   23.6660   36.3420   11.4310 O   0  0  0  0  0  0  0  0  0  0  0  0
   25.5690   37.1420   12.3170 O   0  0  0  0  0  0  0  0  0  0  0  0
   25.4900   36.1610   13.3570 C   0  0  0  0  0  0  0  0  0  0  0  0
   26.8150   35.6230   13.6780 C   0  0  0  0  0  0  0  0  0  0  0  0
   27.1540   34.4750   14.3570 C   0  0  0  0  0  0  0  0  0  0  0  0
   27.9840   36.2040   13.3350 N   0  0  0  0  0  0  0  0  0  0  0  0
   28.5050   34.4170   14.3920 N   0  0  0  0  0  0  0  0  0  0  0  0
   28.9950   35.4620   13.7740 N   0  0  0  0  0  0  0  0  0  0  0  0
   29.2990   33.3950   14.9970 C   0  0  0  0  0  0  0  0  0  0  0  0
   28.6650   32.3160   15.5640 C   0  0  0  0  0  0  0  0  0  0  0  0
   30.6850   33.4960   15.0090 C   0  0  0  0  0  0  0  0  0  0  0  0
   29.4460   31.3390   16.1430 C   0  0  0  0  0  0  0  0  0  0  0  0
   31.4150   32.5020   15.5940 C   0  0  0  0  0  0  0  0  0  0  0  0
   30.7810   31.4470   16.1470 N   0  0  0  0  0  0  0  0  0  0  0  0
   29.8670   25.5550   16.9770 C   0  0  0  0  0  0  0  0  0  0  0  0
   28.3450   25.7220   17.0260 C   0  0  0  0  0  0  0  0  0  0  0  0
   27.6010   24.4020   16.8920 C   0  0  0  0  0  0  0  0  0  0  0  0
   26.4690   24.2870   17.8750 C   0  0  0  0  0  0  0  0  0  0  0  0
   25.6970   22.9980   17.6140 C   0  0  0  0  0  0  0  0  0  0  0  0
   24.9150   22.6110   18.8110 N   0  0  0  0  0  0  0  0  0  0  0  0
  1 27  1  0  0  0  0
  2  1  1  1  0  0  0
  3 23  1  1  0  0  0
  3  2  1  0  0  0  0
  4  3  1  1  0  0  0
  4  7  1  0  0  0  0
  5 10  1  1  0  0  0
  5 12  1  0  0  0  0
  6  5  1  0  0  0  0
  7  5  1  0  0  0  0
  8 16  1  1  0  0  0
  8  9  1  0  0  0  0
  8  6  1  0  0  0  0
  9 18  1  6  0  0  0
  9  4  1  0  0  0  0
 10 11  1  0  0  0  0
 12 13  2  0  0  0  0
 12 14  1  0  0  0  0
 14 15  1  0  0  0  0
 17 16  1  0  0  0  0
 19 18  1  0  0  0  0
 19 22  2  0  0  0  0
 20 18  1  0  0  0  0
 21 19  1  0  0  0  0
 23 24  1  0  0  0  0
 25  2  1  0  0  0  0
 26 25  1  0  0  0  0
 27 29  1  0  0  0  0
 27 28  1  0  0  0  0
 28 30  2  0  0  0  0
 28 31  1  0  0  0  0
 31 32  1  0  0  0  0
 32 33  1  0  0  0  0
 33 34  2  0  0  0  0
 34 36  1  0  0  0  0
 35 33  1  0  0  0  0
 35 37  2  0  0  0  0
 36 38  1  0  0  0  0
 37 36  1  0  0  0  0
 38 40  2  0  0  0  0
 38 39  1  0  0  0  0
 39 41  2  0  0  0  0
 40 42  1  0  0  0  0
 41 43  1  0  0  0  0
 42 43  2  0  0  0  0
 44 45  1  0  0  0  0
 46 45  1  0  0  0  0
 46 47  1  0  0  0  0
 48 47  1  0  0  0  0
 48 49  1  0  0  0  0
M  END
>  <REMARK>
 VINA RESULT:    -4.971      7.628     12.839
 INTER + INTRA:         -13.877
 INTER:                  -9.257
 INTRA:                  -4.620
 UNBOUND:                -5.272
 SMILES CC(=O)N[C@@H]1[C@@H](O)C[C@](O)(C(=O)O)O[C@H]1C(O)[C@H](O)CNC(=O)OCc1cn(-c2ccncc2)nn1
 SMILES IDX 20 1 18 2 16 3 15 4 9 5 8 6 14 7 6 8 5 9 10 10 11 12 12 13
 SMILES IDX 13 14 7 16 4 18 2 19 1 21 3 22 17 23 19 25 21 27 22 28 23 30
 SMILES IDX 24 31 25 32 26 33 27 34 36 35 28 36 35 37 29 38 30 39 34 40
 SMILES IDX 31 41 33 42 32 43
 H PARENT 10 11 13 15 7 17 4 20 17 24 19 26 21 29
 Flexibility Score: inf
  4 active torsions:
  status: ('A' for Active; 'I' for Inactive)
    1  A    between atoms: CA   and  CB  
    2  A    between atoms: CB   and  CG  
    3  A    between atoms: CG   and  CD  
    4  A    between atoms: CD   and  CE  

>  <TORSDO>
F 15

>  <BEGIN_>
RES LYS A 131

$$$$
ligand_56_pose_8_2HRL.pdbqt
 OpenBabel07062320523D

  6  5  0  0  0  0  0  0  0  0999 V2000
   33.1930   34.6630    9.2900 C   0  0  0  0  0  0  0  0  0  0  0  0
   32.0600   35.3600   10.0340 C   0  0  0  0  0  0  0  0  0  0  0  0
   32.2540   35.3990   11.5280 C   0  0  0  0  0  0  0  0  0  0  0  0
   32.1930   36.8300   12.0400 C   0  0  0  0  0  0  0  0  0  0  0  0
   31.8570   37.7850   10.9110 C   0  0  0  0  0  0  0  0  0  0  0  0
   31.4340   39.1120   11.4390 N   0  0  0  0  0  0  0  0  0  0  0  0
  1  2  1  0  0  0  0
  2  3  1  0  0  0  0
  3  4  1  0  0  0  0
  5  6  1  0  0  0  0
  5  4  1  0  0  0  0
M  END
>  <EGIN_R>
ES LYS A 135

>  <REMARK>
  4 active torsions:
  status: ('A' for Active; 'I' for Inactive)
    5  A    between atoms: CA   and  CB  
    6  A    between atoms: CB   and  CG  
    7  A    between atoms: CG   and  CD  
    8  A    between atoms: CD   and  CE  

$$$$
