ligand_80_pose_18_2HRL.pdbqt
 OpenBabel07062320523D

 56 54  0  0  1  0  0  0  0  0999 V2000
   19.1700   38.0260    8.6510 O   0  0  0  0  0  0  0  0  0  0  0  0
   20.1910   37.2750    8.1200 C   0  0  0  0  0  0  0  0  0  0  0  0
   21.5130   37.8250    8.0240 N   0  0  0  0  0  0  0  0  0  0  0  0
   21.6310   38.8030    8.3790 H   0  0  0  0  0  0  0  0  0  0  0  0
   20.0150   36.1020    7.7040 O   0  0  0  0  0  0  0  0  0  0  0  0
   22.6190   37.0690    7.4670 C   0  0  0  0  0  0  0  0  0  0  0  0
   23.4830   36.5850    8.6060 C   0  0  2  0  0  0  0  0  0  0  0  0
   24.9620   36.7140    8.3070 C   0  0  2  0  0  0  0  0  0  0  0  0
   25.7200   37.2110    9.5480 C   0  0  2  0  0  0  0  0  0  0  0  0
   25.1110   37.8670   11.7160 C   0  0  2  0  0  0  0  0  0  0  0  0
   26.2570   38.8280   11.6350 C   0  0  0  0  0  0  0  0  0  0  0  0
   24.8840   37.1210   10.5920 O   0  0  0  0  0  0  0  0  0  0  0  0
   26.0940   39.5710   10.3190 C   0  0  1  0  0  0  0  0  0  0  0  0
   26.2530   38.5640    9.2080 C   0  0  1  0  0  0  0  0  0  0  0  0
   23.9330   38.6130   11.9270 O   0  0  0  0  0  0  0  0  0  0  0  0
   24.1310   39.5150   11.5640 H   0  0  0  0  0  0  0  0  0  0  0  0
   25.2380   36.9330   12.8630 C   0  0  0  0  0  0  0  0  0  0  0  0
   26.2820   36.2590   12.9910 O   0  0  0  0  0  0  0  0  0  0  0  0
   24.2290   36.7780   13.8100 O   0  0  0  0  0  0  0  0  0  0  0  0
   23.4070   36.2320   13.5120 H   0  0  0  0  0  0  0  0  0  0  0  0
   24.7960   40.0700   10.2870 O   0  0  0  0  0  0  0  0  0  0  0  0
   24.3550   39.7030    9.4840 H   0  0  0  0  0  0  0  0  0  0  0  0
   27.6780   38.4320    8.9610 N   0  0  0  0  0  0  0  0  0  0  0  0
   28.3000   38.7970    7.7390 C   0  0  0  0  0  0  0  0  0  0  0  0
   28.2950   38.0390    9.7370 H   0  0  0  0  0  0  0  0  0  0  0  0
   29.7650   38.6140    7.6060 C   0  0  0  0  0  0  0  0  0  0  0  0
   27.5810   39.2620    6.8160 O   0  0  0  0  0  0  0  0  0  0  0  0
   25.0790   37.6920    7.3130 O   0  0  0  0  0  0  0  0  0  0  0  0
   25.2380   37.3220    6.4190 H   0  0  0  0  0  0  0  0  0  0  0  0
   23.1650   35.2810    8.9640 O   0  0  0  0  0  0  0  0  0  0  0  0
   23.0670   35.1650    9.9320 H   0  0  0  0  0  0  0  0  0  0  0  0
   18.6750   37.7920    9.9590 C   0  0  0  0  0  0  0  0  0  0  0  0
   19.7450   37.2900   10.8580 C   0  0  0  0  0  0  0  0  0  0  0  0
   19.7970   35.9920   11.3770 C   0  0  0  0  0  0  0  0  0  0  0  0
   20.8320   37.9080   11.3530 N   0  0  0  0  0  0  0  0  0  0  0  0
   20.8880   35.8770   12.1510 N   0  0  0  0  0  0  0  0  0  0  0  0
   21.4860   37.0480   12.1120 N   0  0  0  0  0  0  0  0  0  0  0  0
   21.3130   34.7050   12.8850 *   0  0  0  0  0  0  0  0  0  0  0  0
   20.2160   33.7020   12.9880 C   0  0  0  0  0  0  0  0  0  0  0  0
   20.1880   32.3010   12.7900 N   0  0  0  0  0  0  0  0  0  0  0  0
   19.1220   34.2270   13.3120 O   0  0  0  0  0  0  0  0  0  0  0  0
   19.2670   31.8280   12.6640 H   0  0  0  0  0  0  0  0  0  0  0  0
   21.3130   31.4050   12.7390 C   0  0  0  0  0  0  0  0  0  0  0  0
   22.6480   31.7320   12.8890 C   0  0  0  0  0  0  0  0  0  0  0  0
   20.8950   30.1080   12.5160 C   0  0  0  0  0  0  0  0  0  0  0  0
   23.5710   30.7350   12.8090 C   0  0  0  0  0  0  0  0  0  0  0  0
   21.8310   29.1000   12.4360 C   0  0  0  0  0  0  0  0  0  0  0  0
   23.1600   29.4270   12.5850 C   0  0  0  0  0  0  0  0  0  0  0  0
   23.2100   33.0880   13.1320 C   0  0  0  0  0  0  0  0  0  0  0  0
   22.5640   34.1470   12.2550 *   0  0  0  0  0  0  0  0  0  0  0  0
   29.8670   25.5550   16.9770 C   0  0  0  0  0  0  0  0  0  0  0  0
   28.3450   25.7220   17.0260 C   0  0  0  0  0  0  0  0  0  0  0  0
   27.6020   24.3980   16.9340 C   0  0  0  0  0  0  0  0  0  0  0  0
   26.1540   24.5330   17.3160 C   0  0  0  0  0  0  0  0  0  0  0  0
   26.0510   24.9450   18.7810 C   0  0  0  0  0  0  0  0  0  0  0  0
   24.9960   24.1630   19.4670 N   0  0  0  0  0  0  0  0  0  0  0  0
  1 32  1  0  0  0  0
  2  1  1  0  0  0  0
  3  2  1  0  0  0  0
  3  4  1  0  0  0  0
  5  2  2  0  0  0  0
  6  3  1  0  0  0  0
  7  6  1  6  0  0  0
  7 30  1  0  0  0  0
  8 28  1  6  0  0  0
  8  7  1  0  0  0  0
  9  8  1  6  0  0  0
  9 12  1  0  0  0  0
 10 15  1  1  0  0  0
 10 17  1  0  0  0  0
 11 10  1  0  0  0  0
 12 10  1  0  0  0  0
 13 21  1  1  0  0  0
 13 11  1  0  0  0  0
 14 23  1  1  0  0  0
 14  9  1  0  0  0  0
 14 13  1  0  0  0  0
 16 15  1  0  0  0  0
 17 18  2  0  0  0  0
 17 19  1  0  0  0  0
 20 19  1  0  0  0  0
 22 21  1  0  0  0  0
 23 25  1  0  0  0  0
 24 23  1  0  0  0  0
 26 24  1  0  0  0  0
 27 24  2  0  0  0  0
 29 28  1  0  0  0  0
 30 31  1  0  0  0  0
 32 33  1  0  0  0  0
 33 35  1  0  0  0  0
 33 34  2  0  0  0  0
 34 36  1  0  0  0  0
 35 37  1  0  0  0  0
 37 36  2  0  0  0  0
 39 41  2  0  0  0  0
 40 39  1  0  0  0  0
 42 40  1  0  0  0  0
 43 40  1  0  0  0  0
 43 44  2  0  0  0  0
 44 49  1  0  0  0  0
 45 43  1  0  0  0  0
 46 44  1  0  0  0  0
 47 45  2  0  0  0  0
 47 48  1  0  0  0  0
 48 46  2  0  0  0  0
 51 52  1  0  0  0  0
 53 52  1  0  0  0  0
 53 54  1  0  0  0  0
 54 55  1  0  0  0  0
 55 56  1  0  0  0  0
M  END
>  <REMARK>
 VINA RESULT:    -8.822      4.702      7.319
 INTER + INTRA:         -12.776
 INTER:                  -7.533
 INTRA:                  -5.243
 UNBOUND:                 4.555
 SMILES CC(=O)N[C@@H]1[C@@H](O)C[C@](O)(C(=O)O)O[C@H]1C(O)[C@H](O)CNC(=O)OCc1cn(C2CCc3ccccc3NC2=O)nn1
 SMILES IDX 24 1 22 2 21 3 23 5 20 6 18 7 16 8 15 9 9 10 8 11 14 12 6 13
 SMILES IDX 5 14 10 15 11 17 12 18 13 19 7 21 4 23 2 24 1 26 3 27 17 28
 SMILES IDX 19 30 25 32 26 33 27 34 42 35 28 36 41 37 29 38 39 40 38 41
 SMILES IDX 40 42 37 44 32 45 36 46 33 47 35 48 34 49 31 50 30 51
 H PARENT 21 4 10 16 13 20 7 22 4 25 17 29 19 31 38 43
 Flexibility Score: 80.00
  4 active torsions:
  status: ('A' for Active; 'I' for Inactive)
    1  A    between atoms: CA   and  CB  
    2  A    between atoms: CB   and  CG  
    3  A    between atoms: CG   and  CD  
    4  A    between atoms: CD   and  CE  

>  <TORSDO>
F 15

>  <BEGIN_>
RES LYS A 131

$$$$
ligand_80_pose_18_2HRL.pdbqt
 OpenBabel07062320523D

  6  5  0  0  0  0  0  0  0  0999 V2000
   33.1930   34.6630    9.2900 C   0  0  0  0  0  0  0  0  0  0  0  0
   32.0600   35.3600   10.0340 C   0  0  0  0  0  0  0  0  0  0  0  0
   30.7950   35.4850    9.2250 C   0  0  0  0  0  0  0  0  0  0  0  0
   30.1270   34.1280    9.0600 C   0  0  0  0  0  0  0  0  0  0  0  0
   28.7260   34.1500    9.6400 C   0  0  0  0  0  0  0  0  0  0  0  0
   28.7480   34.5140   11.0840 N   0  0  0  0  0  0  0  0  0  0  0  0
  1  2  1  0  0  0  0
  3  2  1  0  0  0  0
  4  3  1  0  0  0  0
  4  5  1  0  0  0  0
  5  6  1  0  0  0  0
M  END
>  <EGIN_R>
ES LYS A 135

>  <REMARK>
  4 active torsions:
  status: ('A' for Active; 'I' for Inactive)
    5  A    between atoms: CA   and  CB  
    6  A    between atoms: CB   and  CG  
    7  A    between atoms: CG   and  CD  
    8  A    between atoms: CD   and  CE  

$$$$
