ligand_73_pose_14_2HRL.pdbqt
 OpenBabel07062320523D

 54 55  0  0  1  0  0  0  0  0999 V2000
   25.8100   37.6950    6.8280 N   0  0  0  0  0  0  0  0  0  0  0  0
   27.2070   37.9510    6.8480 C   0  0  0  0  0  0  0  0  0  0  0  0
   27.7000   38.9400    7.4870 O   0  0  0  0  0  0  0  0  0  0  0  0
   25.4530   36.8810    6.3050 H   0  0  0  0  0  0  0  0  0  0  0  0
   24.9290   38.5690    7.5460 C   0  0  0  0  0  0  0  0  0  0  0  0
   23.6150   38.0030    7.9510 C   0  0  2  0  0  0  0  0  0  0  0  0
   23.6620   36.9780    9.0550 C   0  0  1  0  0  0  0  0  0  0  0  0
   22.3390   36.3620    9.3880 C   0  0  2  0  0  0  0  0  0  0  0  0
   20.0780   36.4180    8.9910 C   0  0  2  0  0  0  0  0  0  0  0  0
   20.2060   35.0620    9.6480 C   0  0  0  0  0  0  0  0  0  0  0  0
   21.2860   37.0770    8.8440 O   0  0  0  0  0  0  0  0  0  0  0  0
   20.8620   35.2180   10.9790 C   0  0  1  0  0  0  0  0  0  0  0  0
   22.1870   35.9700   10.8110 C   0  0  1  0  0  0  0  0  0  0  0  0
   19.2410   37.1790    9.7940 O   0  0  0  0  0  0  0  0  0  0  0  0
   19.8150   37.6040   10.4880 H   0  0  0  0  0  0  0  0  0  0  0  0
   19.4110   36.2130    7.6810 C   0  0  0  0  0  0  0  0  0  0  0  0
   18.7350   37.1270    7.1420 O   0  0  0  0  0  0  0  0  0  0  0  0
   19.5200   35.0030    7.0230 O   0  0  0  0  0  0  0  0  0  0  0  0
   20.1990   34.8160    6.3090 H   0  0  0  0  0  0  0  0  0  0  0  0
   19.9700   35.9360   11.7970 O   0  0  0  0  0  0  0  0  0  0  0  0
   20.1230   35.5970   12.7300 H   0  0  0  0  0  0  0  0  0  0  0  0
   23.2630   35.0100   11.1050 N   0  0  0  0  0  0  0  0  0  0  0  0
   24.0400   35.0700   12.2810 C   0  0  0  0  0  0  0  0  0  0  0  0
   23.4560   34.2520   10.4090 H   0  0  0  0  0  0  0  0  0  0  0  0
   25.1160   34.0840   12.5380 C   0  0  0  0  0  0  0  0  0  0  0  0
   23.8240   35.9600   13.1130 O   0  0  0  0  0  0  0  0  0  0  0  0
   24.5520   35.9490    8.7510 O   0  0  0  0  0  0  0  0  0  0  0  0
   25.3430   35.9360    9.3150 H   0  0  0  0  0  0  0  0  0  0  0  0
   23.0520   37.4340    6.8000 O   0  0  0  0  0  0  0  0  0  0  0  0
   22.9430   36.4560    6.9780 H   0  0  0  0  0  0  0  0  0  0  0  0
   28.0330   37.1000    6.1520 O   0  0  0  0  0  0  0  0  0  0  0  0
   27.9840   35.7290    6.4010 C   0  0  0  0  0  0  0  0  0  0  0  0
   27.8240   35.3930    7.8410 C   0  0  0  0  0  0  0  0  0  0  0  0
   28.5090   35.9210    8.9260 C   0  0  0  0  0  0  0  0  0  0  0  0
   26.9730   34.5030    8.3830 N   0  0  0  0  0  0  0  0  0  0  0  0
   28.0740   35.3580   10.0630 N   0  0  0  0  0  0  0  0  0  0  0  0
   27.1370   34.4960    9.7070 N   0  0  0  0  0  0  0  0  0  0  0  0
   28.4970   35.5990   11.4000 C   0  0  0  0  0  0  0  0  0  0  0  0
   28.1610   36.7790   12.0310 C   0  0  0  0  0  0  0  0  0  0  0  0
   29.2450   34.6920   12.1220 C   0  0  0  0  0  0  0  0  0  0  0  0
   28.5620   37.0340   13.3320 C   0  0  0  0  0  0  0  0  0  0  0  0
   29.6690   34.9030   13.4240 C   0  0  0  0  0  0  0  0  0  0  0  0
   29.3070   36.1070   14.0210 C   0  0  0  0  0  0  0  0  0  0  0  0
   30.4330   33.9650   14.1480 N   0  0  0  0  0  0  0  0  0  0  0  0
   29.9270   32.8910   14.4730 O   0  0  0  0  0  0  0  0  0  0  0  0
   31.7200   34.2490   14.4810 O   0  0  0  0  0  0  0  0  0  0  0  0
   29.7350   36.3170   15.3300 O   0  0  0  0  0  0  0  0  0  0  0  0
   30.2670   35.5650   15.7910 H   0  0  0  0  0  0  0  0  0  0  0  0
   29.8670   25.5550   16.9770 C   0  0  0  0  0  0  0  0  0  0  0  0
   28.3450   25.7220   17.0260 C   0  0  0  0  0  0  0  0  0  0  0  0
   27.6020   24.4000   16.9120 C   0  0  0  0  0  0  0  0  0  0  0  0
   26.1530   24.5310   17.2920 C   0  0  0  0  0  0  0  0  0  0  0  0
   25.7890   23.4410   18.2950 C   0  0  0  0  0  0  0  0  0  0  0  0
   25.0850   22.3260   17.6180 N   0  0  0  0  0  0  0  0  0  0  0  0
  1  2  1  0  0  0  0
  1  5  1  0  0  0  0
  2  3  2  0  0  0  0
  4  1  1  0  0  0  0
  6  5  1  6  0  0  0
  6  7  1  0  0  0  0
  7 27  1  6  0  0  0
  8  7  1  1  0  0  0
  8 13  1  0  0  0  0
  9 16  1  6  0  0  0
  9 10  1  0  0  0  0
  9 14  1  0  0  0  0
 10 12  1  0  0  0  0
 11  9  1  0  0  0  0
 11  8  1  0  0  0  0
 12 20  1  1  0  0  0
 13 12  1  0  0  0  0
 13 22  1  6  0  0  0
 14 15  1  0  0  0  0
 17 16  2  0  0  0  0
 18 16  1  0  0  0  0
 19 18  1  0  0  0  0
 20 21  1  0  0  0  0
 22 23  1  0  0  0  0
 23 25  1  0  0  0  0
 23 26  2  0  0  0  0
 24 22  1  0  0  0  0
 27 28  1  0  0  0  0
 29 30  1  0  0  0  0
 29  6  1  0  0  0  0
 31 32  1  0  0  0  0
 31  2  1  0  0  0  0
 32 33  1  0  0  0  0
 33 35  1  0  0  0  0
 33 34  2  0  0  0  0
 34 36  1  0  0  0  0
 35 37  2  0  0  0  0
 36 38  1  0  0  0  0
 37 36  1  0  0  0  0
 38 39  2  0  0  0  0
 38 40  1  0  0  0  0
 39 41  1  0  0  0  0
 40 42  2  0  0  0  0
 41 43  2  0  0  0  0
 42 43  1  0  0  0  0
 42 44  1  0  0  0  0
 43 47  1  0  0  0  0
 44 45  2  0  0  0  0
 44 46  2  0  0  0  0
 47 48  1  0  0  0  0
 49 50  1  0  0  0  0
 51 50  1  0  0  0  0
 51 52  1  0  0  0  0
 52 53  1  0  0  0  0
 54 53  1  0  0  0  0
M  END
>  <REMARK>
 VINA RESULT:    -3.951      5.364      9.495
 INTER + INTRA:         -14.496
 INTER:                  -9.807
 INTRA:                  -4.688
 UNBOUND:                -7.311
 SMILES CC(=O)N[C@@H]1[C@@H](O)C[C@](O)(C(=O)O)O[C@H]1C(O)[C@H](O)CNC(=O)OCc1cn(-c2ccc(O)c([N+](=O)[O-])c2)nn1
 SMILES IDX 21 1 22 2 23 3 20 5 18 6 16 7 15 8 9 9 8 10 14 11 6 12 5 13
 SMILES IDX 10 14 11 16 12 17 13 18 7 20 4 22 2 23 1 25 3 26 17 27 19 29
 SMILES IDX 24 31 25 32 26 33 27 34 40 35 28 36 39 37 29 38 30 39 38 40
 SMILES IDX 31 41 34 42 32 43 35 44 36 45 37 46 33 47
 H PARENT 21 4 10 15 13 19 7 21 4 24 17 28 19 30 33 48
 Flexibility Score: inf
  4 active torsions:
  status: ('A' for Active; 'I' for Inactive)
    1  A    between atoms: CA   and  CB  
    2  A    between atoms: CB   and  CG  
    3  A    between atoms: CG   and  CD  
    4  A    between atoms: CD   and  CE  

>  <TORSDO>
F 17

>  <BEGIN_>
RES LYS A 131

$$$$
ligand_73_pose_14_2HRL.pdbqt
 OpenBabel07062320523D

  6  5  0  0  0  0  0  0  0  0999 V2000
   33.1930   34.6630    9.2900 C   0  0  0  0  0  0  0  0  0  0  0  0
   32.0600   35.3600   10.0340 C   0  0  0  0  0  0  0  0  0  0  0  0
   32.4970   36.0180   11.3170 C   0  0  0  0  0  0  0  0  0  0  0  0
   31.8800   37.4020   11.4480 C   0  0  0  0  0  0  0  0  0  0  0  0
   31.3740   37.8890   10.1030 C   0  0  0  0  0  0  0  0  0  0  0  0
   32.2000   39.0190    9.5960 N   0  0  0  0  0  0  0  0  0  0  0  0
  1  2  1  0  0  0  0
  2  3  1  0  0  0  0
  3  4  1  0  0  0  0
  5  4  1  0  0  0  0
  6  5  1  0  0  0  0
M  END
>  <EGIN_R>
ES LYS A 135

>  <REMARK>
  4 active torsions:
  status: ('A' for Active; 'I' for Inactive)
    5  A    between atoms: CA   and  CB  
    6  A    between atoms: CB   and  CG  
    7  A    between atoms: CG   and  CD  
    8  A    between atoms: CD   and  CE  

$$$$
