ligand_43_pose_4_2HRL.pdbqt
 OpenBabel07062320523D

 49 49  0  0  1  0  0  0  0  0999 V2000
   27.2080   35.3360   11.9560 O   0  0  0  0  0  0  0  0  0  0  0  0
   26.5800   36.3560   11.2670 C   0  0  0  0  0  0  0  0  0  0  0  0
   25.2620   36.0930   10.7660 N   0  0  0  0  0  0  0  0  0  0  0  0
   24.8440   35.1590   10.9420 H   0  0  0  0  0  0  0  0  0  0  0  0
   27.1390   37.4840   11.0800 O   0  0  0  0  0  0  0  0  0  0  0  0
   24.5250   37.0720   10.0420 C   0  0  0  0  0  0  0  0  0  0  0  0
   24.3090   36.7160    8.5690 C   0  0  2  0  0  0  0  0  0  0  0  0
   25.3230   37.5250    7.7990 C   0  0  2  0  0  0  0  0  0  0  0  0
   26.4340   36.7130    7.2180 C   0  0  2  0  0  0  0  0  0  0  0  0
   28.3600   35.7410    8.0720 C   0  0  2  0  0  0  0  0  0  0  0  0
   28.7600   35.6370    6.6150 C   0  0  0  0  0  0  0  0  0  0  0  0
   26.9920   35.9140    8.1800 O   0  0  0  0  0  0  0  0  0  0  0  0
   28.6160   37.0130    6.0080 C   0  0  1  0  0  0  0  0  0  0  0  0
   27.4470   37.7190    6.6560 C   0  0  1  0  0  0  0  0  0  0  0  0
   29.0750   36.7450    8.7190 O   0  0  0  0  0  0  0  0  0  0  0  0
   30.0030   36.4570    8.8700 H   0  0  0  0  0  0  0  0  0  0  0  0
   28.7370   34.4570    8.7150 C   0  0  0  0  0  0  0  0  0  0  0  0
   29.9090   34.0010    8.6710 O   0  0  0  0  0  0  0  0  0  0  0  0
   27.8050   33.6700    9.4120 O   0  0  0  0  0  0  0  0  0  0  0  0
   26.8200   33.8660    9.2560 H   0  0  0  0  0  0  0  0  0  0  0  0
   29.7550   37.7470    6.2830 O   0  0  0  0  0  0  0  0  0  0  0  0
   29.5380   38.7120    6.2850 H   0  0  0  0  0  0  0  0  0  0  0  0
   26.7440   38.5710    5.7130 N   0  0  0  0  0  0  0  0  0  0  0  0
   26.7380   39.9920    5.8010 C   0  0  0  0  0  0  0  0  0  0  0  0
   26.1940   38.1690    4.9030 H   0  0  0  0  0  0  0  0  0  0  0  0
   26.0090   40.8570    4.8250 C   0  0  0  0  0  0  0  0  0  0  0  0
   27.3840   40.5030    6.7570 O   0  0  0  0  0  0  0  0  0  0  0  0
   25.7830   38.5140    8.6840 O   0  0  0  0  0  0  0  0  0  0  0  0
   25.7080   39.4200    8.2930 H   0  0  0  0  0  0  0  0  0  0  0  0
   23.0050   36.9350    8.1790 O   0  0  0  0  0  0  0  0  0  0  0  0
   22.3740   36.2320    8.4090 H   0  0  0  0  0  0  0  0  0  0  0  0
   28.4120   35.5750   12.6360 C   0  0  0  0  0  0  0  0  0  0  0  0
   28.4900   34.5650   13.7420 C   0  0  0  0  0  0  0  0  0  0  0  0
   29.6180   33.8080   14.0180 C   0  0  0  0  0  0  0  0  0  0  0  0
   27.5750   34.1930   14.6370 N   0  0  0  0  0  0  0  0  0  0  0  0
   29.3490   33.0130   15.0600 N   0  0  0  0  0  0  0  0  0  0  0  0
   28.1050   33.2660   15.4150 N   0  0  0  0  0  0  0  0  0  0  0  0
   30.2020   32.0370   15.7250 C   0  0  0  0  0  0  0  0  0  0  0  0
   31.4910   32.6890   16.1480 C   0  0  0  0  0  0  0  0  0  0  0  0
   31.3140   33.4920   17.4120 C   0  0  0  0  0  0  0  0  0  0  0  0
   31.5660   34.9620   17.1970 C   0  0  0  0  0  0  0  0  0  0  0  0
   30.3190   35.7290   17.4130 C   0  0  0  0  0  0  0  0  0  0  0  0
   29.8460   36.5850   16.5350 C   0  0  0  0  0  0  0  0  0  0  0  0
   29.8670   25.5550   16.9770 C   0  0  0  0  0  0  0  0  0  0  0  0
   28.3450   25.7220   17.0260 C   0  0  0  0  0  0  0  0  0  0  0  0
   27.6010   24.4030   16.8870 C   0  0  0  0  0  0  0  0  0  0  0  0
   26.5420   24.2360   17.9410 C   0  0  0  0  0  0  0  0  0  0  0  0
   25.2490   24.8960   17.4720 C   0  0  0  0  0  0  0  0  0  0  0  0
   24.3550   23.8960   16.8410 N   0  0  0  0  0  0  0  0  0  0  0  0
  1 32  1  0  0  0  0
  2  1  1  0  0  0  0
  3  4  1  0  0  0  0
  3  2  1  0  0  0  0
  5  2  2  0  0  0  0
  6  3  1  0  0  0  0
  7  6  1  1  0  0  0
  8  7  1  0  0  0  0
  8 28  1  1  0  0  0
  9  8  1  1  0  0  0
  9 12  1  0  0  0  0
 10 12  1  0  0  0  0
 10 17  1  1  0  0  0
 10 15  1  0  0  0  0
 11 10  1  0  0  0  0
 13 21  1  1  0  0  0
 13 11  1  0  0  0  0
 13 14  1  0  0  0  0
 14 23  1  6  0  0  0
 14  9  1  0  0  0  0
 15 16  1  0  0  0  0
 17 19  1  0  0  0  0
 18 17  2  0  0  0  0
 20 19  1  0  0  0  0
 21 22  1  0  0  0  0
 23 24  1  0  0  0  0
 24 27  2  0  0  0  0
 25 23  1  0  0  0  0
 26 24  1  0  0  0  0
 29 28  1  0  0  0  0
 30 31  1  0  0  0  0
 30  7  1  0  0  0  0
 32 33  1  0  0  0  0
 33 34  2  0  0  0  0
 33 35  1  0  0  0  0
 34 36  1  0  0  0  0
 35 37  2  0  0  0  0
 36 37  1  0  0  0  0
 36 38  1  0  0  0  0
 38 39  1  0  0  0  0
 39 40  1  0  0  0  0
 41 40  1  0  0  0  0
 41 42  1  0  0  0  0
 43 42  2  0  0  0  0
 44 45  1  0  0  0  0
 46 45  1  0  0  0  0
 46 47  1  0  0  0  0
 48 47  1  0  0  0  0
 49 48  1  0  0  0  0
M  END
>  <REMARK>
 VINA RESULT:    -5.040      4.224      7.894
 INTER + INTRA:         -14.686
 INTER:                  -9.700
 INTRA:                  -4.987
 UNBOUND:                -4.785
 SMILES C=CCCCCn1cc(COC(=O)NC[C@@H](O)C(O)[C@@H]2O[C@@](O)(C(=O)O)C[C@H](O)[C@H]2NC(C)=O)nn1
 SMILES IDX 11 1 12 2 14 3 13 5 15 6 16 7 18 8 20 9 22 10 27 11 21 12
 SMILES IDX 28 13 30 14 23 15 24 17 25 18 26 19 29 21 31 23 32 24 33 26
 SMILES IDX 34 27 19 28 17 30 10 32 9 33 8 34 35 35 7 36 36 37 6 38 5 39
 SMILES IDX 4 40 3 41 2 42 1 43
 H PARENT 14 4 23 16 26 20 29 22 31 25 19 29 17 31
 Flexibility Score: inf
  4 active torsions:
  status: ('A' for Active; 'I' for Inactive)
    1  A    between atoms: CA   and  CB  
    2  A    between atoms: CB   and  CG  
    3  A    between atoms: CG   and  CD  
    4  A    between atoms: CD   and  CE  

>  <TORSDO>
F 19

>  <BEGIN_>
RES LYS A 131

$$$$
ligand_43_pose_4_2HRL.pdbqt
 OpenBabel07062320523D

  6  5  0  0  0  0  0  0  0  0999 V2000
   33.1930   34.6630    9.2900 C   0  0  0  0  0  0  0  0  0  0  0  0
   32.0600   35.3600   10.0340 C   0  0  0  0  0  0  0  0  0  0  0  0
   32.5360   36.3300   11.0850 C   0  0  0  0  0  0  0  0  0  0  0  0
   32.2680   35.7850   12.4790 C   0  0  0  0  0  0  0  0  0  0  0  0
   31.8890   36.9070   13.4260 C   0  0  0  0  0  0  0  0  0  0  0  0
   31.1760   37.9990   12.7060 N   0  0  0  0  0  0  0  0  0  0  0  0
  1  2  1  0  0  0  0
  2  3  1  0  0  0  0
  3  4  1  0  0  0  0
  4  5  1  0  0  0  0
  6  5  1  0  0  0  0
M  END
>  <EGIN_R>
ES LYS A 135

>  <REMARK>
  4 active torsions:
  status: ('A' for Active; 'I' for Inactive)
    5  A    between atoms: CA   and  CB  
    6  A    between atoms: CB   and  CG  
    7  A    between atoms: CG   and  CD  
    8  A    between atoms: CD   and  CE  

$$$$
