ligand_8_pose_10_2HRL.pdbqt
 OpenBabel07062320523D

 50 51  0  0  1  0  0  0  0  0999 V2000
   27.8070   37.0420   15.2420 C   0  0  0  0  0  0  0  0  0  0  0  0
   28.6950   35.9060   15.6790 C   0  0  2  0  0  0  0  0  0  0  0  0
   28.3070   34.6890   14.9000 C   0  0  1  0  0  0  0  0  0  0  0  0
   29.4460   33.7960   14.4670 C   0  0  2  0  0  0  0  0  0  0  0  0
   29.7030   32.0680   16.0310 C   0  0  2  0  0  0  0  0  0  0  0  0
   31.1830   31.9240   15.6720 C   0  0  0  0  0  0  0  0  0  0  0  0
   29.1010   32.5240   14.9080 O   0  0  0  0  0  0  0  0  0  0  0  0
   31.7010   33.3280   15.5450 C   0  0  1  0  0  0  0  0  0  0  0  0
   30.7960   34.2680   14.7920 C   0  0  1  0  0  0  0  0  0  0  0  0
   29.6390   32.8640   17.1470 O   0  0  0  0  0  0  0  0  0  0  0  0
   30.4030   33.4920   17.1130 H   0  0  0  0  0  0  0  0  0  0  0  0
   29.1570   30.7270   16.3780 C   0  0  0  0  0  0  0  0  0  0  0  0
   28.7600   29.9740   15.4550 O   0  0  0  0  0  0  0  0  0  0  0  0
   29.0780   30.2920   17.6960 O   0  0  0  0  0  0  0  0  0  0  0  0
   28.7310   29.3730   17.9590 H   0  0  0  0  0  0  0  0  0  0  0  0
   31.8870   33.8000   16.8450 O   0  0  0  0  0  0  0  0  0  0  0  0
   32.5460   33.2720   17.3290 H   0  0  0  0  0  0  0  0  0  0  0  0
   31.4710   34.6430   13.5310 N   0  0  0  0  0  0  0  0  0  0  0  0
   31.9900   35.9410   13.3330 C   0  0  0  0  0  0  0  0  0  0  0  0
   31.5750   33.9330   12.7510 H   0  0  0  0  0  0  0  0  0  0  0  0
   32.6680   36.3320   12.0510 C   0  0  0  0  0  0  0  0  0  0  0  0
   31.8710   36.7760   14.2650 O   0  0  0  0  0  0  0  0  0  0  0  0
   27.2540   34.0440   15.4970 O   0  0  0  0  0  0  0  0  0  0  0  0
   26.6750   33.5540   14.8390 H   0  0  0  0  0  0  0  0  0  0  0  0
   28.5610   35.6910   17.0270 O   0  0  0  0  0  0  0  0  0  0  0  0
   28.1160   36.4480   17.4970 H   0  0  0  0  0  0  0  0  0  0  0  0
   26.6980   36.7080   14.4150 N   0  0  0  0  0  0  0  0  0  0  0  0
   26.0880   37.5970   13.5030 C   0  0  0  0  0  0  0  0  0  0  0  0
   26.2680   35.7250   14.4620 H   0  0  0  0  0  0  0  0  0  0  0  0
   26.4610   38.7820   13.3390 O   0  0  0  0  0  0  0  0  0  0  0  0
   25.0080   37.1320   12.7370 O   0  0  0  0  0  0  0  0  0  0  0  0
   24.3770   38.0560   11.8800 C   0  0  0  0  0  0  0  0  0  0  0  0
   24.5390   37.5720   10.4870 C   0  0  0  0  0  0  0  0  0  0  0  0
   25.7520   37.5700    9.7860 C   0  0  0  0  0  0  0  0  0  0  0  0
   23.6620   37.0660    9.6130 N   0  0  0  0  0  0  0  0  0  0  0  0
   25.5650   37.0760    8.5500 N   0  0  0  0  0  0  0  0  0  0  0  0
   24.2800   36.7770    8.4720 N   0  0  0  0  0  0  0  0  0  0  0  0
   26.5650   36.9160    7.5440 C   0  0  0  0  0  0  0  0  0  0  0  0
   26.8390   37.9090    6.6300 C   0  0  0  0  0  0  0  0  0  0  0  0
   27.3010   35.7540    7.4500 C   0  0  0  0  0  0  0  0  0  0  0  0
   27.8210   37.7360    5.6520 C   0  0  0  0  0  0  0  0  0  0  0  0
   28.2770   35.5780    6.4820 C   0  0  0  0  0  0  0  0  0  0  0  0
   26.9280   34.3630    8.7190 Br  0  0  0  0  0  0  0  0  0  0  0  0
   28.5530   36.5710    5.5650 C   0  0  0  0  0  0  0  0  0  0  0  0
   29.8670   25.5550   16.9770 C   0  0  0  0  0  0  0  0  0  0  0  0
   28.3450   25.7220   17.0260 C   0  0  0  0  0  0  0  0  0  0  0  0
   27.6010   24.4030   16.8860 C   0  0  0  0  0  0  0  0  0  0  0  0
   26.1930   24.4890   17.4070 C   0  0  0  0  0  0  0  0  0  0  0  0
   26.1500   25.4310   18.6060 C   0  0  0  0  0  0  0  0  0  0  0  0
   25.4780   24.7780   19.7540 N   0  0  0  0  0  0  0  0  0  0  0  0
  2  1  1  6  0  0  0
  2 25  1  0  0  0  0
  3 23  1  1  0  0  0
  3  2  1  0  0  0  0
  4  9  1  0  0  0  0
  4  3  1  1  0  0  0
  4  7  1  0  0  0  0
  5 12  1  1  0  0  0
  5 10  1  0  0  0  0
  6  5  1  0  0  0  0
  7  5  1  0  0  0  0
  8  6  1  0  0  0  0
  8 16  1  1  0  0  0
  9 18  1  6  0  0  0
  9  8  1  0  0  0  0
 11 10  1  0  0  0  0
 12 14  1  0  0  0  0
 13 12  2  0  0  0  0
 14 15  1  0  0  0  0
 16 17  1  0  0  0  0
 19 18  1  0  0  0  0
 19 22  2  0  0  0  0
 20 18  1  0  0  0  0
 21 19  1  0  0  0  0
 24 23  1  0  0  0  0
 25 26  1  0  0  0  0
 27 29  1  0  0  0  0
 27  1  1  0  0  0  0
 28 27  1  0  0  0  0
 30 28  2  0  0  0  0
 31 28  1  0  0  0  0
 32 31  1  0  0  0  0
 33 32  1  0  0  0  0
 34 33  2  0  0  0  0
 35 33  1  0  0  0  0
 36 34  1  0  0  0  0
 37 36  1  0  0  0  0
 37 35  2  0  0  0  0
 38 36  1  0  0  0  0
 39 38  2  0  0  0  0
 40 38  1  0  0  0  0
 40 43  1  0  0  0  0
 41 39  1  0  0  0  0
 42 40  2  0  0  0  0
 44 41  2  0  0  0  0
 44 42  1  0  0  0  0
 45 46  1  0  0  0  0
 47 46  1  0  0  0  0
 47 48  1  0  0  0  0
 48 49  1  0  0  0  0
 49 50  1  0  0  0  0
M  END
>  <REMARK>
 VINA RESULT:    -5.545      3.884      8.346
 INTER + INTRA:         -13.992
 INTER:                  -9.968
 INTRA:                  -4.024
 UNBOUND:                -4.396
 SMILES CC(=O)N[C@@H]1[C@@H](O)C[C@](O)(C(=O)O)O[C@H]1C(O)[C@H](O)CNC(=O)OCc1cn(-c2ccccc2Br)nn1
 SMILES IDX 20 1 18 2 16 3 15 4 9 5 8 6 14 7 6 8 5 9 10 10 11 12 12 13
 SMILES IDX 13 14 7 16 4 18 2 19 1 21 3 22 17 23 19 25 21 27 22 28 23 30
 SMILES IDX 24 31 25 32 26 33 27 34 37 35 28 36 36 37 29 38 30 39 34 40
 SMILES IDX 31 41 33 42 35 43 32 44
 H PARENT 10 11 13 15 7 17 4 20 17 24 19 26 21 29
 Flexibility Score: inf
  4 active torsions:
  status: ('A' for Active; 'I' for Inactive)
    1  A    between atoms: CA   and  CB  
    2  A    between atoms: CB   and  CG  
    3  A    between atoms: CG   and  CD  
    4  A    between atoms: CD   and  CE  

>  <TORSDO>
F 15

>  <BEGIN_>
RES LYS A 131

$$$$
ligand_8_pose_10_2HRL.pdbqt
 OpenBabel07062320523D

  6  5  0  0  0  0  0  0  0  0999 V2000
   33.1930   34.6630    9.2900 C   0  0  0  0  0  0  0  0  0  0  0  0
   32.0600   35.3600   10.0340 C   0  0  0  0  0  0  0  0  0  0  0  0
   30.7680   35.4030    9.2600 C   0  0  0  0  0  0  0  0  0  0  0  0
   29.9910   36.6700    9.5830 C   0  0  0  0  0  0  0  0  0  0  0  0
   30.4330   37.8090    8.6840 C   0  0  0  0  0  0  0  0  0  0  0  0
   29.4730   38.9460    8.7480 N   0  0  0  0  0  0  0  0  0  0  0  0
  1  2  1  0  0  0  0
  3  4  1  0  0  0  0
  3  2  1  0  0  0  0
  5  6  1  0  0  0  0
  5  4  1  0  0  0  0
M  END
>  <EGIN_R>
ES LYS A 135

>  <REMARK>
  4 active torsions:
  status: ('A' for Active; 'I' for Inactive)
    5  A    between atoms: CA   and  CB  
    6  A    between atoms: CB   and  CG  
    7  A    between atoms: CG   and  CD  
    8  A    between atoms: CD   and  CE  

$$$$
