ligand_36_pose_4_2HRL.pdbqt
 OpenBabel07062320523D

 52 53  0  0  1  0  0  0  0  0999 V2000
   25.4280   34.2680   12.0500 N   0  0  0  0  0  0  0  0  0  0  0  0
   26.4350   35.2590   12.2450 C   0  0  0  0  0  0  0  0  0  0  0  0
   26.0850   36.4400   12.5920 O   0  0  0  0  0  0  0  0  0  0  0  0
   25.7370   33.3180   11.7730 H   0  0  0  0  0  0  0  0  0  0  0  0
   24.0660   34.6090   12.2400 C   0  0  0  0  0  0  0  0  0  0  0  0
   23.2580   34.8640   10.9910 C   0  0  2  0  0  0  0  0  0  0  0  0
   23.2690   36.3170   10.5590 C   0  0  2  0  0  0  0  0  0  0  0  0
   22.0030   36.7320    9.8900 C   0  0  2  0  0  0  0  0  0  0  0  0
   20.5730   36.1210    8.1570 C   0  0  2  0  0  0  0  0  0  0  0  0
   19.7600   37.2810    8.6870 C   0  0  0  0  0  0  0  0  0  0  0  0
   21.5910   35.7480    8.9820 O   0  0  0  0  0  0  0  0  0  0  0  0
   20.5830   38.4840    8.9860 C   0  0  1  0  0  0  0  0  0  0  0  0
   22.0440   38.0250    9.1370 C   0  0  1  0  0  0  0  0  0  0  0  0
   21.0250   36.4540    6.8620 O   0  0  0  0  0  0  0  0  0  0  0  0
   21.8380   37.0300    6.9690 H   0  0  0  0  0  0  0  0  0  0  0  0
   19.6440   34.9800    8.0150 C   0  0  0  0  0  0  0  0  0  0  0  0
   19.2050   34.4130    9.0410 O   0  0  0  0  0  0  0  0  0  0  0  0
   19.2620   34.5420    6.7690 O   0  0  0  0  0  0  0  0  0  0  0  0
   19.2070   35.1150    5.9460 H   0  0  0  0  0  0  0  0  0  0  0  0
   20.4770   39.4940    8.0500 O   0  0  0  0  0  0  0  0  0  0  0  0
   21.2460   39.3810    7.4110 H   0  0  0  0  0  0  0  0  0  0  0  0
   22.8410   39.0640    9.7100 N   0  0  0  0  0  0  0  0  0  0  0  0
   23.6070   39.9560    8.8830 C   0  0  0  0  0  0  0  0  0  0  0  0
   22.8960   39.2290   10.7550 H   0  0  0  0  0  0  0  0  0  0  0  0
   24.4360   41.0390    9.4920 C   0  0  0  0  0  0  0  0  0  0  0  0
   23.5960   39.8450    7.6340 O   0  0  0  0  0  0  0  0  0  0  0  0
   24.4120   36.6100    9.8900 O   0  0  0  0  0  0  0  0  0  0  0  0
   24.4080   37.4050    9.3560 H   0  0  0  0  0  0  0  0  0  0  0  0
   21.9360   34.5020   11.3550 O   0  0  0  0  0  0  0  0  0  0  0  0
   21.3400   35.2730   11.3830 H   0  0  0  0  0  0  0  0  0  0  0  0
   27.7920   35.0410   12.0860 O   0  0  0  0  0  0  0  0  0  0  0  0
   28.6630   36.1500   12.0760 C   0  0  0  0  0  0  0  0  0  0  0  0
   29.7960   35.9750   13.0150 C   0  0  0  0  0  0  0  0  0  0  0  0
   30.3790   34.7920   13.4420 C   0  0  0  0  0  0  0  0  0  0  0  0
   30.4680   36.9620   13.6210 N   0  0  0  0  0  0  0  0  0  0  0  0
   31.3730   35.0970   14.2810 N   0  0  0  0  0  0  0  0  0  0  0  0
   31.4000   36.4100   14.3680 N   0  0  0  0  0  0  0  0  0  0  0  0
   32.2590   34.1800   14.9640 C   0  0  0  0  0  0  0  0  0  0  0  0
   31.5930   33.3330   15.9540 C   0  0  0  0  0  0  0  0  0  0  0  0
   31.4470   33.7700   17.2450 C   0  0  0  0  0  0  0  0  0  0  0  0
   31.1130   32.0860   15.5850 C   0  0  0  0  0  0  0  0  0  0  0  0
   30.8240   32.9800   18.1920 C   0  0  0  0  0  0  0  0  0  0  0  0
   30.4840   31.2720   16.5170 C   0  0  0  0  0  0  0  0  0  0  0  0
   30.3470   31.7390   17.8260 C   0  0  0  0  0  0  0  0  0  0  0  0
   29.7020   30.9090   18.8010 C   0  0  0  0  0  0  0  0  0  0  0  0
   29.1690   30.2460   19.6060 N   0  0  0  0  0  0  0  0  0  0  0  0
   29.8670   25.5550   16.9770 C   0  0  0  0  0  0  0  0  0  0  0  0
   28.3450   25.7220   17.0260 C   0  0  0  0  0  0  0  0  0  0  0  0
   27.6020   24.3990   16.9220 C   0  0  0  0  0  0  0  0  0  0  0  0
   26.6410   24.1980   18.0610 C   0  0  0  0  0  0  0  0  0  0  0  0
   25.8700   25.4910   18.3100 C   0  0  0  0  0  0  0  0  0  0  0  0
   25.8980   25.8420   19.7500 N   0  0  0  0  0  0  0  0  0  0  0  0
  1  5  1  0  0  0  0
  1  2  1  0  0  0  0
  2  3  2  0  0  0  0
  4  1  1  0  0  0  0
  6 29  1  0  0  0  0
  6  5  1  1  0  0  0
  7 27  1  6  0  0  0
  7  6  1  0  0  0  0
  8  7  1  6  0  0  0
  9 14  1  6  0  0  0
  9 10  1  0  0  0  0
  9 11  1  0  0  0  0
 10 12  1  0  0  0  0
 11  8  1  0  0  0  0
 12 20  1  6  0  0  0
 12 13  1  0  0  0  0
 13 22  1  1  0  0  0
 13  8  1  0  0  0  0
 14 15  1  0  0  0  0
 16  9  1  0  0  0  0
 16 17  2  0  0  0  0
 18 16  1  0  0  0  0
 19 18  1  0  0  0  0
 21 20  1  0  0  0  0
 22 24  1  0  0  0  0
 23 25  1  0  0  0  0
 23 22  1  0  0  0  0
 26 23  2  0  0  0  0
 28 27  1  0  0  0  0
 29 30  1  0  0  0  0
 31  2  1  0  0  0  0
 32 31  1  0  0  0  0
 32 33  1  0  0  0  0
 33 34  2  0  0  0  0
 33 35  1  0  0  0  0
 34 36  1  0  0  0  0
 35 37  2  0  0  0  0
 36 37  1  0  0  0  0
 36 38  1  0  0  0  0
 38 39  1  0  0  0  0
 39 40  1  0  0  0  0
 40 42  2  0  0  0  0
 41 39  2  0  0  0  0
 41 43  1  0  0  0  0
 43 44  2  0  0  0  0
 44 42  1  0  0  0  0
 44 45  1  0  0  0  0
 45 46  3  0  0  0  0
 47 48  1  0  0  0  0
 49 48  1  0  0  0  0
 49 50  1  0  0  0  0
 50 51  1  0  0  0  0
 51 52  1  0  0  0  0
M  END
>  <REMARK>
 VINA RESULT:    -4.403      6.252     11.879
 INTER + INTRA:         -15.116
 INTER:                 -10.161
 INTRA:                  -4.955
 UNBOUND:                -6.980
 SMILES CC(=O)N[C@@H]1[C@@H](O)C[C@](O)(C(=O)O)O[C@H]1C(O)[C@H](O)CNC(=O)OCc1cn(Cc2ccc(C#N)cc2)nn1
 SMILES IDX 21 1 22 2 23 3 20 5 18 6 16 7 15 8 9 9 8 10 14 11 6 12 5 13
 SMILES IDX 10 14 11 16 12 17 13 18 7 20 4 22 2 23 1 25 3 26 17 27 19 29
 SMILES IDX 24 31 25 32 26 33 27 34 39 35 28 36 38 37 29 38 30 39 31 40
 SMILES IDX 37 41 32 42 36 43 33 44 34 45 35 46
 H PARENT 21 4 10 15 13 19 7 21 4 24 17 28 19 30
 Flexibility Score: inf
  4 active torsions:
  status: ('A' for Active; 'I' for Inactive)
    1  A    between atoms: CA   and  CB  
    2  A    between atoms: CB   and  CG  
    3  A    between atoms: CG   and  CD  
    4  A    between atoms: CD   and  CE  

>  <TORSDO>
F 17

>  <BEGIN_>
RES LYS A 131

$$$$
ligand_36_pose_4_2HRL.pdbqt
 OpenBabel07062320523D

  6  5  0  0  0  0  0  0  0  0999 V2000
   33.1930   34.6630    9.2900 C   0  0  0  0  0  0  0  0  0  0  0  0
   32.0600   35.3600   10.0340 C   0  0  0  0  0  0  0  0  0  0  0  0
   30.9020   35.7400    9.1480 C   0  0  0  0  0  0  0  0  0  0  0  0
   30.3880   34.5280    8.3870 C   0  0  0  0  0  0  0  0  0  0  0  0
   28.9470   34.7370    7.9620 C   0  0  0  0  0  0  0  0  0  0  0  0
   28.0060   34.1150    8.9330 N   0  0  0  0  0  0  0  0  0  0  0  0
  1  2  1  0  0  0  0
  3  2  1  0  0  0  0
  4  3  1  0  0  0  0
  5  4  1  0  0  0  0
  5  6  1  0  0  0  0
M  END
>  <EGIN_R>
ES LYS A 135

>  <REMARK>
  4 active torsions:
  status: ('A' for Active; 'I' for Inactive)
    5  A    between atoms: CA   and  CB  
    6  A    between atoms: CB   and  CG  
    7  A    between atoms: CG   and  CD  
    8  A    between atoms: CD   and  CE  

$$$$
