ligand_81_pose_5_2HRL.pdbqt
 OpenBabel07062320523D

 63 65  0  0  1  0  0  0  0  0999 V2000
   33.7890   30.8900   21.7720 O   0  0  0  0  0  0  0  0  0  0  0  0
   33.5410   29.6210   22.2460 C   0  0  0  0  0  0  0  0  0  0  0  0
   32.5890   28.7450   21.6040 N   0  0  0  0  0  0  0  0  0  0  0  0
   32.1190   29.1560   20.7730 H   0  0  0  0  0  0  0  0  0  0  0  0
   34.1680   29.2350   23.2630 O   0  0  0  0  0  0  0  0  0  0  0  0
   32.3680   27.4240   22.1440 C   0  0  0  0  0  0  0  0  0  0  0  0
   30.8830   27.2930   22.4530 C   0  0  2  0  0  0  0  0  0  0  0  0
   30.1460   27.7520   21.2180 C   0  0  2  0  0  0  0  0  0  0  0  0
   28.7470   27.2320   21.0870 C   0  0  2  0  0  0  0  0  0  0  0  0
   28.0820   28.7810   19.4590 C   0  0  2  0  0  0  0  0  0  0  0  0
   27.4620   29.5840   20.5910 C   0  0  0  0  0  0  0  0  0  0  0  0
   28.3230   27.4820   19.8030 O   0  0  0  0  0  0  0  0  0  0  0  0
   26.7570   28.6200   21.5230 C   0  0  1  0  0  0  0  0  0  0  0  0
   27.7830   27.6480   22.1370 C   0  0  1  0  0  0  0  0  0  0  0  0
   29.2410   29.4760   19.0930 O   0  0  0  0  0  0  0  0  0  0  0  0
   29.0400   30.2890   18.5800 H   0  0  0  0  0  0  0  0  0  0  0  0
   27.1870   28.7700   18.2830 C   0  0  0  0  0  0  0  0  0  0  0  0
   26.1950   29.5230   18.2610 O   0  0  0  0  0  0  0  0  0  0  0  0
   27.4450   27.9400   17.2240 O   0  0  0  0  0  0  0  0  0  0  0  0
   26.7640   27.3300   16.7890 H   0  0  0  0  0  0  0  0  0  0  0  0
   26.0600   29.2930   22.5000 O   0  0  0  0  0  0  0  0  0  0  0  0
   25.5690   30.0580   22.1310 H   0  0  0  0  0  0  0  0  0  0  0  0
   26.9720   26.5260   22.6310 N   0  0  0  0  0  0  0  0  0  0  0  0
   27.2200   25.9990   23.9200 C   0  0  0  0  0  0  0  0  0  0  0  0
   26.2140   26.1100   22.0480 H   0  0  0  0  0  0  0  0  0  0  0  0
   26.4340   24.8590   24.4860 C   0  0  0  0  0  0  0  0  0  0  0  0
   28.1450   26.5280   24.5980 O   0  0  0  0  0  0  0  0  0  0  0  0
   30.8630   27.0990   20.1620 O   0  0  0  0  0  0  0  0  0  0  0  0
   30.2650   26.4960   19.6790 H   0  0  0  0  0  0  0  0  0  0  0  0
   30.6510   28.0720   23.5750 O   0  0  0  0  0  0  0  0  0  0  0  0
   29.7040   28.3070   23.6730 H   0  0  0  0  0  0  0  0  0  0  0  0
   33.0800   32.0550   22.1320 C   0  0  0  0  0  0  0  0  0  0  0  0
   31.9540   32.2760   21.1710 C   0  0  0  0  0  0  0  0  0  0  0  0
   31.7000   33.3860   20.4040 C   0  0  0  0  0  0  0  0  0  0  0  0
   30.9610   31.4070   20.8810 N   0  0  0  0  0  0  0  0  0  0  0  0
   30.5680   33.1860   19.6620 N   0  0  0  0  0  0  0  0  0  0  0  0
   30.1620   31.9670   19.9920 N   0  0  0  0  0  0  0  0  0  0  0  0
   29.9720   34.1040   18.7630 C   0  0  0  0  0  0  0  0  0  0  0  0
   28.9630   34.8990   19.1470 N   0  0  0  0  0  0  0  0  0  0  0  0
   30.4050   34.1860   17.4340 C   0  0  0  0  0  0  0  0  0  0  0  0
   28.3710   35.7610   18.2820 C   0  0  0  0  0  0  0  0  0  0  0  0
   29.8090   35.0510   16.5610 C   0  0  0  0  0  0  0  0  0  0  0  0
   28.7720   35.8480   17.0090 N   0  0  0  0  0  0  0  0  0  0  0  0
   31.4940   33.2910   16.9950 C   0  0  0  0  0  0  0  0  0  0  0  0
   31.0660   32.1540   16.1100 C   0  0  0  0  0  0  0  0  0  0  0  0
   30.1770   31.3130   16.7200 O   0  0  0  0  0  0  0  0  0  0  0  0
   29.1330   30.9150   15.9190 C   0  0  0  0  0  0  0  0  0  0  0  0
   27.9130   31.7920   16.1060 C   0  0  0  0  0  0  0  0  0  0  0  0
   27.3110   36.5810   18.7300 N   0  0  0  0  0  0  0  0  0  0  0  0
   26.8910   36.4260   19.6640 H   0  0  0  0  0  0  0  0  0  0  0  0
   26.9270   37.3490   18.1490 H   0  0  0  0  0  0  0  0  0  0  0  0
   30.1340   35.1000   15.1490 C   0  0  0  0  0  0  0  0  0  0  0  0
   29.4860   34.5290   14.1150 C   0  0  0  0  0  0  0  0  0  0  0  0
   31.2730   35.8700   14.8240 C   0  0  0  0  0  0  0  0  0  0  0  0
   29.9320   34.7030   12.7920 C   0  0  0  0  0  0  0  0  0  0  0  0
   31.7180   36.0460   13.5440 C   0  0  0  0  0  0  0  0  0  0  0  0
   31.0420   35.4550   12.4900 C   0  0  0  0  0  0  0  0  0  0  0  0
   29.8670   25.5550   16.9770 C   0  0  0  0  0  0  0  0  0  0  0  0
   28.3450   25.7220   17.0260 C   0  0  0  0  0  0  0  0  0  0  0  0
   27.6010   24.4000   16.9080 C   0  0  0  0  0  0  0  0  0  0  0  0
   26.5400   24.2510   17.9620 C   0  0  0  0  0  0  0  0  0  0  0  0
   25.1660   24.4600   17.3350 C   0  0  0  0  0  0  0  0  0  0  0  0
   24.6710   25.8290   17.6140 N   0  0  0  0  0  0  0  0  0  0  0  0
  1 32  1  0  0  0  0
  1  2  1  0  0  0  0
  2  5  2  0  0  0  0
  3  6  1  0  0  0  0
  3  2  1  0  0  0  0
  4  3  1  0  0  0  0
  7  6  1  6  0  0  0
  7 30  1  0  0  0  0
  8 28  1  6  0  0  0
  8  7  1  0  0  0  0
  9  8  1  1  0  0  0
  9 14  1  0  0  0  0
 10 17  1  6  0  0  0
 10 12  1  0  0  0  0
 10 11  1  0  0  0  0
 11 13  1  0  0  0  0
 12  9  1  0  0  0  0
 13 14  1  0  0  0  0
 13 21  1  1  0  0  0
 14 23  1  6  0  0  0
 15 10  1  0  0  0  0
 16 15  1  0  0  0  0
 18 17  2  0  0  0  0
 19 17  1  0  0  0  0
 20 19  1  0  0  0  0
 22 21  1  0  0  0  0
 23 24  1  0  0  0  0
 24 26  1  0  0  0  0
 24 27  2  0  0  0  0
 25 23  1  0  0  0  0
 29 28  1  0  0  0  0
 30 31  1  0  0  0  0
 33 32  1  0  0  0  0
 34 33  2  0  0  0  0
 35 33  1  0  0  0  0
 36 37  1  0  0  0  0
 36 34  1  0  0  0  0
 37 35  2  0  0  0  0
 38 39  1  0  0  0  0
 38 36  1  0  0  0  0
 40 38  2  0  0  0  0
 41 49  1  0  0  0  0
 41 39  2  0  0  0  0
 42 43  2  0  0  0  0
 42 40  1  0  0  0  0
 43 41  1  0  0  0  0
 44 40  1  0  0  0  0
 45 46  1  0  0  0  0
 45 44  1  0  0  0  0
 47 48  1  0  0  0  0
 47 46  1  0  0  0  0
 49 50  1  0  0  0  0
 51 49  1  0  0  0  0
 52 42  1  0  0  0  0
 53 52  2  0  0  0  0
 54 52  1  0  0  0  0
 55 53  1  0  0  0  0
 56 54  2  0  0  0  0
 57 55  2  0  0  0  0
 57 56  1  0  0  0  0
 58 59  1  0  0  0  0
 60 59  1  0  0  0  0
 60 61  1  0  0  0  0
 62 63  1  0  0  0  0
 62 61  1  0  0  0  0
M  END
>  <REMARK>
 VINA RESULT:    -4.775      6.836     11.814
 INTER + INTRA:         -16.970
 INTER:                  -9.384
 INTRA:                  -7.587
 UNBOUND:                -7.171
 SMILES CCOCCc1c(-c2ccccc2)nc(N)nc1-n1cc(COC(=O)NC[C@@H](O)C(O)[C@@H]2O[C@@](O)(C(=O)O)C[C@H](O)[C@H]2NC(C)=O)nn1
 SMILES IDX 23 1 24 2 26 3 25 5 27 6 28 7 30 8 32 9 34 10 39 11 33 12
 SMILES IDX 40 13 42 14 35 15 36 17 37 18 38 19 41 21 43 23 44 24 45 26
 SMILES IDX 46 27 31 28 29 30 22 32 21 33 20 34 47 35 19 36 48 37 18 38
 SMILES IDX 17 39 6 40 15 41 7 42 14 43 5 44 4 45 3 46 2 47 1 48 16 49
 SMILES IDX 8 52 9 53 13 54 10 55 12 56 11 57
 H PARENT 26 4 35 16 38 20 41 22 43 25 31 29 29 31 16 50 16 51
 Flexibility Score: inf
  4 active torsions:
  status: ('A' for Active; 'I' for Inactive)
    1  A    between atoms: CA   and  CB  
    2  A    between atoms: CB   and  CG  
    3  A    between atoms: CG   and  CD  
    4  A    between atoms: CD   and  CE  

>  <TORSDO>
F 21

>  <BEGIN_>
RES LYS A 131

$$$$
ligand_81_pose_5_2HRL.pdbqt
 OpenBabel07062320523D

  6  5  0  0  0  0  0  0  0  0999 V2000
   33.1930   34.6630    9.2900 C   0  0  0  0  0  0  0  0  0  0  0  0
   32.0600   35.3600   10.0340 C   0  0  0  0  0  0  0  0  0  0  0  0
   30.8070   35.5190    9.2120 C   0  0  0  0  0  0  0  0  0  0  0  0
   30.1420   34.1710    8.9810 C   0  0  0  0  0  0  0  0  0  0  0  0
   28.6730   34.3510    8.6520 C   0  0  0  0  0  0  0  0  0  0  0  0
   27.8110   33.6500    9.6440 N   0  0  0  0  0  0  0  0  0  0  0  0
  1  2  1  0  0  0  0
  3  2  1  0  0  0  0
  4  3  1  0  0  0  0
  5  4  1  0  0  0  0
  5  6  1  0  0  0  0
M  END
>  <EGIN_R>
ES LYS A 135

>  <REMARK>
  4 active torsions:
  status: ('A' for Active; 'I' for Inactive)
    5  A    between atoms: CA   and  CB  
    6  A    between atoms: CB   and  CG  
    7  A    between atoms: CG   and  CD  
    8  A    between atoms: CD   and  CE  

$$$$
