ligand_57_pose_4_2HRL.pdbqt
 OpenBabel07062320523D

 50 51  0  0  1  0  0  0  0  0999 V2000
   27.4810   30.1370   16.8170 C   0  0  0  0  0  0  0  0  0  0  0  0
   28.6720   30.9230   16.3800 C   0  0  2  0  0  0  0  0  0  0  0  0
   29.4580   31.4840   17.5460 C   0  0  2  0  0  0  0  0  0  0  0  0
   30.0970   32.7970   17.1440 C   0  0  2  0  0  0  0  0  0  0  0  0
   31.5040   33.8100   15.5790 C   0  0  2  0  0  0  0  0  0  0  0  0
   32.2390   34.5280   16.6690 C   0  0  0  0  0  0  0  0  0  0  0  0
   30.7700   32.7280   15.9650 O   0  0  0  0  0  0  0  0  0  0  0  0
   31.3790   34.7050   17.8920 C   0  0  1  0  0  0  0  0  0  0  0  0
   30.8970   33.3150   18.2970 C   0  0  1  0  0  0  0  0  0  0  0  0
   32.4600   33.4480   14.5890 O   0  0  0  0  0  0  0  0  0  0  0  0
   32.0660   33.4900   13.6830 H   0  0  0  0  0  0  0  0  0  0  0  0
   30.5710   34.7720   14.9390 C   0  0  0  0  0  0  0  0  0  0  0  0
   29.5670   34.3470   14.3130 O   0  0  0  0  0  0  0  0  0  0  0  0
   30.7200   36.1500   14.9760 O   0  0  0  0  0  0  0  0  0  0  0  0
   31.4020   36.6130   15.5760 H   0  0  0  0  0  0  0  0  0  0  0  0
   32.0960   35.2720   18.9490 O   0  0  0  0  0  0  0  0  0  0  0  0
   32.7960   35.8900   18.6400 H   0  0  0  0  0  0  0  0  0  0  0  0
   30.0170   33.5490   19.4490 N   0  0  0  0  0  0  0  0  0  0  0  0
   30.4300   33.2950   20.7730 C   0  0  0  0  0  0  0  0  0  0  0  0
   29.0770   33.9110   19.2430 H   0  0  0  0  0  0  0  0  0  0  0  0
   29.5160   33.5410   21.9420 C   0  0  0  0  0  0  0  0  0  0  0  0
   31.5920   32.8530   20.9630 O   0  0  0  0  0  0  0  0  0  0  0  0
   30.3800   30.5470   17.9510 O   0  0  0  0  0  0  0  0  0  0  0  0
   30.0140   29.9880   18.6830 H   0  0  0  0  0  0  0  0  0  0  0  0
   28.2150   32.0180   15.6100 O   0  0  0  0  0  0  0  0  0  0  0  0
   27.6850   32.6450   16.1690 H   0  0  0  0  0  0  0  0  0  0  0  0
   27.9130   29.1200   17.7510 N   0  0  0  0  0  0  0  0  0  0  0  0
   27.0960   28.0540   18.2130 C   0  0  0  0  0  0  0  0  0  0  0  0
   28.8980   29.1160   18.1550 H   0  0  0  0  0  0  0  0  0  0  0  0
   25.9290   27.9640   17.8030 O   0  0  0  0  0  0  0  0  0  0  0  0
   27.5560   27.1020   19.1130 O   0  0  0  0  0  0  0  0  0  0  0  0
   27.7110   27.4200   20.4820 C   0  0  0  0  0  0  0  0  0  0  0  0
   29.0060   28.1070   20.7190 C   0  0  0  0  0  0  0  0  0  0  0  0
   30.1940   27.5630   21.1160 C   0  0  0  0  0  0  0  0  0  0  0  0
   29.2370   29.4250   20.5800 N   0  0  0  0  0  0  0  0  0  0  0  0
   31.1120   28.5390   21.2120 N   0  0  0  0  0  0  0  0  0  0  0  0
   30.4870   29.6700   20.8740 N   0  0  0  0  0  0  0  0  0  0  0  0
   32.4940   28.3740   21.6030 C   0  0  0  0  0  0  0  0  0  0  0  0
   32.6310   27.4160   22.7650 C   0  0  0  0  0  0  0  0  0  0  0  0
   33.1520   29.6950   21.8680 C   0  0  0  0  0  0  0  0  0  0  0  0
   32.4110   28.0890   24.0990 C   0  0  0  0  0  0  0  0  0  0  0  0
   32.8310   30.2790   23.2080 C   0  0  0  0  0  0  0  0  0  0  0  0
   33.1320   29.3200   24.2270 N   0  0  0  0  0  0  0  0  0  0  0  0
   34.5520   29.1380   24.3220 C   0  0  0  0  0  0  0  0  0  0  0  0
   29.8670   25.5550   16.9770 C   0  0  0  0  0  0  0  0  0  0  0  0
   28.3450   25.7220   17.0260 C   0  0  0  0  0  0  0  0  0  0  0  0
   27.6010   24.4030   16.8820 C   0  0  0  0  0  0  0  0  0  0  0  0
   26.1460   24.5320   17.2390 C   0  0  0  0  0  0  0  0  0  0  0  0
   25.9190   23.9980   18.6500 C   0  0  0  0  0  0  0  0  0  0  0  0
   25.0840   22.7740   18.6140 N   0  0  0  0  0  0  0  0  0  0  0  0
  1 27  1  0  0  0  0
  2  1  1  1  0  0  0
  2  3  1  0  0  0  0
  3 23  1  6  0  0  0
  4  3  1  1  0  0  0
  4  9  1  0  0  0  0
  5 10  1  6  0  0  0
  5  7  1  0  0  0  0
  5  6  1  0  0  0  0
  6  8  1  0  0  0  0
  7  4  1  0  0  0  0
  8  9  1  0  0  0  0
  8 16  1  1  0  0  0
  9 18  1  1  0  0  0
 11 10  1  0  0  0  0
 12 14  1  0  0  0  0
 12  5  1  0  0  0  0
 13 12  2  0  0  0  0
 14 15  1  0  0  0  0
 17 16  1  0  0  0  0
 18 19  1  0  0  0  0
 19 22  2  0  0  0  0
 19 21  1  0  0  0  0
 20 18  1  0  0  0  0
 23 24  1  0  0  0  0
 25 26  1  0  0  0  0
 25  2  1  0  0  0  0
 27 29  1  0  0  0  0
 27 28  1  0  0  0  0
 28 31  1  0  0  0  0
 30 28  2  0  0  0  0
 31 32  1  0  0  0  0
 32 33  1  0  0  0  0
 33 34  2  0  0  0  0
 34 36  1  0  0  0  0
 35 33  1  0  0  0  0
 35 37  2  0  0  0  0
 36 38  1  0  0  0  0
 37 36  1  0  0  0  0
 38 40  1  0  0  0  0
 38 39  1  0  0  0  0
 39 41  1  0  0  0  0
 40 42  1  0  0  0  0
 41 43  1  0  0  0  0
 42 43  1  0  0  0  0
 43 44  1  0  0  0  0
 45 46  1  0  0  0  0
 47 46  1  0  0  0  0
 47 48  1  0  0  0  0
 48 49  1  0  0  0  0
 50 49  1  0  0  0  0
M  END
>  <REMARK>
 VINA RESULT:    -4.606      2.842      6.839
 INTER + INTRA:         -13.757
 INTER:                  -7.613
 INTRA:                  -6.144
 UNBOUND:                -5.786
 SMILES CC(=O)N[C@@H]1[C@@H](O)C[C@](O)(C(=O)O)O[C@H]1C(O)[C@H](O)CNC(=O)OCc1cn(C2CCN(C)CC2)nn1
 SMILES IDX 20 1 18 2 16 3 15 4 9 5 8 6 14 7 6 8 5 9 10 10 11 12 12 13
 SMILES IDX 13 14 7 16 4 18 2 19 1 21 3 22 17 23 19 25 21 27 22 28 23 30
 SMILES IDX 24 31 25 32 26 33 27 34 37 35 28 36 36 37 29 38 30 39 35 40
 SMILES IDX 31 41 34 42 32 43 33 44
 H PARENT 10 11 13 15 7 17 4 20 17 24 19 26 21 29
 Flexibility Score: inf
  4 active torsions:
  status: ('A' for Active; 'I' for Inactive)
    1  A    between atoms: CA   and  CB  
    2  A    between atoms: CB   and  CG  
    3  A    between atoms: CG   and  CD  
    4  A    between atoms: CD   and  CE  

>  <TORSDO>
F 15

>  <BEGIN_>
RES LYS A 131

$$$$
ligand_57_pose_4_2HRL.pdbqt
 OpenBabel07062320523D

  6  5  0  0  0  0  0  0  0  0999 V2000
   33.1930   34.6630    9.2900 C   0  0  0  0  0  0  0  0  0  0  0  0
   32.0600   35.3600   10.0340 C   0  0  0  0  0  0  0  0  0  0  0  0
   30.7470   34.6240    9.9590 C   0  0  0  0  0  0  0  0  0  0  0  0
   30.3480   34.3830    8.5120 C   0  0  0  0  0  0  0  0  0  0  0  0
   28.8490   34.5330    8.3400 C   0  0  0  0  0  0  0  0  0  0  0  0
   28.1110   33.8140    9.4160 N   0  0  0  0  0  0  0  0  0  0  0  0
  1  2  1  0  0  0  0
  3  2  1  0  0  0  0
  4  3  1  0  0  0  0
  5  4  1  0  0  0  0
  5  6  1  0  0  0  0
M  END
>  <EGIN_R>
ES LYS A 135

>  <REMARK>
  4 active torsions:
  status: ('A' for Active; 'I' for Inactive)
    5  A    between atoms: CA   and  CB  
    6  A    between atoms: CB   and  CG  
    7  A    between atoms: CG   and  CD  
    8  A    between atoms: CD   and  CE  

$$$$
