ligand_35_pose_18_2HRL.pdbqt
 OpenBabel07062320523D

 49 49  0  0  1  0  0  0  0  0999 V2000
   28.3460   29.3770   19.1430 N   0  0  0  0  0  0  0  0  0  0  0  0
   28.6020   29.7090   20.4930 C   0  0  0  0  0  0  0  0  0  0  0  0
   28.2610   28.9500   21.4360 O   0  0  0  0  0  0  0  0  0  0  0  0
   28.6470   30.0370   18.4010 H   0  0  0  0  0  0  0  0  0  0  0  0
   27.6880   28.1590   18.7700 C   0  0  0  0  0  0  0  0  0  0  0  0
   27.0320   28.2350   17.3870 C   0  0  2  0  0  0  0  0  0  0  0  0
   27.2660   29.6090   16.8620 C   0  0  2  0  0  0  0  0  0  0  0  0
   26.4490   30.0210   15.6840 C   0  0  2  0  0  0  0  0  0  0  0  0
   26.5270   32.3350   15.9850 C   0  0  2  0  0  0  0  0  0  0  0  0
   25.4100   32.1640   16.9350 C   0  0  0  0  0  0  0  0  0  0  0  0
   26.9310   31.2490   15.2550 O   0  0  0  0  0  0  0  0  0  0  0  0
   24.4050   31.1110   16.6270 C   0  0  1  0  0  0  0  0  0  0  0  0
   24.9760   29.9800   15.8210 C   0  0  1  0  0  0  0  0  0  0  0  0
   27.6570   32.6970   16.7670 O   0  0  0  0  0  0  0  0  0  0  0  0
   28.2720   31.9340   16.7510 H   0  0  0  0  0  0  0  0  0  0  0  0
   26.2500   33.5020   15.1030 C   0  0  0  0  0  0  0  0  0  0  0  0
   26.7290   34.6450   15.3370 O   0  0  0  0  0  0  0  0  0  0  0  0
   25.4500   33.3690   13.9820 O   0  0  0  0  0  0  0  0  0  0  0  0
   24.5990   33.9020   13.8340 H   0  0  0  0  0  0  0  0  0  0  0  0
   23.8830   30.6590   17.8540 O   0  0  0  0  0  0  0  0  0  0  0  0
   24.6400   30.6600   18.4890 H   0  0  0  0  0  0  0  0  0  0  0  0
   24.4310   30.0660   14.4510 N   0  0  0  0  0  0  0  0  0  0  0  0
   23.4260   29.1780   14.0060 C   0  0  0  0  0  0  0  0  0  0  0  0
   24.7620   30.7740   13.7700 H   0  0  0  0  0  0  0  0  0  0  0  0
   22.8530   29.2270   12.6480 C   0  0  0  0  0  0  0  0  0  0  0  0
   22.9770   28.2840   14.7960 O   0  0  0  0  0  0  0  0  0  0  0  0
   28.6140   29.5930   16.3760 O   0  0  0  0  0  0  0  0  0  0  0  0
   28.7150   30.4630   15.9150 H   0  0  0  0  0  0  0  0  0  0  0  0
   25.6840   27.9880   17.6110 O   0  0  0  0  0  0  0  0  0  0  0  0
   25.6270   27.2470   18.2660 H   0  0  0  0  0  0  0  0  0  0  0  0
   29.2520   30.9100   20.8320 O   0  0  0  0  0  0  0  0  0  0  0  0
   30.5920   31.1430   20.4370 C   0  0  0  0  0  0  0  0  0  0  0  0
   30.6550   31.7610   19.0890 C   0  0  0  0  0  0  0  0  0  0  0  0
   31.0610   33.0660   18.7980 C   0  0  0  0  0  0  0  0  0  0  0  0
   30.3460   31.2260   17.8870 N   0  0  0  0  0  0  0  0  0  0  0  0
   30.9840   33.2590   17.4780 N   0  0  0  0  0  0  0  0  0  0  0  0
   30.5540   32.1470   16.9360 N   0  0  0  0  0  0  0  0  0  0  0  0
   31.3170   34.4860   16.7460 C   0  0  1  0  0  0  0  0  0  0  0  0
   32.2540   34.1590   15.5950 C   0  0  0  0  0  0  0  0  0  0  0  0
   30.1230   35.1710   16.2560 C   0  0  0  0  0  0  0  0  0  0  0  0
   30.1080   35.6530   15.1000 O   0  0  0  0  0  0  0  0  0  0  0  0
   28.9610   35.3350   17.0070 O   0  0  0  0  0  0  0  0  0  0  0  0
   28.7320   36.2280   17.4290 H   0  0  0  0  0  0  0  0  0  0  0  0
   29.8670   25.5550   16.9770 C   0  0  0  0  0  0  0  0  0  0  0  0
   28.3450   25.7220   17.0260 C   0  0  0  0  0  0  0  0  0  0  0  0
   27.5990   24.4420   16.6820 C   0  0  0  0  0  0  0  0  0  0  0  0
   26.2120   24.4210   17.2640 C   0  0  0  0  0  0  0  0  0  0  0  0
   26.2860   24.6850   18.7640 C   0  0  0  0  0  0  0  0  0  0  0  0
   25.4310   23.7250   19.5020 N   0  0  0  0  0  0  0  0  0  0  0  0
  1  2  1  0  0  0  0
  2 31  1  0  0  0  0
  2  3  2  0  0  0  0
  4  1  1  0  0  0  0
  5  1  1  0  0  0  0
  6 29  1  0  0  0  0
  6  5  1  1  0  0  0
  7 27  1  6  0  0  0
  7  6  1  0  0  0  0
  8 13  1  0  0  0  0
  8  7  1  1  0  0  0
  9 16  1  6  0  0  0
  9 14  1  0  0  0  0
  9 10  1  0  0  0  0
 11  8  1  0  0  0  0
 11  9  1  0  0  0  0
 12 10  1  0  0  0  0
 12 20  1  1  0  0  0
 13 22  1  6  0  0  0
 13 12  1  0  0  0  0
 15 14  1  0  0  0  0
 16 17  2  0  0  0  0
 18 16  1  0  0  0  0
 19 18  1  0  0  0  0
 20 21  1  0  0  0  0
 23 22  1  0  0  0  0
 23 26  2  0  0  0  0
 24 22  1  0  0  0  0
 25 23  1  0  0  0  0
 28 27  1  0  0  0  0
 29 30  1  0  0  0  0
 32 31  1  0  0  0  0
 33 32  1  0  0  0  0
 34 33  2  0  0  0  0
 35 33  1  0  0  0  0
 36 34  1  0  0  0  0
 37 36  1  0  0  0  0
 37 35  2  0  0  0  0
 38 39  1  6  0  0  0
 38 36  1  0  0  0  0
 40 38  1  0  0  0  0
 40 42  1  0  0  0  0
 41 40  2  0  0  0  0
 42 43  1  0  0  0  0
 44 45  1  0  0  0  0
 46 45  1  0  0  0  0
 46 47  1  0  0  0  0
 47 48  1  0  0  0  0
 48 49  1  0  0  0  0
M  END
>  <REMARK>
 VINA RESULT:    -4.767      1.934      5.755
 INTER + INTRA:         -13.392
 INTER:                  -7.067
 INTRA:                  -6.325
 UNBOUND:                -4.724
 SMILES CC(=O)N[C@@H]1[C@@H](O)C[C@](O)(C(=O)O)O[C@H]1C(O)[C@H](O)CNC(=O)OCc1cn([C@@H](C)C(=O)O)nn1
 SMILES IDX 21 1 22 2 23 3 20 5 18 6 16 7 15 8 9 9 8 10 14 11 6 12 5 13
 SMILES IDX 10 14 11 16 12 17 13 18 7 20 4 22 2 23 1 25 3 26 17 27 19 29
 SMILES IDX 24 31 25 32 26 33 27 34 35 35 28 36 34 37 29 38 30 39 31 40
 SMILES IDX 32 41 33 42
 H PARENT 21 4 10 15 13 19 7 21 4 24 17 28 19 30 33 43
 Flexibility Score: inf
  4 active torsions:
  status: ('A' for Active; 'I' for Inactive)
    1  A    between atoms: CA   and  CB  
    2  A    between atoms: CB   and  CG  
    3  A    between atoms: CG   and  CD  
    4  A    between atoms: CD   and  CE  

>  <TORSDO>
F 17

>  <BEGIN_>
RES LYS A 131

$$$$
ligand_35_pose_18_2HRL.pdbqt
 OpenBabel07062320523D

  6  5  0  0  0  0  0  0  0  0999 V2000
   33.1930   34.6630    9.2900 C   0  0  0  0  0  0  0  0  0  0  0  0
   32.0600   35.3600   10.0340 C   0  0  0  0  0  0  0  0  0  0  0  0
   30.7360   34.6500    9.9160 C   0  0  0  0  0  0  0  0  0  0  0  0
   30.3300   34.5090    8.4570 C   0  0  0  0  0  0  0  0  0  0  0  0
   28.8200   34.5390    8.3190 C   0  0  0  0  0  0  0  0  0  0  0  0
   28.1640   33.8220    9.4470 N   0  0  0  0  0  0  0  0  0  0  0  0
  1  2  1  0  0  0  0
  3  2  1  0  0  0  0
  4  3  1  0  0  0  0
  5  4  1  0  0  0  0
  5  6  1  0  0  0  0
M  END
>  <EGIN_R>
ES LYS A 135

>  <REMARK>
  4 active torsions:
  status: ('A' for Active; 'I' for Inactive)
    5  A    between atoms: CA   and  CB  
    6  A    between atoms: CB   and  CG  
    7  A    between atoms: CG   and  CD  
    8  A    between atoms: CD   and  CE  

$$$$
