ligand_54_pose_18_2HRL.pdbqt
 OpenBabel07062320523D

 52 52  0  0  1  0  0  0  0  0999 V2000
   29.4740   31.6510   17.8090 O   0  0  0  0  0  0  0  0  0  0  0  0
   29.4870   30.9830   19.0420 C   0  0  0  0  0  0  0  0  0  0  0  0
   30.4200   29.9630   19.3250 N   0  0  0  0  0  0  0  0  0  0  0  0
   31.1150   29.7530   18.5400 H   0  0  0  0  0  0  0  0  0  0  0  0
   28.6470   31.3170   19.8810 O   0  0  0  0  0  0  0  0  0  0  0  0
   30.5370   29.1960   20.5240 C   0  0  0  0  0  0  0  0  0  0  0  0
   30.0970   27.7760   20.3130 C   0  0  2  0  0  0  0  0  0  0  0  0
   28.6910   27.6800   20.9000 C   0  0  2  0  0  0  0  0  0  0  0  0
   27.6620   27.4200   19.8440 C   0  0  2  0  0  0  0  0  0  0  0  0
   26.3890   28.5990   18.3040 C   0  0  2  0  0  0  0  0  0  0  0  0
   25.4890   27.4100   18.2140 C   0  0  0  0  0  0  0  0  0  0  0  0
   27.6430   28.3410   18.8380 O   0  0  0  0  0  0  0  0  0  0  0  0
   25.4360   26.5620   19.4510 C   0  0  1  0  0  0  0  0  0  0  0  0
   26.2980   27.2320   20.4990 C   0  0  1  0  0  0  0  0  0  0  0  0
   25.7500   29.6490   18.9680 O   0  0  0  0  0  0  0  0  0  0  0  0
   24.8040   29.6660   18.6320 H   0  0  0  0  0  0  0  0  0  0  0  0
   26.6300   29.0540   16.9050 C   0  0  0  0  0  0  0  0  0  0  0  0
   27.7410   28.8950   16.3570 O   0  0  0  0  0  0  0  0  0  0  0  0
   25.5770   29.6720   16.2050 O   0  0  0  0  0  0  0  0  0  0  0  0
   25.8330   30.5050   15.6770 H   0  0  0  0  0  0  0  0  0  0  0  0
   24.1430   26.3190   19.8990 O   0  0  0  0  0  0  0  0  0  0  0  0
   24.1060   26.6440   20.8340 H   0  0  0  0  0  0  0  0  0  0  0  0
   26.4850   26.3970   21.6670 N   0  0  0  0  0  0  0  0  0  0  0  0
   25.6810   26.6180   22.8170 C   0  0  0  0  0  0  0  0  0  0  0  0
   27.1810   25.6340   21.7240 H   0  0  0  0  0  0  0  0  0  0  0  0
   25.8030   25.8160   24.0510 C   0  0  0  0  0  0  0  0  0  0  0  0
   24.8220   27.5410   22.7820 O   0  0  0  0  0  0  0  0  0  0  0  0
   28.4340   28.8380   21.6160 O   0  0  0  0  0  0  0  0  0  0  0  0
   29.2000   29.4730   21.6110 H   0  0  0  0  0  0  0  0  0  0  0  0
   30.8850   26.9080   21.0240 O   0  0  0  0  0  0  0  0  0  0  0  0
   30.4410   26.5500   21.8350 H   0  0  0  0  0  0  0  0  0  0  0  0
   30.2710   31.1780   16.7270 C   0  0  0  0  0  0  0  0  0  0  0  0
   30.7330   32.3240   15.9240 C   0  0  0  0  0  0  0  0  0  0  0  0
   30.0310   32.7750   14.8020 C   0  0  0  0  0  0  0  0  0  0  0  0
   31.7820   33.1290   16.0220 N   0  0  0  0  0  0  0  0  0  0  0  0
   30.6910   33.8290   14.2780 N   0  0  0  0  0  0  0  0  0  0  0  0
   31.7390   34.0240   15.0270 N   0  0  0  0  0  0  0  0  0  0  0  0
   30.2590   34.5450   13.1120 C   0  0  0  0  0  0  0  0  0  0  0  0
   28.9380   35.2520   13.3070 C   0  0  0  0  0  0  0  0  0  0  0  0
   28.2090   35.4960   12.0220 C   0  0  0  0  0  0  0  0  0  0  0  0
   27.8850   36.8470   11.9550 O   0  0  0  0  0  0  0  0  0  0  0  0
   27.8070   37.2600   10.6200 C   0  0  0  0  0  0  0  0  0  0  0  0
   28.7490   38.4010   10.3370 C   0  0  0  0  0  0  0  0  0  0  0  0
   27.0610   34.7560   11.9120 O   0  0  0  0  0  0  0  0  0  0  0  0
   26.4680   34.5090   13.1500 C   0  0  0  0  0  0  0  0  0  0  0  0
   25.0430   35.0510   13.1270 C   0  0  0  0  0  0  0  0  0  0  0  0
   29.8670   25.5550   16.9770 C   0  0  0  0  0  0  0  0  0  0  0  0
   28.3450   25.7220   17.0260 C   0  0  0  0  0  0  0  0  0  0  0  0
   27.5990   24.4850   16.5510 C   0  0  0  0  0  0  0  0  0  0  0  0
   26.9750   23.7270   17.6900 C   0  0  0  0  0  0  0  0  0  0  0  0
   25.4800   23.5650   17.4360 C   0  0  0  0  0  0  0  0  0  0  0  0
   25.0730   22.1520   17.6140 N   0  0  0  0  0  0  0  0  0  0  0  0
  1  2  1  0  0  0  0
  2  3  1  0  0  0  0
  2  5  2  0  0  0  0
  3  6  1  0  0  0  0
  4  3  1  0  0  0  0
  7  6  1  1  0  0  0
  7  8  1  0  0  0  0
  7 30  1  0  0  0  0
  8 28  1  6  0  0  0
  9 14  1  0  0  0  0
  9  8  1  1  0  0  0
 10 17  1  6  0  0  0
 10 12  1  0  0  0  0
 10 15  1  0  0  0  0
 11 10  1  0  0  0  0
 11 13  1  0  0  0  0
 12  9  1  0  0  0  0
 13 21  1  1  0  0  0
 13 14  1  0  0  0  0
 14 23  1  1  0  0  0
 16 15  1  0  0  0  0
 18 17  2  0  0  0  0
 19 17  1  0  0  0  0
 20 19  1  0  0  0  0
 21 22  1  0  0  0  0
 23 25  1  0  0  0  0
 23 24  1  0  0  0  0
 24 26  1  0  0  0  0
 27 24  2  0  0  0  0
 29 28  1  0  0  0  0
 30 31  1  0  0  0  0
 32  1  1  0  0  0  0
 33 35  1  0  0  0  0
 33 32  1  0  0  0  0
 34 33  2  0  0  0  0
 36 34  1  0  0  0  0
 36 37  1  0  0  0  0
 37 35  2  0  0  0  0
 38 39  1  0  0  0  0
 38 36  1  0  0  0  0
 40 39  1  0  0  0  0
 41 40  1  0  0  0  0
 42 41  1  0  0  0  0
 43 42  1  0  0  0  0
 44 40  1  0  0  0  0
 44 45  1  0  0  0  0
 46 45  1  0  0  0  0
 47 48  1  0  0  0  0
 49 48  1  0  0  0  0
 49 50  1  0  0  0  0
 51 52  1  0  0  0  0
 51 50  1  0  0  0  0
M  END
>  <REMARK>
 VINA RESULT:    -4.028      2.678      4.586
 INTER + INTRA:         -14.323
 INTER:                  -8.385
 INTRA:                  -5.938
 UNBOUND:                -5.938
 SMILES CCOC(CCn1cc(COC(=O)NC[C@@H](O)C(O)[C@@H]2O[C@@](O)(C(=O)O)C[C@H](O)[C@H]2NC(C)=O)nn1)OCC
 SMILES IDX 11 1 12 2 14 3 13 5 15 6 16 7 18 8 20 9 22 10 27 11 21 12
 SMILES IDX 28 13 30 14 23 15 24 17 25 18 26 19 29 21 31 23 32 24 33 26
 SMILES IDX 34 27 19 28 17 30 10 32 9 33 8 34 35 35 7 36 36 37 6 38 5 39
 SMILES IDX 4 40 3 41 2 42 1 43 37 44 38 45 39 46
 H PARENT 14 4 23 16 26 20 29 22 31 25 19 29 17 31
 Flexibility Score: inf
  4 active torsions:
  status: ('A' for Active; 'I' for Inactive)
    1  A    between atoms: CA   and  CB  
    2  A    between atoms: CB   and  CG  
    3  A    between atoms: CG   and  CD  
    4  A    between atoms: CD   and  CE  

>  <TORSDO>
F 21

>  <BEGIN_>
RES LYS A 131

$$$$
ligand_54_pose_18_2HRL.pdbqt
 OpenBabel07062320523D

  6  5  0  0  0  0  0  0  0  0999 V2000
   33.1930   34.6630    9.2900 C   0  0  0  0  0  0  0  0  0  0  0  0
   32.0600   35.3600   10.0340 C   0  0  0  0  0  0  0  0  0  0  0  0
   30.8030   35.5090    9.2150 C   0  0  0  0  0  0  0  0  0  0  0  0
   30.0690   34.1810    9.1130 C   0  0  0  0  0  0  0  0  0  0  0  0
   28.7110   34.3720    8.4650 C   0  0  0  0  0  0  0  0  0  0  0  0
   28.7940   35.3120    7.3140 N   0  0  0  0  0  0  0  0  0  0  0  0
  1  2  1  0  0  0  0
  3  2  1  0  0  0  0
  4  3  1  0  0  0  0
  5  4  1  0  0  0  0
  6  5  1  0  0  0  0
M  END
>  <EGIN_R>
ES LYS A 135

>  <REMARK>
  4 active torsions:
  status: ('A' for Active; 'I' for Inactive)
    5  A    between atoms: CA   and  CB  
    6  A    between atoms: CB   and  CG  
    7  A    between atoms: CG   and  CD  
    8  A    between atoms: CD   and  CE  

$$$$
