ligand_46_pose_6_2HRL.pdbqt
 OpenBabel07062320523D

 50 51  0  0  1  0  0  0  0  0999 V2000
   29.3990   31.6750   17.3040 N   0  0  0  0  0  0  0  0  0  0  0  0
   28.4060   30.8370   16.7580 C   0  0  0  0  0  0  0  0  0  0  0  0
   28.6510   30.0110   15.8640 O   0  0  0  0  0  0  0  0  0  0  0  0
   29.0710   32.3320   18.0590 H   0  0  0  0  0  0  0  0  0  0  0  0
   30.7640   31.6520   16.8780 C   0  0  0  0  0  0  0  0  0  0  0  0
   30.9900   32.7200   15.8330 C   0  0  2  0  0  0  0  0  0  0  0  0
   30.2180   33.9700   16.1460 C   0  0  2  0  0  0  0  0  0  0  0  0
   30.3630   35.0460   15.0960 C   0  0  2  0  0  0  0  0  0  0  0  0
   29.9090   35.1110   12.8050 C   0  0  2  0  0  0  0  0  0  0  0  0
   30.7310   36.4100   12.8080 C   0  0  0  0  0  0  0  0  0  0  0  0
   29.4640   34.9330   14.0800 O   0  0  0  0  0  0  0  0  0  0  0  0
   32.0460   35.9980   13.4680 C   0  0  1  0  0  0  0  0  0  0  0  0
   31.7970   35.2050   14.7320 C   0  0  1  0  0  0  0  0  0  0  0  0
   30.6480   34.0730   12.2760 O   0  0  0  0  0  0  0  0  0  0  0  0
   30.7630   33.3880   12.9670 H   0  0  0  0  0  0  0  0  0  0  0  0
   28.7000   35.3860   11.9480 C   0  0  0  0  0  0  0  0  0  0  0  0
   28.1030   34.4700   11.3460 O   0  0  0  0  0  0  0  0  0  0  0  0
   28.2280   36.6770   11.8110 O   0  0  0  0  0  0  0  0  0  0  0  0
   28.1090   37.0520   10.8840 H   0  0  0  0  0  0  0  0  0  0  0  0
   32.7280   35.2440   12.5130 O   0  0  0  0  0  0  0  0  0  0  0  0
   33.0720   35.8430   11.8150 H   0  0  0  0  0  0  0  0  0  0  0  0
   32.4490   35.8820   15.8680 N   0  0  0  0  0  0  0  0  0  0  0  0
   33.8510   35.8560   16.0690 C   0  0  0  0  0  0  0  0  0  0  0  0
   31.8510   36.4110   16.5660 H   0  0  0  0  0  0  0  0  0  0  0  0
   34.5510   36.5210   17.1950 C   0  0  0  0  0  0  0  0  0  0  0  0
   34.5530   35.2290   15.2380 O   0  0  0  0  0  0  0  0  0  0  0  0
   30.5560   34.4090   17.4110 O   0  0  0  0  0  0  0  0  0  0  0  0
   29.7630   34.3210   17.9930 H   0  0  0  0  0  0  0  0  0  0  0  0
   30.6070   32.1480   14.6190 O   0  0  0  0  0  0  0  0  0  0  0  0
   31.0340   31.2780   14.4540 H   0  0  0  0  0  0  0  0  0  0  0  0
   27.0900   30.9110   17.2130 O   0  0  0  0  0  0  0  0  0  0  0  0
   26.5030   32.1690   17.4440 C   0  0  0  0  0  0  0  0  0  0  0  0
   25.4760   32.4900   16.4240 C   0  0  0  0  0  0  0  0  0  0  0  0
   25.5460   32.1990   15.0880 C   0  0  0  0  0  0  0  0  0  0  0  0
   24.3160   33.1190   16.6350 N   0  0  0  0  0  0  0  0  0  0  0  0
   24.4200   32.6610   14.5200 N   0  0  0  0  0  0  0  0  0  0  0  0
   23.6880   33.2190   15.4910 N   0  0  0  0  0  0  0  0  0  0  0  0
   24.0140   32.6010   13.1390 C   0  0  0  0  0  0  0  0  0  0  0  0
   23.1990   31.3870   12.8710 C   0  0  0  0  0  0  0  0  0  0  0  0
   23.7770   30.1230   12.8310 C   0  0  0  0  0  0  0  0  0  0  0  0
   21.8450   31.4530   12.6510 C   0  0  0  0  0  0  0  0  0  0  0  0
   23.0190   29.0060   12.5820 C   0  0  0  0  0  0  0  0  0  0  0  0
   21.0720   30.3330   12.4000 C   0  0  0  0  0  0  0  0  0  0  0  0
   21.6600   29.0900   12.3650 C   0  0  0  0  0  0  0  0  0  0  0  0
   29.8670   25.5550   16.9770 C   0  0  0  0  0  0  0  0  0  0  0  0
   28.3450   25.7220   17.0260 C   0  0  0  0  0  0  0  0  0  0  0  0
   27.5990   24.4390   16.6930 C   0  0  0  0  0  0  0  0  0  0  0  0
   26.3070   24.3210   17.4530 C   0  0  0  0  0  0  0  0  0  0  0  0
   25.8460   25.7080   17.8910 C   0  0  0  0  0  0  0  0  0  0  0  0
   24.5710   25.6170   18.6410 N   0  0  0  0  0  0  0  0  0  0  0  0
  1  4  1  0  0  0  0
  2 31  1  0  0  0  0
  2  1  1  0  0  0  0
  3  2  2  0  0  0  0
  5  1  1  0  0  0  0
  6  7  1  0  0  0  0
  6  5  1  1  0  0  0
  7 27  1  1  0  0  0
  8  7  1  1  0  0  0
  9 16  1  6  0  0  0
  9 10  1  0  0  0  0
  9 11  1  0  0  0  0
 10 12  1  0  0  0  0
 11  8  1  0  0  0  0
 12 20  1  6  0  0  0
 12 13  1  0  0  0  0
 13  8  1  0  0  0  0
 13 22  1  1  0  0  0
 14  9  1  0  0  0  0
 14 15  1  0  0  0  0
 17 16  2  0  0  0  0
 18 16  1  0  0  0  0
 19 18  1  0  0  0  0
 21 20  1  0  0  0  0
 22 23  1  0  0  0  0
 22 24  1  0  0  0  0
 23 25  1  0  0  0  0
 26 23  2  0  0  0  0
 27 28  1  0  0  0  0
 29  6  1  0  0  0  0
 30 29  1  0  0  0  0
 31 32  1  0  0  0  0
 33 35  1  0  0  0  0
 33 32  1  0  0  0  0
 34 33  2  0  0  0  0
 36 34  1  0  0  0  0
 36 37  1  0  0  0  0
 37 35  2  0  0  0  0
 38 36  1  0  0  0  0
 39 38  1  0  0  0  0
 40 39  1  0  0  0  0
 41 39  2  0  0  0  0
 42 40  2  0  0  0  0
 43 41  1  0  0  0  0
 44 43  2  0  0  0  0
 44 42  1  0  0  0  0
 45 46  1  0  0  0  0
 47 46  1  0  0  0  0
 47 48  1  0  0  0  0
 48 49  1  0  0  0  0
 49 50  1  0  0  0  0
M  END
>  <REMARK>
 VINA RESULT:    -5.408      6.059     10.473
 INTER + INTRA:         -14.966
 INTER:                  -9.822
 INTRA:                  -5.143
 UNBOUND:                -5.290
 SMILES CC(=O)N[C@@H]1[C@@H](O)C[C@](O)(C(=O)O)O[C@H]1C(O)[C@H](O)CNC(=O)OCc1cn(Cc2ccccc2)nn1
 SMILES IDX 21 1 22 2 23 3 20 5 18 6 16 7 15 8 9 9 8 10 14 11 6 12 5 13
 SMILES IDX 10 14 11 16 12 17 13 18 7 20 4 22 2 23 1 25 3 26 17 27 19 29
 SMILES IDX 24 31 25 32 26 33 27 34 37 35 28 36 36 37 29 38 30 39 31 40
 SMILES IDX 35 41 32 42 34 43 33 44
 H PARENT 21 4 10 15 13 19 7 21 4 24 17 28 19 30
 Flexibility Score: inf
  4 active torsions:
  status: ('A' for Active; 'I' for Inactive)
    1  A    between atoms: CA   and  CB  
    2  A    between atoms: CB   and  CG  
    3  A    between atoms: CG   and  CD  
    4  A    between atoms: CD   and  CE  

>  <TORSDO>
F 16

>  <BEGIN_>
RES LYS A 131

$$$$
ligand_46_pose_6_2HRL.pdbqt
 OpenBabel07062320523D

  6  5  0  0  0  0  0  0  0  0999 V2000
   33.1930   34.6630    9.2900 C   0  0  0  0  0  0  0  0  0  0  0  0
   32.0600   35.3600   10.0340 C   0  0  0  0  0  0  0  0  0  0  0  0
   30.8800   35.6930    9.1590 C   0  0  0  0  0  0  0  0  0  0  0  0
   30.2840   34.4300    8.5570 C   0  0  0  0  0  0  0  0  0  0  0  0
   28.9250   34.7180    7.9490 C   0  0  0  0  0  0  0  0  0  0  0  0
   28.7280   36.1810    7.7460 N   0  0  0  0  0  0  0  0  0  0  0  0
  1  2  1  0  0  0  0
  3  2  1  0  0  0  0
  4  3  1  0  0  0  0
  5  4  1  0  0  0  0
  6  5  1  0  0  0  0
M  END
>  <EGIN_R>
ES LYS A 135

>  <REMARK>
  4 active torsions:
  status: ('A' for Active; 'I' for Inactive)
    5  A    between atoms: CA   and  CB  
    6  A    between atoms: CB   and  CG  
    7  A    between atoms: CG   and  CD  
    8  A    between atoms: CD   and  CE  

$$$$
