ligand_72_pose_1_2HRL.pdbqt
 OpenBabel07062320523D

 49 49  0  0  1  0  0  0  0  0999 V2000
   27.8240   28.6740   18.1050 N   0  0  0  0  0  0  0  0  0  0  0  0
   27.3430   29.2310   16.8770 C   0  0  0  0  0  0  0  0  0  0  0  0
   26.1230   29.1040   16.5230 O   0  0  0  0  0  0  0  0  0  0  0  0
   28.8220   28.8160   18.3510 H   0  0  0  0  0  0  0  0  0  0  0  0
   26.9110   27.9530   18.9670 C   0  0  0  0  0  0  0  0  0  0  0  0
   27.4640   27.6940   20.3140 C   0  0  2  0  0  0  0  0  0  0  0  0
   28.9260   27.8310   20.5120 C   0  0  1  0  0  0  0  0  0  0  0  0
   29.2570   28.9800   21.4320 C   0  0  2  0  0  0  0  0  0  0  0  0
   30.1740   30.5970   19.9690 C   0  0  2  0  0  0  0  0  0  0  0  0
   31.5500   30.3850   20.6270 C   0  0  0  0  0  0  0  0  0  0  0  0
   29.1490   30.1770   20.7540 O   0  0  0  0  0  0  0  0  0  0  0  0
   31.2700   30.1910   22.0790 C   0  0  1  0  0  0  0  0  0  0  0  0
   30.5350   28.8250   22.1990 C   0  0  1  0  0  0  0  0  0  0  0  0
   30.2150   30.0830   18.6900 O   0  0  0  0  0  0  0  0  0  0  0  0
   30.6080   30.7460   18.0730 H   0  0  0  0  0  0  0  0  0  0  0  0
   29.9940   32.0950   19.8330 C   0  0  0  0  0  0  0  0  0  0  0  0
   29.1710   32.7120   20.5490 O   0  0  0  0  0  0  0  0  0  0  0  0
   30.7620   32.7560   18.8980 O   0  0  0  0  0  0  0  0  0  0  0  0
   30.6350   33.7440   18.7090 H   0  0  0  0  0  0  0  0  0  0  0  0
   32.4010   30.1870   22.8710 O   0  0  0  0  0  0  0  0  0  0  0  0
   32.1380   30.5650   23.7520 H   0  0  0  0  0  0  0  0  0  0  0  0
   30.3260   28.7240   23.6520 N   0  0  0  0  0  0  0  0  0  0  0  0
   30.1560   27.5070   24.3220 C   0  0  0  0  0  0  0  0  0  0  0  0
   30.3080   29.6180   24.1840 H   0  0  0  0  0  0  0  0  0  0  0  0
   29.9390   27.3820   25.7860 C   0  0  0  0  0  0  0  0  0  0  0  0
   30.1880   26.4400   23.6490 O   0  0  0  0  0  0  0  0  0  0  0  0
   29.6760   26.7100   20.6430 O   0  0  0  0  0  0  0  0  0  0  0  0
   30.6510   26.8390   20.5110 H   0  0  0  0  0  0  0  0  0  0  0  0
   27.0820   26.4000   20.7340 O   0  0  0  0  0  0  0  0  0  0  0  0
   26.1690   26.2390   20.4070 H   0  0  0  0  0  0  0  0  0  0  0  0
   28.2300   29.9090   16.0810 O   0  0  0  0  0  0  0  0  0  0  0  0
   28.0840   31.2550   15.7380 C   0  0  0  0  0  0  0  0  0  0  0  0
   29.3980   31.9490   15.6980 C   0  0  0  0  0  0  0  0  0  0  0  0
   29.5920   33.2180   15.2130 C   0  0  0  0  0  0  0  0  0  0  0  0
   30.5900   31.5090   16.0980 N   0  0  0  0  0  0  0  0  0  0  0  0
   30.8900   33.5210   15.3310 N   0  0  0  0  0  0  0  0  0  0  0  0
   31.4760   32.4540   15.8770 N   0  0  0  0  0  0  0  0  0  0  0  0
   31.4990   34.7640   14.9340 C   0  0  0  0  0  0  0  0  0  0  0  0
   30.8170   35.3300   13.7070 C   0  0  0  0  0  0  0  0  0  0  0  0
   32.9740   34.5120   14.6460 C   0  0  0  0  0  0  0  0  0  0  0  0
   31.4400   35.7460   16.0750 C   0  0  0  0  0  0  0  0  0  0  0  0
   31.7420   35.1000   17.2780 O   0  0  0  0  0  0  0  0  0  0  0  0
   31.0440   35.3310   17.9420 H   0  0  0  0  0  0  0  0  0  0  0  0
   29.8670   25.5550   16.9770 C   0  0  0  0  0  0  0  0  0  0  0  0
   28.3450   25.7220   17.0260 C   0  0  0  0  0  0  0  0  0  0  0  0
   27.6010   24.4020   16.8890 C   0  0  0  0  0  0  0  0  0  0  0  0
   26.5820   24.2110   17.9780 C   0  0  0  0  0  0  0  0  0  0  0  0
   25.2520   24.8190   17.5430 C   0  0  0  0  0  0  0  0  0  0  0  0
   24.3960   23.7920   16.9050 N   0  0  0  0  0  0  0  0  0  0  0  0
  1  4  1  0  0  0  0
  1  5  1  0  0  0  0
  2  1  1  0  0  0  0
  3  2  2  0  0  0  0
  6  5  1  6  0  0  0
  6  7  1  0  0  0  0
  6 29  1  0  0  0  0
  7 27  1  1  0  0  0
  8  7  1  6  0  0  0
  8 13  1  0  0  0  0
  9 14  1  6  0  0  0
  9 10  1  0  0  0  0
  9 11  1  0  0  0  0
 10 12  1  0  0  0  0
 11  8  1  0  0  0  0
 12 13  1  0  0  0  0
 12 20  1  1  0  0  0
 13 22  1  1  0  0  0
 15 14  1  0  0  0  0
 16  9  1  0  0  0  0
 16 17  2  0  0  0  0
 18 16  1  0  0  0  0
 19 18  1  0  0  0  0
 20 21  1  0  0  0  0
 22 24  1  0  0  0  0
 22 23  1  0  0  0  0
 23 25  1  0  0  0  0
 26 23  2  0  0  0  0
 28 27  1  0  0  0  0
 30 29  1  0  0  0  0
 31  2  1  0  0  0  0
 32 31  1  0  0  0  0
 33 32  1  0  0  0  0
 33 35  1  0  0  0  0
 34 36  1  0  0  0  0
 34 33  2  0  0  0  0
 36 37  1  0  0  0  0
 37 35  2  0  0  0  0
 38 36  1  0  0  0  0
 38 41  1  0  0  0  0
 39 38  1  0  0  0  0
 40 38  1  0  0  0  0
 41 42  1  0  0  0  0
 42 43  1  0  0  0  0
 44 45  1  0  0  0  0
 46 45  1  0  0  0  0
 46 47  1  0  0  0  0
 48 47  1  0  0  0  0
 49 48  1  0  0  0  0
M  END
>  <REMARK>
 VINA RESULT:    -4.780      7.540     13.864
 INTER + INTRA:         -14.836
 INTER:                  -8.090
 INTRA:                  -6.746
 UNBOUND:                -6.145
 SMILES CC(=O)N[C@@H]1[C@@H](O)C[C@](O)(C(=O)O)O[C@H]1C(O)[C@H](O)CNC(=O)OCc1cn(C(C)(C)CO)nn1
 SMILES IDX 21 1 22 2 23 3 20 5 18 6 16 7 15 8 9 9 8 10 14 11 6 12 5 13
 SMILES IDX 10 14 11 16 12 17 13 18 7 20 4 22 2 23 1 25 3 26 17 27 19 29
 SMILES IDX 24 31 25 32 26 33 27 34 35 35 28 36 34 37 29 38 30 39 31 40
 SMILES IDX 32 41 33 42
 H PARENT 21 4 10 15 13 19 7 21 4 24 17 28 19 30 33 43
 Flexibility Score: inf
  4 active torsions:
  status: ('A' for Active; 'I' for Inactive)
    1  A    between atoms: CA   and  CB  
    2  A    between atoms: CB   and  CG  
    3  A    between atoms: CG   and  CD  
    4  A    between atoms: CD   and  CE  

>  <TORSDO>
F 17

>  <BEGIN_>
RES LYS A 131

$$$$
ligand_72_pose_1_2HRL.pdbqt
 OpenBabel07062320523D

  6  5  0  0  0  0  0  0  0  0999 V2000
   33.1930   34.6630    9.2900 C   0  0  0  0  0  0  0  0  0  0  0  0
   32.0600   35.3600   10.0340 C   0  0  0  0  0  0  0  0  0  0  0  0
   30.7080   34.7420    9.7880 C   0  0  0  0  0  0  0  0  0  0  0  0
   30.4900   34.5020    8.3020 C   0  0  0  0  0  0  0  0  0  0  0  0
   29.0780   34.8860    7.9030 C   0  0  0  0  0  0  0  0  0  0  0  0
   28.9550   36.3590    7.7170 N   0  0  0  0  0  0  0  0  0  0  0  0
  1  2  1  0  0  0  0
  3  2  1  0  0  0  0
  4  3  1  0  0  0  0
  5  4  1  0  0  0  0
  6  5  1  0  0  0  0
M  END
>  <EGIN_R>
ES LYS A 135

>  <REMARK>
  4 active torsions:
  status: ('A' for Active; 'I' for Inactive)
    5  A    between atoms: CA   and  CB  
    6  A    between atoms: CB   and  CG  
    7  A    between atoms: CG   and  CD  
    8  A    between atoms: CD   and  CE  

$$$$
