ligand_73_pose_3_2HRL.pdbqt
 OpenBabel07062320523D

 54 55  0  0  1  0  0  0  0  0999 V2000
   33.8190   35.3150   19.9430 N   0  0  0  0  0  0  0  0  0  0  0  0
   34.9310   34.8370   20.6870 C   0  0  0  0  0  0  0  0  0  0  0  0
   34.8450   33.8070   21.4350 O   0  0  0  0  0  0  0  0  0  0  0  0
   33.9310   36.1470   19.3440 H   0  0  0  0  0  0  0  0  0  0  0  0
   32.5670   34.6220   20.0340 C   0  0  0  0  0  0  0  0  0  0  0  0
   31.8810   34.3150   18.7520 C   0  0  2  0  0  0  0  0  0  0  0  0
   31.4530   35.5100   17.9410 C   0  0  1  0  0  0  0  0  0  0  0  0
   31.4560   35.2910   16.4600 C   0  0  2  0  0  0  0  0  0  0  0  0
   30.5840   34.0510   14.7350 C   0  0  2  0  0  0  0  0  0  0  0  0
   31.1710   35.2130   13.9660 C   0  0  0  0  0  0  0  0  0  0  0  0
   30.7410   34.1590   16.1050 O   0  0  0  0  0  0  0  0  0  0  0  0
   32.6190   35.3460   14.3010 C   0  0  1  0  0  0  0  0  0  0  0  0
   32.7860   35.4410   15.8220 C   0  0  1  0  0  0  0  0  0  0  0  0
   31.2320   32.9060   14.2930 O   0  0  0  0  0  0  0  0  0  0  0  0
   32.1170   32.8800   14.7500 H   0  0  0  0  0  0  0  0  0  0  0  0
   29.1520   33.9530   14.3590 C   0  0  0  0  0  0  0  0  0  0  0  0
   28.3270   33.3370   15.0840 O   0  0  0  0  0  0  0  0  0  0  0  0
   28.6910   34.5410   13.1970 O   0  0  0  0  0  0  0  0  0  0  0  0
   28.1660   35.3950   13.1750 H   0  0  0  0  0  0  0  0  0  0  0  0
   33.2670   34.2060   13.7890 O   0  0  0  0  0  0  0  0  0  0  0  0
   32.5920   33.4630   13.8410 H   0  0  0  0  0  0  0  0  0  0  0  0
   33.2480   36.8070   16.1150 N   0  0  0  0  0  0  0  0  0  0  0  0
   34.3820   37.0760   16.9090 C   0  0  0  0  0  0  0  0  0  0  0  0
   32.7070   37.6100   15.7160 H   0  0  0  0  0  0  0  0  0  0  0  0
   34.8130   38.4680   17.1830 C   0  0  0  0  0  0  0  0  0  0  0  0
   35.0320   36.1370   17.3870 O   0  0  0  0  0  0  0  0  0  0  0  0
   30.1780   35.9410   18.3090 O   0  0  0  0  0  0  0  0  0  0  0  0
   30.0090   35.8900   19.2640 H   0  0  0  0  0  0  0  0  0  0  0  0
   30.7600   33.5350   19.0740 O   0  0  0  0  0  0  0  0  0  0  0  0
   30.7660   32.7440   18.4630 H   0  0  0  0  0  0  0  0  0  0  0  0
   36.1210   35.5180   20.5840 O   0  0  0  0  0  0  0  0  0  0  0  0
   37.3270   34.8310   20.7160 C   0  0  0  0  0  0  0  0  0  0  0  0
   37.8170   34.2430   19.4410 C   0  0  0  0  0  0  0  0  0  0  0  0
   37.8920   34.8440   18.1920 C   0  0  0  0  0  0  0  0  0  0  0  0
   38.2890   32.9990   19.2430 N   0  0  0  0  0  0  0  0  0  0  0  0
   38.3910   33.9800   17.2950 N   0  0  0  0  0  0  0  0  0  0  0  0
   38.6250   32.8610   17.9590 N   0  0  0  0  0  0  0  0  0  0  0  0
   38.6380   34.1730   15.9080 C   0  0  0  0  0  0  0  0  0  0  0  0
   39.8020   34.7820   15.4890 C   0  0  0  0  0  0  0  0  0  0  0  0
   37.7510   33.7730   14.9290 C   0  0  0  0  0  0  0  0  0  0  0  0
   40.0620   34.9810   14.1430 C   0  0  0  0  0  0  0  0  0  0  0  0
   37.9680   33.9510   13.5720 C   0  0  0  0  0  0  0  0  0  0  0  0
   39.1560   34.5690   13.1950 C   0  0  0  0  0  0  0  0  0  0  0  0
   37.0510   33.5360   12.5840 N   0  0  0  0  0  0  0  0  0  0  0  0
   35.8730   33.8900   12.6620 O   0  0  0  0  0  0  0  0  0  0  0  0
   37.4680   32.7520   11.5550 O   0  0  0  0  0  0  0  0  0  0  0  0
   39.3710   34.7470   11.8300 O   0  0  0  0  0  0  0  0  0  0  0  0
   40.0320   35.4800   11.5370 H   0  0  0  0  0  0  0  0  0  0  0  0
   29.8670   25.5550   16.9770 C   0  0  0  0  0  0  0  0  0  0  0  0
   28.3450   25.7220   17.0260 C   0  0  0  0  0  0  0  0  0  0  0  0
   27.6010   24.4020   16.8950 C   0  0  0  0  0  0  0  0  0  0  0  0
   26.1700   24.5110   17.3440 C   0  0  0  0  0  0  0  0  0  0  0  0
   25.8620   23.3950   18.3370 C   0  0  0  0  0  0  0  0  0  0  0  0
   25.4700   23.9620   19.6490 N   0  0  0  0  0  0  0  0  0  0  0  0
  1  5  1  0  0  0  0
  1  2  1  0  0  0  0
  2  3  2  0  0  0  0
  4  1  1  0  0  0  0
  6 29  1  0  0  0  0
  6  5  1  1  0  0  0
  7 27  1  1  0  0  0
  7  6  1  0  0  0  0
  8  7  1  1  0  0  0
  9 14  1  6  0  0  0
  9 11  1  0  0  0  0
 10 12  1  0  0  0  0
 10  9  1  0  0  0  0
 11  8  1  0  0  0  0
 12 20  1  1  0  0  0
 12 13  1  0  0  0  0
 13 22  1  6  0  0  0
 13  8  1  0  0  0  0
 14 15  1  0  0  0  0
 16  9  1  0  0  0  0
 16 17  2  0  0  0  0
 18 16  1  0  0  0  0
 19 18  1  0  0  0  0
 20 21  1  0  0  0  0
 22 23  1  0  0  0  0
 23 25  1  0  0  0  0
 23 26  2  0  0  0  0
 24 22  1  0  0  0  0
 27 28  1  0  0  0  0
 30 29  1  0  0  0  0
 31  2  1  0  0  0  0
 31 32  1  0  0  0  0
 33 32  1  0  0  0  0
 34 33  2  0  0  0  0
 35 33  1  0  0  0  0
 36 37  1  0  0  0  0
 36 34  1  0  0  0  0
 37 35  2  0  0  0  0
 38 36  1  0  0  0  0
 39 38  1  0  0  0  0
 40 38  2  0  0  0  0
 41 39  2  0  0  0  0
 42 40  1  0  0  0  0
 43 42  2  0  0  0  0
 43 41  1  0  0  0  0
 44 45  2  0  0  0  0
 44 42  1  0  0  0  0
 46 44  2  0  0  0  0
 47 43  1  0  0  0  0
 48 47  1  0  0  0  0
 49 50  1  0  0  0  0
 51 50  1  0  0  0  0
 51 52  1  0  0  0  0
 52 53  1  0  0  0  0
 53 54  1  0  0  0  0
M  END
>  <REMARK>
 VINA RESULT:    -4.327      4.254      7.847
 INTER + INTRA:         -15.179
 INTER:                  -9.388
 INTRA:                  -5.791
 UNBOUND:                -7.311
 SMILES CC(=O)N[C@@H]1[C@@H](O)C[C@](O)(C(=O)O)O[C@H]1C(O)[C@H](O)CNC(=O)OCc1cn(-c2ccc(O)c([N+](=O)[O-])c2)nn1
 SMILES IDX 21 1 22 2 23 3 20 5 18 6 16 7 15 8 9 9 8 10 14 11 6 12 5 13
 SMILES IDX 10 14 11 16 12 17 13 18 7 20 4 22 2 23 1 25 3 26 17 27 19 29
 SMILES IDX 24 31 25 32 26 33 27 34 40 35 28 36 39 37 29 38 30 39 38 40
 SMILES IDX 31 41 34 42 32 43 35 44 36 45 37 46 33 47
 H PARENT 21 4 10 15 13 19 7 21 4 24 17 28 19 30 33 48
 Flexibility Score: inf
  4 active torsions:
  status: ('A' for Active; 'I' for Inactive)
    1  A    between atoms: CA   and  CB  
    2  A    between atoms: CB   and  CG  
    3  A    between atoms: CG   and  CD  
    4  A    between atoms: CD   and  CE  

>  <TORSDO>
F 17

>  <BEGIN_>
RES LYS A 131

$$$$
ligand_73_pose_3_2HRL.pdbqt
 OpenBabel07062320523D

  6  5  0  0  0  0  0  0  0  0999 V2000
   33.1930   34.6630    9.2900 C   0  0  0  0  0  0  0  0  0  0  0  0
   32.0600   35.3600   10.0340 C   0  0  0  0  0  0  0  0  0  0  0  0
   30.7820   35.4470    9.2410 C   0  0  0  0  0  0  0  0  0  0  0  0
   30.2140   34.0590    8.9850 C   0  0  0  0  0  0  0  0  0  0  0  0
   28.7140   34.0480    9.2110 C   0  0  0  0  0  0  0  0  0  0  0  0
   28.1240   35.3920    8.9640 N   0  0  0  0  0  0  0  0  0  0  0  0
  1  2  1  0  0  0  0
  3  2  1  0  0  0  0
  4  5  1  0  0  0  0
  4  3  1  0  0  0  0
  6  5  1  0  0  0  0
M  END
>  <EGIN_R>
ES LYS A 135

>  <REMARK>
  4 active torsions:
  status: ('A' for Active; 'I' for Inactive)
    5  A    between atoms: CA   and  CB  
    6  A    between atoms: CB   and  CG  
    7  A    between atoms: CG   and  CD  
    8  A    between atoms: CD   and  CE  

$$$$
