ligand_19_pose_18_2HRL.pdbqt
 OpenBabel07062320523D

 49 49  0  0  1  0  0  0  0  0999 V2000
   31.9540   34.5320   14.1650 N   0  0  0  0  0  0  0  0  0  0  0  0
   32.0930   35.9300   14.0130 C   0  0  0  0  0  0  0  0  0  0  0  0
   32.5060   36.6280   14.9500 O   0  0  0  0  0  0  0  0  0  0  0  0
   31.5910   34.0140   13.3180 H   0  0  0  0  0  0  0  0  0  0  0  0
   32.2710   33.7940   15.3680 C   0  0  0  0  0  0  0  0  0  0  0  0
   31.1010   33.6720   16.2690 C   0  0  2  0  0  0  0  0  0  0  0  0
   30.0960   32.5970   15.9190 C   0  0  2  0  0  0  0  0  0  0  0  0
   30.1700   31.3590   16.7610 C   0  0  2  0  0  0  0  0  0  0  0  0
   27.9100   30.9010   16.4560 C   0  0  2  0  0  0  0  0  0  0  0  0
   27.5820   31.7960   17.5880 C   0  0  0  0  0  0  0  0  0  0  0  0
   29.1950   30.4300   16.4020 O   0  0  0  0  0  0  0  0  0  0  0  0
   28.6590   32.0480   18.5800 C   0  0  1  0  0  0  0  0  0  0  0  0
   30.0170   31.5420   18.2370 C   0  0  1  0  0  0  0  0  0  0  0  0
   27.6650   31.5230   15.2070 O   0  0  0  0  0  0  0  0  0  0  0  0
   28.4230   32.0920   14.9340 H   0  0  0  0  0  0  0  0  0  0  0  0
   27.0200   29.7060   16.4590 C   0  0  0  0  0  0  0  0  0  0  0  0
   27.4140   28.5910   16.9440 O   0  0  0  0  0  0  0  0  0  0  0  0
   25.7290   29.7060   15.9520 O   0  0  0  0  0  0  0  0  0  0  0  0
   25.4530   28.9030   15.3770 H   0  0  0  0  0  0  0  0  0  0  0  0
   28.7500   33.4290   18.7780 O   0  0  0  0  0  0  0  0  0  0  0  0
   28.5670   33.6630   19.7400 H   0  0  0  0  0  0  0  0  0  0  0  0
   30.3510   30.2780   18.8510 N   0  0  0  0  0  0  0  0  0  0  0  0
   31.0160   30.1720   20.0760 C   0  0  0  0  0  0  0  0  0  0  0  0
   30.0750   29.4200   18.3370 H   0  0  0  0  0  0  0  0  0  0  0  0
   31.3700   28.8870   20.7310 C   0  0  0  0  0  0  0  0  0  0  0  0
   31.3280   31.2350   20.6470 O   0  0  0  0  0  0  0  0  0  0  0  0
   30.5750   32.1390   14.6320 O   0  0  0  0  0  0  0  0  0  0  0  0
   31.5690   32.2660   14.7210 H   0  0  0  0  0  0  0  0  0  0  0  0
   30.5340   34.8140   16.7500 O   0  0  0  0  0  0  0  0  0  0  0  0
   31.1760   35.5060   16.9680 H   0  0  0  0  0  0  0  0  0  0  0  0
   31.7620   36.5500   12.7860 O   0  0  0  0  0  0  0  0  0  0  0  0
   31.0340   37.7770   12.7850 C   0  0  0  0  0  0  0  0  0  0  0  0
   29.8500   37.6000   11.9200 C   0  0  0  0  0  0  0  0  0  0  0  0
   28.6770   36.9530   12.2720 C   0  0  0  0  0  0  0  0  0  0  0  0
   29.6840   38.0120   10.6560 N   0  0  0  0  0  0  0  0  0  0  0  0
   27.8550   37.0000   11.2140 N   0  0  0  0  0  0  0  0  0  0  0  0
   28.4840   37.6420   10.2560 N   0  0  0  0  0  0  0  0  0  0  0  0
   26.5250   36.4350   11.1780 C   0  0  0  0  0  0  0  0  0  0  0  0
   25.9470   36.6600    9.8010 C   0  0  0  0  0  0  0  0  0  0  0  0
   25.1290   35.5830    9.4490 O   0  0  0  0  0  0  0  0  0  0  0  0
   23.7750   35.6270    9.6110 C   0  0  0  0  0  0  0  0  0  0  0  0
   23.0290   36.0640    8.7160 O   0  0  0  0  0  0  0  0  0  0  0  0
   23.1450   35.1430   10.8880 C   0  0  0  0  0  0  0  0  0  0  0  0
   29.8670   25.5550   16.9770 C   0  0  0  0  0  0  0  0  0  0  0  0
   28.3450   25.7220   17.0260 C   0  0  0  0  0  0  0  0  0  0  0  0
   27.6010   24.4030   16.8870 C   0  0  0  0  0  0  0  0  0  0  0  0
   26.6030   24.1960   17.9920 C   0  0  0  0  0  0  0  0  0  0  0  0
   25.2590   23.7910   17.3950 C   0  0  0  0  0  0  0  0  0  0  0  0
   24.7660   22.5430   18.0240 N   0  0  0  0  0  0  0  0  0  0  0  0
  1  5  1  0  0  0  0
  2  1  1  0  0  0  0
  2  3  2  0  0  0  0
  4  1  1  0  0  0  0
  6  5  1  6  0  0  0
  6 29  1  0  0  0  0
  7 27  1  6  0  0  0
  7  6  1  0  0  0  0
  8  7  1  6  0  0  0
  8 13  1  0  0  0  0
  9 14  1  6  0  0  0
  9 16  1  0  0  0  0
  9 10  1  0  0  0  0
 10 12  1  0  0  0  0
 11  9  1  0  0  0  0
 11  8  1  0  0  0  0
 12 20  1  6  0  0  0
 13 12  1  0  0  0  0
 13 22  1  1  0  0  0
 15 14  1  0  0  0  0
 16 17  2  0  0  0  0
 18 16  1  0  0  0  0
 19 18  1  0  0  0  0
 20 21  1  0  0  0  0
 22 23  1  0  0  0  0
 23 26  2  0  0  0  0
 23 25  1  0  0  0  0
 24 22  1  0  0  0  0
 27 28  1  0  0  0  0
 29 30  1  0  0  0  0
 31  2  1  0  0  0  0
 32 31  1  0  0  0  0
 33 34  2  0  0  0  0
 33 32  1  0  0  0  0
 35 33  1  0  0  0  0
 36 34  1  0  0  0  0
 37 35  2  0  0  0  0
 37 36  1  0  0  0  0
 38 36  1  0  0  0  0
 39 38  1  0  0  0  0
 40 41  1  0  0  0  0
 40 39  1  0  0  0  0
 41 43  1  0  0  0  0
 42 41  2  0  0  0  0
 44 45  1  0  0  0  0
 46 45  1  0  0  0  0
 46 47  1  0  0  0  0
 48 47  1  0  0  0  0
 48 49  1  0  0  0  0
M  END
>  <REMARK>
 VINA RESULT:    -3.910      2.034      2.272
 INTER + INTRA:         -13.512
 INTER:                  -8.403
 INTRA:                  -5.109
 UNBOUND:                -6.059
 SMILES CC(=O)N[C@@H]1[C@@H](O)C[C@](O)(C(=O)O)O[C@H]1C(O)[C@H](O)CNC(=O)OCc1cn(CCOC(C)=O)nn1
 SMILES IDX 21 1 22 2 23 3 20 5 18 6 16 7 15 8 9 9 8 10 14 11 6 12 5 13
 SMILES IDX 10 14 11 16 12 17 13 18 7 20 4 22 2 23 1 25 3 26 17 27 19 29
 SMILES IDX 24 31 25 32 26 33 27 34 36 35 28 36 35 37 29 38 30 39 31 40
 SMILES IDX 32 41 34 42 33 43
 H PARENT 21 4 10 15 13 19 7 21 4 24 17 28 19 30
 Flexibility Score: inf
  4 active torsions:
  status: ('A' for Active; 'I' for Inactive)
    1  A    between atoms: CA   and  CB  
    2  A    between atoms: CB   and  CG  
    3  A    between atoms: CG   and  CD  
    4  A    between atoms: CD   and  CE  

>  <TORSDO>
F 18

>  <BEGIN_>
RES LYS A 131

$$$$
ligand_19_pose_18_2HRL.pdbqt
 OpenBabel07062320523D

  6  5  0  0  0  0  0  0  0  0999 V2000
   33.1930   34.6630    9.2900 C   0  0  0  0  0  0  0  0  0  0  0  0
   32.0600   35.3600   10.0340 C   0  0  0  0  0  0  0  0  0  0  0  0
   30.7340   34.6550    9.9090 C   0  0  0  0  0  0  0  0  0  0  0  0
   30.2940   34.5920    8.4550 C   0  0  0  0  0  0  0  0  0  0  0  0
   28.7810   34.5390    8.3580 C   0  0  0  0  0  0  0  0  0  0  0  0
   28.1980   33.7690    9.4920 N   0  0  0  0  0  0  0  0  0  0  0  0
  1  2  1  0  0  0  0
  3  2  1  0  0  0  0
  4  3  1  0  0  0  0
  5  4  1  0  0  0  0
  5  6  1  0  0  0  0
M  END
>  <EGIN_R>
ES LYS A 135

>  <REMARK>
  4 active torsions:
  status: ('A' for Active; 'I' for Inactive)
    5  A    between atoms: CA   and  CB  
    6  A    between atoms: CB   and  CG  
    7  A    between atoms: CG   and  CD  
    8  A    between atoms: CD   and  CE  

$$$$
