ligand_16_pose_11_2HRL.pdbqt
 OpenBabel07062320523D

 54 55  0  0  1  0  0  0  0  0999 V2000
   28.8370   38.3490   11.3040 N   0  0  0  0  0  0  0  0  0  0  0  0
   27.8530   37.3670   11.1030 C   0  0  0  0  0  0  0  0  0  0  0  0
   27.2830   37.2760   10.0040 O   0  0  0  0  0  0  0  0  0  0  0  0
   29.2740   38.3630   12.2760 H   0  0  0  0  0  0  0  0  0  0  0  0
   29.2530   39.2880   10.2960 C   0  0  0  0  0  0  0  0  0  0  0  0
   30.5850   38.8660    9.7350 C   0  0  2  0  0  0  0  0  0  0  0  0
   30.5280   38.3880    8.3200 C   0  0  1  0  0  0  0  0  0  0  0  0
   29.3310   39.0230    7.5890 C   0  0  2  0  0  0  0  0  0  0  0  0
   27.7210   38.4340    6.0390 C   0  0  2  0  0  0  0  0  0  0  0  0
   28.3160   39.2870    4.9290 C   0  0  0  0  0  0  0  0  0  0  0  0
   28.7670   38.0220    6.8280 O   0  0  0  0  0  0  0  0  0  0  0  0
   29.0690   40.4410    5.5080 C   0  0  1  0  0  0  0  0  0  0  0  0
   29.8900   40.0890    6.7170 C   0  0  1  0  0  0  0  0  0  0  0  0
   27.2340   37.2810    5.3580 O   0  0  0  0  0  0  0  0  0  0  0  0
   26.9690   36.6060    6.0580 H   0  0  0  0  0  0  0  0  0  0  0  0
   26.6150   39.1110    6.7210 C   0  0  0  0  0  0  0  0  0  0  0  0
   25.9960   40.0490    6.1120 O   0  0  0  0  0  0  0  0  0  0  0  0
   26.1460   38.8470    7.9930 O   0  0  0  0  0  0  0  0  0  0  0  0
   26.4910   39.4320    8.7420 H   0  0  0  0  0  0  0  0  0  0  0  0
   29.9740   40.8760    4.5100 O   0  0  0  0  0  0  0  0  0  0  0  0
   29.4920   40.7830    3.6530 H   0  0  0  0  0  0  0  0  0  0  0  0
   30.2290   41.3010    7.4350 N   0  0  0  0  0  0  0  0  0  0  0  0
   31.5080   41.9030    7.3340 C   0  0  0  0  0  0  0  0  0  0  0  0
   29.5330   41.7700    8.0530 H   0  0  0  0  0  0  0  0  0  0  0  0
   31.8380   43.1640    8.0900 C   0  0  0  0  0  0  0  0  0  0  0  0
   32.3630   41.3690    6.6020 O   0  0  0  0  0  0  0  0  0  0  0  0
   31.6940   38.5400    7.6090 O   0  0  0  0  0  0  0  0  0  0  0  0
   32.4590   38.6440    8.2310 H   0  0  0  0  0  0  0  0  0  0  0  0
   31.2170   37.9040   10.5350 O   0  0  0  0  0  0  0  0  0  0  0  0
   31.9600   37.4860   10.0140 H   0  0  0  0  0  0  0  0  0  0  0  0
   27.4660   36.4630   12.0840 O   0  0  0  0  0  0  0  0  0  0  0  0
   28.0770   35.2120   12.2860 C   0  0  0  0  0  0  0  0  0  0  0  0
   29.2420   35.3610   13.1820 C   0  0  0  0  0  0  0  0  0  0  0  0
   30.1160   34.3370   13.5500 C   0  0  0  0  0  0  0  0  0  0  0  0
   29.7110   36.4480   13.8250 N   0  0  0  0  0  0  0  0  0  0  0  0
   31.0460   34.8360   14.3740 N   0  0  0  0  0  0  0  0  0  0  0  0
   30.7800   36.1110   14.5240 N   0  0  0  0  0  0  0  0  0  0  0  0
   32.1480   34.0910   15.0000 C   0  0  0  0  0  0  0  0  0  0  0  0
   31.5030   33.2380   16.0490 C   0  0  0  0  0  0  0  0  0  0  0  0
   31.3760   33.7200   17.3220 C   0  0  0  0  0  0  0  0  0  0  0  0
   31.0390   31.9770   15.7690 C   0  0  0  0  0  0  0  0  0  0  0  0
   30.7830   32.9470   18.3250 C   0  0  0  0  0  0  0  0  0  0  0  0
   30.4490   31.2070   16.7650 C   0  0  0  0  0  0  0  0  0  0  0  0
   30.3150   31.6840   18.0540 C   0  0  0  0  0  0  0  0  0  0  0  0
   29.6940   30.8700   19.0900 C   0  0  0  0  0  0  0  0  0  0  0  0
   28.6310   31.1920   19.6640 O   0  0  0  0  0  0  0  0  0  0  0  0
   30.2970   29.6750   19.4680 O   0  0  0  0  0  0  0  0  0  0  0  0
   31.2740   29.5060   19.3010 H   0  0  0  0  0  0  0  0  0  0  0  0
   29.8670   25.5550   16.9770 C   0  0  0  0  0  0  0  0  0  0  0  0
   28.3450   25.7220   17.0260 C   0  0  0  0  0  0  0  0  0  0  0  0
   27.5990   24.4580   16.6280 C   0  0  0  0  0  0  0  0  0  0  0  0
   27.0650   23.7160   17.8220 C   0  0  0  0  0  0  0  0  0  0  0  0
   25.7200   24.3080   18.2300 C   0  0  0  0  0  0  0  0  0  0  0  0
   24.7940   23.2380   18.6700 N   0  0  0  0  0  0  0  0  0  0  0  0
  1  4  1  0  0  0  0
  2  1  1  0  0  0  0
  2 31  1  0  0  0  0
  3  2  2  0  0  0  0
  5  1  1  0  0  0  0
  6  5  1  1  0  0  0
  6 29  1  0  0  0  0
  7 27  1  6  0  0  0
  7  6  1  0  0  0  0
  8  7  1  6  0  0  0
  9 14  1  6  0  0  0
  9 16  1  0  0  0  0
  9 11  1  0  0  0  0
 10 12  1  0  0  0  0
 10  9  1  0  0  0  0
 11  8  1  0  0  0  0
 12 20  1  6  0  0  0
 12 13  1  0  0  0  0
 13 22  1  1  0  0  0
 13  8  1  0  0  0  0
 14 15  1  0  0  0  0
 16 18  1  0  0  0  0
 17 16  2  0  0  0  0
 18 19  1  0  0  0  0
 21 20  1  0  0  0  0
 22 24  1  0  0  0  0
 23 22  1  0  0  0  0
 23 25  1  0  0  0  0
 26 23  2  0  0  0  0
 27 28  1  0  0  0  0
 30 29  1  0  0  0  0
 31 32  1  0  0  0  0
 32 33  1  0  0  0  0
 33 34  2  0  0  0  0
 33 35  1  0  0  0  0
 34 36  1  0  0  0  0
 35 37  2  0  0  0  0
 36 37  1  0  0  0  0
 36 38  1  0  0  0  0
 38 39  1  0  0  0  0
 39 40  1  0  0  0  0
 40 42  2  0  0  0  0
 41 39  2  0  0  0  0
 41 43  1  0  0  0  0
 43 44  2  0  0  0  0
 44 42  1  0  0  0  0
 44 45  1  0  0  0  0
 45 47  1  0  0  0  0
 45 46  2  0  0  0  0
 48 47  1  0  0  0  0
 49 50  1  0  0  0  0
 51 50  1  0  0  0  0
 51 52  1  0  0  0  0
 52 53  1  0  0  0  0
 53 54  1  0  0  0  0
M  END
>  <REMARK>
 VINA RESULT:    -5.903      4.813     13.193
 INTER + INTRA:         -15.072
 INTER:                  -9.904
 INTRA:                  -5.168
 UNBOUND:                -3.993
 SMILES CC(=O)N[C@@H]1[C@@H](O)C[C@](O)(C(=O)O)O[C@H]1C(O)[C@H](O)CNC(=O)OCc1cn(Cc2ccc(C(=O)O)cc2)nn1
 SMILES IDX 21 1 22 2 23 3 20 5 18 6 16 7 15 8 9 9 8 10 14 11 6 12 5 13
 SMILES IDX 10 14 11 16 12 17 13 18 7 20 4 22 2 23 1 25 3 26 17 27 19 29
 SMILES IDX 24 31 25 32 26 33 27 34 40 35 28 36 39 37 29 38 30 39 31 40
 SMILES IDX 38 41 32 42 37 43 33 44 34 45 35 46 36 47
 H PARENT 21 4 10 15 13 19 7 21 4 24 17 28 19 30 36 48
 Flexibility Score: inf
  4 active torsions:
  status: ('A' for Active; 'I' for Inactive)
    1  A    between atoms: CA   and  CB  
    2  A    between atoms: CB   and  CG  
    3  A    between atoms: CG   and  CD  
    4  A    between atoms: CD   and  CE  

>  <TORSDO>
F 18

>  <BEGIN_>
RES LYS A 131

$$$$
ligand_16_pose_11_2HRL.pdbqt
 OpenBabel07062320523D

  6  5  0  0  0  0  0  0  0  0999 V2000
   33.1930   34.6630    9.2900 C   0  0  0  0  0  0  0  0  0  0  0  0
   32.0600   35.3600   10.0340 C   0  0  0  0  0  0  0  0  0  0  0  0
   30.7090   34.7380    9.7930 C   0  0  0  0  0  0  0  0  0  0  0  0
   30.4750   34.5220    8.3060 C   0  0  0  0  0  0  0  0  0  0  0  0
   29.0450   34.8670    7.9350 C   0  0  0  0  0  0  0  0  0  0  0  0
   28.0770   34.1500    8.8100 N   0  0  0  0  0  0  0  0  0  0  0  0
  1  2  1  0  0  0  0
  3  2  1  0  0  0  0
  4  3  1  0  0  0  0
  5  4  1  0  0  0  0
  5  6  1  0  0  0  0
M  END
>  <EGIN_R>
ES LYS A 135

>  <REMARK>
  4 active torsions:
  status: ('A' for Active; 'I' for Inactive)
    5  A    between atoms: CA   and  CB  
    6  A    between atoms: CB   and  CG  
    7  A    between atoms: CG   and  CD  
    8  A    between atoms: CD   and  CE  

$$$$
