ligand_49_pose_16_2HRL.pdbqt
 OpenBabel07062320523D

 48 49  0  0  1  0  0  0  0  0999 V2000
   30.7250   31.0850   17.0180 C   0  0  0  0  0  0  0  0  0  0  0  0
   30.7290   31.9930   15.8200 C   0  0  2  0  0  0  0  0  0  0  0  0
   30.7560   33.4100   16.3570 C   0  0  1  0  0  0  0  0  0  0  0  0
   29.4560   34.1240   16.1580 C   0  0  2  0  0  0  0  0  0  0  0  0
   27.2760   34.1430   16.9430 C   0  0  2  0  0  0  0  0  0  0  0  0
   27.1830   35.2410   15.8950 C   0  0  0  0  0  0  0  0  0  0  0  0
   28.4210   33.3870   16.6830 O   0  0  0  0  0  0  0  0  0  0  0  0
   27.6730   34.6470   14.5900 C   0  0  1  0  0  0  0  0  0  0  0  0
   29.1830   34.4940   14.7270 C   0  0  1  0  0  0  0  0  0  0  0  0
   26.1300   33.3690   16.8090 O   0  0  0  0  0  0  0  0  0  0  0  0
   26.2240   32.5950   17.4470 H   0  0  0  0  0  0  0  0  0  0  0  0
   27.3280   34.6840   18.3070 C   0  0  0  0  0  0  0  0  0  0  0  0
   26.5360   35.5820   18.6880 O   0  0  0  0  0  0  0  0  0  0  0  0
   28.2600   34.2170   19.2190 O   0  0  0  0  0  0  0  0  0  0  0  0
   29.1850   34.6520   19.3320 H   0  0  0  0  0  0  0  0  0  0  0  0
   27.0830   33.3770   14.4760 O   0  0  0  0  0  0  0  0  0  0  0  0
   26.6700   33.1710   15.3550 H   0  0  0  0  0  0  0  0  0  0  0  0
   29.8110   35.7460   14.3550 N   0  0  0  0  0  0  0  0  0  0  0  0
   30.7300   35.8070   13.2840 C   0  0  0  0  0  0  0  0  0  0  0  0
   29.5890   36.6130   14.8760 H   0  0  0  0  0  0  0  0  0  0  0  0
   31.4080   37.0530   12.8500 C   0  0  0  0  0  0  0  0  0  0  0  0
   30.9860   34.7500   12.6650 O   0  0  0  0  0  0  0  0  0  0  0  0
   30.9820   33.3080   17.7310 O   0  0  0  0  0  0  0  0  0  0  0  0
   31.3470   34.1220   18.1310 H   0  0  0  0  0  0  0  0  0  0  0  0
   29.6180   31.8140   15.0300 O   0  0  0  0  0  0  0  0  0  0  0  0
   29.4160   32.6610   14.5490 H   0  0  0  0  0  0  0  0  0  0  0  0
   29.4760   30.4660   17.3280 N   0  0  0  0  0  0  0  0  0  0  0  0
   28.7160   30.6700   18.4850 C   0  0  0  0  0  0  0  0  0  0  0  0
   29.0950   29.7840   16.5970 H   0  0  0  0  0  0  0  0  0  0  0  0
   29.1220   31.4530   19.3740 O   0  0  0  0  0  0  0  0  0  0  0  0
   27.4920   29.9990   18.6600 O   0  0  0  0  0  0  0  0  0  0  0  0
   27.1490   29.0160   17.7010 C   0  0  0  0  0  0  0  0  0  0  0  0
   26.3280   29.6570   16.6510 C   0  0  0  0  0  0  0  0  0  0  0  0
   25.0010   29.3290   16.4040 C   0  0  0  0  0  0  0  0  0  0  0  0
   26.6370   30.6080   15.7770 N   0  0  0  0  0  0  0  0  0  0  0  0
   24.5760   30.0950   15.3990 N   0  0  0  0  0  0  0  0  0  0  0  0
   25.5790   30.8660   15.0270 N   0  0  0  0  0  0  0  0  0  0  0  0
   23.2240   30.0360   14.8540 C   0  0  0  0  0  0  0  0  0  0  0  0
   23.1450   31.0250   13.7250 C   0  0  0  0  0  0  0  0  0  0  0  0
   22.9960   28.6640   14.2610 C   0  0  0  0  0  0  0  0  0  0  0  0
   22.7140   30.2620   12.5140 C   0  0  0  0  0  0  0  0  0  0  0  0
   23.2040   28.8630   12.7700 C   0  0  0  0  0  0  0  0  0  0  0  0
   29.8670   25.5550   16.9770 C   0  0  0  0  0  0  0  0  0  0  0  0
   28.3450   25.7220   17.0260 C   0  0  0  0  0  0  0  0  0  0  0  0
   27.6050   24.3930   17.0390 C   0  0  0  0  0  0  0  0  0  0  0  0
   26.4910   24.3760   18.0490 C   0  0  0  0  0  0  0  0  0  0  0  0
   25.2110   23.8750   17.3860 C   0  0  0  0  0  0  0  0  0  0  0  0
   25.1090   22.4010   17.5020 N   0  0  0  0  0  0  0  0  0  0  0  0
  1 27  1  0  0  0  0
  2  3  1  0  0  0  0
  2  1  1  1  0  0  0
  3 23  1  1  0  0  0
  4  3  1  6  0  0  0
  4  7  1  0  0  0  0
  5 10  1  6  0  0  0
  5 12  1  0  0  0  0
  6  5  1  0  0  0  0
  7  5  1  0  0  0  0
  8 16  1  1  0  0  0
  8  9  1  0  0  0  0
  8  6  1  0  0  0  0
  9 18  1  1  0  0  0
  9  4  1  0  0  0  0
 10 11  1  0  0  0  0
 12 13  2  0  0  0  0
 12 14  1  0  0  0  0
 14 15  1  0  0  0  0
 16 17  1  0  0  0  0
 18 20  1  0  0  0  0
 19 18  1  0  0  0  0
 21 19  1  0  0  0  0
 22 19  2  0  0  0  0
 23 24  1  0  0  0  0
 25  2  1  0  0  0  0
 26 25  1  0  0  0  0
 27 28  1  0  0  0  0
 28 31  1  0  0  0  0
 28 30  2  0  0  0  0
 29 27  1  0  0  0  0
 32 31  1  0  0  0  0
 33 32  1  0  0  0  0
 34 33  2  0  0  0  0
 35 33  1  0  0  0  0
 36 34  1  0  0  0  0
 37 36  1  0  0  0  0
 37 35  2  0  0  0  0
 38 36  1  0  0  0  0
 39 38  1  0  0  0  0
 40 38  1  0  0  0  0
 41 42  1  0  0  0  0
 41 39  1  0  0  0  0
 42 40  1  0  0  0  0
 43 44  1  0  0  0  0
 44 45  1  0  0  0  0
 45 46  1  0  0  0  0
 47 48  1  0  0  0  0
 47 46  1  0  0  0  0
M  END
>  <REMARK>
 VINA RESULT:    -4.856      1.723      3.321
 INTER + INTRA:         -13.430
 INTER:                  -6.954
 INTRA:                  -6.476
 UNBOUND:                -5.026
 SMILES CC(=O)N[C@@H]1[C@@H](O)C[C@](O)(C(=O)O)O[C@H]1C(O)[C@H](O)CNC(=O)OCc1cn(C2CCCC2)nn1
 SMILES IDX 20 1 18 2 16 3 15 4 9 5 8 6 14 7 6 8 5 9 10 10 11 12 12 13
 SMILES IDX 13 14 7 16 4 18 2 19 1 21 3 22 17 23 19 25 21 27 22 28 23 30
 SMILES IDX 24 31 25 32 26 33 27 34 35 35 28 36 34 37 29 38 30 39 33 40
 SMILES IDX 31 41 32 42
 H PARENT 10 11 13 15 7 17 4 20 17 24 19 26 21 29
 Flexibility Score: inf
  4 active torsions:
  status: ('A' for Active; 'I' for Inactive)
    1  A    between atoms: CA   and  CB  
    2  A    between atoms: CB   and  CG  
    3  A    between atoms: CG   and  CD  
    4  A    between atoms: CD   and  CE  

>  <TORSDO>
F 15

>  <BEGIN_>
RES LYS A 131

$$$$
ligand_49_pose_16_2HRL.pdbqt
 OpenBabel07062320523D

  6  5  0  0  0  0  0  0  0  0999 V2000
   33.1930   34.6630    9.2900 C   0  0  0  0  0  0  0  0  0  0  0  0
   32.0600   35.3600   10.0340 C   0  0  0  0  0  0  0  0  0  0  0  0
   30.8160   35.5420    9.2030 C   0  0  0  0  0  0  0  0  0  0  0  0
   30.1000   34.2140    9.0120 C   0  0  0  0  0  0  0  0  0  0  0  0
   28.7210   34.4340    8.4200 C   0  0  0  0  0  0  0  0  0  0  0  0
   28.1270   35.7110    8.9020 N   0  0  0  0  0  0  0  0  0  0  0  0
  1  2  1  0  0  0  0
  3  2  1  0  0  0  0
  4  3  1  0  0  0  0
  5  6  1  0  0  0  0
  5  4  1  0  0  0  0
M  END
>  <EGIN_R>
ES LYS A 135

>  <REMARK>
  4 active torsions:
  status: ('A' for Active; 'I' for Inactive)
    5  A    between atoms: CA   and  CB  
    6  A    between atoms: CB   and  CG  
    7  A    between atoms: CG   and  CD  
    8  A    between atoms: CD   and  CE  

$$$$
