ligand_37_pose_14_2HRL.pdbqt
 OpenBabel07062320523D

 55 56  0  0  1  0  0  0  0  0999 V2000
   27.2420   27.0080   21.2640 O   0  0  0  0  0  0  0  0  0  0  0  0
   27.0340   27.1840   19.8760 C   0  0  0  0  0  0  0  0  0  0  0  0
   25.7310   27.3640   19.3660 N   0  0  0  0  0  0  0  0  0  0  0  0
   24.9480   27.3390   20.0930 H   0  0  0  0  0  0  0  0  0  0  0  0
   28.0610   27.1690   19.1720 O   0  0  0  0  0  0  0  0  0  0  0  0
   25.4460   27.5650   17.9810 C   0  0  0  0  0  0  0  0  0  0  0  0
   25.2150   29.0020   17.6540 C   0  0  2  0  0  0  0  0  0  0  0  0
   26.4980   29.6270   17.1110 C   0  0  2  0  0  0  0  0  0  0  0  0
   26.2700   30.5410   15.9480 C   0  0  2  0  0  0  0  0  0  0  0  0
   26.3880   32.5830   17.0880 C   0  0  2  0  0  0  0  0  0  0  0  0
   24.8950   32.6590   17.0520 C   0  0  0  0  0  0  0  0  0  0  0  0
   26.9360   31.7650   16.1310 O   0  0  0  0  0  0  0  0  0  0  0  0
   24.4130   32.1980   15.6920 C   0  0  1  0  0  0  0  0  0  0  0  0
   24.8460   30.7480   15.5480 C   0  0  1  0  0  0  0  0  0  0  0  0
   26.8200   32.2420   18.3490 O   0  0  0  0  0  0  0  0  0  0  0  0
   27.7770   32.4700   18.5090 H   0  0  0  0  0  0  0  0  0  0  0  0
   26.9290   33.9600   16.7960 C   0  0  0  0  0  0  0  0  0  0  0  0
   26.2660   34.9870   17.0960 O   0  0  0  0  0  0  0  0  0  0  0  0
   28.1630   34.1530   16.1940 O   0  0  0  0  0  0  0  0  0  0  0  0
   28.8580   33.3940   16.1220 H   0  0  0  0  0  0  0  0  0  0  0  0
   23.0440   32.3420   15.5810 O   0  0  0  0  0  0  0  0  0  0  0  0
   22.7360   33.2680   15.7500 H   0  0  0  0  0  0  0  0  0  0  0  0
   24.5670   30.2990   14.1800 N   0  0  0  0  0  0  0  0  0  0  0  0
   23.6140   29.2800   13.8850 C   0  0  0  0  0  0  0  0  0  0  0  0
   25.0730   30.7220   13.3590 H   0  0  0  0  0  0  0  0  0  0  0  0
   23.3730   28.8640   12.4690 C   0  0  0  0  0  0  0  0  0  0  0  0
   22.9790   28.7370   14.8200 O   0  0  0  0  0  0  0  0  0  0  0  0
   27.3590   28.6010   16.7040 O   0  0  0  0  0  0  0  0  0  0  0  0
   27.9500   28.9430   15.9790 H   0  0  0  0  0  0  0  0  0  0  0  0
   24.8140   29.6870   18.8010 O   0  0  0  0  0  0  0  0  0  0  0  0
   23.8210   29.6560   18.9330 H   0  0  0  0  0  0  0  0  0  0  0  0
   26.4900   27.7930   22.1660 C   0  0  0  0  0  0  0  0  0  0  0  0
   26.6540   29.2370   21.9160 C   0  0  0  0  0  0  0  0  0  0  0  0
   27.7600   30.0290   22.1170 C   0  0  0  0  0  0  0  0  0  0  0  0
   25.7090   30.0550   21.4250 N   0  0  0  0  0  0  0  0  0  0  0  0
   27.4650   31.2980   21.7490 N   0  0  0  0  0  0  0  0  0  0  0  0
   26.2270   31.2850   21.3370 N   0  0  0  0  0  0  0  0  0  0  0  0
   28.3630   32.4210   21.8110 C   0  0  1  0  0  0  0  0  0  0  0  0
   28.8390   32.6300   23.2310 C   0  0  0  0  0  0  0  0  0  0  0  0
   29.4660   32.2180   20.8630 C   0  0  0  0  0  0  0  0  0  0  0  0
   30.6630   32.2750   21.2770 O   0  0  0  0  0  0  0  0  0  0  0  0
   29.2610   31.9650   19.5240 O   0  0  0  0  0  0  0  0  0  0  0  0
   30.0180   31.1270   18.7080 C   0  0  0  0  0  0  0  0  0  0  0  0
   30.5740   31.9200   17.5770 C   0  0  0  0  0  0  0  0  0  0  0  0
   30.4830   31.4480   16.2860 C   0  0  0  0  0  0  0  0  0  0  0  0
   31.1750   33.1250   17.8150 C   0  0  0  0  0  0  0  0  0  0  0  0
   30.9910   32.1780   15.2390 C   0  0  0  0  0  0  0  0  0  0  0  0
   31.6900   33.8730   16.7930 C   0  0  0  0  0  0  0  0  0  0  0  0
   31.5970   33.3980   15.5070 C   0  0  0  0  0  0  0  0  0  0  0  0
   29.8670   25.5550   16.9770 C   0  0  0  0  0  0  0  0  0  0  0  0
   28.3450   25.7220   17.0260 C   0  0  0  0  0  0  0  0  0  0  0  0
   27.5990   24.4500   16.6520 C   0  0  0  0  0  0  0  0  0  0  0  0
   27.0080   23.7660   17.8540 C   0  0  0  0  0  0  0  0  0  0  0  0
   25.4900   23.7110   17.7140 C   0  0  0  0  0  0  0  0  0  0  0  0
   24.8390   23.9990   19.0130 N   0  0  0  0  0  0  0  0  0  0  0  0
  1 32  1  0  0  0  0
  2  1  1  0  0  0  0
  3  2  1  0  0  0  0
  3  4  1  0  0  0  0
  5  2  2  0  0  0  0
  6  3  1  0  0  0  0
  7  6  1  1  0  0  0
  7 30  1  0  0  0  0
  8 28  1  6  0  0  0
  8  7  1  0  0  0  0
  9 12  1  0  0  0  0
  9  8  1  1  0  0  0
 10 17  1  6  0  0  0
 10 15  1  0  0  0  0
 11 10  1  0  0  0  0
 12 10  1  0  0  0  0
 13 21  1  1  0  0  0
 13 11  1  0  0  0  0
 14 23  1  6  0  0  0
 14 13  1  0  0  0  0
 14  9  1  0  0  0  0
 15 16  1  0  0  0  0
 17 18  2  0  0  0  0
 19 17  1  0  0  0  0
 20 19  1  0  0  0  0
 21 22  1  0  0  0  0
 24 23  1  0  0  0  0
 24 27  2  0  0  0  0
 25 23  1  0  0  0  0
 26 24  1  0  0  0  0
 29 28  1  0  0  0  0
 30 31  1  0  0  0  0
 33 34  2  0  0  0  0
 33 32  1  0  0  0  0
 35 33  1  0  0  0  0
 36 38  1  0  0  0  0
 36 34  1  0  0  0  0
 37 35  2  0  0  0  0
 37 36  1  0  0  0  0
 38 39  1  1  0  0  0
 40 41  2  0  0  0  0
 40 38  1  0  0  0  0
 42 40  1  0  0  0  0
 43 42  1  0  0  0  0
 44 46  1  0  0  0  0
 44 43  1  0  0  0  0
 45 44  2  0  0  0  0
 47 49  2  0  0  0  0
 47 45  1  0  0  0  0
 48 46  2  0  0  0  0
 49 48  1  0  0  0  0
 50 51  1  0  0  0  0
 52 51  1  0  0  0  0
 52 53  1  0  0  0  0
 54 53  1  0  0  0  0
 54 55  1  0  0  0  0
M  END
>  <REMARK>
 VINA RESULT:    -5.508      6.942     11.636
 INTER + INTRA:         -15.932
 INTER:                  -8.010
 INTRA:                  -7.921
 UNBOUND:                -5.110
 SMILES CC(=O)N[C@@H]1[C@@H](O)C[C@](O)(C(=O)O)O[C@H]1C(O)[C@H](O)CNC(=O)OCc1cn([C@@H](C)C(=O)OCc2ccccc2)nn1
 SMILES IDX 24 1 22 2 21 3 23 5 20 6 18 7 16 8 15 9 9 10 8 11 14 12 6 13
 SMILES IDX 5 14 10 15 11 17 12 18 13 19 7 21 4 23 2 24 1 26 3 27 17 28
 SMILES IDX 19 30 25 32 26 33 27 34 42 35 28 36 41 37 29 38 30 39 31 40
 SMILES IDX 32 41 33 42 34 43 35 44 36 45 40 46 37 47 39 48 38 49
 H PARENT 21 4 10 16 13 20 7 22 4 25 17 29 19 31
 Flexibility Score: inf
  4 active torsions:
  status: ('A' for Active; 'I' for Inactive)
    1  A    between atoms: CA   and  CB  
    2  A    between atoms: CB   and  CG  
    3  A    between atoms: CG   and  CD  
    4  A    between atoms: CD   and  CE  

>  <TORSDO>
F 19

>  <BEGIN_>
RES LYS A 131

$$$$
ligand_37_pose_14_2HRL.pdbqt
 OpenBabel07062320523D

  6  5  0  0  0  0  0  0  0  0999 V2000
   33.1930   34.6630    9.2900 C   0  0  0  0  0  0  0  0  0  0  0  0
   32.0600   35.3600   10.0340 C   0  0  0  0  0  0  0  0  0  0  0  0
   30.8010   35.5010    9.2190 C   0  0  0  0  0  0  0  0  0  0  0  0
   30.1330   34.1480    9.0250 C   0  0  0  0  0  0  0  0  0  0  0  0
   28.6760   34.3240    8.6410 C   0  0  0  0  0  0  0  0  0  0  0  0
   27.7750   33.7410    9.6740 N   0  0  0  0  0  0  0  0  0  0  0  0
  1  2  1  0  0  0  0
  3  2  1  0  0  0  0
  4  3  1  0  0  0  0
  5  4  1  0  0  0  0
  5  6  1  0  0  0  0
M  END
>  <EGIN_R>
ES LYS A 135

>  <REMARK>
  4 active torsions:
  status: ('A' for Active; 'I' for Inactive)
    5  A    between atoms: CA   and  CB  
    6  A    between atoms: CB   and  CG  
    7  A    between atoms: CG   and  CD  
    8  A    between atoms: CD   and  CE  

$$$$
