ligand_53_pose_19_2HRL.pdbqt
 OpenBabel07062320523D

 48 48  0  0  1  0  0  0  0  0999 V2000
   21.0710   38.2470    8.2590 N   0  0  0  0  0  0  0  0  0  0  0  0
   20.4560   38.9980    9.2790 C   0  0  0  0  0  0  0  0  0  0  0  0
   20.6550   38.7720   10.4720 O   0  0  0  0  0  0  0  0  0  0  0  0
   20.8210   38.5490    7.2690 H   0  0  0  0  0  0  0  0  0  0  0  0
   21.9770   37.1410    8.4290 C   0  0  0  0  0  0  0  0  0  0  0  0
   23.3610   37.3460    7.9020 C   0  0  2  0  0  0  0  0  0  0  0  0
   24.3240   37.8440    8.9130 C   0  0  1  0  0  0  0  0  0  0  0  0
   25.6910   38.1920    8.3870 C   0  0  2  0  0  0  0  0  0  0  0  0
   27.0790   37.7900    6.5300 C   0  0  2  0  0  0  0  0  0  0  0  0
   28.3090   37.8010    7.3750 C   0  0  0  0  0  0  0  0  0  0  0  0
   25.8910   37.5830    7.1400 O   0  0  0  0  0  0  0  0  0  0  0  0
   28.0580   38.4890    8.6800 C   0  0  1  0  0  0  0  0  0  0  0  0
   26.8300   37.7820    9.2820 C   0  0  1  0  0  0  0  0  0  0  0  0
   27.3010   36.8080    5.5200 O   0  0  0  0  0  0  0  0  0  0  0  0
   28.2680   36.5790    5.5930 H   0  0  0  0  0  0  0  0  0  0  0  0
   27.0280   39.0760    5.7710 C   0  0  0  0  0  0  0  0  0  0  0  0
   27.9760   39.5460    5.1090 O   0  0  0  0  0  0  0  0  0  0  0  0
   25.8570   39.8040    5.7940 O   0  0  0  0  0  0  0  0  0  0  0  0
   24.9670   39.4320    5.4710 H   0  0  0  0  0  0  0  0  0  0  0  0
   29.1400   38.4000    9.5510 O   0  0  0  0  0  0  0  0  0  0  0  0
   29.3440   37.4350    9.6600 H   0  0  0  0  0  0  0  0  0  0  0  0
   26.7290   38.1300   10.6610 N   0  0  0  0  0  0  0  0  0  0  0  0
   26.4420   37.1680   11.6760 C   0  0  0  0  0  0  0  0  0  0  0  0
   26.8780   39.1110   10.9620 H   0  0  0  0  0  0  0  0  0  0  0  0
   26.3290   37.4920   13.1160 C   0  0  0  0  0  0  0  0  0  0  0  0
   26.2780   35.9770   11.3210 O   0  0  0  0  0  0  0  0  0  0  0  0
   23.7690   38.8320    9.7090 O   0  0  0  0  0  0  0  0  0  0  0  0
   22.7810   38.7680    9.7490 H   0  0  0  0  0  0  0  0  0  0  0  0
   23.2870   38.2050    6.7940 O   0  0  0  0  0  0  0  0  0  0  0  0
   22.3590   38.3500    6.5030 H   0  0  0  0  0  0  0  0  0  0  0  0
   19.5870   40.0420    8.9720 O   0  0  0  0  0  0  0  0  0  0  0  0
   19.9490   41.2230    8.3290 C   0  0  0  0  0  0  0  0  0  0  0  0
   21.4120   41.4540    8.2410 C   0  0  0  0  0  0  0  0  0  0  0  0
   22.2330   42.1740    9.0520 C   0  0  0  0  0  0  0  0  0  0  0  0
   22.2260   40.9490    7.2680 N   0  0  0  0  0  0  0  0  0  0  0  0
   23.4870   42.0960    8.5730 N   0  0  0  0  0  0  0  0  0  0  0  0
   23.4690   41.3540    7.4980 N   0  0  0  0  0  0  0  0  0  0  0  0
   24.6490   42.7310    9.1620 C   0  0  0  0  0  0  0  0  0  0  0  0
   25.7750   41.7770    9.1980 C   0  0  0  0  0  0  0  0  0  0  0  0
   25.9680   41.0910   10.2410 O   0  0  0  0  0  0  0  0  0  0  0  0
   26.6070   41.6320    8.1080 O   0  0  0  0  0  0  0  0  0  0  0  0
   26.1820   41.7540    7.1840 H   0  0  0  0  0  0  0  0  0  0  0  0
   29.8670   25.5550   16.9770 C   0  0  0  0  0  0  0  0  0  0  0  0
   28.3450   25.7220   17.0260 C   0  0  0  0  0  0  0  0  0  0  0  0
   27.6010   24.4030   16.8870 C   0  0  0  0  0  0  0  0  0  0  0  0
   26.1530   24.5260   17.2720 C   0  0  0  0  0  0  0  0  0  0  0  0
   25.6360   23.1720   17.7490 C   0  0  0  0  0  0  0  0  0  0  0  0
   25.5180   23.1520   19.2260 N   0  0  0  0  0  0  0  0  0  0  0  0
  1  5  1  0  0  0  0
  1  2  1  0  0  0  0
  2  3  2  0  0  0  0
  4  1  1  0  0  0  0
  6  5  1  1  0  0  0
  6  7  1  0  0  0  0
  7 27  1  6  0  0  0
  8  7  1  1  0  0  0
  8 13  1  0  0  0  0
  9 14  1  6  0  0  0
  9 11  1  0  0  0  0
  9 10  1  0  0  0  0
 10 12  1  0  0  0  0
 11  8  1  0  0  0  0
 12 13  1  0  0  0  0
 12 20  1  1  0  0  0
 13 22  1  1  0  0  0
 14 15  1  0  0  0  0
 16 18  1  0  0  0  0
 16  9  1  0  0  0  0
 17 16  2  0  0  0  0
 19 18  1  0  0  0  0
 20 21  1  0  0  0  0
 22 24  1  0  0  0  0
 22 23  1  0  0  0  0
 23 25  1  0  0  0  0
 26 23  2  0  0  0  0
 27 28  1  0  0  0  0
 29  6  1  0  0  0  0
 30 29  1  0  0  0  0
 31  2  1  0  0  0  0
 32 31  1  0  0  0  0
 33 32  1  0  0  0  0
 33 34  2  0  0  0  0
 35 37  2  0  0  0  0
 35 33  1  0  0  0  0
 36 34  1  0  0  0  0
 36 38  1  0  0  0  0
 37 36  1  0  0  0  0
 38 39  1  0  0  0  0
 39 40  2  0  0  0  0
 41 39  1  0  0  0  0
 42 41  1  0  0  0  0
 43 44  1  0  0  0  0
 45 44  1  0  0  0  0
 45 46  1  0  0  0  0
 46 47  1  0  0  0  0
 47 48  1  0  0  0  0
M  END
>  <REMARK>
 VINA RESULT:    -3.790      5.921      9.565
 INTER + INTRA:         -13.254
 INTER:                  -5.773
 INTRA:                  -7.482
 UNBOUND:                -6.362
 SMILES CC(=O)N[C@@H]1[C@@H](O)C[C@](O)(C(=O)O)O[C@H]1C(O)[C@H](O)CNC(=O)OCc1cn(CC(=O)O)nn1
 SMILES IDX 21 1 22 2 23 3 20 5 18 6 16 7 15 8 9 9 8 10 14 11 6 12 5 13
 SMILES IDX 10 14 11 16 12 17 13 18 7 20 4 22 2 23 1 25 3 26 17 27 19 29
 SMILES IDX 24 31 25 32 26 33 27 34 34 35 28 36 33 37 29 38 30 39 31 40
 SMILES IDX 32 41
 H PARENT 21 4 10 15 13 19 7 21 4 24 17 28 19 30 32 42
 Flexibility Score: inf
  4 active torsions:
  status: ('A' for Active; 'I' for Inactive)
    1  A    between atoms: CA   and  CB  
    2  A    between atoms: CB   and  CG  
    3  A    between atoms: CG   and  CD  
    4  A    between atoms: CD   and  CE  

>  <TORSDO>
F 17

>  <BEGIN_>
RES LYS A 131

$$$$
ligand_53_pose_19_2HRL.pdbqt
 OpenBabel07062320523D

  6  5  0  0  0  0  0  0  0  0999 V2000
   33.1930   34.6630    9.2900 C   0  0  0  0  0  0  0  0  0  0  0  0
   32.0600   35.3600   10.0340 C   0  0  0  0  0  0  0  0  0  0  0  0
   30.7900   35.4700    9.2310 C   0  0  0  0  0  0  0  0  0  0  0  0
   29.8360   34.3370    9.5760 C   0  0  0  0  0  0  0  0  0  0  0  0
   28.5750   34.4280    8.7380 C   0  0  0  0  0  0  0  0  0  0  0  0
   27.4590   33.6670    9.3640 N   0  0  0  0  0  0  0  0  0  0  0  0
  1  2  1  0  0  0  0
  3  4  1  0  0  0  0
  3  2  1  0  0  0  0
  5  6  1  0  0  0  0
  5  4  1  0  0  0  0
M  END
>  <EGIN_R>
ES LYS A 135

>  <REMARK>
  4 active torsions:
  status: ('A' for Active; 'I' for Inactive)
    5  A    between atoms: CA   and  CB  
    6  A    between atoms: CB   and  CG  
    7  A    between atoms: CG   and  CD  
    8  A    between atoms: CD   and  CE  

$$$$
