ligand_2_pose_5_2HRL.pdbqt
 OpenBabel07062320523D

 50 51  0  0  1  0  0  0  0  0999 V2000
   23.0070   40.0060    7.5120 C   0  0  0  0  0  0  0  0  0  0  0  0
   24.4310   39.8530    7.0790 C   0  0  2  0  0  0  0  0  0  0  0  0
   25.3210   40.0440    8.3170 C   0  0  2  0  0  0  0  0  0  0  0  0
   26.8000   40.0220    7.9360 C   0  0  2  0  0  0  0  0  0  0  0  0
   27.4840   37.9610    7.0440 C   0  0  2  0  0  0  0  0  0  0  0  0
   28.8750   37.9890    7.6400 C   0  0  0  0  0  0  0  0  0  0  0  0
   26.9070   39.1690    6.8560 O   0  0  0  0  0  0  0  0  0  0  0  0
   29.0250   39.2190    8.4610 C   0  0  1  0  0  0  0  0  0  0  0  0
   27.6710   39.5820    9.0390 C   0  0  1  0  0  0  0  0  0  0  0  0
   26.7440   37.0770    7.8260 O   0  0  0  0  0  0  0  0  0  0  0  0
   26.5280   36.3070    7.2420 H   0  0  0  0  0  0  0  0  0  0  0  0
   27.6350   37.3300    5.7070 C   0  0  0  0  0  0  0  0  0  0  0  0
   27.8770   36.1020    5.6600 O   0  0  0  0  0  0  0  0  0  0  0  0
   27.5170   38.0450    4.5480 O   0  0  0  0  0  0  0  0  0  0  0  0
   27.4760   39.0670    4.5860 H   0  0  0  0  0  0  0  0  0  0  0  0
   30.0020   39.1140    9.4440 O   0  0  0  0  0  0  0  0  0  0  0  0
   30.3920   38.2160    9.4540 H   0  0  0  0  0  0  0  0  0  0  0  0
   27.8930   40.4870   10.1130 N   0  0  0  0  0  0  0  0  0  0  0  0
   27.4520   40.2490   11.4370 C   0  0  0  0  0  0  0  0  0  0  0  0
   28.4170   41.3690    9.8660 H   0  0  0  0  0  0  0  0  0  0  0  0
   27.7010   41.2140   12.5280 C   0  0  0  0  0  0  0  0  0  0  0  0
   26.8380   39.1590   11.5970 O   0  0  0  0  0  0  0  0  0  0  0  0
   25.0560   39.0350    9.2480 O   0  0  0  0  0  0  0  0  0  0  0  0
   24.1660   38.6120    9.0860 H   0  0  0  0  0  0  0  0  0  0  0  0
   24.7900   40.7180    6.0710 O   0  0  0  0  0  0  0  0  0  0  0  0
   25.0690   40.3170    5.2290 H   0  0  0  0  0  0  0  0  0  0  0  0
   22.2760   38.8030    7.7250 N   0  0  0  0  0  0  0  0  0  0  0  0
   21.7790   38.3630    8.9780 C   0  0  0  0  0  0  0  0  0  0  0  0
   22.0760   38.1730    6.8990 H   0  0  0  0  0  0  0  0  0  0  0  0
   21.9450   39.0240   10.0160 O   0  0  0  0  0  0  0  0  0  0  0  0
   21.0760   37.1460    9.0700 O   0  0  0  0  0  0  0  0  0  0  0  0
   21.6650   35.9310    8.6160 C   0  0  0  0  0  0  0  0  0  0  0  0
   22.9590   35.7910    9.3270 C   0  0  0  0  0  0  0  0  0  0  0  0
   23.1470   35.2050   10.5450 C   0  0  0  0  0  0  0  0  0  0  0  0
   24.1440   36.2070    8.9050 N   0  0  0  0  0  0  0  0  0  0  0  0
   24.4640   35.2890   10.8250 N   0  0  0  0  0  0  0  0  0  0  0  0
   25.0580   35.9020    9.8170 N   0  0  0  0  0  0  0  0  0  0  0  0
   25.0410   34.7770   12.0300 C   0  0  0  0  0  0  0  0  0  0  0  0
   26.2600   35.2520   12.4500 C   0  0  0  0  0  0  0  0  0  0  0  0
   24.3390   33.8220   12.7200 C   0  0  0  0  0  0  0  0  0  0  0  0
   26.7810   34.7310   13.6190 C   0  0  0  0  0  0  0  0  0  0  0  0
   24.8880   33.3220   13.8850 C   0  0  0  0  0  0  0  0  0  0  0  0
   26.1030   33.7640   14.3460 C   0  0  0  0  0  0  0  0  0  0  0  0
   26.7410   33.0920   15.8220 Cl  0  0  0  0  0  0  0  0  0  0  0  0
   29.8670   25.5550   16.9770 C   0  0  0  0  0  0  0  0  0  0  0  0
   28.3450   25.7220   17.0260 C   0  0  0  0  0  0  0  0  0  0  0  0
   27.6010   24.4020   16.8940 C   0  0  0  0  0  0  0  0  0  0  0  0
   26.1630   24.5180   17.3160 C   0  0  0  0  0  0  0  0  0  0  0  0
   25.9250   23.6590   18.5540 C   0  0  0  0  0  0  0  0  0  0  0  0
   25.5510   24.5080   19.7100 N   0  0  0  0  0  0  0  0  0  0  0  0
  1 27  1  0  0  0  0
  2  1  1  1  0  0  0
  2  3  1  0  0  0  0
  3 23  1  1  0  0  0
  4  3  1  1  0  0  0
  4  9  1  0  0  0  0
  5 12  1  6  0  0  0
  5  6  1  0  0  0  0
  5 10  1  0  0  0  0
  6  8  1  0  0  0  0
  7  5  1  0  0  0  0
  7  4  1  0  0  0  0
  8  9  1  0  0  0  0
  8 16  1  1  0  0  0
  9 18  1  1  0  0  0
 11 10  1  0  0  0  0
 13 12  2  0  0  0  0
 14 15  1  0  0  0  0
 14 12  1  0  0  0  0
 16 17  1  0  0  0  0
 18 19  1  0  0  0  0
 19 22  2  0  0  0  0
 19 21  1  0  0  0  0
 20 18  1  0  0  0  0
 24 23  1  0  0  0  0
 25  2  1  0  0  0  0
 26 25  1  0  0  0  0
 27 28  1  0  0  0  0
 28 31  1  0  0  0  0
 28 30  2  0  0  0  0
 29 27  1  0  0  0  0
 32 31  1  0  0  0  0
 32 33  1  0  0  0  0
 33 34  2  0  0  0  0
 34 36  1  0  0  0  0
 35 33  1  0  0  0  0
 35 37  2  0  0  0  0
 36 38  1  0  0  0  0
 37 36  1  0  0  0  0
 38 39  2  0  0  0  0
 38 40  1  0  0  0  0
 39 41  1  0  0  0  0
 40 42  2  0  0  0  0
 41 43  2  0  0  0  0
 42 43  1  0  0  0  0
 43 44  1  0  0  0  0
 45 46  1  0  0  0  0
 47 46  1  0  0  0  0
 47 48  1  0  0  0  0
 48 49  1  0  0  0  0
 49 50  1  0  0  0  0
M  END
>  <REMARK>
 VINA RESULT:    -4.246      9.720     14.367
 INTER + INTRA:         -14.356
 INTER:                  -7.184
 INTRA:                  -7.172
 UNBOUND:                -7.007
 SMILES CC(=O)N[C@@H]1[C@@H](O)C[C@](O)(C(=O)O)O[C@H]1C(O)[C@H](O)CNC(=O)OCc1cn(-c2ccc(Cl)cc2)nn1
 SMILES IDX 20 1 18 2 16 3 15 4 9 5 8 6 14 7 6 8 5 9 10 10 11 12 12 13
 SMILES IDX 13 14 7 16 4 18 2 19 1 21 3 22 17 23 19 25 21 27 22 28 23 30
 SMILES IDX 24 31 25 32 26 33 27 34 37 35 28 36 36 37 29 38 30 39 35 40
 SMILES IDX 31 41 34 42 32 43 33 44
 H PARENT 10 11 13 15 7 17 4 20 17 24 19 26 21 29
 Flexibility Score: inf
  4 active torsions:
  status: ('A' for Active; 'I' for Inactive)
    1  A    between atoms: CA   and  CB  
    2  A    between atoms: CB   and  CG  
    3  A    between atoms: CG   and  CD  
    4  A    between atoms: CD   and  CE  

>  <TORSDO>
F 15

>  <BEGIN_>
RES LYS A 131

$$$$
ligand_2_pose_5_2HRL.pdbqt
 OpenBabel07062320523D

  6  5  0  0  0  0  0  0  0  0999 V2000
   33.1930   34.6630    9.2900 C   0  0  0  0  0  0  0  0  0  0  0  0
   32.0600   35.3600   10.0340 C   0  0  0  0  0  0  0  0  0  0  0  0
   30.8000   35.5000    9.2190 C   0  0  0  0  0  0  0  0  0  0  0  0
   30.1570   34.1410    8.9870 C   0  0  0  0  0  0  0  0  0  0  0  0
   28.6910   34.2990    8.6330 C   0  0  0  0  0  0  0  0  0  0  0  0
   27.8210   33.6400    9.6460 N   0  0  0  0  0  0  0  0  0  0  0  0
  1  2  1  0  0  0  0
  3  2  1  0  0  0  0
  4  3  1  0  0  0  0
  5  4  1  0  0  0  0
  5  6  1  0  0  0  0
M  END
>  <EGIN_R>
ES LYS A 135

>  <REMARK>
  4 active torsions:
  status: ('A' for Active; 'I' for Inactive)
    5  A    between atoms: CA   and  CB  
    6  A    between atoms: CB   and  CG  
    7  A    between atoms: CG   and  CD  
    8  A    between atoms: CD   and  CE  

$$$$
