ligand_22_pose_8_2HRL.pdbqt
 OpenBabel07062320523D

 50 50  0  0  1  0  0  0  0  0999 V2000
   27.3830   38.4590    4.5110 N   0  0  0  0  0  0  0  0  0  0  0  0
   28.3030   37.7440    5.3140 C   0  0  0  0  0  0  0  0  0  0  0  0
   29.3930   38.2910    5.6990 O   0  0  0  0  0  0  0  0  0  0  0  0
   26.5000   38.0080    4.2050 H   0  0  0  0  0  0  0  0  0  0  0  0
   27.7130   39.8130    4.1460 C   0  0  0  0  0  0  0  0  0  0  0  0
   26.8950   40.8670    4.8040 C   0  0  2  0  0  0  0  0  0  0  0  0
   27.5810   41.5180    5.9790 C   0  0  1  0  0  0  0  0  0  0  0  0
   26.6340   41.4300    7.1820 C   0  0  2  0  0  0  0  0  0  0  0  0
   24.7960   42.5760    8.0290 C   0  0  2  0  0  0  0  0  0  0  0  0
   25.4070   42.5940    9.4120 C   0  0  0  0  0  0  0  0  0  0  0  0
   25.7220   42.4670    7.0200 O   0  0  0  0  0  0  0  0  0  0  0  0
   26.9010   42.7090    9.3130 C   0  0  1  0  0  0  0  0  0  0  0  0
   27.4280   41.5700    8.4630 C   0  0  1  0  0  0  0  0  0  0  0  0
   24.1770   43.8250    7.8620 O   0  0  0  0  0  0  0  0  0  0  0  0
   23.8600   43.9210    6.9460 H   0  0  0  0  0  0  0  0  0  0  0  0
   23.7500   41.5340    7.9340 C   0  0  0  0  0  0  0  0  0  0  0  0
   23.1930   41.3060    6.8420 O   0  0  0  0  0  0  0  0  0  0  0  0
   23.3560   40.7860    9.0330 O   0  0  0  0  0  0  0  0  0  0  0  0
   22.7630   39.9730    8.9490 H   0  0  0  0  0  0  0  0  0  0  0  0
   27.3240   43.9380    8.8690 O   0  0  0  0  0  0  0  0  0  0  0  0
   26.6230   44.6240    8.8240 H   0  0  0  0  0  0  0  0  0  0  0  0
   27.3230   40.3600    9.2760 N   0  0  0  0  0  0  0  0  0  0  0  0
   28.4460   39.5150    9.4930 C   0  0  0  0  0  0  0  0  0  0  0  0
   26.4120   40.1000    9.7090 H   0  0  0  0  0  0  0  0  0  0  0  0
   28.3550   38.2760   10.3210 C   0  0  0  0  0  0  0  0  0  0  0  0
   29.5330   39.8760    8.9420 O   0  0  0  0  0  0  0  0  0  0  0  0
   28.8190   41.0230    6.2780 O   0  0  0  0  0  0  0  0  0  0  0  0
   29.3730   41.7010    6.7090 H   0  0  0  0  0  0  0  0  0  0  0  0
   25.7230   40.2160    5.2670 O   0  0  0  0  0  0  0  0  0  0  0  0
   24.9350   40.6290    4.8090 H   0  0  0  0  0  0  0  0  0  0  0  0
   28.1080   36.4440    5.7320 O   0  0  0  0  0  0  0  0  0  0  0  0
   27.8470   36.1310    7.1110 C   0  0  0  0  0  0  0  0  0  0  0  0
   26.5860   36.8170    7.4960 C   0  0  0  0  0  0  0  0  0  0  0  0
   25.5080   36.2210    8.1310 C   0  0  0  0  0  0  0  0  0  0  0  0
   26.2180   38.1010    7.3250 N   0  0  0  0  0  0  0  0  0  0  0  0
   24.5350   37.1400    8.3250 N   0  0  0  0  0  0  0  0  0  0  0  0
   25.0020   38.2690    7.8240 N   0  0  0  0  0  0  0  0  0  0  0  0
   23.2560   36.8970    8.9600 C   0  0  0  0  0  0  0  0  0  0  0  0
   23.0700   35.4160    9.2130 C   0  0  0  0  0  0  0  0  0  0  0  0
   23.1940   37.6520   10.2710 C   0  0  0  0  0  0  0  0  0  0  0  0
   22.1320   37.3310    8.0780 C   0  0  0  0  0  0  0  0  0  0  0  0
   21.4440   36.4300    7.5350 O   0  0  0  0  0  0  0  0  0  0  0  0
   21.8390   38.6620    7.8540 O   0  0  0  0  0  0  0  0  0  0  0  0
   21.3010   38.8870    7.0220 H   0  0  0  0  0  0  0  0  0  0  0  0
   29.8670   25.5550   16.9770 C   0  0  0  0  0  0  0  0  0  0  0  0
   28.3450   25.7220   17.0260 C   0  0  0  0  0  0  0  0  0  0  0  0
   27.6010   24.4050   16.8680 C   0  0  0  0  0  0  0  0  0  0  0  0
   26.5330   24.2290   17.9120 C   0  0  0  0  0  0  0  0  0  0  0  0
   25.1780   24.0600   17.2310 C   0  0  0  0  0  0  0  0  0  0  0  0
   24.2190   23.3950   18.1430 N   0  0  0  0  0  0  0  0  0  0  0  0
  1  2  1  0  0  0  0
  2  3  2  0  0  0  0
  2 31  1  0  0  0  0
  4  1  1  0  0  0  0
  5  1  1  0  0  0  0
  6  5  1  1  0  0  0
  6 29  1  0  0  0  0
  6  7  1  0  0  0  0
  7 27  1  1  0  0  0
  8  7  1  6  0  0  0
  8 13  1  0  0  0  0
  9 14  1  6  0  0  0
  9 10  1  0  0  0  0
 11  8  1  0  0  0  0
 11  9  1  0  0  0  0
 12 20  1  6  0  0  0
 12 10  1  0  0  0  0
 13 22  1  1  0  0  0
 13 12  1  0  0  0  0
 15 14  1  0  0  0  0
 16  9  1  0  0  0  0
 16 18  1  0  0  0  0
 17 16  2  0  0  0  0
 19 18  1  0  0  0  0
 21 20  1  0  0  0  0
 22 23  1  0  0  0  0
 22 24  1  0  0  0  0
 23 25  1  0  0  0  0
 26 23  2  0  0  0  0
 27 28  1  0  0  0  0
 30 29  1  0  0  0  0
 31 32  1  0  0  0  0
 32 33  1  0  0  0  0
 33 34  2  0  0  0  0
 34 36  1  0  0  0  0
 35 33  1  0  0  0  0
 35 37  2  0  0  0  0
 36 38  1  0  0  0  0
 37 36  1  0  0  0  0
 38 39  1  0  0  0  0
 38 40  1  0  0  0  0
 41 38  1  0  0  0  0
 42 41  2  0  0  0  0
 43 41  1  0  0  0  0
 44 43  1  0  0  0  0
 45 46  1  0  0  0  0
 47 46  1  0  0  0  0
 47 48  1  0  0  0  0
 49 48  1  0  0  0  0
 49 50  1  0  0  0  0
M  END
>  <REMARK>
 VINA RESULT:    -4.921      5.246      8.707
 INTER + INTRA:         -14.527
 INTER:                  -6.868
 INTRA:                  -7.659
 UNBOUND:                -5.578
 SMILES CC(=O)N[C@@H]1[C@@H](O)C[C@](O)(C(=O)O)O[C@H]1C(O)[C@H](O)CNC(=O)OCc1cn(C(C)(C)C(=O)O)nn1
 SMILES IDX 21 1 22 2 23 3 20 5 18 6 16 7 15 8 9 9 8 10 14 11 6 12 5 13
 SMILES IDX 10 14 11 16 12 17 13 18 7 20 4 22 2 23 1 25 3 26 17 27 19 29
 SMILES IDX 24 31 25 32 26 33 27 34 36 35 28 36 35 37 29 38 30 39 31 40
 SMILES IDX 32 41 33 42 34 43
 H PARENT 21 4 10 15 13 19 7 21 4 24 17 28 19 30 34 44
 Flexibility Score: inf
  4 active torsions:
  status: ('A' for Active; 'I' for Inactive)
    1  A    between atoms: CA   and  CB  
    2  A    between atoms: CB   and  CG  
    3  A    between atoms: CG   and  CD  
    4  A    between atoms: CD   and  CE  

>  <TORSDO>
F 17

>  <BEGIN_>
RES LYS A 131

$$$$
ligand_22_pose_8_2HRL.pdbqt
 OpenBabel07062320523D

  6  5  0  0  0  0  0  0  0  0999 V2000
   33.1930   34.6630    9.2900 C   0  0  0  0  0  0  0  0  0  0  0  0
   32.0600   35.3600   10.0340 C   0  0  0  0  0  0  0  0  0  0  0  0
   30.7870   35.4640    9.2330 C   0  0  0  0  0  0  0  0  0  0  0  0
   29.9870   34.1740    9.3280 C   0  0  0  0  0  0  0  0  0  0  0  0
   28.7710   34.3650   10.2140 C   0  0  0  0  0  0  0  0  0  0  0  0
   27.5960   33.6240    9.6780 N   0  0  0  0  0  0  0  0  0  0  0  0
  1  2  1  0  0  0  0
  3  4  1  0  0  0  0
  3  2  1  0  0  0  0
  4  5  1  0  0  0  0
  6  5  1  0  0  0  0
M  END
>  <EGIN_R>
ES LYS A 135

>  <REMARK>
  4 active torsions:
  status: ('A' for Active; 'I' for Inactive)
    5  A    between atoms: CA   and  CB  
    6  A    between atoms: CB   and  CG  
    7  A    between atoms: CG   and  CD  
    8  A    between atoms: CD   and  CE  

$$$$
