ligand_41_pose_9_2HRL.pdbqt
 OpenBabel07062320523D

 52 53  0  0  1  0  0  0  0  0999 V2000
   28.4650   31.4530   16.9140 N   0  0  0  0  0  0  0  0  0  0  0  0
   27.9070   30.5360   15.9580 C   0  0  0  0  0  0  0  0  0  0  0  0
   28.6780   29.7660   15.3380 O   0  0  0  0  0  0  0  0  0  0  0  0
   27.7930   32.0690   17.4130 H   0  0  0  0  0  0  0  0  0  0  0  0
   29.8810   31.4860   17.1320 C   0  0  0  0  0  0  0  0  0  0  0  0
   30.6450   32.5350   16.3930 C   0  0  2  0  0  0  0  0  0  0  0  0
   29.8490   33.7610   16.0610 C   0  0  2  0  0  0  0  0  0  0  0  0
   30.6350   34.8540   15.3850 C   0  0  2  0  0  0  0  0  0  0  0  0
   32.7610   35.5120   14.7700 C   0  0  2  0  0  0  0  0  0  0  0  0
   32.6640   36.8510   15.4770 C   0  0  0  0  0  0  0  0  0  0  0  0
   31.9640   34.6070   15.3700 O   0  0  0  0  0  0  0  0  0  0  0  0
   31.5610   36.8750   16.4830 C   0  0  1  0  0  0  0  0  0  0  0  0
   30.3270   36.1860   16.0340 C   0  0  1  0  0  0  0  0  0  0  0  0
   34.1340   35.1330   14.9580 O   0  0  0  0  0  0  0  0  0  0  0  0
   34.6520   35.4160   14.1430 H   0  0  0  0  0  0  0  0  0  0  0  0
   32.6190   35.7130   13.3240 C   0  0  0  0  0  0  0  0  0  0  0  0
   31.8160   36.5260   12.8140 O   0  0  0  0  0  0  0  0  0  0  0  0
   33.3960   34.9900   12.4150 O   0  0  0  0  0  0  0  0  0  0  0  0
   34.0010   34.2430   12.7370 H   0  0  0  0  0  0  0  0  0  0  0  0
   32.0240   36.2480   17.6520 O   0  0  0  0  0  0  0  0  0  0  0  0
   32.9570   35.9350   17.5710 H   0  0  0  0  0  0  0  0  0  0  0  0
   29.4960   37.0410   15.2470 N   0  0  0  0  0  0  0  0  0  0  0  0
   28.1370   37.3130   15.5710 C   0  0  0  0  0  0  0  0  0  0  0  0
   29.8880   37.4940   14.4010 H   0  0  0  0  0  0  0  0  0  0  0  0
   27.3150   38.2100   14.7180 C   0  0  0  0  0  0  0  0  0  0  0  0
   27.5910   36.8060   16.5840 O   0  0  0  0  0  0  0  0  0  0  0  0
   29.0000   34.1750   17.0550 O   0  0  0  0  0  0  0  0  0  0  0  0
   29.5220   34.7930   17.6490 H   0  0  0  0  0  0  0  0  0  0  0  0
   30.9610   31.9350   15.1050 O   0  0  0  0  0  0  0  0  0  0  0  0
   31.6800   32.5260   14.7560 H   0  0  0  0  0  0  0  0  0  0  0  0
   26.5610   30.4630   15.6880 O   0  0  0  0  0  0  0  0  0  0  0  0
   25.6750   31.5390   15.9900 C   0  0  0  0  0  0  0  0  0  0  0  0
   25.8240   32.6530   15.0210 C   0  0  0  0  0  0  0  0  0  0  0  0
   25.2910   32.7600   13.7630 C   0  0  0  0  0  0  0  0  0  0  0  0
   26.5350   33.7980   15.2120 N   0  0  0  0  0  0  0  0  0  0  0  0
   25.6950   33.9610   13.2330 N   0  0  0  0  0  0  0  0  0  0  0  0
   26.4430   34.5490   14.1460 N   0  0  0  0  0  0  0  0  0  0  0  0
   25.4300   34.4850   11.9430 C   0  0  0  0  0  0  0  0  0  0  0  0
   24.2250   34.9270   11.5160 C   0  0  0  0  0  0  0  0  0  0  0  0
   26.5590   34.5300   11.0950 C   0  0  0  0  0  0  0  0  0  0  0  0
   24.1130   35.4330   10.2170 C   0  0  0  0  0  0  0  0  0  0  0  0
   26.4340   35.0280    9.8220 C   0  0  0  0  0  0  0  0  0  0  0  0
   25.2070   35.4730    9.4060 C   0  0  0  0  0  0  0  0  0  0  0  0
   23.0210   34.9080   12.3180 C   0  0  1  0  0  0  0  0  0  0  0  0
   22.8770   35.8820   13.1630 O   0  0  0  0  0  0  0  0  0  0  0  0
   21.9400   33.9230   12.2950 C   0  0  0  0  0  0  0  0  0  0  0  0
   29.8670   25.5550   16.9770 C   0  0  0  0  0  0  0  0  0  0  0  0
   28.3450   25.7220   17.0260 C   0  0  0  0  0  0  0  0  0  0  0  0
   27.6010   24.4020   16.8900 C   0  0  0  0  0  0  0  0  0  0  0  0
   26.1650   24.5150   17.3190 C   0  0  0  0  0  0  0  0  0  0  0  0
   25.7230   23.2060   17.9660 C   0  0  0  0  0  0  0  0  0  0  0  0
   25.0380   23.4690   19.2540 N   0  0  0  0  0  0  0  0  0  0  0  0
  1  5  1  0  0  0  0
  1  4  1  0  0  0  0
  2  1  1  0  0  0  0
  3  2  2  0  0  0  0
  6  5  1  1  0  0  0
  7  6  1  0  0  0  0
  7 27  1  1  0  0  0
  8 13  1  0  0  0  0
  8  7  1  1  0  0  0
  9 16  1  6  0  0  0
  9 14  1  0  0  0  0
  9 11  1  0  0  0  0
  9 10  1  0  0  0  0
 10 12  1  0  0  0  0
 11  8  1  0  0  0  0
 12 20  1  1  0  0  0
 13 22  1  6  0  0  0
 13 12  1  0  0  0  0
 15 14  1  0  0  0  0
 17 16  2  0  0  0  0
 18 19  1  0  0  0  0
 18 16  1  0  0  0  0
 21 20  1  0  0  0  0
 22 23  1  0  0  0  0
 23 26  2  0  0  0  0
 24 22  1  0  0  0  0
 25 23  1  0  0  0  0
 27 28  1  0  0  0  0
 29  6  1  0  0  0  0
 30 29  1  0  0  0  0
 31  2  1  0  0  0  0
 31 32  1  0  0  0  0
 33 35  1  0  0  0  0
 33 32  1  0  0  0  0
 34 33  2  0  0  0  0
 36 34  1  0  0  0  0
 36 37  1  0  0  0  0
 37 35  2  0  0  0  0
 38 36  1  0  0  0  0
 39 38  1  0  0  0  0
 39 44  1  0  0  0  0
 40 38  2  0  0  0  0
 41 39  2  0  0  0  0
 42 40  1  0  0  0  0
 43 42  2  0  0  0  0
 43 41  1  0  0  0  0
 44 46  1  6  0  0  0
 44 45  1  0  0  0  0
 47 48  1  0  0  0  0
 49 48  1  0  0  0  0
 49 50  1  0  0  0  0
 50 51  1  0  0  0  0
 51 52  1  0  0  0  0
M  END
>  <REMARK>
 VINA RESULT:    -4.434      2.003      3.063
 INTER + INTRA:         -14.736
 INTER:                  -8.262
 INTRA:                  -6.474
 UNBOUND:                -6.804
 SMILES CC(=O)N[C@@H]1[C@@H](O)C[C@](O)(C(=O)O)O[C@H]1C(O)[C@H](O)CNC(=O)OCc1cn(-c2ccccc2C(C)=O)nn1
 SMILES IDX 21 1 22 2 23 3 20 5 18 6 16 7 15 8 9 9 8 10 14 11 6 12 5 13
 SMILES IDX 10 14 11 16 12 17 13 18 7 20 4 22 2 23 1 25 3 26 17 27 19 29
 SMILES IDX 24 31 25 32 26 33 27 34 39 35 28 36 38 37 29 38 34 39 30 40
 SMILES IDX 33 41 31 42 32 43 35 44 37 45 36 46
 H PARENT 21 4 10 15 13 19 7 21 4 24 17 28 19 30
 Flexibility Score: inf
  4 active torsions:
  status: ('A' for Active; 'I' for Inactive)
    1  A    between atoms: CA   and  CB  
    2  A    between atoms: CB   and  CG  
    3  A    between atoms: CG   and  CD  
    4  A    between atoms: CD   and  CE  

>  <TORSDO>
F 16

>  <BEGIN_>
RES LYS A 131

$$$$
ligand_41_pose_9_2HRL.pdbqt
 OpenBabel07062320523D

  6  5  0  0  0  0  0  0  0  0999 V2000
   33.1930   34.6630    9.2900 C   0  0  0  0  0  0  0  0  0  0  0  0
   32.0600   35.3600   10.0340 C   0  0  0  0  0  0  0  0  0  0  0  0
   30.6970   34.8040    9.7130 C   0  0  0  0  0  0  0  0  0  0  0  0
   30.5870   34.4720    8.2330 C   0  0  0  0  0  0  0  0  0  0  0  0
   29.4030   35.1880    7.6130 C   0  0  0  0  0  0  0  0  0  0  0  0
   29.2780   36.5750    8.1400 N   0  0  0  0  0  0  0  0  0  0  0  0
  1  2  1  0  0  0  0
  3  2  1  0  0  0  0
  4  3  1  0  0  0  0
  5  6  1  0  0  0  0
  5  4  1  0  0  0  0
M  END
>  <EGIN_R>
ES LYS A 135

>  <REMARK>
  4 active torsions:
  status: ('A' for Active; 'I' for Inactive)
    5  A    between atoms: CA   and  CB  
    6  A    between atoms: CB   and  CG  
    7  A    between atoms: CG   and  CD  
    8  A    between atoms: CD   and  CE  

$$$$
