ligand_35_pose_7_2HRL.pdbqt
 OpenBabel07062320523D

 49 49  0  0  1  0  0  0  0  0999 V2000
   28.5030   29.5830   16.4170 N   0  0  0  0  0  0  0  0  0  0  0  0
   27.1360   29.2380   16.5150 C   0  0  0  0  0  0  0  0  0  0  0  0
   26.2350   29.9580   16.0130 O   0  0  0  0  0  0  0  0  0  0  0  0
   29.2080   28.9550   16.8490 H   0  0  0  0  0  0  0  0  0  0  0  0
   28.9420   30.7680   15.7410 C   0  0  0  0  0  0  0  0  0  0  0  0
   29.6380   31.7650   16.6750 C   0  0  2  0  0  0  0  0  0  0  0  0
   30.5230   32.6160   15.8320 C   0  0  2  0  0  0  0  0  0  0  0  0
   29.8550   33.4480   14.7910 C   0  0  2  0  0  0  0  0  0  0  0  0
   31.6310   34.8760   14.2780 C   0  0  2  0  0  0  0  0  0  0  0  0
   31.2150   35.6740   15.4490 C   0  0  0  0  0  0  0  0  0  0  0  0
   30.8290   33.8380   13.8830 O   0  0  0  0  0  0  0  0  0  0  0  0
   29.7580   35.7630   15.7350 C   0  0  1  0  0  0  0  0  0  0  0  0
   28.9960   34.5630   15.2490 C   0  0  1  0  0  0  0  0  0  0  0  0
   32.8690   34.2750   14.6300 O   0  0  0  0  0  0  0  0  0  0  0  0
   33.5160   35.0030   14.7490 H   0  0  0  0  0  0  0  0  0  0  0  0
   31.9270   35.7870   13.1390 C   0  0  0  0  0  0  0  0  0  0  0  0
   32.9780   35.6750   12.4500 O   0  0  0  0  0  0  0  0  0  0  0  0
   31.0490   36.7990   12.7930 O   0  0  0  0  0  0  0  0  0  0  0  0
   31.3240   37.6240   12.2700 H   0  0  0  0  0  0  0  0  0  0  0  0
   29.6150   35.9380   17.1240 O   0  0  0  0  0  0  0  0  0  0  0  0
   28.7000   35.6350   17.3440 H   0  0  0  0  0  0  0  0  0  0  0  0
   28.1880   34.9700   14.0810 N   0  0  0  0  0  0  0  0  0  0  0  0
   26.8920   34.4500   13.8710 C   0  0  0  0  0  0  0  0  0  0  0  0
   28.5390   35.6450   13.3770 H   0  0  0  0  0  0  0  0  0  0  0  0
   26.0490   34.8260   12.7210 C   0  0  0  0  0  0  0  0  0  0  0  0
   26.4030   33.6150   14.7020 O   0  0  0  0  0  0  0  0  0  0  0  0
   31.3260   31.6900   15.0900 O   0  0  0  0  0  0  0  0  0  0  0  0
   31.0730   31.8520   14.1470 H   0  0  0  0  0  0  0  0  0  0  0  0
   30.3640   30.9820   17.5630 O   0  0  0  0  0  0  0  0  0  0  0  0
   30.4030   31.4740   18.4220 H   0  0  0  0  0  0  0  0  0  0  0  0
   26.7310   28.0670   17.1830 O   0  0  0  0  0  0  0  0  0  0  0  0
   26.4290   28.0920   18.5660 C   0  0  0  0  0  0  0  0  0  0  0  0
   27.5460   28.6770   19.3500 C   0  0  0  0  0  0  0  0  0  0  0  0
   28.4110   27.9810   20.1980 C   0  0  0  0  0  0  0  0  0  0  0  0
   27.9630   29.9600   19.4170 N   0  0  0  0  0  0  0  0  0  0  0  0
   29.2850   28.8430   20.7250 N   0  0  0  0  0  0  0  0  0  0  0  0
   29.0100   30.0320   20.2510 N   0  0  0  0  0  0  0  0  0  0  0  0
   30.3670   28.5350   21.6680 C   0  0  1  0  0  0  0  0  0  0  0  0
   29.9030   28.8100   23.0880 C   0  0  0  0  0  0  0  0  0  0  0  0
   30.8290   27.1550   21.5380 C   0  0  0  0  0  0  0  0  0  0  0  0
   31.7520   26.8770   20.7400 O   0  0  0  0  0  0  0  0  0  0  0  0
   30.2960   26.0890   22.2600 O   0  0  0  0  0  0  0  0  0  0  0  0
   30.0790   26.1810   23.2460 H   0  0  0  0  0  0  0  0  0  0  0  0
   29.8670   25.5550   16.9770 C   0  0  0  0  0  0  0  0  0  0  0  0
   28.3450   25.7220   17.0260 C   0  0  0  0  0  0  0  0  0  0  0  0
   27.6020   24.4000   16.9160 C   0  0  0  0  0  0  0  0  0  0  0  0
   26.5100   24.2770   17.9430 C   0  0  0  0  0  0  0  0  0  0  0  0
   25.1880   24.7360   17.3380 C   0  0  0  0  0  0  0  0  0  0  0  0
   24.3450   23.5690   16.9860 N   0  0  0  0  0  0  0  0  0  0  0  0
  1  2  1  0  0  0  0
  1  4  1  0  0  0  0
  2 31  1  0  0  0  0
  3  2  2  0  0  0  0
  5  1  1  0  0  0  0
  6  5  1  6  0  0  0
  6 29  1  0  0  0  0
  7 27  1  6  0  0  0
  7  6  1  0  0  0  0
  8 13  1  0  0  0  0
  8  7  1  1  0  0  0
  9 16  1  6  0  0  0
  9 14  1  0  0  0  0
  9 10  1  0  0  0  0
 10 12  1  0  0  0  0
 11  9  1  0  0  0  0
 11  8  1  0  0  0  0
 12 20  1  1  0  0  0
 13 22  1  6  0  0  0
 13 12  1  0  0  0  0
 14 15  1  0  0  0  0
 17 16  2  0  0  0  0
 18 16  1  0  0  0  0
 19 18  1  0  0  0  0
 20 21  1  0  0  0  0
 23 22  1  0  0  0  0
 23 26  2  0  0  0  0
 24 22  1  0  0  0  0
 25 23  1  0  0  0  0
 28 27  1  0  0  0  0
 29 30  1  0  0  0  0
 31 32  1  0  0  0  0
 32 33  1  0  0  0  0
 33 35  1  0  0  0  0
 33 34  2  0  0  0  0
 34 36  1  0  0  0  0
 35 37  2  0  0  0  0
 36 38  1  0  0  0  0
 37 36  1  0  0  0  0
 38 39  1  1  0  0  0
 40 38  1  0  0  0  0
 40 42  1  0  0  0  0
 41 40  2  0  0  0  0
 42 43  1  0  0  0  0
 44 45  1  0  0  0  0
 46 45  1  0  0  0  0
 46 47  1  0  0  0  0
 48 47  1  0  0  0  0
 49 48  1  0  0  0  0
M  END
>  <REMARK>
 VINA RESULT:    -5.038      2.227      5.041
 INTER + INTRA:         -13.886
 INTER:                  -8.919
 INTRA:                  -4.967
 UNBOUND:                -4.724
 SMILES CC(=O)N[C@@H]1[C@@H](O)C[C@](O)(C(=O)O)O[C@H]1C(O)[C@H](O)CNC(=O)OCc1cn([C@@H](C)C(=O)O)nn1
 SMILES IDX 21 1 22 2 23 3 20 5 18 6 16 7 15 8 9 9 8 10 14 11 6 12 5 13
 SMILES IDX 10 14 11 16 12 17 13 18 7 20 4 22 2 23 1 25 3 26 17 27 19 29
 SMILES IDX 24 31 25 32 26 33 27 34 35 35 28 36 34 37 29 38 30 39 31 40
 SMILES IDX 32 41 33 42
 H PARENT 21 4 10 15 13 19 7 21 4 24 17 28 19 30 33 43
 Flexibility Score: inf
  4 active torsions:
  status: ('A' for Active; 'I' for Inactive)
    1  A    between atoms: CA   and  CB  
    2  A    between atoms: CB   and  CG  
    3  A    between atoms: CG   and  CD  
    4  A    between atoms: CD   and  CE  

>  <TORSDO>
F 17

>  <BEGIN_>
RES LYS A 131

$$$$
ligand_35_pose_7_2HRL.pdbqt
 OpenBabel07062320523D

  6  5  0  0  0  0  0  0  0  0999 V2000
   33.1930   34.6630    9.2900 C   0  0  0  0  0  0  0  0  0  0  0  0
   32.0600   35.3600   10.0340 C   0  0  0  0  0  0  0  0  0  0  0  0
   30.7310   34.6620    9.8980 C   0  0  0  0  0  0  0  0  0  0  0  0
   30.3420   34.5300    8.4340 C   0  0  0  0  0  0  0  0  0  0  0  0
   28.8330   34.5460    8.2810 C   0  0  0  0  0  0  0  0  0  0  0  0
   28.1710   33.8370    9.4110 N   0  0  0  0  0  0  0  0  0  0  0  0
  1  2  1  0  0  0  0
  3  2  1  0  0  0  0
  4  3  1  0  0  0  0
  5  4  1  0  0  0  0
  5  6  1  0  0  0  0
M  END
>  <EGIN_R>
ES LYS A 135

>  <REMARK>
  4 active torsions:
  status: ('A' for Active; 'I' for Inactive)
    5  A    between atoms: CA   and  CB  
    6  A    between atoms: CB   and  CG  
    7  A    between atoms: CG   and  CD  
    8  A    between atoms: CD   and  CE  

$$$$
