ligand_92_pose_18_2HRL.pdbqt
 OpenBabel07062320523D

 59 61  0  0  1  0  0  0  0  0999 V2000
   20.7790   38.0710    7.9950 N   0  0  0  0  0  0  0  0  0  0  0  0
   20.4960   38.9160    9.0910 C   0  0  0  0  0  0  0  0  0  0  0  0
   20.7960   38.5130   10.2660 O   0  0  0  0  0  0  0  0  0  0  0  0
   20.5400   38.3910    7.0420 H   0  0  0  0  0  0  0  0  0  0  0  0
   21.3910   36.7820    8.1710 C   0  0  0  0  0  0  0  0  0  0  0  0
   22.8040   36.7290    7.6460 C   0  0  2  0  0  0  0  0  0  0  0  0
   23.8190   36.7060    8.7510 C   0  0  1  0  0  0  0  0  0  0  0  0
   24.9030   37.7740    8.5180 C   0  0  2  0  0  0  0  0  0  0  0  0
   26.7260   36.5250    7.6910 C   0  0  2  0  0  0  0  0  0  0  0  0
   27.5810   37.0560    8.8250 C   0  0  0  0  0  0  0  0  0  0  0  0
   25.6700   37.3410    7.4800 O   0  0  0  0  0  0  0  0  0  0  0  0
   26.6900   37.0610   10.0430 C   0  0  1  0  0  0  0  0  0  0  0  0
   25.5810   38.0540    9.8010 C   0  0  1  0  0  0  0  0  0  0  0  0
   26.2680   35.2720    8.1190 O   0  0  0  0  0  0  0  0  0  0  0  0
   26.9730   34.5990    8.1580 H   0  0  0  0  0  0  0  0  0  0  0  0
   27.5420   36.2990    6.4700 C   0  0  0  0  0  0  0  0  0  0  0  0
   28.5210   35.5400    6.5200 O   0  0  0  0  0  0  0  0  0  0  0  0
   27.2250   36.9250    5.2810 O   0  0  0  0  0  0  0  0  0  0  0  0
   27.7780   37.7330    4.9580 H   0  0  0  0  0  0  0  0  0  0  0  0
   26.2260   35.7750   10.2960 O   0  0  0  0  0  0  0  0  0  0  0  0
   26.1910   35.6630   11.2910 H   0  0  0  0  0  0  0  0  0  0  0  0
   26.1350   39.3620    9.9410 N   0  0  0  0  0  0  0  0  0  0  0  0
   25.8490   40.1420   11.0820 C   0  0  0  0  0  0  0  0  0  0  0  0
   26.7500   39.7520    9.2070 H   0  0  0  0  0  0  0  0  0  0  0  0
   26.3800   41.5100   11.3090 C   0  0  0  0  0  0  0  0  0  0  0  0
   25.1080   39.6540   11.9460 O   0  0  0  0  0  0  0  0  0  0  0  0
   23.2330   36.9090   10.0220 O   0  0  0  0  0  0  0  0  0  0  0  0
   23.4470   37.8190   10.2990 H   0  0  0  0  0  0  0  0  0  0  0  0
   22.9460   37.8820    6.8430 O   0  0  0  0  0  0  0  0  0  0  0  0
   23.6460   38.4320    7.2740 H   0  0  0  0  0  0  0  0  0  0  0  0
   19.9100   40.1590    8.9710 O   0  0  0  0  0  0  0  0  0  0  0  0
   20.6160   41.3640    9.2980 C   0  0  0  0  0  0  0  0  0  0  0  0
   21.6600   41.5330    8.2440 C   0  0  0  0  0  0  0  0  0  0  0  0
   23.0080   41.1790    8.3370 C   0  0  0  0  0  0  0  0  0  0  0  0
   21.5350   42.0480    7.0030 N   0  0  0  0  0  0  0  0  0  0  0  0
   23.6290   41.4860    7.1870 N   0  0  0  0  0  0  0  0  0  0  0  0
   22.7030   42.0080    6.4080 N   0  0  0  0  0  0  0  0  0  0  0  0
   25.0070   41.2680    6.9160 C   0  0  0  0  0  0  0  0  0  0  0  0
   26.0100   41.8840    7.6290 C   0  0  0  0  0  0  0  0  0  0  0  0
   25.3760   40.4100    5.9020 C   0  0  0  0  0  0  0  0  0  0  0  0
   27.3560   41.6580    7.3460 C   0  0  0  0  0  0  0  0  0  0  0  0
   26.7050   40.1840    5.6210 C   0  0  0  0  0  0  0  0  0  0  0  0
   27.7350   40.8030    6.3370 C   0  0  0  0  0  0  0  0  0  0  0  0
   29.4000   40.4800    5.9560 S   0  0  0  0  0  0  0  0  0  0  0  0
   29.7240   41.2670    4.6920 O   0  0  0  0  0  0  0  0  0  0  0  0
   29.5150   39.0390    5.5940 O   0  0  0  0  0  0  0  0  0  0  0  0
   30.5010   40.9100    7.1770 N   0  0  0  0  0  0  0  0  0  0  0  0
   30.9370   41.8710    7.1250 H   0  0  0  0  0  0  0  0  0  0  0  0
   30.9090   40.1250    8.2670 C   0  0  0  0  0  0  0  0  0  0  0  0
   31.7930   39.3650    8.6300 N   0  0  0  0  0  0  0  0  0  0  0  0
   29.8490   40.1060    9.8310 S   0  0  0  0  0  0  0  0  0  0  0  0
   31.9220   38.7530    9.7630 C   0  0  0  0  0  0  0  0  0  0  0  0
   30.9850   38.9330   10.7210 C   0  0  0  0  0  0  0  0  0  0  0  0
   29.8670   25.5550   16.9770 C   0  0  0  0  0  0  0  0  0  0  0  0
   28.3450   25.7220   17.0260 C   0  0  0  0  0  0  0  0  0  0  0  0
   27.6010   24.4040   16.8770 C   0  0  0  0  0  0  0  0  0  0  0  0
   26.5860   24.2000   17.9680 C   0  0  0  0  0  0  0  0  0  0  0  0
   25.5050   23.2390   17.4840 C   0  0  0  0  0  0  0  0  0  0  0  0
   24.3880   23.9850   16.8600 N   0  0  0  0  0  0  0  0  0  0  0  0
  1  5  1  0  0  0  0
  1  2  1  0  0  0  0
  2  3  2  0  0  0  0
  4  1  1  0  0  0  0
  6  5  1  1  0  0  0
  6  7  1  0  0  0  0
  7 27  1  1  0  0  0
  8  7  1  1  0  0  0
  8 13  1  0  0  0  0
  9 16  1  6  0  0  0
  9 14  1  0  0  0  0
  9 10  1  0  0  0  0
 10 12  1  0  0  0  0
 11  9  1  0  0  0  0
 11  8  1  0  0  0  0
 12 20  1  6  0  0  0
 13 22  1  6  0  0  0
 13 12  1  0  0  0  0
 14 15  1  0  0  0  0
 16 17  2  0  0  0  0
 18 16  1  0  0  0  0
 19 18  1  0  0  0  0
 20 21  1  0  0  0  0
 22 23  1  0  0  0  0
 23 25  1  0  0  0  0
 23 26  2  0  0  0  0
 24 22  1  0  0  0  0
 27 28  1  0  0  0  0
 29 30  1  0  0  0  0
 29  6  1  0  0  0  0
 31  2  1  0  0  0  0
 31 32  1  0  0  0  0
 33 34  2  0  0  0  0
 33 32  1  0  0  0  0
 35 33  1  0  0  0  0
 36 34  1  0  0  0  0
 37 35  2  0  0  0  0
 37 36  1  0  0  0  0
 38 36  1  0  0  0  0
 38 39  2  0  0  0  0
 40 38  1  0  0  0  0
 41 39  1  0  0  0  0
 42 40  2  0  0  0  0
 42 43  1  0  0  0  0
 43 41  2  0  0  0  0
 44 43  1  0  0  0  0
 44 47  1  0  0  0  0
 45 44  2  0  0  0  0
 46 44  2  0  0  0  0
 47 49  1  0  0  0  0
 48 47  1  0  0  0  0
 49 50  2  0  0  0  0
 49 51  1  0  0  0  0
 50 52  1  0  0  0  0
 51 53  1  0  0  0  0
 52 53  2  0  0  0  0
 54 55  1  0  0  0  0
 56 55  1  0  0  0  0
 56 57  1  0  0  0  0
 58 57  1  0  0  0  0
 59 58  1  0  0  0  0
M  END
>  <REMARK>
 VINA RESULT:    -4.785      9.108     14.545
 INTER + INTRA:         -15.528
 INTER:                  -8.258
 INTRA:                  -7.269
 UNBOUND:                -6.408
 SMILES CC(=O)N[C@@H]1[C@@H](O)C[C@](O)(C(=O)O)O[C@H]1C(O)[C@H](O)CNC(=O)OCc1cn(-c2ccc(S(=O)(=O)Nc3nccs3)cc2)nn1
 SMILES IDX 21 1 22 2 23 3 20 5 18 6 16 7 15 8 9 9 8 10 14 11 6 12 5 13
 SMILES IDX 10 14 11 16 12 17 13 18 7 20 4 22 2 23 1 25 3 26 17 27 19 29
 SMILES IDX 24 31 25 32 26 33 27 34 45 35 28 36 44 37 29 38 30 39 43 40
 SMILES IDX 31 41 42 42 32 43 33 44 34 45 35 46 36 47 37 49 38 50 41 51
 SMILES IDX 39 52 40 53
 H PARENT 21 4 10 15 13 19 7 21 4 24 17 28 19 30 36 48
 Flexibility Score: inf
  4 active torsions:
  status: ('A' for Active; 'I' for Inactive)
    1  A    between atoms: CA   and  CB  
    2  A    between atoms: CB   and  CG  
    3  A    between atoms: CG   and  CD  
    4  A    between atoms: CD   and  CE  

>  <TORSDO>
F 18

>  <BEGIN_>
RES LYS A 131

$$$$
ligand_92_pose_18_2HRL.pdbqt
 OpenBabel07062320523D

  6  5  0  0  0  0  0  0  0  0999 V2000
   33.1930   34.6630    9.2900 C   0  0  0  0  0  0  0  0  0  0  0  0
   32.0600   35.3600   10.0340 C   0  0  0  0  0  0  0  0  0  0  0  0
   30.7140   35.1910    9.3770 C   0  0  0  0  0  0  0  0  0  0  0  0
   29.7000   34.6370   10.3660 C   0  0  0  0  0  0  0  0  0  0  0  0
   29.7570   35.4040   11.6730 C   0  0  0  0  0  0  0  0  0  0  0  0
   29.6410   34.4860   12.8400 N   0  0  0  0  0  0  0  0  0  0  0  0
  1  2  1  0  0  0  0
  3  2  1  0  0  0  0
  3  4  1  0  0  0  0
  4  5  1  0  0  0  0
  5  6  1  0  0  0  0
M  END
>  <EGIN_R>
ES LYS A 135

>  <REMARK>
  4 active torsions:
  status: ('A' for Active; 'I' for Inactive)
    5  A    between atoms: CA   and  CB  
    6  A    between atoms: CB   and  CG  
    7  A    between atoms: CG   and  CD  
    8  A    between atoms: CD   and  CE  

$$$$
