ligand_40_pose_3_2HRL.pdbqt
 OpenBabel07062320523D

 50 51  0  0  1  0  0  0  0  0999 V2000
   20.8670   36.9910    7.8370 C   0  0  0  0  0  0  0  0  0  0  0  0
   19.4710   36.5420    7.7000 C   0  0  2  0  0  0  0  0  0  0  0  0
   19.1800   35.0890    7.5010 C   0  0  2  0  0  0  0  0  0  0  0  0
   18.4580   34.3870    8.6070 C   0  0  2  0  0  0  0  0  0  0  0  0
   17.1490   32.8520    7.4150 C   0  0  2  0  0  0  0  0  0  0  0  0
   15.8470   33.3790    7.9920 C   0  0  0  0  0  0  0  0  0  0  0  0
   18.2320   33.0610    8.2090 O   0  0  0  0  0  0  0  0  0  0  0  0
   16.0460   34.8250    8.4210 C   0  0  1  0  0  0  0  0  0  0  0  0
   17.2810   35.0030    9.2430 C   0  0  1  0  0  0  0  0  0  0  0  0
   17.2500   33.3510    6.1390 O   0  0  0  0  0  0  0  0  0  0  0  0
   16.3810   33.5650    5.7100 H   0  0  0  0  0  0  0  0  0  0  0  0
   16.9610   31.3710    7.3190 C   0  0  0  0  0  0  0  0  0  0  0  0
   15.9310   30.7940    7.7790 O   0  0  0  0  0  0  0  0  0  0  0  0
   17.9260   30.5900    6.7160 O   0  0  0  0  0  0  0  0  0  0  0  0
   18.9090   30.8610    6.7980 H   0  0  0  0  0  0  0  0  0  0  0  0
   16.2310   35.5160    7.2220 O   0  0  0  0  0  0  0  0  0  0  0  0
   15.5720   35.2400    6.5340 H   0  0  0  0  0  0  0  0  0  0  0  0
   17.1830   34.4380   10.5750 N   0  0  0  0  0  0  0  0  0  0  0  0
   17.7530   35.0320   11.7130 C   0  0  0  0  0  0  0  0  0  0  0  0
   16.6510   33.5460   10.6430 H   0  0  0  0  0  0  0  0  0  0  0  0
   17.6700   34.4820   13.0800 C   0  0  0  0  0  0  0  0  0  0  0  0
   18.3680   36.0990   11.5240 O   0  0  0  0  0  0  0  0  0  0  0  0
   20.5030   34.4560    7.6220 O   0  0  0  0  0  0  0  0  0  0  0  0
   20.4400   33.5880    7.1430 H   0  0  0  0  0  0  0  0  0  0  0  0
   18.7250   37.3790    6.8850 O   0  0  0  0  0  0  0  0  0  0  0  0
   19.1970   38.2520    6.7190 H   0  0  0  0  0  0  0  0  0  0  0  0
   21.3220   37.1770    9.2160 N   0  0  0  0  0  0  0  0  0  0  0  0
   22.3530   36.3870    9.7730 C   0  0  0  0  0  0  0  0  0  0  0  0
   20.8970   37.8990    9.8540 H   0  0  0  0  0  0  0  0  0  0  0  0
   22.8930   35.5100    9.0900 O   0  0  0  0  0  0  0  0  0  0  0  0
   22.8040   36.5470   11.0850 O   0  0  0  0  0  0  0  0  0  0  0  0
   21.9870   36.1240   12.1520 C   0  0  0  0  0  0  0  0  0  0  0  0
   22.1190   34.6940   12.4470 C   0  0  0  0  0  0  0  0  0  0  0  0
   21.1820   33.7480   12.0860 C   0  0  0  0  0  0  0  0  0  0  0  0
   23.0850   33.9990   13.0810 N   0  0  0  0  0  0  0  0  0  0  0  0
   21.5820   32.5260   12.4960 N   0  0  0  0  0  0  0  0  0  0  0  0
   22.7390   32.7170   13.0950 N   0  0  0  0  0  0  0  0  0  0  0  0
   20.9330   31.2660   12.3410 C   0  0  0  0  0  0  0  0  0  0  0  0
   19.5700   31.1880   12.1400 C   0  0  0  0  0  0  0  0  0  0  0  0
   21.6260   30.0740   12.3870 C   0  0  0  0  0  0  0  0  0  0  0  0
   18.9270   29.9750   11.9890 C   0  0  0  0  0  0  0  0  0  0  0  0
   20.9910   28.8590   12.2370 C   0  0  0  0  0  0  0  0  0  0  0  0
   19.6290   28.7890   12.0350 C   0  0  0  0  0  0  0  0  0  0  0  0
   18.9820   27.4600   11.8790 C   0  0  0  0  0  0  0  0  0  0  0  0
   29.8670   25.5550   16.9770 C   0  0  0  0  0  0  0  0  0  0  0  0
   28.3450   25.7220   17.0260 C   0  0  0  0  0  0  0  0  0  0  0  0
   27.6020   24.3980   16.9290 C   0  0  0  0  0  0  0  0  0  0  0  0
   26.1430   24.5420   17.2630 C   0  0  0  0  0  0  0  0  0  0  0  0
   25.5730   23.1810   17.6500 C   0  0  0  0  0  0  0  0  0  0  0  0
   25.3950   23.0920   19.1190 N   0  0  0  0  0  0  0  0  0  0  0  0
  1 27  1  0  0  0  0
  2  1  1  6  0  0  0
  3 23  1  1  0  0  0
  3  2  1  0  0  0  0
  4  3  1  6  0  0  0
  4  9  1  0  0  0  0
  5 10  1  6  0  0  0
  5  6  1  0  0  0  0
  5  7  1  0  0  0  0
  6  8  1  0  0  0  0
  7  4  1  0  0  0  0
  8 16  1  6  0  0  0
  8  9  1  0  0  0  0
  9 18  1  1  0  0  0
 11 10  1  0  0  0  0
 12  5  1  0  0  0  0
 12 13  2  0  0  0  0
 14 15  1  0  0  0  0
 14 12  1  0  0  0  0
 17 16  1  0  0  0  0
 18 20  1  0  0  0  0
 18 19  1  0  0  0  0
 19 21  1  0  0  0  0
 22 19  2  0  0  0  0
 24 23  1  0  0  0  0
 25  2  1  0  0  0  0
 26 25  1  0  0  0  0
 27 28  1  0  0  0  0
 27 29  1  0  0  0  0
 28 31  1  0  0  0  0
 30 28  2  0  0  0  0
 31 32  1  0  0  0  0
 32 33  1  0  0  0  0
 33 35  1  0  0  0  0
 34 33  2  0  0  0  0
 34 36  1  0  0  0  0
 35 37  2  0  0  0  0
 36 37  1  0  0  0  0
 38 40  1  0  0  0  0
 38 36  1  0  0  0  0
 39 38  2  0  0  0  0
 41 43  2  0  0  0  0
 41 39  1  0  0  0  0
 42 40  2  0  0  0  0
 43 42  1  0  0  0  0
 44 43  1  0  0  0  0
 45 46  1  0  0  0  0
 47 46  1  0  0  0  0
 47 48  1  0  0  0  0
 48 49  1  0  0  0  0
 49 50  1  0  0  0  0
M  END
>  <REMARK>
 VINA RESULT:    -5.509      6.471     10.313
 INTER + INTRA:         -14.547
 INTER:                  -8.892
 INTRA:                  -5.655
 UNBOUND:                -5.012
 SMILES CC(=O)N[C@@H]1[C@@H](O)C[C@](O)(C(=O)O)O[C@H]1C(O)[C@H](O)CNC(=O)OCc1cn(-c2ccc(C)cc2)nn1
 SMILES IDX 20 1 18 2 16 3 15 4 9 5 8 6 14 7 6 8 5 9 10 10 11 12 12 13
 SMILES IDX 13 14 7 16 4 18 2 19 1 21 3 22 17 23 19 25 21 27 22 28 23 30
 SMILES IDX 24 31 25 32 26 33 27 34 37 35 28 36 36 37 29 38 30 39 35 40
 SMILES IDX 31 41 34 42 32 43 33 44
 H PARENT 10 11 13 15 7 17 4 20 17 24 19 26 21 29
 Flexibility Score: inf
  4 active torsions:
  status: ('A' for Active; 'I' for Inactive)
    1  A    between atoms: CA   and  CB  
    2  A    between atoms: CB   and  CG  
    3  A    between atoms: CG   and  CD  
    4  A    between atoms: CD   and  CE  

>  <TORSDO>
F 15

>  <BEGIN_>
RES LYS A 131

$$$$
ligand_40_pose_3_2HRL.pdbqt
 OpenBabel07062320523D

  6  5  0  0  0  0  0  0  0  0999 V2000
   33.1930   34.6630    9.2900 C   0  0  0  0  0  0  0  0  0  0  0  0
   32.0600   35.3600   10.0340 C   0  0  0  0  0  0  0  0  0  0  0  0
   30.9020   35.7400    9.1480 C   0  0  0  0  0  0  0  0  0  0  0  0
   30.4460   34.5490    8.3200 C   0  0  0  0  0  0  0  0  0  0  0  0
   29.2620   34.9260    7.4510 C   0  0  0  0  0  0  0  0  0  0  0  0
   28.9870   36.3880    7.5240 N   0  0  0  0  0  0  0  0  0  0  0  0
  1  2  1  0  0  0  0
  3  2  1  0  0  0  0
  4  3  1  0  0  0  0
  5  6  1  0  0  0  0
  5  4  1  0  0  0  0
M  END
>  <EGIN_R>
ES LYS A 135

>  <REMARK>
  4 active torsions:
  status: ('A' for Active; 'I' for Inactive)
    5  A    between atoms: CA   and  CB  
    6  A    between atoms: CB   and  CG  
    7  A    between atoms: CG   and  CD  
    8  A    between atoms: CD   and  CE  

$$$$
