ligand_28_pose_13_2HRL.pdbqt
 OpenBabel07062320523D

 53 55  0  0  1  0  0  0  0  0999 V2000
   29.1390   27.0240   20.0230 N   0  0  0  0  0  0  0  0  0  0  0  0
   27.8560   27.6370   20.0770 C   0  0  0  0  0  0  0  0  0  0  0  0
   27.4640   28.1760   21.1640 O   0  0  0  0  0  0  0  0  0  0  0  0
   29.4290   26.5970   19.1310 H   0  0  0  0  0  0  0  0  0  0  0  0
   29.9370   27.0490   21.2220 C   0  0  0  0  0  0  0  0  0  0  0  0
   31.2580   27.7280   21.0480 C   0  0  2  0  0  0  0  0  0  0  0  0
   31.1210   29.2040   20.7470 C   0  0  2  0  0  0  0  0  0  0  0  0
   32.4070   29.9460   21.1020 C   0  0  2  0  0  0  0  0  0  0  0  0
   33.3260   29.7590   23.2250 C   0  0  2  0  0  0  0  0  0  0  0  0
   33.7980   31.1940   23.2570 C   0  0  0  0  0  0  0  0  0  0  0  0
   33.1910   29.2430   21.9680 O   0  0  0  0  0  0  0  0  0  0  0  0
   33.4370   31.9430   21.9910 C   0  0  1  0  0  0  0  0  0  0  0  0
   32.1250   31.3690   21.5050 C   0  0  1  0  0  0  0  0  0  0  0  0
   32.1360   29.6140   23.9650 O   0  0  0  0  0  0  0  0  0  0  0  0
   32.1660   30.0880   24.8160 H   0  0  0  0  0  0  0  0  0  0  0  0
   34.3530   28.9550   23.9420 C   0  0  0  0  0  0  0  0  0  0  0  0
   35.4880   28.7510   23.4150 O   0  0  0  0  0  0  0  0  0  0  0  0
   34.1490   28.3930   25.1900 O   0  0  0  0  0  0  0  0  0  0  0  0
   34.6460   27.5230   25.4060 H   0  0  0  0  0  0  0  0  0  0  0  0
   33.3730   33.3150   22.2070 O   0  0  0  0  0  0  0  0  0  0  0  0
   34.0830   33.7340   21.6630 H   0  0  0  0  0  0  0  0  0  0  0  0
   31.5450   32.0870   20.4270 N   0  0  0  0  0  0  0  0  0  0  0  0
   30.5720   33.1010   20.6220 C   0  0  0  0  0  0  0  0  0  0  0  0
   31.8690   31.8370   19.4460 H   0  0  0  0  0  0  0  0  0  0  0  0
   29.9810   33.8410   19.4620 C   0  0  0  0  0  0  0  0  0  0  0  0
   30.2390   33.3410   21.8110 O   0  0  0  0  0  0  0  0  0  0  0  0
   30.1190   29.7120   21.5710 O   0  0  0  0  0  0  0  0  0  0  0  0
   29.5110   30.2860   21.0430 H   0  0  0  0  0  0  0  0  0  0  0  0
   31.9270   27.0930   20.0030 O   0  0  0  0  0  0  0  0  0  0  0  0
   31.6900   26.1360   19.9350 H   0  0  0  0  0  0  0  0  0  0  0  0
   26.9950   27.6780   18.9860 O   0  0  0  0  0  0  0  0  0  0  0  0
   25.9760   28.6730   18.9630 C   0  0  0  0  0  0  0  0  0  0  0  0
   26.4890   29.9250   18.3640 C   0  0  0  0  0  0  0  0  0  0  0  0
   26.5910   30.1630   17.0240 C   0  0  0  0  0  0  0  0  0  0  0  0
   26.9360   31.0220   18.9760 N   0  0  0  0  0  0  0  0  0  0  0  0
   27.0970   31.3940   16.8620 N   0  0  0  0  0  0  0  0  0  0  0  0
   27.3010   31.9030   18.0540 N   0  0  0  0  0  0  0  0  0  0  0  0
   27.3620   32.0280   15.5890 C   0  0  0  0  0  0  0  0  0  0  0  0
   28.7520   32.5610   15.6490 C   0  0  0  0  0  0  0  0  0  0  0  0
   29.7980   31.6710   15.7360 C   0  0  0  0  0  0  0  0  0  0  0  0
   29.0200   33.9060   15.6200 C   0  0  0  0  0  0  0  0  0  0  0  0
   31.1040   32.1460   15.7930 C   0  0  0  0  0  0  0  0  0  0  0  0
   30.3180   34.3740   15.6780 C   0  0  0  0  0  0  0  0  0  0  0  0
   31.3670   33.5010   15.7640 C   0  0  0  0  0  0  0  0  0  0  0  0
   30.8110   35.6650   15.6630 O   0  0  0  0  0  0  0  0  0  0  0  0
   32.5490   34.2100   15.8070 O   0  0  0  0  0  0  0  0  0  0  0  0
   32.2110   35.5600   15.5200 C   0  0  0  0  0  0  0  0  0  0  0  0
   29.8670   25.5550   16.9770 C   0  0  0  0  0  0  0  0  0  0  0  0
   28.3450   25.7220   17.0260 C   0  0  0  0  0  0  0  0  0  0  0  0
   27.6020   24.3990   16.9240 C   0  0  0  0  0  0  0  0  0  0  0  0
   26.1610   24.5250   17.3350 C   0  0  0  0  0  0  0  0  0  0  0  0
   25.9310   23.7510   18.6290 C   0  0  0  0  0  0  0  0  0  0  0  0
   25.5200   24.6700   19.7170 N   0  0  0  0  0  0  0  0  0  0  0  0
  1  2  1  0  0  0  0
  1  5  1  0  0  0  0
  2  3  2  0  0  0  0
  4  1  1  0  0  0  0
  6  5  1  6  0  0  0
  7  6  1  0  0  0  0
  7 27  1  1  0  0  0
  8  7  1  1  0  0  0
  8 13  1  0  0  0  0
  8 11  1  0  0  0  0
  9 10  1  0  0  0  0
  9 16  1  1  0  0  0
  9 14  1  0  0  0  0
 11  9  1  0  0  0  0
 12 20  1  1  0  0  0
 12 10  1  0  0  0  0
 13 22  1  6  0  0  0
 13 12  1  0  0  0  0
 14 15  1  0  0  0  0
 16 18  1  0  0  0  0
 17 16  2  0  0  0  0
 18 19  1  0  0  0  0
 21 20  1  0  0  0  0
 22 23  1  0  0  0  0
 23 26  2  0  0  0  0
 24 22  1  0  0  0  0
 25 23  1  0  0  0  0
 28 27  1  0  0  0  0
 29  6  1  0  0  0  0
 30 29  1  0  0  0  0
 31  2  1  0  0  0  0
 32 31  1  0  0  0  0
 33 32  1  0  0  0  0
 33 35  1  0  0  0  0
 34 33  2  0  0  0  0
 36 34  1  0  0  0  0
 36 37  1  0  0  0  0
 37 35  2  0  0  0  0
 38 39  1  0  0  0  0
 38 36  1  0  0  0  0
 39 40  1  0  0  0  0
 40 42  2  0  0  0  0
 41 39  2  0  0  0  0
 41 43  1  0  0  0  0
 43 44  2  0  0  0  0
 44 42  1  0  0  0  0
 44 46  1  0  0  0  0
 45 43  1  0  0  0  0
 47 45  1  0  0  0  0
 47 46  1  0  0  0  0
 48 49  1  0  0  0  0
 50 49  1  0  0  0  0
 50 51  1  0  0  0  0
 51 52  1  0  0  0  0
 52 53  1  0  0  0  0
M  END
>  <REMARK>
 VINA RESULT:    -4.886      4.892     11.755
 INTER + INTRA:         -14.745
 INTER:                  -8.211
 INTRA:                  -6.534
 UNBOUND:                -6.003
 SMILES CC(=O)N[C@@H]1[C@@H](O)C[C@](O)(C(=O)O)O[C@H]1C(O)[C@H](O)CNC(=O)OCc1cn(Cc2ccc3c(c2)OCO3)nn1
 SMILES IDX 21 1 22 2 23 3 20 5 18 6 16 7 15 8 9 9 8 10 14 11 6 12 5 13
 SMILES IDX 10 14 11 16 12 17 13 18 7 20 4 22 2 23 1 25 3 26 17 27 19 29
 SMILES IDX 24 31 25 32 26 33 27 34 40 35 28 36 39 37 29 38 30 39 31 40
 SMILES IDX 35 41 32 42 34 43 33 44 36 45 38 46 37 47
 H PARENT 21 4 10 15 13 19 7 21 4 24 17 28 19 30
 Flexibility Score: inf
  4 active torsions:
  status: ('A' for Active; 'I' for Inactive)
    1  A    between atoms: CA   and  CB  
    2  A    between atoms: CB   and  CG  
    3  A    between atoms: CG   and  CD  
    4  A    between atoms: CD   and  CE  

>  <TORSDO>
F 16

>  <BEGIN_>
RES LYS A 131

$$$$
ligand_28_pose_13_2HRL.pdbqt
 OpenBabel07062320523D

  6  5  0  0  0  0  0  0  0  0999 V2000
   33.1930   34.6630    9.2900 C   0  0  0  0  0  0  0  0  0  0  0  0
   32.0600   35.3600   10.0340 C   0  0  0  0  0  0  0  0  0  0  0  0
   30.7150   34.7130    9.8260 C   0  0  0  0  0  0  0  0  0  0  0  0
   30.3830   34.6290    8.3440 C   0  0  0  0  0  0  0  0  0  0  0  0
   28.8810   34.6170    8.1350 C   0  0  0  0  0  0  0  0  0  0  0  0
   28.1860   33.9510    9.2710 N   0  0  0  0  0  0  0  0  0  0  0  0
  1  2  1  0  0  0  0
  3  2  1  0  0  0  0
  4  3  1  0  0  0  0
  5  4  1  0  0  0  0
  5  6  1  0  0  0  0
M  END
>  <EGIN_R>
ES LYS A 135

>  <REMARK>
  4 active torsions:
  status: ('A' for Active; 'I' for Inactive)
    5  A    between atoms: CA   and  CB  
    6  A    between atoms: CB   and  CG  
    7  A    between atoms: CG   and  CD  
    8  A    between atoms: CD   and  CE  

$$$$
