ligand_20_pose_13_2HRL.pdbqt
 OpenBabel07062320523D

 53 55  0  0  1  0  0  0  0  0999 V2000
   28.0630   32.8790   15.9170 C   0  0  0  0  0  0  0  0  0  0  0  0
   29.4230   32.3340   15.9000 C   0  0  2  0  0  0  0  0  0  0  0  0
   30.2920   33.0580   14.8480 C   0  0  1  0  0  0  0  0  0  0  0  0
   30.6370   34.4350   15.2130 C   0  0  2  0  0  0  0  0  0  0  0  0
   29.8080   35.8070   13.5110 C   0  0  2  0  0  0  0  0  0  0  0  0
   31.0680   35.4780   12.7630 C   0  0  0  0  0  0  0  0  0  0  0  0
   29.8040   35.4420   14.8250 O   0  0  0  0  0  0  0  0  0  0  0  0
   32.2900   35.4730   13.6130 C   0  0  1  0  0  0  0  0  0  0  0  0
   32.1070   34.7550   14.9120 C   0  0  1  0  0  0  0  0  0  0  0  0
   28.7210   35.2280   12.8560 O   0  0  0  0  0  0  0  0  0  0  0  0
   28.9460   34.9470   11.9360 H   0  0  0  0  0  0  0  0  0  0  0  0
   29.6430   37.2780   13.4520 C   0  0  0  0  0  0  0  0  0  0  0  0
   30.4160   37.9640   12.7640 O   0  0  0  0  0  0  0  0  0  0  0  0
   28.6300   37.8840   14.1640 O   0  0  0  0  0  0  0  0  0  0  0  0
   27.7850   38.2730   13.7230 H   0  0  0  0  0  0  0  0  0  0  0  0
   33.3380   34.9090   12.8610 O   0  0  0  0  0  0  0  0  0  0  0  0
   33.2750   33.9360   13.0120 H   0  0  0  0  0  0  0  0  0  0  0  0
   32.7520   35.4130   16.0180 N   0  0  0  0  0  0  0  0  0  0  0  0
   34.1600   35.5920   16.0820 C   0  0  0  0  0  0  0  0  0  0  0  0
   32.1680   35.7840   16.8280 H   0  0  0  0  0  0  0  0  0  0  0  0
   34.7740   36.2720   17.2380 C   0  0  0  0  0  0  0  0  0  0  0  0
   34.8650   35.1590   15.1350 O   0  0  0  0  0  0  0  0  0  0  0  0
   31.5150   32.3030   14.9600 O   0  0  0  0  0  0  0  0  0  0  0  0
   32.2810   32.8580   14.6830 H   0  0  0  0  0  0  0  0  0  0  0  0
   29.2860   30.9990   15.3610 O   0  0  0  0  0  0  0  0  0  0  0  0
   29.8090   30.9410   14.5140 H   0  0  0  0  0  0  0  0  0  0  0  0
   27.4790   33.1910   14.6420 N   0  0  0  0  0  0  0  0  0  0  0  0
   26.0760   33.3160   14.4670 C   0  0  0  0  0  0  0  0  0  0  0  0
   28.0780   33.3850   13.8240 H   0  0  0  0  0  0  0  0  0  0  0  0
   25.3340   33.1440   15.4680 O   0  0  0  0  0  0  0  0  0  0  0  0
   25.4800   33.6130   13.2620 O   0  0  0  0  0  0  0  0  0  0  0  0
   24.5610   34.6680   13.0560 C   0  0  0  0  0  0  0  0  0  0  0  0
   24.6280   35.0530   11.6060 C   0  0  0  0  0  0  0  0  0  0  0  0
   25.7420   35.3270   10.8440 C   0  0  0  0  0  0  0  0  0  0  0  0
   23.5750   35.2050   10.7540 N   0  0  0  0  0  0  0  0  0  0  0  0
   25.3040   35.6280    9.5870 N   0  0  0  0  0  0  0  0  0  0  0  0
   23.9860   35.5450    9.5630 N   0  0  0  0  0  0  0  0  0  0  0  0
   26.1500   35.9700    8.5020 C   0  0  0  0  0  0  0  0  0  0  0  0
   27.0090   35.0190    7.9840 C   0  0  0  0  0  0  0  0  0  0  0  0
   26.1680   37.2200    7.9180 C   0  0  0  0  0  0  0  0  0  0  0  0
   27.8550   35.2930    6.9300 C   0  0  0  0  0  0  0  0  0  0  0  0
   26.9960   37.5130    6.8740 C   0  0  0  0  0  0  0  0  0  0  0  0
   27.8610   36.5520    6.3540 C   0  0  0  0  0  0  0  0  0  0  0  0
   27.2180   38.6420    6.1210 C   0  0  0  0  0  0  0  0  0  0  0  0
   28.5520   37.1060    5.3440 N   0  0  0  0  0  0  0  0  0  0  0  0
   28.1770   38.3560    5.1940 N   0  0  0  0  0  0  0  0  0  0  0  0
   29.2670   36.6150    4.7770 H   0  0  0  0  0  0  0  0  0  0  0  0
   29.8670   25.5550   16.9770 C   0  0  0  0  0  0  0  0  0  0  0  0
   28.3450   25.7220   17.0260 C   0  0  0  0  0  0  0  0  0  0  0  0
   27.6020   24.4000   16.9140 C   0  0  0  0  0  0  0  0  0  0  0  0
   26.1900   24.4990   17.4220 C   0  0  0  0  0  0  0  0  0  0  0  0
   25.9810   23.4890   18.5460 C   0  0  0  0  0  0  0  0  0  0  0  0
   25.3910   24.1500   19.7340 N   0  0  0  0  0  0  0  0  0  0  0  0
  2  1  1  6  0  0  0
  3 23  1  1  0  0  0
  3  2  1  0  0  0  0
  4  3  1  6  0  0  0
  5 10  1  6  0  0  0
  5  7  1  0  0  0  0
  6  5  1  0  0  0  0
  6  8  1  0  0  0  0
  7  4  1  0  0  0  0
  8 16  1  6  0  0  0
  8  9  1  0  0  0  0
  9  4  1  0  0  0  0
  9 18  1  1  0  0  0
 11 10  1  0  0  0  0
 12  5  1  0  0  0  0
 12 14  1  0  0  0  0
 13 12  2  0  0  0  0
 15 14  1  0  0  0  0
 16 17  1  0  0  0  0
 18 19  1  0  0  0  0
 18 20  1  0  0  0  0
 19 21  1  0  0  0  0
 22 19  2  0  0  0  0
 24 23  1  0  0  0  0
 25  2  1  0  0  0  0
 26 25  1  0  0  0  0
 27  1  1  0  0  0  0
 28 27  1  0  0  0  0
 28 30  2  0  0  0  0
 29 27  1  0  0  0  0
 31 28  1  0  0  0  0
 32 31  1  0  0  0  0
 33 32  1  0  0  0  0
 34 33  2  0  0  0  0
 35 33  1  0  0  0  0
 36 34  1  0  0  0  0
 37 36  1  0  0  0  0
 37 35  2  0  0  0  0
 38 36  1  0  0  0  0
 39 38  1  0  0  0  0
 40 38  2  0  0  0  0
 41 39  2  0  0  0  0
 42 40  1  0  0  0  0
 43 42  2  0  0  0  0
 43 41  1  0  0  0  0
 44 42  1  0  0  0  0
 45 43  1  0  0  0  0
 46 45  1  0  0  0  0
 46 44  2  0  0  0  0
 47 45  1  0  0  0  0
 48 49  1  0  0  0  0
 50 49  1  0  0  0  0
 50 51  1  0  0  0  0
 51 52  1  0  0  0  0
 52 53  1  0  0  0  0
M  END
>  <REMARK>
 VINA RESULT:    -4.609      2.081      2.704
 INTER + INTRA:         -14.467
 INTER:                 -10.511
 INTRA:                  -3.956
 UNBOUND:                -6.490
 SMILES CC(=O)N[C@@H]1[C@@H](O)C[C@](O)(C(=O)O)O[C@H]1C(O)[C@H](O)CNC(=O)OCc1cn(-c2ccc3[nH]ncc3c2)nn1
 SMILES IDX 20 1 18 2 16 3 15 4 9 5 8 6 14 7 6 8 5 9 10 10 11 12 12 13
 SMILES IDX 13 14 7 16 4 18 2 19 1 21 3 22 17 23 19 25 21 27 22 28 23 30
 SMILES IDX 24 31 25 32 26 33 27 34 39 35 28 36 38 37 29 38 30 39 37 40
 SMILES IDX 31 41 36 42 32 43 35 44 33 45 34 46
 H PARENT 10 11 13 15 7 17 4 20 17 24 19 26 21 29 33 47
 Flexibility Score: inf
  4 active torsions:
  status: ('A' for Active; 'I' for Inactive)
    1  A    between atoms: CA   and  CB  
    2  A    between atoms: CB   and  CG  
    3  A    between atoms: CG   and  CD  
    4  A    between atoms: CD   and  CE  

>  <TORSDO>
F 15

>  <BEGIN_>
RES LYS A 131

$$$$
ligand_20_pose_13_2HRL.pdbqt
 OpenBabel07062320523D

  6  5  0  0  0  0  0  0  0  0999 V2000
   33.1930   34.6630    9.2900 C   0  0  0  0  0  0  0  0  0  0  0  0
   32.0600   35.3600   10.0340 C   0  0  0  0  0  0  0  0  0  0  0  0
   30.7630   35.3880    9.2670 C   0  0  0  0  0  0  0  0  0  0  0  0
   29.9940   36.6670    9.5600 C   0  0  0  0  0  0  0  0  0  0  0  0
   30.8590   37.8830    9.2860 C   0  0  0  0  0  0  0  0  0  0  0  0
   30.5370   38.4830    7.9620 N   0  0  0  0  0  0  0  0  0  0  0  0
  1  2  1  0  0  0  0
  3  4  1  0  0  0  0
  3  2  1  0  0  0  0
  5  4  1  0  0  0  0
  6  5  1  0  0  0  0
M  END
>  <EGIN_R>
ES LYS A 135

>  <REMARK>
  4 active torsions:
  status: ('A' for Active; 'I' for Inactive)
    5  A    between atoms: CA   and  CB  
    6  A    between atoms: CB   and  CG  
    7  A    between atoms: CG   and  CD  
    8  A    between atoms: CD   and  CE  

$$$$
