ligand_76_pose_5_2HRL.pdbqt
 OpenBabel07062320523D

 55 56  0  0  1  0  0  0  0  0999 V2000
   27.0150   40.5620   12.1380 O   0  0  0  0  0  0  0  0  0  0  0  0
   25.8630   39.8000   12.0440 C   0  0  0  0  0  0  0  0  0  0  0  0
   25.8930   38.4130   12.2980 N   0  0  0  0  0  0  0  0  0  0  0  0
   26.7910   37.9660   12.5560 H   0  0  0  0  0  0  0  0  0  0  0  0
   24.7790   40.3420   11.7310 O   0  0  0  0  0  0  0  0  0  0  0  0
   24.7040   37.5770   12.2120 C   0  0  0  0  0  0  0  0  0  0  0  0
   24.9660   36.3520   11.3560 C   0  0  2  0  0  0  0  0  0  0  0  0
   24.5080   36.6590    9.9400 C   0  0  1  0  0  0  0  0  0  0  0  0
   23.1630   37.3900    9.9660 C   0  0  2  0  0  0  0  0  0  0  0  0
   21.4000   35.8610    9.9040 C   0  0  2  0  0  0  0  0  0  0  0  0
   21.6370   35.7770    8.4370 C   0  0  0  0  0  0  0  0  0  0  0  0
   22.1840   36.7110   10.5990 O   0  0  0  0  0  0  0  0  0  0  0  0
   21.9170   37.0870    7.7920 C   0  0  1  0  0  0  0  0  0  0  0  0
   22.8630   37.9320    8.6030 C   0  0  1  0  0  0  0  0  0  0  0  0
   21.5940   34.5600   10.4280 O   0  0  0  0  0  0  0  0  0  0  0  0
   22.1740   34.0420    9.8140 H   0  0  0  0  0  0  0  0  0  0  0  0
   19.9380   36.1630   10.1120 C   0  0  0  0  0  0  0  0  0  0  0  0
   19.5160   37.3050   10.4120 O   0  0  0  0  0  0  0  0  0  0  0  0
   18.9690   35.1650    9.9760 O   0  0  0  0  0  0  0  0  0  0  0  0
   19.1630   34.3300    9.4050 H   0  0  0  0  0  0  0  0  0  0  0  0
   22.4170   36.8460    6.4910 O   0  0  0  0  0  0  0  0  0  0  0  0
   22.0620   35.9770    6.1370 H   0  0  0  0  0  0  0  0  0  0  0  0
   22.3960   39.3170    8.6940 N   0  0  0  0  0  0  0  0  0  0  0  0
   23.2710   40.4030    8.5450 C   0  0  0  0  0  0  0  0  0  0  0  0
   21.3580   39.4500    8.8800 H   0  0  0  0  0  0  0  0  0  0  0  0
   22.7550   41.7790    8.6460 C   0  0  0  0  0  0  0  0  0  0  0  0
   24.4830   40.2150    8.3280 O   0  0  0  0  0  0  0  0  0  0  0  0
   25.4230   37.6100    9.4530 O   0  0  0  0  0  0  0  0  0  0  0  0
   25.0430   38.5390    9.4900 H   0  0  0  0  0  0  0  0  0  0  0  0
   24.2670   35.2610   11.8580 O   0  0  0  0  0  0  0  0  0  0  0  0
   24.2730   35.3370   12.8420 H   0  0  0  0  0  0  0  0  0  0  0  0
   27.4320   41.2250   10.9330 C   0  0  0  0  0  0  0  0  0  0  0  0
   27.7890   40.2280    9.9010 C   0  0  0  0  0  0  0  0  0  0  0  0
   27.9200   40.3880    8.5410 C   0  0  0  0  0  0  0  0  0  0  0  0
   28.0580   38.9350   10.1550 N   0  0  0  0  0  0  0  0  0  0  0  0
   28.2600   39.2050    8.0110 N   0  0  0  0  0  0  0  0  0  0  0  0
   28.3390   38.3520    8.9830 N   0  0  0  0  0  0  0  0  0  0  0  0
   28.5070   38.8890    6.5860 C   0  0  0  0  0  0  0  0  0  0  0  0
   27.3310   38.1230    6.0660 C   0  0  2  0  0  0  0  0  0  0  0  0
   26.1680   38.3850    6.8030 O   0  0  0  0  0  0  0  0  0  0  0  0
   26.3820   38.2030    7.7630 H   0  0  0  0  0  0  0  0  0  0  0  0
   27.5560   36.7660    5.6220 C   0  0  0  0  0  0  0  0  0  0  0  0
   28.7170   36.0210    6.1200 C   0  0  0  0  0  0  0  0  0  0  0  0
   28.5050   35.2840    7.3560 C   0  0  0  0  0  0  0  0  0  0  0  0
   29.6300   34.8070    8.0400 C   0  0  0  0  0  0  0  0  0  0  0  0
   27.2970   34.9500    7.8830 C   0  0  0  0  0  0  0  0  0  0  0  0
   29.4990   34.0450    9.1780 C   0  0  0  0  0  0  0  0  0  0  0  0
   27.1450   34.1850    9.0270 C   0  0  0  0  0  0  0  0  0  0  0  0
   28.2640   33.7230    9.6880 C   0  0  0  0  0  0  0  0  0  0  0  0
   29.8670   25.5550   16.9770 C   0  0  0  0  0  0  0  0  0  0  0  0
   28.3450   25.7220   17.0260 C   0  0  0  0  0  0  0  0  0  0  0  0
   27.6010   24.4020   16.8940 C   0  0  0  0  0  0  0  0  0  0  0  0
   26.6020   24.2020   18.0000 C   0  0  0  0  0  0  0  0  0  0  0  0
   26.3930   25.5190   18.7410 C   0  0  0  0  0  0  0  0  0  0  0  0
   24.9550   25.8790   18.7630 N   0  0  0  0  0  0  0  0  0  0  0  0
  2  1  1  0  0  0  0
  2  3  1  0  0  0  0
  3  4  1  0  0  0  0
  5  2  2  0  0  0  0
  6  3  1  0  0  0  0
  7 30  1  0  0  0  0
  7  6  1  1  0  0  0
  8 28  1  1  0  0  0
  8  7  1  0  0  0  0
  9  8  1  6  0  0  0
  9 12  1  0  0  0  0
 10 17  1  1  0  0  0
 10 15  1  0  0  0  0
 10 12  1  0  0  0  0
 11 10  1  0  0  0  0
 13 21  1  6  0  0  0
 13 11  1  0  0  0  0
 13 14  1  0  0  0  0
 14 23  1  1  0  0  0
 14  9  1  0  0  0  0
 16 15  1  0  0  0  0
 17 18  2  0  0  0  0
 19 17  1  0  0  0  0
 20 19  1  0  0  0  0
 22 21  1  0  0  0  0
 23 25  1  0  0  0  0
 24 26  1  0  0  0  0
 24 23  1  0  0  0  0
 27 24  2  0  0  0  0
 28 29  1  0  0  0  0
 30 31  1  0  0  0  0
 32  1  1  0  0  0  0
 33 35  1  0  0  0  0
 33 32  1  0  0  0  0
 34 33  2  0  0  0  0
 36 34  1  0  0  0  0
 36 37  1  0  0  0  0
 37 35  2  0  0  0  0
 38 36  1  0  0  0  0
 39 42  1  1  0  0  0
 39 38  1  0  0  0  0
 39 40  1  0  0  0  0
 40 41  1  0  0  0  0
 42 43  1  0  0  0  0
 43 44  1  0  0  0  0
 44 46  2  0  0  0  0
 44 45  1  0  0  0  0
 45 47  2  0  0  0  0
 46 48  1  0  0  0  0
 47 49  1  0  0  0  0
 48 49  2  0  0  0  0
 50 51  1  0  0  0  0
 52 51  1  0  0  0  0
 52 53  1  0  0  0  0
 53 54  1  0  0  0  0
 54 55  1  0  0  0  0
M  END
>  <REMARK>
 VINA RESULT:    -5.099      1.676      2.164
 INTER + INTRA:         -16.937
 INTER:                 -10.378
 INTRA:                  -6.559
 UNBOUND:                -6.771
 SMILES CC(=O)N[C@@H]1[C@@H](O)C[C@](O)(C(=O)O)O[C@H]1C(O)[C@H](O)CNC(=O)OCc1cn(CC(O)CCc2ccccc2)nn1
 SMILES IDX 24 1 22 2 21 3 23 5 20 6 18 7 16 8 15 9 9 10 8 11 14 12 6 13
 SMILES IDX 5 14 10 15 11 17 12 18 13 19 7 21 4 23 2 24 1 26 3 27 17 28
 SMILES IDX 19 30 25 32 26 33 27 34 41 35 28 36 40 37 29 38 30 39 31 40
 SMILES IDX 32 42 33 43 34 44 35 45 39 46 36 47 38 48 37 49
 H PARENT 21 4 10 16 13 20 7 22 4 25 17 29 19 31 31 41
 Flexibility Score: inf
  4 active torsions:
  status: ('A' for Active; 'I' for Inactive)
    1  A    between atoms: CA   and  CB  
    2  A    between atoms: CB   and  CG  
    3  A    between atoms: CG   and  CD  
    4  A    between atoms: CD   and  CE  

>  <TORSDO>
F 20

>  <BEGIN_>
RES LYS A 131

$$$$
ligand_76_pose_5_2HRL.pdbqt
 OpenBabel07062320523D

  6  5  0  0  0  0  0  0  0  0999 V2000
   33.1930   34.6630    9.2900 C   0  0  0  0  0  0  0  0  0  0  0  0
   32.0600   35.3600   10.0340 C   0  0  0  0  0  0  0  0  0  0  0  0
   32.4380   35.8100   11.4220 C   0  0  0  0  0  0  0  0  0  0  0  0
   31.3500   35.4430   12.4190 C   0  0  0  0  0  0  0  0  0  0  0  0
   31.7730   35.8130   13.8280 C   0  0  0  0  0  0  0  0  0  0  0  0
   31.6700   37.2820   14.0510 N   0  0  0  0  0  0  0  0  0  0  0  0
  1  2  1  0  0  0  0
  2  3  1  0  0  0  0
  3  4  1  0  0  0  0
  4  5  1  0  0  0  0
  5  6  1  0  0  0  0
M  END
>  <EGIN_R>
ES LYS A 135

>  <REMARK>
  4 active torsions:
  status: ('A' for Active; 'I' for Inactive)
    5  A    between atoms: CA   and  CB  
    6  A    between atoms: CB   and  CG  
    7  A    between atoms: CG   and  CD  
    8  A    between atoms: CD   and  CE  

$$$$
