ligand_48_pose_8_2HRL.pdbqt
 OpenBabel07062320523D

 49 50  0  0  1  0  0  0  0  0999 V2000
   26.0510   33.7380   19.9300 C   0  0  0  0  0  0  0  0  0  0  0  0
   25.7570   33.0120   18.6250 C   0  0  2  0  0  0  0  0  0  0  0  0
   26.7330   31.8800   18.5210 C   0  0  1  0  0  0  0  0  0  0  0  0
   26.1130   30.5280   18.2430 C   0  0  2  0  0  0  0  0  0  0  0  0
   27.5440   28.8160   18.9940 C   0  0  2  0  0  0  0  0  0  0  0  0
   27.4090   28.0770   17.6730 C   0  0  0  0  0  0  0  0  0  0  0  0
   26.4490   29.5900   19.1810 O   0  0  0  0  0  0  0  0  0  0  0  0
   27.2310   29.0390   16.5270 C   0  0  1  0  0  0  0  0  0  0  0  0
   26.1760   30.0850   16.8230 C   0  0  1  0  0  0  0  0  0  0  0  0
   28.7690   29.4750   19.0680 O   0  0  0  0  0  0  0  0  0  0  0  0
   29.4860   28.7770   19.1960 H   0  0  0  0  0  0  0  0  0  0  0  0
   27.5310   27.7540   20.0380 C   0  0  0  0  0  0  0  0  0  0  0  0
   26.8410   27.9010   21.0720 O   0  0  0  0  0  0  0  0  0  0  0  0
   28.2720   26.6210   19.8650 O   0  0  0  0  0  0  0  0  0  0  0  0
   28.6980   26.3380   18.9910 H   0  0  0  0  0  0  0  0  0  0  0  0
   28.4420   29.6140   16.1650 O   0  0  0  0  0  0  0  0  0  0  0  0
   28.6560   30.3640   16.7720 H   0  0  0  0  0  0  0  0  0  0  0  0
   24.8760   29.5920   16.3640 N   0  0  0  0  0  0  0  0  0  0  0  0
   24.4240   29.9780   15.0840 C   0  0  0  0  0  0  0  0  0  0  0  0
   24.2880   28.9710   16.9520 H   0  0  0  0  0  0  0  0  0  0  0  0
   23.1120   29.5270   14.5270 C   0  0  0  0  0  0  0  0  0  0  0  0
   25.1020   30.7350   14.3200 O   0  0  0  0  0  0  0  0  0  0  0  0
   27.8400   32.1820   17.7730 O   0  0  0  0  0  0  0  0  0  0  0  0
   28.4460   32.8580   18.2140 H   0  0  0  0  0  0  0  0  0  0  0  0
   25.8080   33.9350   17.6080 O   0  0  0  0  0  0  0  0  0  0  0  0
   24.9070   34.1990   17.3650 H   0  0  0  0  0  0  0  0  0  0  0  0
   27.2500   33.1710   20.5010 N   0  0  0  0  0  0  0  0  0  0  0  0
   28.1240   33.8370   21.3950 C   0  0  0  0  0  0  0  0  0  0  0  0
   27.5410   32.1730   20.2610 H   0  0  0  0  0  0  0  0  0  0  0  0
   27.8710   35.0170   21.7380 O   0  0  0  0  0  0  0  0  0  0  0  0
   29.2600   33.2140   21.9010 O   0  0  0  0  0  0  0  0  0  0  0  0
   30.5270   33.5670   21.4080 C   0  0  0  0  0  0  0  0  0  0  0  0
   30.6490   33.0450   20.0220 C   0  0  0  0  0  0  0  0  0  0  0  0
   31.1720   33.7370   18.9210 C   0  0  0  0  0  0  0  0  0  0  0  0
   30.3030   31.8480   19.5130 N   0  0  0  0  0  0  0  0  0  0  0  0
   31.1200   32.9510   17.8320 N   0  0  0  0  0  0  0  0  0  0  0  0
   30.5850   31.8080   18.2230 N   0  0  0  0  0  0  0  0  0  0  0  0
   31.5640   33.2930   16.4880 C   0  0  0  0  0  0  0  0  0  0  0  0
   31.0290   32.2680   15.5130 C   0  0  0  0  0  0  0  0  0  0  0  0
   31.0160   34.6460   16.0930 C   0  0  0  0  0  0  0  0  0  0  0  0
   29.8610   32.8130   14.7140 C   0  0  0  0  0  0  0  0  0  0  0  0
   31.3120   34.8250   14.6140 C   0  0  0  0  0  0  0  0  0  0  0  0
   30.3180   33.9640   13.8580 C   0  0  0  0  0  0  0  0  0  0  0  0
   29.8670   25.5550   16.9770 C   0  0  0  0  0  0  0  0  0  0  0  0
   28.3450   25.7220   17.0260 C   0  0  0  0  0  0  0  0  0  0  0  0
   27.6010   24.4030   16.8870 C   0  0  0  0  0  0  0  0  0  0  0  0
   26.5990   24.1990   17.9900 C   0  0  0  0  0  0  0  0  0  0  0  0
   25.3070   24.9330   17.6450 C   0  0  0  0  0  0  0  0  0  0  0  0
   24.4020   24.0530   16.8670 N   0  0  0  0  0  0  0  0  0  0  0  0
  1 27  1  0  0  0  0
  2  1  1  1  0  0  0
  3 23  1  6  0  0  0
  3  2  1  0  0  0  0
  4  3  1  6  0  0  0
  4  7  1  0  0  0  0
  5 10  1  1  0  0  0
  5  7  1  0  0  0  0
  5 12  1  0  0  0  0
  6  5  1  0  0  0  0
  8 16  1  1  0  0  0
  8  9  1  0  0  0  0
  8  6  1  0  0  0  0
  9 18  1  1  0  0  0
  9  4  1  0  0  0  0
 10 11  1  0  0  0  0
 12 13  2  0  0  0  0
 14 12  1  0  0  0  0
 15 14  1  0  0  0  0
 16 17  1  0  0  0  0
 18 20  1  0  0  0  0
 19 18  1  0  0  0  0
 21 19  1  0  0  0  0
 22 19  2  0  0  0  0
 23 24  1  0  0  0  0
 25  2  1  0  0  0  0
 26 25  1  0  0  0  0
 27 28  1  0  0  0  0
 28 30  2  0  0  0  0
 28 31  1  0  0  0  0
 29 27  1  0  0  0  0
 32 31  1  0  0  0  0
 33 32  1  0  0  0  0
 34 33  2  0  0  0  0
 35 33  1  0  0  0  0
 36 37  1  0  0  0  0
 36 34  1  0  0  0  0
 37 35  2  0  0  0  0
 38 36  1  0  0  0  0
 39 38  1  0  0  0  0
 40 38  1  0  0  0  0
 41 39  1  0  0  0  0
 42 40  1  0  0  0  0
 43 42  1  0  0  0  0
 43 41  1  0  0  0  0
 44 45  1  0  0  0  0
 46 45  1  0  0  0  0
 46 47  1  0  0  0  0
 48 47  1  0  0  0  0
 49 48  1  0  0  0  0
M  END
>  <REMARK>
 VINA RESULT:    -4.767      2.685      5.695
 INTER + INTRA:         -14.046
 INTER:                  -7.292
 INTRA:                  -6.754
 UNBOUND:                -5.796
 SMILES CC(=O)N[C@@H]1[C@@H](O)C[C@](O)(C(=O)O)O[C@H]1C(O)[C@H](O)CNC(=O)OCc1cn(C2CCCCC2)nn1
 SMILES IDX 20 1 18 2 16 3 15 4 9 5 8 6 14 7 6 8 5 9 10 10 11 12 12 13
 SMILES IDX 13 14 7 16 4 18 2 19 1 21 3 22 17 23 19 25 21 27 22 28 23 30
 SMILES IDX 24 31 25 32 26 33 27 34 36 35 28 36 35 37 29 38 30 39 34 40
 SMILES IDX 31 41 33 42 32 43
 H PARENT 10 11 13 15 7 17 4 20 17 24 19 26 21 29
 Flexibility Score: inf
  4 active torsions:
  status: ('A' for Active; 'I' for Inactive)
    1  A    between atoms: CA   and  CB  
    2  A    between atoms: CB   and  CG  
    3  A    between atoms: CG   and  CD  
    4  A    between atoms: CD   and  CE  

>  <TORSDO>
F 15

>  <BEGIN_>
RES LYS A 131

$$$$
ligand_48_pose_8_2HRL.pdbqt
 OpenBabel07062320523D

  6  5  0  0  0  0  0  0  0  0999 V2000
   33.1930   34.6630    9.2900 C   0  0  0  0  0  0  0  0  0  0  0  0
   32.0600   35.3600   10.0340 C   0  0  0  0  0  0  0  0  0  0  0  0
   30.7800   35.4410    9.2430 C   0  0  0  0  0  0  0  0  0  0  0  0
   30.1320   34.0700    9.1270 C   0  0  0  0  0  0  0  0  0  0  0  0
   28.6320   34.2030    8.9500 C   0  0  0  0  0  0  0  0  0  0  0  0
   28.3040   35.0530    7.7730 N   0  0  0  0  0  0  0  0  0  0  0  0
  1  2  1  0  0  0  0
  3  2  1  0  0  0  0
  4  3  1  0  0  0  0
  5  4  1  0  0  0  0
  6  5  1  0  0  0  0
M  END
>  <EGIN_R>
ES LYS A 135

>  <REMARK>
  4 active torsions:
  status: ('A' for Active; 'I' for Inactive)
    5  A    between atoms: CA   and  CB  
    6  A    between atoms: CB   and  CG  
    7  A    between atoms: CG   and  CD  
    8  A    between atoms: CD   and  CE  

$$$$
