ligand_76_pose_18_2HRL.pdbqt
 OpenBabel07062320523D

 55 56  0  0  1  0  0  0  0  0999 V2000
   33.2230   35.1760   19.2080 O   0  0  0  0  0  0  0  0  0  0  0  0
   32.1120   35.0100   20.0160 C   0  0  0  0  0  0  0  0  0  0  0  0
   31.2270   33.9310   19.8140 N   0  0  0  0  0  0  0  0  0  0  0  0
   31.4170   33.2580   19.0490 H   0  0  0  0  0  0  0  0  0  0  0  0
   31.8830   35.8250   20.9390 O   0  0  0  0  0  0  0  0  0  0  0  0
   30.0490   33.7200   20.6430 C   0  0  0  0  0  0  0  0  0  0  0  0
   28.8050   33.5720   19.7860 C   0  0  2  0  0  0  0  0  0  0  0  0
   29.2430   33.4200   18.3390 C   0  0  1  0  0  0  0  0  0  0  0  0
   28.1210   32.7860   17.5120 C   0  0  2  0  0  0  0  0  0  0  0  0
   28.3430   30.4620   17.4790 C   0  0  2  0  0  0  0  0  0  0  0  0
   29.3790   30.6610   16.4280 C   0  0  0  0  0  0  0  0  0  0  0  0
   27.7370   31.5700   17.9530 O   0  0  0  0  0  0  0  0  0  0  0  0
   29.0300   31.7000   15.4230 C   0  0  1  0  0  0  0  0  0  0  0  0
   28.4340   32.9280   16.0550 C   0  0  1  0  0  0  0  0  0  0  0  0
   28.9770   29.8120   18.5650 O   0  0  0  0  0  0  0  0  0  0  0  0
   28.3230   29.6860   19.2990 H   0  0  0  0  0  0  0  0  0  0  0  0
   27.3410   29.4700   16.9470 C   0  0  0  0  0  0  0  0  0  0  0  0
   27.4160   28.2390   17.1730 O   0  0  0  0  0  0  0  0  0  0  0  0
   26.2600   29.8860   16.1630 O   0  0  0  0  0  0  0  0  0  0  0  0
   26.2210   29.6390   15.1640 H   0  0  0  0  0  0  0  0  0  0  0  0
   30.1920   32.0080   14.6780 O   0  0  0  0  0  0  0  0  0  0  0  0
   30.1720   31.5380   13.7920 H   0  0  0  0  0  0  0  0  0  0  0  0
   27.2520   33.3860   15.3200 N   0  0  0  0  0  0  0  0  0  0  0  0
   26.9430   34.7480   15.1930 C   0  0  0  0  0  0  0  0  0  0  0  0
   26.6450   32.6270   14.8910 H   0  0  0  0  0  0  0  0  0  0  0  0
   25.7430   35.1600   14.4450 C   0  0  0  0  0  0  0  0  0  0  0  0
   27.6750   35.6150   15.7070 O   0  0  0  0  0  0  0  0  0  0  0  0
   29.3540   34.7320   17.8460 O   0  0  0  0  0  0  0  0  0  0  0  0
   29.2620   35.4100   18.5800 H   0  0  0  0  0  0  0  0  0  0  0  0
   27.9940   34.6920   19.9250 O   0  0  0  0  0  0  0  0  0  0  0  0
   27.4420   34.7570   19.1100 H   0  0  0  0  0  0  0  0  0  0  0  0
   33.1540   36.2470   18.2520 C   0  0  0  0  0  0  0  0  0  0  0  0
   32.4450   35.7970   17.0340 C   0  0  0  0  0  0  0  0  0  0  0  0
   31.8640   36.5430   16.0370 C   0  0  0  0  0  0  0  0  0  0  0  0
   32.2550   34.5080   16.7000 N   0  0  0  0  0  0  0  0  0  0  0  0
   31.3410   35.7010   15.1340 N   0  0  0  0  0  0  0  0  0  0  0  0
   31.5820   34.4950   15.5420 N   0  0  0  0  0  0  0  0  0  0  0  0
   30.6160   36.0440   13.8900 C   0  0  0  0  0  0  0  0  0  0  0  0
   30.5260   34.8120   13.0450 C   0  0  2  0  0  0  0  0  0  0  0  0
   31.7240   34.5560   12.3630 O   0  0  0  0  0  0  0  0  0  0  0  0
   32.4620   34.6080   13.0370 H   0  0  0  0  0  0  0  0  0  0  0  0
   29.2870   34.5650   12.3440 C   0  0  0  0  0  0  0  0  0  0  0  0
   28.3900   35.6860   12.0370 C   0  0  0  0  0  0  0  0  0  0  0  0
   27.6590   35.5770   10.7850 C   0  0  0  0  0  0  0  0  0  0  0  0
   27.6860   34.3500   10.1100 C   0  0  0  0  0  0  0  0  0  0  0  0
   26.9970   36.5880   10.1610 C   0  0  0  0  0  0  0  0  0  0  0  0
   27.0740   34.1970    8.8880 C   0  0  0  0  0  0  0  0  0  0  0  0
   26.3740   36.4540    8.9330 C   0  0  0  0  0  0  0  0  0  0  0  0
   26.4110   35.2390    8.2810 C   0  0  0  0  0  0  0  0  0  0  0  0
   29.8670   25.5550   16.9770 C   0  0  0  0  0  0  0  0  0  0  0  0
   28.3450   25.7220   17.0260 C   0  0  0  0  0  0  0  0  0  0  0  0
   27.6010   24.4010   16.9010 C   0  0  0  0  0  0  0  0  0  0  0  0
   26.5230   24.2580   17.9390 C   0  0  0  0  0  0  0  0  0  0  0  0
   25.2000   23.9290   17.2570 C   0  0  0  0  0  0  0  0  0  0  0  0
   24.7810   22.5440   17.5760 N   0  0  0  0  0  0  0  0  0  0  0  0
  1  2  1  0  0  0  0
  2  5  2  0  0  0  0
  3  2  1  0  0  0  0
  3  6  1  0  0  0  0
  4  3  1  0  0  0  0
  7 30  1  0  0  0  0
  7  6  1  1  0  0  0
  8 28  1  6  0  0  0
  8  7  1  0  0  0  0
  9 12  1  0  0  0  0
  9  8  1  1  0  0  0
 10 17  1  6  0  0  0
 10 12  1  0  0  0  0
 10 15  1  0  0  0  0
 11 10  1  0  0  0  0
 13 21  1  1  0  0  0
 13 14  1  0  0  0  0
 13 11  1  0  0  0  0
 14 23  1  6  0  0  0
 14  9  1  0  0  0  0
 15 16  1  0  0  0  0
 17 18  2  0  0  0  0
 19 17  1  0  0  0  0
 20 19  1  0  0  0  0
 22 21  1  0  0  0  0
 24 23  1  0  0  0  0
 24 27  2  0  0  0  0
 25 23  1  0  0  0  0
 26 24  1  0  0  0  0
 28 29  1  0  0  0  0
 31 30  1  0  0  0  0
 32  1  1  0  0  0  0
 33 32  1  0  0  0  0
 34 33  2  0  0  0  0
 35 33  1  0  0  0  0
 36 37  1  0  0  0  0
 36 34  1  0  0  0  0
 37 35  2  0  0  0  0
 38 36  1  0  0  0  0
 39 42  1  6  0  0  0
 39 38  1  0  0  0  0
 40 41  1  0  0  0  0
 40 39  1  0  0  0  0
 43 42  1  0  0  0  0
 44 43  1  0  0  0  0
 45 44  2  0  0  0  0
 46 44  1  0  0  0  0
 47 45  1  0  0  0  0
 48 46  2  0  0  0  0
 49 47  2  0  0  0  0
 49 48  1  0  0  0  0
 50 51  1  0  0  0  0
 52 51  1  0  0  0  0
 52 53  1  0  0  0  0
 54 55  1  0  0  0  0
 54 53  1  0  0  0  0
M  END
>  <REMARK>
 VINA RESULT:    -4.722      5.318      8.908
 INTER + INTRA:         -16.185
 INTER:                  -9.591
 INTRA:                  -6.594
 UNBOUND:                -6.771
 SMILES CC(=O)N[C@@H]1[C@@H](O)C[C@](O)(C(=O)O)O[C@H]1C(O)[C@H](O)CNC(=O)OCc1cn(CC(O)CCc2ccccc2)nn1
 SMILES IDX 24 1 22 2 21 3 23 5 20 6 18 7 16 8 15 9 9 10 8 11 14 12 6 13
 SMILES IDX 5 14 10 15 11 17 12 18 13 19 7 21 4 23 2 24 1 26 3 27 17 28
 SMILES IDX 19 30 25 32 26 33 27 34 41 35 28 36 40 37 29 38 30 39 31 40
 SMILES IDX 32 42 33 43 34 44 35 45 39 46 36 47 38 48 37 49
 H PARENT 21 4 10 16 13 20 7 22 4 25 17 29 19 31 31 41
 Flexibility Score: inf
  4 active torsions:
  status: ('A' for Active; 'I' for Inactive)
    1  A    between atoms: CA   and  CB  
    2  A    between atoms: CB   and  CG  
    3  A    between atoms: CG   and  CD  
    4  A    between atoms: CD   and  CE  

>  <TORSDO>
F 20

>  <BEGIN_>
RES LYS A 131

$$$$
ligand_76_pose_18_2HRL.pdbqt
 OpenBabel07062320523D

  6  5  0  0  0  0  0  0  0  0999 V2000
   33.1930   34.6630    9.2900 C   0  0  0  0  0  0  0  0  0  0  0  0
   32.0600   35.3600   10.0340 C   0  0  0  0  0  0  0  0  0  0  0  0
   30.8450   35.6140    9.1800 C   0  0  0  0  0  0  0  0  0  0  0  0
   30.5520   37.1040    9.0930 C   0  0  0  0  0  0  0  0  0  0  0  0
   31.0280   37.8140   10.3460 C   0  0  0  0  0  0  0  0  0  0  0  0
   31.9620   38.9250   10.0110 N   0  0  0  0  0  0  0  0  0  0  0  0
  1  2  1  0  0  0  0
  3  2  1  0  0  0  0
  4  3  1  0  0  0  0
  4  5  1  0  0  0  0
  6  5  1  0  0  0  0
M  END
>  <EGIN_R>
ES LYS A 135

>  <REMARK>
  4 active torsions:
  status: ('A' for Active; 'I' for Inactive)
    5  A    between atoms: CA   and  CB  
    6  A    between atoms: CB   and  CG  
    7  A    between atoms: CG   and  CD  
    8  A    between atoms: CD   and  CE  

$$$$
