ligand_85_pose_9_2HRL.pdbqt
 OpenBabel07062320523D

 55 56  0  0  1  0  0  0  0  0999 V2000
   33.6030   35.9850   18.8130 N   0  0  0  0  0  0  0  0  0  0  0  0
   34.4440   36.0740   19.9330 C   0  0  0  0  0  0  0  0  0  0  0  0
   34.3400   37.0330   20.7240 O   0  0  0  0  0  0  0  0  0  0  0  0
   33.6960   35.1760   18.1590 H   0  0  0  0  0  0  0  0  0  0  0  0
   32.5990   36.9740   18.5190 C   0  0  0  0  0  0  0  0  0  0  0  0
   32.8520   37.5690   17.1570 C   0  0  2  0  0  0  0  0  0  0  0  0
   32.9430   36.5240   16.0750 C   0  0  2  0  0  0  0  0  0  0  0  0
   31.8010   35.5820   16.1510 C   0  0  2  0  0  0  0  0  0  0  0  0
   30.9380   33.6390   17.0090 C   0  0  2  0  0  0  0  0  0  0  0  0
   29.6690   34.2520   16.4730 C   0  0  0  0  0  0  0  0  0  0  0  0
   32.0760   34.3480   16.7140 O   0  0  0  0  0  0  0  0  0  0  0  0
   29.7960   34.7410   15.0670 C   0  0  1  0  0  0  0  0  0  0  0  0
   31.1850   35.3020   14.7800 C   0  0  1  0  0  0  0  0  0  0  0  0
   31.0870   32.3790   16.4040 O   0  0  0  0  0  0  0  0  0  0  0  0
   32.0430   32.3440   16.0960 H   0  0  0  0  0  0  0  0  0  0  0  0
   30.8730   33.4540   18.4630 C   0  0  0  0  0  0  0  0  0  0  0  0
   31.8950   33.6570   19.1610 O   0  0  0  0  0  0  0  0  0  0  0  0
   29.7320   33.0590   19.1440 O   0  0  0  0  0  0  0  0  0  0  0  0
   29.6150   33.4290   20.1010 H   0  0  0  0  0  0  0  0  0  0  0  0
   29.5080   33.6690   14.1980 O   0  0  0  0  0  0  0  0  0  0  0  0
   28.5810   33.8300   13.8770 H   0  0  0  0  0  0  0  0  0  0  0  0
   31.1440   36.4630   13.9580 N   0  0  0  0  0  0  0  0  0  0  0  0
   31.8840   36.5130   12.7500 C   0  0  0  0  0  0  0  0  0  0  0  0
   30.5760   37.2930   14.2190 H   0  0  0  0  0  0  0  0  0  0  0  0
   31.8070   37.7610   11.9170 C   0  0  0  0  0  0  0  0  0  0  0  0
   32.5980   35.5840   12.3330 O   0  0  0  0  0  0  0  0  0  0  0  0
   34.1910   35.9550   16.0790 O   0  0  0  0  0  0  0  0  0  0  0  0
   34.5090   35.9260   15.1210 H   0  0  0  0  0  0  0  0  0  0  0  0
   34.1190   38.2330   17.1620 O   0  0  0  0  0  0  0  0  0  0  0  0
   34.8070   37.6700   17.5700 H   0  0  0  0  0  0  0  0  0  0  0  0
   35.4220   35.1310   20.2320 O   0  0  0  0  0  0  0  0  0  0  0  0
   36.7800   35.4310   19.9740 C   0  0  0  0  0  0  0  0  0  0  0  0
   37.0010   35.7020   18.5460 C   0  0  0  0  0  0  0  0  0  0  0  0
   37.6700   34.9550   17.5990 C   0  0  0  0  0  0  0  0  0  0  0  0
   36.5600   36.7890   17.8910 N   0  0  0  0  0  0  0  0  0  0  0  0
   37.6200   35.6000   16.4030 N   0  0  0  0  0  0  0  0  0  0  0  0
   36.9410   36.6990   16.6270 N   0  0  0  0  0  0  0  0  0  0  0  0
   38.1770   35.1870   15.1630 C   0  0  0  0  0  0  0  0  0  0  0  0
   37.4640   34.3630   14.3050 C   0  0  0  0  0  0  0  0  0  0  0  0
   39.4380   35.6120   14.8170 C   0  0  0  0  0  0  0  0  0  0  0  0
   37.9840   33.9530   13.1030 C   0  0  0  0  0  0  0  0  0  0  0  0
   39.9940   35.2180   13.6120 C   0  0  0  0  0  0  0  0  0  0  0  0
   37.0880   32.9070   12.0050 Cl  0  0  0  0  0  0  0  0  0  0  0  0
   39.2510   34.3900   12.7720 C   0  0  0  0  0  0  0  0  0  0  0  0
   40.1680   36.4710   15.7210 C   0  0  0  0  0  0  0  0  0  0  0  0
   40.8770   36.0300   16.6700 O   0  0  0  0  0  0  0  0  0  0  0  0
   40.1070   37.8740   15.5620 N   0  0  0  0  0  0  0  0  0  0  0  0
   39.3110   38.4220   14.4910 C   0  0  0  0  0  0  0  0  0  0  0  0
   40.8220   38.7860   16.4420 C   0  0  0  0  0  0  0  0  0  0  0  0
   29.8670   25.5550   16.9770 C   0  0  0  0  0  0  0  0  0  0  0  0
   28.3450   25.7220   17.0260 C   0  0  0  0  0  0  0  0  0  0  0  0
   27.6000   24.4080   16.8480 C   0  0  0  0  0  0  0  0  0  0  0  0
   26.6080   24.1650   17.9520 C   0  0  0  0  0  0  0  0  0  0  0  0
   25.7110   22.9890   17.5800 C   0  0  0  0  0  0  0  0  0  0  0  0
   24.4070   23.4740   17.0670 N   0  0  0  0  0  0  0  0  0  0  0  0
  1  2  1  0  0  0  0
  2 31  1  0  0  0  0
  2  3  2  0  0  0  0
  4  1  1  0  0  0  0
  5  1  1  0  0  0  0
  6 29  1  0  0  0  0
  6  5  1  1  0  0  0
  7 27  1  1  0  0  0
  7  6  1  0  0  0  0
  8  7  1  6  0  0  0
  8 11  1  0  0  0  0
  9 14  1  6  0  0  0
  9 16  1  0  0  0  0
 10  9  1  0  0  0  0
 11  9  1  0  0  0  0
 12 20  1  6  0  0  0
 12 10  1  0  0  0  0
 13 22  1  6  0  0  0
 13 12  1  0  0  0  0
 13  8  1  0  0  0  0
 15 14  1  0  0  0  0
 16 18  1  0  0  0  0
 16 17  2  0  0  0  0
 18 19  1  0  0  0  0
 21 20  1  0  0  0  0
 22 24  1  0  0  0  0
 23 22  1  0  0  0  0
 25 23  1  0  0  0  0
 26 23  2  0  0  0  0
 28 27  1  0  0  0  0
 29 30  1  0  0  0  0
 32 31  1  0  0  0  0
 33 32  1  0  0  0  0
 34 33  2  0  0  0  0
 35 33  1  0  0  0  0
 36 37  1  0  0  0  0
 36 34  1  0  0  0  0
 37 35  2  0  0  0  0
 38 36  1  0  0  0  0
 39 38  2  0  0  0  0
 40 38  1  0  0  0  0
 40 45  1  0  0  0  0
 41 39  1  0  0  0  0
 42 40  2  0  0  0  0
 43 41  1  0  0  0  0
 44 41  2  0  0  0  0
 44 42  1  0  0  0  0
 45 46  2  0  0  0  0
 47 45  1  0  0  0  0
 47 49  1  0  0  0  0
 48 47  1  0  0  0  0
 50 51  1  0  0  0  0
 52 51  1  0  0  0  0
 52 53  1  0  0  0  0
 54 53  1  0  0  0  0
 55 54  1  0  0  0  0
M  END
>  <REMARK>
 VINA RESULT:    -4.801      5.677     10.307
 INTER + INTRA:         -14.777
 INTER:                  -8.352
 INTRA:                  -6.425
 UNBOUND:                -6.187
 SMILES CC(=O)N[C@@H]1[C@@H](O)C[C@](O)(C(=O)O)O[C@H]1C(O)[C@H](O)CNC(=O)OCc1cn(-c2cc(Cl)ccc2C(=O)N(C)C)nn1
 SMILES IDX 21 1 22 2 23 3 20 5 18 6 16 7 15 8 9 9 8 10 14 11 6 12 5 13
 SMILES IDX 10 14 11 16 12 17 13 18 7 20 4 22 2 23 1 25 3 26 17 27 19 29
 SMILES IDX 24 31 25 32 26 33 27 34 42 35 28 36 41 37 29 38 30 39 35 40
 SMILES IDX 31 41 34 42 32 43 33 44 36 45 37 46 38 47 39 48 40 49
 H PARENT 21 4 10 15 13 19 7 21 4 24 17 28 19 30
 Flexibility Score: inf
  4 active torsions:
  status: ('A' for Active; 'I' for Inactive)
    1  A    between atoms: CA   and  CB  
    2  A    between atoms: CB   and  CG  
    3  A    between atoms: CG   and  CD  
    4  A    between atoms: CD   and  CE  

>  <TORSDO>
F 16

>  <BEGIN_>
RES LYS A 131

$$$$
ligand_85_pose_9_2HRL.pdbqt
 OpenBabel07062320523D

  6  5  0  0  0  0  0  0  0  0999 V2000
   33.1930   34.6630    9.2900 C   0  0  0  0  0  0  0  0  0  0  0  0
   32.0600   35.3600   10.0340 C   0  0  0  0  0  0  0  0  0  0  0  0
   30.8160   35.5410    9.2040 C   0  0  0  0  0  0  0  0  0  0  0  0
   30.0500   34.2320    9.0910 C   0  0  0  0  0  0  0  0  0  0  0  0
   28.7300   34.4460    8.3760 C   0  0  0  0  0  0  0  0  0  0  0  0
   28.9060   35.3040    7.1720 N   0  0  0  0  0  0  0  0  0  0  0  0
  1  2  1  0  0  0  0
  3  2  1  0  0  0  0
  4  3  1  0  0  0  0
  5  4  1  0  0  0  0
  6  5  1  0  0  0  0
M  END
>  <EGIN_R>
ES LYS A 135

>  <REMARK>
  4 active torsions:
  status: ('A' for Active; 'I' for Inactive)
    5  A    between atoms: CA   and  CB  
    6  A    between atoms: CB   and  CG  
    7  A    between atoms: CG   and  CD  
    8  A    between atoms: CD   and  CE  

$$$$
