ligand_92_pose_4_2HRL.pdbqt
 OpenBabel07062320523D

 59 61  0  0  1  0  0  0  0  0999 V2000
   27.6160   27.8240   20.4480 N   0  0  0  0  0  0  0  0  0  0  0  0
   27.0220   27.1640   19.3500 C   0  0  0  0  0  0  0  0  0  0  0  0
   26.0910   26.3180   19.5760 O   0  0  0  0  0  0  0  0  0  0  0  0
   28.3690   28.5100   20.2730 H   0  0  0  0  0  0  0  0  0  0  0  0
   27.2010   27.5670   21.8010 C   0  0  0  0  0  0  0  0  0  0  0  0
   28.3620   27.3170   22.7310 C   0  0  2  0  0  0  0  0  0  0  0  0
   29.6840   27.4080   22.0240 C   0  0  1  0  0  0  0  0  0  0  0  0
   30.5720   28.4880   22.6670 C   0  0  2  0  0  0  0  0  0  0  0  0
   30.4520   30.2740   21.1300 C   0  0  2  0  0  0  0  0  0  0  0  0
   31.9630   30.2440   21.0050 C   0  0  0  0  0  0  0  0  0  0  0  0
   30.0680   29.6930   22.2880 O   0  0  0  0  0  0  0  0  0  0  0  0
   32.3450   28.7830   20.9940 C   0  0  1  0  0  0  0  0  0  0  0  0
   31.9850   28.2020   22.3390 C   0  0  1  0  0  0  0  0  0  0  0  0
   29.9700   29.5220   20.0500 O   0  0  0  0  0  0  0  0  0  0  0  0
   30.6690   29.0280   19.5840 H   0  0  0  0  0  0  0  0  0  0  0  0
   29.9330   31.6560   20.9680 C   0  0  0  0  0  0  0  0  0  0  0  0
   30.7190   32.5810   20.7200 O   0  0  0  0  0  0  0  0  0  0  0  0
   28.5830   31.9240   21.0930 O   0  0  0  0  0  0  0  0  0  0  0  0
   28.2690   32.7950   21.5460 H   0  0  0  0  0  0  0  0  0  0  0  0
   31.7200   28.1370   19.9340 O   0  0  0  0  0  0  0  0  0  0  0  0
   31.2920   27.3100   20.3020 H   0  0  0  0  0  0  0  0  0  0  0  0
   32.9510   28.6650   23.2820 N   0  0  0  0  0  0  0  0  0  0  0  0
   33.9460   27.7920   23.7740 C   0  0  0  0  0  0  0  0  0  0  0  0
   32.9290   29.6430   23.6160 H   0  0  0  0  0  0  0  0  0  0  0  0
   34.9870   28.1890   24.7550 C   0  0  0  0  0  0  0  0  0  0  0  0
   33.9480   26.6260   23.3610 O   0  0  0  0  0  0  0  0  0  0  0  0
   30.3770   26.1750   22.0250 O   0  0  0  0  0  0  0  0  0  0  0  0
   29.9860   25.6220   22.7260 H   0  0  0  0  0  0  0  0  0  0  0  0
   28.1480   26.0250   23.2560 O   0  0  0  0  0  0  0  0  0  0  0  0
   28.6040   25.4000   22.6400 H   0  0  0  0  0  0  0  0  0  0  0  0
   27.3880   27.3770   18.0370 O   0  0  0  0  0  0  0  0  0  0  0  0
   26.7190   28.3410   17.2110 C   0  0  0  0  0  0  0  0  0  0  0  0
   27.4560   29.6260   17.3940 C   0  0  0  0  0  0  0  0  0  0  0  0
   28.3090   30.2400   16.4740 C   0  0  0  0  0  0  0  0  0  0  0  0
   27.4600   30.4560   18.4580 N   0  0  0  0  0  0  0  0  0  0  0  0
   28.7830   31.3810   16.9990 N   0  0  0  0  0  0  0  0  0  0  0  0
   28.2440   31.4730   18.1990 N   0  0  0  0  0  0  0  0  0  0  0  0
   29.6800   32.2720   16.3500 C   0  0  0  0  0  0  0  0  0  0  0  0
   30.8440   32.7110   16.9360 C   0  0  0  0  0  0  0  0  0  0  0  0
   29.3890   32.7280   15.0820 C   0  0  0  0  0  0  0  0  0  0  0  0
   31.7100   33.5870   16.2810 C   0  0  0  0  0  0  0  0  0  0  0  0
   30.2420   33.5930   14.4330 C   0  0  0  0  0  0  0  0  0  0  0  0
   31.4300   34.0480   15.0160 C   0  0  0  0  0  0  0  0  0  0  0  0
   32.4840   35.1300   14.1560 S   0  0  0  0  0  0  0  0  0  0  0  0
   32.0260   35.1280   12.7030 O   0  0  0  0  0  0  0  0  0  0  0  0
   33.8520   34.5390   14.1660 O   0  0  0  0  0  0  0  0  0  0  0  0
   32.4850   36.7260   14.7380 N   0  0  0  0  0  0  0  0  0  0  0  0
   32.1300   37.4820   14.0900 H   0  0  0  0  0  0  0  0  0  0  0  0
   32.9100   37.1690   16.0000 C   0  0  0  0  0  0  0  0  0  0  0  0
   33.9170   37.4050   16.6500 N   0  0  0  0  0  0  0  0  0  0  0  0
   31.6140   37.6180   17.2990 S   0  0  0  0  0  0  0  0  0  0  0  0
   34.0150   37.8350   17.8670 C   0  0  0  0  0  0  0  0  0  0  0  0
   32.8880   38.0760   18.5740 C   0  0  0  0  0  0  0  0  0  0  0  0
   29.8670   25.5550   16.9770 C   0  0  0  0  0  0  0  0  0  0  0  0
   28.3450   25.7220   17.0260 C   0  0  0  0  0  0  0  0  0  0  0  0
   27.5990   24.4790   16.5660 C   0  0  0  0  0  0  0  0  0  0  0  0
   27.2450   23.5740   17.7130 C   0  0  0  0  0  0  0  0  0  0  0  0
   25.7370   23.3430   17.7320 C   0  0  0  0  0  0  0  0  0  0  0  0
   25.0430   24.3790   16.9300 N   0  0  0  0  0  0  0  0  0  0  0  0
  1  5  1  0  0  0  0
  2  3  2  0  0  0  0
  2  1  1  0  0  0  0
  4  1  1  0  0  0  0
  6  5  1  6  0  0  0
  6 29  1  0  0  0  0
  7 27  1  1  0  0  0
  7  6  1  0  0  0  0
  8  7  1  6  0  0  0
  9 14  1  6  0  0  0
  9 11  1  0  0  0  0
 10  9  1  0  0  0  0
 11  8  1  0  0  0  0
 12 20  1  6  0  0  0
 12 10  1  0  0  0  0
 12 13  1  0  0  0  0
 13  8  1  0  0  0  0
 13 22  1  1  0  0  0
 15 14  1  0  0  0  0
 16 18  1  0  0  0  0
 16  9  1  0  0  0  0
 17 16  2  0  0  0  0
 18 19  1  0  0  0  0
 20 21  1  0  0  0  0
 22 24  1  0  0  0  0
 22 23  1  0  0  0  0
 23 25  1  0  0  0  0
 26 23  2  0  0  0  0
 27 28  1  0  0  0  0
 30 29  1  0  0  0  0
 31  2  1  0  0  0  0
 32 33  1  0  0  0  0
 32 31  1  0  0  0  0
 33 35  1  0  0  0  0
 34 36  1  0  0  0  0
 34 33  2  0  0  0  0
 36 37  1  0  0  0  0
 37 35  2  0  0  0  0
 38 39  1  0  0  0  0
 38 36  1  0  0  0  0
 40 38  2  0  0  0  0
 41 39  2  0  0  0  0
 42 43  2  0  0  0  0
 42 40  1  0  0  0  0
 43 41  1  0  0  0  0
 44 46  2  0  0  0  0
 44 47  1  0  0  0  0
 44 43  1  0  0  0  0
 45 44  2  0  0  0  0
 47 49  1  0  0  0  0
 48 47  1  0  0  0  0
 49 50  2  0  0  0  0
 49 51  1  0  0  0  0
 50 52  1  0  0  0  0
 51 53  1  0  0  0  0
 52 53  2  0  0  0  0
 54 55  1  0  0  0  0
 56 55  1  0  0  0  0
 56 57  1  0  0  0  0
 57 58  1  0  0  0  0
 59 58  1  0  0  0  0
M  END
>  <REMARK>
 VINA RESULT:    -5.267      2.187      4.124
 INTER + INTRA:         -16.446
 INTER:                  -9.646
 INTRA:                  -6.801
 UNBOUND:                -6.408
 SMILES CC(=O)N[C@@H]1[C@@H](O)C[C@](O)(C(=O)O)O[C@H]1C(O)[C@H](O)CNC(=O)OCc1cn(-c2ccc(S(=O)(=O)Nc3nccs3)cc2)nn1
 SMILES IDX 21 1 22 2 23 3 20 5 18 6 16 7 15 8 9 9 8 10 14 11 6 12 5 13
 SMILES IDX 10 14 11 16 12 17 13 18 7 20 4 22 2 23 1 25 3 26 17 27 19 29
 SMILES IDX 24 31 25 32 26 33 27 34 45 35 28 36 44 37 29 38 30 39 43 40
 SMILES IDX 31 41 42 42 32 43 33 44 34 45 35 46 36 47 37 49 38 50 41 51
 SMILES IDX 39 52 40 53
 H PARENT 21 4 10 15 13 19 7 21 4 24 17 28 19 30 36 48
 Flexibility Score: inf
  4 active torsions:
  status: ('A' for Active; 'I' for Inactive)
    1  A    between atoms: CA   and  CB  
    2  A    between atoms: CB   and  CG  
    3  A    between atoms: CG   and  CD  
    4  A    between atoms: CD   and  CE  

>  <TORSDO>
F 18

>  <BEGIN_>
RES LYS A 131

$$$$
ligand_92_pose_4_2HRL.pdbqt
 OpenBabel07062320523D

  6  5  0  0  0  0  0  0  0  0999 V2000
   33.1930   34.6630    9.2900 C   0  0  0  0  0  0  0  0  0  0  0  0
   32.0600   35.3600   10.0340 C   0  0  0  0  0  0  0  0  0  0  0  0
   30.8540   35.6360    9.1730 C   0  0  0  0  0  0  0  0  0  0  0  0
   30.2480   34.3360    8.6660 C   0  0  0  0  0  0  0  0  0  0  0  0
   28.7950   34.5390    8.2850 C   0  0  0  0  0  0  0  0  0  0  0  0
   28.6730   35.3870    7.0660 N   0  0  0  0  0  0  0  0  0  0  0  0
  1  2  1  0  0  0  0
  3  2  1  0  0  0  0
  4  3  1  0  0  0  0
  5  4  1  0  0  0  0
  6  5  1  0  0  0  0
M  END
>  <EGIN_R>
ES LYS A 135

>  <REMARK>
  4 active torsions:
  status: ('A' for Active; 'I' for Inactive)
    5  A    between atoms: CA   and  CB  
    6  A    between atoms: CB   and  CG  
    7  A    between atoms: CG   and  CD  
    8  A    between atoms: CD   and  CE  

$$$$
