ligand_68_pose_13_2HRL.pdbqt
 OpenBabel07062320523D

 53 54  0  0  1  0  0  0  0  0999 V2000
   29.3480   29.8820   19.2390 N   0  0  0  0  0  0  0  0  0  0  0  0
   28.0200   29.5820   19.6320 C   0  0  0  0  0  0  0  0  0  0  0  0
   27.3020   30.5030   20.0830 O   0  0  0  0  0  0  0  0  0  0  0  0
   29.8900   29.0430   18.8630 H   0  0  0  0  0  0  0  0  0  0  0  0
   29.9600   31.1880   19.3190 C   0  0  0  0  0  0  0  0  0  0  0  0
   30.3500   31.7220   17.9570 C   0  0  2  0  0  0  0  0  0  0  0  0
   29.2500   32.6340   17.4120 C   0  0  2  0  0  0  0  0  0  0  0  0
   29.7320   34.0100   17.0380 C   0  0  2  0  0  0  0  0  0  0  0  0
   28.4420   34.1800   15.0920 C   0  0  2  0  0  0  0  0  0  0  0  0
   29.4400   33.3380   14.4040 C   0  0  0  0  0  0  0  0  0  0  0  0
   28.7070   34.6460   16.3350 O   0  0  0  0  0  0  0  0  0  0  0  0
   30.8490   33.3850   14.9080 C   0  0  1  0  0  0  0  0  0  0  0  0
   30.9930   33.9870   16.2850 C   0  0  1  0  0  0  0  0  0  0  0  0
   27.2720   33.3740   15.2240 O   0  0  0  0  0  0  0  0  0  0  0  0
   27.5890   32.5180   15.5860 H   0  0  0  0  0  0  0  0  0  0  0  0
   28.0160   35.2820   14.1510 C   0  0  0  0  0  0  0  0  0  0  0  0
   27.3960   36.2960   14.5490 O   0  0  0  0  0  0  0  0  0  0  0  0
   28.3130   35.1850   12.7950 O   0  0  0  0  0  0  0  0  0  0  0  0
   27.7550   35.6080   12.0700 H   0  0  0  0  0  0  0  0  0  0  0  0
   31.4030   32.0740   14.8860 O   0  0  0  0  0  0  0  0  0  0  0  0
   30.7280   31.4940   14.4860 H   0  0  0  0  0  0  0  0  0  0  0  0
   31.5870   35.3000   16.0830 N   0  0  0  0  0  0  0  0  0  0  0  0
   32.5700   35.8630   16.9330 C   0  0  0  0  0  0  0  0  0  0  0  0
   31.2400   35.8230   15.2500 H   0  0  0  0  0  0  0  0  0  0  0  0
   33.1560   37.2050   16.6980 C   0  0  0  0  0  0  0  0  0  0  0  0
   32.9230   35.1530   17.9100 O   0  0  0  0  0  0  0  0  0  0  0  0
   28.4200   32.8160   18.5840 O   0  0  0  0  0  0  0  0  0  0  0  0
   28.4420   32.0320   19.1530 H   0  0  0  0  0  0  0  0  0  0  0  0
   30.6390   30.6620   17.1290 O   0  0  0  0  0  0  0  0  0  0  0  0
   31.4300   30.2010   17.4940 H   0  0  0  0  0  0  0  0  0  0  0  0
   27.4730   28.3100   19.5400 O   0  0  0  0  0  0  0  0  0  0  0  0
   27.2080   27.6830   18.3010 C   0  0  0  0  0  0  0  0  0  0  0  0
   26.9180   28.7250   17.2950 C   0  0  0  0  0  0  0  0  0  0  0  0
   25.6750   29.2690   17.0090 C   0  0  0  0  0  0  0  0  0  0  0  0
   27.7650   29.3630   16.4530 N   0  0  0  0  0  0  0  0  0  0  0  0
   25.8010   30.1880   16.0350 N   0  0  0  0  0  0  0  0  0  0  0  0
   27.0730   30.2220   15.7210 N   0  0  0  0  0  0  0  0  0  0  0  0
   24.7000   30.9790   15.4670 C   0  0  0  0  0  0  0  0  0  0  0  0
   24.7010   30.8070   13.9680 C   0  0  1  0  0  0  0  0  0  0  0  0
   23.9940   29.6150   13.6910 O   0  0  0  0  0  0  0  0  0  0  0  0
   23.5620   29.6960   12.7970 H   0  0  0  0  0  0  0  0  0  0  0  0
   23.9670   31.9220   13.3360 C   0  0  0  0  0  0  0  0  0  0  0  0
   24.5550   33.1400   13.0620 C   0  0  0  0  0  0  0  0  0  0  0  0
   22.6190   31.7390   13.0000 C   0  0  0  0  0  0  0  0  0  0  0  0
   23.8550   34.1630   12.4720 C   0  0  0  0  0  0  0  0  0  0  0  0
   21.9210   32.7560   12.4140 C   0  0  0  0  0  0  0  0  0  0  0  0
   22.5340   33.9590   12.1520 C   0  0  0  0  0  0  0  0  0  0  0  0
   29.8670   25.5550   16.9770 C   0  0  0  0  0  0  0  0  0  0  0  0
   28.3450   25.7220   17.0260 C   0  0  0  0  0  0  0  0  0  0  0  0
   27.5990   24.4600   16.6220 C   0  0  0  0  0  0  0  0  0  0  0  0
   27.0180   23.7410   17.8080 C   0  0  0  0  0  0  0  0  0  0  0  0
   25.6550   24.3360   18.1460 C   0  0  0  0  0  0  0  0  0  0  0  0
   24.6750   24.0310   17.0770 N   0  0  0  0  0  0  0  0  0  0  0  0
  1  5  1  0  0  0  0
  1  2  1  0  0  0  0
  2  3  2  0  0  0  0
  4  1  1  0  0  0  0
  6  5  1  1  0  0  0
  7  6  1  0  0  0  0
  7 27  1  1  0  0  0
  8  7  1  6  0  0  0
  9 16  1  6  0  0  0
  9 14  1  0  0  0  0
  9 11  1  0  0  0  0
 10 12  1  0  0  0  0
 10  9  1  0  0  0  0
 11  8  1  0  0  0  0
 12 20  1  1  0  0  0
 12 13  1  0  0  0  0
 13 22  1  6  0  0  0
 13  8  1  0  0  0  0
 14 15  1  0  0  0  0
 16 17  2  0  0  0  0
 18 16  1  0  0  0  0
 19 18  1  0  0  0  0
 21 20  1  0  0  0  0
 22 23  1  0  0  0  0
 23 26  2  0  0  0  0
 24 22  1  0  0  0  0
 25 23  1  0  0  0  0
 27 28  1  0  0  0  0
 29 30  1  0  0  0  0
 29  6  1  0  0  0  0
 31  2  1  0  0  0  0
 32 31  1  0  0  0  0
 33 32  1  0  0  0  0
 34 33  2  0  0  0  0
 35 33  1  0  0  0  0
 36 34  1  0  0  0  0
 37 36  1  0  0  0  0
 37 35  2  0  0  0  0
 38 36  1  0  0  0  0
 39 38  1  1  0  0  0
 40 39  1  0  0  0  0
 41 40  1  0  0  0  0
 42 39  1  0  0  0  0
 43 42  1  0  0  0  0
 44 42  2  0  0  0  0
 45 43  2  0  0  0  0
 46 44  1  0  0  0  0
 47 46  2  0  0  0  0
 47 45  1  0  0  0  0
 48 49  1  0  0  0  0
 50 49  1  0  0  0  0
 50 51  1  0  0  0  0
 51 52  1  0  0  0  0
 53 52  1  0  0  0  0
M  END
>  <REMARK>
 VINA RESULT:    -5.404      3.680      7.034
 INTER + INTRA:         -15.155
 INTER:                  -8.822
 INTRA:                  -6.332
 UNBOUND:                -5.012
 SMILES CC(=O)N[C@@H]1[C@@H](O)C[C@](O)(C(=O)O)O[C@H]1C(O)[C@H](O)CNC(=O)OCc1cn(CC(O)c2ccccc2)nn1
 SMILES IDX 21 1 22 2 23 3 20 5 18 6 16 7 15 8 9 9 8 10 14 11 6 12 5 13
 SMILES IDX 10 14 11 16 12 17 13 18 7 20 4 22 2 23 1 25 3 26 17 27 19 29
 SMILES IDX 24 31 25 32 26 33 27 34 39 35 28 36 38 37 29 38 30 39 31 40
 SMILES IDX 32 42 33 43 37 44 34 45 36 46 35 47
 H PARENT 21 4 10 15 13 19 7 21 4 24 17 28 19 30 31 41
 Flexibility Score: inf
  4 active torsions:
  status: ('A' for Active; 'I' for Inactive)
    1  A    between atoms: CA   and  CB  
    2  A    between atoms: CB   and  CG  
    3  A    between atoms: CG   and  CD  
    4  A    between atoms: CD   and  CE  

>  <TORSDO>
F 18

>  <BEGIN_>
RES LYS A 131

$$$$
ligand_68_pose_13_2HRL.pdbqt
 OpenBabel07062320523D

  6  5  0  0  0  0  0  0  0  0999 V2000
   33.1930   34.6630    9.2900 C   0  0  0  0  0  0  0  0  0  0  0  0
   32.0600   35.3600   10.0340 C   0  0  0  0  0  0  0  0  0  0  0  0
   30.7980   35.4940    9.2210 C   0  0  0  0  0  0  0  0  0  0  0  0
   30.1340   34.1390    9.0340 C   0  0  0  0  0  0  0  0  0  0  0  0
   28.6770   34.3090    8.6460 C   0  0  0  0  0  0  0  0  0  0  0  0
   27.7800   33.6220    9.6160 N   0  0  0  0  0  0  0  0  0  0  0  0
  1  2  1  0  0  0  0
  3  2  1  0  0  0  0
  4  3  1  0  0  0  0
  5  4  1  0  0  0  0
  5  6  1  0  0  0  0
M  END
>  <EGIN_R>
ES LYS A 135

>  <REMARK>
  4 active torsions:
  status: ('A' for Active; 'I' for Inactive)
    5  A    between atoms: CA   and  CB  
    6  A    between atoms: CB   and  CG  
    7  A    between atoms: CG   and  CD  
    8  A    between atoms: CD   and  CE  

$$$$
