ligand_64_pose_13_2HRL.pdbqt
 OpenBabel07062320523D

 59 61  0  0  1  0  0  0  0  0999 V2000
   30.6140   31.9290   15.2090 N   0  0  0  0  0  0  0  0  0  0  0  0
   29.9900   31.1230   16.2120 C   0  0  0  0  0  0  0  0  0  0  0  0
   30.4040   31.2220   17.3960 O   0  0  0  0  0  0  0  0  0  0  0  0
   30.2190   31.7980   14.2320 H   0  0  0  0  0  0  0  0  0  0  0  0
   31.6880   32.8450   15.4800 C   0  0  0  0  0  0  0  0  0  0  0  0
   31.3820   34.2120   14.9450 C   0  0  2  0  0  0  0  0  0  0  0  0
   29.8920   34.4690   15.1310 C   0  0  2  0  0  0  0  0  0  0  0  0
   29.3920   35.3750   14.0610 C   0  0  2  0  0  0  0  0  0  0  0  0
   29.9020   37.3960   13.0300 C   0  0  2  0  0  0  0  0  0  0  0  0
   28.8210   36.9000   12.0780 C   0  0  0  0  0  0  0  0  0  0  0  0
   30.3030   36.4450   13.9320 O   0  0  0  0  0  0  0  0  0  0  0  0
   27.6260   36.5500   12.8930 C   0  0  1  0  0  0  0  0  0  0  0  0
   28.0570   36.0020   14.2720 C   0  0  1  0  0  0  0  0  0  0  0  0
   29.3210   38.5150   13.6740 O   0  0  0  0  0  0  0  0  0  0  0  0
   28.3610   38.4840   13.4260 H   0  0  0  0  0  0  0  0  0  0  0  0
   31.0930   37.8580   12.2930 C   0  0  0  0  0  0  0  0  0  0  0  0
   32.0740   37.1050   12.1550 O   0  0  0  0  0  0  0  0  0  0  0  0
   31.1320   39.1240   11.7490 O   0  0  0  0  0  0  0  0  0  0  0  0
   30.4260   39.8300   11.9400 H   0  0  0  0  0  0  0  0  0  0  0  0
   26.7190   37.5780   13.0350 O   0  0  0  0  0  0  0  0  0  0  0  0
   26.1140   37.4080   13.7900 H   0  0  0  0  0  0  0  0  0  0  0  0
   27.0180   35.1350   14.7560 N   0  0  0  0  0  0  0  0  0  0  0  0
   26.4060   35.3450   16.0460 C   0  0  0  0  0  0  0  0  0  0  0  0
   26.6900   34.3550   14.1820 H   0  0  0  0  0  0  0  0  0  0  0  0
   25.3410   34.4830   16.5800 C   0  0  0  0  0  0  0  0  0  0  0  0
   26.8510   36.3340   16.7010 O   0  0  0  0  0  0  0  0  0  0  0  0
   29.5530   34.8610   16.3970 O   0  0  0  0  0  0  0  0  0  0  0  0
   29.9850   34.3790   17.1260 H   0  0  0  0  0  0  0  0  0  0  0  0
   31.6650   34.1500   13.5650 O   0  0  0  0  0  0  0  0  0  0  0  0
   32.3040   34.8740   13.3970 H   0  0  0  0  0  0  0  0  0  0  0  0
   28.9570   30.2590   15.8810 O   0  0  0  0  0  0  0  0  0  0  0  0
   28.0620   29.8750   16.9060 C   0  0  0  0  0  0  0  0  0  0  0  0
   26.6920   29.9350   16.3330 C   0  0  0  0  0  0  0  0  0  0  0  0
   26.2020   30.8760   15.4190 C   0  0  0  0  0  0  0  0  0  0  0  0
   25.6300   29.1240   16.5490 N   0  0  0  0  0  0  0  0  0  0  0  0
   24.9170   30.6050   15.1310 N   0  0  0  0  0  0  0  0  0  0  0  0
   24.5960   29.5420   15.8290 N   0  0  0  0  0  0  0  0  0  0  0  0
   24.1170   31.3860   14.2200 C   0  0  0  0  0  0  0  0  0  0  0  0
   24.5270   32.6160   13.7740 C   0  0  0  0  0  0  0  0  0  0  0  0
   22.8950   30.9040   13.7680 C   0  0  0  0  0  0  0  0  0  0  0  0
   23.7870   33.3890   12.9040 C   0  0  0  0  0  0  0  0  0  0  0  0
   22.1490   31.6610   12.9020 C   0  0  0  0  0  0  0  0  0  0  0  0
   22.6170   32.8660   12.5050 N   0  0  0  0  0  0  0  0  0  0  0  0
   24.2420   34.6910   12.4430 C   0  0  0  0  0  0  0  0  0  0  0  0
   24.3090   35.6310   13.2590 O   0  0  0  0  0  0  0  0  0  0  0  0
   24.6020   34.9070   11.1300 O   0  0  0  0  0  0  0  0  0  0  0  0
   25.1750   34.2460   10.5940 H   0  0  0  0  0  0  0  0  0  0  0  0
   20.8480   31.1750   12.4070 C   0  0  0  0  0  0  0  0  0  0  0  0
   20.6910   29.8190   12.2170 C   0  0  0  0  0  0  0  0  0  0  0  0
   19.8340   32.0520   12.1480 C   0  0  0  0  0  0  0  0  0  0  0  0
   19.4790   29.3620   11.7560 C   0  0  0  0  0  0  0  0  0  0  0  0
   18.6320   31.5510   11.6860 C   0  0  0  0  0  0  0  0  0  0  0  0
   18.4240   30.2050   11.4800 C   0  0  0  0  0  0  0  0  0  0  0  0
   29.8670   25.5550   16.9770 C   0  0  0  0  0  0  0  0  0  0  0  0
   28.3450   25.7220   17.0260 C   0  0  0  0  0  0  0  0  0  0  0  0
   27.6010   24.4030   16.8870 C   0  0  0  0  0  0  0  0  0  0  0  0
   26.5680   24.2190   17.9640 C   0  0  0  0  0  0  0  0  0  0  0  0
   25.6170   23.0930   17.5700 C   0  0  0  0  0  0  0  0  0  0  0  0
   24.3680   23.6470   16.9950 N   0  0  0  0  0  0  0  0  0  0  0  0
  1  5  1  0  0  0  0
  1  2  1  0  0  0  0
  2  3  2  0  0  0  0
  4  1  1  0  0  0  0
  6  7  1  0  0  0  0
  6  5  1  1  0  0  0
  7 27  1  1  0  0  0
  8 13  1  0  0  0  0
  8  7  1  1  0  0  0
  9 16  1  6  0  0  0
  9 14  1  0  0  0  0
  9 11  1  0  0  0  0
 10 12  1  0  0  0  0
 10  9  1  0  0  0  0
 11  8  1  0  0  0  0
 12 20  1  1  0  0  0
 12 13  1  0  0  0  0
 13 22  1  6  0  0  0
 15 14  1  0  0  0  0
 17 16  2  0  0  0  0
 18 19  1  0  0  0  0
 18 16  1  0  0  0  0
 20 21  1  0  0  0  0
 22 23  1  0  0  0  0
 23 25  1  0  0  0  0
 23 26  2  0  0  0  0
 24 22  1  0  0  0  0
 27 28  1  0  0  0  0
 29  6  1  0  0  0  0
 30 29  1  0  0  0  0
 31  2  1  0  0  0  0
 31 32  1  0  0  0  0
 33 35  1  0  0  0  0
 33 32  1  0  0  0  0
 34 33  2  0  0  0  0
 36 34  1  0  0  0  0
 36 37  1  0  0  0  0
 37 35  2  0  0  0  0
 38 36  1  0  0  0  0
 39 38  1  0  0  0  0
 40 38  2  0  0  0  0
 41 39  2  0  0  0  0
 42 40  1  0  0  0  0
 43 42  2  0  0  0  0
 43 41  1  0  0  0  0
 44 41  1  0  0  0  0
 44 45  2  0  0  0  0
 46 44  1  0  0  0  0
 47 46  1  0  0  0  0
 48 42  1  0  0  0  0
 49 48  1  0  0  0  0
 50 48  2  0  0  0  0
 51 49  2  0  0  0  0
 52 50  1  0  0  0  0
 53 52  2  0  0  0  0
 53 51  1  0  0  0  0
 54 55  1  0  0  0  0
 56 55  1  0  0  0  0
 56 57  1  0  0  0  0
 58 57  1  0  0  0  0
 59 58  1  0  0  0  0
M  END
>  <REMARK>
 VINA RESULT:    -5.929      2.807      6.047
 INTER + INTRA:         -16.345
 INTER:                  -9.304
 INTRA:                  -7.040
 UNBOUND:                -5.216
 SMILES CC(=O)N[C@@H]1[C@@H](O)C[C@](O)(C(=O)O)O[C@H]1C(O)[C@H](O)CNC(=O)OCc1cn(-c2cc(C(=O)O)nc(-c3ccccc3)c2)nn1
 SMILES IDX 21 1 22 2 23 3 20 5 18 6 16 7 15 8 9 9 8 10 14 11 6 12 5 13
 SMILES IDX 10 14 11 16 12 17 13 18 7 20 4 22 2 23 1 25 3 26 17 27 19 29
 SMILES IDX 24 31 25 32 26 33 27 34 45 35 28 36 44 37 29 38 30 39 43 40
 SMILES IDX 31 41 36 42 35 43 32 44 33 45 34 46 37 48 38 49 42 50 39 51
 SMILES IDX 41 52 40 53
 H PARENT 21 4 10 15 13 19 7 21 4 24 17 28 19 30 34 47
 Flexibility Score: inf
  4 active torsions:
  status: ('A' for Active; 'I' for Inactive)
    1  A    between atoms: CA   and  CB  
    2  A    between atoms: CB   and  CG  
    3  A    between atoms: CG   and  CD  
    4  A    between atoms: CD   and  CE  

>  <TORSDO>
F 18

>  <BEGIN_>
RES LYS A 131

$$$$
ligand_64_pose_13_2HRL.pdbqt
 OpenBabel07062320523D

  6  5  0  0  0  0  0  0  0  0999 V2000
   33.1930   34.6630    9.2900 C   0  0  0  0  0  0  0  0  0  0  0  0
   32.0600   35.3600   10.0340 C   0  0  0  0  0  0  0  0  0  0  0  0
   30.7940   35.4820    9.2260 C   0  0  0  0  0  0  0  0  0  0  0  0
   30.1740   34.1140    8.9890 C   0  0  0  0  0  0  0  0  0  0  0  0
   28.7390   34.0870    9.4790 C   0  0  0  0  0  0  0  0  0  0  0  0
   27.8030   34.5630    8.4240 N   0  0  0  0  0  0  0  0  0  0  0  0
  1  2  1  0  0  0  0
  3  2  1  0  0  0  0
  4  3  1  0  0  0  0
  4  5  1  0  0  0  0
  6  5  1  0  0  0  0
M  END
>  <EGIN_R>
ES LYS A 135

>  <REMARK>
  4 active torsions:
  status: ('A' for Active; 'I' for Inactive)
    5  A    between atoms: CA   and  CB  
    6  A    between atoms: CB   and  CG  
    7  A    between atoms: CG   and  CD  
    8  A    between atoms: CD   and  CE  

$$$$
