ligand_88_pose_2_2HRL.pdbqt
 OpenBabel07062320523D

 54 55  0  0  1  0  0  0  0  0999 V2000
   29.0580   31.1590   17.1400 N   0  0  0  0  0  0  0  0  0  0  0  0
   27.9040   30.7180   17.8480 C   0  0  0  0  0  0  0  0  0  0  0  0
   27.6860   31.1730   18.9940 O   0  0  0  0  0  0  0  0  0  0  0  0
   29.2160   30.7680   16.1950 H   0  0  0  0  0  0  0  0  0  0  0  0
   29.9820   32.1080   17.6990 C   0  0  0  0  0  0  0  0  0  0  0  0
   30.3850   33.1350   16.6810 C   0  0  2  0  0  0  0  0  0  0  0  0
   30.3740   32.5800   15.2730 C   0  0  1  0  0  0  0  0  0  0  0  0
   30.1830   33.7340   14.2720 C   0  0  2  0  0  0  0  0  0  0  0  0
   31.7500   35.4430   13.8760 C   0  0  2  0  0  0  0  0  0  0  0  0
   30.5330   36.3330   13.5830 C   0  0  0  0  0  0  0  0  0  0  0  0
   31.4010   34.1350   13.8930 O   0  0  0  0  0  0  0  0  0  0  0  0
   29.6540   36.1410   14.8100 C   0  0  1  0  0  0  0  0  0  0  0  0
   29.2140   34.7060   14.7970 C   0  0  1  0  0  0  0  0  0  0  0  0
   32.2850   35.9220   15.0550 O   0  0  0  0  0  0  0  0  0  0  0  0
   31.9120   36.7910   15.3400 H   0  0  0  0  0  0  0  0  0  0  0  0
   32.7530   35.6330   12.7980 C   0  0  0  0  0  0  0  0  0  0  0  0
   32.6290   36.6160   12.0250 O   0  0  0  0  0  0  0  0  0  0  0  0
   33.8230   34.7630   12.6140 O   0  0  0  0  0  0  0  0  0  0  0  0
   33.9950   34.1070   13.3900 H   0  0  0  0  0  0  0  0  0  0  0  0
   30.3480   36.4720   15.9720 O   0  0  0  0  0  0  0  0  0  0  0  0
   30.7270   35.6450   16.3360 H   0  0  0  0  0  0  0  0  0  0  0  0
   27.9260   34.6660   14.1050 N   0  0  0  0  0  0  0  0  0  0  0  0
   26.8380   33.8670   14.5340 C   0  0  0  0  0  0  0  0  0  0  0  0
   27.7580   35.2480   13.2370 H   0  0  0  0  0  0  0  0  0  0  0  0
   25.5390   33.8570   13.7950 C   0  0  0  0  0  0  0  0  0  0  0  0
   26.9630   33.1480   15.5580 O   0  0  0  0  0  0  0  0  0  0  0  0
   31.4620   31.7980   14.9700 O   0  0  0  0  0  0  0  0  0  0  0  0
   31.2100   30.9080   14.6480 H   0  0  0  0  0  0  0  0  0  0  0  0
   31.5750   33.7260   17.0430 O   0  0  0  0  0  0  0  0  0  0  0  0
   32.2430   33.7610   16.3330 H   0  0  0  0  0  0  0  0  0  0  0  0
   27.0400   29.8100   17.2890 O   0  0  0  0  0  0  0  0  0  0  0  0
   25.6730   29.7490   17.6550 C   0  0  0  0  0  0  0  0  0  0  0  0
   24.8570   30.2960   16.5390 C   0  0  0  0  0  0  0  0  0  0  0  0
   24.9540   29.9620   15.1940 C   0  0  0  0  0  0  0  0  0  0  0  0
   23.8690   31.2080   16.5770 N   0  0  0  0  0  0  0  0  0  0  0  0
   24.0500   30.6650   14.4960 N   0  0  0  0  0  0  0  0  0  0  0  0
   23.3860   31.4330   15.3750 N   0  0  0  0  0  0  0  0  0  0  0  0
   23.8050   30.6300   13.0810 C   0  0  0  0  0  0  0  0  0  0  0  0
   22.3610   30.7100   12.7390 C   0  0  0  0  0  0  0  0  0  0  0  0
   21.6830   29.5320   12.4950 C   0  0  0  0  0  0  0  0  0  0  0  0
   21.6710   31.8950   12.6530 C   0  0  0  0  0  0  0  0  0  0  0  0
   20.3460   29.4900   12.1680 C   0  0  0  0  0  0  0  0  0  0  0  0
   20.3120   31.8810   12.3220 C   0  0  0  0  0  0  0  0  0  0  0  0
   19.4370   27.8530   11.8390 Br  0  0  0  0  0  0  0  0  0  0  0  0
   19.6610   30.6950   12.0840 C   0  0  0  0  0  0  0  0  0  0  0  0
   19.4250   33.5800   12.2230 Br  0  0  0  0  0  0  0  0  0  0  0  0
   22.3210   33.0920   12.8920 O   0  0  0  0  0  0  0  0  0  0  0  0
   23.2510   33.0780   13.2860 H   0  0  0  0  0  0  0  0  0  0  0  0
   29.8670   25.5550   16.9770 C   0  0  0  0  0  0  0  0  0  0  0  0
   28.3450   25.7220   17.0260 C   0  0  0  0  0  0  0  0  0  0  0  0
   27.6010   24.4020   16.8970 C   0  0  0  0  0  0  0  0  0  0  0  0
   26.1980   24.4870   17.4300 C   0  0  0  0  0  0  0  0  0  0  0  0
   26.0180   25.8030   18.1800 C   0  0  0  0  0  0  0  0  0  0  0  0
   25.6020   25.5500   19.5800 N   0  0  0  0  0  0  0  0  0  0  0  0
  1  5  1  0  0  0  0
  1  2  1  0  0  0  0
  2  3  2  0  0  0  0
  4  1  1  0  0  0  0
  6 29  1  0  0  0  0
  6  5  1  1  0  0  0
  7 27  1  6  0  0  0
  7  6  1  0  0  0  0
  8 13  1  0  0  0  0
  8  7  1  1  0  0  0
  9 16  1  6  0  0  0
  9 11  1  0  0  0  0
  9 14  1  0  0  0  0
 10  9  1  0  0  0  0
 10 12  1  0  0  0  0
 11  8  1  0  0  0  0
 12 20  1  1  0  0  0
 13 22  1  6  0  0  0
 13 12  1  0  0  0  0
 14 15  1  0  0  0  0
 17 16  2  0  0  0  0
 18 16  1  0  0  0  0
 18 19  1  0  0  0  0
 20 21  1  0  0  0  0
 22 23  1  0  0  0  0
 23 26  2  0  0  0  0
 24 22  1  0  0  0  0
 25 23  1  0  0  0  0
 28 27  1  0  0  0  0
 30 29  1  0  0  0  0
 31 32  1  0  0  0  0
 31  2  1  0  0  0  0
 33 35  1  0  0  0  0
 33 32  1  0  0  0  0
 34 33  2  0  0  0  0
 36 34  1  0  0  0  0
 36 37  1  0  0  0  0
 37 35  2  0  0  0  0
 38 36  1  0  0  0  0
 39 38  1  0  0  0  0
 40 39  2  0  0  0  0
 41 39  1  0  0  0  0
 41 47  1  0  0  0  0
 42 40  1  0  0  0  0
 43 41  2  0  0  0  0
 44 42  1  0  0  0  0
 45 42  2  0  0  0  0
 45 43  1  0  0  0  0
 46 43  1  0  0  0  0
 47 48  1  0  0  0  0
 49 50  1  0  0  0  0
 51 50  1  0  0  0  0
 51 52  1  0  0  0  0
 52 53  1  0  0  0  0
 53 54  1  0  0  0  0
M  END
>  <REMARK>
 VINA RESULT:    -5.367      4.492      8.678
 INTER + INTRA:         -15.555
 INTER:                  -9.587
 INTRA:                  -5.967
 UNBOUND:                -5.794
 SMILES CC(=O)N[C@@H]1[C@@H](O)C[C@](O)(C(=O)O)O[C@H]1C(O)[C@H](O)CNC(=O)OCc1cn(Cc2cc(Br)cc(Br)c2O)nn1
 SMILES IDX 21 1 22 2 23 3 20 5 18 6 16 7 15 8 9 9 8 10 14 11 6 12 5 13
 SMILES IDX 10 14 11 16 12 17 13 18 7 20 4 22 2 23 1 25 3 26 17 27 19 29
 SMILES IDX 24 31 25 32 26 33 27 34 40 35 28 36 39 37 29 38 30 39 31 40
 SMILES IDX 37 41 32 42 35 43 33 44 34 45 36 46 38 47
 H PARENT 21 4 10 15 13 19 7 21 4 24 17 28 19 30 38 48
 Flexibility Score: inf
  4 active torsions:
  status: ('A' for Active; 'I' for Inactive)
    1  A    between atoms: CA   and  CB  
    2  A    between atoms: CB   and  CG  
    3  A    between atoms: CG   and  CD  
    4  A    between atoms: CD   and  CE  

>  <TORSDO>
F 17

>  <BEGIN_>
RES LYS A 131

$$$$
ligand_88_pose_2_2HRL.pdbqt
 OpenBabel07062320523D

  6  5  0  0  0  0  0  0  0  0999 V2000
   33.1930   34.6630    9.2900 C   0  0  0  0  0  0  0  0  0  0  0  0
   32.0600   35.3600   10.0340 C   0  0  0  0  0  0  0  0  0  0  0  0
   30.7060   34.7480    9.7800 C   0  0  0  0  0  0  0  0  0  0  0  0
   30.4890   34.5230    8.2920 C   0  0  0  0  0  0  0  0  0  0  0  0
   29.0710   34.8900    7.8990 C   0  0  0  0  0  0  0  0  0  0  0  0
   28.0820   34.2850    8.8340 N   0  0  0  0  0  0  0  0  0  0  0  0
  1  2  1  0  0  0  0
  3  2  1  0  0  0  0
  4  3  1  0  0  0  0
  5  4  1  0  0  0  0
  5  6  1  0  0  0  0
M  END
>  <EGIN_R>
ES LYS A 135

>  <REMARK>
  4 active torsions:
  status: ('A' for Active; 'I' for Inactive)
    5  A    between atoms: CA   and  CB  
    6  A    between atoms: CB   and  CG  
    7  A    between atoms: CG   and  CD  
    8  A    between atoms: CD   and  CE  

$$$$
