ligand_14_pose_13_2HRL.pdbqt
 OpenBabel07062320523D

 50 51  0  0  1  0  0  0  0  0999 V2000
   26.0410   27.9180   18.7480 N   0  0  0  0  0  0  0  0  0  0  0  0
   25.0740   28.3920   17.8430 C   0  0  0  0  0  0  0  0  0  0  0  0
   23.8670   28.2960   18.1030 O   0  0  0  0  0  0  0  0  0  0  0  0
   27.0560   28.0430   18.4140 H   0  0  0  0  0  0  0  0  0  0  0  0
   25.8030   27.3090   20.0190 C   0  0  0  0  0  0  0  0  0  0  0  0
   26.9450   27.5630   20.9590 C   0  0  2  0  0  0  0  0  0  0  0  0
   28.1980   28.0010   20.2070 C   0  0  1  0  0  0  0  0  0  0  0  0
   28.9740   28.9250   21.1620 C   0  0  2  0  0  0  0  0  0  0  0  0
   29.7090   30.9290   20.1900 C   0  0  2  0  0  0  0  0  0  0  0  0
   30.8140   30.0920   19.5770 C   0  0  0  0  0  0  0  0  0  0  0  0
   28.7550   30.2220   20.8520 O   0  0  0  0  0  0  0  0  0  0  0  0
   31.4230   29.2030   20.6040 C   0  0  1  0  0  0  0  0  0  0  0  0
   30.3710   28.4680   21.3700 C   0  0  1  0  0  0  0  0  0  0  0  0
   29.0570   31.5210   19.0800 O   0  0  0  0  0  0  0  0  0  0  0  0
   29.7250   32.1010   18.6030 H   0  0  0  0  0  0  0  0  0  0  0  0
   30.2600   32.0430   20.9980 C   0  0  0  0  0  0  0  0  0  0  0  0
   29.8790   32.1980   22.1780 O   0  0  0  0  0  0  0  0  0  0  0  0
   31.1930   32.9140   20.4670 O   0  0  0  0  0  0  0  0  0  0  0  0
   32.1320   32.5800   20.3020 H   0  0  0  0  0  0  0  0  0  0  0  0
   32.2830   28.3220   19.9570 O   0  0  0  0  0  0  0  0  0  0  0  0
   31.7620   27.6090   19.4960 H   0  0  0  0  0  0  0  0  0  0  0  0
   30.6980   28.3770   22.7920 N   0  0  0  0  0  0  0  0  0  0  0  0
   30.4690   27.2220   23.5490 C   0  0  0  0  0  0  0  0  0  0  0  0
   31.1150   29.2220   23.2260 H   0  0  0  0  0  0  0  0  0  0  0  0
   30.8330   27.2190   24.9890 C   0  0  0  0  0  0  0  0  0  0  0  0
   29.9570   26.1880   23.0100 O   0  0  0  0  0  0  0  0  0  0  0  0
   28.9440   26.8600   19.9360 O   0  0  0  0  0  0  0  0  0  0  0  0
   28.4400   26.1370   19.5260 H   0  0  0  0  0  0  0  0  0  0  0  0
   27.2160   26.5320   21.8300 O   0  0  0  0  0  0  0  0  0  0  0  0
   27.1530   26.7640   22.7860 H   0  0  0  0  0  0  0  0  0  0  0  0
   25.4140   28.9840   16.6240 O   0  0  0  0  0  0  0  0  0  0  0  0
   25.6840   30.3690   16.5480 C   0  0  0  0  0  0  0  0  0  0  0  0
   27.1180   30.6520   16.2880 C   0  0  0  0  0  0  0  0  0  0  0  0
   27.6540   31.7790   15.6620 C   0  0  0  0  0  0  0  0  0  0  0  0
   28.1920   29.9010   16.5900 N   0  0  0  0  0  0  0  0  0  0  0  0
   28.9940   31.6840   15.6030 N   0  0  0  0  0  0  0  0  0  0  0  0
   29.2800   30.5100   16.1870 N   0  0  0  0  0  0  0  0  0  0  0  0
   29.9530   32.6120   15.0420 C   0  0  0  0  0  0  0  0  0  0  0  0
   31.0360   32.9820   15.9990 C   0  0  0  0  0  0  0  0  0  0  0  0
   31.5300   34.3290   15.8540 N   0  0  0  0  0  0  0  0  0  0  0  0
   31.9830   34.7830   17.1570 C   0  0  0  0  0  0  0  0  0  0  0  0
   32.6910   34.3950   14.9880 C   0  0  0  0  0  0  0  0  0  0  0  0
   33.2870   35.4880   16.9690 C   0  0  0  0  0  0  0  0  0  0  0  0
   33.3550   35.6700   15.4670 C   0  0  0  0  0  0  0  0  0  0  0  0
   29.8670   25.5550   16.9770 C   0  0  0  0  0  0  0  0  0  0  0  0
   28.3450   25.7220   17.0260 C   0  0  0  0  0  0  0  0  0  0  0  0
   27.6010   24.4010   16.9030 C   0  0  0  0  0  0  0  0  0  0  0  0
   26.6640   24.1690   18.0560 C   0  0  0  0  0  0  0  0  0  0  0  0
   25.3100   23.7080   17.5260 C   0  0  0  0  0  0  0  0  0  0  0  0
   24.5140   24.8680   17.0600 N   0  0  0  0  0  0  0  0  0  0  0  0
  1  5  1  0  0  0  0
  2  3  2  0  0  0  0
  2  1  1  0  0  0  0
  4  1  1  0  0  0  0
  6  5  1  6  0  0  0
  6 29  1  0  0  0  0
  7 27  1  1  0  0  0
  7  6  1  0  0  0  0
  8  7  1  6  0  0  0
  8 13  1  0  0  0  0
  9 14  1  6  0  0  0
  9 11  1  0  0  0  0
  9 16  1  0  0  0  0
 10  9  1  0  0  0  0
 10 12  1  0  0  0  0
 11  8  1  0  0  0  0
 12 20  1  6  0  0  0
 12 13  1  0  0  0  0
 13 22  1  1  0  0  0
 15 14  1  0  0  0  0
 16 17  2  0  0  0  0
 18 16  1  0  0  0  0
 19 18  1  0  0  0  0
 21 20  1  0  0  0  0
 22 24  1  0  0  0  0
 22 23  1  0  0  0  0
 23 25  1  0  0  0  0
 26 23  2  0  0  0  0
 28 27  1  0  0  0  0
 29 30  1  0  0  0  0
 31  2  1  0  0  0  0
 32 31  1  0  0  0  0
 33 32  1  0  0  0  0
 33 35  1  0  0  0  0
 34 33  2  0  0  0  0
 36 34  1  0  0  0  0
 36 37  1  0  0  0  0
 37 35  2  0  0  0  0
 38 36  1  0  0  0  0
 38 39  1  0  0  0  0
 40 39  1  0  0  0  0
 40 41  1  0  0  0  0
 42 44  1  0  0  0  0
 42 40  1  0  0  0  0
 43 41  1  0  0  0  0
 44 43  1  0  0  0  0
 45 46  1  0  0  0  0
 47 46  1  0  0  0  0
 47 48  1  0  0  0  0
 49 48  1  0  0  0  0
 50 49  1  0  0  0  0
M  END
>  <REMARK>
 VINA RESULT:    -4.278      7.117     12.457
 INTER + INTRA:         -13.897
 INTER:                  -8.391
 INTRA:                  -5.506
 UNBOUND:                -5.994
 SMILES CC(=O)N[C@@H]1[C@@H](O)C[C@](O)(C(=O)O)O[C@H]1C(O)[C@H](O)CNC(=O)OCc1cn(CCN2CCCC2)nn1
 SMILES IDX 21 1 22 2 23 3 20 5 18 6 16 7 15 8 9 9 8 10 14 11 6 12 5 13
 SMILES IDX 10 14 11 16 12 17 13 18 7 20 4 22 2 23 1 25 3 26 17 27 19 29
 SMILES IDX 24 31 25 32 26 33 27 34 37 35 28 36 36 37 29 38 30 39 31 40
 SMILES IDX 32 41 35 42 33 43 34 44
 H PARENT 21 4 10 15 13 19 7 21 4 24 17 28 19 30
 Flexibility Score: inf
  4 active torsions:
  status: ('A' for Active; 'I' for Inactive)
    1  A    between atoms: CA   and  CB  
    2  A    between atoms: CB   and  CG  
    3  A    between atoms: CG   and  CD  
    4  A    between atoms: CD   and  CE  

>  <TORSDO>
F 17

>  <BEGIN_>
RES LYS A 131

$$$$
ligand_14_pose_13_2HRL.pdbqt
 OpenBabel07062320523D

  6  5  0  0  0  0  0  0  0  0999 V2000
   33.1930   34.6630    9.2900 C   0  0  0  0  0  0  0  0  0  0  0  0
   32.0600   35.3600   10.0340 C   0  0  0  0  0  0  0  0  0  0  0  0
   30.6890   34.9610    9.5530 C   0  0  0  0  0  0  0  0  0  0  0  0
   29.7140   34.8810   10.7180 C   0  0  0  0  0  0  0  0  0  0  0  0
   30.4630   34.8170   12.0360 C   0  0  0  0  0  0  0  0  0  0  0  0
   29.8970   35.7790   13.0220 N   0  0  0  0  0  0  0  0  0  0  0  0
  1  2  1  0  0  0  0
  3  2  1  0  0  0  0
  3  4  1  0  0  0  0
  4  5  1  0  0  0  0
  5  6  1  0  0  0  0
M  END
>  <EGIN_R>
ES LYS A 135

>  <REMARK>
  4 active torsions:
  status: ('A' for Active; 'I' for Inactive)
    5  A    between atoms: CA   and  CB  
    6  A    between atoms: CB   and  CG  
    7  A    between atoms: CG   and  CD  
    8  A    between atoms: CD   and  CE  

$$$$
