ligand_9_pose_11_2HRL.pdbqt
 OpenBabel07062320523D

 54 55  0  0  1  0  0  0  0  0999 V2000
   29.6900   27.0140   20.2990 N   0  0  0  0  0  0  0  0  0  0  0  0
   28.3460   27.4430   20.4680 C   0  0  0  0  0  0  0  0  0  0  0  0
   27.9680   27.7850   21.6160 O   0  0  0  0  0  0  0  0  0  0  0  0
   29.9820   26.7350   19.3410 H   0  0  0  0  0  0  0  0  0  0  0  0
   30.6150   26.9640   21.4130 C   0  0  0  0  0  0  0  0  0  0  0  0
   31.5390   28.1350   21.4540 C   0  0  2  0  0  0  0  0  0  0  0  0
   31.0680   29.2420   22.3420 C   0  0  1  0  0  0  0  0  0  0  0  0
   32.2750   30.0540   22.8800 C   0  0  2  0  0  0  0  0  0  0  0  0
   33.6640   31.7580   22.3450 C   0  0  2  0  0  0  0  0  0  0  0  0
   34.8970   30.8830   22.3190 C   0  0  0  0  0  0  0  0  0  0  0  0
   32.5860   31.0230   21.9630 O   0  0  0  0  0  0  0  0  0  0  0  0
   34.7630   29.6720   23.1910 C   0  0  1  0  0  0  0  0  0  0  0  0
   33.3670   29.1210   23.2530 C   0  0  1  0  0  0  0  0  0  0  0  0
   33.8810   32.7200   21.3180 O   0  0  0  0  0  0  0  0  0  0  0  0
   33.3230   32.5550   20.5370 H   0  0  0  0  0  0  0  0  0  0  0  0
   33.5560   32.4810   23.6190 C   0  0  0  0  0  0  0  0  0  0  0  0
   32.4940   33.0830   23.9940 O   0  0  0  0  0  0  0  0  0  0  0  0
   34.6820   32.5100   24.4640 O   0  0  0  0  0  0  0  0  0  0  0  0
   35.0910   33.4310   24.6680 H   0  0  0  0  0  0  0  0  0  0  0  0
   35.6750   28.7090   22.7620 O   0  0  0  0  0  0  0  0  0  0  0  0
   36.4930   28.6820   23.3200 H   0  0  0  0  0  0  0  0  0  0  0  0
   33.0820   28.5340   24.5500 N   0  0  0  0  0  0  0  0  0  0  0  0
   33.4140   27.1870   24.8540 C   0  0  0  0  0  0  0  0  0  0  0  0
   32.6100   29.1460   25.2800 H   0  0  0  0  0  0  0  0  0  0  0  0
   33.0890   26.6550   26.2030 C   0  0  0  0  0  0  0  0  0  0  0  0
   33.9840   26.4360   23.9900 O   0  0  0  0  0  0  0  0  0  0  0  0
   30.1970   30.1280   21.7590 O   0  0  0  0  0  0  0  0  0  0  0  0
   29.6620   30.6590   22.3760 H   0  0  0  0  0  0  0  0  0  0  0  0
   31.8650   28.5590   20.1690 O   0  0  0  0  0  0  0  0  0  0  0  0
   31.0220   28.8660   19.7390 H   0  0  0  0  0  0  0  0  0  0  0  0
   27.4240   27.5070   19.4390 O   0  0  0  0  0  0  0  0  0  0  0  0
   26.7820   28.7160   19.0800 C   0  0  0  0  0  0  0  0  0  0  0  0
   27.5760   29.4460   18.0730 C   0  0  0  0  0  0  0  0  0  0  0  0
   28.5300   30.4300   18.2690 C   0  0  0  0  0  0  0  0  0  0  0  0
   27.5220   29.2890   16.7330 N   0  0  0  0  0  0  0  0  0  0  0  0
   29.0110   30.8280   17.0720 N   0  0  0  0  0  0  0  0  0  0  0  0
   28.3650   30.1020   16.1560 N   0  0  0  0  0  0  0  0  0  0  0  0
   29.9910   31.8040   16.7870 C   0  0  0  0  0  0  0  0  0  0  0  0
   30.3930   32.7230   17.7380 C   0  0  0  0  0  0  0  0  0  0  0  0
   30.5860   31.8770   15.5470 C   0  0  0  0  0  0  0  0  0  0  0  0
   31.3480   33.6930   17.5000 C   0  0  0  0  0  0  0  0  0  0  0  0
   31.5520   32.8420   15.2770 C   0  0  0  0  0  0  0  0  0  0  0  0
   31.9210   33.7360   16.2500 C   0  0  0  0  0  0  0  0  0  0  0  0
   31.7540   34.6490   18.5230 C   0  0  0  0  0  0  0  0  0  0  0  0
   32.3820   34.2430   19.5310 O   0  0  0  0  0  0  0  0  0  0  0  0
   31.4750   36.0030   18.4310 O   0  0  0  0  0  0  0  0  0  0  0  0
   30.3530   36.5950   19.0570 C   0  0  0  0  0  0  0  0  0  0  0  0
   29.3060   36.8600   18.0140 C   0  0  0  0  0  0  0  0  0  0  0  0
   29.8670   25.5550   16.9770 C   0  0  0  0  0  0  0  0  0  0  0  0
   28.3450   25.7220   17.0260 C   0  0  0  0  0  0  0  0  0  0  0  0
   27.6060   24.3930   17.0610 C   0  0  0  0  0  0  0  0  0  0  0  0
   26.1320   24.5710   17.3030 C   0  0  0  0  0  0  0  0  0  0  0  0
   25.8470   24.4740   18.7980 C   0  0  0  0  0  0  0  0  0  0  0  0
   25.5060   23.0800   19.1720 N   0  0  0  0  0  0  0  0  0  0  0  0
  1  2  1  0  0  0  0
  1  5  1  0  0  0  0
  2  3  2  0  0  0  0
  4  1  1  0  0  0  0
  6  5  1  6  0  0  0
  6  7  1  0  0  0  0
  7 27  1  6  0  0  0
  8  7  1  6  0  0  0
  8 13  1  0  0  0  0
  9 14  1  6  0  0  0
  9 16  1  0  0  0  0
 10  9  1  0  0  0  0
 10 12  1  0  0  0  0
 11  9  1  0  0  0  0
 11  8  1  0  0  0  0
 12 20  1  6  0  0  0
 12 13  1  0  0  0  0
 13 22  1  1  0  0  0
 15 14  1  0  0  0  0
 16 17  2  0  0  0  0
 16 18  1  0  0  0  0
 18 19  1  0  0  0  0
 20 21  1  0  0  0  0
 22 23  1  0  0  0  0
 22 24  1  0  0  0  0
 23 25  1  0  0  0  0
 26 23  2  0  0  0  0
 27 28  1  0  0  0  0
 29  6  1  0  0  0  0
 30 29  1  0  0  0  0
 31  2  1  0  0  0  0
 32 31  1  0  0  0  0
 33 34  2  0  0  0  0
 33 32  1  0  0  0  0
 35 33  1  0  0  0  0
 36 34  1  0  0  0  0
 37 35  2  0  0  0  0
 37 36  1  0  0  0  0
 38 36  1  0  0  0  0
 38 39  2  0  0  0  0
 40 38  1  0  0  0  0
 41 39  1  0  0  0  0
 41 44  1  0  0  0  0
 42 40  2  0  0  0  0
 42 43  1  0  0  0  0
 43 41  2  0  0  0  0
 44 45  2  0  0  0  0
 46 44  1  0  0  0  0
 46 47  1  0  0  0  0
 48 47  1  0  0  0  0
 49 50  1  0  0  0  0
 50 51  1  0  0  0  0
 51 52  1  0  0  0  0
 52 53  1  0  0  0  0
 53 54  1  0  0  0  0
M  END
>  <REMARK>
 VINA RESULT:    -4.891      2.740      4.643
 INTER + INTRA:         -14.994
 INTER:                  -9.017
 INTRA:                  -5.977
 UNBOUND:                -5.671
 SMILES CCOC(=O)c1cccc(-n2cc(COC(=O)NC[C@@H](O)C(O)[C@@H]3O[C@@](O)(C(=O)O)C[C@H](O)[C@H]3NC(C)=O)nn2)c1
 SMILES IDX 18 1 16 2 17 3 19 5 20 6 22 7 24 8 26 9 31 10 25 11 32 12
 SMILES IDX 34 13 27 14 28 16 29 17 30 18 33 20 35 22 36 23 37 25 38 26
 SMILES IDX 23 27 21 29 15 31 14 32 13 33 12 34 39 35 11 36 40 37 10 38
 SMILES IDX 41 39 9 40 6 41 8 42 7 43 4 44 5 45 3 46 2 47 1 48
 H PARENT 18 4 27 15 30 19 33 21 35 24 23 28 21 30
 Flexibility Score: inf
  4 active torsions:
  status: ('A' for Active; 'I' for Inactive)
    1  A    between atoms: CA   and  CB  
    2  A    between atoms: CB   and  CG  
    3  A    between atoms: CG   and  CD  
    4  A    between atoms: CD   and  CE  

>  <TORSDO>
F 18

>  <BEGIN_>
RES LYS A 131

$$$$
ligand_9_pose_11_2HRL.pdbqt
 OpenBabel07062320523D

  6  5  0  0  0  0  0  0  0  0999 V2000
   33.1930   34.6630    9.2900 C   0  0  0  0  0  0  0  0  0  0  0  0
   32.0600   35.3600   10.0340 C   0  0  0  0  0  0  0  0  0  0  0  0
   30.7100   34.7310    9.8020 C   0  0  0  0  0  0  0  0  0  0  0  0
   30.4550   34.5400    8.3150 C   0  0  0  0  0  0  0  0  0  0  0  0
   28.9990   34.8080    7.9860 C   0  0  0  0  0  0  0  0  0  0  0  0
   28.1000   34.2320    9.0230 N   0  0  0  0  0  0  0  0  0  0  0  0
  1  2  1  0  0  0  0
  3  2  1  0  0  0  0
  4  3  1  0  0  0  0
  5  4  1  0  0  0  0
  5  6  1  0  0  0  0
M  END
>  <EGIN_R>
ES LYS A 135

>  <REMARK>
  4 active torsions:
  status: ('A' for Active; 'I' for Inactive)
    5  A    between atoms: CA   and  CB  
    6  A    between atoms: CB   and  CG  
    7  A    between atoms: CG   and  CD  
    8  A    between atoms: CD   and  CE  

$$$$
