ligand_66_pose_10_2HRL.pdbqt
 OpenBabel07062320523D

 52 53  0  0  1  0  0  0  0  0999 V2000
   19.3250   34.4300    8.4780 N   0  0  0  0  0  0  0  0  0  0  0  0
   20.2680   35.3600    8.0270 C   0  0  0  0  0  0  0  0  0  0  0  0
   19.9200   36.3420    7.3400 O   0  0  0  0  0  0  0  0  0  0  0  0
   19.6970   33.6220    9.0620 H   0  0  0  0  0  0  0  0  0  0  0  0
   17.9160   34.5140    8.1980 C   0  0  0  0  0  0  0  0  0  0  0  0
   17.3520   33.2440    7.6260 C   0  0  2  0  0  0  0  0  0  0  0  0
   17.6510   32.0080    8.3820 C   0  0  2  0  0  0  0  0  0  0  0  0
   16.8030   30.7860    7.9940 C   0  0  2  0  0  0  0  0  0  0  0  0
   16.6770   29.1210    6.4450 C   0  0  2  0  0  0  0  0  0  0  0  0
   15.3510   29.6430    5.9310 C   0  0  0  0  0  0  0  0  0  0  0  0
   17.3760   30.1890    6.9430 O   0  0  0  0  0  0  0  0  0  0  0  0
   14.5380   30.2510    7.0420 C   0  0  1  0  0  0  0  0  0  0  0  0
   15.3570   31.1070    7.9630 C   0  0  1  0  0  0  0  0  0  0  0  0
   17.3800   28.5810    5.3370 O   0  0  0  0  0  0  0  0  0  0  0  0
   17.1340   29.1830    4.5770 H   0  0  0  0  0  0  0  0  0  0  0  0
   16.4400   28.0050    7.3660 C   0  0  0  0  0  0  0  0  0  0  0  0
   15.3450   27.3990    7.4100 O   0  0  0  0  0  0  0  0  0  0  0  0
   17.4130   27.5280    8.2690 O   0  0  0  0  0  0  0  0  0  0  0  0
   18.0250   28.2480    8.6600 H   0  0  0  0  0  0  0  0  0  0  0  0
   13.5220   31.0050    6.4560 O   0  0  0  0  0  0  0  0  0  0  0  0
   13.5970   31.0430    5.4800 H   0  0  0  0  0  0  0  0  0  0  0  0
   14.7820   31.0450    9.2920 N   0  0  0  0  0  0  0  0  0  0  0  0
   13.8170   32.0090    9.7630 C   0  0  0  0  0  0  0  0  0  0  0  0
   15.0190   30.3090   10.0050 H   0  0  0  0  0  0  0  0  0  0  0  0
   13.2520   31.9050   11.1450 C   0  0  0  0  0  0  0  0  0  0  0  0
   13.4460   32.9370    9.0180 O   0  0  0  0  0  0  0  0  0  0  0  0
   17.5100   32.1580    9.7630 O   0  0  0  0  0  0  0  0  0  0  0  0
   17.2570   31.3180   10.2180 H   0  0  0  0  0  0  0  0  0  0  0  0
   17.6620   33.2100    6.2670 O   0  0  0  0  0  0  0  0  0  0  0  0
   17.6650   34.1400    5.9350 H   0  0  0  0  0  0  0  0  0  0  0  0
   21.6300   35.2490    8.3070 O   0  0  0  0  0  0  0  0  0  0  0  0
   22.2020   36.1440    9.2270 C   0  0  0  0  0  0  0  0  0  0  0  0
   22.0980   35.5690   10.5830 C   0  0  0  0  0  0  0  0  0  0  0  0
   22.9330   34.6540   11.1860 C   0  0  0  0  0  0  0  0  0  0  0  0
   21.1440   35.8510   11.4880 N   0  0  0  0  0  0  0  0  0  0  0  0
   22.4680   34.4100   12.4250 N   0  0  0  0  0  0  0  0  0  0  0  0
   21.3800   35.1580   12.5660 N   0  0  0  0  0  0  0  0  0  0  0  0
   22.9730   33.5490   13.4610 C   0  0  0  0  0  0  0  0  0  0  0  0
   22.7820   32.1070   13.0910 C   0  0  0  0  0  0  0  0  0  0  0  0
   23.8540   31.2440   13.1220 C   0  0  0  0  0  0  0  0  0  0  0  0
   21.5590   31.6130   12.7240 C   0  0  0  0  0  0  0  0  0  0  0  0
   23.6820   29.8960   12.7850 C   0  0  0  0  0  0  0  0  0  0  0  0
   21.3520   30.2920   12.3870 C   0  0  0  0  0  0  0  0  0  0  0  0
   22.4240   29.4300   12.4190 C   0  0  0  0  0  0  0  0  0  0  0  0
   20.0810   29.7520   12.0010 C   0  0  0  0  0  0  0  0  0  0  0  0
   19.0490   29.3200   11.6690 N   0  0  0  0  0  0  0  0  0  0  0  0
   29.8670   25.5550   16.9770 C   0  0  0  0  0  0  0  0  0  0  0  0
   28.3450   25.7220   17.0260 C   0  0  0  0  0  0  0  0  0  0  0  0
   27.6040   24.3940   17.0030 C   0  0  0  0  0  0  0  0  0  0  0  0
   26.1180   24.5720   17.1500 C   0  0  0  0  0  0  0  0  0  0  0  0
   25.8300   25.5070   18.3200 C   0  0  0  0  0  0  0  0  0  0  0  0
   25.6260   24.7320   19.5660 N   0  0  0  0  0  0  0  0  0  0  0  0
  1  4  1  0  0  0  0
  2 31  1  0  0  0  0
  2  1  1  0  0  0  0
  3  2  2  0  0  0  0
  5  1  1  0  0  0  0
  6  5  1  1  0  0  0
  6  7  1  0  0  0  0
  7 27  1  1  0  0  0
  8  7  1  6  0  0  0
  9 14  1  6  0  0  0
  9 11  1  0  0  0  0
  9 16  1  0  0  0  0
 10  9  1  0  0  0  0
 10 12  1  0  0  0  0
 11  8  1  0  0  0  0
 12 20  1  6  0  0  0
 12 13  1  0  0  0  0
 13  8  1  0  0  0  0
 13 22  1  1  0  0  0
 15 14  1  0  0  0  0
 16 17  2  0  0  0  0
 16 18  1  0  0  0  0
 18 19  1  0  0  0  0
 21 20  1  0  0  0  0
 22 23  1  0  0  0  0
 22 24  1  0  0  0  0
 23 25  1  0  0  0  0
 26 23  2  0  0  0  0
 27 28  1  0  0  0  0
 29  6  1  0  0  0  0
 30 29  1  0  0  0  0
 31 32  1  0  0  0  0
 32 33  1  0  0  0  0
 33 34  2  0  0  0  0
 33 35  1  0  0  0  0
 34 36  1  0  0  0  0
 35 37  2  0  0  0  0
 36 37  1  0  0  0  0
 36 38  1  0  0  0  0
 39 40  1  0  0  0  0
 39 38  1  0  0  0  0
 41 39  2  0  0  0  0
 42 40  2  0  0  0  0
 43 44  2  0  0  0  0
 43 41  1  0  0  0  0
 44 42  1  0  0  0  0
 45 43  1  0  0  0  0
 46 45  3  0  0  0  0
 47 48  1  0  0  0  0
 49 48  1  0  0  0  0
 49 50  1  0  0  0  0
 50 51  1  0  0  0  0
 51 52  1  0  0  0  0
M  END
>  <REMARK>
 VINA RESULT:    -5.000      7.219     12.293
 INTER + INTRA:         -14.450
 INTER:                  -9.101
 INTRA:                  -5.350
 UNBOUND:                -5.212
 SMILES CC(=O)N[C@@H]1[C@@H](O)C[C@](O)(C(=O)O)O[C@H]1C(O)[C@H](O)CNC(=O)OCc1cn(Cc2cccc(C#N)c2)nn1
 SMILES IDX 21 1 22 2 23 3 20 5 18 6 16 7 15 8 9 9 8 10 14 11 6 12 5 13
 SMILES IDX 10 14 11 16 12 17 13 18 7 20 4 22 2 23 1 25 3 26 17 27 19 29
 SMILES IDX 24 31 25 32 26 33 27 34 39 35 28 36 38 37 29 38 30 39 31 40
 SMILES IDX 37 41 32 42 34 43 33 44 35 45 36 46
 H PARENT 21 4 10 15 13 19 7 21 4 24 17 28 19 30
 Flexibility Score: inf
  4 active torsions:
  status: ('A' for Active; 'I' for Inactive)
    1  A    between atoms: CA   and  CB  
    2  A    between atoms: CB   and  CG  
    3  A    between atoms: CG   and  CD  
    4  A    between atoms: CD   and  CE  

>  <TORSDO>
F 17

>  <BEGIN_>
RES LYS A 131

$$$$
ligand_66_pose_10_2HRL.pdbqt
 OpenBabel07062320523D

  6  5  0  0  0  0  0  0  0  0999 V2000
   33.1930   34.6630    9.2900 C   0  0  0  0  0  0  0  0  0  0  0  0
   32.0600   35.3600   10.0340 C   0  0  0  0  0  0  0  0  0  0  0  0
   30.8040   35.5090    9.2150 C   0  0  0  0  0  0  0  0  0  0  0  0
   30.0930   34.1720    9.0750 C   0  0  0  0  0  0  0  0  0  0  0  0
   28.6460   34.3790    8.6690 C   0  0  0  0  0  0  0  0  0  0  0  0
   27.7220   33.6730    9.6000 N   0  0  0  0  0  0  0  0  0  0  0  0
  1  2  1  0  0  0  0
  3  2  1  0  0  0  0
  4  3  1  0  0  0  0
  5  4  1  0  0  0  0
  5  6  1  0  0  0  0
M  END
>  <EGIN_R>
ES LYS A 135

>  <REMARK>
  4 active torsions:
  status: ('A' for Active; 'I' for Inactive)
    5  A    between atoms: CA   and  CB  
    6  A    between atoms: CB   and  CG  
    7  A    between atoms: CG   and  CD  
    8  A    between atoms: CD   and  CE  

$$$$
