ligand_84_pose_2_2HRL.pdbqt
 OpenBabel07062320523D

 60 62  0  0  1  0  0  0  0  0999 V2000
   19.8990   34.2400   10.7460 O   0  0  0  0  0  0  0  0  0  0  0  0
   20.2410   35.2380    9.8480 C   0  0  0  0  0  0  0  0  0  0  0  0
   21.4240   35.2320    9.0580 N   0  0  0  0  0  0  0  0  0  0  0  0
   22.0610   34.4230    9.1860 H   0  0  0  0  0  0  0  0  0  0  0  0
   19.4240   36.1950    9.7510 O   0  0  0  0  0  0  0  0  0  0  0  0
   21.6180   36.3320    8.1720 C   0  0  0  0  0  0  0  0  0  0  0  0
   22.9660   36.9320    8.1430 C   0  0  2  0  0  0  0  0  0  0  0  0
   23.8350   36.6510    9.3560 C   0  0  1  0  0  0  0  0  0  0  0  0
   25.1070   37.4620    9.0990 C   0  0  2  0  0  0  0  0  0  0  0  0
   26.5500   37.9140    7.3220 C   0  0  2  0  0  0  0  0  0  0  0  0
   27.7240   37.8260    8.2550 C   0  0  0  0  0  0  0  0  0  0  0  0
   25.4220   37.2900    7.7790 O   0  0  0  0  0  0  0  0  0  0  0  0
   27.3870   37.9410    9.6970 C   0  0  1  0  0  0  0  0  0  0  0  0
   26.2150   36.9730    9.9710 C   0  0  1  0  0  0  0  0  0  0  0  0
   26.9560   37.2040    6.1620 O   0  0  0  0  0  0  0  0  0  0  0  0
   27.8840   36.9150    6.2320 H   0  0  0  0  0  0  0  0  0  0  0  0
   26.2740   39.3090    6.8670 C   0  0  0  0  0  0  0  0  0  0  0  0
   26.1240   40.2310    7.7090 O   0  0  0  0  0  0  0  0  0  0  0  0
   26.1690   39.6590    5.5290 O   0  0  0  0  0  0  0  0  0  0  0  0
   26.9470   39.9600    4.9530 H   0  0  0  0  0  0  0  0  0  0  0  0
   28.4830   37.5170   10.4490 O   0  0  0  0  0  0  0  0  0  0  0  0
   28.2130   37.3280   11.3870 H   0  0  0  0  0  0  0  0  0  0  0  0
   25.8850   36.9860   11.3710 N   0  0  0  0  0  0  0  0  0  0  0  0
   26.4490   36.0510   12.2680 C   0  0  0  0  0  0  0  0  0  0  0  0
   25.2200   37.6940   11.7250 H   0  0  0  0  0  0  0  0  0  0  0  0
   26.0360   36.1540   13.6990 C   0  0  0  0  0  0  0  0  0  0  0  0
   27.2600   35.1690   11.9190 O   0  0  0  0  0  0  0  0  0  0  0  0
   23.1710   37.1180   10.5010 O   0  0  0  0  0  0  0  0  0  0  0  0
   22.8510   36.3110   10.9800 H   0  0  0  0  0  0  0  0  0  0  0  0
   22.7820   38.3430    8.1860 O   0  0  0  0  0  0  0  0  0  0  0  0
   21.8030   38.4520    8.3550 H   0  0  0  0  0  0  0  0  0  0  0  0
   20.2790   34.3280   12.1100 C   0  0  0  0  0  0  0  0  0  0  0  0
   21.6740   33.8650   12.2900 C   0  0  0  0  0  0  0  0  0  0  0  0
   22.0200   32.5730   12.6920 C   0  0  0  0  0  0  0  0  0  0  0  0
   22.8510   34.4820   12.1220 N   0  0  0  0  0  0  0  0  0  0  0  0
   23.3530   32.4450   12.7540 N   0  0  0  0  0  0  0  0  0  0  0  0
   23.8430   33.6530   12.3950 N   0  0  0  0  0  0  0  0  0  0  0  0
   24.1580   31.2880   13.1000 C   0  0  0  0  0  0  0  0  0  0  0  0
   23.4780   30.5230   14.2420 C   0  0  1  0  0  0  0  0  0  0  0  0
   23.2300   29.1040   13.8900 C   0  0  0  0  0  0  0  0  0  0  0  0
   24.0670   30.8530   15.5500 C   0  0  0  0  0  0  0  0  0  0  0  0
   25.3900   31.3880   15.4690 N   0  0  0  0  0  0  0  0  0  0  0  0
   25.4470   32.6960   16.1760 C   0  0  0  0  0  0  0  0  0  0  0  0
   26.3090   30.5520   16.2350 C   0  0  0  0  0  0  0  0  0  0  0  0
   26.8400   33.2120   16.2560 C   0  0  0  0  0  0  0  0  0  0  0  0
   27.6960   30.9090   15.6800 C   0  0  0  0  0  0  0  0  0  0  0  0
   27.8730   32.3270   15.8160 N   0  0  0  0  0  0  0  0  0  0  0  0
   29.1520   32.8630   15.4960 C   0  0  0  0  0  0  0  0  0  0  0  0
   30.2840   32.1490   15.8210 C   0  0  0  0  0  0  0  0  0  0  0  0
   29.2730   34.0960   14.8720 C   0  0  0  0  0  0  0  0  0  0  0  0
   31.5180   32.6770   15.5170 C   0  0  0  0  0  0  0  0  0  0  0  0
   30.5080   34.6120   14.5760 C   0  0  0  0  0  0  0  0  0  0  0  0
   31.6420   33.8870   14.9050 C   0  0  0  0  0  0  0  0  0  0  0  0
   33.2050   34.5610   14.5280 Cl  0  0  0  0  0  0  0  0  0  0  0  0
   29.8670   25.5550   16.9770 C   0  0  0  0  0  0  0  0  0  0  0  0
   28.3450   25.7220   17.0260 C   0  0  0  0  0  0  0  0  0  0  0  0
   27.5990   24.4240   16.7590 C   0  0  0  0  0  0  0  0  0  0  0  0
   26.7970   23.9760   17.9490 C   0  0  0  0  0  0  0  0  0  0  0  0
   25.3380   23.7980   17.5420 C   0  0  0  0  0  0  0  0  0  0  0  0
   24.9680   22.3630   17.5500 N   0  0  0  0  0  0  0  0  0  0  0  0
  1 32  1  0  0  0  0
  2  1  1  0  0  0  0
  3  4  1  0  0  0  0
  3  2  1  0  0  0  0
  5  2  2  0  0  0  0
  6  3  1  0  0  0  0
  7  6  1  1  0  0  0
  7 30  1  0  0  0  0
  7  8  1  0  0  0  0
  8 28  1  1  0  0  0
  9  8  1  1  0  0  0
  9 14  1  0  0  0  0
 10 15  1  6  0  0  0
 10 12  1  0  0  0  0
 10 11  1  0  0  0  0
 11 13  1  0  0  0  0
 12  9  1  0  0  0  0
 13 14  1  0  0  0  0
 13 21  1  1  0  0  0
 14 23  1  1  0  0  0
 15 16  1  0  0  0  0
 17 10  1  0  0  0  0
 17 18  2  0  0  0  0
 19 17  1  0  0  0  0
 20 19  1  0  0  0  0
 21 22  1  0  0  0  0
 23 25  1  0  0  0  0
 23 24  1  0  0  0  0
 24 26  1  0  0  0  0
 27 24  2  0  0  0  0
 28 29  1  0  0  0  0
 30 31  1  0  0  0  0
 32 33  1  0  0  0  0
 33 34  2  0  0  0  0
 34 36  1  0  0  0  0
 35 33  1  0  0  0  0
 35 37  2  0  0  0  0
 36 38  1  0  0  0  0
 37 36  1  0  0  0  0
 38 39  1  0  0  0  0
 39 40  1  6  0  0  0
 39 41  1  0  0  0  0
 42 41  1  0  0  0  0
 42 43  1  0  0  0  0
 42 44  1  0  0  0  0
 43 45  1  0  0  0  0
 46 47  1  0  0  0  0
 46 44  1  0  0  0  0
 47 45  1  0  0  0  0
 48 47  1  0  0  0  0
 48 49  2  0  0  0  0
 50 48  1  0  0  0  0
 51 49  1  0  0  0  0
 52 50  2  0  0  0  0
 52 53  1  0  0  0  0
 53 51  2  0  0  0  0
 54 53  1  0  0  0  0
 55 56  1  0  0  0  0
 57 56  1  0  0  0  0
 57 58  1  0  0  0  0
 59 60  1  0  0  0  0
 59 58  1  0  0  0  0
M  END
>  <REMARK>
 VINA RESULT:    -5.364      1.846      3.418
 INTER + INTRA:         -16.658
 INTER:                  -9.912
 INTRA:                  -6.745
 UNBOUND:                -6.121
 SMILES CC(=O)N[C@@H]1[C@@H](O)C[C@](O)(C(=O)O)O[C@H]1C(O)[C@H](O)CNC(=O)OCc1cn(C[C@@H](C)CN2CCN(c3ccc(Cl)cc3)CC2)nn1
 SMILES IDX 24 1 22 2 21 3 23 5 20 6 18 7 16 8 15 9 9 10 8 11 14 12 6 13
 SMILES IDX 5 14 10 15 11 17 12 18 13 19 7 21 4 23 2 24 1 26 3 27 17 28
 SMILES IDX 19 30 25 32 26 33 27 34 47 35 28 36 46 37 29 38 30 39 31 40
 SMILES IDX 32 41 33 42 34 43 45 44 35 45 44 46 36 47 37 48 38 49 43 50
 SMILES IDX 39 51 42 52 40 53 41 54
 H PARENT 21 4 10 16 13 20 7 22 4 25 17 29 19 31
 Flexibility Score: inf
  4 active torsions:
  status: ('A' for Active; 'I' for Inactive)
    1  A    between atoms: CA   and  CB  
    2  A    between atoms: CB   and  CG  
    3  A    between atoms: CG   and  CD  
    4  A    between atoms: CD   and  CE  

>  <TORSDO>
F 19

>  <BEGIN_>
RES LYS A 131

$$$$
ligand_84_pose_2_2HRL.pdbqt
 OpenBabel07062320523D

  6  5  0  0  0  0  0  0  0  0999 V2000
   33.1930   34.6630    9.2900 C   0  0  0  0  0  0  0  0  0  0  0  0
   32.0600   35.3600   10.0340 C   0  0  0  0  0  0  0  0  0  0  0  0
   30.7250   34.6810    9.8710 C   0  0  0  0  0  0  0  0  0  0  0  0
   30.3660   34.5500    8.3990 C   0  0  0  0  0  0  0  0  0  0  0  0
   28.8600   34.5510    8.2150 C   0  0  0  0  0  0  0  0  0  0  0  0
   28.1890   33.7650    9.2880 N   0  0  0  0  0  0  0  0  0  0  0  0
  1  2  1  0  0  0  0
  3  2  1  0  0  0  0
  4  3  1  0  0  0  0
  5  4  1  0  0  0  0
  5  6  1  0  0  0  0
M  END
>  <EGIN_R>
ES LYS A 135

>  <REMARK>
  4 active torsions:
  status: ('A' for Active; 'I' for Inactive)
    5  A    between atoms: CA   and  CB  
    6  A    between atoms: CB   and  CG  
    7  A    between atoms: CG   and  CD  
    8  A    between atoms: CD   and  CE  

$$$$
