ligand_36_pose_10_2HRL.pdbqt
 OpenBabel07062320523D

 52 53  0  0  1  0  0  0  0  0999 V2000
   28.0520   34.7720   12.9370 N   0  0  0  0  0  0  0  0  0  0  0  0
   27.2300   35.8030   13.4810 C   0  0  0  0  0  0  0  0  0  0  0  0
   27.7090   36.9850   13.5910 O   0  0  0  0  0  0  0  0  0  0  0  0
   27.6400   33.8240   12.8540 H   0  0  0  0  0  0  0  0  0  0  0  0
   29.3760   35.0740   12.5330 C   0  0  0  0  0  0  0  0  0  0  0  0
   30.4790   34.3120   13.2290 C   0  0  2  0  0  0  0  0  0  0  0  0
   30.8430   34.8900   14.5810 C   0  0  2  0  0  0  0  0  0  0  0  0
   30.5940   33.9410   15.7030 C   0  0  2  0  0  0  0  0  0  0  0  0
   28.9430   32.5570   16.5860 C   0  0  2  0  0  0  0  0  0  0  0  0
   30.0480   32.1910   17.5520 C   0  0  0  0  0  0  0  0  0  0  0  0
   29.3750   33.2790   15.5140 O   0  0  0  0  0  0  0  0  0  0  0  0
   30.7990   33.3720   18.0560 C   0  0  1  0  0  0  0  0  0  0  0  0
   30.5560   34.5340   17.0770 C   0  0  1  0  0  0  0  0  0  0  0  0
   27.9270   33.2210   17.3070 O   0  0  0  0  0  0  0  0  0  0  0  0
   28.3350   33.5500   18.1610 H   0  0  0  0  0  0  0  0  0  0  0  0
   28.3700   31.2870   16.0940 C   0  0  0  0  0  0  0  0  0  0  0  0
   29.0440   30.5620   15.3290 O   0  0  0  0  0  0  0  0  0  0  0  0
   27.1050   30.8990   16.4730 O   0  0  0  0  0  0  0  0  0  0  0  0
   26.8630   30.5090   17.3650 H   0  0  0  0  0  0  0  0  0  0  0  0
   30.4810   33.7400   19.3480 O   0  0  0  0  0  0  0  0  0  0  0  0
   29.5140   34.0180   19.3420 H   0  0  0  0  0  0  0  0  0  0  0  0
   31.4700   35.6040   17.3290 N   0  0  0  0  0  0  0  0  0  0  0  0
   31.1000   36.7190   18.1570 C   0  0  0  0  0  0  0  0  0  0  0  0
   32.4510   35.6190   16.9300 H   0  0  0  0  0  0  0  0  0  0  0  0
   32.0630   37.8310   18.4140 C   0  0  0  0  0  0  0  0  0  0  0  0
   29.9620   36.7820   18.6800 O   0  0  0  0  0  0  0  0  0  0  0  0
   30.3150   36.1310   14.7300 O   0  0  0  0  0  0  0  0  0  0  0  0
   29.5240   36.3270   14.2240 H   0  0  0  0  0  0  0  0  0  0  0  0
   31.5910   34.4430   12.3570 O   0  0  0  0  0  0  0  0  0  0  0  0
   31.8860   35.3680   12.2780 H   0  0  0  0  0  0  0  0  0  0  0  0
   25.9280   35.6240   13.9090 O   0  0  0  0  0  0  0  0  0  0  0  0
   25.6990   34.9920   15.1490 C   0  0  0  0  0  0  0  0  0  0  0  0
   25.2620   33.5860   14.9840 C   0  0  0  0  0  0  0  0  0  0  0  0
   25.1250   32.8640   13.8080 C   0  0  0  0  0  0  0  0  0  0  0  0
   24.9200   32.7530   15.9750 N   0  0  0  0  0  0  0  0  0  0  0  0
   24.7110   31.6330   14.1210 N   0  0  0  0  0  0  0  0  0  0  0  0
   24.5960   31.5980   15.4310 N   0  0  0  0  0  0  0  0  0  0  0  0
   24.4430   30.5390   13.2140 C   0  0  0  0  0  0  0  0  0  0  0  0
   23.0340   30.4060   12.8410 C   0  0  0  0  0  0  0  0  0  0  0  0
   22.2210   31.5090   12.8240 C   0  0  0  0  0  0  0  0  0  0  0  0
   22.5210   29.1610   12.5110 C   0  0  0  0  0  0  0  0  0  0  0  0
   20.8870   31.3990   12.4790 C   0  0  0  0  0  0  0  0  0  0  0  0
   21.1840   29.0230   12.1610 C   0  0  0  0  0  0  0  0  0  0  0  0
   20.3760   30.1610   12.1510 C   0  0  0  0  0  0  0  0  0  0  0  0
   18.9930   30.0340   11.7940 C   0  0  0  0  0  0  0  0  0  0  0  0
   17.8610   29.9470   11.5080 N   0  0  0  0  0  0  0  0  0  0  0  0
   29.8670   25.5550   16.9770 C   0  0  0  0  0  0  0  0  0  0  0  0
   28.3450   25.7220   17.0260 C   0  0  0  0  0  0  0  0  0  0  0  0
   27.6010   24.4040   16.8780 C   0  0  0  0  0  0  0  0  0  0  0  0
   26.1540   24.5230   17.2710 C   0  0  0  0  0  0  0  0  0  0  0  0
   26.0370   25.3760   18.5300 C   0  0  0  0  0  0  0  0  0  0  0  0
   25.4910   24.5750   19.6500 N   0  0  0  0  0  0  0  0  0  0  0  0
  1  2  1  0  0  0  0
  2  3  2  0  0  0  0
  2 31  1  0  0  0  0
  4  1  1  0  0  0  0
  5  1  1  0  0  0  0
  6  5  1  6  0  0  0
  6  7  1  0  0  0  0
  7 27  1  1  0  0  0
  8  7  1  6  0  0  0
  8 13  1  0  0  0  0
  9 16  1  6  0  0  0
  9 14  1  0  0  0  0
  9 10  1  0  0  0  0
 10 12  1  0  0  0  0
 11  8  1  0  0  0  0
 11  9  1  0  0  0  0
 12 20  1  1  0  0  0
 13 22  1  6  0  0  0
 13 12  1  0  0  0  0
 14 15  1  0  0  0  0
 16 18  1  0  0  0  0
 17 16  2  0  0  0  0
 18 19  1  0  0  0  0
 21 20  1  0  0  0  0
 22 23  1  0  0  0  0
 23 25  1  0  0  0  0
 23 26  2  0  0  0  0
 24 22  1  0  0  0  0
 28 27  1  0  0  0  0
 29  6  1  0  0  0  0
 30 29  1  0  0  0  0
 31 32  1  0  0  0  0
 33 32  1  0  0  0  0
 33 35  1  0  0  0  0
 34 36  1  0  0  0  0
 34 33  2  0  0  0  0
 36 37  1  0  0  0  0
 37 35  2  0  0  0  0
 38 36  1  0  0  0  0
 39 38  1  0  0  0  0
 40 39  1  0  0  0  0
 41 39  2  0  0  0  0
 42 40  2  0  0  0  0
 43 41  1  0  0  0  0
 44 43  2  0  0  0  0
 44 42  1  0  0  0  0
 45 44  1  0  0  0  0
 46 45  3  0  0  0  0
 47 48  1  0  0  0  0
 49 48  1  0  0  0  0
 49 50  1  0  0  0  0
 50 51  1  0  0  0  0
 51 52  1  0  0  0  0
M  END
>  <REMARK>
 VINA RESULT:    -4.237      4.348      8.461
 INTER + INTRA:         -14.810
 INTER:                  -8.338
 INTRA:                  -6.472
 UNBOUND:                -6.980
 SMILES CC(=O)N[C@@H]1[C@@H](O)C[C@](O)(C(=O)O)O[C@H]1C(O)[C@H](O)CNC(=O)OCc1cn(Cc2ccc(C#N)cc2)nn1
 SMILES IDX 21 1 22 2 23 3 20 5 18 6 16 7 15 8 9 9 8 10 14 11 6 12 5 13
 SMILES IDX 10 14 11 16 12 17 13 18 7 20 4 22 2 23 1 25 3 26 17 27 19 29
 SMILES IDX 24 31 25 32 26 33 27 34 39 35 28 36 38 37 29 38 30 39 31 40
 SMILES IDX 37 41 32 42 36 43 33 44 34 45 35 46
 H PARENT 21 4 10 15 13 19 7 21 4 24 17 28 19 30
 Flexibility Score: inf
  4 active torsions:
  status: ('A' for Active; 'I' for Inactive)
    1  A    between atoms: CA   and  CB  
    2  A    between atoms: CB   and  CG  
    3  A    between atoms: CG   and  CD  
    4  A    between atoms: CD   and  CE  

>  <TORSDO>
F 17

>  <BEGIN_>
RES LYS A 131

$$$$
ligand_36_pose_10_2HRL.pdbqt
 OpenBabel07062320523D

  6  5  0  0  0  0  0  0  0  0999 V2000
   33.1930   34.6630    9.2900 C   0  0  0  0  0  0  0  0  0  0  0  0
   32.0600   35.3600   10.0340 C   0  0  0  0  0  0  0  0  0  0  0  0
   30.8430   35.6100    9.1810 C   0  0  0  0  0  0  0  0  0  0  0  0
   30.2410   34.2960    8.7080 C   0  0  0  0  0  0  0  0  0  0  0  0
   28.7490   34.4460    8.4800 C   0  0  0  0  0  0  0  0  0  0  0  0
   27.9710   33.7390    9.5350 N   0  0  0  0  0  0  0  0  0  0  0  0
  1  2  1  0  0  0  0
  3  2  1  0  0  0  0
  4  3  1  0  0  0  0
  5  4  1  0  0  0  0
  5  6  1  0  0  0  0
M  END
>  <EGIN_R>
ES LYS A 135

>  <REMARK>
  4 active torsions:
  status: ('A' for Active; 'I' for Inactive)
    5  A    between atoms: CA   and  CB  
    6  A    between atoms: CB   and  CG  
    7  A    between atoms: CG   and  CD  
    8  A    between atoms: CD   and  CE  

$$$$
