ligand_87_pose_10_2HRL.pdbqt
 OpenBabel07062320523D

 52 54  0  0  1  0  0  0  0  0999 V2000
   32.4700   28.6490   21.6540 C   0  0  0  0  0  0  0  0  0  0  0  0
   31.6030   27.9410   20.6540 C   0  0  2  0  0  0  0  0  0  0  0  0
   30.7180   26.9090   21.3420 C   0  0  2  0  0  0  0  0  0  0  0  0
   29.2630   27.2970   21.0790 C   0  0  2  0  0  0  0  0  0  0  0  0
   28.1450   28.8440   19.7270 C   0  0  2  0  0  0  0  0  0  0  0  0
   27.4910   29.5420   20.8780 C   0  0  0  0  0  0  0  0  0  0  0  0
   29.2510   28.1170   20.0230 O   0  0  0  0  0  0  0  0  0  0  0  0
   27.9820   29.1320   22.2250 C   0  0  1  0  0  0  0  0  0  0  0  0
   28.5580   27.7590   22.3230 C   0  0  1  0  0  0  0  0  0  0  0  0
   28.5490   29.8180   18.8090 O   0  0  0  0  0  0  0  0  0  0  0  0
   29.4690   29.6710   18.4790 H   0  0  0  0  0  0  0  0  0  0  0  0
   27.2070   27.9640   18.9980 C   0  0  0  0  0  0  0  0  0  0  0  0
   27.3080   27.8410   17.7590 O   0  0  0  0  0  0  0  0  0  0  0  0
   26.1870   27.2420   19.6090 O   0  0  0  0  0  0  0  0  0  0  0  0
   25.3260   27.7210   19.9170 H   0  0  0  0  0  0  0  0  0  0  0  0
   28.9140   30.0960   22.6360 O   0  0  0  0  0  0  0  0  0  0  0  0
   29.0310   30.0600   23.6150 H   0  0  0  0  0  0  0  0  0  0  0  0
   27.6570   26.7600   22.8280 N   0  0  0  0  0  0  0  0  0  0  0  0
   27.8320   26.0830   24.0570 C   0  0  0  0  0  0  0  0  0  0  0  0
   26.8030   26.4950   22.2680 H   0  0  0  0  0  0  0  0  0  0  0  0
   26.9200   25.0510   24.5950 C   0  0  0  0  0  0  0  0  0  0  0  0
   28.8520   26.4120   24.7100 O   0  0  0  0  0  0  0  0  0  0  0  0
   30.9700   26.8240   22.7020 O   0  0  0  0  0  0  0  0  0  0  0  0
   31.6680   26.1340   22.8390 H   0  0  0  0  0  0  0  0  0  0  0  0
   32.3160   27.3020   19.6800 O   0  0  0  0  0  0  0  0  0  0  0  0
   32.6840   27.9670   19.0270 H   0  0  0  0  0  0  0  0  0  0  0  0
   31.7990   29.7150   22.3150 N   0  0  0  0  0  0  0  0  0  0  0  0
   32.4130   30.8790   22.8080 C   0  0  0  0  0  0  0  0  0  0  0  0
   30.7420   29.6440   22.4600 H   0  0  0  0  0  0  0  0  0  0  0  0
   33.6370   31.0860   22.7160 O   0  0  0  0  0  0  0  0  0  0  0  0
   31.6200   31.8600   23.4350 O   0  0  0  0  0  0  0  0  0  0  0  0
   31.4260   33.0930   22.7730 C   0  0  0  0  0  0  0  0  0  0  0  0
   30.8020   32.8860   21.4660 C   0  0  0  0  0  0  0  0  0  0  0  0
   31.4190   33.0820   20.2360 C   0  0  0  0  0  0  0  0  0  0  0  0
   29.5580   32.4820   21.2140 N   0  0  0  0  0  0  0  0  0  0  0  0
   30.5240   32.7900   19.2850 N   0  0  0  0  0  0  0  0  0  0  0  0
   29.4180   32.4330   19.9020 N   0  0  0  0  0  0  0  0  0  0  0  0
   30.7010   32.8410   17.8560 C   0  0  1  0  0  0  0  0  0  0  0  0
   29.3260   32.9370   17.1950 C   0  0  0  0  0  0  0  0  0  0  0  0
   31.4500   34.1200   17.5490 C   0  0  0  0  0  0  0  0  0  0  0  0
   29.5180   33.2420   15.7340 C   0  0  1  0  0  0  0  0  0  0  0  0
   31.3920   34.4300   16.0890 C   0  0  2  0  0  0  0  0  0  0  0  0
   30.0660   34.5760   15.5750 N   0  0  0  0  0  0  0  0  0  0  0  0
   30.6310   32.3820   15.1640 C   0  0  0  0  0  0  0  0  0  0  0  0
   31.8850   33.1810   15.3470 C   0  0  0  0  0  0  0  0  0  0  0  0
   29.2900   35.5840   16.2370 C   0  0  0  0  0  0  0  0  0  0  0  0
   29.8670   25.5550   16.9770 C   0  0  0  0  0  0  0  0  0  0  0  0
   28.3450   25.7220   17.0260 C   0  0  0  0  0  0  0  0  0  0  0  0
   27.6010   24.4040   16.8740 C   0  0  0  0  0  0  0  0  0  0  0  0
   26.1490   24.5280   17.2450 C   0  0  0  0  0  0  0  0  0  0  0  0
   25.6410   23.1870   17.7640 C   0  0  0  0  0  0  0  0  0  0  0  0
   24.3310   22.8560   17.1540 N   0  0  0  0  0  0  0  0  0  0  0  0
  1 27  1  0  0  0  0
  2  3  1  0  0  0  0
  2  1  1  1  0  0  0
  3 23  1  1  0  0  0
  4  3  1  1  0  0  0
  4  9  1  0  0  0  0
  5 10  1  6  0  0  0
  5  7  1  0  0  0  0
  5  6  1  0  0  0  0
  6  8  1  0  0  0  0
  7  4  1  0  0  0  0
  8  9  1  0  0  0  0
  8 16  1  6  0  0  0
  9 18  1  6  0  0  0
 11 10  1  0  0  0  0
 12 14  1  0  0  0  0
 12  5  1  0  0  0  0
 13 12  2  0  0  0  0
 14 15  1  0  0  0  0
 16 17  1  0  0  0  0
 18 19  1  0  0  0  0
 19 21  1  0  0  0  0
 19 22  2  0  0  0  0
 20 18  1  0  0  0  0
 23 24  1  0  0  0  0
 25  2  1  0  0  0  0
 26 25  1  0  0  0  0
 27 29  1  0  0  0  0
 27 28  1  0  0  0  0
 28 31  1  0  0  0  0
 30 28  2  0  0  0  0
 32 31  1  0  0  0  0
 33 32  1  0  0  0  0
 34 33  2  0  0  0  0
 35 33  1  0  0  0  0
 36 37  1  0  0  0  0
 36 34  1  0  0  0  0
 37 35  2  0  0  0  0
 38 39  1  6  0  0  0
 38 36  1  0  0  0  0
 40 38  1  0  0  0  0
 41 44  1  1  0  0  0
 41 39  1  0  0  0  0
 42 45  1  6  0  0  0
 42 40  1  0  0  0  0
 43 41  1  0  0  0  0
 43 42  1  0  0  0  0
 43 46  1  0  0  0  0
 44 45  1  0  0  0  0
 47 48  1  0  0  0  0
 49 48  1  0  0  0  0
 49 50  1  0  0  0  0
 50 51  1  0  0  0  0
 52 51  1  0  0  0  0
M  END
>  <REMARK>
 VINA RESULT:    -5.265      2.311      4.471
 INTER + INTRA:         -14.615
 INTER:                  -7.690
 INTRA:                  -6.925
 UNBOUND:                -5.502
 SMILES CC(=O)N[C@@H]1[C@@H](O)C[C@](O)(C(=O)O)O[C@H]1C(O)[C@H](O)CNC(=O)OCc1cn([C@@H]2C[C@H]3CC[C@@H](C2)N3C)nn1
 SMILES IDX 20 1 18 2 16 3 15 4 9 5 8 6 14 7 6 8 5 9 10 10 11 12 12 13
 SMILES IDX 13 14 7 16 4 18 2 19 1 21 3 22 17 23 19 25 21 27 22 28 23 30
 SMILES IDX 24 31 25 32 26 33 27 34 39 35 28 36 38 37 29 38 35 39 30 40
 SMILES IDX 34 41 31 42 36 43 33 44 32 45 37 46
 H PARENT 10 11 13 15 7 17 4 20 17 24 19 26 21 29
 Flexibility Score: inf
  4 active torsions:
  status: ('A' for Active; 'I' for Inactive)
    1  A    between atoms: CA   and  CB  
    2  A    between atoms: CB   and  CG  
    3  A    between atoms: CG   and  CD  
    4  A    between atoms: CD   and  CE  

>  <TORSDO>
F 15

>  <BEGIN_>
RES LYS A 131

$$$$
ligand_87_pose_10_2HRL.pdbqt
 OpenBabel07062320523D

  6  5  0  0  0  0  0  0  0  0999 V2000
   33.1930   34.6630    9.2900 C   0  0  0  0  0  0  0  0  0  0  0  0
   32.0600   35.3600   10.0340 C   0  0  0  0  0  0  0  0  0  0  0  0
   30.7290   34.6690    9.8890 C   0  0  0  0  0  0  0  0  0  0  0  0
   30.3130   34.6070    8.4270 C   0  0  0  0  0  0  0  0  0  0  0  0
   28.8050   34.5020    8.3060 C   0  0  0  0  0  0  0  0  0  0  0  0
   28.1680   35.8470    8.3570 N   0  0  0  0  0  0  0  0  0  0  0  0
  1  2  1  0  0  0  0
  3  2  1  0  0  0  0
  4  3  1  0  0  0  0
  5  6  1  0  0  0  0
  5  4  1  0  0  0  0
M  END
>  <EGIN_R>
ES LYS A 135

>  <REMARK>
  4 active torsions:
  status: ('A' for Active; 'I' for Inactive)
    5  A    between atoms: CA   and  CB  
    6  A    between atoms: CB   and  CG  
    7  A    between atoms: CG   and  CD  
    8  A    between atoms: CD   and  CE  

$$$$
