ligand_22_pose_16_2HRL.pdbqt
 OpenBabel07062320523D

 50 50  0  0  1  0  0  0  0  0999 V2000
   25.7530   29.2300   18.0650 N   0  0  0  0  0  0  0  0  0  0  0  0
   25.4410   30.5780   17.7700 C   0  0  0  0  0  0  0  0  0  0  0  0
   25.3690   31.4500   18.7040 O   0  0  0  0  0  0  0  0  0  0  0  0
   25.8120   28.5320   17.3020 H   0  0  0  0  0  0  0  0  0  0  0  0
   25.9860   28.8760   19.4430 C   0  0  0  0  0  0  0  0  0  0  0  0
   27.4140   28.7080   19.8240 C   0  0  2  0  0  0  0  0  0  0  0  0
   28.0350   29.9550   20.4020 C   0  0  1  0  0  0  0  0  0  0  0  0
   29.2380   29.5290   21.2520 C   0  0  2  0  0  0  0  0  0  0  0  0
   31.4380   28.8480   20.9260 C   0  0  2  0  0  0  0  0  0  0  0  0
   31.2530   27.6920   21.8840 C   0  0  0  0  0  0  0  0  0  0  0  0
   30.2670   29.2790   20.3510 O   0  0  0  0  0  0  0  0  0  0  0  0
   29.8500   27.1660   21.7900 C   0  0  1  0  0  0  0  0  0  0  0  0
   28.8790   28.2980   22.0570 C   0  0  1  0  0  0  0  0  0  0  0  0
   32.2360   28.3610   19.8790 O   0  0  0  0  0  0  0  0  0  0  0  0
   32.9660   27.8250   20.2380 H   0  0  0  0  0  0  0  0  0  0  0  0
   32.1710   29.9540   21.5800 C   0  0  0  0  0  0  0  0  0  0  0  0
   32.8860   29.7270   22.5760 O   0  0  0  0  0  0  0  0  0  0  0  0
   32.0950   31.2600   21.1210 O   0  0  0  0  0  0  0  0  0  0  0  0
   32.9020   31.7610   20.7760 H   0  0  0  0  0  0  0  0  0  0  0  0
   29.5900   26.5170   20.6070 O   0  0  0  0  0  0  0  0  0  0  0  0
   29.9740   26.9420   19.8100 H   0  0  0  0  0  0  0  0  0  0  0  0
   28.9480   28.5760   23.4910 N   0  0  0  0  0  0  0  0  0  0  0  0
   27.7700   28.7030   24.2770 C   0  0  0  0  0  0  0  0  0  0  0  0
   29.8720   28.6850   23.9570 H   0  0  0  0  0  0  0  0  0  0  0  0
   27.8220   28.9860   25.7420 C   0  0  0  0  0  0  0  0  0  0  0  0
   26.6670   28.5610   23.6600 O   0  0  0  0  0  0  0  0  0  0  0  0
   28.3810   30.9100   19.4880 O   0  0  0  0  0  0  0  0  0  0  0  0
   28.0750   31.7930   19.7710 H   0  0  0  0  0  0  0  0  0  0  0  0
   28.0990   28.3730   18.6280 O   0  0  0  0  0  0  0  0  0  0  0  0
   28.3530   29.2230   18.1660 H   0  0  0  0  0  0  0  0  0  0  0  0
   25.1960   31.0480   16.4970 O   0  0  0  0  0  0  0  0  0  0  0  0
   26.1050   30.7860   15.4130 C   0  0  0  0  0  0  0  0  0  0  0  0
   27.4820   31.0280   15.9140 C   0  0  0  0  0  0  0  0  0  0  0  0
   28.1130   32.2610   15.9690 C   0  0  0  0  0  0  0  0  0  0  0  0
   28.3860   30.1570   16.4020 N   0  0  0  0  0  0  0  0  0  0  0  0
   29.3570   32.1090   16.4780 N   0  0  0  0  0  0  0  0  0  0  0  0
   29.4870   30.8190   16.7300 N   0  0  0  0  0  0  0  0  0  0  0  0
   30.3200   33.1690   16.6910 C   0  0  0  0  0  0  0  0  0  0  0  0
   29.6730   34.5180   16.4580 C   0  0  0  0  0  0  0  0  0  0  0  0
   30.8470   33.0930   18.1090 C   0  0  0  0  0  0  0  0  0  0  0  0
   31.4550   33.0610   15.7270 C   0  0  0  0  0  0  0  0  0  0  0  0
   32.3310   33.9620   15.7630 O   0  0  0  0  0  0  0  0  0  0  0  0
   31.5610   32.0210   14.8240 O   0  0  0  0  0  0  0  0  0  0  0  0
   30.9370   31.2290   14.9500 H   0  0  0  0  0  0  0  0  0  0  0  0
   29.8670   25.5550   16.9770 C   0  0  0  0  0  0  0  0  0  0  0  0
   28.3450   25.7220   17.0260 C   0  0  0  0  0  0  0  0  0  0  0  0
   27.6010   24.4030   16.8850 C   0  0  0  0  0  0  0  0  0  0  0  0
   26.1500   24.5280   17.2570 C   0  0  0  0  0  0  0  0  0  0  0  0
   25.9710   24.1830   18.7320 C   0  0  0  0  0  0  0  0  0  0  0  0
   24.5960   24.5060   19.1780 N   0  0  0  0  0  0  0  0  0  0  0  0
  1  5  1  0  0  0  0
  2  1  1  0  0  0  0
  2  3  2  0  0  0  0
  4  1  1  0  0  0  0
  6  5  1  6  0  0  0
  6  7  1  0  0  0  0
  7 27  1  6  0  0  0
  8  7  1  6  0  0  0
  8 13  1  0  0  0  0
  9 14  1  6  0  0  0
  9 16  1  0  0  0  0
  9 10  1  0  0  0  0
 11  9  1  0  0  0  0
 11  8  1  0  0  0  0
 12 20  1  6  0  0  0
 12 10  1  0  0  0  0
 12 13  1  0  0  0  0
 13 22  1  1  0  0  0
 14 15  1  0  0  0  0
 16 17  2  0  0  0  0
 18 16  1  0  0  0  0
 19 18  1  0  0  0  0
 21 20  1  0  0  0  0
 22 24  1  0  0  0  0
 22 23  1  0  0  0  0
 23 25  1  0  0  0  0
 26 23  2  0  0  0  0
 27 28  1  0  0  0  0
 29  6  1  0  0  0  0
 30 29  1  0  0  0  0
 31  2  1  0  0  0  0
 32 33  1  0  0  0  0
 32 31  1  0  0  0  0
 33 34  2  0  0  0  0
 33 35  1  0  0  0  0
 34 36  1  0  0  0  0
 35 37  2  0  0  0  0
 36 38  1  0  0  0  0
 36 37  1  0  0  0  0
 38 40  1  0  0  0  0
 39 38  1  0  0  0  0
 41 42  2  0  0  0  0
 41 38  1  0  0  0  0
 43 44  1  0  0  0  0
 43 41  1  0  0  0  0
 45 46  1  0  0  0  0
 47 46  1  0  0  0  0
 47 48  1  0  0  0  0
 48 49  1  0  0  0  0
 49 50  1  0  0  0  0
M  END
>  <REMARK>
 VINA RESULT:    -4.797      4.851      8.833
 INTER + INTRA:         -14.300
 INTER:                  -7.957
 INTRA:                  -6.343
 UNBOUND:                -5.578
 SMILES CC(=O)N[C@@H]1[C@@H](O)C[C@](O)(C(=O)O)O[C@H]1C(O)[C@H](O)CNC(=O)OCc1cn(C(C)(C)C(=O)O)nn1
 SMILES IDX 21 1 22 2 23 3 20 5 18 6 16 7 15 8 9 9 8 10 14 11 6 12 5 13
 SMILES IDX 10 14 11 16 12 17 13 18 7 20 4 22 2 23 1 25 3 26 17 27 19 29
 SMILES IDX 24 31 25 32 26 33 27 34 36 35 28 36 35 37 29 38 30 39 31 40
 SMILES IDX 32 41 33 42 34 43
 H PARENT 21 4 10 15 13 19 7 21 4 24 17 28 19 30 34 44
 Flexibility Score: inf
  4 active torsions:
  status: ('A' for Active; 'I' for Inactive)
    1  A    between atoms: CA   and  CB  
    2  A    between atoms: CB   and  CG  
    3  A    between atoms: CG   and  CD  
    4  A    between atoms: CD   and  CE  

>  <TORSDO>
F 17

>  <BEGIN_>
RES LYS A 131

$$$$
ligand_22_pose_16_2HRL.pdbqt
 OpenBabel07062320523D

  6  5  0  0  0  0  0  0  0  0999 V2000
   33.1930   34.6630    9.2900 C   0  0  0  0  0  0  0  0  0  0  0  0
   32.0600   35.3600   10.0340 C   0  0  0  0  0  0  0  0  0  0  0  0
   30.7610   35.3800    9.2710 C   0  0  0  0  0  0  0  0  0  0  0  0
   29.8030   34.3310    9.8150 C   0  0  0  0  0  0  0  0  0  0  0  0
   28.5780   34.2170    8.9280 C   0  0  0  0  0  0  0  0  0  0  0  0
   28.7490   35.0020    7.6740 N   0  0  0  0  0  0  0  0  0  0  0  0
  1  2  1  0  0  0  0
  3  4  1  0  0  0  0
  3  2  1  0  0  0  0
  5  4  1  0  0  0  0
  6  5  1  0  0  0  0
M  END
>  <EGIN_R>
ES LYS A 135

>  <REMARK>
  4 active torsions:
  status: ('A' for Active; 'I' for Inactive)
    5  A    between atoms: CA   and  CB  
    6  A    between atoms: CB   and  CG  
    7  A    between atoms: CG   and  CD  
    8  A    between atoms: CD   and  CE  

$$$$
