ligand_22_pose_9_2HRL.pdbqt
 OpenBabel07062320523D

 50 50  0  0  1  0  0  0  0  0999 V2000
   25.5540   28.5810   17.9940 N   0  0  0  0  0  0  0  0  0  0  0  0
   24.9830   29.8630   17.8190 C   0  0  0  0  0  0  0  0  0  0  0  0
   24.7690   30.6240   18.8250 O   0  0  0  0  0  0  0  0  0  0  0  0
   25.7260   27.9720   17.1730 H   0  0  0  0  0  0  0  0  0  0  0  0
   25.8850   28.1660   19.3340 C   0  0  0  0  0  0  0  0  0  0  0  0
   27.3280   28.2470   19.6870 C   0  0  2  0  0  0  0  0  0  0  0  0
   27.7510   29.6050   20.1880 C   0  0  1  0  0  0  0  0  0  0  0  0
   29.1070   29.4470   20.8860 C   0  0  2  0  0  0  0  0  0  0  0  0
   30.4950   27.7250   21.6060 C   0  0  2  0  0  0  0  0  0  0  0  0
   30.6830   28.3990   22.9470 C   0  0  0  0  0  0  0  0  0  0  0  0
   29.3270   28.0770   20.9730 O   0  0  0  0  0  0  0  0  0  0  0  0
   29.4260   29.1170   23.3430 C   0  0  1  0  0  0  0  0  0  0  0  0
   29.0540   30.0990   22.2500 C   0  0  1  0  0  0  0  0  0  0  0  0
   30.4010   26.3500   21.8720 O   0  0  0  0  0  0  0  0  0  0  0  0
   29.5520   26.0040   21.5440 H   0  0  0  0  0  0  0  0  0  0  0  0
   31.6770   27.9410   20.7430 C   0  0  0  0  0  0  0  0  0  0  0  0
   32.3980   28.9460   20.9110 O   0  0  0  0  0  0  0  0  0  0  0  0
   32.0250   27.0540   19.7360 O   0  0  0  0  0  0  0  0  0  0  0  0
   31.3520   26.4380   19.3020 H   0  0  0  0  0  0  0  0  0  0  0  0
   28.3930   28.2700   23.6640 O   0  0  0  0  0  0  0  0  0  0  0  0
   28.2120   27.5700   23.0000 H   0  0  0  0  0  0  0  0  0  0  0  0
   30.0110   31.2010   22.3380 N   0  0  0  0  0  0  0  0  0  0  0  0
   29.6620   32.5170   21.9290 C   0  0  0  0  0  0  0  0  0  0  0  0
   30.9710   31.0310   22.7040 H   0  0  0  0  0  0  0  0  0  0  0  0
   30.6270   33.6530   22.0120 C   0  0  0  0  0  0  0  0  0  0  0  0
   28.4790   32.6720   21.4890 O   0  0  0  0  0  0  0  0  0  0  0  0
   27.7860   30.5900   19.2410 O   0  0  0  0  0  0  0  0  0  0  0  0
   27.4690   31.4380   19.6050 H   0  0  0  0  0  0  0  0  0  0  0  0
   28.0380   27.9640   18.4920 O   0  0  0  0  0  0  0  0  0  0  0  0
   28.7020   28.6960   18.3430 H   0  0  0  0  0  0  0  0  0  0  0  0
   24.6200   30.3810   16.5930 O   0  0  0  0  0  0  0  0  0  0  0  0
   25.4340   30.1790   15.4240 C   0  0  0  0  0  0  0  0  0  0  0  0
   26.8430   30.4600   15.8040 C   0  0  0  0  0  0  0  0  0  0  0  0
   27.4400   31.7100   15.8100 C   0  0  0  0  0  0  0  0  0  0  0  0
   27.8100   29.6150   16.2070 N   0  0  0  0  0  0  0  0  0  0  0  0
   28.7280   31.5930   16.2090 N   0  0  0  0  0  0  0  0  0  0  0  0
   28.9160   30.3070   16.4410 N   0  0  0  0  0  0  0  0  0  0  0  0
   29.6750   32.6810   16.3420 C   0  0  0  0  0  0  0  0  0  0  0  0
   31.0310   32.2610   15.8150 C   0  0  0  0  0  0  0  0  0  0  0  0
   29.1730   33.8810   15.5670 C   0  0  0  0  0  0  0  0  0  0  0  0
   29.8630   33.0520   17.7760 C   0  0  0  0  0  0  0  0  0  0  0  0
   31.0430   33.1220   18.2040 O   0  0  0  0  0  0  0  0  0  0  0  0
   28.7990   33.3120   18.6170 O   0  0  0  0  0  0  0  0  0  0  0  0
   28.2590   32.5170   18.9460 H   0  0  0  0  0  0  0  0  0  0  0  0
   29.8670   25.5550   16.9770 C   0  0  0  0  0  0  0  0  0  0  0  0
   28.3450   25.7220   17.0260 C   0  0  0  0  0  0  0  0  0  0  0  0
   27.6010   24.4010   16.8980 C   0  0  0  0  0  0  0  0  0  0  0  0
   26.5380   24.2460   17.9500 C   0  0  0  0  0  0  0  0  0  0  0  0
   25.1620   24.3790   17.3060 C   0  0  0  0  0  0  0  0  0  0  0  0
   24.4850   23.0620   17.2520 N   0  0  0  0  0  0  0  0  0  0  0  0
  1  5  1  0  0  0  0
  2  1  1  0  0  0  0
  2  3  2  0  0  0  0
  4  1  1  0  0  0  0
  6  5  1  6  0  0  0
  6  7  1  0  0  0  0
  7 27  1  6  0  0  0
  8  7  1  1  0  0  0
  8 11  1  0  0  0  0
  8 13  1  0  0  0  0
  9 16  1  6  0  0  0
  9 14  1  0  0  0  0
  9 10  1  0  0  0  0
 10 12  1  0  0  0  0
 11  9  1  0  0  0  0
 12 20  1  6  0  0  0
 13 22  1  6  0  0  0
 13 12  1  0  0  0  0
 15 14  1  0  0  0  0
 16 17  2  0  0  0  0
 18 16  1  0  0  0  0
 19 18  1  0  0  0  0
 21 20  1  0  0  0  0
 22 24  1  0  0  0  0
 23 25  1  0  0  0  0
 23 22  1  0  0  0  0
 26 23  2  0  0  0  0
 27 28  1  0  0  0  0
 29  6  1  0  0  0  0
 30 29  1  0  0  0  0
 31  2  1  0  0  0  0
 32 33  1  0  0  0  0
 32 31  1  0  0  0  0
 33 34  2  0  0  0  0
 33 35  1  0  0  0  0
 34 36  1  0  0  0  0
 35 37  2  0  0  0  0
 36 38  1  0  0  0  0
 36 37  1  0  0  0  0
 38 41  1  0  0  0  0
 39 38  1  0  0  0  0
 40 38  1  0  0  0  0
 41 42  2  0  0  0  0
 41 43  1  0  0  0  0
 43 44  1  0  0  0  0
 45 46  1  0  0  0  0
 47 46  1  0  0  0  0
 47 48  1  0  0  0  0
 49 48  1  0  0  0  0
 50 49  1  0  0  0  0
M  END
>  <REMARK>
 VINA RESULT:    -4.908      4.885      8.464
 INTER + INTRA:         -14.504
 INTER:                  -7.130
 INTRA:                  -7.374
 UNBOUND:                -5.578
 SMILES CC(=O)N[C@@H]1[C@@H](O)C[C@](O)(C(=O)O)O[C@H]1C(O)[C@H](O)CNC(=O)OCc1cn(C(C)(C)C(=O)O)nn1
 SMILES IDX 21 1 22 2 23 3 20 5 18 6 16 7 15 8 9 9 8 10 14 11 6 12 5 13
 SMILES IDX 10 14 11 16 12 17 13 18 7 20 4 22 2 23 1 25 3 26 17 27 19 29
 SMILES IDX 24 31 25 32 26 33 27 34 36 35 28 36 35 37 29 38 30 39 31 40
 SMILES IDX 32 41 33 42 34 43
 H PARENT 21 4 10 15 13 19 7 21 4 24 17 28 19 30 34 44
 Flexibility Score: inf
  4 active torsions:
  status: ('A' for Active; 'I' for Inactive)
    1  A    between atoms: CA   and  CB  
    2  A    between atoms: CB   and  CG  
    3  A    between atoms: CG   and  CD  
    4  A    between atoms: CD   and  CE  

>  <TORSDO>
F 17

>  <BEGIN_>
RES LYS A 131

$$$$
ligand_22_pose_9_2HRL.pdbqt
 OpenBabel07062320523D

  6  5  0  0  0  0  0  0  0  0999 V2000
   33.1930   34.6630    9.2900 C   0  0  0  0  0  0  0  0  0  0  0  0
   32.0600   35.3600   10.0340 C   0  0  0  0  0  0  0  0  0  0  0  0
   30.7100   34.7320    9.8010 C   0  0  0  0  0  0  0  0  0  0  0  0
   30.4830   34.4830    8.3180 C   0  0  0  0  0  0  0  0  0  0  0  0
   29.0400   34.7620    7.9460 C   0  0  0  0  0  0  0  0  0  0  0  0
   28.9550   35.6220    6.7320 N   0  0  0  0  0  0  0  0  0  0  0  0
  1  2  1  0  0  0  0
  3  2  1  0  0  0  0
  4  3  1  0  0  0  0
  5  4  1  0  0  0  0
  6  5  1  0  0  0  0
M  END
>  <EGIN_R>
ES LYS A 135

>  <REMARK>
  4 active torsions:
  status: ('A' for Active; 'I' for Inactive)
    5  A    between atoms: CA   and  CB  
    6  A    between atoms: CB   and  CG  
    7  A    between atoms: CG   and  CD  
    8  A    between atoms: CD   and  CE  

$$$$
