ligand_43_pose_19_2HRL.pdbqt
 OpenBabel07062320523D

 49 49  0  0  1  0  0  0  0  0999 V2000
   24.4100   34.6770   12.2520 O   0  0  0  0  0  0  0  0  0  0  0  0
   23.4650   35.4840   11.6480 C   0  0  0  0  0  0  0  0  0  0  0  0
   22.4780   34.8390   10.8320 N   0  0  0  0  0  0  0  0  0  0  0  0
   22.5180   33.8060   10.7320 H   0  0  0  0  0  0  0  0  0  0  0  0
   23.4610   36.7470   11.8060 O   0  0  0  0  0  0  0  0  0  0  0  0
   21.4590   35.5740   10.1640 C   0  0  0  0  0  0  0  0  0  0  0  0
   21.6180   35.6060    8.6420 C   0  0  2  0  0  0  0  0  0  0  0  0
   22.1610   36.9740    8.3150 C   0  0  2  0  0  0  0  0  0  0  0  0
   23.5650   36.9670    7.8060 C   0  0  2  0  0  0  0  0  0  0  0  0
   25.6260   36.4210    8.7220 C   0  0  2  0  0  0  0  0  0  0  0  0
   26.1760   37.1640    7.5220 C   0  0  0  0  0  0  0  0  0  0  0  0
   24.3130   36.0480    8.4920 O   0  0  0  0  0  0  0  0  0  0  0  0
   25.5130   38.5230    7.4920 C   0  0  1  0  0  0  0  0  0  0  0  0
   24.0970   38.3930    8.0010 C   0  0  1  0  0  0  0  0  0  0  0  0
   25.7700   37.1690    9.8860 O   0  0  0  0  0  0  0  0  0  0  0  0
   25.0300   36.9790   10.5050 H   0  0  0  0  0  0  0  0  0  0  0  0
   26.4540   35.1990    8.8860 C   0  0  0  0  0  0  0  0  0  0  0  0
   26.8870   34.5440    7.9030 O   0  0  0  0  0  0  0  0  0  0  0  0
   26.8030   34.6990   10.1510 O   0  0  0  0  0  0  0  0  0  0  0  0
   27.3090   33.8180   10.1820 H   0  0  0  0  0  0  0  0  0  0  0  0
   26.1910   39.3720    8.3460 O   0  0  0  0  0  0  0  0  0  0  0  0
   26.8950   39.8560    7.8480 H   0  0  0  0  0  0  0  0  0  0  0  0
   23.1930   39.2960    7.3110 N   0  0  0  0  0  0  0  0  0  0  0  0
   22.9670   40.6400    7.7240 C   0  0  0  0  0  0  0  0  0  0  0  0
   22.6500   38.9940    6.4530 H   0  0  0  0  0  0  0  0  0  0  0  0
   22.0330   41.5590    7.0070 C   0  0  0  0  0  0  0  0  0  0  0  0
   23.5980   41.0320    8.7440 O   0  0  0  0  0  0  0  0  0  0  0  0
   22.0150   37.7390    9.4850 O   0  0  0  0  0  0  0  0  0  0  0  0
   21.6920   37.1900   10.2440 H   0  0  0  0  0  0  0  0  0  0  0  0
   20.4360   35.3030    8.0000 O   0  0  0  0  0  0  0  0  0  0  0  0
   20.5140   35.0900    7.0550 H   0  0  0  0  0  0  0  0  0  0  0  0
   24.9830   35.0490   13.4770 C   0  0  0  0  0  0  0  0  0  0  0  0
   26.4360   35.3140   13.2100 C   0  0  0  0  0  0  0  0  0  0  0  0
   27.4630   34.4950   13.6510 C   0  0  0  0  0  0  0  0  0  0  0  0
   27.0240   36.3100   12.5480 N   0  0  0  0  0  0  0  0  0  0  0  0
   28.6260   35.0180   13.2440 N   0  0  0  0  0  0  0  0  0  0  0  0
   28.3300   36.1170   12.5780 N   0  0  0  0  0  0  0  0  0  0  0  0
   29.9830   34.5340   13.4530 C   0  0  0  0  0  0  0  0  0  0  0  0
   30.3090   34.5440   14.9230 C   0  0  0  0  0  0  0  0  0  0  0  0
   31.6380   33.8860   15.1970 C   0  0  0  0  0  0  0  0  0  0  0  0
   31.5060   32.4030   15.4250 C   0  0  0  0  0  0  0  0  0  0  0  0
   30.3450   32.1240   16.2990 C   0  0  0  0  0  0  0  0  0  0  0  0
   29.6540   31.0070   16.2330 C   0  0  0  0  0  0  0  0  0  0  0  0
   29.8670   25.5550   16.9770 C   0  0  0  0  0  0  0  0  0  0  0  0
   28.3450   25.7220   17.0260 C   0  0  0  0  0  0  0  0  0  0  0  0
   27.8420   26.1610   18.3930 C   0  0  0  0  0  0  0  0  0  0  0  0
   26.5430   25.4980   18.7580 C   0  0  0  0  0  0  0  0  0  0  0  0
   26.5470   24.0580   18.2560 C   0  0  0  0  0  0  0  0  0  0  0  0
   25.6010   23.2310   19.0420 N   0  0  0  0  0  0  0  0  0  0  0  0
  1 32  1  0  0  0  0
  2  5  2  0  0  0  0
  2  1  1  0  0  0  0
  3  2  1  0  0  0  0
  4  3  1  0  0  0  0
  6  3  1  0  0  0  0
  7  6  1  1  0  0  0
  8  7  1  0  0  0  0
  8 28  1  1  0  0  0
  9 14  1  0  0  0  0
  9  8  1  1  0  0  0
  9 12  1  0  0  0  0
 10 17  1  1  0  0  0
 10 15  1  0  0  0  0
 11 10  1  0  0  0  0
 12 10  1  0  0  0  0
 13 11  1  0  0  0  0
 13 14  1  0  0  0  0
 13 21  1  1  0  0  0
 14 23  1  6  0  0  0
 15 16  1  0  0  0  0
 17 19  1  0  0  0  0
 18 17  2  0  0  0  0
 19 20  1  0  0  0  0
 22 21  1  0  0  0  0
 23 24  1  0  0  0  0
 24 27  2  0  0  0  0
 25 23  1  0  0  0  0
 26 24  1  0  0  0  0
 28 29  1  0  0  0  0
 30  7  1  0  0  0  0
 31 30  1  0  0  0  0
 33 32  1  0  0  0  0
 33 34  2  0  0  0  0
 35 37  2  0  0  0  0
 35 33  1  0  0  0  0
 36 38  1  0  0  0  0
 36 34  1  0  0  0  0
 37 36  1  0  0  0  0
 38 39  1  0  0  0  0
 39 40  1  0  0  0  0
 40 41  1  0  0  0  0
 41 42  1  0  0  0  0
 43 42  2  0  0  0  0
 44 45  1  0  0  0  0
 45 46  1  0  0  0  0
 46 47  1  0  0  0  0
 48 47  1  0  0  0  0
 48 49  1  0  0  0  0
M  END
>  <REMARK>
 VINA RESULT:    -4.649      5.118      8.408
 INTER + INTRA:         -13.918
 INTER:                  -8.425
 INTRA:                  -5.493
 UNBOUND:                -4.785
 SMILES C=CCCCCn1cc(COC(=O)NC[C@@H](O)C(O)[C@@H]2O[C@@](O)(C(=O)O)C[C@H](O)[C@H]2NC(C)=O)nn1
 SMILES IDX 11 1 12 2 14 3 13 5 15 6 16 7 18 8 20 9 22 10 27 11 21 12
 SMILES IDX 28 13 30 14 23 15 24 17 25 18 26 19 29 21 31 23 32 24 33 26
 SMILES IDX 34 27 19 28 17 30 10 32 9 33 8 34 35 35 7 36 36 37 6 38 5 39
 SMILES IDX 4 40 3 41 2 42 1 43
 H PARENT 14 4 23 16 26 20 29 22 31 25 19 29 17 31
 Flexibility Score: inf
  4 active torsions:
  status: ('A' for Active; 'I' for Inactive)
    1  A    between atoms: CA   and  CB  
    2  A    between atoms: CB   and  CG  
    3  A    between atoms: CG   and  CD  
    4  A    between atoms: CD   and  CE  

>  <TORSDO>
F 19

>  <BEGIN_>
RES LYS A 131

$$$$
ligand_43_pose_19_2HRL.pdbqt
 OpenBabel07062320523D

  6  5  0  0  0  0  0  0  0  0999 V2000
   33.1930   34.6630    9.2900 C   0  0  0  0  0  0  0  0  0  0  0  0
   32.0600   35.3600   10.0340 C   0  0  0  0  0  0  0  0  0  0  0  0
   30.6960   34.8120    9.7040 C   0  0  0  0  0  0  0  0  0  0  0  0
   30.0990   35.5410    8.5100 C   0  0  0  0  0  0  0  0  0  0  0  0
   30.2570   37.0410    8.6680 C   0  0  0  0  0  0  0  0  0  0  0  0
   29.1620   37.6110    9.5010 N   0  0  0  0  0  0  0  0  0  0  0  0
  1  2  1  0  0  0  0
  3  2  1  0  0  0  0
  4  5  1  0  0  0  0
  4  3  1  0  0  0  0
  5  6  1  0  0  0  0
M  END
>  <EGIN_R>
ES LYS A 135

>  <REMARK>
  4 active torsions:
  status: ('A' for Active; 'I' for Inactive)
    5  A    between atoms: CA   and  CB  
    6  A    between atoms: CB   and  CG  
    7  A    between atoms: CG   and  CD  
    8  A    between atoms: CD   and  CE  

$$$$
