ligand_69_pose_12_2HRL.pdbqt
 OpenBabel07062320523D

 54 51  0  0  1  0  0  0  0  0999 V2000
   31.2000   32.0730   15.1930 N   0  0  0  0  0  0  0  0  0  0  0  0
   31.6540   33.3230   15.7110 C   0  0  0  0  0  0  0  0  0  0  0  0
   31.6020   33.6120   16.9350 O   0  0  0  0  0  0  0  0  0  0  0  0
   31.2550   31.8600   14.1730 H   0  0  0  0  0  0  0  0  0  0  0  0
   30.6630   31.1290   16.1730 C   0  0  0  0  0  0  0  0  0  0  0  0
   29.1750   31.0190   15.8950 C   0  0  2  0  0  0  0  0  0  0  0  0
   28.3340   31.2330   17.1330 C   0  0  2  0  0  0  0  0  0  0  0  0
   29.0890   30.9460   18.3930 C   0  0  2  0  0  0  0  0  0  0  0  0
   29.2020   29.8190   20.3710 C   0  0  2  0  0  0  0  0  0  0  0  0
   30.5700   30.4670   20.3590 C   0  0  0  0  0  0  0  0  0  0  0  0
   28.5570   29.9340   19.1460 O   0  0  0  0  0  0  0  0  0  0  0  0
   30.4860   31.9540   20.0770 C   0  0  1  0  0  0  0  0  0  0  0  0
   29.2370   32.1690   19.2720 C   0  0  1  0  0  0  0  0  0  0  0  0
   28.4240   30.2980   21.4190 O   0  0  0  0  0  0  0  0  0  0  0  0
   27.9310   31.1230   21.1690 H   0  0  0  0  0  0  0  0  0  0  0  0
   29.4230   28.3710   20.6010 C   0  0  0  0  0  0  0  0  0  0  0  0
   28.5360   27.6190   21.0890 O   0  0  0  0  0  0  0  0  0  0  0  0
   30.6390   27.8150   20.2720 O   0  0  0  0  0  0  0  0  0  0  0  0
   30.7550   26.9440   19.7630 H   0  0  0  0  0  0  0  0  0  0  0  0
   30.4910   32.6080   21.2870 O   0  0  0  0  0  0  0  0  0  0  0  0
   30.0450   33.5000   21.1460 H   0  0  0  0  0  0  0  0  0  0  0  0
   29.1720   33.3920   18.5640 N   0  0  0  0  0  0  0  0  0  0  0  0
   28.3840   34.5180   18.9260 C   0  0  0  0  0  0  0  0  0  0  0  0
   29.7450   33.4900   17.6990 H   0  0  0  0  0  0  0  0  0  0  0  0
   28.3840   35.7680   18.1080 C   0  0  0  0  0  0  0  0  0  0  0  0
   27.6880   34.4260   19.9560 O   0  0  0  0  0  0  0  0  0  0  0  0
   27.1160   30.6060   17.0390 O   0  0  0  0  0  0  0  0  0  0  0  0
   27.2660   29.6590   16.8250 H   0  0  0  0  0  0  0  0  0  0  0  0
   28.8810   29.7040   15.4640 O   0  0  0  0  0  0  0  0  0  0  0  0
   29.2340   29.5440   14.5440 H   0  0  0  0  0  0  0  0  0  0  0  0
   32.1720   34.2620   14.8540 O   0  0  0  0  0  0  0  0  0  0  0  0
   31.5490   35.4990   14.5550 C   0  0  0  0  0  0  0  0  0  0  0  0
   30.2270   35.2250   13.9440 C   0  0  0  0  0  0  0  0  0  0  0  0
   29.0030   35.0580   14.5520 C   0  0  0  0  0  0  0  0  0  0  0  0
   30.0170   35.0900   12.6200 N   0  0  0  0  0  0  0  0  0  0  0  0
   28.0840   34.8280   13.5950 N   0  0  0  0  0  0  0  0  0  0  0  0
   28.7440   34.8560   12.4340 N   0  0  0  0  0  0  0  0  0  0  0  0
   26.6540   34.5970   13.8050 C   0  0  2  0  0  0  0  0  0  0  0  0
   26.5150   33.5340   14.8410 C   0  0  0  0  0  0  0  0  0  0  0  0
   25.1500   33.3970   15.4180 *   0  0  0  0  0  0  0  0  0  0  0  0
   25.1590   32.7550   16.6770 O   0  0  0  0  0  0  0  0  0  0  0  0
   25.1090   31.7860   16.5320 H   0  0  0  0  0  0  0  0  0  0  0  0
   26.0520   34.2570   12.4850 C   0  0  0  0  0  0  0  0  0  0  0  0
   24.5530   34.2800   12.4600 C   0  0  1  0  0  0  0  0  0  0  0  0
   23.9290   33.1810   13.2280 C   0  0  0  0  0  0  0  0  0  0  0  0
   24.1760   32.8100   14.4640 *   0  0  0  0  0  0  0  0  0  0  0  0
   24.0310   35.5170   12.8340 O   0  0  0  0  0  0  0  0  0  0  0  0
   23.5120   35.4540   13.6750 H   0  0  0  0  0  0  0  0  0  0  0  0
   29.8670   25.5550   16.9770 C   0  0  0  0  0  0  0  0  0  0  0  0
   28.3450   25.7220   17.0260 C   0  0  0  0  0  0  0  0  0  0  0  0
   27.6020   24.3980   16.9320 C   0  0  0  0  0  0  0  0  0  0  0  0
   26.6250   24.2160   18.0600 C   0  0  0  0  0  0  0  0  0  0  0  0
   25.6240   25.3670   18.0570 C   0  0  0  0  0  0  0  0  0  0  0  0
   24.2370   24.8490   17.9780 N   0  0  0  0  0  0  0  0  0  0  0  0
  1  2  1  0  0  0  0
  1  5  1  0  0  0  0
  2  3  2  0  0  0  0
  4  1  1  0  0  0  0
  6  5  1  1  0  0  0
  6  7  1  0  0  0  0
  7 27  1  6  0  0  0
  8  7  1  6  0  0  0
  8 11  1  0  0  0  0
  8 13  1  0  0  0  0
  9 16  1  1  0  0  0
  9 14  1  0  0  0  0
 10  9  1  0  0  0  0
 11  9  1  0  0  0  0
 12 10  1  0  0  0  0
 12 20  1  1  0  0  0
 13 22  1  6  0  0  0
 13 12  1  0  0  0  0
 15 14  1  0  0  0  0
 16 17  2  0  0  0  0
 18 16  1  0  0  0  0
 19 18  1  0  0  0  0
 21 20  1  0  0  0  0
 22 23  1  0  0  0  0
 23 26  2  0  0  0  0
 24 22  1  0  0  0  0
 25 23  1  0  0  0  0
 28 27  1  0  0  0  0
 29  6  1  0  0  0  0
 30 29  1  0  0  0  0
 31  2  1  0  0  0  0
 32 31  1  0  0  0  0
 33 34  2  0  0  0  0
 33 32  1  0  0  0  0
 35 33  1  0  0  0  0
 36 38  1  0  0  0  0
 36 34  1  0  0  0  0
 37 35  2  0  0  0  0
 37 36  1  0  0  0  0
 38 39  1  1  0  0  0
 42 41  1  0  0  0  0
 43 38  1  0  0  0  0
 44 43  1  0  0  0  0
 44 47  1  0  0  0  0
 44 45  1  1  0  0  0
 47 48  1  0  0  0  0
 49 50  1  0  0  0  0
 51 50  1  0  0  0  0
 51 52  1  0  0  0  0
 53 52  1  0  0  0  0
 54 53  1  0  0  0  0
M  END
>  <REMARK>
 VINA RESULT:    -7.731      2.702      5.755
 INTER + INTRA:         -13.061
 INTER:                  -7.982
 INTRA:                  -5.079
 UNBOUND:                 3.032
 SMILES CC(=O)N[C@@H]1[C@@H](O)C[C@](O)(C(=O)O)O[C@H]1C(O)[C@H](O)CNC(=O)OCc1cn(C2CC(O)C=C[C@@H](O)C2)nn1
 SMILES IDX 21 1 22 2 23 3 20 5 18 6 16 7 15 8 9 9 8 10 14 11 6 12 5 13
 SMILES IDX 10 14 11 16 12 17 13 18 7 20 4 22 2 23 1 25 3 26 17 27 19 29
 SMILES IDX 24 31 25 32 26 33 27 34 39 35 28 36 38 37 29 38 30 39 31 40
 SMILES IDX 32 42 37 44 35 45 34 46 33 47 36 49
 H PARENT 21 4 10 15 13 19 7 21 4 24 17 28 19 30 32 43 36 50
 Flexibility Score: 90.00
  4 active torsions:
  status: ('A' for Active; 'I' for Inactive)
    1  A    between atoms: CA   and  CB  
    2  A    between atoms: CB   and  CG  
    3  A    between atoms: CG   and  CD  
    4  A    between atoms: CD   and  CE  

>  <TORSDO>
F 17

>  <BEGIN_>
RES LYS A 131

$$$$
ligand_69_pose_12_2HRL.pdbqt
 OpenBabel07062320523D

  6  5  0  0  0  0  0  0  0  0999 V2000
   33.1930   34.6630    9.2900 C   0  0  0  0  0  0  0  0  0  0  0  0
   32.0600   35.3600   10.0340 C   0  0  0  0  0  0  0  0  0  0  0  0
   30.8180   35.5480    9.2010 C   0  0  0  0  0  0  0  0  0  0  0  0
   30.0700   34.2330    9.0490 C   0  0  0  0  0  0  0  0  0  0  0  0
   28.6260   34.4830    8.6580 C   0  0  0  0  0  0  0  0  0  0  0  0
   28.5410   35.2660    7.3940 N   0  0  0  0  0  0  0  0  0  0  0  0
  1  2  1  0  0  0  0
  3  2  1  0  0  0  0
  4  3  1  0  0  0  0
  5  4  1  0  0  0  0
  6  5  1  0  0  0  0
M  END
>  <EGIN_R>
ES LYS A 135

>  <REMARK>
  4 active torsions:
  status: ('A' for Active; 'I' for Inactive)
    5  A    between atoms: CA   and  CB  
    6  A    between atoms: CB   and  CG  
    7  A    between atoms: CG   and  CD  
    8  A    between atoms: CD   and  CE  

$$$$
