ligand_12_pose_9_2HRL.pdbqt
 OpenBabel07062320523D

 52 53  0  0  1  0  0  0  0  0999 V2000
   31.3430   35.3880   14.8930 N   0  0  0  0  0  0  0  0  0  0  0  0
   30.9660   35.6950   13.5520 C   0  0  0  0  0  0  0  0  0  0  0  0
   31.2380   34.9060   12.5970 O   0  0  0  0  0  0  0  0  0  0  0  0
   31.1040   36.0540   15.6450 H   0  0  0  0  0  0  0  0  0  0  0  0
   32.0460   34.1400   15.1130 C   0  0  0  0  0  0  0  0  0  0  0  0
   31.1220   33.0410   15.5640 C   0  0  2  0  0  0  0  0  0  0  0  0
   31.1360   32.9410   17.0740 C   0  0  2  0  0  0  0  0  0  0  0  0
   29.8280   32.4890   17.6360 C   0  0  2  0  0  0  0  0  0  0  0  0
   28.6010   30.5440   18.0070 C   0  0  2  0  0  0  0  0  0  0  0  0
   27.3930   31.4690   18.0450 C   0  0  0  0  0  0  0  0  0  0  0  0
   29.7070   31.1240   17.3970 O   0  0  0  0  0  0  0  0  0  0  0  0
   27.4800   32.3500   16.8180 C   0  0  1  0  0  0  0  0  0  0  0  0
   28.6690   33.2670   17.0530 C   0  0  1  0  0  0  0  0  0  0  0  0
   28.2270   29.4770   17.1910 O   0  0  0  0  0  0  0  0  0  0  0  0
   28.9230   29.2580   16.5220 H   0  0  0  0  0  0  0  0  0  0  0  0
   28.9010   30.0290   19.3490 C   0  0  0  0  0  0  0  0  0  0  0  0
   28.8570   30.8080   20.3330 O   0  0  0  0  0  0  0  0  0  0  0  0
   29.2380   28.7060   19.6050 O   0  0  0  0  0  0  0  0  0  0  0  0
   29.7970   28.2170   18.9130 H   0  0  0  0  0  0  0  0  0  0  0  0
   27.6640   31.6000   15.6600 O   0  0  0  0  0  0  0  0  0  0  0  0
   28.6080   31.7360   15.3420 H   0  0  0  0  0  0  0  0  0  0  0  0
   28.2450   34.2700   18.0070 N   0  0  0  0  0  0  0  0  0  0  0  0
   28.5820   35.6350   17.8030 C   0  0  0  0  0  0  0  0  0  0  0  0
   27.6850   34.0490   18.8670 H   0  0  0  0  0  0  0  0  0  0  0  0
   28.1710   36.7060   18.7510 C   0  0  0  0  0  0  0  0  0  0  0  0
   29.2510   35.9870   16.7970 O   0  0  0  0  0  0  0  0  0  0  0  0
   31.6270   34.1040   17.6120 O   0  0  0  0  0  0  0  0  0  0  0  0
   31.5850   34.8050   16.9010 H   0  0  0  0  0  0  0  0  0  0  0  0
   31.5170   31.8490   14.9690 O   0  0  0  0  0  0  0  0  0  0  0  0
   30.8680   31.5950   14.2600 H   0  0  0  0  0  0  0  0  0  0  0  0
   30.2890   36.8610   13.2220 O   0  0  0  0  0  0  0  0  0  0  0  0
   29.2890   36.9360   12.2260 C   0  0  0  0  0  0  0  0  0  0  0  0
   28.0410   36.2420   12.6130 C   0  0  0  0  0  0  0  0  0  0  0  0
   27.1730   35.4700   11.8720 C   0  0  0  0  0  0  0  0  0  0  0  0
   27.5180   36.2620   13.8520 N   0  0  0  0  0  0  0  0  0  0  0  0
   26.1590   35.0460   12.6670 N   0  0  0  0  0  0  0  0  0  0  0  0
   26.4110   35.5510   13.8600 N   0  0  0  0  0  0  0  0  0  0  0  0
   25.0180   34.2010   12.2850 C   0  0  0  0  0  0  0  0  0  0  0  0
   24.8990   33.1520   13.1910 O   0  0  0  0  0  0  0  0  0  0  0  0
   23.5900   32.8540   13.4880 C   0  0  0  0  0  0  0  0  0  0  0  0
   23.1610   31.5010   13.0780 C   0  0  0  0  0  0  0  0  0  0  0  0
   21.8450   31.2760   12.7300 C   0  0  0  0  0  0  0  0  0  0  0  0
   24.0500   30.4570   13.0300 C   0  0  0  0  0  0  0  0  0  0  0  0
   21.4180   30.0060   12.3330 C   0  0  0  0  0  0  0  0  0  0  0  0
   23.6210   29.1990   12.6350 C   0  0  0  0  0  0  0  0  0  0  0  0
   22.3270   28.9670   12.2910 C   0  0  0  0  0  0  0  0  0  0  0  0
   29.8670   25.5550   16.9770 C   0  0  0  0  0  0  0  0  0  0  0  0
   28.3450   25.7220   17.0260 C   0  0  0  0  0  0  0  0  0  0  0  0
   27.6010   24.4010   16.8990 C   0  0  0  0  0  0  0  0  0  0  0  0
   26.2270   24.4650   17.5050 C   0  0  0  0  0  0  0  0  0  0  0  0
   26.1150   25.7060   18.3850 C   0  0  0  0  0  0  0  0  0  0  0  0
   24.9280   26.5070   18.0040 N   0  0  0  0  0  0  0  0  0  0  0  0
  1  5  1  0  0  0  0
  1  4  1  0  0  0  0
  2  1  1  0  0  0  0
  3  2  2  0  0  0  0
  6  5  1  1  0  0  0
  6  7  1  0  0  0  0
  7 27  1  1  0  0  0
  8  7  1  6  0  0  0
  9 14  1  6  0  0  0
  9 10  1  0  0  0  0
  9 16  1  0  0  0  0
 11  8  1  0  0  0  0
 11  9  1  0  0  0  0
 12 20  1  6  0  0  0
 12 13  1  0  0  0  0
 12 10  1  0  0  0  0
 13  8  1  0  0  0  0
 13 22  1  1  0  0  0
 15 14  1  0  0  0  0
 16 18  1  0  0  0  0
 16 17  2  0  0  0  0
 19 18  1  0  0  0  0
 21 20  1  0  0  0  0
 22 24  1  0  0  0  0
 23 22  1  0  0  0  0
 23 25  1  0  0  0  0
 26 23  2  0  0  0  0
 28 27  1  0  0  0  0
 29  6  1  0  0  0  0
 30 29  1  0  0  0  0
 31  2  1  0  0  0  0
 32 33  1  0  0  0  0
 32 31  1  0  0  0  0
 33 35  1  0  0  0  0
 34 33  2  0  0  0  0
 34 36  1  0  0  0  0
 35 37  2  0  0  0  0
 36 37  1  0  0  0  0
 38 36  1  0  0  0  0
 38 39  1  0  0  0  0
 39 40  1  0  0  0  0
 41 40  1  0  0  0  0
 42 41  2  0  0  0  0
 43 41  1  0  0  0  0
 44 42  1  0  0  0  0
 45 43  2  0  0  0  0
 46 44  2  0  0  0  0
 46 45  1  0  0  0  0
 47 48  1  0  0  0  0
 49 48  1  0  0  0  0
 49 50  1  0  0  0  0
 50 51  1  0  0  0  0
 52 51  1  0  0  0  0
M  END
>  <REMARK>
 VINA RESULT:    -6.141      4.605      8.953
 INTER + INTRA:         -15.479
 INTER:                  -9.645
 INTRA:                  -5.834
 UNBOUND:                -3.774
 SMILES CC(=O)N[C@@H]1[C@@H](O)C[C@](O)(C(=O)O)O[C@H]1C(O)[C@H](O)CNC(=O)OCc1cn(COCc2ccccc2)nn1
 SMILES IDX 21 1 22 2 23 3 20 5 18 6 16 7 15 8 9 9 8 10 14 11 6 12 5 13
 SMILES IDX 10 14 11 16 12 17 13 18 7 20 4 22 2 23 1 25 3 26 17 27 19 29
 SMILES IDX 24 31 25 32 26 33 27 34 39 35 28 36 38 37 29 38 30 39 31 40
 SMILES IDX 32 41 33 42 37 43 34 44 36 45 35 46
 H PARENT 21 4 10 15 13 19 7 21 4 24 17 28 19 30
 Flexibility Score: inf
  4 active torsions:
  status: ('A' for Active; 'I' for Inactive)
    1  A    between atoms: CA   and  CB  
    2  A    between atoms: CB   and  CG  
    3  A    between atoms: CG   and  CD  
    4  A    between atoms: CD   and  CE  

>  <TORSDO>
F 18

>  <BEGIN_>
RES LYS A 131

$$$$
ligand_12_pose_9_2HRL.pdbqt
 OpenBabel07062320523D

  6  5  0  0  0  0  0  0  0  0999 V2000
   33.1930   34.6630    9.2900 C   0  0  0  0  0  0  0  0  0  0  0  0
   32.0600   35.3600   10.0340 C   0  0  0  0  0  0  0  0  0  0  0  0
   30.8880   35.7120    9.1540 C   0  0  0  0  0  0  0  0  0  0  0  0
   30.2040   34.4540    8.6420 C   0  0  0  0  0  0  0  0  0  0  0  0
   28.9720   34.8090    7.8330 C   0  0  0  0  0  0  0  0  0  0  0  0
   27.7300   34.3570    8.5200 N   0  0  0  0  0  0  0  0  0  0  0  0
  1  2  1  0  0  0  0
  3  2  1  0  0  0  0
  4  3  1  0  0  0  0
  5  6  1  0  0  0  0
  5  4  1  0  0  0  0
M  END
>  <EGIN_R>
ES LYS A 135

>  <REMARK>
  4 active torsions:
  status: ('A' for Active; 'I' for Inactive)
    5  A    between atoms: CA   and  CB  
    6  A    between atoms: CB   and  CG  
    7  A    between atoms: CG   and  CD  
    8  A    between atoms: CD   and  CE  

$$$$
