ligand_35_pose_10_2HRL.pdbqt
 OpenBabel07062320523D

 49 49  0  0  1  0  0  0  0  0999 V2000
   28.1270   27.3930   19.0420 N   0  0  0  0  0  0  0  0  0  0  0  0
   27.0750   28.0970   18.4110 C   0  0  0  0  0  0  0  0  0  0  0  0
   26.0990   28.5480   19.0610 O   0  0  0  0  0  0  0  0  0  0  0  0
   28.9100   27.0410   18.4610 H   0  0  0  0  0  0  0  0  0  0  0  0
   28.1420   27.1550   20.4560 C   0  0  0  0  0  0  0  0  0  0  0  0
   29.4200   27.6630   21.1330 C   0  0  2  0  0  0  0  0  0  0  0  0
   29.2720   29.1350   21.3080 C   0  0  2  0  0  0  0  0  0  0  0  0
   29.9550   29.7380   22.4880 C   0  0  2  0  0  0  0  0  0  0  0  0
   30.6060   31.7660   21.5290 C   0  0  2  0  0  0  0  0  0  0  0  0
   31.7730   31.0380   20.9920 C   0  0  0  0  0  0  0  0  0  0  0  0
   29.7830   31.1120   22.4080 O   0  0  0  0  0  0  0  0  0  0  0  0
   32.3590   29.9640   21.8370 C   0  0  1  0  0  0  0  0  0  0  0  0
   31.3530   29.3320   22.7560 C   0  0  1  0  0  0  0  0  0  0  0  0
   29.7850   32.0740   20.4120 O   0  0  0  0  0  0  0  0  0  0  0  0
   29.9000   33.0300   20.2270 H   0  0  0  0  0  0  0  0  0  0  0  0
   31.0510   33.0740   22.0820 C   0  0  0  0  0  0  0  0  0  0  0  0
   31.0040   34.1360   21.4040 O   0  0  0  0  0  0  0  0  0  0  0  0
   31.5360   33.1700   23.3750 O   0  0  0  0  0  0  0  0  0  0  0  0
   32.1450   32.4770   23.7980 H   0  0  0  0  0  0  0  0  0  0  0  0
   32.9330   29.0150   20.9700 O   0  0  0  0  0  0  0  0  0  0  0  0
   33.8750   28.9230   21.2530 H   0  0  0  0  0  0  0  0  0  0  0  0
   31.6510   29.7640   24.1370 N   0  0  0  0  0  0  0  0  0  0  0  0
   32.3790   28.9360   25.0210 C   0  0  0  0  0  0  0  0  0  0  0  0
   31.3400   30.6810   24.5060 H   0  0  0  0  0  0  0  0  0  0  0  0
   32.7010   29.3250   26.4070 C   0  0  0  0  0  0  0  0  0  0  0  0
   32.7900   27.7950   24.6260 O   0  0  0  0  0  0  0  0  0  0  0  0
   27.8760   29.3370   21.5580 O   0  0  0  0  0  0  0  0  0  0  0  0
   27.4770   28.4380   21.4450 H   0  0  0  0  0  0  0  0  0  0  0  0
   30.4460   27.3470   20.2520 O   0  0  0  0  0  0  0  0  0  0  0  0
   30.3230   26.4000   19.9870 H   0  0  0  0  0  0  0  0  0  0  0  0
   27.0860   28.3190   17.0210 O   0  0  0  0  0  0  0  0  0  0  0  0
   27.0870   29.6350   16.5000 C   0  0  0  0  0  0  0  0  0  0  0  0
   28.3540   30.3390   16.8200 C   0  0  0  0  0  0  0  0  0  0  0  0
   29.0720   31.1780   15.9640 C   0  0  0  0  0  0  0  0  0  0  0  0
   29.0710   30.3290   17.9650 N   0  0  0  0  0  0  0  0  0  0  0  0
   30.1550   31.6250   16.6050 N   0  0  0  0  0  0  0  0  0  0  0  0
   30.1490   31.1100   17.8080 N   0  0  0  0  0  0  0  0  0  0  0  0
   31.1810   32.5300   16.0740 C   0  0  1  0  0  0  0  0  0  0  0  0
   30.7630   33.0310   14.7020 C   0  0  0  0  0  0  0  0  0  0  0  0
   31.4380   33.6530   16.9740 C   0  0  0  0  0  0  0  0  0  0  0  0
   31.7450   34.7720   16.5050 O   0  0  0  0  0  0  0  0  0  0  0  0
   31.3650   33.5650   18.3630 O   0  0  0  0  0  0  0  0  0  0  0  0
   31.8140   32.8070   18.8640 H   0  0  0  0  0  0  0  0  0  0  0  0
   29.8670   25.5550   16.9770 C   0  0  0  0  0  0  0  0  0  0  0  0
   28.3450   25.7220   17.0260 C   0  0  0  0  0  0  0  0  0  0  0  0
   27.6020   24.3990   16.9200 C   0  0  0  0  0  0  0  0  0  0  0  0
   26.1590   24.5260   17.3240 C   0  0  0  0  0  0  0  0  0  0  0  0
   25.9570   23.8920   18.6960 C   0  0  0  0  0  0  0  0  0  0  0  0
   25.4670   24.9000   19.6670 N   0  0  0  0  0  0  0  0  0  0  0  0
  1  5  1  0  0  0  0
  2  1  1  0  0  0  0
  2  3  2  0  0  0  0
  4  1  1  0  0  0  0
  6  5  1  6  0  0  0
  6  7  1  0  0  0  0
  7 27  1  1  0  0  0
  8  7  1  6  0  0  0
  8 13  1  0  0  0  0
  9 14  1  6  0  0  0
  9 16  1  0  0  0  0
  9 11  1  0  0  0  0
 10  9  1  0  0  0  0
 10 12  1  0  0  0  0
 11  8  1  0  0  0  0
 12 20  1  6  0  0  0
 12 13  1  0  0  0  0
 13 22  1  1  0  0  0
 15 14  1  0  0  0  0
 16 18  1  0  0  0  0
 17 16  2  0  0  0  0
 18 19  1  0  0  0  0
 20 21  1  0  0  0  0
 22 24  1  0  0  0  0
 22 23  1  0  0  0  0
 23 25  1  0  0  0  0
 26 23  2  0  0  0  0
 28 27  1  0  0  0  0
 29  6  1  0  0  0  0
 30 29  1  0  0  0  0
 31  2  1  0  0  0  0
 32 33  1  0  0  0  0
 32 31  1  0  0  0  0
 33 35  1  0  0  0  0
 34 36  1  0  0  0  0
 34 33  2  0  0  0  0
 36 37  1  0  0  0  0
 37 35  2  0  0  0  0
 38 39  1  6  0  0  0
 38 36  1  0  0  0  0
 38 40  1  0  0  0  0
 40 42  1  0  0  0  0
 41 40  2  0  0  0  0
 42 43  1  0  0  0  0
 44 45  1  0  0  0  0
 46 45  1  0  0  0  0
 46 47  1  0  0  0  0
 47 48  1  0  0  0  0
 48 49  1  0  0  0  0
M  END
>  <REMARK>
 VINA RESULT:    -4.992      3.168      6.404
 INTER + INTRA:         -13.802
 INTER:                  -7.230
 INTRA:                  -6.572
 UNBOUND:                -4.724
 SMILES CC(=O)N[C@@H]1[C@@H](O)C[C@](O)(C(=O)O)O[C@H]1C(O)[C@H](O)CNC(=O)OCc1cn([C@@H](C)C(=O)O)nn1
 SMILES IDX 21 1 22 2 23 3 20 5 18 6 16 7 15 8 9 9 8 10 14 11 6 12 5 13
 SMILES IDX 10 14 11 16 12 17 13 18 7 20 4 22 2 23 1 25 3 26 17 27 19 29
 SMILES IDX 24 31 25 32 26 33 27 34 35 35 28 36 34 37 29 38 30 39 31 40
 SMILES IDX 32 41 33 42
 H PARENT 21 4 10 15 13 19 7 21 4 24 17 28 19 30 33 43
 Flexibility Score: inf
  4 active torsions:
  status: ('A' for Active; 'I' for Inactive)
    1  A    between atoms: CA   and  CB  
    2  A    between atoms: CB   and  CG  
    3  A    between atoms: CG   and  CD  
    4  A    between atoms: CD   and  CE  

>  <TORSDO>
F 17

>  <BEGIN_>
RES LYS A 131

$$$$
ligand_35_pose_10_2HRL.pdbqt
 OpenBabel07062320523D

  6  5  0  0  0  0  0  0  0  0999 V2000
   33.1930   34.6630    9.2900 C   0  0  0  0  0  0  0  0  0  0  0  0
   32.0600   35.3600   10.0340 C   0  0  0  0  0  0  0  0  0  0  0  0
   30.6950   34.8170    9.6990 C   0  0  0  0  0  0  0  0  0  0  0  0
   30.5980   34.4860    8.2170 C   0  0  0  0  0  0  0  0  0  0  0  0
   29.3460   35.0960    7.6160 C   0  0  0  0  0  0  0  0  0  0  0  0
   29.0820   36.4470    8.1830 N   0  0  0  0  0  0  0  0  0  0  0  0
  1  2  1  0  0  0  0
  3  2  1  0  0  0  0
  4  3  1  0  0  0  0
  5  6  1  0  0  0  0
  5  4  1  0  0  0  0
M  END
>  <EGIN_R>
ES LYS A 135

>  <REMARK>
  4 active torsions:
  status: ('A' for Active; 'I' for Inactive)
    5  A    between atoms: CA   and  CB  
    6  A    between atoms: CB   and  CG  
    7  A    between atoms: CG   and  CD  
    8  A    between atoms: CD   and  CE  

$$$$
