ligand_40_pose_18_2HRL.pdbqt
 OpenBabel07062320523D

 50 51  0  0  1  0  0  0  0  0999 V2000
   33.3920   44.1550    6.8490 C   0  0  0  0  0  0  0  0  0  0  0  0
   34.0410   43.0840    7.6230 C   0  0  2  0  0  0  0  0  0  0  0  0
   34.8190   42.0260    6.9090 C   0  0  2  0  0  0  0  0  0  0  0  0
   34.2480   40.6440    6.9200 C   0  0  2  0  0  0  0  0  0  0  0  0
   35.6050   39.5610    5.3470 C   0  0  2  0  0  0  0  0  0  0  0  0
   34.4290   39.1670    4.4710 C   0  0  0  0  0  0  0  0  0  0  0  0
   35.2870   39.7390    6.6560 O   0  0  0  0  0  0  0  0  0  0  0  0
   33.2840   40.1370    4.7160 C   0  0  1  0  0  0  0  0  0  0  0  0
   33.0160   40.3370    6.1720 C   0  0  1  0  0  0  0  0  0  0  0  0
   36.2130   40.6330    4.7380 O   0  0  0  0  0  0  0  0  0  0  0  0
   37.0090   40.4000    4.1930 H   0  0  0  0  0  0  0  0  0  0  0  0
   36.5460   38.3980    5.2830 C   0  0  0  0  0  0  0  0  0  0  0  0
   37.7430   38.5250    4.8890 O   0  0  0  0  0  0  0  0  0  0  0  0
   36.1160   37.1420    5.6590 O   0  0  0  0  0  0  0  0  0  0  0  0
   35.7500   36.5060    4.9470 H   0  0  0  0  0  0  0  0  0  0  0  0
   33.7450   41.3490    4.1990 O   0  0  0  0  0  0  0  0  0  0  0  0
   33.0100   41.8810    3.8000 H   0  0  0  0  0  0  0  0  0  0  0  0
   32.4120   39.1870    6.8180 N   0  0  0  0  0  0  0  0  0  0  0  0
   31.4740   39.2870    7.8590 C   0  0  0  0  0  0  0  0  0  0  0  0
   32.7190   38.2600    6.4570 H   0  0  0  0  0  0  0  0  0  0  0  0
   30.8420   38.1380    8.5340 C   0  0  0  0  0  0  0  0  0  0  0  0
   31.1740   40.4420    8.2160 O   0  0  0  0  0  0  0  0  0  0  0  0
   35.9910   41.8210    7.7760 O   0  0  0  0  0  0  0  0  0  0  0  0
   35.6460   41.8070    8.7080 H   0  0  0  0  0  0  0  0  0  0  0  0
   33.2270   42.5960    8.6340 O   0  0  0  0  0  0  0  0  0  0  0  0
   32.2820   42.9290    8.5420 H   0  0  0  0  0  0  0  0  0  0  0  0
   32.5210   43.6930    5.7660 N   0  0  0  0  0  0  0  0  0  0  0  0
   31.1580   43.3900    5.9840 C   0  0  0  0  0  0  0  0  0  0  0  0
   32.8730   43.5580    4.7820 H   0  0  0  0  0  0  0  0  0  0  0  0
   30.6740   43.5120    7.1140 O   0  0  0  0  0  0  0  0  0  0  0  0
   30.3100   42.9490    4.9670 O   0  0  0  0  0  0  0  0  0  0  0  0
   28.9340   42.8020    5.2310 C   0  0  0  0  0  0  0  0  0  0  0  0
   28.4530   41.4300    5.0380 C   0  0  0  0  0  0  0  0  0  0  0  0
   28.3980   40.4890    6.0450 C   0  0  0  0  0  0  0  0  0  0  0  0
   27.9880   40.7940    3.9440 N   0  0  0  0  0  0  0  0  0  0  0  0
   27.9140   39.3270    5.5600 N   0  0  0  0  0  0  0  0  0  0  0  0
   27.6770   39.5490    4.2850 N   0  0  0  0  0  0  0  0  0  0  0  0
   27.6880   38.0920    6.2370 C   0  0  0  0  0  0  0  0  0  0  0  0
   28.2980   36.9280    5.8160 C   0  0  0  0  0  0  0  0  0  0  0  0
   26.8560   37.9990    7.3340 C   0  0  0  0  0  0  0  0  0  0  0  0
   28.0880   35.7250    6.4620 C   0  0  0  0  0  0  0  0  0  0  0  0
   26.6420   36.8010    7.9830 C   0  0  0  0  0  0  0  0  0  0  0  0
   27.2550   35.6420    7.5580 C   0  0  0  0  0  0  0  0  0  0  0  0
   26.9970   34.3710    8.2840 C   0  0  0  0  0  0  0  0  0  0  0  0
   29.8670   25.5550   16.9770 C   0  0  0  0  0  0  0  0  0  0  0  0
   28.3450   25.7220   17.0260 C   0  0  0  0  0  0  0  0  0  0  0  0
   27.6010   24.4020   16.8960 C   0  0  0  0  0  0  0  0  0  0  0  0
   26.6840   24.1510   18.0610 C   0  0  0  0  0  0  0  0  0  0  0  0
   25.3900   24.9350   17.8680 C   0  0  0  0  0  0  0  0  0  0  0  0
   24.5320   24.2770   16.8540 N   0  0  0  0  0  0  0  0  0  0  0  0
  2  1  1  6  0  0  0
  2 25  1  0  0  0  0
  3  2  1  0  0  0  0
  3 23  1  1  0  0  0
  4  3  1  6  0  0  0
  5 10  1  6  0  0  0
  5  7  1  0  0  0  0
  6  8  1  0  0  0  0
  6  5  1  0  0  0  0
  7  4  1  0  0  0  0
  8 16  1  1  0  0  0
  8  9  1  0  0  0  0
  9 18  1  1  0  0  0
  9  4  1  0  0  0  0
 11 10  1  0  0  0  0
 12  5  1  0  0  0  0
 12 14  1  0  0  0  0
 13 12  2  0  0  0  0
 15 14  1  0  0  0  0
 17 16  1  0  0  0  0
 18 19  1  0  0  0  0
 19 22  2  0  0  0  0
 19 21  1  0  0  0  0
 20 18  1  0  0  0  0
 23 24  1  0  0  0  0
 26 25  1  0  0  0  0
 27 28  1  0  0  0  0
 27  1  1  0  0  0  0
 28 30  2  0  0  0  0
 29 27  1  0  0  0  0
 31 32  1  0  0  0  0
 31 28  1  0  0  0  0
 33 32  1  0  0  0  0
 33 34  2  0  0  0  0
 35 37  2  0  0  0  0
 35 33  1  0  0  0  0
 36 34  1  0  0  0  0
 36 38  1  0  0  0  0
 37 36  1  0  0  0  0
 38 40  1  0  0  0  0
 39 38  2  0  0  0  0
 39 41  1  0  0  0  0
 40 42  2  0  0  0  0
 41 43  2  0  0  0  0
 43 42  1  0  0  0  0
 43 44  1  0  0  0  0
 45 46  1  0  0  0  0
 47 46  1  0  0  0  0
 47 48  1  0  0  0  0
 49 48  1  0  0  0  0
 50 49  1  0  0  0  0
M  END
>  <REMARK>
 VINA RESULT:    -5.018      7.778     12.599
 INTER + INTRA:         -13.697
 INTER:                  -8.685
 INTRA:                  -5.012
 UNBOUND:                -5.012
 SMILES CC(=O)N[C@@H]1[C@@H](O)C[C@](O)(C(=O)O)O[C@H]1C(O)[C@H](O)CNC(=O)OCc1cn(-c2ccc(C)cc2)nn1
 SMILES IDX 20 1 18 2 16 3 15 4 9 5 8 6 14 7 6 8 5 9 10 10 11 12 12 13
 SMILES IDX 13 14 7 16 4 18 2 19 1 21 3 22 17 23 19 25 21 27 22 28 23 30
 SMILES IDX 24 31 25 32 26 33 27 34 37 35 28 36 36 37 29 38 30 39 35 40
 SMILES IDX 31 41 34 42 32 43 33 44
 H PARENT 10 11 13 15 7 17 4 20 17 24 19 26 21 29
 Flexibility Score: inf
  4 active torsions:
  status: ('A' for Active; 'I' for Inactive)
    1  A    between atoms: CA   and  CB  
    2  A    between atoms: CB   and  CG  
    3  A    between atoms: CG   and  CD  
    4  A    between atoms: CD   and  CE  

>  <TORSDO>
F 15

>  <BEGIN_>
RES LYS A 131

$$$$
ligand_40_pose_18_2HRL.pdbqt
 OpenBabel07062320523D

  6  5  0  0  0  0  0  0  0  0999 V2000
   33.1930   34.6630    9.2900 C   0  0  0  0  0  0  0  0  0  0  0  0
   32.0600   35.3600   10.0340 C   0  0  0  0  0  0  0  0  0  0  0  0
   30.7660   34.5870   10.0220 C   0  0  0  0  0  0  0  0  0  0  0  0
   29.6190   35.4550   10.5160 C   0  0  0  0  0  0  0  0  0  0  0  0
   28.9830   34.8450   11.7500 C   0  0  0  0  0  0  0  0  0  0  0  0
   30.0140   34.4820   12.7610 N   0  0  0  0  0  0  0  0  0  0  0  0
  1  2  1  0  0  0  0
  3  2  1  0  0  0  0
  3  4  1  0  0  0  0
  4  5  1  0  0  0  0
  5  6  1  0  0  0  0
M  END
>  <EGIN_R>
ES LYS A 135

>  <REMARK>
  4 active torsions:
  status: ('A' for Active; 'I' for Inactive)
    5  A    between atoms: CA   and  CB  
    6  A    between atoms: CB   and  CG  
    7  A    between atoms: CG   and  CD  
    8  A    between atoms: CD   and  CE  

$$$$
