ligand_55_pose_9_2HRL.pdbqt
 OpenBabel07062320523D

 51 51  0  0  1  0  0  0  0  0999 V2000
   24.0290   37.1470   11.1830 N   0  0  0  0  0  0  0  0  0  0  0  0
   24.1530   35.7470   11.2930 C   0  0  0  0  0  0  0  0  0  0  0  0
   23.6000   35.0770   12.1810 O   0  0  0  0  0  0  0  0  0  0  0  0
   24.5420   37.6090   10.3740 H   0  0  0  0  0  0  0  0  0  0  0  0
   23.2870   37.9860   12.0470 C   0  0  0  0  0  0  0  0  0  0  0  0
   21.7890   38.0060   11.8660 C   0  0  2  0  0  0  0  0  0  0  0  0
   21.5000   38.9100   10.7090 C   0  0  2  0  0  0  0  0  0  0  0  0
   21.5760   38.3130    9.3400 C   0  0  2  0  0  0  0  0  0  0  0  0
   21.7170   36.2100    8.3140 C   0  0  2  0  0  0  0  0  0  0  0  0
   22.5300   36.7780    7.2010 C   0  0  0  0  0  0  0  0  0  0  0  0
   21.5110   36.9810    9.3900 O   0  0  0  0  0  0  0  0  0  0  0  0
   23.3800   37.9500    7.6120 C   0  0  1  0  0  0  0  0  0  0  0  0
   22.6240   38.9180    8.4560 C   0  0  1  0  0  0  0  0  0  0  0  0
   22.3130   35.0120    8.7240 O   0  0  0  0  0  0  0  0  0  0  0  0
   22.4190   34.4310    7.9400 H   0  0  0  0  0  0  0  0  0  0  0  0
   20.3840   35.8330    7.7580 C   0  0  0  0  0  0  0  0  0  0  0  0
   19.4730   36.6470    7.5220 O   0  0  0  0  0  0  0  0  0  0  0  0
   20.1030   34.4850    7.4690 O   0  0  0  0  0  0  0  0  0  0  0  0
   20.7920   33.7600    7.6170 H   0  0  0  0  0  0  0  0  0  0  0  0
   24.5430   37.4670    8.1990 O   0  0  0  0  0  0  0  0  0  0  0  0
   24.5540   37.8070    9.1310 H   0  0  0  0  0  0  0  0  0  0  0  0
   22.0790   39.9380    7.5800 N   0  0  0  0  0  0  0  0  0  0  0  0
   22.4790   41.3010    7.6170 C   0  0  0  0  0  0  0  0  0  0  0  0
   21.3380   39.7090    6.8510 H   0  0  0  0  0  0  0  0  0  0  0  0
   21.8850   42.3200    6.6890 C   0  0  0  0  0  0  0  0  0  0  0  0
   23.3550   41.6140    8.4650 O   0  0  0  0  0  0  0  0  0  0  0  0
   22.4450   39.9700   10.8430 O   0  0  0  0  0  0  0  0  0  0  0  0
   23.0530   39.8000   11.5920 H   0  0  0  0  0  0  0  0  0  0  0  0
   21.1960   38.3350   13.0550 O   0  0  0  0  0  0  0  0  0  0  0  0
   20.4010   37.8170   13.2310 H   0  0  0  0  0  0  0  0  0  0  0  0
   24.9300   35.0530   10.3720 O   0  0  0  0  0  0  0  0  0  0  0  0
   26.3300   34.9490   10.4490 C   0  0  0  0  0  0  0  0  0  0  0  0
   26.9790   35.9130    9.5400 C   0  0  0  0  0  0  0  0  0  0  0  0
   27.5920   35.6780    8.3260 C   0  0  0  0  0  0  0  0  0  0  0  0
   27.0820   37.2220    9.7520 N   0  0  0  0  0  0  0  0  0  0  0  0
   28.0470   36.8420    7.8400 N   0  0  0  0  0  0  0  0  0  0  0  0
   27.7190   37.7670    8.7350 N   0  0  0  0  0  0  0  0  0  0  0  0
   28.7510   37.1300    6.6190 C   0  0  0  0  0  0  0  0  0  0  0  0
   27.8060   37.4730    5.4810 C   0  0  0  0  0  0  0  0  0  0  0  0
   26.7100   38.2320    6.0410 N   0  0  0  0  0  0  0  0  0  0  0  0
   26.6680   38.1580    7.0680 H   0  0  0  0  0  0  0  0  0  0  0  0
   26.7480   39.8830    5.5640 S   0  0  0  0  0  0  0  0  0  0  0  0
   27.2220   39.9260    4.1350 O   0  0  0  0  0  0  0  0  0  0  0  0
   25.3860   40.4800    5.7150 O   0  0  0  0  0  0  0  0  0  0  0  0
   27.9080   40.8010    6.5530 C   0  0  0  0  0  0  0  0  0  0  0  0
   29.8670   25.5550   16.9770 C   0  0  0  0  0  0  0  0  0  0  0  0
   28.3450   25.7220   17.0260 C   0  0  0  0  0  0  0  0  0  0  0  0
   27.6010   24.4050   16.8710 C   0  0  0  0  0  0  0  0  0  0  0  0
   26.1940   24.4840   17.3960 C   0  0  0  0  0  0  0  0  0  0  0  0
   26.0290   23.5090   18.5570 C   0  0  0  0  0  0  0  0  0  0  0  0
   25.2680   24.1420   19.6610 N   0  0  0  0  0  0  0  0  0  0  0  0
  1  2  1  0  0  0  0
  1  5  1  0  0  0  0
  2  3  2  0  0  0  0
  4  1  1  0  0  0  0
  6  5  1  1  0  0  0
  6 29  1  0  0  0  0
  7 27  1  6  0  0  0
  7  6  1  0  0  0  0
  8 11  1  0  0  0  0
  8  7  1  1  0  0  0
  9 16  1  6  0  0  0
  9 14  1  0  0  0  0
  9 11  1  0  0  0  0
 10 12  1  0  0  0  0
 10  9  1  0  0  0  0
 12 20  1  1  0  0  0
 12 13  1  0  0  0  0
 13 22  1  6  0  0  0
 13  8  1  0  0  0  0
 15 14  1  0  0  0  0
 17 16  2  0  0  0  0
 18 19  1  0  0  0  0
 18 16  1  0  0  0  0
 20 21  1  0  0  0  0
 22 23  1  0  0  0  0
 23 26  2  0  0  0  0
 24 22  1  0  0  0  0
 25 23  1  0  0  0  0
 27 28  1  0  0  0  0
 29 30  1  0  0  0  0
 31 32  1  0  0  0  0
 31  2  1  0  0  0  0
 33 35  1  0  0  0  0
 33 32  1  0  0  0  0
 34 33  2  0  0  0  0
 36 34  1  0  0  0  0
 36 37  1  0  0  0  0
 37 35  2  0  0  0  0
 38 36  1  0  0  0  0
 39 40  1  0  0  0  0
 39 38  1  0  0  0  0
 40 41  1  0  0  0  0
 42 44  2  0  0  0  0
 42 40  1  0  0  0  0
 42 45  1  0  0  0  0
 43 42  2  0  0  0  0
 46 47  1  0  0  0  0
 48 47  1  0  0  0  0
 48 49  1  0  0  0  0
 49 50  1  0  0  0  0
 50 51  1  0  0  0  0
M  END
>  <REMARK>
 VINA RESULT:    -4.375      8.036     13.672
 INTER + INTRA:         -14.615
 INTER:                  -7.786
 INTRA:                  -6.829
 UNBOUND:                -6.277
 SMILES CC(=O)N[C@@H]1[C@@H](O)C[C@](O)(C(=O)O)O[C@H]1C(O)[C@H](O)CNC(=O)OCc1cn(CCNS(C)(=O)=O)nn1
 SMILES IDX 21 1 22 2 23 3 20 5 18 6 16 7 15 8 9 9 8 10 14 11 6 12 5 13
 SMILES IDX 10 14 11 16 12 17 13 18 7 20 4 22 2 23 1 25 3 26 17 27 19 29
 SMILES IDX 24 31 25 32 26 33 27 34 37 35 28 36 36 37 29 38 30 39 31 40
 SMILES IDX 32 42 34 43 35 44 33 45
 H PARENT 21 4 10 15 13 19 7 21 4 24 17 28 19 30 31 41
 Flexibility Score: inf
  4 active torsions:
  status: ('A' for Active; 'I' for Inactive)
    1  A    between atoms: CA   and  CB  
    2  A    between atoms: CB   and  CG  
    3  A    between atoms: CG   and  CD  
    4  A    between atoms: CD   and  CE  

>  <TORSDO>
F 18

>  <BEGIN_>
RES LYS A 131

$$$$
ligand_55_pose_9_2HRL.pdbqt
 OpenBabel07062320523D

  6  5  0  0  0  0  0  0  0  0999 V2000
   33.1930   34.6630    9.2900 C   0  0  0  0  0  0  0  0  0  0  0  0
   32.0600   35.3600   10.0340 C   0  0  0  0  0  0  0  0  0  0  0  0
   30.7390   34.6420    9.9300 C   0  0  0  0  0  0  0  0  0  0  0  0
   29.9400   34.7990   11.2150 C   0  0  0  0  0  0  0  0  0  0  0  0
   30.8560   34.7360   12.4220 C   0  0  0  0  0  0  0  0  0  0  0  0
   30.0990   34.3700   13.6510 N   0  0  0  0  0  0  0  0  0  0  0  0
  1  2  1  0  0  0  0
  3  2  1  0  0  0  0
  3  4  1  0  0  0  0
  4  5  1  0  0  0  0
  5  6  1  0  0  0  0
M  END
>  <EGIN_R>
ES LYS A 135

>  <REMARK>
  4 active torsions:
  status: ('A' for Active; 'I' for Inactive)
    5  A    between atoms: CA   and  CB  
    6  A    between atoms: CB   and  CG  
    7  A    between atoms: CG   and  CD  
    8  A    between atoms: CD   and  CE  

$$$$
