ligand_86_pose_15_2HRL.pdbqt
 OpenBabel07062320523D

 52 54  0  0  1  0  0  0  0  0999 V2000
   29.2120   39.3880    5.9400 C   0  0  0  0  0  0  0  0  0  0  0  0
   28.4970   38.2170    5.3580 C   0  0  2  0  0  0  0  0  0  0  0  0
   27.3250   37.7570    6.1660 C   0  0  2  0  0  0  0  0  0  0  0  0
   27.7190   37.2590    7.5380 C   0  0  2  0  0  0  0  0  0  0  0  0
   28.5380   35.3880    8.6210 C   0  0  2  0  0  0  0  0  0  0  0  0
   28.2600   36.2790    9.8020 C   0  0  0  0  0  0  0  0  0  0  0  0
   28.3240   36.0180    7.4050 O   0  0  0  0  0  0  0  0  0  0  0  0
   26.8900   36.8850    9.7860 C   0  0  1  0  0  0  0  0  0  0  0  0
   26.4590   37.0540    8.3550 C   0  0  1  0  0  0  0  0  0  0  0  0
   27.8400   34.1830    8.6840 O   0  0  0  0  0  0  0  0  0  0  0  0
   27.1280   34.2320    9.3640 H   0  0  0  0  0  0  0  0  0  0  0  0
   29.9930   35.0390    8.6720 C   0  0  0  0  0  0  0  0  0  0  0  0
   30.3720   33.8790    9.0470 O   0  0  0  0  0  0  0  0  0  0  0  0
   30.9880   35.9240    8.3260 O   0  0  0  0  0  0  0  0  0  0  0  0
   30.9190   36.8850    8.6840 H   0  0  0  0  0  0  0  0  0  0  0  0
   25.9770   36.2210   10.5700 O   0  0  0  0  0  0  0  0  0  0  0  0
   26.0700   36.5590   11.4990 H   0  0  0  0  0  0  0  0  0  0  0  0
   25.5030   38.1160    8.1680 N   0  0  0  0  0  0  0  0  0  0  0  0
   24.0940   37.8910    8.1890 C   0  0  0  0  0  0  0  0  0  0  0  0
   25.8200   39.0990    8.0080 H   0  0  0  0  0  0  0  0  0  0  0  0
   23.1670   39.0230    7.9910 C   0  0  0  0  0  0  0  0  0  0  0  0
   23.6940   36.7190    8.3790 O   0  0  0  0  0  0  0  0  0  0  0  0
   26.6940   36.7090    5.4960 O   0  0  0  0  0  0  0  0  0  0  0  0
   27.0550   35.8400    5.7460 H   0  0  0  0  0  0  0  0  0  0  0  0
   29.3730   37.1180    5.1980 O   0  0  0  0  0  0  0  0  0  0  0  0
   29.3390   36.9010    4.2240 H   0  0  0  0  0  0  0  0  0  0  0  0
   30.5410   39.0530    6.3920 N   0  0  0  0  0  0  0  0  0  0  0  0
   31.5670   40.0330    6.3510 C   0  0  0  0  0  0  0  0  0  0  0  0
   30.7960   38.1050    6.7580 H   0  0  0  0  0  0  0  0  0  0  0  0
   31.3820   41.2080    5.9310 O   0  0  0  0  0  0  0  0  0  0  0  0
   32.8680   39.7640    6.7770 O   0  0  0  0  0  0  0  0  0  0  0  0
   33.3280   40.0860    8.0740 C   0  0  0  0  0  0  0  0  0  0  0  0
   32.3250   39.6630    9.0890 C   0  0  0  0  0  0  0  0  0  0  0  0
   31.7120   40.5020    9.9950 C   0  0  0  0  0  0  0  0  0  0  0  0
   31.8170   38.4430    9.3360 N   0  0  0  0  0  0  0  0  0  0  0  0
   30.8540   39.7770   10.7660 N   0  0  0  0  0  0  0  0  0  0  0  0
   30.9580   38.5360   10.3230 N   0  0  0  0  0  0  0  0  0  0  0  0
   30.0060   40.2720   11.8460 C   0  0  2  0  0  0  0  0  0  0  0  0
   30.6230   39.8760   13.1360 C   0  0  0  0  0  0  0  0  0  0  0  0
   28.6280   39.7630   11.6120 C   0  0  0  0  0  0  0  0  0  0  0  0
   29.6730   39.5880   14.2410 C   0  0  1  0  0  0  0  0  0  0  0  0
   27.9560   39.2120   12.8420 C   0  0  2  0  0  0  0  0  0  0  0  0
   28.3370   40.0620   13.9560 N   0  0  0  0  0  0  0  0  0  0  0  0
   29.4680   38.0830   14.3070 C   0  0  0  0  0  0  0  0  0  0  0  0
   28.5430   37.8530   13.1290 C   0  0  0  0  0  0  0  0  0  0  0  0
   27.4860   39.8700   15.1030 C   0  0  0  0  0  0  0  0  0  0  0  0
   29.8670   25.5550   16.9770 C   0  0  0  0  0  0  0  0  0  0  0  0
   28.3450   25.7220   17.0260 C   0  0  0  0  0  0  0  0  0  0  0  0
   27.6000   24.4110   16.8280 C   0  0  0  0  0  0  0  0  0  0  0  0
   26.8090   24.0200   18.0450 C   0  0  0  0  0  0  0  0  0  0  0  0
   25.5940   23.2000   17.6210 C   0  0  0  0  0  0  0  0  0  0  0  0
   24.6140   24.0550   16.9110 N   0  0  0  0  0  0  0  0  0  0  0  0
  1 27  1  0  0  0  0
  2  1  1  1  0  0  0
  2  3  1  0  0  0  0
  3 23  1  6  0  0  0
  4  3  1  6  0  0  0
  4  9  1  0  0  0  0
  5 12  1  1  0  0  0
  5 10  1  0  0  0  0
  5  6  1  0  0  0  0
  7  4  1  0  0  0  0
  7  5  1  0  0  0  0
  8  6  1  0  0  0  0
  8 16  1  1  0  0  0
  9 18  1  1  0  0  0
  9  8  1  0  0  0  0
 10 11  1  0  0  0  0
 12 13  2  0  0  0  0
 14 12  1  0  0  0  0
 14 15  1  0  0  0  0
 16 17  1  0  0  0  0
 18 19  1  0  0  0  0
 19 22  2  0  0  0  0
 20 18  1  0  0  0  0
 21 19  1  0  0  0  0
 23 24  1  0  0  0  0
 25  2  1  0  0  0  0
 26 25  1  0  0  0  0
 27 29  1  0  0  0  0
 28 27  1  0  0  0  0
 28 31  1  0  0  0  0
 30 28  2  0  0  0  0
 31 32  1  0  0  0  0
 32 33  1  0  0  0  0
 33 35  1  0  0  0  0
 33 34  2  0  0  0  0
 34 36  1  0  0  0  0
 35 37  2  0  0  0  0
 37 36  1  0  0  0  0
 38 36  1  6  0  0  0
 38 39  1  0  0  0  0
 40 38  1  0  0  0  0
 41 39  1  6  0  0  0
 41 44  1  0  0  0  0
 42 40  1  6  0  0  0
 42 45  1  0  0  0  0
 42 43  1  0  0  0  0
 43 41  1  0  0  0  0
 43 46  1  0  0  0  0
 45 44  1  0  0  0  0
 47 48  1  0  0  0  0
 49 48  1  0  0  0  0
 49 50  1  0  0  0  0
 51 50  1  0  0  0  0
 52 51  1  0  0  0  0
M  END
>  <REMARK>
 VINA RESULT:    -4.204      7.087     11.958
 INTER + INTRA:         -13.830
 INTER:                  -8.660
 INTRA:                  -5.170
 UNBOUND:                -6.555
 SMILES CC(=O)N[C@@H]1[C@@H](O)C[C@](O)(C(=O)O)O[C@H]1C(O)[C@H](O)CNC(=O)OCc1cn([C@H]2C[C@H]3CC[C@@H](C2)N3C)nn1
 SMILES IDX 20 1 18 2 16 3 15 4 9 5 8 6 14 7 6 8 5 9 10 10 11 12 12 13
 SMILES IDX 13 14 7 16 4 18 2 19 1 21 3 22 17 23 19 25 21 27 22 28 23 30
 SMILES IDX 24 31 25 32 26 33 27 34 39 35 28 36 38 37 29 38 35 39 30 40
 SMILES IDX 34 41 31 42 36 43 33 44 32 45 37 46
 H PARENT 10 11 13 15 7 17 4 20 17 24 19 26 21 29
 Flexibility Score: inf
  4 active torsions:
  status: ('A' for Active; 'I' for Inactive)
    1  A    between atoms: CA   and  CB  
    2  A    between atoms: CB   and  CG  
    3  A    between atoms: CG   and  CD  
    4  A    between atoms: CD   and  CE  

>  <TORSDO>
F 15

>  <BEGIN_>
RES LYS A 131

$$$$
ligand_86_pose_15_2HRL.pdbqt
 OpenBabel07062320523D

  6  5  0  0  0  0  0  0  0  0999 V2000
   33.1930   34.6630    9.2900 C   0  0  0  0  0  0  0  0  0  0  0  0
   32.0600   35.3600   10.0340 C   0  0  0  0  0  0  0  0  0  0  0  0
   32.3270   35.5400   11.5060 C   0  0  0  0  0  0  0  0  0  0  0  0
   31.0800   35.2300   12.3200 C   0  0  0  0  0  0  0  0  0  0  0  0
   31.4470   34.9100   13.7560 C   0  0  0  0  0  0  0  0  0  0  0  0
   30.2500   34.4880   14.5350 N   0  0  0  0  0  0  0  0  0  0  0  0
  1  2  1  0  0  0  0
  2  3  1  0  0  0  0
  3  4  1  0  0  0  0
  4  5  1  0  0  0  0
  5  6  1  0  0  0  0
M  END
>  <EGIN_R>
ES LYS A 135

>  <REMARK>
  4 active torsions:
  status: ('A' for Active; 'I' for Inactive)
    5  A    between atoms: CA   and  CB  
    6  A    between atoms: CB   and  CG  
    7  A    between atoms: CG   and  CD  
    8  A    between atoms: CD   and  CE  

$$$$
