ligand_15_pose_7_2HRL.pdbqt
 OpenBabel07062320523D

 50 51  0  0  1  0  0  0  0  0999 V2000
   23.3730   40.4780    7.6430 C   0  0  0  0  0  0  0  0  0  0  0  0
   24.7980   40.2250    7.2510 C   0  0  2  0  0  0  0  0  0  0  0  0
   25.7230   39.9040    8.3710 C   0  0  2  0  0  0  0  0  0  0  0  0
   26.9960   39.2010    7.9450 C   0  0  2  0  0  0  0  0  0  0  0  0
   27.9110   38.4430    5.9220 C   0  0  2  0  0  0  0  0  0  0  0  0
   28.5000   37.3260    6.7390 C   0  0  0  0  0  0  0  0  0  0  0  0
   26.8920   39.0500    6.5680 O   0  0  0  0  0  0  0  0  0  0  0  0
   27.4090   36.7740    7.6270 C   0  0  1  0  0  0  0  0  0  0  0  0
   27.0560   37.8700    8.6410 C   0  0  1  0  0  0  0  0  0  0  0  0
   27.3700   37.8960    4.7250 O   0  0  0  0  0  0  0  0  0  0  0  0
   27.7090   38.4870    4.0030 H   0  0  0  0  0  0  0  0  0  0  0  0
   28.9420   39.4510    5.5500 C   0  0  0  0  0  0  0  0  0  0  0  0
   30.1580   39.2960    5.7560 O   0  0  0  0  0  0  0  0  0  0  0  0
   28.5350   40.6270    4.9440 O   0  0  0  0  0  0  0  0  0  0  0  0
   28.2540   41.4550    5.4710 H   0  0  0  0  0  0  0  0  0  0  0  0
   26.2750   36.5990    6.8360 O   0  0  0  0  0  0  0  0  0  0  0  0
   25.7180   37.3980    6.7710 H   0  0  0  0  0  0  0  0  0  0  0  0
   28.1400   37.8750    9.5830 N   0  0  0  0  0  0  0  0  0  0  0  0
   27.9740   37.9460   10.9870 C   0  0  0  0  0  0  0  0  0  0  0  0
   29.1350   37.8220    9.2400 H   0  0  0  0  0  0  0  0  0  0  0  0
   29.1350   37.9520   11.9270 C   0  0  0  0  0  0  0  0  0  0  0  0
   26.8210   38.0060   11.4580 O   0  0  0  0  0  0  0  0  0  0  0  0
   25.0200   39.0980    9.3000 O   0  0  0  0  0  0  0  0  0  0  0  0
   25.4780   39.1860   10.1630 H   0  0  0  0  0  0  0  0  0  0  0  0
   25.2670   41.3860    6.5990 O   0  0  0  0  0  0  0  0  0  0  0  0
   25.5240   42.0790    7.2560 H   0  0  0  0  0  0  0  0  0  0  0  0
   22.4930   39.3610    7.5300 N   0  0  0  0  0  0  0  0  0  0  0  0
   21.5970   39.0360    8.6120 C   0  0  0  0  0  0  0  0  0  0  0  0
   22.4230   38.7150    6.7180 H   0  0  0  0  0  0  0  0  0  0  0  0
   21.6280   39.7650    9.6320 O   0  0  0  0  0  0  0  0  0  0  0  0
   20.7300   37.9580    8.5300 O   0  0  0  0  0  0  0  0  0  0  0  0
   21.2440   36.7870    7.9090 C   0  0  0  0  0  0  0  0  0  0  0  0
   22.3940   36.3270    8.7400 C   0  0  0  0  0  0  0  0  0  0  0  0
   22.3230   35.6240    9.9270 C   0  0  0  0  0  0  0  0  0  0  0  0
   23.7090   36.4980    8.5070 N   0  0  0  0  0  0  0  0  0  0  0  0
   23.5700   35.3940   10.3720 N   0  0  0  0  0  0  0  0  0  0  0  0
   24.3740   35.9360    9.4870 N   0  0  0  0  0  0  0  0  0  0  0  0
   24.0060   34.7120   11.5450 C   0  0  0  0  0  0  0  0  0  0  0  0
   23.1530   33.9420   12.3120 C   0  0  0  0  0  0  0  0  0  0  0  0
   25.3180   34.7950   11.9640 C   0  0  0  0  0  0  0  0  0  0  0  0
   23.5900   33.2860   13.4470 C   0  0  0  0  0  0  0  0  0  0  0  0
   25.7630   34.1370   13.1050 C   0  0  0  0  0  0  0  0  0  0  0  0
   24.9070   33.3730   13.8630 C   0  0  0  0  0  0  0  0  0  0  0  0
   25.4570   32.4470   15.4360 Br  0  0  0  0  0  0  0  0  0  0  0  0
   29.8670   25.5550   16.9770 C   0  0  0  0  0  0  0  0  0  0  0  0
   28.3450   25.7220   17.0260 C   0  0  0  0  0  0  0  0  0  0  0  0
   27.6010   24.4010   16.9000 C   0  0  0  0  0  0  0  0  0  0  0  0
   26.5260   24.2560   17.9410 C   0  0  0  0  0  0  0  0  0  0  0  0
   25.2040   23.9120   17.2620 C   0  0  0  0  0  0  0  0  0  0  0  0
   24.7560   22.5550   17.6550 N   0  0  0  0  0  0  0  0  0  0  0  0
  2  1  1  1  0  0  0
  2  3  1  0  0  0  0
  3 23  1  1  0  0  0
  4  3  1  1  0  0  0
  4  9  1  0  0  0  0
  5 10  1  6  0  0  0
  5  7  1  0  0  0  0
  5  6  1  0  0  0  0
  6  8  1  0  0  0  0
  7  4  1  0  0  0  0
  8 16  1  6  0  0  0
  8  9  1  0  0  0  0
  9 18  1  1  0  0  0
 11 10  1  0  0  0  0
 12 13  2  0  0  0  0
 12  5  1  0  0  0  0
 14 15  1  0  0  0  0
 14 12  1  0  0  0  0
 17 16  1  0  0  0  0
 18 19  1  0  0  0  0
 19 22  2  0  0  0  0
 19 21  1  0  0  0  0
 20 18  1  0  0  0  0
 23 24  1  0  0  0  0
 25  2  1  0  0  0  0
 25 26  1  0  0  0  0
 27  1  1  0  0  0  0
 27 28  1  0  0  0  0
 28 30  2  0  0  0  0
 29 27  1  0  0  0  0
 31 28  1  0  0  0  0
 32 31  1  0  0  0  0
 32 33  1  0  0  0  0
 33 34  2  0  0  0  0
 34 36  1  0  0  0  0
 35 33  1  0  0  0  0
 35 37  2  0  0  0  0
 36 38  1  0  0  0  0
 37 36  1  0  0  0  0
 38 40  2  0  0  0  0
 38 39  1  0  0  0  0
 39 41  2  0  0  0  0
 40 42  1  0  0  0  0
 41 43  1  0  0  0  0
 42 43  2  0  0  0  0
 43 44  1  0  0  0  0
 45 46  1  0  0  0  0
 47 46  1  0  0  0  0
 47 48  1  0  0  0  0
 49 50  1  0  0  0  0
 49 48  1  0  0  0  0
M  END
>  <REMARK>
 VINA RESULT:    -5.303      9.525     14.403
 INTER + INTRA:         -14.339
 INTER:                  -7.635
 INTRA:                  -6.704
 UNBOUND:                -5.161
 SMILES CC(=O)N[C@@H]1[C@@H](O)C[C@](O)(C(=O)O)O[C@H]1C(O)[C@H](O)CNC(=O)OCc1cn(-c2ccc(Br)cc2)nn1
 SMILES IDX 20 1 18 2 16 3 15 4 9 5 8 6 14 7 6 8 5 9 10 10 11 12 12 13
 SMILES IDX 13 14 7 16 4 18 2 19 1 21 3 22 17 23 19 25 21 27 22 28 23 30
 SMILES IDX 24 31 25 32 26 33 27 34 37 35 28 36 36 37 29 38 30 39 35 40
 SMILES IDX 31 41 34 42 32 43 33 44
 H PARENT 10 11 13 15 7 17 4 20 17 24 19 26 21 29
 Flexibility Score: inf
  4 active torsions:
  status: ('A' for Active; 'I' for Inactive)
    1  A    between atoms: CA   and  CB  
    2  A    between atoms: CB   and  CG  
    3  A    between atoms: CG   and  CD  
    4  A    between atoms: CD   and  CE  

>  <TORSDO>
F 15

>  <BEGIN_>
RES LYS A 131

$$$$
ligand_15_pose_7_2HRL.pdbqt
 OpenBabel07062320523D

  6  5  0  0  0  0  0  0  0  0999 V2000
   33.1930   34.6630    9.2900 C   0  0  0  0  0  0  0  0  0  0  0  0
   32.0600   35.3600   10.0340 C   0  0  0  0  0  0  0  0  0  0  0  0
   30.7990   35.4950    9.2210 C   0  0  0  0  0  0  0  0  0  0  0  0
   30.2210   34.1270    8.8940 C   0  0  0  0  0  0  0  0  0  0  0  0
   28.8100   34.0010    9.4370 C   0  0  0  0  0  0  0  0  0  0  0  0
   28.7320   34.4790   10.8450 N   0  0  0  0  0  0  0  0  0  0  0  0
  1  2  1  0  0  0  0
  3  2  1  0  0  0  0
  4  3  1  0  0  0  0
  4  5  1  0  0  0  0
  5  6  1  0  0  0  0
M  END
>  <EGIN_R>
ES LYS A 135

>  <REMARK>
  4 active torsions:
  status: ('A' for Active; 'I' for Inactive)
    5  A    between atoms: CA   and  CB  
    6  A    between atoms: CB   and  CG  
    7  A    between atoms: CG   and  CD  
    8  A    between atoms: CD   and  CE  

$$$$
