ligand_44_pose_4_2HRL.pdbqt
 OpenBabel07062320523D

 51 52  0  0  1  0  0  0  0  0999 V2000
   27.0180   36.2430   15.2130 N   0  0  0  0  0  0  0  0  0  0  0  0
   27.7770   37.4350   15.1160 C   0  0  0  0  0  0  0  0  0  0  0  0
   28.1620   38.1360   16.0710 O   0  0  0  0  0  0  0  0  0  0  0  0
   26.7470   35.7180   14.3230 H   0  0  0  0  0  0  0  0  0  0  0  0
   26.6200   35.7470   16.4930 C   0  0  0  0  0  0  0  0  0  0  0  0
   27.4600   34.6160   17.0270 C   0  0  2  0  0  0  0  0  0  0  0  0
   27.3480   33.3660   16.2330 C   0  0  1  0  0  0  0  0  0  0  0  0
   26.0360   32.6930   16.1430 C   0  0  2  0  0  0  0  0  0  0  0  0
   26.2520   30.4130   16.4220 C   0  0  2  0  0  0  0  0  0  0  0  0
   24.8760   30.0920   15.8850 C   0  0  0  0  0  0  0  0  0  0  0  0
   26.1070   31.6330   17.0630 O   0  0  0  0  0  0  0  0  0  0  0  0
   24.5760   31.1170   14.8450 C   0  0  1  0  0  0  0  0  0  0  0  0
   25.4980   32.3210   14.8350 C   0  0  1  0  0  0  0  0  0  0  0  0
   27.1260   30.4180   15.3580 O   0  0  0  0  0  0  0  0  0  0  0  0
   27.9200   29.8650   15.4770 H   0  0  0  0  0  0  0  0  0  0  0  0
   26.5880   29.3830   17.4340 C   0  0  0  0  0  0  0  0  0  0  0  0
   26.0260   29.3090   18.5490 O   0  0  0  0  0  0  0  0  0  0  0  0
   27.5840   28.4700   17.1000 O   0  0  0  0  0  0  0  0  0  0  0  0
   27.8780   28.2970   16.1520 H   0  0  0  0  0  0  0  0  0  0  0  0
   24.7350   30.4860   13.5890 O   0  0  0  0  0  0  0  0  0  0  0  0
   25.3130   31.0010   12.9930 H   0  0  0  0  0  0  0  0  0  0  0  0
   24.6160   33.3770   14.2910 N   0  0  0  0  0  0  0  0  0  0  0  0
   25.0460   34.3350   13.3650 C   0  0  0  0  0  0  0  0  0  0  0  0
   23.6350   33.3500   14.6610 H   0  0  0  0  0  0  0  0  0  0  0  0
   24.0790   35.3650   12.8830 C   0  0  0  0  0  0  0  0  0  0  0  0
   26.2120   34.3320   12.9460 O   0  0  0  0  0  0  0  0  0  0  0  0
   28.0550   33.5070   15.0490 O   0  0  0  0  0  0  0  0  0  0  0  0
   28.9730   33.1260   15.1620 H   0  0  0  0  0  0  0  0  0  0  0  0
   27.3820   34.4340   18.3980 O   0  0  0  0  0  0  0  0  0  0  0  0
   28.0340   33.7930   18.7460 H   0  0  0  0  0  0  0  0  0  0  0  0
   28.1370   37.8790   13.8440 O   0  0  0  0  0  0  0  0  0  0  0  0
   29.4660   37.7990   13.3880 C   0  0  0  0  0  0  0  0  0  0  0  0
   30.0490   36.4660   13.6210 C   0  0  0  0  0  0  0  0  0  0  0  0
   31.0960   36.0660   14.4180 C   0  0  0  0  0  0  0  0  0  0  0  0
   29.5720   35.3580   13.0070 N   0  0  0  0  0  0  0  0  0  0  0  0
   31.2220   34.7280   14.2630 N   0  0  0  0  0  0  0  0  0  0  0  0
   30.2900   34.3440   13.4110 N   0  0  0  0  0  0  0  0  0  0  0  0
   32.2120   33.9070   14.9300 C   0  0  0  0  0  0  0  0  0  0  0  0
   31.5080   33.1560   16.0220 C   0  0  0  0  0  0  0  0  0  0  0  0
   30.9980   31.8950   15.7540 C   0  0  0  0  0  0  0  0  0  0  0  0
   31.3810   33.7260   17.2700 C   0  0  0  0  0  0  0  0  0  0  0  0
   30.3590   31.2270   16.7650 C   0  0  0  0  0  0  0  0  0  0  0  0
   30.7310   33.0480   18.3010 C   0  0  0  0  0  0  0  0  0  0  0  0
   30.2350   31.8020   18.0090 C   0  0  0  0  0  0  0  0  0  0  0  0
   29.3400   30.8450   19.4020 Br  0  0  0  0  0  0  0  0  0  0  0  0
   29.8670   25.5550   16.9770 C   0  0  0  0  0  0  0  0  0  0  0  0
   28.3450   25.7220   17.0260 C   0  0  0  0  0  0  0  0  0  0  0  0
   27.6010   24.4010   16.9020 C   0  0  0  0  0  0  0  0  0  0  0  0
   26.3290   24.3900   17.7030 C   0  0  0  0  0  0  0  0  0  0  0  0
   25.6430   23.0360   17.5500 C   0  0  0  0  0  0  0  0  0  0  0  0
   24.2540   23.2100   17.0640 N   0  0  0  0  0  0  0  0  0  0  0  0
  1  5  1  0  0  0  0
  2  1  1  0  0  0  0
  2  3  2  0  0  0  0
  4  1  1  0  0  0  0
  6  5  1  6  0  0  0
  6 29  1  0  0  0  0
  7 27  1  6  0  0  0
  7  6  1  0  0  0  0
  8  7  1  6  0  0  0
  8 11  1  0  0  0  0
  9 14  1  6  0  0  0
  9 11  1  0  0  0  0
  9 16  1  0  0  0  0
 10  9  1  0  0  0  0
 12 20  1  6  0  0  0
 12 10  1  0  0  0  0
 13 22  1  1  0  0  0
 13 12  1  0  0  0  0
 13  8  1  0  0  0  0
 14 15  1  0  0  0  0
 16 17  2  0  0  0  0
 18 16  1  0  0  0  0
 19 18  1  0  0  0  0
 21 20  1  0  0  0  0
 22 24  1  0  0  0  0
 23 22  1  0  0  0  0
 25 23  1  0  0  0  0
 26 23  2  0  0  0  0
 27 28  1  0  0  0  0
 29 30  1  0  0  0  0
 31  2  1  0  0  0  0
 32 33  1  0  0  0  0
 32 31  1  0  0  0  0
 33 34  2  0  0  0  0
 35 37  2  0  0  0  0
 35 33  1  0  0  0  0
 36 34  1  0  0  0  0
 36 38  1  0  0  0  0
 37 36  1  0  0  0  0
 38 39  1  0  0  0  0
 39 41  1  0  0  0  0
 40 39  2  0  0  0  0
 40 42  1  0  0  0  0
 41 43  2  0  0  0  0
 42 44  2  0  0  0  0
 44 43  1  0  0  0  0
 44 45  1  0  0  0  0
 46 47  1  0  0  0  0
 48 47  1  0  0  0  0
 48 49  1  0  0  0  0
 50 49  1  0  0  0  0
 51 50  1  0  0  0  0
M  END
>  <REMARK>
 VINA RESULT:    -4.724      3.138      7.330
 INTER + INTRA:         -14.849
 INTER:                  -7.574
 INTRA:                  -7.275
 UNBOUND:                -6.398
 SMILES CC(=O)N[C@@H]1[C@@H](O)C[C@](O)(C(=O)O)O[C@H]1C(O)[C@H](O)CNC(=O)OCc1cn(Cc2ccc(Br)cc2)nn1
 SMILES IDX 21 1 22 2 23 3 20 5 18 6 16 7 15 8 9 9 8 10 14 11 6 12 5 13
 SMILES IDX 10 14 11 16 12 17 13 18 7 20 4 22 2 23 1 25 3 26 17 27 19 29
 SMILES IDX 24 31 25 32 26 33 27 34 38 35 28 36 37 37 29 38 30 39 31 40
 SMILES IDX 36 41 32 42 35 43 33 44 34 45
 H PARENT 21 4 10 15 13 19 7 21 4 24 17 28 19 30
 Flexibility Score: inf
  4 active torsions:
  status: ('A' for Active; 'I' for Inactive)
    1  A    between atoms: CA   and  CB  
    2  A    between atoms: CB   and  CG  
    3  A    between atoms: CG   and  CD  
    4  A    between atoms: CD   and  CE  

>  <TORSDO>
F 16

>  <BEGIN_>
RES LYS A 131

$$$$
ligand_44_pose_4_2HRL.pdbqt
 OpenBabel07062320523D

  6  5  0  0  0  0  0  0  0  0999 V2000
   33.1930   34.6630    9.2900 C   0  0  0  0  0  0  0  0  0  0  0  0
   32.0600   35.3600   10.0340 C   0  0  0  0  0  0  0  0  0  0  0  0
   30.7880   35.4640    9.2330 C   0  0  0  0  0  0  0  0  0  0  0  0
   29.8830   34.2720    9.5050 C   0  0  0  0  0  0  0  0  0  0  0  0
   28.5550   34.4370    8.7910 C   0  0  0  0  0  0  0  0  0  0  0  0
   27.4700   33.7070    9.5030 N   0  0  0  0  0  0  0  0  0  0  0  0
  1  2  1  0  0  0  0
  3  4  1  0  0  0  0
  3  2  1  0  0  0  0
  5  6  1  0  0  0  0
  5  4  1  0  0  0  0
M  END
>  <EGIN_R>
ES LYS A 135

>  <REMARK>
  4 active torsions:
  status: ('A' for Active; 'I' for Inactive)
    5  A    between atoms: CA   and  CB  
    6  A    between atoms: CB   and  CG  
    7  A    between atoms: CG   and  CD  
    8  A    between atoms: CD   and  CE  

$$$$
