ligand_90_pose_5_2HRL.pdbqt
 OpenBabel07062320523D

 61 62  0  0  1  0  0  0  0  0999 V2000
   26.5390   36.5160   14.8240 C   0  0  0  0  0  0  0  0  0  0  0  0
   25.6670   36.9310   13.7910 O   0  0  0  0  0  0  0  0  0  0  0  0
   25.2490   36.0610   12.7990 C   0  0  0  0  0  0  0  0  0  0  0  0
   25.6440   36.2480   11.4300 N   0  0  0  0  0  0  0  0  0  0  0  0
   26.2490   37.0720   11.2370 H   0  0  0  0  0  0  0  0  0  0  0  0
   24.5180   35.1070   13.1160 O   0  0  0  0  0  0  0  0  0  0  0  0
   25.2500   35.3780   10.3760 C   0  0  0  0  0  0  0  0  0  0  0  0
   24.5560   36.0490    9.2430 C   0  0  2  0  0  0  0  0  0  0  0  0
   24.5620   37.5500    9.4800 C   0  0  1  0  0  0  0  0  0  0  0  0
   24.3760   38.3370    8.2230 C   0  0  2  0  0  0  0  0  0  0  0  0
   25.3780   40.4300    8.4280 C   0  0  2  0  0  0  0  0  0  0  0  0
   24.2670   41.2000    7.7290 C   0  0  0  0  0  0  0  0  0  0  0  0
   25.4620   39.1390    7.9860 O   0  0  0  0  0  0  0  0  0  0  0  0
   23.2570   40.2210    7.1450 C   0  0  1  0  0  0  0  0  0  0  0  0
   23.0990   39.1110    8.1920 C   0  0  1  0  0  0  0  0  0  0  0  0
   25.0630   40.4430    9.7750 O   0  0  0  0  0  0  0  0  0  0  0  0
   25.8840   40.4950   10.3270 H   0  0  0  0  0  0  0  0  0  0  0  0
   26.6920   41.1020    8.2570 C   0  0  0  0  0  0  0  0  0  0  0  0
   27.1860   41.3180    7.1140 O   0  0  0  0  0  0  0  0  0  0  0  0
   27.4290   41.5200    9.3520 O   0  0  0  0  0  0  0  0  0  0  0  0
   28.4260   41.6400    9.3750 H   0  0  0  0  0  0  0  0  0  0  0  0
   22.0700   40.9050    6.9590 O   0  0  0  0  0  0  0  0  0  0  0  0
   21.9000   41.5870    7.6470 H   0  0  0  0  0  0  0  0  0  0  0  0
   21.9650   38.2680    7.8360 N   0  0  0  0  0  0  0  0  0  0  0  0
   20.8570   38.1960    8.7030 C   0  0  0  0  0  0  0  0  0  0  0  0
   21.9860   37.7340    6.9650 H   0  0  0  0  0  0  0  0  0  0  0  0
   19.6610   37.3360    8.3730 C   0  0  0  0  0  0  0  0  0  0  0  0
   20.7830   38.8240    9.7860 O   0  0  0  0  0  0  0  0  0  0  0  0
   23.5950   37.9170   10.4030 O   0  0  0  0  0  0  0  0  0  0  0  0
   23.9460   38.4350   11.1490 H   0  0  0  0  0  0  0  0  0  0  0  0
   23.2530   35.6300    9.0310 O   0  0  0  0  0  0  0  0  0  0  0  0
   22.5830   36.2470    9.4330 H   0  0  0  0  0  0  0  0  0  0  0  0
   27.8280   37.2000   14.5580 C   0  0  0  0  0  0  0  0  0  0  0  0
   29.0620   36.6030   14.6950 C   0  0  0  0  0  0  0  0  0  0  0  0
   28.1030   38.4510   14.1620 N   0  0  0  0  0  0  0  0  0  0  0  0
   30.0510   37.4960   14.3820 N   0  0  0  0  0  0  0  0  0  0  0  0
   29.4360   38.6080   14.0630 N   0  0  0  0  0  0  0  0  0  0  0  0
   31.4520   37.1420   14.4470 C   0  0  0  0  0  0  0  0  0  0  0  0
   31.9080   36.9620   13.0110 C   0  0  0  0  0  0  0  0  0  0  0  0
   32.6010   35.9710   12.6940 O   0  0  0  0  0  0  0  0  0  0  0  0
   31.5810   37.8750   12.0060 N   0  0  0  0  0  0  0  0  0  0  0  0
   30.9590   38.6940   12.3680 H   0  0  0  0  0  0  0  0  0  0  0  0
   31.9330   37.8930   10.6340 C   0  0  0  0  0  0  0  0  0  0  0  0
   31.9060   39.1410    9.8750 C   0  0  1  0  0  0  0  0  0  0  0  0
   32.9070   39.2010    8.8690 O   0  0  0  0  0  0  0  0  0  0  0  0
   33.0720   38.2920    8.5200 H   0  0  0  0  0  0  0  0  0  0  0  0
   30.6440   39.8060    9.5110 C   0  0  0  0  0  0  0  0  0  0  0  0
   29.8020   39.0150    8.6340 N   0  0  0  0  0  0  0  0  0  0  0  0
   29.9120   38.9490    7.2820 C   0  0  0  0  0  0  0  0  0  0  0  0
   28.7710   38.2400    9.0150 C   0  0  0  0  0  0  0  0  0  0  0  0
   28.9080   38.1040    6.8470 C   0  0  0  0  0  0  0  0  0  0  0  0
   28.2140   37.6740    7.9020 N   0  0  0  0  0  0  0  0  0  0  0  0
   28.2750   37.9890   10.3180 N   0  0  0  0  0  0  0  0  0  0  0  0
   27.4420   38.8130   10.7980 O   0  0  0  0  0  0  0  0  0  0  0  0
   28.6060   36.9460   11.1160 O   0  0  0  0  0  0  0  0  0  0  0  0
   29.8670   25.5550   16.9770 C   0  0  0  0  0  0  0  0  0  0  0  0
   28.3450   25.7220   17.0260 C   0  0  0  0  0  0  0  0  0  0  0  0
   27.6010   24.4010   16.9020 C   0  0  0  0  0  0  0  0  0  0  0  0
   26.1630   24.5190   17.3230 C   0  0  0  0  0  0  0  0  0  0  0  0
   26.0880   25.1340   18.7170 C   0  0  0  0  0  0  0  0  0  0  0  0
   25.4570   24.1890   19.6670 N   0  0  0  0  0  0  0  0  0  0  0  0
  2  1  1  0  0  0  0
  3  6  2  0  0  0  0
  3  2  1  0  0  0  0
  4  3  1  0  0  0  0
  5  4  1  0  0  0  0
  7  4  1  0  0  0  0
  8  9  1  0  0  0  0
  8  7  1  1  0  0  0
  9 29  1  1  0  0  0
 10  9  1  1  0  0  0
 11 18  1  6  0  0  0
 11 16  1  0  0  0  0
 12 11  1  0  0  0  0
 13 10  1  0  0  0  0
 13 11  1  0  0  0  0
 14 22  1  1  0  0  0
 14 12  1  0  0  0  0
 14 15  1  0  0  0  0
 15 24  1  6  0  0  0
 15 10  1  0  0  0  0
 16 17  1  0  0  0  0
 18 20  1  0  0  0  0
 19 18  2  0  0  0  0
 20 21  1  0  0  0  0
 22 23  1  0  0  0  0
 24 25  1  0  0  0  0
 25 28  2  0  0  0  0
 26 24  1  0  0  0  0
 27 25  1  0  0  0  0
 29 30  1  0  0  0  0
 31  8  1  0  0  0  0
 31 32  1  0  0  0  0
 33 34  2  0  0  0  0
 33  1  1  0  0  0  0
 35 33  1  0  0  0  0
 36 38  1  0  0  0  0
 36 34  1  0  0  0  0
 37 35  2  0  0  0  0
 37 36  1  0  0  0  0
 39 38  1  0  0  0  0
 40 39  2  0  0  0  0
 41 42  1  0  0  0  0
 41 39  1  0  0  0  0
 43 41  1  0  0  0  0
 44 47  1  6  0  0  0
 44 43  1  0  0  0  0
 45 44  1  0  0  0  0
 46 45  1  0  0  0  0
 48 50  1  0  0  0  0
 48 47  1  0  0  0  0
 49 48  1  0  0  0  0
 50 53  1  0  0  0  0
 51 49  2  0  0  0  0
 51 52  1  0  0  0  0
 52 50  2  0  0  0  0
 53 54  2  0  0  0  0
 53 55  2  0  0  0  0
 56 57  1  0  0  0  0
 58 57  1  0  0  0  0
 58 59  1  0  0  0  0
 59 60  1  0  0  0  0
 60 61  1  0  0  0  0
M  END
>  <REMARK>
 VINA RESULT:    -5.255      2.384      5.821
 INTER + INTRA:         -16.851
 INTER:                  -7.426
 INTRA:                  -9.425
 UNBOUND:                -5.759
 SMILES CC(=O)N[C@@H]1[C@@H](O)C[C@](O)(C(=O)O)O[C@H]1C(O)[C@H](O)CNC(=O)OCc1cn(CC(=O)NCC(O)Cn2ccnc2[N+](=O)[O-])nn1
 SMILES IDX 25 1 24 2 22 3 21 4 23 6 20 7 18 8 16 9 15 10 9 11 8 12
 SMILES IDX 14 13 6 14 5 15 10 16 11 18 12 19 13 20 7 22 4 24 2 25 1 27
 SMILES IDX 3 28 17 29 19 31 26 33 27 34 46 35 28 36 45 37 29 38 30 39
 SMILES IDX 31 40 32 41 33 43 34 44 35 45 36 47 37 48 38 49 41 50 39 51
 SMILES IDX 40 52 42 53 43 54 44 55
 H PARENT 21 5 10 17 13 21 7 23 4 26 17 30 19 32 32 42 35 46
 Flexibility Score: inf
  4 active torsions:
  status: ('A' for Active; 'I' for Inactive)
    1  A    between atoms: CA   and  CB  
    2  A    between atoms: CB   and  CG  
    3  A    between atoms: CG   and  CD  
    4  A    between atoms: CD   and  CE  

>  <TORSDO>
F 22

>  <BEGIN_>
RES LYS A 131

$$$$
ligand_90_pose_5_2HRL.pdbqt
 OpenBabel07062320523D

  6  5  0  0  0  0  0  0  0  0999 V2000
   33.1930   34.6630    9.2900 C   0  0  0  0  0  0  0  0  0  0  0  0
   32.0600   35.3600   10.0340 C   0  0  0  0  0  0  0  0  0  0  0  0
   30.7440   34.6310    9.9470 C   0  0  0  0  0  0  0  0  0  0  0  0
   30.3130   34.4720    8.4970 C   0  0  0  0  0  0  0  0  0  0  0  0
   28.8020   34.3860    8.3970 C   0  0  0  0  0  0  0  0  0  0  0  0
   28.2280   33.6570    9.5630 N   0  0  0  0  0  0  0  0  0  0  0  0
  1  2  1  0  0  0  0
  3  2  1  0  0  0  0
  4  3  1  0  0  0  0
  5  4  1  0  0  0  0
  5  6  1  0  0  0  0
M  END
>  <EGIN_R>
ES LYS A 135

>  <REMARK>
  4 active torsions:
  status: ('A' for Active; 'I' for Inactive)
    5  A    between atoms: CA   and  CB  
    6  A    between atoms: CB   and  CG  
    7  A    between atoms: CG   and  CD  
    8  A    between atoms: CD   and  CE  

$$$$
