ligand_17_pose_2_2HRL.pdbqt
 OpenBabel07062320523D

 50 50  0  0  1  0  0  0  0  0999 V2000
   28.0370   28.3660   18.5310 N   0  0  0  0  0  0  0  0  0  0  0  0
   27.0580   28.4990   17.4990 C   0  0  0  0  0  0  0  0  0  0  0  0
   25.9710   27.9030   17.5910 O   0  0  0  0  0  0  0  0  0  0  0  0
   28.9180   28.8890   18.3880 H   0  0  0  0  0  0  0  0  0  0  0  0
   27.8530   27.5710   19.7050 C   0  0  0  0  0  0  0  0  0  0  0  0
   28.9170   27.7670   20.7480 C   0  0  2  0  0  0  0  0  0  0  0  0
   29.7310   29.0050   20.4430 C   0  0  1  0  0  0  0  0  0  0  0  0
   29.9020   29.8690   21.6600 C   0  0  2  0  0  0  0  0  0  0  0  0
   29.8210   31.9380   20.5430 C   0  0  2  0  0  0  0  0  0  0  0  0
   31.3410   31.9990   20.6130 C   0  0  0  0  0  0  0  0  0  0  0  0
   29.2780   31.0720   21.4460 O   0  0  0  0  0  0  0  0  0  0  0  0
   31.7280   31.4700   21.9980 C   0  0  1  0  0  0  0  0  0  0  0  0
   31.3280   30.0400   22.0500 C   0  0  1  0  0  0  0  0  0  0  0  0
   29.4790   31.7070   19.2130 O   0  0  0  0  0  0  0  0  0  0  0  0
   28.6600   31.1390   19.1480 H   0  0  0  0  0  0  0  0  0  0  0  0
   29.3100   33.2990   20.9000 C   0  0  0  0  0  0  0  0  0  0  0  0
   28.9110   33.5840   22.0500 O   0  0  0  0  0  0  0  0  0  0  0  0
   29.2770   34.2730   19.9250 O   0  0  0  0  0  0  0  0  0  0  0  0
   30.0980   34.7860   19.6160 H   0  0  0  0  0  0  0  0  0  0  0  0
   33.1000   31.6670   22.1540 O   0  0  0  0  0  0  0  0  0  0  0  0
   33.3500   32.3930   21.4990 H   0  0  0  0  0  0  0  0  0  0  0  0
   31.6500   29.4030   23.3130 N   0  0  0  0  0  0  0  0  0  0  0  0
   32.0840   28.0500   23.4160 C   0  0  0  0  0  0  0  0  0  0  0  0
   31.5740   29.9280   24.2300 H   0  0  0  0  0  0  0  0  0  0  0  0
   32.4020   27.4440   24.7470 C   0  0  0  0  0  0  0  0  0  0  0  0
   32.2040   27.3510   22.3920 O   0  0  0  0  0  0  0  0  0  0  0  0
   30.9630   28.5110   19.9750 O   0  0  0  0  0  0  0  0  0  0  0  0
   30.7440   27.9910   19.1560 H   0  0  0  0  0  0  0  0  0  0  0  0
   29.6450   26.6250   20.9170 O   0  0  0  0  0  0  0  0  0  0  0  0
   30.5150   26.7080   20.4520 H   0  0  0  0  0  0  0  0  0  0  0  0
   27.2660   29.2790   16.3750 O   0  0  0  0  0  0  0  0  0  0  0  0
   26.3660   30.3110   15.9920 C   0  0  0  0  0  0  0  0  0  0  0  0
   26.8770   31.5910   16.5430 C   0  0  0  0  0  0  0  0  0  0  0  0
   27.5220   32.5590   15.7750 C   0  0  0  0  0  0  0  0  0  0  0  0
   26.8490   32.0850   17.7880 N   0  0  0  0  0  0  0  0  0  0  0  0
   27.8450   33.5700   16.5770 N   0  0  0  0  0  0  0  0  0  0  0  0
   27.4330   33.2720   17.7900 N   0  0  0  0  0  0  0  0  0  0  0  0
   28.5250   34.7780   16.1930 C   0  0  0  0  0  0  0  0  0  0  0  0
   29.7310   34.4100   15.3480 C   0  0  0  0  0  0  0  0  0  0  0  0
   30.9700   34.4990   16.0500 N   0  0  0  0  0  0  0  0  0  0  0  0
   31.4340   33.2760   16.6150 C   0  0  0  0  0  0  0  0  0  0  0  0
   31.2070   32.1820   15.5610 C   0  0  0  0  0  0  0  0  0  0  0  0
   31.0880   35.6640   16.8600 C   0  0  0  0  0  0  0  0  0  0  0  0
   31.9970   35.5020   18.0390 C   0  0  0  0  0  0  0  0  0  0  0  0
   29.8670   25.5550   16.9770 C   0  0  0  0  0  0  0  0  0  0  0  0
   28.3450   25.7220   17.0260 C   0  0  0  0  0  0  0  0  0  0  0  0
   27.6010   24.4030   16.8880 C   0  0  0  0  0  0  0  0  0  0  0  0
   26.1640   24.5150   17.3160 C   0  0  0  0  0  0  0  0  0  0  0  0
   25.9680   23.7830   18.6390 C   0  0  0  0  0  0  0  0  0  0  0  0
   25.5500   24.7300   19.6990 N   0  0  0  0  0  0  0  0  0  0  0  0
  1  5  1  0  0  0  0
  2  3  2  0  0  0  0
  2  1  1  0  0  0  0
  4  1  1  0  0  0  0
  6  5  1  6  0  0  0
  6 29  1  0  0  0  0
  7 27  1  1  0  0  0
  7  6  1  0  0  0  0
  8  7  1  6  0  0  0
  8 13  1  0  0  0  0
  9 14  1  6  0  0  0
  9 10  1  0  0  0  0
  9 16  1  0  0  0  0
  9 11  1  0  0  0  0
 10 12  1  0  0  0  0
 11  8  1  0  0  0  0
 12 13  1  0  0  0  0
 12 20  1  6  0  0  0
 13 22  1  1  0  0  0
 15 14  1  0  0  0  0
 16 17  2  0  0  0  0
 18 16  1  0  0  0  0
 19 18  1  0  0  0  0
 21 20  1  0  0  0  0
 22 23  1  0  0  0  0
 22 24  1  0  0  0  0
 23 25  1  0  0  0  0
 26 23  2  0  0  0  0
 28 27  1  0  0  0  0
 30 29  1  0  0  0  0
 31  2  1  0  0  0  0
 32 31  1  0  0  0  0
 32 33  1  0  0  0  0
 33 35  1  0  0  0  0
 34 33  2  0  0  0  0
 34 36  1  0  0  0  0
 35 37  2  0  0  0  0
 36 37  1  0  0  0  0
 38 36  1  0  0  0  0
 39 40  1  0  0  0  0
 39 38  1  0  0  0  0
 40 41  1  0  0  0  0
 40 43  1  0  0  0  0
 42 41  1  0  0  0  0
 43 44  1  0  0  0  0
 45 46  1  0  0  0  0
 47 46  1  0  0  0  0
 47 48  1  0  0  0  0
 48 49  1  0  0  0  0
 49 50  1  0  0  0  0
M  END
>  <REMARK>
 VINA RESULT:    -3.874      1.716      4.162
 INTER + INTRA:         -14.768
 INTER:                  -7.469
 INTRA:                  -7.299
 UNBOUND:                -7.158
 SMILES CCN(CC)CCn1cc(COC(=O)NC[C@@H](O)C(O)[C@@H]2O[C@@](O)(C(=O)O)C[C@H](O)[C@H]2NC(C)=O)nn1
 SMILES IDX 15 1 13 2 14 3 16 5 17 6 19 7 21 8 23 9 28 10 22 11 29 12
 SMILES IDX 31 13 24 14 25 16 26 17 27 18 30 20 32 22 33 23 34 25 35 26
 SMILES IDX 20 27 18 29 12 31 11 32 10 33 9 34 36 35 8 36 37 37 7 38
 SMILES IDX 6 39 3 40 2 41 1 42 4 43 5 44
 H PARENT 15 4 24 15 27 19 30 21 32 24 20 28 18 30
 Flexibility Score: inf
  4 active torsions:
  status: ('A' for Active; 'I' for Inactive)
    1  A    between atoms: CA   and  CB  
    2  A    between atoms: CB   and  CG  
    3  A    between atoms: CG   and  CD  
    4  A    between atoms: CD   and  CE  

>  <TORSDO>
F 19

>  <BEGIN_>
RES LYS A 131

$$$$
ligand_17_pose_2_2HRL.pdbqt
 OpenBabel07062320523D

  6  5  0  0  0  0  0  0  0  0999 V2000
   33.1930   34.6630    9.2900 C   0  0  0  0  0  0  0  0  0  0  0  0
   32.0600   35.3600   10.0340 C   0  0  0  0  0  0  0  0  0  0  0  0
   30.8030   35.5070    9.2160 C   0  0  0  0  0  0  0  0  0  0  0  0
   30.1150   34.1620    9.0430 C   0  0  0  0  0  0  0  0  0  0  0  0
   28.6540   34.3530    8.6810 C   0  0  0  0  0  0  0  0  0  0  0  0
   27.7660   33.6360    9.6380 N   0  0  0  0  0  0  0  0  0  0  0  0
  1  2  1  0  0  0  0
  3  2  1  0  0  0  0
  4  3  1  0  0  0  0
  5  4  1  0  0  0  0
  5  6  1  0  0  0  0
M  END
>  <EGIN_R>
ES LYS A 135

>  <REMARK>
  4 active torsions:
  status: ('A' for Active; 'I' for Inactive)
    5  A    between atoms: CA   and  CB  
    6  A    between atoms: CB   and  CG  
    7  A    between atoms: CG   and  CD  
    8  A    between atoms: CD   and  CE  

$$$$
