ligand_13_pose_1_2HRL.pdbqt
 OpenBabel07062320523D

 49 49  0  0  1  0  0  0  0  0999 V2000
   27.7000   28.5100   18.2450 N   0  0  0  0  0  0  0  0  0  0  0  0
   27.3130   29.0040   16.9790 C   0  0  0  0  0  0  0  0  0  0  0  0
   26.1420   28.9830   16.5860 O   0  0  0  0  0  0  0  0  0  0  0  0
   28.7520   28.6070   18.4380 H   0  0  0  0  0  0  0  0  0  0  0  0
   26.8450   27.9250   19.2260 C   0  0  0  0  0  0  0  0  0  0  0  0
   27.3430   27.8910   20.6300 C   0  0  2  0  0  0  0  0  0  0  0  0
   28.8210   27.9830   20.7610 C   0  0  1  0  0  0  0  0  0  0  0  0
   29.3520   29.2390   21.3970 C   0  0  2  0  0  0  0  0  0  0  0  0
   29.6520   30.9340   19.8140 C   0  0  2  0  0  0  0  0  0  0  0  0
   30.6970   31.6820   20.6140 C   0  0  0  0  0  0  0  0  0  0  0  0
   28.8090   30.2960   20.6700 O   0  0  0  0  0  0  0  0  0  0  0  0
   31.2920   30.7740   21.6250 C   0  0  1  0  0  0  0  0  0  0  0  0
   30.8520   29.3100   21.4600 C   0  0  1  0  0  0  0  0  0  0  0  0
   30.3330   30.1370   18.9120 O   0  0  0  0  0  0  0  0  0  0  0  0
   30.8820   30.7260   18.3450 H   0  0  0  0  0  0  0  0  0  0  0  0
   28.8790   31.9560   19.0730 C   0  0  0  0  0  0  0  0  0  0  0  0
   27.6580   31.7680   18.8900 O   0  0  0  0  0  0  0  0  0  0  0  0
   29.4690   33.0960   18.5880 O   0  0  0  0  0  0  0  0  0  0  0  0
   29.4540   33.3360   17.5960 H   0  0  0  0  0  0  0  0  0  0  0  0
   32.6830   30.8140   21.6630 O   0  0  0  0  0  0  0  0  0  0  0  0
   33.1120   30.0100   21.3090 H   0  0  0  0  0  0  0  0  0  0  0  0
   31.3690   28.6560   22.6440 N   0  0  0  0  0  0  0  0  0  0  0  0
   32.0680   27.4370   22.6610 C   0  0  0  0  0  0  0  0  0  0  0  0
   31.2080   29.1350   23.5570 H   0  0  0  0  0  0  0  0  0  0  0  0
   32.5910   26.7850   23.8860 C   0  0  0  0  0  0  0  0  0  0  0  0
   32.2580   26.8660   21.5420 O   0  0  0  0  0  0  0  0  0  0  0  0
   29.3510   26.8410   21.3100 O   0  0  0  0  0  0  0  0  0  0  0  0
   29.8580   26.2760   20.6750 H   0  0  0  0  0  0  0  0  0  0  0  0
   26.9790   26.6460   21.1860 O   0  0  0  0  0  0  0  0  0  0  0  0
   26.2840   26.7760   21.8960 H   0  0  0  0  0  0  0  0  0  0  0  0
   28.2710   29.5530   16.0960 O   0  0  0  0  0  0  0  0  0  0  0  0
   28.0310   30.7780   15.4310 C   0  0  0  0  0  0  0  0  0  0  0  0
   29.2720   31.5870   15.5600 C   0  0  0  0  0  0  0  0  0  0  0  0
   29.5320   32.8320   15.0390 C   0  0  0  0  0  0  0  0  0  0  0  0
   30.4100   31.2480   16.2270 N   0  0  0  0  0  0  0  0  0  0  0  0
   30.7960   33.1790   15.4120 N   0  0  0  0  0  0  0  0  0  0  0  0
   31.3010   32.1930   16.1330 N   0  0  0  0  0  0  0  0  0  0  0  0
   31.5050   34.3980   15.1000 C   0  0  0  0  0  0  0  0  0  0  0  0
   30.8520   35.5620   15.7190 C   0  0  0  0  0  0  0  0  0  0  0  0
   30.6400   35.5590   16.9510 O   0  0  0  0  0  0  0  0  0  0  0  0
   30.4910   36.6330   14.9020 O   0  0  0  0  0  0  0  0  0  0  0  0
   31.5740   37.4260   14.4060 C   0  0  0  0  0  0  0  0  0  0  0  0
   31.5260   37.3810   12.9000 C   0  0  0  0  0  0  0  0  0  0  0  0
   29.8670   25.5550   16.9770 C   0  0  0  0  0  0  0  0  0  0  0  0
   28.3450   25.7220   17.0260 C   0  0  0  0  0  0  0  0  0  0  0  0
   27.6010   24.4020   16.8970 C   0  0  0  0  0  0  0  0  0  0  0  0
   26.6610   24.1670   18.0470 C   0  0  0  0  0  0  0  0  0  0  0  0
   25.3130   24.8130   17.7420 C   0  0  0  0  0  0  0  0  0  0  0  0
   24.5610   25.0600   18.9950 N   0  0  0  0  0  0  0  0  0  0  0  0
  1  4  1  0  0  0  0
  1  5  1  0  0  0  0
  2  1  1  0  0  0  0
  3  2  2  0  0  0  0
  6  5  1  6  0  0  0
  6  7  1  0  0  0  0
  6 29  1  0  0  0  0
  7 27  1  1  0  0  0
  8  7  1  6  0  0  0
  8 13  1  0  0  0  0
  9 14  1  6  0  0  0
  9 10  1  0  0  0  0
  9 11  1  0  0  0  0
 10 12  1  0  0  0  0
 11  8  1  0  0  0  0
 12 20  1  6  0  0  0
 13 12  1  0  0  0  0
 13 22  1  1  0  0  0
 15 14  1  0  0  0  0
 16  9  1  0  0  0  0
 17 16  2  0  0  0  0
 18 16  1  0  0  0  0
 19 18  1  0  0  0  0
 21 20  1  0  0  0  0
 22 23  1  0  0  0  0
 22 24  1  0  0  0  0
 23 25  1  0  0  0  0
 26 23  2  0  0  0  0
 28 27  1  0  0  0  0
 29 30  1  0  0  0  0
 31  2  1  0  0  0  0
 32 33  1  0  0  0  0
 32 31  1  0  0  0  0
 33 35  1  0  0  0  0
 34 36  1  0  0  0  0
 34 33  2  0  0  0  0
 36 37  1  0  0  0  0
 37 35  2  0  0  0  0
 38 36  1  0  0  0  0
 38 39  1  0  0  0  0
 39 40  2  0  0  0  0
 41 39  1  0  0  0  0
 42 41  1  0  0  0  0
 43 42  1  0  0  0  0
 44 45  1  0  0  0  0
 46 45  1  0  0  0  0
 46 47  1  0  0  0  0
 48 47  1  0  0  0  0
 48 49  1  0  0  0  0
M  END
>  <REMARK>
 VINA RESULT:    -4.511      1.868      6.650
 INTER + INTRA:         -14.547
 INTER:                  -7.936
 INTRA:                  -6.611
 UNBOUND:                -5.949
 SMILES CCOC(=O)Cn1cc(COC(=O)NC[C@@H](O)C(O)[C@@H]2O[C@@](O)(C(=O)O)C[C@H](O)[C@H]2NC(C)=O)nn1
 SMILES IDX 14 1 12 2 13 3 15 5 16 6 18 7 20 8 22 9 27 10 21 11 28 12
 SMILES IDX 30 13 23 14 24 16 25 17 26 18 29 20 31 22 32 23 33 25 34 26
 SMILES IDX 19 27 17 29 11 31 10 32 9 33 8 34 35 35 7 36 36 37 6 38 4 39
 SMILES IDX 5 40 3 41 2 42 1 43
 H PARENT 14 4 23 15 26 19 29 21 31 24 19 28 17 30
 Flexibility Score: inf
  4 active torsions:
  status: ('A' for Active; 'I' for Inactive)
    1  A    between atoms: CA   and  CB  
    2  A    between atoms: CB   and  CG  
    3  A    between atoms: CG   and  CD  
    4  A    between atoms: CD   and  CE  

>  <TORSDO>
F 18

>  <BEGIN_>
RES LYS A 131

$$$$
ligand_13_pose_1_2HRL.pdbqt
 OpenBabel07062320523D

  6  5  0  0  0  0  0  0  0  0999 V2000
   33.1930   34.6630    9.2900 C   0  0  0  0  0  0  0  0  0  0  0  0
   32.0600   35.3600   10.0340 C   0  0  0  0  0  0  0  0  0  0  0  0
   30.7020   34.7730    9.7500 C   0  0  0  0  0  0  0  0  0  0  0  0
   30.5120   34.5580    8.2560 C   0  0  0  0  0  0  0  0  0  0  0  0
   29.0700   34.8100    7.8600 C   0  0  0  0  0  0  0  0  0  0  0  0
   28.1340   34.3700    8.9330 N   0  0  0  0  0  0  0  0  0  0  0  0
  1  2  1  0  0  0  0
  3  2  1  0  0  0  0
  4  3  1  0  0  0  0
  5  4  1  0  0  0  0
  5  6  1  0  0  0  0
M  END
>  <EGIN_R>
ES LYS A 135

>  <REMARK>
  4 active torsions:
  status: ('A' for Active; 'I' for Inactive)
    5  A    between atoms: CA   and  CB  
    6  A    between atoms: CB   and  CG  
    7  A    between atoms: CG   and  CD  
    8  A    between atoms: CD   and  CE  

$$$$
