ligand_58_pose_7_2HRL.pdbqt
 OpenBabel07062320523D

 56 58  0  0  1  0  0  0  0  0999 V2000
   27.9210   28.9380   18.1300 N   0  0  0  0  0  0  0  0  0  0  0  0
   28.2290   30.2060   17.5900 C   0  0  0  0  0  0  0  0  0  0  0  0
   27.9100   31.2490   18.2080 O   0  0  0  0  0  0  0  0  0  0  0  0
   28.1970   28.0920   17.5920 H   0  0  0  0  0  0  0  0  0  0  0  0
   27.2480   28.8010   19.3830 C   0  0  0  0  0  0  0  0  0  0  0  0
   28.0650   27.8690   20.2810 C   0  0  2  0  0  0  0  0  0  0  0  0
   29.2330   28.7050   20.7780 C   0  0  2  0  0  0  0  0  0  0  0  0
   29.7500   28.3210   22.1360 C   0  0  2  0  0  0  0  0  0  0  0  0
   31.8830   29.3170   22.0740 C   0  0  2  0  0  0  0  0  0  0  0  0
   32.5460   27.9600   21.9760 C   0  0  0  0  0  0  0  0  0  0  0  0
   30.6110   29.3240   22.5360 O   0  0  0  0  0  0  0  0  0  0  0  0
   31.6410   26.9070   21.4100 C   0  0  1  0  0  0  0  0  0  0  0  0
   30.3490   26.9710   22.1680 C   0  0  1  0  0  0  0  0  0  0  0  0
   31.8860   29.8280   20.7740 O   0  0  0  0  0  0  0  0  0  0  0  0
   31.3810   30.6880   20.8060 H   0  0  0  0  0  0  0  0  0  0  0  0
   32.7770   30.2190   22.8870 C   0  0  0  0  0  0  0  0  0  0  0  0
   33.8710   30.5990   22.4610 O   0  0  0  0  0  0  0  0  0  0  0  0
   32.3410   30.6160   24.1290 O   0  0  0  0  0  0  0  0  0  0  0  0
   32.9200   31.2620   24.6780 H   0  0  0  0  0  0  0  0  0  0  0  0
   31.5250   27.1100   20.0650 O   0  0  0  0  0  0  0  0  0  0  0  0
   32.4080   27.3030   19.6460 H   0  0  0  0  0  0  0  0  0  0  0  0
   30.6460   26.5560   23.5540 N   0  0  0  0  0  0  0  0  0  0  0  0
   29.7240   25.8390   24.3350 C   0  0  0  0  0  0  0  0  0  0  0  0
   31.5740   26.8140   23.9510 H   0  0  0  0  0  0  0  0  0  0  0  0
   30.0630   25.4410   25.7260 C   0  0  0  0  0  0  0  0  0  0  0  0
   28.5960   25.5240   23.8660 O   0  0  0  0  0  0  0  0  0  0  0  0
   28.6910   30.0380   20.8860 O   0  0  0  0  0  0  0  0  0  0  0  0
   28.2250   30.2870   20.0730 H   0  0  0  0  0  0  0  0  0  0  0  0
   28.4710   26.8310   19.4560 O   0  0  0  0  0  0  0  0  0  0  0  0
   27.7480   26.4640   18.9110 H   0  0  0  0  0  0  0  0  0  0  0  0
   28.8870   30.3450   16.3740 O   0  0  0  0  0  0  0  0  0  0  0  0
   28.6720   31.5030   15.6160 C   0  0  0  0  0  0  0  0  0  0  0  0
   29.8850   32.3570   15.6830 C   0  0  0  0  0  0  0  0  0  0  0  0
   29.8860   33.7540   15.7290 C   0  0  0  0  0  0  0  0  0  0  0  0
   31.1870   32.0240   15.7100 N   0  0  0  0  0  0  0  0  0  0  0  0
   31.1490   34.1850   15.7800 N   0  0  0  0  0  0  0  0  0  0  0  0
   31.9200   33.1300   15.7670 N   0  0  0  0  0  0  0  0  0  0  0  0
   31.6230   35.5600   15.8380 C   0  0  0  0  0  0  0  0  0  0  0  0
   32.7590   35.7000   16.7500 C   0  0  0  0  0  0  0  0  0  0  0  0
   34.0520   35.9740   16.2910 C   0  0  0  0  0  0  0  0  0  0  0  0
   32.5680   35.5810   18.1120 C   0  0  0  0  0  0  0  0  0  0  0  0
   35.1000   36.1180   17.1740 C   0  0  0  0  0  0  0  0  0  0  0  0
   33.6340   35.7300   18.9770 C   0  0  0  0  0  0  0  0  0  0  0  0
   34.9140   35.9990   18.5370 C   0  0  0  0  0  0  0  0  0  0  0  0
   31.7670   36.1850   14.5210 C   0  0  0  0  0  0  0  0  0  0  0  0
   32.4790   35.5350   13.4970 C   0  0  0  0  0  0  0  0  0  0  0  0
   31.2040   37.4110   14.2610 C   0  0  0  0  0  0  0  0  0  0  0  0
   32.6090   36.1120   12.2610 C   0  0  0  0  0  0  0  0  0  0  0  0
   31.3440   37.9910   12.9960 C   0  0  0  0  0  0  0  0  0  0  0  0
   32.0430   37.3420   12.0050 C   0  0  0  0  0  0  0  0  0  0  0  0
   29.8670   25.5550   16.9770 C   0  0  0  0  0  0  0  0  0  0  0  0
   28.3450   25.7220   17.0260 C   0  0  0  0  0  0  0  0  0  0  0  0
   27.6010   24.4050   16.8660 C   0  0  0  0  0  0  0  0  0  0  0  0
   26.5600   24.2090   17.9330 C   0  0  0  0  0  0  0  0  0  0  0  0
   25.6410   23.0570   17.5420 C   0  0  0  0  0  0  0  0  0  0  0  0
   24.3090   23.5680   17.1410 N   0  0  0  0  0  0  0  0  0  0  0  0
  1  5  1  0  0  0  0
  2  1  1  0  0  0  0
  2  3  2  0  0  0  0
  4  1  1  0  0  0  0
  6  5  1  6  0  0  0
  6  7  1  0  0  0  0
  7 27  1  1  0  0  0
  8  7  1  6  0  0  0
  8 13  1  0  0  0  0
  8 11  1  0  0  0  0
  9 14  1  6  0  0  0
  9 11  1  0  0  0  0
  9 16  1  0  0  0  0
 10  9  1  0  0  0  0
 12 20  1  6  0  0  0
 12 10  1  0  0  0  0
 12 13  1  0  0  0  0
 13 22  1  1  0  0  0
 14 15  1  0  0  0  0
 16 18  1  0  0  0  0
 17 16  2  0  0  0  0
 18 19  1  0  0  0  0
 21 20  1  0  0  0  0
 22 24  1  0  0  0  0
 22 23  1  0  0  0  0
 23 25  1  0  0  0  0
 26 23  2  0  0  0  0
 28 27  1  0  0  0  0
 29  6  1  0  0  0  0
 30 29  1  0  0  0  0
 31  2  1  0  0  0  0
 32 33  1  0  0  0  0
 32 31  1  0  0  0  0
 33 35  1  0  0  0  0
 33 34  2  0  0  0  0
 34 36  1  0  0  0  0
 35 37  2  0  0  0  0
 36 38  1  0  0  0  0
 37 36  1  0  0  0  0
 38 39  1  0  0  0  0
 39 41  1  0  0  0  0
 40 39  2  0  0  0  0
 40 42  1  0  0  0  0
 41 43  2  0  0  0  0
 42 44  2  0  0  0  0
 44 43  1  0  0  0  0
 45 38  1  0  0  0  0
 46 45  2  0  0  0  0
 47 45  1  0  0  0  0
 48 46  1  0  0  0  0
 49 47  2  0  0  0  0
 50 48  2  0  0  0  0
 50 49  1  0  0  0  0
 51 52  1  0  0  0  0
 53 52  1  0  0  0  0
 53 54  1  0  0  0  0
 55 54  1  0  0  0  0
 56 55  1  0  0  0  0
M  END
>  <REMARK>
 VINA RESULT:    -5.858      3.418      7.916
 INTER + INTRA:         -16.314
 INTER:                 -10.861
 INTRA:                  -5.453
 UNBOUND:                -5.490
 SMILES CC(=O)N[C@@H]1[C@@H](O)C[C@](O)(C(=O)O)O[C@H]1C(O)[C@H](O)CNC(=O)OCc1cn(C(c2ccccc2)c2ccccc2)nn1
 SMILES IDX 21 1 22 2 23 3 20 5 18 6 16 7 15 8 9 9 8 10 14 11 6 12 5 13
 SMILES IDX 10 14 11 16 12 17 13 18 7 20 4 22 2 23 1 25 3 26 17 27 19 29
 SMILES IDX 24 31 25 32 26 33 27 34 43 35 28 36 42 37 29 38 30 39 31 40
 SMILES IDX 35 41 32 42 34 43 33 44 36 45 37 46 41 47 38 48 40 49 39 50
 H PARENT 21 4 10 15 13 19 7 21 4 24 17 28 19 30
 Flexibility Score: inf
  4 active torsions:
  status: ('A' for Active; 'I' for Inactive)
    1  A    between atoms: CA   and  CB  
    2  A    between atoms: CB   and  CG  
    3  A    between atoms: CG   and  CD  
    4  A    between atoms: CD   and  CE  

>  <TORSDO>
F 17

>  <BEGIN_>
RES LYS A 131

$$$$
ligand_58_pose_7_2HRL.pdbqt
 OpenBabel07062320523D

  6  5  0  0  0  0  0  0  0  0999 V2000
   33.1930   34.6630    9.2900 C   0  0  0  0  0  0  0  0  0  0  0  0
   32.0600   35.3600   10.0340 C   0  0  0  0  0  0  0  0  0  0  0  0
   30.7050   34.7540    9.7720 C   0  0  0  0  0  0  0  0  0  0  0  0
   30.5080   34.5020    8.2850 C   0  0  0  0  0  0  0  0  0  0  0  0
   29.3780   35.3570    7.7450 C   0  0  0  0  0  0  0  0  0  0  0  0
   28.5990   35.9780    8.8520 N   0  0  0  0  0  0  0  0  0  0  0  0
  1  2  1  0  0  0  0
  3  2  1  0  0  0  0
  4  3  1  0  0  0  0
  5  4  1  0  0  0  0
  5  6  1  0  0  0  0
M  END
>  <EGIN_R>
ES LYS A 135

>  <REMARK>
  4 active torsions:
  status: ('A' for Active; 'I' for Inactive)
    5  A    between atoms: CA   and  CB  
    6  A    between atoms: CB   and  CG  
    7  A    between atoms: CG   and  CD  
    8  A    between atoms: CD   and  CE  

$$$$
