ligand_55_pose_7_2HRL.pdbqt
 OpenBabel07062320523D

 51 51  0  0  1  0  0  0  0  0999 V2000
   28.8790   40.8190    4.7790 N   0  0  0  0  0  0  0  0  0  0  0  0
   27.9460   40.3710    5.7360 C   0  0  0  0  0  0  0  0  0  0  0  0
   27.6580   41.0080    6.7620 O   0  0  0  0  0  0  0  0  0  0  0  0
   29.0370   40.1900    3.9350 H   0  0  0  0  0  0  0  0  0  0  0  0
   29.6190   42.0240    4.8390 C   0  0  0  0  0  0  0  0  0  0  0  0
   31.0630   41.9220    5.2630 C   0  0  2  0  0  0  0  0  0  0  0  0
   31.4540   40.4820    5.1430 C   0  0  2  0  0  0  0  0  0  0  0  0
   31.7900   39.7580    6.4070 C   0  0  2  0  0  0  0  0  0  0  0  0
   30.9580   39.4790    8.5810 C   0  0  2  0  0  0  0  0  0  0  0  0
   32.3410   39.3430    9.1220 C   0  0  0  0  0  0  0  0  0  0  0  0
   30.8230   39.9000    7.3160 O   0  0  0  0  0  0  0  0  0  0  0  0
   33.3710   40.1140    8.3430 C   0  0  1  0  0  0  0  0  0  0  0  0
   33.2030   39.9420    6.8720 C   0  0  1  0  0  0  0  0  0  0  0  0
   30.2420   40.3400    9.4210 O   0  0  0  0  0  0  0  0  0  0  0  0
   29.3340   40.4420    9.0630 H   0  0  0  0  0  0  0  0  0  0  0  0
   30.2910   38.1490    8.6960 C   0  0  0  0  0  0  0  0  0  0  0  0
   29.1270   37.9870    9.1060 O   0  0  0  0  0  0  0  0  0  0  0  0
   30.9860   36.9830    8.3270 O   0  0  0  0  0  0  0  0  0  0  0  0
   30.7600   36.4820    7.4770 H   0  0  0  0  0  0  0  0  0  0  0  0
   33.3480   41.4360    8.7680 O   0  0  0  0  0  0  0  0  0  0  0  0
   32.8280   41.4560    9.6120 H   0  0  0  0  0  0  0  0  0  0  0  0
   34.0640   38.8510    6.4530 N   0  0  0  0  0  0  0  0  0  0  0  0
   35.1880   39.0200    5.6020 C   0  0  0  0  0  0  0  0  0  0  0  0
   33.8890   37.8500    6.7710 H   0  0  0  0  0  0  0  0  0  0  0  0
   36.0490   37.8590    5.1960 C   0  0  0  0  0  0  0  0  0  0  0  0
   35.4300   40.1890    5.2040 O   0  0  0  0  0  0  0  0  0  0  0  0
   32.5770   40.4920    4.2630 O   0  0  0  0  0  0  0  0  0  0  0  0
   33.3930   40.7430    4.7430 H   0  0  0  0  0  0  0  0  0  0  0  0
   31.2110   42.4880    6.5000 O   0  0  0  0  0  0  0  0  0  0  0  0
   30.5930   42.1310    7.1490 H   0  0  0  0  0  0  0  0  0  0  0  0
   27.3010   39.1540    5.5470 O   0  0  0  0  0  0  0  0  0  0  0  0
   27.9050   38.0300    4.9570 C   0  0  0  0  0  0  0  0  0  0  0  0
   27.9680   36.9070    5.9110 C   0  0  0  0  0  0  0  0  0  0  0  0
   26.9870   36.4400    6.7630 C   0  0  0  0  0  0  0  0  0  0  0  0
   29.0260   36.1260    6.1140 N   0  0  0  0  0  0  0  0  0  0  0  0
   27.4740   35.3990    7.4520 N   0  0  0  0  0  0  0  0  0  0  0  0
   28.7230   35.2310    7.0320 N   0  0  0  0  0  0  0  0  0  0  0  0
   26.8540   34.5730    8.4540 C   0  0  0  0  0  0  0  0  0  0  0  0
   27.8480   34.0930    9.4970 C   0  0  0  0  0  0  0  0  0  0  0  0
   28.3390   35.2610   10.1950 N   0  0  0  0  0  0  0  0  0  0  0  0
   28.1130   36.1360    9.7020 H   0  0  0  0  0  0  0  0  0  0  0  0
   27.7830   35.3320   11.8210 S   0  0  0  0  0  0  0  0  0  0  0  0
   28.7950   34.6110   12.6720 O   0  0  0  0  0  0  0  0  0  0  0  0
   27.6260   36.7600   12.2340 O   0  0  0  0  0  0  0  0  0  0  0  0
   26.2250   34.4920   11.9930 C   0  0  0  0  0  0  0  0  0  0  0  0
   29.8670   25.5550   16.9770 C   0  0  0  0  0  0  0  0  0  0  0  0
   28.3450   25.7220   17.0260 C   0  0  0  0  0  0  0  0  0  0  0  0
   27.6010   24.4010   16.8990 C   0  0  0  0  0  0  0  0  0  0  0  0
   26.4940   24.2760   17.9080 C   0  0  0  0  0  0  0  0  0  0  0  0
   26.3210   25.6010   18.6420 C   0  0  0  0  0  0  0  0  0  0  0  0
   24.9790   26.1700   18.3780 N   0  0  0  0  0  0  0  0  0  0  0  0
  1  5  1  0  0  0  0
  1  2  1  0  0  0  0
  2  3  2  0  0  0  0
  4  1  1  0  0  0  0
  6  5  1  1  0  0  0
  6 29  1  0  0  0  0
  7 27  1  6  0  0  0
  7  6  1  0  0  0  0
  8  7  1  6  0  0  0
  8 13  1  0  0  0  0
  8 11  1  0  0  0  0
  9 16  1  1  0  0  0
  9 10  1  0  0  0  0
  9 14  1  0  0  0  0
 11  9  1  0  0  0  0
 12 20  1  6  0  0  0
 12 10  1  0  0  0  0
 13 22  1  1  0  0  0
 13 12  1  0  0  0  0
 15 14  1  0  0  0  0
 16 17  2  0  0  0  0
 18 16  1  0  0  0  0
 19 18  1  0  0  0  0
 20 21  1  0  0  0  0
 22 24  1  0  0  0  0
 23 22  1  0  0  0  0
 25 23  1  0  0  0  0
 26 23  2  0  0  0  0
 27 28  1  0  0  0  0
 29 30  1  0  0  0  0
 31  2  1  0  0  0  0
 32 31  1  0  0  0  0
 32 33  1  0  0  0  0
 33 35  1  0  0  0  0
 33 34  2  0  0  0  0
 34 36  1  0  0  0  0
 35 37  2  0  0  0  0
 36 38  1  0  0  0  0
 37 36  1  0  0  0  0
 38 39  1  0  0  0  0
 39 40  1  0  0  0  0
 40 42  1  0  0  0  0
 41 40  1  0  0  0  0
 42 45  1  0  0  0  0
 42 44  2  0  0  0  0
 42 43  2  0  0  0  0
 46 47  1  0  0  0  0
 48 47  1  0  0  0  0
 48 49  1  0  0  0  0
 49 50  1  0  0  0  0
 51 50  1  0  0  0  0
M  END
>  <REMARK>
 VINA RESULT:    -4.580      6.501     12.970
 INTER + INTRA:         -15.007
 INTER:                  -9.610
 INTRA:                  -5.396
 UNBOUND:                -6.277
 SMILES CC(=O)N[C@@H]1[C@@H](O)C[C@](O)(C(=O)O)O[C@H]1C(O)[C@H](O)CNC(=O)OCc1cn(CCNS(C)(=O)=O)nn1
 SMILES IDX 21 1 22 2 23 3 20 5 18 6 16 7 15 8 9 9 8 10 14 11 6 12 5 13
 SMILES IDX 10 14 11 16 12 17 13 18 7 20 4 22 2 23 1 25 3 26 17 27 19 29
 SMILES IDX 24 31 25 32 26 33 27 34 37 35 28 36 36 37 29 38 30 39 31 40
 SMILES IDX 32 42 34 43 35 44 33 45
 H PARENT 21 4 10 15 13 19 7 21 4 24 17 28 19 30 31 41
 Flexibility Score: inf
  4 active torsions:
  status: ('A' for Active; 'I' for Inactive)
    1  A    between atoms: CA   and  CB  
    2  A    between atoms: CB   and  CG  
    3  A    between atoms: CG   and  CD  
    4  A    between atoms: CD   and  CE  

>  <TORSDO>
F 18

>  <BEGIN_>
RES LYS A 131

$$$$
ligand_55_pose_7_2HRL.pdbqt
 OpenBabel07062320523D

  6  5  0  0  0  0  0  0  0  0999 V2000
   33.1930   34.6630    9.2900 C   0  0  0  0  0  0  0  0  0  0  0  0
   32.0600   35.3600   10.0340 C   0  0  0  0  0  0  0  0  0  0  0  0
   32.2180   35.3360   11.5320 C   0  0  0  0  0  0  0  0  0  0  0  0
   32.3610   36.7470   12.0800 C   0  0  0  0  0  0  0  0  0  0  0  0
   31.0060   37.4220   12.1720 C   0  0  0  0  0  0  0  0  0  0  0  0
   31.1490   38.8750   12.4690 N   0  0  0  0  0  0  0  0  0  0  0  0
  1  2  1  0  0  0  0
  2  3  1  0  0  0  0
  3  4  1  0  0  0  0
  4  5  1  0  0  0  0
  5  6  1  0  0  0  0
M  END
>  <EGIN_R>
ES LYS A 135

>  <REMARK>
  4 active torsions:
  status: ('A' for Active; 'I' for Inactive)
    5  A    between atoms: CA   and  CB  
    6  A    between atoms: CB   and  CG  
    7  A    between atoms: CG   and  CD  
    8  A    between atoms: CD   and  CE  

$$$$
