ligand_67_pose_12_2HRL.pdbqt
 OpenBabel07062320523D

 50 51  0  0  1  0  0  0  0  0999 V2000
   27.8180   30.8080   15.8110 N   0  0  0  0  0  0  0  0  0  0  0  0
   27.2380   29.9590   16.7850 C   0  0  0  0  0  0  0  0  0  0  0  0
   27.6910   29.9820   17.9790 O   0  0  0  0  0  0  0  0  0  0  0  0
   27.4580   30.7970   14.8430 H   0  0  0  0  0  0  0  0  0  0  0  0
   28.8920   31.6700   16.1770 C   0  0  0  0  0  0  0  0  0  0  0  0
   29.0210   32.8840   15.2980 C   0  0  2  0  0  0  0  0  0  0  0  0
   30.3210   32.9340   14.5530 C   0  0  1  0  0  0  0  0  0  0  0  0
   30.9170   34.3230   14.6210 C   0  0  2  0  0  0  0  0  0  0  0  0
   31.9010   35.9100   13.2340 C   0  0  2  0  0  0  0  0  0  0  0  0
   32.8910   36.1950   14.3260 C   0  0  0  0  0  0  0  0  0  0  0  0
   31.2480   34.7110   13.3490 O   0  0  0  0  0  0  0  0  0  0  0  0
   33.3310   34.8650   14.9020 C   0  0  1  0  0  0  0  0  0  0  0  0
   32.1070   34.2490   15.5660 C   0  0  1  0  0  0  0  0  0  0  0  0
   32.6280   35.8590   12.0210 O   0  0  0  0  0  0  0  0  0  0  0  0
   33.0290   34.9800   11.8750 H   0  0  0  0  0  0  0  0  0  0  0  0
   30.9640   37.0670   13.0750 C   0  0  0  0  0  0  0  0  0  0  0  0
   30.2460   37.2520   12.0680 O   0  0  0  0  0  0  0  0  0  0  0  0
   30.9040   37.9780   14.1200 O   0  0  0  0  0  0  0  0  0  0  0  0
   30.4190   37.8070   14.9950 H   0  0  0  0  0  0  0  0  0  0  0  0
   33.7230   34.0350   13.8420 O   0  0  0  0  0  0  0  0  0  0  0  0
   33.7970   34.5280   12.9910 H   0  0  0  0  0  0  0  0  0  0  0  0
   31.8510   34.9730   16.8020 N   0  0  0  0  0  0  0  0  0  0  0  0
   31.4710   34.2490   17.9600 C   0  0  0  0  0  0  0  0  0  0  0  0
   31.9440   36.0280   16.8440 H   0  0  0  0  0  0  0  0  0  0  0  0
   31.1870   34.8950   19.2670 C   0  0  0  0  0  0  0  0  0  0  0  0
   31.3740   32.9910   17.8650 O   0  0  0  0  0  0  0  0  0  0  0  0
   31.2010   31.9520   15.0060 O   0  0  0  0  0  0  0  0  0  0  0  0
   30.8610   31.4350   15.7670 H   0  0  0  0  0  0  0  0  0  0  0  0
   28.8860   34.0230   16.0770 O   0  0  0  0  0  0  0  0  0  0  0  0
   28.9380   33.8550   17.0370 H   0  0  0  0  0  0  0  0  0  0  0  0
   26.2070   29.0950   16.5450 O   0  0  0  0  0  0  0  0  0  0  0  0
   24.8300   29.4180   16.5490 C   0  0  0  0  0  0  0  0  0  0  0  0
   24.3570   29.8940   15.2270 C   0  0  0  0  0  0  0  0  0  0  0  0
   23.1050   29.7100   14.6890 C   0  0  0  0  0  0  0  0  0  0  0  0
   25.0550   30.5850   14.3120 N   0  0  0  0  0  0  0  0  0  0  0  0
   23.0780   30.2910   13.4700 N   0  0  0  0  0  0  0  0  0  0  0  0
   24.2740   30.8130   13.2680 N   0  0  0  0  0  0  0  0  0  0  0  0
   21.9740   30.3650   12.5220 C   0  0  0  0  0  0  0  0  0  0  0  0
   21.4970   28.9760   12.1530 C   0  0  0  0  0  0  0  0  0  0  0  0
   20.0080   28.8980   12.1470 C   0  0  0  0  0  0  0  0  0  0  0  0
   19.4990   27.8070   11.4550 O   0  0  0  0  0  0  0  0  0  0  0  0
   19.3800   30.0240   11.6340 O   0  0  0  0  0  0  0  0  0  0  0  0
   18.1930   28.1410   11.1040 C   0  0  0  0  0  0  0  0  0  0  0  0
   18.1540   29.6410   11.1480 C   0  0  0  0  0  0  0  0  0  0  0  0
   29.8670   25.5550   16.9770 C   0  0  0  0  0  0  0  0  0  0  0  0
   28.3450   25.7220   17.0260 C   0  0  0  0  0  0  0  0  0  0  0  0
   27.5990   24.4400   16.6910 C   0  0  0  0  0  0  0  0  0  0  0  0
   27.0090   23.7920   17.9130 C   0  0  0  0  0  0  0  0  0  0  0  0
   25.6240   23.2460   17.5820 C   0  0  0  0  0  0  0  0  0  0  0  0
   24.7930   24.2930   16.9400 N   0  0  0  0  0  0  0  0  0  0  0  0
  1  5  1  0  0  0  0
  1  2  1  0  0  0  0
  2  3  2  0  0  0  0
  4  1  1  0  0  0  0
  6 29  1  0  0  0  0
  6  5  1  1  0  0  0
  7 27  1  1  0  0  0
  7  6  1  0  0  0  0
  8  7  1  6  0  0  0
  8 13  1  0  0  0  0
  9 14  1  6  0  0  0
  9 11  1  0  0  0  0
  9 10  1  0  0  0  0
 10 12  1  0  0  0  0
 11  8  1  0  0  0  0
 12 20  1  6  0  0  0
 12 13  1  0  0  0  0
 13 22  1  1  0  0  0
 15 14  1  0  0  0  0
 16  9  1  0  0  0  0
 16 18  1  0  0  0  0
 17 16  2  0  0  0  0
 18 19  1  0  0  0  0
 21 20  1  0  0  0  0
 22 24  1  0  0  0  0
 22 23  1  0  0  0  0
 23 25  1  0  0  0  0
 26 23  2  0  0  0  0
 27 28  1  0  0  0  0
 29 30  1  0  0  0  0
 31 32  1  0  0  0  0
 31  2  1  0  0  0  0
 33 32  1  0  0  0  0
 34 33  2  0  0  0  0
 35 33  1  0  0  0  0
 36 34  1  0  0  0  0
 37 36  1  0  0  0  0
 37 35  2  0  0  0  0
 38 36  1  0  0  0  0
 39 38  1  0  0  0  0
 40 39  1  0  0  0  0
 41 40  1  0  0  0  0
 42 40  1  0  0  0  0
 43 44  1  0  0  0  0
 43 41  1  0  0  0  0
 44 42  1  0  0  0  0
 45 46  1  0  0  0  0
 47 46  1  0  0  0  0
 47 48  1  0  0  0  0
 49 48  1  0  0  0  0
 50 49  1  0  0  0  0
M  END
>  <REMARK>
 VINA RESULT:    -4.263      3.435      6.273
 INTER + INTRA:         -14.168
 INTER:                  -9.300
 INTRA:                  -4.868
 UNBOUND:                -6.292
 SMILES CC(=O)N[C@@H]1[C@@H](O)C[C@](O)(C(=O)O)O[C@H]1C(O)[C@H](O)CNC(=O)OCc1cn(CCC2OCCO2)nn1
 SMILES IDX 21 1 22 2 23 3 20 5 18 6 16 7 15 8 9 9 8 10 14 11 6 12 5 13
 SMILES IDX 10 14 11 16 12 17 13 18 7 20 4 22 2 23 1 25 3 26 17 27 19 29
 SMILES IDX 24 31 25 32 26 33 27 34 37 35 28 36 36 37 29 38 30 39 31 40
 SMILES IDX 32 41 35 42 33 43 34 44
 H PARENT 21 4 10 15 13 19 7 21 4 24 17 28 19 30
 Flexibility Score: inf
  4 active torsions:
  status: ('A' for Active; 'I' for Inactive)
    1  A    between atoms: CA   and  CB  
    2  A    between atoms: CB   and  CG  
    3  A    between atoms: CG   and  CD  
    4  A    between atoms: CD   and  CE  

>  <TORSDO>
F 17

>  <BEGIN_>
RES LYS A 131

$$$$
ligand_67_pose_12_2HRL.pdbqt
 OpenBabel07062320523D

  6  5  0  0  0  0  0  0  0  0999 V2000
   33.1930   34.6630    9.2900 C   0  0  0  0  0  0  0  0  0  0  0  0
   32.0600   35.3600   10.0340 C   0  0  0  0  0  0  0  0  0  0  0  0
   30.7900   35.4710    9.2310 C   0  0  0  0  0  0  0  0  0  0  0  0
   29.9870   34.1820    9.3160 C   0  0  0  0  0  0  0  0  0  0  0  0
   28.7280   34.3920   10.1350 C   0  0  0  0  0  0  0  0  0  0  0  0
   27.5350   33.8400    9.4360 N   0  0  0  0  0  0  0  0  0  0  0  0
  1  2  1  0  0  0  0
  3  4  1  0  0  0  0
  3  2  1  0  0  0  0
  4  5  1  0  0  0  0
  6  5  1  0  0  0  0
M  END
>  <EGIN_R>
ES LYS A 135

>  <REMARK>
  4 active torsions:
  status: ('A' for Active; 'I' for Inactive)
    5  A    between atoms: CA   and  CB  
    6  A    between atoms: CB   and  CG  
    7  A    between atoms: CG   and  CD  
    8  A    between atoms: CD   and  CE  

$$$$
