ligand_40_pose_7_2HRL.pdbqt
 OpenBabel07062320523D

 50 51  0  0  1  0  0  0  0  0999 V2000
   26.0830   28.2710   21.0520 C   0  0  0  0  0  0  0  0  0  0  0  0
   27.2890   27.9630   21.8380 C   0  0  2  0  0  0  0  0  0  0  0  0
   28.6030   28.5510   21.4340 C   0  0  2  0  0  0  0  0  0  0  0  0
   29.7160   28.4640   22.4290 C   0  0  2  0  0  0  0  0  0  0  0  0
   31.4540   29.5430   21.2860 C   0  0  2  0  0  0  0  0  0  0  0  0
   32.3750   28.3380   21.3650 C   0  0  0  0  0  0  0  0  0  0  0  0
   30.5270   29.5990   22.2780 O   0  0  0  0  0  0  0  0  0  0  0  0
   31.5310   27.0820   21.5110 C   0  0  1  0  0  0  0  0  0  0  0  0
   30.4930   27.2210   22.5770 C   0  0  1  0  0  0  0  0  0  0  0  0
   30.9510   29.5770   20.0080 O   0  0  0  0  0  0  0  0  0  0  0  0
   31.3700   28.9320   19.3830 H   0  0  0  0  0  0  0  0  0  0  0  0
   32.3500   30.7290   21.4630 C   0  0  0  0  0  0  0  0  0  0  0  0
   31.9480   31.9110   21.2430 O   0  0  0  0  0  0  0  0  0  0  0  0
   33.6550   30.5540   21.8740 O   0  0  0  0  0  0  0  0  0  0  0  0
   34.3770   31.1880   21.5240 H   0  0  0  0  0  0  0  0  0  0  0  0
   30.8690   26.9680   20.2880 O   0  0  0  0  0  0  0  0  0  0  0  0
   30.0280   26.4490   20.3720 H   0  0  0  0  0  0  0  0  0  0  0  0
   31.0350   27.2250   23.9230 N   0  0  0  0  0  0  0  0  0  0  0  0
   30.7740   26.2180   24.8670 C   0  0  0  0  0  0  0  0  0  0  0  0
   31.6440   28.0360   24.1560 H   0  0  0  0  0  0  0  0  0  0  0  0
   31.3100   26.1940   26.2410 C   0  0  0  0  0  0  0  0  0  0  0  0
   30.0330   25.2910   24.4880 O   0  0  0  0  0  0  0  0  0  0  0  0
   28.3520   30.0010   21.4640 O   0  0  0  0  0  0  0  0  0  0  0  0
   27.4050   30.1120   21.7470 H   0  0  0  0  0  0  0  0  0  0  0  0
   27.3590   26.6250   22.1950 O   0  0  0  0  0  0  0  0  0  0  0  0
   26.8970   26.0380   21.5220 H   0  0  0  0  0  0  0  0  0  0  0  0
   26.3280   28.5750   19.6400 N   0  0  0  0  0  0  0  0  0  0  0  0
   26.8180   27.6000   18.7420 C   0  0  0  0  0  0  0  0  0  0  0  0
   26.1590   29.5330   19.2350 H   0  0  0  0  0  0  0  0  0  0  0  0
   27.0530   26.4560   19.1450 O   0  0  0  0  0  0  0  0  0  0  0  0
   27.0580   27.8670   17.3930 O   0  0  0  0  0  0  0  0  0  0  0  0
   26.8860   29.1780   16.9080 C   0  0  0  0  0  0  0  0  0  0  0  0
   27.9260   30.1040   17.3670 C   0  0  0  0  0  0  0  0  0  0  0  0
   28.6770   30.8930   16.5200 C   0  0  0  0  0  0  0  0  0  0  0  0
   28.3750   30.3990   18.6040 N   0  0  0  0  0  0  0  0  0  0  0  0
   29.5480   31.6340   17.2370 N   0  0  0  0  0  0  0  0  0  0  0  0
   29.3360   31.3080   18.4950 N   0  0  0  0  0  0  0  0  0  0  0  0
   30.5130   32.5810   16.7820 C   0  0  0  0  0  0  0  0  0  0  0  0
   31.0460   32.4990   15.5120 C   0  0  0  0  0  0  0  0  0  0  0  0
   30.9570   33.6140   17.5810 C   0  0  0  0  0  0  0  0  0  0  0  0
   31.9810   33.4080   15.0580 C   0  0  0  0  0  0  0  0  0  0  0  0
   31.8910   34.5260   17.1340 C   0  0  0  0  0  0  0  0  0  0  0  0
   32.4190   34.4390   15.8630 C   0  0  0  0  0  0  0  0  0  0  0  0
   33.4240   35.4410   15.4200 C   0  0  0  0  0  0  0  0  0  0  0  0
   29.8670   25.5550   16.9770 C   0  0  0  0  0  0  0  0  0  0  0  0
   28.3450   25.7220   17.0260 C   0  0  0  0  0  0  0  0  0  0  0  0
   27.5990   24.4760   16.5750 C   0  0  0  0  0  0  0  0  0  0  0  0
   27.0590   23.6870   17.7360 C   0  0  0  0  0  0  0  0  0  0  0  0
   25.5850   23.3740   17.4960 C   0  0  0  0  0  0  0  0  0  0  0  0
   24.8310   24.6160   17.2060 N   0  0  0  0  0  0  0  0  0  0  0  0
  2  1  1  6  0  0  0
  2 25  1  0  0  0  0
  3 23  1  1  0  0  0
  3  2  1  0  0  0  0
  4  3  1  6  0  0  0
  4  9  1  0  0  0  0
  5 10  1  6  0  0  0
  5  6  1  0  0  0  0
  5 12  1  0  0  0  0
  5  7  1  0  0  0  0
  6  8  1  0  0  0  0
  7  4  1  0  0  0  0
  8 16  1  6  0  0  0
  8  9  1  0  0  0  0
  9 18  1  1  0  0  0
 11 10  1  0  0  0  0
 12 14  1  0  0  0  0
 13 12  2  0  0  0  0
 15 14  1  0  0  0  0
 16 17  1  0  0  0  0
 18 20  1  0  0  0  0
 18 19  1  0  0  0  0
 19 21  1  0  0  0  0
 22 19  2  0  0  0  0
 23 24  1  0  0  0  0
 26 25  1  0  0  0  0
 27  1  1  0  0  0  0
 28 30  2  0  0  0  0
 28 27  1  0  0  0  0
 29 27  1  0  0  0  0
 31 28  1  0  0  0  0
 32 33  1  0  0  0  0
 32 31  1  0  0  0  0
 33 35  1  0  0  0  0
 34 36  1  0  0  0  0
 34 33  2  0  0  0  0
 36 37  1  0  0  0  0
 37 35  2  0  0  0  0
 38 36  1  0  0  0  0
 38 40  2  0  0  0  0
 39 38  1  0  0  0  0
 41 39  2  0  0  0  0
 41 43  1  0  0  0  0
 42 40  1  0  0  0  0
 43 42  2  0  0  0  0
 44 43  1  0  0  0  0
 45 46  1  0  0  0  0
 47 46  1  0  0  0  0
 47 48  1  0  0  0  0
 49 48  1  0  0  0  0
 50 49  1  0  0  0  0
M  END
>  <REMARK>
 VINA RESULT:    -5.263      4.358      7.625
 INTER + INTRA:         -14.121
 INTER:                  -8.668
 INTRA:                  -5.453
 UNBOUND:                -5.012
 SMILES CC(=O)N[C@@H]1[C@@H](O)C[C@](O)(C(=O)O)O[C@H]1C(O)[C@H](O)CNC(=O)OCc1cn(-c2ccc(C)cc2)nn1
 SMILES IDX 20 1 18 2 16 3 15 4 9 5 8 6 14 7 6 8 5 9 10 10 11 12 12 13
 SMILES IDX 13 14 7 16 4 18 2 19 1 21 3 22 17 23 19 25 21 27 22 28 23 30
 SMILES IDX 24 31 25 32 26 33 27 34 37 35 28 36 36 37 29 38 30 39 35 40
 SMILES IDX 31 41 34 42 32 43 33 44
 H PARENT 10 11 13 15 7 17 4 20 17 24 19 26 21 29
 Flexibility Score: inf
  4 active torsions:
  status: ('A' for Active; 'I' for Inactive)
    1  A    between atoms: CA   and  CB  
    2  A    between atoms: CB   and  CG  
    3  A    between atoms: CG   and  CD  
    4  A    between atoms: CD   and  CE  

>  <TORSDO>
F 15

>  <BEGIN_>
RES LYS A 131

$$$$
ligand_40_pose_7_2HRL.pdbqt
 OpenBabel07062320523D

  6  5  0  0  0  0  0  0  0  0999 V2000
   33.1930   34.6630    9.2900 C   0  0  0  0  0  0  0  0  0  0  0  0
   32.0600   35.3600   10.0340 C   0  0  0  0  0  0  0  0  0  0  0  0
   30.7040   34.7620    9.7620 C   0  0  0  0  0  0  0  0  0  0  0  0
   30.4740   34.6090    8.2670 C   0  0  0  0  0  0  0  0  0  0  0  0
   29.0070   34.7970    7.9310 C   0  0  0  0  0  0  0  0  0  0  0  0
   28.8410   35.4950    6.6260 N   0  0  0  0  0  0  0  0  0  0  0  0
  1  2  1  0  0  0  0
  3  2  1  0  0  0  0
  4  3  1  0  0  0  0
  5  4  1  0  0  0  0
  6  5  1  0  0  0  0
M  END
>  <EGIN_R>
ES LYS A 135

>  <REMARK>
  4 active torsions:
  status: ('A' for Active; 'I' for Inactive)
    5  A    between atoms: CA   and  CB  
    6  A    between atoms: CB   and  CG  
    7  A    between atoms: CG   and  CD  
    8  A    between atoms: CD   and  CE  

$$$$
