ligand_1_pose_19_2HRL.pdbqt
 OpenBabel07062320523D

 47 47  0  0  1  0  0  0  0  0999 V2000
   26.7630   27.6960   19.8950 N   0  0  0  0  0  0  0  0  0  0  0  0
   26.2860   27.3380   21.1610 C   0  0  0  0  0  0  0  0  0  0  0  0
   25.0980   27.0750   21.3200 O   0  0  0  0  0  0  0  0  0  0  0  0
   27.8160   27.9090   19.8600 H   0  0  0  0  0  0  0  0  0  0  0  0
   26.0730   27.8180   18.6690 C   0  0  0  0  0  0  0  0  0  0  0  0
   26.0330   29.1660   18.0230 C   0  0  2  0  0  0  0  0  0  0  0  0
   27.1690   29.3770   17.0680 C   0  0  1  0  0  0  0  0  0  0  0  0
   28.2150   30.3510   17.4070 C   0  0  2  0  0  0  0  0  0  0  0  0
   29.6210   31.1750   19.0380 C   0  0  2  0  0  0  0  0  0  0  0  0
   30.3850   31.6710   17.8280 C   0  0  0  0  0  0  0  0  0  0  0  0
   28.6070   30.2720   18.7200 O   0  0  0  0  0  0  0  0  0  0  0  0
   29.4430   32.3720   16.8590 C   0  0  1  0  0  0  0  0  0  0  0  0
   28.0290   31.7760   17.0140 C   0  0  1  0  0  0  0  0  0  0  0  0
   29.0110   32.2370   19.7000 O   0  0  0  0  0  0  0  0  0  0  0  0
   29.5250   32.5460   20.4810 H   0  0  0  0  0  0  0  0  0  0  0  0
   30.5170   30.4730   19.9840 C   0  0  0  0  0  0  0  0  0  0  0  0
   30.7830   30.9180   21.1300 O   0  0  0  0  0  0  0  0  0  0  0  0
   31.0920   29.2750   19.6030 O   0  0  0  0  0  0  0  0  0  0  0  0
   31.2360   28.5330   20.3040 H   0  0  0  0  0  0  0  0  0  0  0  0
   29.4330   33.7320   17.1380 O   0  0  0  0  0  0  0  0  0  0  0  0
   30.2550   33.9250   17.6620 H   0  0  0  0  0  0  0  0  0  0  0  0
   27.3140   31.9670   15.7690 N   0  0  0  0  0  0  0  0  0  0  0  0
   25.9520   32.3620   15.8200 C   0  0  0  0  0  0  0  0  0  0  0  0
   27.7730   31.8210   14.8360 H   0  0  0  0  0  0  0  0  0  0  0  0
   25.1370   32.5790   14.5940 C   0  0  0  0  0  0  0  0  0  0  0  0
   25.4040   32.5360   16.9320 O   0  0  0  0  0  0  0  0  0  0  0  0
   27.7490   28.0590   16.9510 O   0  0  0  0  0  0  0  0  0  0  0  0
   27.3300   27.4840   17.6140 H   0  0  0  0  0  0  0  0  0  0  0  0
   25.8900   30.1610   18.9310 O   0  0  0  0  0  0  0  0  0  0  0  0
   25.2880   30.8910   18.6840 H   0  0  0  0  0  0  0  0  0  0  0  0
   27.1310   27.2690   22.2660 O   0  0  0  0  0  0  0  0  0  0  0  0
   28.0330   28.3090   22.5800 C   0  0  0  0  0  0  0  0  0  0  0  0
   29.4220   27.8490   22.3380 C   0  0  0  0  0  0  0  0  0  0  0  0
   30.5150   28.0330   23.1480 C   0  0  0  0  0  0  0  0  0  0  0  0
   29.8430   27.1720   21.2800 N   0  0  0  0  0  0  0  0  0  0  0  0
   31.5470   27.4450   22.5180 N   0  0  0  0  0  0  0  0  0  0  0  0
   31.1450   26.9160   21.3740 N   0  0  0  0  0  0  0  0  0  0  0  0
   32.9000   27.4070   23.0340 C   0  0  0  0  0  0  0  0  0  0  0  0
   33.5410   28.7750   22.8210 C   0  0  0  0  0  0  0  0  0  0  0  0
   33.3540   29.1530   21.4760 O   0  0  0  0  0  0  0  0  0  0  0  0
   33.7660   28.4640   20.8700 H   0  0  0  0  0  0  0  0  0  0  0  0
   29.8670   25.5550   16.9770 C   0  0  0  0  0  0  0  0  0  0  0  0
   28.3450   25.7220   17.0260 C   0  0  0  0  0  0  0  0  0  0  0  0
   27.6010   24.4020   16.8950 C   0  0  0  0  0  0  0  0  0  0  0  0
   26.1550   24.5250   17.2870 C   0  0  0  0  0  0  0  0  0  0  0  0
   25.8110   23.4500   18.3120 C   0  0  0  0  0  0  0  0  0  0  0  0
   25.4830   24.0660   19.6200 N   0  0  0  0  0  0  0  0  0  0  0  0
  1  2  1  0  0  0  0
  2  3  2  0  0  0  0
  2 31  1  0  0  0  0
  4  1  1  0  0  0  0
  5  1  1  0  0  0  0
  6  5  1  1  0  0  0
  6 29  1  0  0  0  0
  7 27  1  1  0  0  0
  7  6  1  0  0  0  0
  8  7  1  1  0  0  0
  8 11  1  0  0  0  0
  9 14  1  1  0  0  0
  9 16  1  0  0  0  0
 10  9  1  0  0  0  0
 11  9  1  0  0  0  0
 12 13  1  0  0  0  0
 12 20  1  1  0  0  0
 12 10  1  0  0  0  0
 13 22  1  6  0  0  0
 13  8  1  0  0  0  0
 14 15  1  0  0  0  0
 16 17  2  0  0  0  0
 18 16  1  0  0  0  0
 18 19  1  0  0  0  0
 20 21  1  0  0  0  0
 22 23  1  0  0  0  0
 23 26  2  0  0  0  0
 24 22  1  0  0  0  0
 25 23  1  0  0  0  0
 27 28  1  0  0  0  0
 30 29  1  0  0  0  0
 31 32  1  0  0  0  0
 33 32  1  0  0  0  0
 33 34  2  0  0  0  0
 35 37  2  0  0  0  0
 35 33  1  0  0  0  0
 36 38  1  0  0  0  0
 36 34  1  0  0  0  0
 37 36  1  0  0  0  0
 39 38  1  0  0  0  0
 40 39  1  0  0  0  0
 41 40  1  0  0  0  0
 42 43  1  0  0  0  0
 44 43  1  0  0  0  0
 44 45  1  0  0  0  0
 45 46  1  0  0  0  0
 46 47  1  0  0  0  0
M  END
>  <REMARK>
 VINA RESULT:    -3.060      7.901     14.400
 INTER + INTRA:         -13.137
 INTER:                  -6.263
 INTRA:                  -6.874
 UNBOUND:                -7.572
 SMILES CC(=O)N[C@@H]1[C@@H](O)C[C@](O)(C(=O)O)O[C@H]1C(O)[C@H](O)CNC(=O)OCc1cn(CCO)nn1
 SMILES IDX 21 1 22 2 23 3 20 5 18 6 16 7 15 8 9 9 8 10 14 11 6 12 5 13
 SMILES IDX 10 14 11 16 12 17 13 18 7 20 4 22 2 23 1 25 3 26 17 27 19 29
 SMILES IDX 24 31 25 32 26 33 27 34 33 35 28 36 32 37 29 38 30 39 31 40
 H PARENT 21 4 10 15 13 19 7 21 4 24 17 28 19 30 31 41
 Flexibility Score: inf
  4 active torsions:
  status: ('A' for Active; 'I' for Inactive)
    1  A    between atoms: CA   and  CB  
    2  A    between atoms: CB   and  CG  
    3  A    between atoms: CG   and  CD  
    4  A    between atoms: CD   and  CE  

>  <TORSDO>
F 17

>  <BEGIN_>
RES LYS A 131

$$$$
ligand_1_pose_19_2HRL.pdbqt
 OpenBabel07062320523D

  6  5  0  0  0  0  0  0  0  0999 V2000
   33.1930   34.6630    9.2900 C   0  0  0  0  0  0  0  0  0  0  0  0
   32.0600   35.3600   10.0340 C   0  0  0  0  0  0  0  0  0  0  0  0
   30.7830   35.4520    9.2390 C   0  0  0  0  0  0  0  0  0  0  0  0
   30.2270   34.0650    8.9560 C   0  0  0  0  0  0  0  0  0  0  0  0
   28.7400   34.0170    9.2520 C   0  0  0  0  0  0  0  0  0  0  0  0
   27.9580   34.7000    8.1840 N   0  0  0  0  0  0  0  0  0  0  0  0
  1  2  1  0  0  0  0
  3  2  1  0  0  0  0
  4  3  1  0  0  0  0
  4  5  1  0  0  0  0
  6  5  1  0  0  0  0
M  END
>  <EGIN_R>
ES LYS A 135

>  <REMARK>
  4 active torsions:
  status: ('A' for Active; 'I' for Inactive)
    5  A    between atoms: CA   and  CB  
    6  A    between atoms: CB   and  CG  
    7  A    between atoms: CG   and  CD  
    8  A    between atoms: CD   and  CE  

$$$$
