ligand_74_pose_14_2HRL.pdbqt
 OpenBabel07062320523D

 54 54  0  0  1  0  0  0  0  0999 V2000
   27.2850   29.7330   19.4820 O   0  0  0  0  0  0  0  0  0  0  0  0
   27.0700   29.0460   20.6900 C   0  0  0  0  0  0  0  0  0  0  0  0
   27.9380   28.0110   21.1120 N   0  0  0  0  0  0  0  0  0  0  0  0
   28.7580   27.7930   20.4620 H   0  0  0  0  0  0  0  0  0  0  0  0
   26.0800   29.3800   21.3840 O   0  0  0  0  0  0  0  0  0  0  0  0
   27.7620   27.2700   22.3400 C   0  0  0  0  0  0  0  0  0  0  0  0
   28.5840   27.8880   23.4180 C   0  0  2  0  0  0  0  0  0  0  0  0
   30.0250   27.4050   23.4410 C   0  0  2  0  0  0  0  0  0  0  0  0
   30.9820   28.5040   23.0990 C   0  0  2  0  0  0  0  0  0  0  0  0
   31.3070   29.2160   20.9120 C   0  0  2  0  0  0  0  0  0  0  0  0
   32.7820   29.4720   21.0980 C   0  0  0  0  0  0  0  0  0  0  0  0
   30.5910   29.3380   22.0930 O   0  0  0  0  0  0  0  0  0  0  0  0
   33.2280   29.1890   22.5170 C   0  0  1  0  0  0  0  0  0  0  0  0
   32.4050   27.9710   22.9580 C   0  0  1  0  0  0  0  0  0  0  0  0
   31.0880   27.9820   20.2930 O   0  0  0  0  0  0  0  0  0  0  0  0
   31.6620   27.8290   19.5190 H   0  0  0  0  0  0  0  0  0  0  0  0
   30.7920   30.2590   19.9860 C   0  0  0  0  0  0  0  0  0  0  0  0
   31.0330   31.4780   20.2440 O   0  0  0  0  0  0  0  0  0  0  0  0
   30.0620   29.9790   18.8500 O   0  0  0  0  0  0  0  0  0  0  0  0
   29.8180   28.9990   18.6410 H   0  0  0  0  0  0  0  0  0  0  0  0
   34.5790   28.9740   22.6300 O   0  0  0  0  0  0  0  0  0  0  0  0
   34.7060   27.9800   22.7310 H   0  0  0  0  0  0  0  0  0  0  0  0
   32.8510   27.4880   24.2410 N   0  0  0  0  0  0  0  0  0  0  0  0
   33.9170   26.5400   24.3330 C   0  0  0  0  0  0  0  0  0  0  0  0
   32.4290   27.7950   25.1520 H   0  0  0  0  0  0  0  0  0  0  0  0
   34.3970   26.0260   25.6290 C   0  0  0  0  0  0  0  0  0  0  0  0
   34.4660   26.1280   23.2810 O   0  0  0  0  0  0  0  0  0  0  0  0
   30.1710   26.2650   22.6860 O   0  0  0  0  0  0  0  0  0  0  0  0
   29.4700   26.2430   22.0020 H   0  0  0  0  0  0  0  0  0  0  0  0
   28.0150   27.5350   24.6650 O   0  0  0  0  0  0  0  0  0  0  0  0
   27.0520   27.7360   24.6840 H   0  0  0  0  0  0  0  0  0  0  0  0
   26.4120   30.7900   19.1720 C   0  0  0  0  0  0  0  0  0  0  0  0
   27.0650   31.8440   18.3760 C   0  0  0  0  0  0  0  0  0  0  0  0
   28.0850   32.7190   18.7190 C   0  0  0  0  0  0  0  0  0  0  0  0
   26.7620   32.1490   17.1080 N   0  0  0  0  0  0  0  0  0  0  0  0
   28.3580   33.5070   17.6650 N   0  0  0  0  0  0  0  0  0  0  0  0
   27.5460   33.1440   16.7060 N   0  0  0  0  0  0  0  0  0  0  0  0
   29.3960   34.5750   17.6470 C   0  0  0  0  0  0  0  0  0  0  0  0
   30.4220   34.2580   16.6160 C   0  0  2  0  0  0  0  0  0  0  0  0
   31.1400   32.9910   17.0490 C   0  0  0  0  0  0  0  0  0  0  0  0
   30.9610   31.9480   16.0070 C   0  0  0  0  0  0  0  0  0  0  0  0
   30.2760   30.9330   16.2260 O   0  0  0  0  0  0  0  0  0  0  0  0
   31.5920   32.1540   14.7770 O   0  0  0  0  0  0  0  0  0  0  0  0
   32.1440   31.4210   14.3760 H   0  0  0  0  0  0  0  0  0  0  0  0
   31.3100   35.3900   16.3000 C   0  0  0  0  0  0  0  0  0  0  0  0
   32.7700   35.2080   16.4730 C   0  0  0  0  0  0  0  0  0  0  0  0
   33.3700   35.2880   15.0410 C   0  0  0  0  0  0  0  0  0  0  0  0
   33.4920   36.2180   17.2990 C   0  0  0  0  0  0  0  0  0  0  0  0
   29.8670   25.5550   16.9770 C   0  0  0  0  0  0  0  0  0  0  0  0
   28.3450   25.7220   17.0260 C   0  0  0  0  0  0  0  0  0  0  0  0
   27.6020   24.3990   16.9220 C   0  0  0  0  0  0  0  0  0  0  0  0
   26.1650   24.5220   17.3480 C   0  0  0  0  0  0  0  0  0  0  0  0
   25.9620   23.7890   18.6700 C   0  0  0  0  0  0  0  0  0  0  0  0
   24.6520   24.1460   19.2650 N   0  0  0  0  0  0  0  0  0  0  0  0
  1  2  1  0  0  0  0
  2  3  1  0  0  0  0
  2  5  2  0  0  0  0
  3  6  1  0  0  0  0
  4  3  1  0  0  0  0
  7  6  1  6  0  0  0
  7  8  1  0  0  0  0
  7 30  1  0  0  0  0
  8 28  1  6  0  0  0
  9  8  1  6  0  0  0
 10 17  1  6  0  0  0
 10 11  1  0  0  0  0
 10 12  1  0  0  0  0
 11 13  1  0  0  0  0
 12  9  1  0  0  0  0
 13 21  1  6  0  0  0
 13 14  1  0  0  0  0
 14  9  1  0  0  0  0
 14 23  1  1  0  0  0
 15 10  1  0  0  0  0
 16 15  1  0  0  0  0
 17 18  2  0  0  0  0
 19 17  1  0  0  0  0
 20 19  1  0  0  0  0
 21 22  1  0  0  0  0
 23 24  1  0  0  0  0
 23 25  1  0  0  0  0
 24 26  1  0  0  0  0
 27 24  2  0  0  0  0
 29 28  1  0  0  0  0
 30 31  1  0  0  0  0
 32  1  1  0  0  0  0
 33 34  2  0  0  0  0
 33 32  1  0  0  0  0
 35 33  1  0  0  0  0
 36 34  1  0  0  0  0
 37 35  2  0  0  0  0
 37 36  1  0  0  0  0
 38 36  1  0  0  0  0
 39 45  1  1  0  0  0
 39 40  1  0  0  0  0
 39 38  1  0  0  0  0
 41 42  2  0  0  0  0
 41 40  1  0  0  0  0
 43 41  1  0  0  0  0
 44 43  1  0  0  0  0
 45 46  1  0  0  0  0
 46 48  1  0  0  0  0
 47 46  1  0  0  0  0
 49 50  1  0  0  0  0
 51 50  1  0  0  0  0
 51 52  1  0  0  0  0
 52 53  1  0  0  0  0
 53 54  1  0  0  0  0
M  END
>  <REMARK>
 VINA RESULT:    -4.016      2.224      2.877
 INTER + INTRA:         -15.360
 INTER:                  -8.970
 INTRA:                  -6.390
 UNBOUND:                -7.118
 SMILES CC(=O)N[C@@H]1[C@@H](O)C[C@](O)(C(=O)O)O[C@H]1C(O)[C@H](O)CNC(=O)OCc1cn(C[C@H](CC(=O)O)CC(C)C)nn1
 SMILES IDX 24 1 22 2 21 3 23 5 20 6 18 7 16 8 15 9 9 10 8 11 14 12 6 13
 SMILES IDX 5 14 10 15 11 17 12 18 13 19 7 21 4 23 2 24 1 26 3 27 17 28
 SMILES IDX 19 30 25 32 26 33 27 34 40 35 28 36 39 37 29 38 30 39 31 40
 SMILES IDX 32 41 33 42 34 43 35 45 36 46 37 47 38 48
 H PARENT 21 4 10 16 13 20 7 22 4 25 17 29 19 31 34 44
 Flexibility Score: inf
  4 active torsions:
  status: ('A' for Active; 'I' for Inactive)
    1  A    between atoms: CA   and  CB  
    2  A    between atoms: CB   and  CG  
    3  A    between atoms: CG   and  CD  
    4  A    between atoms: CD   and  CE  

>  <TORSDO>
F 21

>  <BEGIN_>
RES LYS A 131

$$$$
ligand_74_pose_14_2HRL.pdbqt
 OpenBabel07062320523D

  6  5  0  0  0  0  0  0  0  0999 V2000
   33.1930   34.6630    9.2900 C   0  0  0  0  0  0  0  0  0  0  0  0
   32.0600   35.3600   10.0340 C   0  0  0  0  0  0  0  0  0  0  0  0
   30.7030   34.7650    9.7590 C   0  0  0  0  0  0  0  0  0  0  0  0
   29.8100   34.8770   10.9850 C   0  0  0  0  0  0  0  0  0  0  0  0
   28.3490   34.7730   10.5910 C   0  0  0  0  0  0  0  0  0  0  0  0
   28.1450   33.7150    9.5630 N   0  0  0  0  0  0  0  0  0  0  0  0
  1  2  1  0  0  0  0
  3  2  1  0  0  0  0
  3  4  1  0  0  0  0
  5  4  1  0  0  0  0
  6  5  1  0  0  0  0
M  END
>  <EGIN_R>
ES LYS A 135

>  <REMARK>
  4 active torsions:
  status: ('A' for Active; 'I' for Inactive)
    5  A    between atoms: CA   and  CB  
    6  A    between atoms: CB   and  CG  
    7  A    between atoms: CG   and  CD  
    8  A    between atoms: CD   and  CE  

$$$$
