ligand_3_pose_6_2HRL.pdbqt
 OpenBabel07062320523D

 49 50  0  0  1  0  0  0  0  0999 V2000
   25.6710   37.7890    9.9170 C   0  0  0  0  0  0  0  0  0  0  0  0
   25.8300   38.7680    8.7710 C   0  0  2  0  0  0  0  0  0  0  0  0
   26.4010   38.1040    7.5380 C   0  0  1  0  0  0  0  0  0  0  0  0
   27.7490   37.5070    7.7750 C   0  0  2  0  0  0  0  0  0  0  0  0
   29.3680   39.0410    7.0380 C   0  0  2  0  0  0  0  0  0  0  0  0
   29.5510   38.3480    5.7340 C   0  0  0  0  0  0  0  0  0  0  0  0
   28.7450   38.3760    8.0240 O   0  0  0  0  0  0  0  0  0  0  0  0
   28.5900   37.2250    5.4750 C   0  0  1  0  0  0  0  0  0  0  0  0
   28.1600   36.5190    6.7220 C   0  0  1  0  0  0  0  0  0  0  0  0
   28.6310   40.2140    6.7660 O   0  0  0  0  0  0  0  0  0  0  0  0
   29.1640   40.9780    7.1230 H   0  0  0  0  0  0  0  0  0  0  0  0
   30.6840   39.5130    7.5470 C   0  0  0  0  0  0  0  0  0  0  0  0
   30.9090   40.7110    7.8250 O   0  0  0  0  0  0  0  0  0  0  0  0
   31.7090   38.6110    7.7290 O   0  0  0  0  0  0  0  0  0  0  0  0
   32.6900   38.8600    7.7690 H   0  0  0  0  0  0  0  0  0  0  0  0
   27.4640   37.7010    4.7820 O   0  0  0  0  0  0  0  0  0  0  0  0
   26.9190   38.3050    5.3230 H   0  0  0  0  0  0  0  0  0  0  0  0
   29.3230   35.7950    7.2400 N   0  0  0  0  0  0  0  0  0  0  0  0
   29.1890   34.7550    8.2010 C   0  0  0  0  0  0  0  0  0  0  0  0
   30.2870   36.0210    6.9170 H   0  0  0  0  0  0  0  0  0  0  0  0
   30.3560   34.0080    8.7380 C   0  0  0  0  0  0  0  0  0  0  0  0
   28.0530   34.4250    8.6390 O   0  0  0  0  0  0  0  0  0  0  0  0
   25.4670   37.1150    7.1860 O   0  0  0  0  0  0  0  0  0  0  0  0
   26.0200   36.2950    7.0170 H   0  0  0  0  0  0  0  0  0  0  0  0
   26.5240   39.8990    9.1630 O   0  0  0  0  0  0  0  0  0  0  0  0
   25.9410   40.6340    9.4410 H   0  0  0  0  0  0  0  0  0  0  0  0
   24.3200   37.6340   10.3570 N   0  0  0  0  0  0  0  0  0  0  0  0
   23.4810   36.5560    9.9640 C   0  0  0  0  0  0  0  0  0  0  0  0
   23.8940   38.3360   11.0060 H   0  0  0  0  0  0  0  0  0  0  0  0
   23.8850   35.6700    9.2010 O   0  0  0  0  0  0  0  0  0  0  0  0
   22.1720   36.4550   10.4210 O   0  0  0  0  0  0  0  0  0  0  0  0
   21.9070   36.4520   11.8160 C   0  0  0  0  0  0  0  0  0  0  0  0
   22.4270   35.1780   12.3610 C   0  0  0  0  0  0  0  0  0  0  0  0
   22.0250   33.9040   12.0300 C   0  0  0  0  0  0  0  0  0  0  0  0
   23.3970   35.0600   13.2900 N   0  0  0  0  0  0  0  0  0  0  0  0
   22.7710   33.0710   12.7730 N   0  0  0  0  0  0  0  0  0  0  0  0
   23.5900   33.7780   13.5250 N   0  0  0  0  0  0  0  0  0  0  0  0
   22.6780   31.6520   12.7430 C   0  0  0  0  0  0  0  0  0  0  0  0
   21.4610   31.0590   12.4560 C   0  0  0  0  0  0  0  0  0  0  0  0
   23.7880   30.8670   12.9960 C   0  0  0  0  0  0  0  0  0  0  0  0
   21.4070   29.6770   12.4340 C   0  0  0  0  0  0  0  0  0  0  0  0
   23.7160   29.4970   12.9700 C   0  0  0  0  0  0  0  0  0  0  0  0
   22.5070   28.9010   12.6850 C   0  0  0  0  0  0  0  0  0  0  0  0
   29.8670   25.5550   16.9770 C   0  0  0  0  0  0  0  0  0  0  0  0
   28.3450   25.7220   17.0260 C   0  0  0  0  0  0  0  0  0  0  0  0
   27.6010   24.4030   16.8870 C   0  0  0  0  0  0  0  0  0  0  0  0
   26.6380   24.1730   18.0180 C   0  0  0  0  0  0  0  0  0  0  0  0
   25.3110   24.8570   17.7040 C   0  0  0  0  0  0  0  0  0  0  0  0
   24.4550   23.9740   16.8770 N   0  0  0  0  0  0  0  0  0  0  0  0
  1 27  1  0  0  0  0
  2 25  1  0  0  0  0
  2  1  1  1  0  0  0
  3 23  1  1  0  0  0
  3  2  1  0  0  0  0
  4  3  1  6  0  0  0
  4  7  1  0  0  0  0
  5 10  1  6  0  0  0
  5 12  1  0  0  0  0
  5  7  1  0  0  0  0
  6  5  1  0  0  0  0
  8 16  1  1  0  0  0
  8  6  1  0  0  0  0
  8  9  1  0  0  0  0
  9 18  1  1  0  0  0
  9  4  1  0  0  0  0
 10 11  1  0  0  0  0
 12 14  1  0  0  0  0
 12 13  2  0  0  0  0
 14 15  1  0  0  0  0
 16 17  1  0  0  0  0
 18 19  1  0  0  0  0
 19 22  2  0  0  0  0
 19 21  1  0  0  0  0
 20 18  1  0  0  0  0
 24 23  1  0  0  0  0
 25 26  1  0  0  0  0
 27 29  1  0  0  0  0
 28 27  1  0  0  0  0
 28 31  1  0  0  0  0
 30 28  2  0  0  0  0
 31 32  1  0  0  0  0
 32 33  1  0  0  0  0
 33 35  1  0  0  0  0
 34 33  2  0  0  0  0
 34 36  1  0  0  0  0
 35 37  2  0  0  0  0
 36 37  1  0  0  0  0
 38 36  1  0  0  0  0
 38 40  2  0  0  0  0
 39 38  1  0  0  0  0
 41 39  2  0  0  0  0
 41 43  1  0  0  0  0
 42 40  1  0  0  0  0
 43 42  2  0  0  0  0
 44 45  1  0  0  0  0
 46 45  1  0  0  0  0
 46 47  1  0  0  0  0
 48 47  1  0  0  0  0
 49 48  1  0  0  0  0
M  END
>  <REMARK>
 VINA RESULT:    -5.714      3.623      7.139
 INTER + INTRA:         -14.375
 INTER:                 -10.417
 INTRA:                  -3.958
 UNBOUND:                -4.485
 SMILES CC(=O)N[C@@H]1[C@@H](O)C[C@](O)(C(=O)O)O[C@H]1C(O)[C@H](O)CNC(=O)OCc1cn(-c2ccccc2)nn1
 SMILES IDX 20 1 18 2 16 3 15 4 9 5 8 6 14 7 6 8 5 9 10 10 11 12 12 13
 SMILES IDX 13 14 7 16 4 18 2 19 1 21 3 22 17 23 19 25 21 27 22 28 23 30
 SMILES IDX 24 31 25 32 26 33 27 34 36 35 28 36 35 37 29 38 30 39 34 40
 SMILES IDX 31 41 33 42 32 43
 H PARENT 10 11 13 15 7 17 4 20 17 24 19 26 21 29
 Flexibility Score: inf
  4 active torsions:
  status: ('A' for Active; 'I' for Inactive)
    1  A    between atoms: CA   and  CB  
    2  A    between atoms: CB   and  CG  
    3  A    between atoms: CG   and  CD  
    4  A    between atoms: CD   and  CE  

>  <TORSDO>
F 15

>  <BEGIN_>
RES LYS A 131

$$$$
ligand_3_pose_6_2HRL.pdbqt
 OpenBabel07062320523D

  6  5  0  0  0  0  0  0  0  0999 V2000
   33.1930   34.6630    9.2900 C   0  0  0  0  0  0  0  0  0  0  0  0
   32.0600   35.3600   10.0340 C   0  0  0  0  0  0  0  0  0  0  0  0
   32.4950   36.0090   11.3230 C   0  0  0  0  0  0  0  0  0  0  0  0
   31.3230   36.1310   12.2840 C   0  0  0  0  0  0  0  0  0  0  0  0
   30.6690   34.7800   12.5010 C   0  0  0  0  0  0  0  0  0  0  0  0
   29.2200   34.8250   12.1600 N   0  0  0  0  0  0  0  0  0  0  0  0
  1  2  1  0  0  0  0
  2  3  1  0  0  0  0
  3  4  1  0  0  0  0
  4  5  1  0  0  0  0
  6  5  1  0  0  0  0
M  END
>  <EGIN_R>
ES LYS A 135

>  <REMARK>
  4 active torsions:
  status: ('A' for Active; 'I' for Inactive)
    5  A    between atoms: CA   and  CB  
    6  A    between atoms: CB   and  CG  
    7  A    between atoms: CG   and  CD  
    8  A    between atoms: CD   and  CE  

$$$$
