ligand_80_pose_6_2HRL.pdbqt
 OpenBabel07062320523D

 56 54  0  0  1  0  0  0  0  0999 V2000
   25.4090   42.2490    7.3070 O   0  0  0  0  0  0  0  0  0  0  0  0
   25.6660   41.3670    6.2850 C   0  0  0  0  0  0  0  0  0  0  0  0
   26.7690   40.4540    6.3850 N   0  0  0  0  0  0  0  0  0  0  0  0
   27.3350   40.5100    7.2630 H   0  0  0  0  0  0  0  0  0  0  0  0
   24.9650   41.3250    5.2430 O   0  0  0  0  0  0  0  0  0  0  0  0
   27.0780   39.5080    5.3280 C   0  0  0  0  0  0  0  0  0  0  0  0
   27.5990   38.2420    5.9620 C   0  0  2  0  0  0  0  0  0  0  0  0
   29.1090   38.1530    5.9240 C   0  0  2  0  0  0  0  0  0  0  0  0
   29.7040   38.5270    7.2900 C   0  0  2  0  0  0  0  0  0  0  0  0
   28.8300   39.2500    9.3430 C   0  0  2  0  0  0  0  0  0  0  0  0
   30.0960   40.0350    9.4880 C   0  0  0  0  0  0  0  0  0  0  0  0
   28.6960   38.5520    8.1740 O   0  0  0  0  0  0  0  0  0  0  0  0
   30.2680   40.8030    8.1870 C   0  0  1  0  0  0  0  0  0  0  0  0
   30.4740   39.7920    7.0880 C   0  0  1  0  0  0  0  0  0  0  0  0
   27.7490   40.1560    9.3740 O   0  0  0  0  0  0  0  0  0  0  0  0
   27.1590   39.8770    8.6280 H   0  0  0  0  0  0  0  0  0  0  0  0
   28.6230   38.2990   10.4650 C   0  0  0  0  0  0  0  0  0  0  0  0
   27.8800   37.3090   10.2990 O   0  0  0  0  0  0  0  0  0  0  0  0
   29.2330   38.4700   11.7050 O   0  0  0  0  0  0  0  0  0  0  0  0
   29.2860   39.4380   12.0550 H   0  0  0  0  0  0  0  0  0  0  0  0
   29.0790   41.4850    7.9520 O   0  0  0  0  0  0  0  0  0  0  0  0
   28.5740   40.9760    7.2720 H   0  0  0  0  0  0  0  0  0  0  0  0
   31.8870   39.4560    7.0830 N   0  0  0  0  0  0  0  0  0  0  0  0
   32.7640   39.7730    6.0130 C   0  0  0  0  0  0  0  0  0  0  0  0
   32.2920   38.9460    7.9260 H   0  0  0  0  0  0  0  0  0  0  0  0
   34.1880   39.3770    6.1230 C   0  0  0  0  0  0  0  0  0  0  0  0
   32.2960   40.3760    5.0120 O   0  0  0  0  0  0  0  0  0  0  0  0
   29.5370   39.1080    4.9950 O   0  0  0  0  0  0  0  0  0  0  0  0
   29.2200   40.0140    5.1940 H   0  0  0  0  0  0  0  0  0  0  0  0
   27.0250   37.1150    5.3860 O   0  0  0  0  0  0  0  0  0  0  0  0
   27.6090   36.3290    5.4230 H   0  0  0  0  0  0  0  0  0  0  0  0
   24.9130   41.8120    8.5620 C   0  0  0  0  0  0  0  0  0  0  0  0
   24.0560   40.6100    8.4130 C   0  0  0  0  0  0  0  0  0  0  0  0
   24.3730   39.3450    8.9190 C   0  0  0  0  0  0  0  0  0  0  0  0
   22.8670   40.4540    7.8030 N   0  0  0  0  0  0  0  0  0  0  0  0
   23.3860   38.4900    8.6020 N   0  0  0  0  0  0  0  0  0  0  0  0
   22.4990   39.1920    7.9320 N   0  0  0  0  0  0  0  0  0  0  0  0
   23.3200   37.0820    8.9250 *   0  0  0  0  0  0  0  0  0  0  0  0
   24.6810   36.4890    9.0510 C   0  0  0  0  0  0  0  0  0  0  0  0
   25.2910   35.7160   10.0670 N   0  0  0  0  0  0  0  0  0  0  0  0
   25.4020   36.7400    8.0530 O   0  0  0  0  0  0  0  0  0  0  0  0
   26.3290   35.6190   10.0730 H   0  0  0  0  0  0  0  0  0  0  0  0
   24.6370   35.0150   11.1400 C   0  0  0  0  0  0  0  0  0  0  0  0
   23.2760   34.9000   11.3550 C   0  0  0  0  0  0  0  0  0  0  0  0
   25.5650   34.4320   11.9810 C   0  0  0  0  0  0  0  0  0  0  0  0
   22.8490   34.1880   12.4330 C   0  0  0  0  0  0  0  0  0  0  0  0
   25.1300   33.7110   13.0720 C   0  0  0  0  0  0  0  0  0  0  0  0
   23.7740   33.5980   13.2840 C   0  0  0  0  0  0  0  0  0  0  0  0
   22.1910   35.4820   10.5190 C   0  0  0  0  0  0  0  0  0  0  0  0
   22.4620   36.9300   10.1490 *   0  0  0  0  0  0  0  0  0  0  0  0
   29.8670   25.5550   16.9770 C   0  0  0  0  0  0  0  0  0  0  0  0
   28.3450   25.7220   17.0260 C   0  0  0  0  0  0  0  0  0  0  0  0
   27.6000   24.4100   16.8310 C   0  0  0  0  0  0  0  0  0  0  0  0
   26.8320   24.0080   18.0590 C   0  0  0  0  0  0  0  0  0  0  0  0
   25.3610   23.8220   17.7020 C   0  0  0  0  0  0  0  0  0  0  0  0
   25.0920   22.4130   17.3270 N   0  0  0  0  0  0  0  0  0  0  0  0
  1 32  1  0  0  0  0
  2  3  1  0  0  0  0
  2  1  1  0  0  0  0
  3  4  1  0  0  0  0
  5  2  2  0  0  0  0
  6  3  1  0  0  0  0
  7  6  1  6  0  0  0
  8 28  1  6  0  0  0
  8  7  1  0  0  0  0
  9  8  1  6  0  0  0
  9 12  1  0  0  0  0
 10 15  1  1  0  0  0
 10 11  1  0  0  0  0
 10 17  1  0  0  0  0
 12 10  1  0  0  0  0
 13 21  1  6  0  0  0
 13 11  1  0  0  0  0
 14 23  1  1  0  0  0
 14  9  1  0  0  0  0
 14 13  1  0  0  0  0
 16 15  1  0  0  0  0
 17 19  1  0  0  0  0
 18 17  2  0  0  0  0
 19 20  1  0  0  0  0
 22 21  1  0  0  0  0
 23 25  1  0  0  0  0
 24 26  1  0  0  0  0
 24 23  1  0  0  0  0
 27 24  2  0  0  0  0
 28 29  1  0  0  0  0
 30 31  1  0  0  0  0
 30  7  1  0  0  0  0
 33 32  1  0  0  0  0
 33 34  2  0  0  0  0
 35 37  1  0  0  0  0
 35 33  1  0  0  0  0
 36 34  1  0  0  0  0
 37 36  2  0  0  0  0
 39 40  1  0  0  0  0
 40 42  1  0  0  0  0
 40 43  1  0  0  0  0
 41 39  2  0  0  0  0
 43 44  2  0  0  0  0
 43 45  1  0  0  0  0
 44 46  1  0  0  0  0
 45 47  2  0  0  0  0
 46 48  2  0  0  0  0
 47 48  1  0  0  0  0
 49 44  1  0  0  0  0
 51 52  1  0  0  0  0
 53 52  1  0  0  0  0
 53 54  1  0  0  0  0
 55 54  1  0  0  0  0
 56 55  1  0  0  0  0
M  END
>  <REMARK>
 VINA RESULT:    -9.222      5.133      8.028
 INTER + INTRA:         -13.562
 INTER:                  -7.636
 INTRA:                  -5.926
 UNBOUND:                 4.555
 SMILES CC(=O)N[C@@H]1[C@@H](O)C[C@](O)(C(=O)O)O[C@H]1C(O)[C@H](O)CNC(=O)OCc1cn(C2CCc3ccccc3NC2=O)nn1
 SMILES IDX 24 1 22 2 21 3 23 5 20 6 18 7 16 8 15 9 9 10 8 11 14 12 6 13
 SMILES IDX 5 14 10 15 11 17 12 18 13 19 7 21 4 23 2 24 1 26 3 27 17 28
 SMILES IDX 19 30 25 32 26 33 27 34 42 35 28 36 41 37 29 38 39 40 38 41
 SMILES IDX 40 42 37 44 32 45 36 46 33 47 35 48 34 49 31 50 30 51
 H PARENT 21 4 10 16 13 20 7 22 4 25 17 29 19 31 38 43
 Flexibility Score: 80.00
  4 active torsions:
  status: ('A' for Active; 'I' for Inactive)
    1  A    between atoms: CA   and  CB  
    2  A    between atoms: CB   and  CG  
    3  A    between atoms: CG   and  CD  
    4  A    between atoms: CD   and  CE  

>  <TORSDO>
F 15

>  <BEGIN_>
RES LYS A 131

$$$$
ligand_80_pose_6_2HRL.pdbqt
 OpenBabel07062320523D

  6  5  0  0  0  0  0  0  0  0999 V2000
   33.1930   34.6630    9.2900 C   0  0  0  0  0  0  0  0  0  0  0  0
   32.0600   35.3600   10.0340 C   0  0  0  0  0  0  0  0  0  0  0  0
   30.8520   35.6300    9.1750 C   0  0  0  0  0  0  0  0  0  0  0  0
   30.1820   34.3270    8.7670 C   0  0  0  0  0  0  0  0  0  0  0  0
   28.6900   34.5310    8.5810 C   0  0  0  0  0  0  0  0  0  0  0  0
   27.9100   33.5910    9.4340 N   0  0  0  0  0  0  0  0  0  0  0  0
  1  2  1  0  0  0  0
  3  2  1  0  0  0  0
  4  3  1  0  0  0  0
  5  4  1  0  0  0  0
  5  6  1  0  0  0  0
M  END
>  <EGIN_R>
ES LYS A 135

>  <REMARK>
  4 active torsions:
  status: ('A' for Active; 'I' for Inactive)
    5  A    between atoms: CA   and  CB  
    6  A    between atoms: CB   and  CG  
    7  A    between atoms: CG   and  CD  
    8  A    between atoms: CD   and  CE  

$$$$
