ligand_10_pose_3_2HRL.pdbqt
 OpenBabel07062320523D

 53 53  0  0  1  0  0  0  0  0999 V2000
   27.4300   28.1190   17.6450 N   0  0  0  0  0  0  0  0  0  0  0  0
   26.2150   27.6100   18.1940 C   0  0  0  0  0  0  0  0  0  0  0  0
   25.1440   28.1040   17.8250 O   0  0  0  0  0  0  0  0  0  0  0  0
   28.3020   27.6510   18.0060 H   0  0  0  0  0  0  0  0  0  0  0  0
   27.5090   29.1750   16.6840 C   0  0  0  0  0  0  0  0  0  0  0  0
   28.2110   30.3850   17.2650 C   0  0  2  0  0  0  0  0  0  0  0  0
   29.1010   31.0510   16.2320 C   0  0  2  0  0  0  0  0  0  0  0  0
   28.7380   32.4600   15.9300 C   0  0  2  0  0  0  0  0  0  0  0  0
   30.9150   33.0600   15.3860 C   0  0  2  0  0  0  0  0  0  0  0  0
   31.2120   33.3120   16.8040 C   0  0  0  0  0  0  0  0  0  0  0  0
   29.6020   33.0360   14.9940 O   0  0  0  0  0  0  0  0  0  0  0  0
   30.0890   33.5320   17.7380 C   0  0  1  0  0  0  0  0  0  0  0  0
   28.7190   33.3300   17.1550 C   0  0  1  0  0  0  0  0  0  0  0  0
   31.4580   31.8190   14.9640 O   0  0  0  0  0  0  0  0  0  0  0  0
   31.0070   31.1400   15.5330 H   0  0  0  0  0  0  0  0  0  0  0  0
   31.5910   34.0610   14.5150 C   0  0  0  0  0  0  0  0  0  0  0  0
   32.5660   34.7620   14.8700 O   0  0  0  0  0  0  0  0  0  0  0  0
   31.1050   34.2220   13.2270 O   0  0  0  0  0  0  0  0  0  0  0  0
   30.7720   35.1300   12.8760 H   0  0  0  0  0  0  0  0  0  0  0  0
   30.2330   32.7370   18.8720 O   0  0  0  0  0  0  0  0  0  0  0  0
   29.4590   32.1880   19.0820 H   0  0  0  0  0  0  0  0  0  0  0  0
   28.1240   34.6400   16.7930 N   0  0  0  0  0  0  0  0  0  0  0  0
   26.8030   34.9680   17.1760 C   0  0  0  0  0  0  0  0  0  0  0  0
   28.6590   35.3480   16.2480 H   0  0  0  0  0  0  0  0  0  0  0  0
   26.1630   36.2710   16.8320 C   0  0  0  0  0  0  0  0  0  0  0  0
   26.1490   34.1280   17.8290 O   0  0  0  0  0  0  0  0  0  0  0  0
   28.8920   30.2490   15.0730 O   0  0  0  0  0  0  0  0  0  0  0  0
   28.2840   29.5000   15.2790 H   0  0  0  0  0  0  0  0  0  0  0  0
   28.8890   29.9840   18.4090 O   0  0  0  0  0  0  0  0  0  0  0  0
   29.0610   29.0110   18.4430 H   0  0  0  0  0  0  0  0  0  0  0  0
   26.1940   26.5830   19.1240 O   0  0  0  0  0  0  0  0  0  0  0  0
   26.2160   26.8750   20.4990 C   0  0  0  0  0  0  0  0  0  0  0  0
   27.2600   27.8650   20.8570 C   0  0  0  0  0  0  0  0  0  0  0  0
   28.5440   27.5060   21.1890 C   0  0  0  0  0  0  0  0  0  0  0  0
   27.2010   29.1930   20.9320 N   0  0  0  0  0  0  0  0  0  0  0  0
   29.2350   28.6420   21.4590 N   0  0  0  0  0  0  0  0  0  0  0  0
   28.3980   29.6260   21.2940 N   0  0  0  0  0  0  0  0  0  0  0  0
   30.6430   28.6330   21.8480 C   0  0  1  0  0  0  0  0  0  0  0  0
   31.0950   27.2140   22.0580 C   0  0  0  0  0  0  0  0  0  0  0  0
   32.1400   27.1030   23.0880 C   0  0  0  0  0  0  0  0  0  0  0  0
   31.7970   27.0030   24.2920 O   0  0  0  0  0  0  0  0  0  0  0  0
   33.4730   27.1110   22.7060 O   0  0  0  0  0  0  0  0  0  0  0  0
   34.1480   27.6560   23.2660 H   0  0  0  0  0  0  0  0  0  0  0  0
   31.4420   29.1850   20.7200 C   0  0  0  0  0  0  0  0  0  0  0  0
   32.3870   28.5700   20.1640 O   0  0  0  0  0  0  0  0  0  0  0  0
   31.1290   30.4500   20.2560 O   0  0  0  0  0  0  0  0  0  0  0  0
   30.2290   30.6770   19.8490 H   0  0  0  0  0  0  0  0  0  0  0  0
   29.8670   25.5550   16.9770 C   0  0  0  0  0  0  0  0  0  0  0  0
   28.3450   25.7220   17.0260 C   0  0  0  0  0  0  0  0  0  0  0  0
   27.5990   24.4750   16.5780 C   0  0  0  0  0  0  0  0  0  0  0  0
   27.2320   23.5870   17.7350 C   0  0  0  0  0  0  0  0  0  0  0  0
   25.7390   23.2800   17.6870 C   0  0  0  0  0  0  0  0  0  0  0  0
   25.0170   24.3320   16.9340 N   0  0  0  0  0  0  0  0  0  0  0  0
  1  4  1  0  0  0  0
  1  2  1  0  0  0  0
  2 31  1  0  0  0  0
  3  2  2  0  0  0  0
  5  1  1  0  0  0  0
  6  5  1  6  0  0  0
  6 29  1  0  0  0  0
  7 27  1  6  0  0  0
  7  6  1  0  0  0  0
  8  7  1  1  0  0  0
  8 13  1  0  0  0  0
  9 16  1  6  0  0  0
  9 10  1  0  0  0  0
 10 12  1  0  0  0  0
 11  9  1  0  0  0  0
 11  8  1  0  0  0  0
 12 20  1  1  0  0  0
 13 22  1  6  0  0  0
 13 12  1  0  0  0  0
 14  9  1  0  0  0  0
 14 15  1  0  0  0  0
 16 17  2  0  0  0  0
 18 16  1  0  0  0  0
 19 18  1  0  0  0  0
 20 21  1  0  0  0  0
 22 23  1  0  0  0  0
 23 26  2  0  0  0  0
 24 22  1  0  0  0  0
 25 23  1  0  0  0  0
 27 28  1  0  0  0  0
 29 30  1  0  0  0  0
 31 32  1  0  0  0  0
 32 33  1  0  0  0  0
 33 35  1  0  0  0  0
 33 34  2  0  0  0  0
 34 36  1  0  0  0  0
 35 37  2  0  0  0  0
 36 38  1  0  0  0  0
 37 36  1  0  0  0  0
 38 39  1  6  0  0  0
 39 40  1  0  0  0  0
 40 41  2  0  0  0  0
 42 40  1  0  0  0  0
 42 43  1  0  0  0  0
 44 38  1  0  0  0  0
 45 44  2  0  0  0  0
 46 44  1  0  0  0  0
 47 46  1  0  0  0  0
 48 49  1  0  0  0  0
 50 49  1  0  0  0  0
 50 51  1  0  0  0  0
 52 51  1  0  0  0  0
 53 52  1  0  0  0  0
M  END
>  <REMARK>
 VINA RESULT:    -4.916      3.203      6.827
 INTER + INTRA:         -15.401
 INTER:                  -9.090
 INTRA:                  -6.312
 UNBOUND:                -5.744
 SMILES CC(=O)N[C@@H]1[C@@H](O)C[C@](O)(C(=O)O)O[C@H]1C(O)[C@H](O)CNC(=O)OCc1cn([C@@H](CC(=O)O)C(=O)O)nn1
 SMILES IDX 21 1 22 2 23 3 20 5 18 6 16 7 15 8 9 9 8 10 14 11 6 12 5 13
 SMILES IDX 10 14 11 16 12 17 13 18 7 20 4 22 2 23 1 25 3 26 17 27 19 29
 SMILES IDX 24 31 25 32 26 33 27 34 38 35 28 36 37 37 29 38 30 39 31 40
 SMILES IDX 32 41 33 42 34 44 35 45 36 46
 H PARENT 21 4 10 15 13 19 7 21 4 24 17 28 19 30 33 43 36 47
 Flexibility Score: inf
  4 active torsions:
  status: ('A' for Active; 'I' for Inactive)
    1  A    between atoms: CA   and  CB  
    2  A    between atoms: CB   and  CG  
    3  A    between atoms: CG   and  CD  
    4  A    between atoms: CD   and  CE  

>  <TORSDO>
F 20

>  <BEGIN_>
RES LYS A 131

$$$$
ligand_10_pose_3_2HRL.pdbqt
 OpenBabel07062320523D

  6  5  0  0  0  0  0  0  0  0999 V2000
   33.1930   34.6630    9.2900 C   0  0  0  0  0  0  0  0  0  0  0  0
   32.0600   35.3600   10.0340 C   0  0  0  0  0  0  0  0  0  0  0  0
   30.8000   35.5000    9.2190 C   0  0  0  0  0  0  0  0  0  0  0  0
   29.5950   35.0110   10.0050 C   0  0  0  0  0  0  0  0  0  0  0  0
   28.8270   33.9710    9.2120 C   0  0  0  0  0  0  0  0  0  0  0  0
   27.7950   34.6080    8.3490 N   0  0  0  0  0  0  0  0  0  0  0  0
  1  2  1  0  0  0  0
  3  4  1  0  0  0  0
  3  2  1  0  0  0  0
  5  4  1  0  0  0  0
  6  5  1  0  0  0  0
M  END
>  <EGIN_R>
ES LYS A 135

>  <REMARK>
  4 active torsions:
  status: ('A' for Active; 'I' for Inactive)
    5  A    between atoms: CA   and  CB  
    6  A    between atoms: CB   and  CG  
    7  A    between atoms: CG   and  CD  
    8  A    between atoms: CD   and  CE  

$$$$
