ligand_76_pose_13_2HRL.pdbqt
 OpenBabel07062320523D

 55 56  0  0  1  0  0  0  0  0999 V2000
   26.3840   36.3110   12.2360 O   0  0  0  0  0  0  0  0  0  0  0  0
   25.4430   35.7930   11.3650 C   0  0  0  0  0  0  0  0  0  0  0  0
   24.3050   36.5440   11.0020 N   0  0  0  0  0  0  0  0  0  0  0  0
   24.1790   37.4940   11.3970 H   0  0  0  0  0  0  0  0  0  0  0  0
   25.5950   34.6450   10.8890 O   0  0  0  0  0  0  0  0  0  0  0  0
   23.2920   36.0370   10.0870 C   0  0  0  0  0  0  0  0  0  0  0  0
   23.1830   36.9210    8.8590 C   0  0  2  0  0  0  0  0  0  0  0  0
   24.1990   38.0430    8.9920 C   0  0  1  0  0  0  0  0  0  0  0  0
   24.9320   38.2530    7.6640 C   0  0  2  0  0  0  0  0  0  0  0  0
   26.6640   36.7040    7.4330 C   0  0  2  0  0  0  0  0  0  0  0  0
   27.4590   37.5880    8.3280 C   0  0  0  0  0  0  0  0  0  0  0  0
   25.4170   37.1160    7.1230 O   0  0  0  0  0  0  0  0  0  0  0  0
   27.3000   39.0390    8.0430 C   0  0  1  0  0  0  0  0  0  0  0  0
   25.8650   39.4160    7.7870 C   0  0  1  0  0  0  0  0  0  0  0  0
   26.5600   35.4490    8.0810 O   0  0  0  0  0  0  0  0  0  0  0  0
   25.6370   35.1040    7.9800 H   0  0  0  0  0  0  0  0  0  0  0  0
   27.4850   36.4500    6.1960 C   0  0  0  0  0  0  0  0  0  0  0  0
   28.3990   35.5940    6.1500 O   0  0  0  0  0  0  0  0  0  0  0  0
   27.2600   37.1730    5.0200 O   0  0  0  0  0  0  0  0  0  0  0  0
   27.4490   38.1850    4.9920 H   0  0  0  0  0  0  0  0  0  0  0  0
   27.8460   39.7690    9.1250 O   0  0  0  0  0  0  0  0  0  0  0  0
   28.5000   39.2020    9.6320 H   0  0  0  0  0  0  0  0  0  0  0  0
   25.7450   40.2950    6.6220 N   0  0  0  0  0  0  0  0  0  0  0  0
   24.8400   41.3660    6.5950 C   0  0  0  0  0  0  0  0  0  0  0  0
   26.3820   40.0730    5.8010 H   0  0  0  0  0  0  0  0  0  0  0  0
   24.7540   42.2220    5.3990 C   0  0  0  0  0  0  0  0  0  0  0  0
   24.1060   41.6010    7.5740 O   0  0  0  0  0  0  0  0  0  0  0  0
   23.4380   39.2120    9.1690 O   0  0  0  0  0  0  0  0  0  0  0  0
   23.5830   39.6120   10.0780 H   0  0  0  0  0  0  0  0  0  0  0  0
   21.9000   37.4460    8.7620 O   0  0  0  0  0  0  0  0  0  0  0  0
   21.3230   36.7420    8.3800 H   0  0  0  0  0  0  0  0  0  0  0  0
   26.8370   37.6460   11.9550 C   0  0  0  0  0  0  0  0  0  0  0  0
   28.2940   37.7480   12.1870 C   0  0  0  0  0  0  0  0  0  0  0  0
   29.0300   37.3870   13.2900 C   0  0  0  0  0  0  0  0  0  0  0  0
   29.1720   38.2390   11.2940 N   0  0  0  0  0  0  0  0  0  0  0  0
   30.3180   37.6640   13.0440 N   0  0  0  0  0  0  0  0  0  0  0  0
   30.3860   38.1690   11.8530 N   0  0  0  0  0  0  0  0  0  0  0  0
   31.4770   37.4480   13.9400 C   0  0  0  0  0  0  0  0  0  0  0  0
   32.2490   36.2710   13.4300 C   0  0  2  0  0  0  0  0  0  0  0  0
   32.6170   36.4280   12.0870 O   0  0  0  0  0  0  0  0  0  0  0  0
   33.4570   36.9710   12.0740 H   0  0  0  0  0  0  0  0  0  0  0  0
   31.8360   34.9570   13.8660 C   0  0  0  0  0  0  0  0  0  0  0  0
   32.5280   34.3120   14.9880 C   0  0  0  0  0  0  0  0  0  0  0  0
   31.7130   33.4200   15.7970 C   0  0  0  0  0  0  0  0  0  0  0  0
   31.4800   33.7690   17.1330 C   0  0  0  0  0  0  0  0  0  0  0  0
   31.2030   32.2250   15.3930 C   0  0  0  0  0  0  0  0  0  0  0  0
   30.7750   32.9380   17.9720 C   0  0  0  0  0  0  0  0  0  0  0  0
   30.4910   31.3760   16.2210 C   0  0  0  0  0  0  0  0  0  0  0  0
   30.2710   31.7350   17.5350 C   0  0  0  0  0  0  0  0  0  0  0  0
   29.8670   25.5550   16.9770 C   0  0  0  0  0  0  0  0  0  0  0  0
   28.3450   25.7220   17.0260 C   0  0  0  0  0  0  0  0  0  0  0  0
   27.6030   24.3960   16.9560 C   0  0  0  0  0  0  0  0  0  0  0  0
   26.1390   24.5500   17.2650 C   0  0  0  0  0  0  0  0  0  0  0  0
   25.8730   24.1120   18.7010 C   0  0  0  0  0  0  0  0  0  0  0  0
   25.7970   25.2900   19.5970 N   0  0  0  0  0  0  0  0  0  0  0  0
  2  1  1  0  0  0  0
  3  2  1  0  0  0  0
  3  4  1  0  0  0  0
  5  2  2  0  0  0  0
  6  3  1  0  0  0  0
  7  8  1  0  0  0  0
  7  6  1  1  0  0  0
  8 28  1  6  0  0  0
  9 14  1  0  0  0  0
  9  8  1  1  0  0  0
 10 17  1  6  0  0  0
 10 15  1  0  0  0  0
 10 11  1  0  0  0  0
 12 10  1  0  0  0  0
 12  9  1  0  0  0  0
 13 11  1  0  0  0  0
 13 21  1  1  0  0  0
 14 23  1  6  0  0  0
 14 13  1  0  0  0  0
 16 15  1  0  0  0  0
 18 17  2  0  0  0  0
 19 17  1  0  0  0  0
 20 19  1  0  0  0  0
 21 22  1  0  0  0  0
 24 23  1  0  0  0  0
 24 27  2  0  0  0  0
 25 23  1  0  0  0  0
 26 24  1  0  0  0  0
 28 29  1  0  0  0  0
 30  7  1  0  0  0  0
 31 30  1  0  0  0  0
 32 33  1  0  0  0  0
 32  1  1  0  0  0  0
 33 34  2  0  0  0  0
 35 37  2  0  0  0  0
 35 33  1  0  0  0  0
 36 34  1  0  0  0  0
 36 38  1  0  0  0  0
 37 36  1  0  0  0  0
 39 42  1  6  0  0  0
 39 38  1  0  0  0  0
 40 39  1  0  0  0  0
 41 40  1  0  0  0  0
 42 43  1  0  0  0  0
 43 44  1  0  0  0  0
 44 45  1  0  0  0  0
 45 47  2  0  0  0  0
 46 44  2  0  0  0  0
 46 48  1  0  0  0  0
 48 49  2  0  0  0  0
 49 47  1  0  0  0  0
 50 51  1  0  0  0  0
 52 51  1  0  0  0  0
 52 53  1  0  0  0  0
 53 54  1  0  0  0  0
 54 55  1  0  0  0  0
M  END
>  <REMARK>
 VINA RESULT:    -4.906      2.673      5.526
 INTER + INTRA:         -16.553
 INTER:                 -10.507
 INTRA:                  -6.046
 UNBOUND:                -6.771
 SMILES CC(=O)N[C@@H]1[C@@H](O)C[C@](O)(C(=O)O)O[C@H]1C(O)[C@H](O)CNC(=O)OCc1cn(CC(O)CCc2ccccc2)nn1
 SMILES IDX 24 1 22 2 21 3 23 5 20 6 18 7 16 8 15 9 9 10 8 11 14 12 6 13
 SMILES IDX 5 14 10 15 11 17 12 18 13 19 7 21 4 23 2 24 1 26 3 27 17 28
 SMILES IDX 19 30 25 32 26 33 27 34 41 35 28 36 40 37 29 38 30 39 31 40
 SMILES IDX 32 42 33 43 34 44 35 45 39 46 36 47 38 48 37 49
 H PARENT 21 4 10 16 13 20 7 22 4 25 17 29 19 31 31 41
 Flexibility Score: inf
  4 active torsions:
  status: ('A' for Active; 'I' for Inactive)
    1  A    between atoms: CA   and  CB  
    2  A    between atoms: CB   and  CG  
    3  A    between atoms: CG   and  CD  
    4  A    between atoms: CD   and  CE  

>  <TORSDO>
F 20

>  <BEGIN_>
RES LYS A 131

$$$$
ligand_76_pose_13_2HRL.pdbqt
 OpenBabel07062320523D

  6  5  0  0  0  0  0  0  0  0999 V2000
   33.1930   34.6630    9.2900 C   0  0  0  0  0  0  0  0  0  0  0  0
   32.0600   35.3600   10.0340 C   0  0  0  0  0  0  0  0  0  0  0  0
   30.8070   35.5190    9.2120 C   0  0  0  0  0  0  0  0  0  0  0  0
   30.3010   34.1650    8.7390 C   0  0  0  0  0  0  0  0  0  0  0  0
   28.9740   33.8340    9.3950 C   0  0  0  0  0  0  0  0  0  0  0  0
   28.8290   34.5390   10.6980 N   0  0  0  0  0  0  0  0  0  0  0  0
  1  2  1  0  0  0  0
  3  2  1  0  0  0  0
  4  3  1  0  0  0  0
  4  5  1  0  0  0  0
  5  6  1  0  0  0  0
M  END
>  <EGIN_R>
ES LYS A 135

>  <REMARK>
  4 active torsions:
  status: ('A' for Active; 'I' for Inactive)
    5  A    between atoms: CA   and  CB  
    6  A    between atoms: CB   and  CG  
    7  A    between atoms: CG   and  CD  
    8  A    between atoms: CD   and  CE  

$$$$
