ligand_11_pose_15_2HRL.pdbqt
 OpenBabel07062320523D

 54 54  0  0  1  0  0  0  0  0999 V2000
   27.8720   33.9490   23.1490 O   0  0  0  0  0  0  0  0  0  0  0  0
   29.0530   34.3330   22.5030 C   0  0  0  0  0  0  0  0  0  0  0  0
   29.1680   34.3900   21.1070 N   0  0  0  0  0  0  0  0  0  0  0  0
   28.2870   34.1070   20.5610 H   0  0  0  0  0  0  0  0  0  0  0  0
   30.0140   34.6280   23.2320 O   0  0  0  0  0  0  0  0  0  0  0  0
   30.3210   34.7800   20.3460 C   0  0  0  0  0  0  0  0  0  0  0  0
   31.0330   33.6110   19.7900 C   0  0  2  0  0  0  0  0  0  0  0  0
   31.5240   33.8250   18.3700 C   0  0  1  0  0  0  0  0  0  0  0  0
   30.3370   33.9050   17.4050 C   0  0  2  0  0  0  0  0  0  0  0  0
   29.9820   31.7560   16.5490 C   0  0  2  0  0  0  0  0  0  0  0  0
   31.1500   32.0660   15.6560 C   0  0  0  0  0  0  0  0  0  0  0  0
   29.5940   32.7720   17.3660 O   0  0  0  0  0  0  0  0  0  0  0  0
   31.1850   33.4440   15.1000 C   0  0  1  0  0  0  0  0  0  0  0  0
   30.7450   34.4870   16.0850 C   0  0  1  0  0  0  0  0  0  0  0  0
   30.3870   30.6910   17.3550 O   0  0  0  0  0  0  0  0  0  0  0  0
   29.6240   30.2050   17.7310 H   0  0  0  0  0  0  0  0  0  0  0  0
   28.8360   31.2860   15.7320 C   0  0  0  0  0  0  0  0  0  0  0  0
   27.9090   32.0770   15.4360 O   0  0  0  0  0  0  0  0  0  0  0  0
   28.7460   29.9750   15.2710 O   0  0  0  0  0  0  0  0  0  0  0  0
   27.8090   29.6480   15.0330 H   0  0  0  0  0  0  0  0  0  0  0  0
   32.4950   33.7160   14.7090 O   0  0  0  0  0  0  0  0  0  0  0  0
   32.5680   34.6170   14.2970 H   0  0  0  0  0  0  0  0  0  0  0  0
   29.6650   35.2940   15.5980 N   0  0  0  0  0  0  0  0  0  0  0  0
   29.9440   36.5230   14.9500 C   0  0  0  0  0  0  0  0  0  0  0  0
   28.6600   34.9740   15.7210 H   0  0  0  0  0  0  0  0  0  0  0  0
   28.8340   37.3580   14.4470 C   0  0  0  0  0  0  0  0  0  0  0  0
   31.1210   36.9460   14.7810 O   0  0  0  0  0  0  0  0  0  0  0  0
   32.2400   35.0050   18.3110 O   0  0  0  0  0  0  0  0  0  0  0  0
   32.9880   34.9530   18.9570 H   0  0  0  0  0  0  0  0  0  0  0  0
   30.3630   32.4440   19.9580 O   0  0  0  0  0  0  0  0  0  0  0  0
   30.7180   31.6720   19.4630 H   0  0  0  0  0  0  0  0  0  0  0  0
   27.7780   32.6500   23.7290 C   0  0  0  0  0  0  0  0  0  0  0  0
   27.9550   31.5930   22.7420 C   0  0  0  0  0  0  0  0  0  0  0  0
   28.4040   30.3150   22.9320 C   0  0  0  0  0  0  0  0  0  0  0  0
   27.6980   31.6840   21.4280 N   0  0  0  0  0  0  0  0  0  0  0  0
   28.4160   29.6570   21.7640 N   0  0  0  0  0  0  0  0  0  0  0  0
   27.9800   30.5210   20.8670 N   0  0  0  0  0  0  0  0  0  0  0  0
   28.8050   28.2980   21.4340 C   0  0  1  0  0  0  0  0  0  0  0  0
   27.6600   27.5590   20.8450 C   0  0  0  0  0  0  0  0  0  0  0  0
   27.8320   27.0830   19.4520 C   0  0  0  0  0  0  0  0  0  0  0  0
   27.3010   27.9990   18.4440 C   0  0  0  0  0  0  0  0  0  0  0  0
   26.1860   27.7740   17.8580 O   0  0  0  0  0  0  0  0  0  0  0  0
   28.0180   29.1480   18.1020 O   0  0  0  0  0  0  0  0  0  0  0  0
   28.8190   29.3820   18.6710 H   0  0  0  0  0  0  0  0  0  0  0  0
   30.0860   28.2030   20.7560 C   0  0  0  0  0  0  0  0  0  0  0  0
   30.8880   27.2750   20.8440 O   0  0  0  0  0  0  0  0  0  0  0  0
   30.4440   29.2810   19.9240 O   0  0  0  0  0  0  0  0  0  0  0  0
   30.1240   30.2030   20.1660 H   0  0  0  0  0  0  0  0  0  0  0  0
   29.8670   25.5550   16.9770 C   0  0  0  0  0  0  0  0  0  0  0  0
   28.3450   25.7220   17.0260 C   0  0  0  0  0  0  0  0  0  0  0  0
   27.5990   24.4760   16.5750 C   0  0  0  0  0  0  0  0  0  0  0  0
   27.1150   23.6530   17.7370 C   0  0  0  0  0  0  0  0  0  0  0  0
   25.5920   23.5740   17.7050 C   0  0  0  0  0  0  0  0  0  0  0  0
   24.9990   24.6560   18.5250 N   0  0  0  0  0  0  0  0  0  0  0  0
  1 32  1  0  0  0  0
  2  1  1  0  0  0  0
  2  5  2  0  0  0  0
  3  2  1  0  0  0  0
  4  3  1  0  0  0  0
  6  3  1  0  0  0  0
  7 30  1  0  0  0  0
  7  6  1  6  0  0  0
  8 28  1  1  0  0  0
  8  7  1  0  0  0  0
  9  8  1  1  0  0  0
 10 17  1  6  0  0  0
 10 15  1  0  0  0  0
 10 12  1  0  0  0  0
 11 10  1  0  0  0  0
 12  9  1  0  0  0  0
 13 21  1  1  0  0  0
 13 11  1  0  0  0  0
 13 14  1  0  0  0  0
 14 23  1  6  0  0  0
 14  9  1  0  0  0  0
 15 16  1  0  0  0  0
 18 17  2  0  0  0  0
 19 17  1  0  0  0  0
 20 19  1  0  0  0  0
 22 21  1  0  0  0  0
 23 25  1  0  0  0  0
 24 23  1  0  0  0  0
 26 24  1  0  0  0  0
 27 24  2  0  0  0  0
 28 29  1  0  0  0  0
 31 30  1  0  0  0  0
 33 34  2  0  0  0  0
 33 32  1  0  0  0  0
 35 33  1  0  0  0  0
 36 34  1  0  0  0  0
 37 35  2  0  0  0  0
 37 36  1  0  0  0  0
 38 39  1  6  0  0  0
 38 36  1  0  0  0  0
 40 39  1  0  0  0  0
 41 40  1  0  0  0  0
 42 41  2  0  0  0  0
 43 41  1  0  0  0  0
 43 44  1  0  0  0  0
 45 46  2  0  0  0  0
 45 38  1  0  0  0  0
 47 48  1  0  0  0  0
 47 45  1  0  0  0  0
 49 50  1  0  0  0  0
 51 50  1  0  0  0  0
 51 52  1  0  0  0  0
 53 52  1  0  0  0  0
 53 54  1  0  0  0  0
M  END
>  <REMARK>
 VINA RESULT:    -3.854      6.218     11.228
 INTER + INTRA:         -15.235
 INTER:                  -7.586
 INTRA:                  -7.650
 UNBOUND:                -7.438
 SMILES CC(=O)N[C@@H]1[C@@H](O)C[C@](O)(C(=O)O)O[C@H]1C(O)[C@H](O)CNC(=O)OCc1cn([C@@H](CCC(=O)O)C(=O)O)nn1
 SMILES IDX 24 1 22 2 21 3 23 5 20 6 18 7 16 8 15 9 9 10 8 11 14 12 6 13
 SMILES IDX 5 14 10 15 11 17 12 18 13 19 7 21 4 23 2 24 1 26 3 27 17 28
 SMILES IDX 19 30 25 32 26 33 27 34 39 35 28 36 38 37 29 38 30 39 31 40
 SMILES IDX 32 41 33 42 34 43 35 45 36 46 37 47
 H PARENT 21 4 10 16 13 20 7 22 4 25 17 29 19 31 34 44 37 48
 Flexibility Score: inf
  4 active torsions:
  status: ('A' for Active; 'I' for Inactive)
    1  A    between atoms: CA   and  CB  
    2  A    between atoms: CB   and  CG  
    3  A    between atoms: CG   and  CD  
    4  A    between atoms: CD   and  CE  

>  <TORSDO>
F 21

>  <BEGIN_>
RES LYS A 131

$$$$
ligand_11_pose_15_2HRL.pdbqt
 OpenBabel07062320523D

  6  5  0  0  0  0  0  0  0  0999 V2000
   33.1930   34.6630    9.2900 C   0  0  0  0  0  0  0  0  0  0  0  0
   32.0600   35.3600   10.0340 C   0  0  0  0  0  0  0  0  0  0  0  0
   30.7280   34.6700    9.8860 C   0  0  0  0  0  0  0  0  0  0  0  0
   30.2590   34.7150    8.4400 C   0  0  0  0  0  0  0  0  0  0  0  0
   28.7710   34.4300    8.3550 C   0  0  0  0  0  0  0  0  0  0  0  0
   28.1850   34.2270    9.7080 N   0  0  0  0  0  0  0  0  0  0  0  0
  1  2  1  0  0  0  0
  3  2  1  0  0  0  0
  4  3  1  0  0  0  0
  5  4  1  0  0  0  0
  5  6  1  0  0  0  0
M  END
>  <EGIN_R>
ES LYS A 135

>  <REMARK>
  4 active torsions:
  status: ('A' for Active; 'I' for Inactive)
    5  A    between atoms: CA   and  CB  
    6  A    between atoms: CB   and  CG  
    7  A    between atoms: CG   and  CD  
    8  A    between atoms: CD   and  CE  

$$$$
