ligand_50_pose_16_2HRL.pdbqt
 OpenBabel07062320523D

 50 50  0  0  1  0  0  0  0  0999 V2000
   28.4900   30.1530   16.5850 N   0  0  0  0  0  0  0  0  0  0  0  0
   27.0760   30.0880   16.5230 C   0  0  0  0  0  0  0  0  0  0  0  0
   26.4500   30.5520   15.5540 O   0  0  0  0  0  0  0  0  0  0  0  0
   28.9330   29.7300   17.4550 H   0  0  0  0  0  0  0  0  0  0  0  0
   29.2580   30.7500   15.5450 C   0  0  0  0  0  0  0  0  0  0  0  0
   30.3460   31.6740   16.0460 C   0  0  2  0  0  0  0  0  0  0  0  0
   29.7210   33.0610   16.1370 C   0  0  1  0  0  0  0  0  0  0  0  0
   29.1740   33.4840   14.7680 C   0  0  2  0  0  0  0  0  0  0  0  0
   30.2030   35.3430   13.8280 C   0  0  2  0  0  0  0  0  0  0  0  0
   28.9940   35.6170   12.9560 C   0  0  0  0  0  0  0  0  0  0  0  0
   30.2260   33.9880   14.0570 O   0  0  0  0  0  0  0  0  0  0  0  0
   27.7800   35.3220   13.7670 C   0  0  1  0  0  0  0  0  0  0  0  0
   28.0130   34.4110   14.9430 C   0  0  1  0  0  0  0  0  0  0  0  0
   30.0430   36.1030   14.9850 O   0  0  0  0  0  0  0  0  0  0  0  0
   30.1880   35.5800   15.8060 H   0  0  0  0  0  0  0  0  0  0  0  0
   31.4630   35.7310   13.1450 C   0  0  0  0  0  0  0  0  0  0  0  0
   31.6400   36.9410   12.8520 O   0  0  0  0  0  0  0  0  0  0  0  0
   32.4070   34.7770   12.8470 O   0  0  0  0  0  0  0  0  0  0  0  0
   33.1750   34.9870   12.2170 H   0  0  0  0  0  0  0  0  0  0  0  0
   27.2980   36.5360   14.2730 O   0  0  0  0  0  0  0  0  0  0  0  0
   27.1000   37.1410   13.5350 H   0  0  0  0  0  0  0  0  0  0  0  0
   26.7890   33.6620   15.1280 N   0  0  0  0  0  0  0  0  0  0  0  0
   25.8100   34.1430   16.0360 C   0  0  0  0  0  0  0  0  0  0  0  0
   26.5880   32.7710   14.6170 H   0  0  0  0  0  0  0  0  0  0  0  0
   24.5200   33.4050   16.2690 C   0  0  0  0  0  0  0  0  0  0  0  0
   25.9530   35.2010   16.7000 O   0  0  0  0  0  0  0  0  0  0  0  0
   28.7570   33.0640   17.1150 O   0  0  0  0  0  0  0  0  0  0  0  0
   28.8310   33.8670   17.7020 H   0  0  0  0  0  0  0  0  0  0  0  0
   31.4310   31.6720   15.1700 O   0  0  0  0  0  0  0  0  0  0  0  0
   31.9360   32.4910   15.3310 H   0  0  0  0  0  0  0  0  0  0  0  0
   26.3350   29.4940   17.5560 O   0  0  0  0  0  0  0  0  0  0  0  0
   26.4480   28.1130   17.7430 C   0  0  0  0  0  0  0  0  0  0  0  0
   26.9980   27.7750   19.0800 C   0  0  0  0  0  0  0  0  0  0  0  0
   28.2940   27.8980   19.4900 C   0  0  0  0  0  0  0  0  0  0  0  0
   26.3140   27.2880   20.1180 N   0  0  0  0  0  0  0  0  0  0  0  0
   28.3390   27.4740   20.7810 N   0  0  0  0  0  0  0  0  0  0  0  0
   27.1210   27.1040   21.1510 N   0  0  0  0  0  0  0  0  0  0  0  0
   29.5460   27.4420   21.6040 C   0  0  0  0  0  0  0  0  0  0  0  0
   30.3880   28.6230   21.1630 C   0  0  1  0  0  0  0  0  0  0  0  0
   30.3280   29.6190   22.1310 O   0  0  0  0  0  0  0  0  0  0  0  0
   30.5590   29.2080   23.0070 H   0  0  0  0  0  0  0  0  0  0  0  0
   31.8440   28.1870   20.9650 C   0  0  0  0  0  0  0  0  0  0  0  0
   31.8930   27.1720   20.0070 O   0  0  0  0  0  0  0  0  0  0  0  0
   32.5100   27.4490   19.2650 H   0  0  0  0  0  0  0  0  0  0  0  0
   29.8670   25.5550   16.9770 C   0  0  0  0  0  0  0  0  0  0  0  0
   28.3450   25.7220   17.0260 C   0  0  0  0  0  0  0  0  0  0  0  0
   27.6010   24.4030   16.8880 C   0  0  0  0  0  0  0  0  0  0  0  0
   26.5420   24.2360   17.9420 C   0  0  0  0  0  0  0  0  0  0  0  0
   25.1640   24.3900   17.3080 C   0  0  0  0  0  0  0  0  0  0  0  0
   24.4710   23.0810   17.2490 N   0  0  0  0  0  0  0  0  0  0  0  0
  1  4  1  0  0  0  0
  2  1  1  0  0  0  0
  2 31  1  0  0  0  0
  3  2  2  0  0  0  0
  5  1  1  0  0  0  0
  6  5  1  6  0  0  0
  6  7  1  0  0  0  0
  7 27  1  1  0  0  0
  8 13  1  0  0  0  0
  8  7  1  1  0  0  0
  9 16  1  6  0  0  0
  9 11  1  0  0  0  0
  9 14  1  0  0  0  0
 10 12  1  0  0  0  0
 10  9  1  0  0  0  0
 11  8  1  0  0  0  0
 12 20  1  1  0  0  0
 12 13  1  0  0  0  0
 13 22  1  6  0  0  0
 14 15  1  0  0  0  0
 17 16  2  0  0  0  0
 18 16  1  0  0  0  0
 19 18  1  0  0  0  0
 21 20  1  0  0  0  0
 22 23  1  0  0  0  0
 23 25  1  0  0  0  0
 23 26  2  0  0  0  0
 24 22  1  0  0  0  0
 27 28  1  0  0  0  0
 29 30  1  0  0  0  0
 29  6  1  0  0  0  0
 31 32  1  0  0  0  0
 32 33  1  0  0  0  0
 33 34  2  0  0  0  0
 33 35  1  0  0  0  0
 34 36  1  0  0  0  0
 35 37  2  0  0  0  0
 36 37  1  0  0  0  0
 36 38  1  0  0  0  0
 39 42  1  1  0  0  0
 39 38  1  0  0  0  0
 39 40  1  0  0  0  0
 40 41  1  0  0  0  0
 43 42  1  0  0  0  0
 44 43  1  0  0  0  0
 45 46  1  0  0  0  0
 47 46  1  0  0  0  0
 47 48  1  0  0  0  0
 49 48  1  0  0  0  0
 50 49  1  0  0  0  0
M  END
>  <REMARK>
 VINA RESULT:    -4.487      2.587      6.962
 INTER + INTRA:         -14.029
 INTER:                  -8.162
 INTRA:                  -5.867
 UNBOUND:                -5.477
 SMILES CC(=O)N[C@@H]1[C@@H](O)C[C@](O)(C(=O)O)O[C@H]1C(O)[C@H](O)CNC(=O)OCc1cn(CC(O)CO)nn1
 SMILES IDX 21 1 22 2 23 3 20 5 18 6 16 7 15 8 9 9 8 10 14 11 6 12 5 13
 SMILES IDX 10 14 11 16 12 17 13 18 7 20 4 22 2 23 1 25 3 26 17 27 19 29
 SMILES IDX 24 31 25 32 26 33 27 34 35 35 28 36 34 37 29 38 30 39 31 40
 SMILES IDX 32 42 33 43
 H PARENT 21 4 10 15 13 19 7 21 4 24 17 28 19 30 31 41 33 44
 Flexibility Score: inf
  4 active torsions:
  status: ('A' for Active; 'I' for Inactive)
    1  A    between atoms: CA   and  CB  
    2  A    between atoms: CB   and  CG  
    3  A    between atoms: CG   and  CD  
    4  A    between atoms: CD   and  CE  

>  <TORSDO>
F 19

>  <BEGIN_>
RES LYS A 131

$$$$
ligand_50_pose_16_2HRL.pdbqt
 OpenBabel07062320523D

  6  5  0  0  0  0  0  0  0  0999 V2000
   33.1930   34.6630    9.2900 C   0  0  0  0  0  0  0  0  0  0  0  0
   32.0600   35.3600   10.0340 C   0  0  0  0  0  0  0  0  0  0  0  0
   30.7020   34.7680    9.7560 C   0  0  0  0  0  0  0  0  0  0  0  0
   30.4880   34.5970    8.2600 C   0  0  0  0  0  0  0  0  0  0  0  0
   29.0420   34.8700    7.8940 C   0  0  0  0  0  0  0  0  0  0  0  0
   28.9430   35.5840    6.5910 N   0  0  0  0  0  0  0  0  0  0  0  0
  1  2  1  0  0  0  0
  3  2  1  0  0  0  0
  4  3  1  0  0  0  0
  5  4  1  0  0  0  0
  6  5  1  0  0  0  0
M  END
>  <EGIN_R>
ES LYS A 135

>  <REMARK>
  4 active torsions:
  status: ('A' for Active; 'I' for Inactive)
    5  A    between atoms: CA   and  CB  
    6  A    between atoms: CB   and  CG  
    7  A    between atoms: CG   and  CD  
    8  A    between atoms: CD   and  CE  

$$$$
