ligand_14_pose_5_2HRL.pdbqt
 OpenBabel07062320523D

 50 51  0  0  1  0  0  0  0  0999 V2000
   20.5460   35.4180    7.7140 N   0  0  0  0  0  0  0  0  0  0  0  0
   19.1460   35.5530    7.7130 C   0  0  0  0  0  0  0  0  0  0  0  0
   18.6210   36.6680    7.5950 O   0  0  0  0  0  0  0  0  0  0  0  0
   20.8900   34.4050    7.8340 H   0  0  0  0  0  0  0  0  0  0  0  0
   21.5100   36.4630    7.5780 C   0  0  0  0  0  0  0  0  0  0  0  0
   22.1700   36.7630    8.8930 C   0  0  2  0  0  0  0  0  0  0  0  0
   23.1190   35.6420    9.3060 C   0  0  1  0  0  0  0  0  0  0  0  0
   24.3490   36.3250    9.9300 C   0  0  2  0  0  0  0  0  0  0  0  0
   25.7380   37.4170    8.3880 C   0  0  2  0  0  0  0  0  0  0  0  0
   26.2660   36.0350    8.0580 C   0  0  0  0  0  0  0  0  0  0  0  0
   24.6770   37.4380    9.2380 O   0  0  0  0  0  0  0  0  0  0  0  0
   26.5650   35.2810    9.3070 C   0  0  1  0  0  0  0  0  0  0  0  0
   25.4190   35.3510   10.2640 C   0  0  1  0  0  0  0  0  0  0  0  0
   25.2590   37.9160    7.1520 O   0  0  0  0  0  0  0  0  0  0  0  0
   25.3760   38.9150    7.1550 H   0  0  0  0  0  0  0  0  0  0  0  0
   26.8300   38.3240    8.8140 C   0  0  0  0  0  0  0  0  0  0  0  0
   27.6490   38.7440    7.9680 O   0  0  0  0  0  0  0  0  0  0  0  0
   26.9590   38.7130   10.1330 O   0  0  0  0  0  0  0  0  0  0  0  0
   26.1470   38.6760   10.7330 H   0  0  0  0  0  0  0  0  0  0  0  0
   26.8500   33.9660    8.9590 O   0  0  0  0  0  0  0  0  0  0  0  0
   26.7470   33.3700    9.7500 H   0  0  0  0  0  0  0  0  0  0  0  0
   25.8730   35.5090   11.6440 N   0  0  0  0  0  0  0  0  0  0  0  0
   25.3410   34.7690   12.7060 C   0  0  0  0  0  0  0  0  0  0  0  0
   26.6220   36.2080   11.8080 H   0  0  0  0  0  0  0  0  0  0  0  0
   25.8630   34.9960   14.0780 C   0  0  0  0  0  0  0  0  0  0  0  0
   24.4200   33.9140   12.4990 O   0  0  0  0  0  0  0  0  0  0  0  0
   22.4650   34.8710   10.2630 O   0  0  0  0  0  0  0  0  0  0  0  0
   21.8440   34.2180    9.8970 H   0  0  0  0  0  0  0  0  0  0  0  0
   21.3050   37.0910    9.9120 O   0  0  0  0  0  0  0  0  0  0  0  0
   21.7290   37.4890   10.7080 H   0  0  0  0  0  0  0  0  0  0  0  0
   18.2870   34.4590    7.8430 O   0  0  0  0  0  0  0  0  0  0  0  0
   17.6020   34.2220    9.0560 C   0  0  0  0  0  0  0  0  0  0  0  0
   18.5250   33.8970   10.1720 C   0  0  0  0  0  0  0  0  0  0  0  0
   18.4570   32.7980   11.0300 C   0  0  0  0  0  0  0  0  0  0  0  0
   19.6050   34.5780   10.5960 N   0  0  0  0  0  0  0  0  0  0  0  0
   19.4640   32.8390   11.9190 N   0  0  0  0  0  0  0  0  0  0  0  0
   20.1460   33.9540   11.6140 N   0  0  0  0  0  0  0  0  0  0  0  0
   19.7790   31.9150   12.9880 C   0  0  0  0  0  0  0  0  0  0  0  0
   20.1090   30.5450   12.4970 C   0  0  0  0  0  0  0  0  0  0  0  0
   21.5020   30.3400   12.1880 N   0  0  0  0  0  0  0  0  0  0  0  0
   22.2870   31.1770   13.0790 C   0  0  0  0  0  0  0  0  0  0  0  0
   21.9260   28.9780   12.4510 C   0  0  0  0  0  0  0  0  0  0  0  0
   23.4410   30.3660   13.5730 C   0  0  0  0  0  0  0  0  0  0  0  0
   23.4170   29.1590   12.6580 C   0  0  0  0  0  0  0  0  0  0  0  0
   29.8670   25.5550   16.9770 C   0  0  0  0  0  0  0  0  0  0  0  0
   28.3450   25.7220   17.0260 C   0  0  0  0  0  0  0  0  0  0  0  0
   27.5990   24.4200   16.7750 C   0  0  0  0  0  0  0  0  0  0  0  0
   26.7530   24.0170   17.9500 C   0  0  0  0  0  0  0  0  0  0  0  0
   25.3700   23.5970   17.4620 C   0  0  0  0  0  0  0  0  0  0  0  0
   24.5660   24.7860   17.0940 N   0  0  0  0  0  0  0  0  0  0  0  0
  1  4  1  0  0  0  0
  2  1  1  0  0  0  0
  2 31  1  0  0  0  0
  3  2  2  0  0  0  0
  5  1  1  0  0  0  0
  6  5  1  6  0  0  0
  6  7  1  0  0  0  0
  6 29  1  0  0  0  0
  7 27  1  1  0  0  0
  8  7  1  6  0  0  0
  8 13  1  0  0  0  0
  9 14  1  6  0  0  0
  9 16  1  0  0  0  0
  9 11  1  0  0  0  0
 10  9  1  0  0  0  0
 10 12  1  0  0  0  0
 11  8  1  0  0  0  0
 12 20  1  6  0  0  0
 12 13  1  0  0  0  0
 13 22  1  1  0  0  0
 14 15  1  0  0  0  0
 16 18  1  0  0  0  0
 17 16  2  0  0  0  0
 18 19  1  0  0  0  0
 20 21  1  0  0  0  0
 22 24  1  0  0  0  0
 22 23  1  0  0  0  0
 23 25  1  0  0  0  0
 26 23  2  0  0  0  0
 28 27  1  0  0  0  0
 29 30  1  0  0  0  0
 31 32  1  0  0  0  0
 32 33  1  0  0  0  0
 33 35  1  0  0  0  0
 33 34  2  0  0  0  0
 34 36  1  0  0  0  0
 35 37  2  0  0  0  0
 36 38  1  0  0  0  0
 37 36  1  0  0  0  0
 39 38  1  0  0  0  0
 40 42  1  0  0  0  0
 40 39  1  0  0  0  0
 40 41  1  0  0  0  0
 41 43  1  0  0  0  0
 42 44  1  0  0  0  0
 44 43  1  0  0  0  0
 45 46  1  0  0  0  0
 47 46  1  0  0  0  0
 47 48  1  0  0  0  0
 49 48  1  0  0  0  0
 50 49  1  0  0  0  0
M  END
>  <REMARK>
 VINA RESULT:    -4.538      5.356      8.225
 INTER + INTRA:         -14.378
 INTER:                  -8.537
 INTRA:                  -5.841
 UNBOUND:                -5.994
 SMILES CC(=O)N[C@@H]1[C@@H](O)C[C@](O)(C(=O)O)O[C@H]1C(O)[C@H](O)CNC(=O)OCc1cn(CCN2CCCC2)nn1
 SMILES IDX 21 1 22 2 23 3 20 5 18 6 16 7 15 8 9 9 8 10 14 11 6 12 5 13
 SMILES IDX 10 14 11 16 12 17 13 18 7 20 4 22 2 23 1 25 3 26 17 27 19 29
 SMILES IDX 24 31 25 32 26 33 27 34 37 35 28 36 36 37 29 38 30 39 31 40
 SMILES IDX 32 41 35 42 33 43 34 44
 H PARENT 21 4 10 15 13 19 7 21 4 24 17 28 19 30
 Flexibility Score: inf
  4 active torsions:
  status: ('A' for Active; 'I' for Inactive)
    1  A    between atoms: CA   and  CB  
    2  A    between atoms: CB   and  CG  
    3  A    between atoms: CG   and  CD  
    4  A    between atoms: CD   and  CE  

>  <TORSDO>
F 17

>  <BEGIN_>
RES LYS A 131

$$$$
ligand_14_pose_5_2HRL.pdbqt
 OpenBabel07062320523D

  6  5  0  0  0  0  0  0  0  0999 V2000
   33.1930   34.6630    9.2900 C   0  0  0  0  0  0  0  0  0  0  0  0
   32.0600   35.3600   10.0340 C   0  0  0  0  0  0  0  0  0  0  0  0
   30.7540   34.6110    9.9810 C   0  0  0  0  0  0  0  0  0  0  0  0
   30.3340   34.3660    8.5400 C   0  0  0  0  0  0  0  0  0  0  0  0
   29.8310   35.6490    7.9060 C   0  0  0  0  0  0  0  0  0  0  0  0
   29.2950   35.3980    6.5390 N   0  0  0  0  0  0  0  0  0  0  0  0
  1  2  1  0  0  0  0
  3  2  1  0  0  0  0
  4  3  1  0  0  0  0
  5  4  1  0  0  0  0
  6  5  1  0  0  0  0
M  END
>  <EGIN_R>
ES LYS A 135

>  <REMARK>
  4 active torsions:
  status: ('A' for Active; 'I' for Inactive)
    5  A    between atoms: CA   and  CB  
    6  A    between atoms: CB   and  CG  
    7  A    between atoms: CG   and  CD  
    8  A    between atoms: CD   and  CE  

$$$$
