ligand_38_pose_17_2HRL.pdbqt
 OpenBabel07062320523D

 51 52  0  0  1  0  0  0  0  0999 V2000
   24.4350   36.9630    9.7310 N   0  0  0  0  0  0  0  0  0  0  0  0
   24.3310   35.7390   10.4330 C   0  0  0  0  0  0  0  0  0  0  0  0
   23.2080   35.1480   10.5460 O   0  0  0  0  0  0  0  0  0  0  0  0
   25.3730   37.4110    9.6630 H   0  0  0  0  0  0  0  0  0  0  0  0
   23.2290   37.4990    9.1610 C   0  0  0  0  0  0  0  0  0  0  0  0
   23.3530   37.6470    7.6370 C   0  0  2  0  0  0  0  0  0  0  0  0
   23.5070   39.1050    7.3860 C   0  0  2  0  0  0  0  0  0  0  0  0
   24.9150   39.6190    7.3030 C   0  0  2  0  0  0  0  0  0  0  0  0
   27.0470   38.6740    7.1770 C   0  0  2  0  0  0  0  0  0  0  0  0
   27.5590   39.8960    7.9150 C   0  0  0  0  0  0  0  0  0  0  0  0
   25.7180   38.4830    7.4610 O   0  0  0  0  0  0  0  0  0  0  0  0
   26.5540   40.3600    8.9570 C   0  0  1  0  0  0  0  0  0  0  0  0
   25.2640   40.7380    8.2060 C   0  0  1  0  0  0  0  0  0  0  0  0
   27.7170   37.5790    7.7660 O   0  0  0  0  0  0  0  0  0  0  0  0
   27.0940   36.9200    8.1270 H   0  0  0  0  0  0  0  0  0  0  0  0
   27.3920   38.6880    5.7540 C   0  0  0  0  0  0  0  0  0  0  0  0
   27.7490   39.7550    5.2010 O   0  0  0  0  0  0  0  0  0  0  0  0
   27.3460   37.5550    4.9540 O   0  0  0  0  0  0  0  0  0  0  0  0
   28.1130   36.9110    4.9700 H   0  0  0  0  0  0  0  0  0  0  0  0
   26.3370   39.4020    9.9130 O   0  0  0  0  0  0  0  0  0  0  0  0
   27.1560   38.8160    9.9740 H   0  0  0  0  0  0  0  0  0  0  0  0
   25.6360   41.9440    7.4550 N   0  0  0  0  0  0  0  0  0  0  0  0
   24.6590   42.8820    7.0260 C   0  0  0  0  0  0  0  0  0  0  0  0
   26.6240   42.1640    7.2020 H   0  0  0  0  0  0  0  0  0  0  0  0
   25.0640   44.1120    6.2540 C   0  0  0  0  0  0  0  0  0  0  0  0
   23.4520   42.7270    7.2680 O   0  0  0  0  0  0  0  0  0  0  0  0
   22.9530   39.7530    8.5220 O   0  0  0  0  0  0  0  0  0  0  0  0
   23.2860   39.2200    9.2980 H   0  0  0  0  0  0  0  0  0  0  0  0
   22.1900   37.0910    7.1110 O   0  0  0  0  0  0  0  0  0  0  0  0
   21.5070   37.0750    7.8160 H   0  0  0  0  0  0  0  0  0  0  0  0
   25.4150   35.1120   11.0310 O   0  0  0  0  0  0  0  0  0  0  0  0
   26.0830   35.6200   12.1720 C   0  0  0  0  0  0  0  0  0  0  0  0
   27.3190   36.3560   11.7930 C   0  0  0  0  0  0  0  0  0  0  0  0
   28.4690   36.4970   12.5780 C   0  0  0  0  0  0  0  0  0  0  0  0
   27.5940   37.0210   10.6570 N   0  0  0  0  0  0  0  0  0  0  0  0
   29.3600   37.2230   11.8950 N   0  0  0  0  0  0  0  0  0  0  0  0
   28.8080   37.5280   10.7360 N   0  0  0  0  0  0  0  0  0  0  0  0
   30.6900   37.6290   12.2950 C   0  0  0  0  0  0  0  0  0  0  0  0
   31.2150   38.6550   11.3580 C   0  0  0  0  0  0  0  0  0  0  0  0
   31.8130   38.2960   10.1700 C   0  0  0  0  0  0  0  0  0  0  0  0
   31.1100   39.9830   11.6660 C   0  0  0  0  0  0  0  0  0  0  0  0
   32.3090   39.2590    9.2870 C   0  0  0  0  0  0  0  0  0  0  0  0
   31.6000   40.9540   10.7930 C   0  0  0  0  0  0  0  0  0  0  0  0
   32.2010   40.5870    9.6000 C   0  0  0  0  0  0  0  0  0  0  0  0
   31.4360   42.7880   11.2550 Br  0  0  0  0  0  0  0  0  0  0  0  0
   29.8670   25.5550   16.9770 C   0  0  0  0  0  0  0  0  0  0  0  0
   28.3450   25.7220   17.0260 C   0  0  0  0  0  0  0  0  0  0  0  0
   27.5990   24.4760   16.5740 C   0  0  0  0  0  0  0  0  0  0  0  0
   27.1670   23.6220   17.7340 C   0  0  0  0  0  0  0  0  0  0  0  0
   26.1120   24.3660   18.5480 C   0  0  0  0  0  0  0  0  0  0  0  0
   25.4920   23.4600   19.5430 N   0  0  0  0  0  0  0  0  0  0  0  0
  1  2  1  0  0  0  0
  2  3  2  0  0  0  0
  2 31  1  0  0  0  0
  4  1  1  0  0  0  0
  5  1  1  0  0  0  0
  6  5  1  1  0  0  0
  7  6  1  0  0  0  0
  7 27  1  1  0  0  0
  8  7  1  1  0  0  0
  8 11  1  0  0  0  0
  8 13  1  0  0  0  0
  9 16  1  6  0  0  0
  9 11  1  0  0  0  0
  9 14  1  0  0  0  0
  9 10  1  0  0  0  0
 10 12  1  0  0  0  0
 12 20  1  1  0  0  0
 13 22  1  6  0  0  0
 13 12  1  0  0  0  0
 14 15  1  0  0  0  0
 17 16  2  0  0  0  0
 18 19  1  0  0  0  0
 18 16  1  0  0  0  0
 20 21  1  0  0  0  0
 23 26  2  0  0  0  0
 23 22  1  0  0  0  0
 24 22  1  0  0  0  0
 25 23  1  0  0  0  0
 27 28  1  0  0  0  0
 29  6  1  0  0  0  0
 29 30  1  0  0  0  0
 31 32  1  0  0  0  0
 33 32  1  0  0  0  0
 33 34  2  0  0  0  0
 35 37  2  0  0  0  0
 35 33  1  0  0  0  0
 36 38  1  0  0  0  0
 36 34  1  0  0  0  0
 37 36  1  0  0  0  0
 39 41  1  0  0  0  0
 39 38  1  0  0  0  0
 40 39  2  0  0  0  0
 42 44  2  0  0  0  0
 42 40  1  0  0  0  0
 43 45  1  0  0  0  0
 43 41  2  0  0  0  0
 44 43  1  0  0  0  0
 46 47  1  0  0  0  0
 48 47  1  0  0  0  0
 48 49  1  0  0  0  0
 49 50  1  0  0  0  0
 50 51  1  0  0  0  0
M  END
>  <REMARK>
 VINA RESULT:    -4.479      6.419     10.470
 INTER + INTRA:         -14.309
 INTER:                  -7.515
 INTRA:                  -6.794
 UNBOUND:                -6.295
 SMILES CC(=O)N[C@@H]1[C@@H](O)C[C@](O)(C(=O)O)O[C@H]1C(O)[C@H](O)CNC(=O)OCc1cn(Cc2cccc(Br)c2)nn1
 SMILES IDX 21 1 22 2 23 3 20 5 18 6 16 7 15 8 9 9 8 10 14 11 6 12 5 13
 SMILES IDX 10 14 11 16 12 17 13 18 7 20 4 22 2 23 1 25 3 26 17 27 19 29
 SMILES IDX 24 31 25 32 26 33 27 34 38 35 28 36 37 37 29 38 30 39 31 40
 SMILES IDX 36 41 32 42 34 43 33 44 35 45
 H PARENT 21 4 10 15 13 19 7 21 4 24 17 28 19 30
 Flexibility Score: inf
  4 active torsions:
  status: ('A' for Active; 'I' for Inactive)
    1  A    between atoms: CA   and  CB  
    2  A    between atoms: CB   and  CG  
    3  A    between atoms: CG   and  CD  
    4  A    between atoms: CD   and  CE  

>  <TORSDO>
F 16

>  <BEGIN_>
RES LYS A 131

$$$$
ligand_38_pose_17_2HRL.pdbqt
 OpenBabel07062320523D

  6  5  0  0  0  0  0  0  0  0999 V2000
   33.1930   34.6630    9.2900 C   0  0  0  0  0  0  0  0  0  0  0  0
   32.0600   35.3600   10.0340 C   0  0  0  0  0  0  0  0  0  0  0  0
   30.7450   34.6280    9.9510 C   0  0  0  0  0  0  0  0  0  0  0  0
   30.3080   34.4720    8.5030 C   0  0  0  0  0  0  0  0  0  0  0  0
   28.7960   34.4180    8.4060 C   0  0  0  0  0  0  0  0  0  0  0  0
   28.2090   33.6910    9.5670 N   0  0  0  0  0  0  0  0  0  0  0  0
  1  2  1  0  0  0  0
  3  2  1  0  0  0  0
  4  3  1  0  0  0  0
  5  4  1  0  0  0  0
  5  6  1  0  0  0  0
M  END
>  <EGIN_R>
ES LYS A 135

>  <REMARK>
  4 active torsions:
  status: ('A' for Active; 'I' for Inactive)
    5  A    between atoms: CA   and  CB  
    6  A    between atoms: CB   and  CG  
    7  A    between atoms: CG   and  CD  
    8  A    between atoms: CD   and  CE  

$$$$
