ligand_36_pose_16_2HRL.pdbqt
 OpenBabel07062320523D

 52 53  0  0  1  0  0  0  0  0999 V2000
   23.8720   32.0860   15.7150 N   0  0  0  0  0  0  0  0  0  0  0  0
   23.5760   32.3110   14.3390 C   0  0  0  0  0  0  0  0  0  0  0  0
   23.8180   31.3820   13.4920 O   0  0  0  0  0  0  0  0  0  0  0  0
   23.6630   32.8520   16.3820 H   0  0  0  0  0  0  0  0  0  0  0  0
   24.4300   30.8470   16.1180 C   0  0  0  0  0  0  0  0  0  0  0  0
   25.9190   30.8310   16.3670 C   0  0  2  0  0  0  0  0  0  0  0  0
   26.3870   31.9590   17.2630 C   0  0  2  0  0  0  0  0  0  0  0  0
   27.8140   31.8200   17.6730 C   0  0  2  0  0  0  0  0  0  0  0  0
   29.9530   31.6070   16.7800 C   0  0  2  0  0  0  0  0  0  0  0  0
   30.3500   31.6690   18.2370 C   0  0  0  0  0  0  0  0  0  0  0  0
   28.6500   31.9390   16.5560 O   0  0  0  0  0  0  0  0  0  0  0  0
   29.4960   30.8230   19.1140 C   0  0  1  0  0  0  0  0  0  0  0  0
   28.1850   30.5440   18.3580 C   0  0  1  0  0  0  0  0  0  0  0  0
   30.2720   30.3220   16.2890 O   0  0  0  0  0  0  0  0  0  0  0  0
   29.4590   29.7480   16.4080 H   0  0  0  0  0  0  0  0  0  0  0  0
   30.8110   32.5730   16.0620 C   0  0  0  0  0  0  0  0  0  0  0  0
   30.8400   33.7670   16.4360 O   0  0  0  0  0  0  0  0  0  0  0  0
   31.5750   32.1680   14.9930 O   0  0  0  0  0  0  0  0  0  0  0  0
   32.4930   31.7670   15.0560 H   0  0  0  0  0  0  0  0  0  0  0  0
   30.0910   29.6470   19.5240 O   0  0  0  0  0  0  0  0  0  0  0  0
   31.0810   29.8220   19.5730 H   0  0  0  0  0  0  0  0  0  0  0  0
   27.2050   29.9910   19.2400 N   0  0  0  0  0  0  0  0  0  0  0  0
   26.9750   28.5740   19.3050 C   0  0  0  0  0  0  0  0  0  0  0  0
   26.6170   30.5920   19.8850 H   0  0  0  0  0  0  0  0  0  0  0  0
   25.9490   28.0080   20.2300 C   0  0  0  0  0  0  0  0  0  0  0  0
   27.6310   27.7820   18.5850 O   0  0  0  0  0  0  0  0  0  0  0  0
   25.5030   32.1690   18.2710 O   0  0  0  0  0  0  0  0  0  0  0  0
   25.3170   33.0810   18.5000 H   0  0  0  0  0  0  0  0  0  0  0  0
   26.4860   31.0010   15.0770 O   0  0  0  0  0  0  0  0  0  0  0  0
   25.8230   31.2870   14.4220 H   0  0  0  0  0  0  0  0  0  0  0  0
   23.0340   33.4780   13.8330 O   0  0  0  0  0  0  0  0  0  0  0  0
   23.4410   33.9200   12.5570 C   0  0  0  0  0  0  0  0  0  0  0  0
   24.5870   34.8560   12.6320 C   0  0  0  0  0  0  0  0  0  0  0  0
   25.5410   35.1210   11.6620 C   0  0  0  0  0  0  0  0  0  0  0  0
   24.8990   35.6270   13.6810 N   0  0  0  0  0  0  0  0  0  0  0  0
   26.3880   36.0330   12.1480 N   0  0  0  0  0  0  0  0  0  0  0  0
   25.9750   36.3160   13.3650 N   0  0  0  0  0  0  0  0  0  0  0  0
   27.5340   36.6120   11.4820 C   0  0  0  0  0  0  0  0  0  0  0  0
   28.8180   36.2420   12.0770 C   0  0  0  0  0  0  0  0  0  0  0  0
   29.1020   34.9250   12.3340 C   0  0  0  0  0  0  0  0  0  0  0  0
   29.7470   37.2240   12.3840 C   0  0  0  0  0  0  0  0  0  0  0  0
   30.3080   34.5600   12.9010 C   0  0  0  0  0  0  0  0  0  0  0  0
   30.9670   36.8840   12.9530 C   0  0  0  0  0  0  0  0  0  0  0  0
   31.2320   35.5370   13.2070 C   0  0  0  0  0  0  0  0  0  0  0  0
   32.4860   35.1700   13.7960 C   0  0  0  0  0  0  0  0  0  0  0  0
   33.5080   34.8540   14.2740 N   0  0  0  0  0  0  0  0  0  0  0  0
   29.8670   25.5550   16.9770 C   0  0  0  0  0  0  0  0  0  0  0  0
   28.3450   25.7220   17.0260 C   0  0  0  0  0  0  0  0  0  0  0  0
   27.5990   24.4570   16.6320 C   0  0  0  0  0  0  0  0  0  0  0  0
   27.0570   23.7230   17.8270 C   0  0  0  0  0  0  0  0  0  0  0  0
   26.1730   24.6610   18.6430 C   0  0  0  0  0  0  0  0  0  0  0  0
   24.8270   24.7660   18.0320 N   0  0  0  0  0  0  0  0  0  0  0  0
  1  5  1  0  0  0  0
  1  4  1  0  0  0  0
  2  1  1  0  0  0  0
  3  2  2  0  0  0  0
  6  5  1  6  0  0  0
  6  7  1  0  0  0  0
  7 27  1  1  0  0  0
  8  7  1  6  0  0  0
  8 13  1  0  0  0  0
  9 16  1  6  0  0  0
  9 10  1  0  0  0  0
 10 12  1  0  0  0  0
 11  9  1  0  0  0  0
 11  8  1  0  0  0  0
 12 20  1  6  0  0  0
 13 12  1  0  0  0  0
 13 22  1  1  0  0  0
 14 15  1  0  0  0  0
 14  9  1  0  0  0  0
 16 17  2  0  0  0  0
 18 19  1  0  0  0  0
 18 16  1  0  0  0  0
 20 21  1  0  0  0  0
 22 23  1  0  0  0  0
 22 24  1  0  0  0  0
 23 25  1  0  0  0  0
 26 23  2  0  0  0  0
 27 28  1  0  0  0  0
 29  6  1  0  0  0  0
 30 29  1  0  0  0  0
 31  2  1  0  0  0  0
 32 33  1  0  0  0  0
 32 31  1  0  0  0  0
 33 35  1  0  0  0  0
 34 36  1  0  0  0  0
 34 33  2  0  0  0  0
 36 37  1  0  0  0  0
 37 35  2  0  0  0  0
 38 39  1  0  0  0  0
 38 36  1  0  0  0  0
 39 40  2  0  0  0  0
 39 41  1  0  0  0  0
 40 42  1  0  0  0  0
 41 43  2  0  0  0  0
 42 44  2  0  0  0  0
 43 44  1  0  0  0  0
 44 45  1  0  0  0  0
 45 46  3  0  0  0  0
 47 48  1  0  0  0  0
 49 48  1  0  0  0  0
 49 50  1  0  0  0  0
 50 51  1  0  0  0  0
 52 51  1  0  0  0  0
M  END
>  <REMARK>
 VINA RESULT:    -4.097      3.128      4.823
 INTER + INTRA:         -14.550
 INTER:                  -8.519
 INTRA:                  -6.031
 UNBOUND:                -6.980
 SMILES CC(=O)N[C@@H]1[C@@H](O)C[C@](O)(C(=O)O)O[C@H]1C(O)[C@H](O)CNC(=O)OCc1cn(Cc2ccc(C#N)cc2)nn1
 SMILES IDX 21 1 22 2 23 3 20 5 18 6 16 7 15 8 9 9 8 10 14 11 6 12 5 13
 SMILES IDX 10 14 11 16 12 17 13 18 7 20 4 22 2 23 1 25 3 26 17 27 19 29
 SMILES IDX 24 31 25 32 26 33 27 34 39 35 28 36 38 37 29 38 30 39 31 40
 SMILES IDX 37 41 32 42 36 43 33 44 34 45 35 46
 H PARENT 21 4 10 15 13 19 7 21 4 24 17 28 19 30
 Flexibility Score: inf
  4 active torsions:
  status: ('A' for Active; 'I' for Inactive)
    1  A    between atoms: CA   and  CB  
    2  A    between atoms: CB   and  CG  
    3  A    between atoms: CG   and  CD  
    4  A    between atoms: CD   and  CE  

>  <TORSDO>
F 17

>  <BEGIN_>
RES LYS A 131

$$$$
ligand_36_pose_16_2HRL.pdbqt
 OpenBabel07062320523D

  6  5  0  0  0  0  0  0  0  0999 V2000
   33.1930   34.6630    9.2900 C   0  0  0  0  0  0  0  0  0  0  0  0
   32.0600   35.3600   10.0340 C   0  0  0  0  0  0  0  0  0  0  0  0
   30.8630   35.6560    9.1680 C   0  0  0  0  0  0  0  0  0  0  0  0
   30.2690   34.3690    8.6160 C   0  0  0  0  0  0  0  0  0  0  0  0
   28.7800   34.5300    8.3740 C   0  0  0  0  0  0  0  0  0  0  0  0
   27.9880   33.7400    9.3570 N   0  0  0  0  0  0  0  0  0  0  0  0
  1  2  1  0  0  0  0
  3  2  1  0  0  0  0
  4  3  1  0  0  0  0
  5  4  1  0  0  0  0
  5  6  1  0  0  0  0
M  END
>  <EGIN_R>
ES LYS A 135

>  <REMARK>
  4 active torsions:
  status: ('A' for Active; 'I' for Inactive)
    5  A    between atoms: CA   and  CB  
    6  A    between atoms: CB   and  CG  
    7  A    between atoms: CG   and  CD  
    8  A    between atoms: CD   and  CE  

$$$$
