ligand_41_pose_8_2HRL.pdbqt
 OpenBabel07062320523D

 52 53  0  0  1  0  0  0  0  0999 V2000
   29.2040   32.3340   17.8390 N   0  0  0  0  0  0  0  0  0  0  0  0
   28.0150   31.9370   17.1350 C   0  0  0  0  0  0  0  0  0  0  0  0
   27.9590   30.7840   16.6440 O   0  0  0  0  0  0  0  0  0  0  0  0
   29.2090   33.2930   18.2370 H   0  0  0  0  0  0  0  0  0  0  0  0
   30.3030   31.4210   17.9570 C   0  0  0  0  0  0  0  0  0  0  0  0
   30.6810   31.0080   19.3410 C   0  0  2  0  0  0  0  0  0  0  0  0
   29.7290   30.0440   19.9820 C   0  0  2  0  0  0  0  0  0  0  0  0
   30.3060   29.2660   21.1350 C   0  0  2  0  0  0  0  0  0  0  0  0
   32.2470   28.8470   22.3140 C   0  0  2  0  0  0  0  0  0  0  0  0
   32.1550   27.3430   22.1340 C   0  0  0  0  0  0  0  0  0  0  0  0
   31.6320   29.4790   21.2950 O   0  0  0  0  0  0  0  0  0  0  0  0
   31.2280   26.9670   21.0270 C   0  0  1  0  0  0  0  0  0  0  0  0
   29.9980   27.7930   20.9690 C   0  0  1  0  0  0  0  0  0  0  0  0
   33.6580   29.1060   22.2480 O   0  0  0  0  0  0  0  0  0  0  0  0
   34.1440   28.2330   22.3680 H   0  0  0  0  0  0  0  0  0  0  0  0
   31.8620   29.1990   23.6850 C   0  0  0  0  0  0  0  0  0  0  0  0
   31.4660   28.3620   24.5290 O   0  0  0  0  0  0  0  0  0  0  0  0
   31.9190   30.5200   24.1340 O   0  0  0  0  0  0  0  0  0  0  0  0
   31.0930   30.9710   24.5100 H   0  0  0  0  0  0  0  0  0  0  0  0
   31.9200   27.1080   19.8120 O   0  0  0  0  0  0  0  0  0  0  0  0
   31.3490   26.9270   19.0270 H   0  0  0  0  0  0  0  0  0  0  0  0
   28.9860   27.3050   21.8500 N   0  0  0  0  0  0  0  0  0  0  0  0
   27.6240   27.1620   21.4640 C   0  0  0  0  0  0  0  0  0  0  0  0
   29.2400   27.0350   22.8180 H   0  0  0  0  0  0  0  0  0  0  0  0
   26.6090   26.6490   22.4200 C   0  0  0  0  0  0  0  0  0  0  0  0
   27.2370   27.4630   20.3060 O   0  0  0  0  0  0  0  0  0  0  0  0
   28.9770   29.3140   19.0970 O   0  0  0  0  0  0  0  0  0  0  0  0
   29.2430   28.3530   19.2080 H   0  0  0  0  0  0  0  0  0  0  0  0
   30.5760   32.2220   20.1390 O   0  0  0  0  0  0  0  0  0  0  0  0
   31.1340   32.0120   20.9340 H   0  0  0  0  0  0  0  0  0  0  0  0
   26.9310   32.7670   16.9690 O   0  0  0  0  0  0  0  0  0  0  0  0
   26.8670   33.7160   15.9080 C   0  0  0  0  0  0  0  0  0  0  0  0
   25.9600   33.2590   14.8250 C   0  0  0  0  0  0  0  0  0  0  0  0
   25.0820   32.2080   14.8410 C   0  0  0  0  0  0  0  0  0  0  0  0
   25.8360   33.8180   13.5900 N   0  0  0  0  0  0  0  0  0  0  0  0
   24.4550   32.1610   13.6190 N   0  0  0  0  0  0  0  0  0  0  0  0
   24.9450   33.1530   12.9010 N   0  0  0  0  0  0  0  0  0  0  0  0
   23.5020   31.2200   13.1570 C   0  0  0  0  0  0  0  0  0  0  0  0
   22.2090   31.4970   12.8760 C   0  0  0  0  0  0  0  0  0  0  0  0
   24.0160   29.9150   12.9870 C   0  0  0  0  0  0  0  0  0  0  0  0
   21.3830   30.4670   12.4130 C   0  0  0  0  0  0  0  0  0  0  0  0
   23.1940   28.9140   12.5320 C   0  0  0  0  0  0  0  0  0  0  0  0
   21.8870   29.2110   12.2520 C   0  0  0  0  0  0  0  0  0  0  0  0
   21.6040   32.8010   13.0300 C   0  0  1  0  0  0  0  0  0  0  0  0
   21.1100   33.0720   14.1990 O   0  0  0  0  0  0  0  0  0  0  0  0
   21.4790   33.8590   12.0280 C   0  0  0  0  0  0  0  0  0  0  0  0
   29.8670   25.5550   16.9770 C   0  0  0  0  0  0  0  0  0  0  0  0
   28.3450   25.7220   17.0260 C   0  0  0  0  0  0  0  0  0  0  0  0
   27.6020   24.3990   16.9240 C   0  0  0  0  0  0  0  0  0  0  0  0
   26.5320   24.2680   17.9730 C   0  0  0  0  0  0  0  0  0  0  0  0
   25.2030   24.7560   17.4070 C   0  0  0  0  0  0  0  0  0  0  0  0
   24.3740   23.6100   16.9660 N   0  0  0  0  0  0  0  0  0  0  0  0
  1  5  1  0  0  0  0
  1  4  1  0  0  0  0
  2  1  1  0  0  0  0
  3  2  2  0  0  0  0
  6  5  1  6  0  0  0
  6  7  1  0  0  0  0
  6 29  1  0  0  0  0
  7 27  1  6  0  0  0
  8  7  1  6  0  0  0
  8 11  1  0  0  0  0
  9 14  1  6  0  0  0
  9 16  1  0  0  0  0
 10  9  1  0  0  0  0
 11  9  1  0  0  0  0
 12 20  1  6  0  0  0
 12 10  1  0  0  0  0
 13 12  1  0  0  0  0
 13  8  1  0  0  0  0
 13 22  1  1  0  0  0
 14 15  1  0  0  0  0
 16 18  1  0  0  0  0
 16 17  2  0  0  0  0
 18 19  1  0  0  0  0
 21 20  1  0  0  0  0
 22 24  1  0  0  0  0
 23 22  1  0  0  0  0
 23 25  1  0  0  0  0
 26 23  2  0  0  0  0
 27 28  1  0  0  0  0
 29 30  1  0  0  0  0
 31  2  1  0  0  0  0
 32 31  1  0  0  0  0
 33 34  2  0  0  0  0
 33 32  1  0  0  0  0
 35 33  1  0  0  0  0
 36 34  1  0  0  0  0
 37 35  2  0  0  0  0
 37 36  1  0  0  0  0
 38 36  1  0  0  0  0
 39 44  1  0  0  0  0
 39 38  2  0  0  0  0
 40 38  1  0  0  0  0
 41 39  1  0  0  0  0
 42 40  2  0  0  0  0
 43 41  2  0  0  0  0
 43 42  1  0  0  0  0
 44 46  1  1  0  0  0
 44 45  1  0  0  0  0
 47 48  1  0  0  0  0
 49 48  1  0  0  0  0
 49 50  1  0  0  0  0
 51 50  1  0  0  0  0
 52 51  1  0  0  0  0
M  END
>  <REMARK>
 VINA RESULT:    -4.570      3.849      6.619
 INTER + INTRA:         -14.980
 INTER:                  -9.495
 INTRA:                  -5.484
 UNBOUND:                -6.804
 SMILES CC(=O)N[C@@H]1[C@@H](O)C[C@](O)(C(=O)O)O[C@H]1C(O)[C@H](O)CNC(=O)OCc1cn(-c2ccccc2C(C)=O)nn1
 SMILES IDX 21 1 22 2 23 3 20 5 18 6 16 7 15 8 9 9 8 10 14 11 6 12 5 13
 SMILES IDX 10 14 11 16 12 17 13 18 7 20 4 22 2 23 1 25 3 26 17 27 19 29
 SMILES IDX 24 31 25 32 26 33 27 34 39 35 28 36 38 37 29 38 34 39 30 40
 SMILES IDX 33 41 31 42 32 43 35 44 37 45 36 46
 H PARENT 21 4 10 15 13 19 7 21 4 24 17 28 19 30
 Flexibility Score: inf
  4 active torsions:
  status: ('A' for Active; 'I' for Inactive)
    1  A    between atoms: CA   and  CB  
    2  A    between atoms: CB   and  CG  
    3  A    between atoms: CG   and  CD  
    4  A    between atoms: CD   and  CE  

>  <TORSDO>
F 16

>  <BEGIN_>
RES LYS A 131

$$$$
ligand_41_pose_8_2HRL.pdbqt
 OpenBabel07062320523D

  6  5  0  0  0  0  0  0  0  0999 V2000
   33.1930   34.6630    9.2900 C   0  0  0  0  0  0  0  0  0  0  0  0
   32.0600   35.3600   10.0340 C   0  0  0  0  0  0  0  0  0  0  0  0
   30.7940   35.4810    9.2260 C   0  0  0  0  0  0  0  0  0  0  0  0
   30.1910   34.1090    8.9640 C   0  0  0  0  0  0  0  0  0  0  0  0
   28.7400   34.0720    9.4050 C   0  0  0  0  0  0  0  0  0  0  0  0
   27.8420   34.5940    8.3390 N   0  0  0  0  0  0  0  0  0  0  0  0
  1  2  1  0  0  0  0
  3  2  1  0  0  0  0
  4  3  1  0  0  0  0
  4  5  1  0  0  0  0
  6  5  1  0  0  0  0
M  END
>  <EGIN_R>
ES LYS A 135

>  <REMARK>
  4 active torsions:
  status: ('A' for Active; 'I' for Inactive)
    5  A    between atoms: CA   and  CB  
    6  A    between atoms: CB   and  CG  
    7  A    between atoms: CG   and  CD  
    8  A    between atoms: CD   and  CE  

$$$$
