ligand_89_pose_10_2HRL.pdbqt
 OpenBabel07062320523D

 60 63  0  0  1  0  0  0  0  0999 V2000
   30.0670   38.9740    6.7010 N   0  0  0  0  0  0  0  0  0  0  0  0
   29.4430   39.7310    5.7100 C   0  0  0  0  0  0  0  0  0  0  0  0
   29.8350   40.8380    5.3390 O   0  0  0  0  0  0  0  0  0  0  0  0
   29.6190   37.9940    6.8990 H   0  0  0  0  0  0  0  0  0  0  0  0
   31.2000   39.3420    7.4590 C   0  0  0  0  0  0  0  0  0  0  0  0
   31.5120   38.5190    8.6290 C   0  0  2  0  0  0  0  0  0  0  0  0
   30.6450   38.4450    9.8180 C   0  0  1  0  0  0  0  0  0  0  0  0
   31.5340   38.8900   11.0170 C   0  0  2  0  0  0  0  0  0  0  0  0
   31.3340   37.1420   12.5720 C   0  0  2  0  0  0  0  0  0  0  0  0
   30.7970   38.0960   13.5850 C   0  0  0  0  0  0  0  0  0  0  0  0
   32.0300   37.7870   11.6030 O   0  0  0  0  0  0  0  0  0  0  0  0
   30.0600   39.2740   13.0000 C   0  0  1  0  0  0  0  0  0  0  0  0
   30.8280   39.8910   11.8530 C   0  0  1  0  0  0  0  0  0  0  0  0
   30.2660   36.4380   11.9580 O   0  0  0  0  0  0  0  0  0  0  0  0
   30.5420   35.4830   11.9830 H   0  0  0  0  0  0  0  0  0  0  0  0
   32.1850   36.1610   13.3260 C   0  0  0  0  0  0  0  0  0  0  0  0
   32.4330   36.3590   14.5230 O   0  0  0  0  0  0  0  0  0  0  0  0
   32.6820   35.0500   12.6880 O   0  0  0  0  0  0  0  0  0  0  0  0
   33.6110   34.6860   12.9200 H   0  0  0  0  0  0  0  0  0  0  0  0
   28.7630   38.9480   12.5980 O   0  0  0  0  0  0  0  0  0  0  0  0
   28.2710   39.7770   12.3800 H   0  0  0  0  0  0  0  0  0  0  0  0
   31.7570   40.8650   12.4400 N   0  0  0  0  0  0  0  0  0  0  0  0
   32.2500   41.9740   11.7220 C   0  0  0  0  0  0  0  0  0  0  0  0
   32.0890   40.7580   13.4400 H   0  0  0  0  0  0  0  0  0  0  0  0
   33.1900   42.9560   12.3210 C   0  0  0  0  0  0  0  0  0  0  0  0
   31.8920   42.1590   10.5200 O   0  0  0  0  0  0  0  0  0  0  0  0
   29.5180   39.2690    9.7850 O   0  0  0  0  0  0  0  0  0  0  0  0
   29.4790   39.8390   10.6150 H   0  0  0  0  0  0  0  0  0  0  0  0
   32.8350   38.9310    9.0470 O   0  0  0  0  0  0  0  0  0  0  0  0
   33.0270   38.6050    9.9430 H   0  0  0  0  0  0  0  0  0  0  0  0
   28.2840   39.2520    5.0580 O   0  0  0  0  0  0  0  0  0  0  0  0
   27.0040   39.6810    5.4250 C   0  0  0  0  0  0  0  0  0  0  0  0
   26.8000   39.4590    6.8780 C   0  0  0  0  0  0  0  0  0  0  0  0
   26.7340   38.2340    7.5370 C   0  0  0  0  0  0  0  0  0  0  0  0
   26.6410   40.3720    7.8540 N   0  0  0  0  0  0  0  0  0  0  0  0
   26.5420   38.4340    8.8720 N   0  0  0  0  0  0  0  0  0  0  0  0
   26.4940   39.7350    8.9990 N   0  0  0  0  0  0  0  0  0  0  0  0
   26.4360   37.3750    9.8190 C   0  0  0  0  0  0  0  0  0  0  0  0
   27.4680   36.8540   10.5470 N   0  0  0  0  0  0  0  0  0  0  0  0
   25.3270   36.6680   10.2030 C   0  0  0  0  0  0  0  0  0  0  0  0
   26.9900   35.8780   11.3300 C   0  0  0  0  0  0  0  0  0  0  0  0
   25.6650   35.7340   11.1430 N   0  0  0  0  0  0  0  0  0  0  0  0
   24.0210   36.7350    9.8280 C   0  0  0  0  0  0  0  0  0  0  0  0
   24.7560   34.9040   11.6890 C   0  0  0  0  0  0  0  0  0  0  0  0
   23.0900   35.9350   10.3410 N   0  0  0  0  0  0  0  0  0  0  0  0
   23.6360   37.5670    8.9690 O   0  0  0  0  0  0  0  0  0  0  0  0
   25.1350   33.9750   12.6350 C   0  0  0  0  0  0  0  0  0  0  0  0
   23.4480   35.0220   11.2680 C   0  0  0  0  0  0  0  0  0  0  0  0
   24.2220   33.1080   13.2140 C   0  0  0  0  0  0  0  0  0  0  0  0
   22.5530   34.1430   11.8610 C   0  0  0  0  0  0  0  0  0  0  0  0
   22.9190   33.2080   12.8100 C   0  0  0  0  0  0  0  0  0  0  0  0
   21.6880   35.9560    9.9900 C   0  0  0  0  0  0  0  0  0  0  0  0
   21.5880   35.5730    8.5290 C   0  0  0  0  0  0  0  0  0  0  0  0
   21.0220   37.2840   10.1580 C   0  0  0  0  0  0  0  0  0  0  0  0
   29.8670   25.5550   16.9770 C   0  0  0  0  0  0  0  0  0  0  0  0
   28.3450   25.7220   17.0260 C   0  0  0  0  0  0  0  0  0  0  0  0
   27.6010   24.4030   16.8830 C   0  0  0  0  0  0  0  0  0  0  0  0
   26.1510   24.5270   17.2600 C   0  0  0  0  0  0  0  0  0  0  0  0
   26.0350   24.8020   18.7560 C   0  0  0  0  0  0  0  0  0  0  0  0
   25.4700   23.6250   19.4580 N   0  0  0  0  0  0  0  0  0  0  0  0
  1  4  1  0  0  0  0
  1  5  1  0  0  0  0
  2  1  1  0  0  0  0
  3  2  2  0  0  0  0
  6  5  1  6  0  0  0
  6 29  1  0  0  0  0
  6  7  1  0  0  0  0
  7 27  1  6  0  0  0
  8  7  1  6  0  0  0
  8 11  1  0  0  0  0
  8 13  1  0  0  0  0
  9 14  1  6  0  0  0
  9 16  1  0  0  0  0
  9 10  1  0  0  0  0
 11  9  1  0  0  0  0
 12 20  1  6  0  0  0
 12 10  1  0  0  0  0
 13 22  1  1  0  0  0
 13 12  1  0  0  0  0
 14 15  1  0  0  0  0
 16 17  2  0  0  0  0
 18 19  1  0  0  0  0
 18 16  1  0  0  0  0
 21 20  1  0  0  0  0
 22 24  1  0  0  0  0
 23 25  1  0  0  0  0
 23 22  1  0  0  0  0
 26 23  2  0  0  0  0
 27 28  1  0  0  0  0
 29 30  1  0  0  0  0
 31 32  1  0  0  0  0
 31  2  1  0  0  0  0
 32 33  1  0  0  0  0
 33 34  2  0  0  0  0
 33 35  1  0  0  0  0
 34 36  1  0  0  0  0
 35 37  2  0  0  0  0
 36 37  1  0  0  0  0
 36 38  1  0  0  0  0
 38 40  2  0  0  0  0
 38 39  1  0  0  0  0
 39 41  2  0  0  0  0
 40 42  1  0  0  0  0
 42 41  1  0  0  0  0
 42 44  1  0  0  0  0
 43 40  1  0  0  0  0
 43 45  1  0  0  0  0
 44 47  1  0  0  0  0
 45 48  1  0  0  0  0
 46 43  2  0  0  0  0
 47 49  2  0  0  0  0
 48 44  2  0  0  0  0
 48 50  1  0  0  0  0
 50 51  2  0  0  0  0
 51 49  1  0  0  0  0
 52 54  1  0  0  0  0
 52 45  1  0  0  0  0
 53 52  1  0  0  0  0
 55 56  1  0  0  0  0
 57 56  1  0  0  0  0
 57 58  1  0  0  0  0
 58 59  1  0  0  0  0
 59 60  1  0  0  0  0
M  END
>  <REMARK>
 VINA RESULT:    -4.452      6.462     11.917
 INTER + INTRA:         -15.075
 INTER:                  -8.874
 INTRA:                  -6.201
 UNBOUND:                -7.109
 SMILES CC(=O)N[C@@H]1[C@@H](O)C[C@](O)(C(=O)O)O[C@H]1C(O)[C@H](O)CNC(=O)OCc1cn(-c2ncn3c2c(=O)n(C(C)C)c2ccccc23)nn1
 SMILES IDX 21 1 22 2 23 3 20 5 18 6 16 7 15 8 9 9 8 10 14 11 6 12 5 13
 SMILES IDX 10 14 11 16 12 17 13 18 7 20 4 22 2 23 1 25 3 26 17 27 19 29
 SMILES IDX 24 31 25 32 26 33 27 34 47 35 28 36 46 37 29 38 30 39 33 40
 SMILES IDX 31 41 32 42 34 43 45 44 36 45 35 46 44 47 40 48 43 49 41 50
 SMILES IDX 42 51 37 52 38 53 39 54
 H PARENT 21 4 10 15 13 19 7 21 4 24 17 28 19 30
 Flexibility Score: inf
  4 active torsions:
  status: ('A' for Active; 'I' for Inactive)
    1  A    between atoms: CA   and  CB  
    2  A    between atoms: CB   and  CG  
    3  A    between atoms: CG   and  CD  
    4  A    between atoms: CD   and  CE  

>  <TORSDO>
F 16

>  <BEGIN_>
RES LYS A 131

$$$$
ligand_89_pose_10_2HRL.pdbqt
 OpenBabel07062320523D

  6  5  0  0  0  0  0  0  0  0999 V2000
   33.1930   34.6630    9.2900 C   0  0  0  0  0  0  0  0  0  0  0  0
   32.0600   35.3600   10.0340 C   0  0  0  0  0  0  0  0  0  0  0  0
   30.7000   34.7830    9.7370 C   0  0  0  0  0  0  0  0  0  0  0  0
   30.4960   34.6320    8.2380 C   0  0  0  0  0  0  0  0  0  0  0  0
   29.0490   34.8960    7.8670 C   0  0  0  0  0  0  0  0  0  0  0  0
   28.9500   35.5980    6.5580 N   0  0  0  0  0  0  0  0  0  0  0  0
  1  2  1  0  0  0  0
  3  2  1  0  0  0  0
  4  3  1  0  0  0  0
  5  4  1  0  0  0  0
  6  5  1  0  0  0  0
M  END
>  <EGIN_R>
ES LYS A 135

>  <REMARK>
  4 active torsions:
  status: ('A' for Active; 'I' for Inactive)
    5  A    between atoms: CA   and  CB  
    6  A    between atoms: CB   and  CG  
    7  A    between atoms: CG   and  CD  
    8  A    between atoms: CD   and  CE  

$$$$
