ligand_1_pose_11_2HRL.pdbqt
 OpenBabel07062320523D

 47 47  0  0  1  0  0  0  0  0999 V2000
   26.5340   39.2060    5.9580 N   0  0  0  0  0  0  0  0  0  0  0  0
   25.6920   40.2350    6.3940 C   0  0  0  0  0  0  0  0  0  0  0  0
   25.7740   41.3520    5.8910 O   0  0  0  0  0  0  0  0  0  0  0  0
   26.3860   38.2670    6.4610 H   0  0  0  0  0  0  0  0  0  0  0  0
   27.5390   39.2170    4.9660 C   0  0  0  0  0  0  0  0  0  0  0  0
   28.9090   39.6680    5.3670 C   0  0  2  0  0  0  0  0  0  0  0  0
   29.6990   38.5780    6.0250 C   0  0  1  0  0  0  0  0  0  0  0  0
   29.8220   38.5680    7.4890 C   0  0  2  0  0  0  0  0  0  0  0  0
   28.8060   39.0190    9.5080 C   0  0  2  0  0  0  0  0  0  0  0  0
   29.8510   38.0460   10.0100 C   0  0  0  0  0  0  0  0  0  0  0  0
   28.7030   39.0540    8.1170 O   0  0  0  0  0  0  0  0  0  0  0  0
   31.2240   38.4180    9.4650 C   0  0  1  0  0  0  0  0  0  0  0  0
   31.0490   39.1380    8.1130 C   0  0  1  0  0  0  0  0  0  0  0  0
   29.1090   40.3160    9.9150 O   0  0  0  0  0  0  0  0  0  0  0  0
   28.7130   40.5450   10.7860 H   0  0  0  0  0  0  0  0  0  0  0  0
   27.4600   38.6640   10.0110 C   0  0  0  0  0  0  0  0  0  0  0  0
   27.2400   37.6410   10.7080 O   0  0  0  0  0  0  0  0  0  0  0  0
   26.3890   39.4860    9.7080 O   0  0  0  0  0  0  0  0  0  0  0  0
   25.4280   39.1540    9.8770 H   0  0  0  0  0  0  0  0  0  0  0  0
   31.8670   39.2410   10.3790 O   0  0  0  0  0  0  0  0  0  0  0  0
   31.2030   39.9160   10.6760 H   0  0  0  0  0  0  0  0  0  0  0  0
   32.2580   38.9550    7.3370 N   0  0  0  0  0  0  0  0  0  0  0  0
   32.9130   40.1010    6.8170 C   0  0  0  0  0  0  0  0  0  0  0  0
   32.6610   38.0040    7.1520 H   0  0  0  0  0  0  0  0  0  0  0  0
   34.1580   40.0110    6.0070 C   0  0  0  0  0  0  0  0  0  0  0  0
   32.4340   41.2370    7.0390 O   0  0  0  0  0  0  0  0  0  0  0  0
   29.0310   37.3750    5.5840 O   0  0  0  0  0  0  0  0  0  0  0  0
   29.3700   36.6300    6.1080 H   0  0  0  0  0  0  0  0  0  0  0  0
   28.8770   40.8230    6.0740 O   0  0  0  0  0  0  0  0  0  0  0  0
   28.0100   41.0810    6.4450 H   0  0  0  0  0  0  0  0  0  0  0  0
   24.7470   40.0300    7.3960 O   0  0  0  0  0  0  0  0  0  0  0  0
   23.6680   39.1350    7.2300 C   0  0  0  0  0  0  0  0  0  0  0  0
   23.9140   37.9090    8.0260 C   0  0  0  0  0  0  0  0  0  0  0  0
   23.0940   37.3510    8.9750 C   0  0  0  0  0  0  0  0  0  0  0  0
   24.9880   37.1350    7.9500 N   0  0  0  0  0  0  0  0  0  0  0  0
   23.7340   36.2550    9.4210 N   0  0  0  0  0  0  0  0  0  0  0  0
   24.8930   36.1160    8.8000 N   0  0  0  0  0  0  0  0  0  0  0  0
   23.2130   35.3670   10.4400 C   0  0  0  0  0  0  0  0  0  0  0  0
   24.3170   35.0900   11.4570 C   0  0  0  0  0  0  0  0  0  0  0  0
   24.9210   36.3160   11.8050 O   0  0  0  0  0  0  0  0  0  0  0  0
   25.6070   36.1620   12.5240 H   0  0  0  0  0  0  0  0  0  0  0  0
   29.8670   25.5550   16.9770 C   0  0  0  0  0  0  0  0  0  0  0  0
   28.3450   25.7220   17.0260 C   0  0  0  0  0  0  0  0  0  0  0  0
   27.6010   24.4030   16.8860 C   0  0  0  0  0  0  0  0  0  0  0  0
   26.6130   24.1890   17.9990 C   0  0  0  0  0  0  0  0  0  0  0  0
   25.3810   23.4720   17.4560 C   0  0  0  0  0  0  0  0  0  0  0  0
   24.8190   22.5590   18.4780 N   0  0  0  0  0  0  0  0  0  0  0  0
  1  2  1  0  0  0  0
  1  4  1  0  0  0  0
  2 31  1  0  0  0  0
  3  2  2  0  0  0  0
  5  1  1  0  0  0  0
  6  5  1  1  0  0  0
  6  7  1  0  0  0  0
  6 29  1  0  0  0  0
  7 27  1  1  0  0  0
  8  7  1  6  0  0  0
  8 13  1  0  0  0  0
  8 11  1  0  0  0  0
  9 14  1  1  0  0  0
  9 10  1  0  0  0  0
  9 16  1  0  0  0  0
 11  9  1  0  0  0  0
 12 10  1  0  0  0  0
 12 20  1  1  0  0  0
 13 22  1  6  0  0  0
 13 12  1  0  0  0  0
 14 15  1  0  0  0  0
 16 17  2  0  0  0  0
 18 19  1  0  0  0  0
 18 16  1  0  0  0  0
 20 21  1  0  0  0  0
 23 26  2  0  0  0  0
 23 22  1  0  0  0  0
 24 22  1  0  0  0  0
 25 23  1  0  0  0  0
 27 28  1  0  0  0  0
 29 30  1  0  0  0  0
 32 31  1  0  0  0  0
 32 33  1  0  0  0  0
 33 34  2  0  0  0  0
 34 36  1  0  0  0  0
 35 33  1  0  0  0  0
 35 37  2  0  0  0  0
 36 38  1  0  0  0  0
 37 36  1  0  0  0  0
 38 39  1  0  0  0  0
 39 40  1  0  0  0  0
 40 41  1  0  0  0  0
 42 43  1  0  0  0  0
 44 43  1  0  0  0  0
 44 45  1  0  0  0  0
 46 45  1  0  0  0  0
 46 47  1  0  0  0  0
M  END
>  <REMARK>
 VINA RESULT:    -3.193      2.247      6.911
 INTER + INTRA:         -13.378
 INTER:                  -6.718
 INTRA:                  -6.660
 UNBOUND:                -7.572
 SMILES CC(=O)N[C@@H]1[C@@H](O)C[C@](O)(C(=O)O)O[C@H]1C(O)[C@H](O)CNC(=O)OCc1cn(CCO)nn1
 SMILES IDX 21 1 22 2 23 3 20 5 18 6 16 7 15 8 9 9 8 10 14 11 6 12 5 13
 SMILES IDX 10 14 11 16 12 17 13 18 7 20 4 22 2 23 1 25 3 26 17 27 19 29
 SMILES IDX 24 31 25 32 26 33 27 34 33 35 28 36 32 37 29 38 30 39 31 40
 H PARENT 21 4 10 15 13 19 7 21 4 24 17 28 19 30 31 41
 Flexibility Score: inf
  4 active torsions:
  status: ('A' for Active; 'I' for Inactive)
    1  A    between atoms: CA   and  CB  
    2  A    between atoms: CB   and  CG  
    3  A    between atoms: CG   and  CD  
    4  A    between atoms: CD   and  CE  

>  <TORSDO>
F 17

>  <BEGIN_>
RES LYS A 131

$$$$
ligand_1_pose_11_2HRL.pdbqt
 OpenBabel07062320523D

  6  5  0  0  0  0  0  0  0  0999 V2000
   33.1930   34.6630    9.2900 C   0  0  0  0  0  0  0  0  0  0  0  0
   32.0600   35.3600   10.0340 C   0  0  0  0  0  0  0  0  0  0  0  0
   30.7200   34.6950    9.8510 C   0  0  0  0  0  0  0  0  0  0  0  0
   30.3920   34.5480    8.3730 C   0  0  0  0  0  0  0  0  0  0  0  0
   28.9400   34.9040    8.1120 C   0  0  0  0  0  0  0  0  0  0  0  0
   28.0340   34.1690    9.0370 N   0  0  0  0  0  0  0  0  0  0  0  0
  1  2  1  0  0  0  0
  3  2  1  0  0  0  0
  4  3  1  0  0  0  0
  5  4  1  0  0  0  0
  5  6  1  0  0  0  0
M  END
>  <EGIN_R>
ES LYS A 135

>  <REMARK>
  4 active torsions:
  status: ('A' for Active; 'I' for Inactive)
    5  A    between atoms: CA   and  CB  
    6  A    between atoms: CB   and  CG  
    7  A    between atoms: CG   and  CD  
    8  A    between atoms: CD   and  CE  

$$$$
