ligand_25_pose_3_2HRL.pdbqt
 OpenBabel07062320523D

 56 59  0  0  1  0  0  0  0  0999 V2000
   30.4560   31.1970   16.3450 C   0  0  0  0  0  0  0  0  0  0  0  0
   30.8530   32.5730   15.9570 C   0  0  2  0  0  0  0  0  0  0  0  0
   29.6980   33.5090   15.8010 C   0  0  1  0  0  0  0  0  0  0  0  0
   29.9530   34.9400   16.1840 C   0  0  2  0  0  0  0  0  0  0  0  0
   27.9580   36.0660   16.6720 C   0  0  2  0  0  0  0  0  0  0  0  0
   28.5100   37.4490   16.3950 C   0  0  0  0  0  0  0  0  0  0  0  0
   28.9630   35.2660   17.1130 O   0  0  0  0  0  0  0  0  0  0  0  0
   29.7160   37.3290   15.5370 C   0  0  1  0  0  0  0  0  0  0  0  0
   29.9610   35.9000   15.0250 C   0  0  1  0  0  0  0  0  0  0  0  0
   27.2800   35.6680   15.5510 O   0  0  0  0  0  0  0  0  0  0  0  0
   26.3900   36.0800   15.4870 H   0  0  0  0  0  0  0  0  0  0  0  0
   26.9880   36.2290   17.7980 C   0  0  0  0  0  0  0  0  0  0  0  0
   26.9740   37.3010   18.4450 O   0  0  0  0  0  0  0  0  0  0  0  0
   26.0940   35.2330   18.1630 O   0  0  0  0  0  0  0  0  0  0  0  0
   25.3010   35.4470   18.7840 H   0  0  0  0  0  0  0  0  0  0  0  0
   29.7040   38.1600   14.4280 O   0  0  0  0  0  0  0  0  0  0  0  0
   29.3430   37.7320   13.6190 H   0  0  0  0  0  0  0  0  0  0  0  0
   31.2860   35.9600   14.4490 N   0  0  0  0  0  0  0  0  0  0  0  0
   31.6690   35.3420   13.2310 C   0  0  0  0  0  0  0  0  0  0  0  0
   32.0120   36.5000   14.9640 H   0  0  0  0  0  0  0  0  0  0  0  0
   33.0660   35.4510   12.6990 C   0  0  0  0  0  0  0  0  0  0  0  0
   30.7920   34.6940   12.6060 O   0  0  0  0  0  0  0  0  0  0  0  0
   29.0540   33.4350   14.5720 O   0  0  0  0  0  0  0  0  0  0  0  0
   28.1070   33.2280   14.6140 H   0  0  0  0  0  0  0  0  0  0  0  0
   31.5130   32.5390   14.7310 O   0  0  0  0  0  0  0  0  0  0  0  0
   31.2790   31.7610   14.1890 H   0  0  0  0  0  0  0  0  0  0  0  0
   29.0660   30.9610   16.4680 N   0  0  0  0  0  0  0  0  0  0  0  0
   28.4330   30.5670   17.6600 C   0  0  0  0  0  0  0  0  0  0  0  0
   28.4360   31.0850   15.6100 H   0  0  0  0  0  0  0  0  0  0  0  0
   29.0480   30.4050   18.7100 O   0  0  0  0  0  0  0  0  0  0  0  0
   27.0460   30.3380   17.7060 O   0  0  0  0  0  0  0  0  0  0  0  0
   26.0990   31.3620   17.7160 C   0  0  0  0  0  0  0  0  0  0  0  0
   25.8360   31.9460   16.3770 C   0  0  0  0  0  0  0  0  0  0  0  0
   24.9410   31.5520   15.4130 C   0  0  0  0  0  0  0  0  0  0  0  0
   26.4840   33.0120   15.9030 N   0  0  0  0  0  0  0  0  0  0  0  0
   25.0780   32.3890   14.3910 N   0  0  0  0  0  0  0  0  0  0  0  0
   26.0130   33.2630   14.7030 N   0  0  0  0  0  0  0  0  0  0  0  0
   24.3440   32.3760   13.1340 C   0  0  0  0  0  0  0  0  0  0  0  0
   23.3160   33.4290   13.0900 C   0  0  0  0  0  0  0  0  0  0  0  0
   23.6440   31.1220   12.9040 C   0  0  0  0  0  0  0  0  0  0  0  0
   23.4370   34.8210   13.2500 C   0  0  0  0  0  0  0  0  0  0  0  0
   22.1130   32.8280   12.8530 C   0  0  0  0  0  0  0  0  0  0  0  0
   22.3100   31.3840   12.7360 C   0  0  0  0  0  0  0  0  0  0  0  0
   24.0710   29.7800   12.8300 C   0  0  0  0  0  0  0  0  0  0  0  0
   22.2990   35.5850   13.1610 C   0  0  0  0  0  0  0  0  0  0  0  0
   20.9800   33.6370   12.7710 C   0  0  0  0  0  0  0  0  0  0  0  0
   21.3590   30.3880   12.4940 C   0  0  0  0  0  0  0  0  0  0  0  0
   23.1560   28.7880   12.5950 C   0  0  0  0  0  0  0  0  0  0  0  0
   21.0700   35.0030   12.9220 C   0  0  0  0  0  0  0  0  0  0  0  0
   21.8150   29.0910   12.4300 C   0  0  0  0  0  0  0  0  0  0  0  0
   29.8670   25.5550   16.9770 C   0  0  0  0  0  0  0  0  0  0  0  0
   28.3450   25.7220   17.0260 C   0  0  0  0  0  0  0  0  0  0  0  0
   27.6010   24.4020   16.8900 C   0  0  0  0  0  0  0  0  0  0  0  0
   26.2430   24.4480   17.5350 C   0  0  0  0  0  0  0  0  0  0  0  0
   26.0340   25.8130   18.1830 C   0  0  0  0  0  0  0  0  0  0  0  0
   24.7660   26.4210   17.7150 N   0  0  0  0  0  0  0  0  0  0  0  0
  1 27  1  0  0  0  0
  2  1  1  6  0  0  0
  3 23  1  6  0  0  0
  3  2  1  0  0  0  0
  4  3  1  6  0  0  0
  4  7  1  0  0  0  0
  5 10  1  6  0  0  0
  5  7  1  0  0  0  0
  5 12  1  0  0  0  0
  6  5  1  0  0  0  0
  8 16  1  6  0  0  0
  8  6  1  0  0  0  0
  9 18  1  1  0  0  0
  9  8  1  0  0  0  0
  9  4  1  0  0  0  0
 11 10  1  0  0  0  0
 12 14  1  0  0  0  0
 12 13  2  0  0  0  0
 14 15  1  0  0  0  0
 17 16  1  0  0  0  0
 18 20  1  0  0  0  0
 19 18  1  0  0  0  0
 21 19  1  0  0  0  0
 22 19  2  0  0  0  0
 23 24  1  0  0  0  0
 25  2  1  0  0  0  0
 26 25  1  0  0  0  0
 27 28  1  0  0  0  0
 28 31  1  0  0  0  0
 28 30  2  0  0  0  0
 29 27  1  0  0  0  0
 31 32  1  0  0  0  0
 33 32  1  0  0  0  0
 34 33  2  0  0  0  0
 35 33  1  0  0  0  0
 36 37  1  0  0  0  0
 36 34  1  0  0  0  0
 37 35  2  0  0  0  0
 38 36  1  0  0  0  0
 39 38  1  0  0  0  0
 39 41  2  0  0  0  0
 40 38  1  0  0  0  0
 42 39  1  0  0  0  0
 43 42  1  0  0  0  0
 43 40  2  0  0  0  0
 44 40  1  0  0  0  0
 45 41  1  0  0  0  0
 46 42  2  0  0  0  0
 46 49  1  0  0  0  0
 47 43  1  0  0  0  0
 48 44  2  0  0  0  0
 49 45  2  0  0  0  0
 50 47  2  0  0  0  0
 50 48  1  0  0  0  0
 51 52  1  0  0  0  0
 53 52  1  0  0  0  0
 53 54  1  0  0  0  0
 54 55  1  0  0  0  0
 56 55  1  0  0  0  0
M  END
>  <REMARK>
 VINA RESULT:    -6.819      2.510      6.257
 INTER + INTRA:         -16.380
 INTER:                  -9.267
 INTRA:                  -7.113
 UNBOUND:                -4.578
 SMILES CC(=O)N[C@@H]1[C@@H](O)C[C@](O)(C(=O)O)O[C@H]1C(O)[C@H](O)CNC(=O)OCc1cn(C2c3ccccc3-c3ccccc32)nn1
 SMILES IDX 20 1 18 2 16 3 15 4 9 5 8 6 14 7 6 8 5 9 10 10 11 12 12 13
 SMILES IDX 13 14 7 16 4 18 2 19 1 21 3 22 17 23 19 25 21 27 22 28 23 30
 SMILES IDX 24 31 25 32 26 33 27 34 43 35 28 36 42 37 29 38 30 39 41 40
 SMILES IDX 31 41 35 42 36 43 40 44 32 45 34 46 37 47 39 48 33 49 38 50
 H PARENT 10 11 13 15 7 17 4 20 17 24 19 26 21 29
 Flexibility Score: inf
  4 active torsions:
  status: ('A' for Active; 'I' for Inactive)
    1  A    between atoms: CA   and  CB  
    2  A    between atoms: CB   and  CG  
    3  A    between atoms: CG   and  CD  
    4  A    between atoms: CD   and  CE  

>  <TORSDO>
F 15

>  <BEGIN_>
RES LYS A 131

$$$$
ligand_25_pose_3_2HRL.pdbqt
 OpenBabel07062320523D

  6  5  0  0  0  0  0  0  0  0999 V2000
   33.1930   34.6630    9.2900 C   0  0  0  0  0  0  0  0  0  0  0  0
   32.0600   35.3600   10.0340 C   0  0  0  0  0  0  0  0  0  0  0  0
   30.8180   35.5470    9.2010 C   0  0  0  0  0  0  0  0  0  0  0  0
   30.1730   34.2060    8.8900 C   0  0  0  0  0  0  0  0  0  0  0  0
   28.6920   34.3780    8.6120 C   0  0  0  0  0  0  0  0  0  0  0  0
   27.8700   33.6380    9.6090 N   0  0  0  0  0  0  0  0  0  0  0  0
  1  2  1  0  0  0  0
  3  2  1  0  0  0  0
  4  3  1  0  0  0  0
  5  4  1  0  0  0  0
  5  6  1  0  0  0  0
M  END
>  <EGIN_R>
ES LYS A 135

>  <REMARK>
  4 active torsions:
  status: ('A' for Active; 'I' for Inactive)
    5  A    between atoms: CA   and  CB  
    6  A    between atoms: CB   and  CG  
    7  A    between atoms: CG   and  CD  
    8  A    between atoms: CD   and  CE  

$$$$
