ligand_58_pose_10_2HRL.pdbqt
 OpenBabel07062320523D

 56 58  0  0  1  0  0  0  0  0999 V2000
   28.1050   30.5780   19.5050 N   0  0  0  0  0  0  0  0  0  0  0  0
   26.6940   30.5860   19.5080 C   0  0  0  0  0  0  0  0  0  0  0  0
   26.0690   31.6720   19.5640 O   0  0  0  0  0  0  0  0  0  0  0  0
   28.5930   29.6610   19.4610 H   0  0  0  0  0  0  0  0  0  0  0  0
   28.8620   31.7890   19.5590 C   0  0  0  0  0  0  0  0  0  0  0  0
   30.0010   31.7040   18.5420 C   0  0  2  0  0  0  0  0  0  0  0  0
   29.5160   32.4740   17.3240 C   0  0  2  0  0  0  0  0  0  0  0  0
   30.1720   33.8110   17.1220 C   0  0  2  0  0  0  0  0  0  0  0  0
   29.5180   34.2720   14.9070 C   0  0  2  0  0  0  0  0  0  0  0  0
   30.9300   34.0500   14.4120 C   0  0  0  0  0  0  0  0  0  0  0  0
   29.3840   34.5140   16.2320 O   0  0  0  0  0  0  0  0  0  0  0  0
   31.7360   33.1700   15.3200 C   0  0  1  0  0  0  0  0  0  0  0  0
   31.5880   33.7060   16.7130 C   0  0  1  0  0  0  0  0  0  0  0  0
   28.8260   33.0990   14.5990 O   0  0  0  0  0  0  0  0  0  0  0  0
   29.3210   32.3520   15.0400 H   0  0  0  0  0  0  0  0  0  0  0  0
   28.8950   35.3640   14.0750 C   0  0  0  0  0  0  0  0  0  0  0  0
   28.6370   35.1990   12.8790 O   0  0  0  0  0  0  0  0  0  0  0  0
   28.6140   36.5650   14.6840 O   0  0  0  0  0  0  0  0  0  0  0  0
   28.2230   36.5620   15.6340 H   0  0  0  0  0  0  0  0  0  0  0  0
   31.3200   31.8800   15.1570 O   0  0  0  0  0  0  0  0  0  0  0  0
   30.7320   31.5870   15.9060 H   0  0  0  0  0  0  0  0  0  0  0  0
   32.2450   35.0280   16.7330 N   0  0  0  0  0  0  0  0  0  0  0  0
   32.8340   35.5540   17.8950 C   0  0  0  0  0  0  0  0  0  0  0  0
   32.2620   35.5770   15.8470 H   0  0  0  0  0  0  0  0  0  0  0  0
   33.4850   36.8900   17.8720 C   0  0  0  0  0  0  0  0  0  0  0  0
   32.8180   34.9000   18.9730 O   0  0  0  0  0  0  0  0  0  0  0  0
   28.1200   32.7180   17.5950 O   0  0  0  0  0  0  0  0  0  0  0  0
   27.7250   31.9710   18.0710 H   0  0  0  0  0  0  0  0  0  0  0  0
   30.1590   30.3510   18.2840 O   0  0  0  0  0  0  0  0  0  0  0  0
   31.0830   30.0990   18.0910 H   0  0  0  0  0  0  0  0  0  0  0  0
   25.9540   29.4110   19.4510 O   0  0  0  0  0  0  0  0  0  0  0  0
   26.1230   28.5570   18.3530 C   0  0  0  0  0  0  0  0  0  0  0  0
   26.3540   29.3750   17.1350 C   0  0  0  0  0  0  0  0  0  0  0  0
   25.3510   29.9050   16.3190 C   0  0  0  0  0  0  0  0  0  0  0  0
   27.4990   29.7770   16.5570 N   0  0  0  0  0  0  0  0  0  0  0  0
   25.9200   30.5800   15.3170 N   0  0  0  0  0  0  0  0  0  0  0  0
   27.2140   30.4930   15.4750 N   0  0  0  0  0  0  0  0  0  0  0  0
   25.2620   31.2920   14.2310 C   0  0  0  0  0  0  0  0  0  0  0  0
   23.9870   30.6700   13.8720 C   0  0  0  0  0  0  0  0  0  0  0  0
   22.7810   31.0430   14.4760 C   0  0  0  0  0  0  0  0  0  0  0  0
   23.9470   29.6940   12.8960 C   0  0  0  0  0  0  0  0  0  0  0  0
   21.5930   30.4520   14.1060 C   0  0  0  0  0  0  0  0  0  0  0  0
   22.7430   29.1170   12.5430 C   0  0  0  0  0  0  0  0  0  0  0  0
   21.5470   29.4750   13.1310 C   0  0  0  0  0  0  0  0  0  0  0  0
   25.2480   32.7460   14.4090 C   0  0  0  0  0  0  0  0  0  0  0  0
   25.3190   33.3070   15.6970 C   0  0  0  0  0  0  0  0  0  0  0  0
   25.1720   33.5850   13.3240 C   0  0  0  0  0  0  0  0  0  0  0  0
   25.3140   34.6670   15.8690 C   0  0  0  0  0  0  0  0  0  0  0  0
   25.1670   34.9720   13.5120 C   0  0  0  0  0  0  0  0  0  0  0  0
   25.2380   35.5040   14.7780 C   0  0  0  0  0  0  0  0  0  0  0  0
   29.8670   25.5550   16.9770 C   0  0  0  0  0  0  0  0  0  0  0  0
   28.3450   25.7220   17.0260 C   0  0  0  0  0  0  0  0  0  0  0  0
   27.6010   24.4030   16.8880 C   0  0  0  0  0  0  0  0  0  0  0  0
   26.1520   24.5270   17.2680 C   0  0  0  0  0  0  0  0  0  0  0  0
   26.0410   24.8090   18.7630 C   0  0  0  0  0  0  0  0  0  0  0  0
   24.6560   25.2040   19.1150 N   0  0  0  0  0  0  0  0  0  0  0  0
  1  2  1  0  0  0  0
  1  5  1  0  0  0  0
  2  3  2  0  0  0  0
  4  1  1  0  0  0  0
  6  5  1  1  0  0  0
  7 27  1  1  0  0  0
  7  6  1  0  0  0  0
  8  7  1  6  0  0  0
  9 16  1  6  0  0  0
  9 11  1  0  0  0  0
 10  9  1  0  0  0  0
 10 12  1  0  0  0  0
 11  8  1  0  0  0  0
 12 20  1  1  0  0  0
 12 13  1  0  0  0  0
 13 22  1  6  0  0  0
 13  8  1  0  0  0  0
 14  9  1  0  0  0  0
 14 15  1  0  0  0  0
 16 18  1  0  0  0  0
 17 16  2  0  0  0  0
 18 19  1  0  0  0  0
 20 21  1  0  0  0  0
 22 23  1  0  0  0  0
 23 26  2  0  0  0  0
 24 22  1  0  0  0  0
 25 23  1  0  0  0  0
 27 28  1  0  0  0  0
 29  6  1  0  0  0  0
 30 29  1  0  0  0  0
 31  2  1  0  0  0  0
 32 31  1  0  0  0  0
 33 32  1  0  0  0  0
 34 33  2  0  0  0  0
 35 33  1  0  0  0  0
 36 37  1  0  0  0  0
 36 34  1  0  0  0  0
 37 35  2  0  0  0  0
 38 45  1  0  0  0  0
 38 36  1  0  0  0  0
 39 38  1  0  0  0  0
 39 40  2  0  0  0  0
 41 39  1  0  0  0  0
 42 40  1  0  0  0  0
 43 41  2  0  0  0  0
 43 44  1  0  0  0  0
 44 42  2  0  0  0  0
 45 46  2  0  0  0  0
 46 48  1  0  0  0  0
 47 49  2  0  0  0  0
 47 45  1  0  0  0  0
 49 50  1  0  0  0  0
 50 48  2  0  0  0  0
 51 52  1  0  0  0  0
 53 52  1  0  0  0  0
 53 54  1  0  0  0  0
 54 55  1  0  0  0  0
 55 56  1  0  0  0  0
M  END
>  <REMARK>
 VINA RESULT:    -5.656      3.097      6.888
 INTER + INTRA:         -15.940
 INTER:                  -8.712
 INTRA:                  -7.228
 UNBOUND:                -5.490
 SMILES CC(=O)N[C@@H]1[C@@H](O)C[C@](O)(C(=O)O)O[C@H]1C(O)[C@H](O)CNC(=O)OCc1cn(C(c2ccccc2)c2ccccc2)nn1
 SMILES IDX 21 1 22 2 23 3 20 5 18 6 16 7 15 8 9 9 8 10 14 11 6 12 5 13
 SMILES IDX 10 14 11 16 12 17 13 18 7 20 4 22 2 23 1 25 3 26 17 27 19 29
 SMILES IDX 24 31 25 32 26 33 27 34 43 35 28 36 42 37 29 38 30 39 31 40
 SMILES IDX 35 41 32 42 34 43 33 44 36 45 37 46 41 47 38 48 40 49 39 50
 H PARENT 21 4 10 15 13 19 7 21 4 24 17 28 19 30
 Flexibility Score: inf
  4 active torsions:
  status: ('A' for Active; 'I' for Inactive)
    1  A    between atoms: CA   and  CB  
    2  A    between atoms: CB   and  CG  
    3  A    between atoms: CG   and  CD  
    4  A    between atoms: CD   and  CE  

>  <TORSDO>
F 17

>  <BEGIN_>
RES LYS A 131

$$$$
ligand_58_pose_10_2HRL.pdbqt
 OpenBabel07062320523D

  6  5  0  0  0  0  0  0  0  0999 V2000
   33.1930   34.6630    9.2900 C   0  0  0  0  0  0  0  0  0  0  0  0
   32.0600   35.3600   10.0340 C   0  0  0  0  0  0  0  0  0  0  0  0
   30.8020   35.5040    9.2170 C   0  0  0  0  0  0  0  0  0  0  0  0
   30.1410   34.1510    9.0060 C   0  0  0  0  0  0  0  0  0  0  0  0
   28.6760   34.3220    8.6530 C   0  0  0  0  0  0  0  0  0  0  0  0
   27.8000   33.6880    9.6760 N   0  0  0  0  0  0  0  0  0  0  0  0
  1  2  1  0  0  0  0
  3  2  1  0  0  0  0
  4  3  1  0  0  0  0
  5  4  1  0  0  0  0
  5  6  1  0  0  0  0
M  END
>  <EGIN_R>
ES LYS A 135

>  <REMARK>
  4 active torsions:
  status: ('A' for Active; 'I' for Inactive)
    5  A    between atoms: CA   and  CB  
    6  A    between atoms: CB   and  CG  
    7  A    between atoms: CG   and  CD  
    8  A    between atoms: CD   and  CE  

$$$$
