ligand_53_pose_9_2HRL.pdbqt
 OpenBabel07062320523D

 48 48  0  0  1  0  0  0  0  0999 V2000
   30.2840   34.0680   17.5320 N   0  0  0  0  0  0  0  0  0  0  0  0
   30.8520   33.9130   16.2530 C   0  0  0  0  0  0  0  0  0  0  0  0
   31.8330   33.1980   16.0530 O   0  0  0  0  0  0  0  0  0  0  0  0
   29.4330   34.7080   17.5700 H   0  0  0  0  0  0  0  0  0  0  0  0
   30.7360   33.4600   18.7560 C   0  0  0  0  0  0  0  0  0  0  0  0
   29.9360   32.2910   19.2370 C   0  0  2  0  0  0  0  0  0  0  0  0
   30.4670   30.9770   18.8030 C   0  0  1  0  0  0  0  0  0  0  0  0
   29.9570   29.7880   19.5730 C   0  0  2  0  0  0  0  0  0  0  0  0
   27.9380   28.8340   20.3130 C   0  0  2  0  0  0  0  0  0  0  0  0
   28.5680   28.3340   21.5710 C   0  0  0  0  0  0  0  0  0  0  0  0
   28.5570   29.8320   19.6450 O   0  0  0  0  0  0  0  0  0  0  0  0
   30.0570   28.2730   21.4370 C   0  0  1  0  0  0  0  0  0  0  0  0
   30.4820   29.6820   20.9800 C   0  0  1  0  0  0  0  0  0  0  0  0
   26.6080   29.2150   20.6620 O   0  0  0  0  0  0  0  0  0  0  0  0
   26.7120   30.0550   21.1880 H   0  0  0  0  0  0  0  0  0  0  0  0
   27.7450   27.6690   19.3980 C   0  0  0  0  0  0  0  0  0  0  0  0
   27.4110   27.7590   18.1990 O   0  0  0  0  0  0  0  0  0  0  0  0
   27.9490   26.4010   19.9000 O   0  0  0  0  0  0  0  0  0  0  0  0
   27.4600   25.5810   19.5480 H   0  0  0  0  0  0  0  0  0  0  0  0
   30.6910   27.9430   22.6310 O   0  0  0  0  0  0  0  0  0  0  0  0
   30.5490   26.9710   22.7740 H   0  0  0  0  0  0  0  0  0  0  0  0
   31.8900   29.8180   21.1590 N   0  0  0  0  0  0  0  0  0  0  0  0
   32.4720   30.9270   21.8460 C   0  0  0  0  0  0  0  0  0  0  0  0
   32.5330   29.0910   20.7970 H   0  0  0  0  0  0  0  0  0  0  0  0
   33.9270   31.1030   22.0500 C   0  0  0  0  0  0  0  0  0  0  0  0
   31.6980   31.8010   22.3010 O   0  0  0  0  0  0  0  0  0  0  0  0
   30.3910   30.8210   17.4290 O   0  0  0  0  0  0  0  0  0  0  0  0
   29.6220   30.2570   17.1590 H   0  0  0  0  0  0  0  0  0  0  0  0
   28.6050   32.4700   18.8280 O   0  0  0  0  0  0  0  0  0  0  0  0
   28.5460   32.9540   17.9740 H   0  0  0  0  0  0  0  0  0  0  0  0
   30.3160   34.5720   15.1500 O   0  0  0  0  0  0  0  0  0  0  0  0
   29.1870   34.1640   14.4440 C   0  0  0  0  0  0  0  0  0  0  0  0
   28.3050   33.2240   15.1780 C   0  0  0  0  0  0  0  0  0  0  0  0
   27.0320   33.3890   15.6260 C   0  0  0  0  0  0  0  0  0  0  0  0
   28.6510   31.9560   15.5490 N   0  0  0  0  0  0  0  0  0  0  0  0
   26.6400   32.2580   16.2390 N   0  0  0  0  0  0  0  0  0  0  0  0
   27.6260   31.4020   16.1850 N   0  0  0  0  0  0  0  0  0  0  0  0
   25.3440   32.0410   16.8490 C   0  0  0  0  0  0  0  0  0  0  0  0
   25.4840   31.1420   18.0110 C   0  0  0  0  0  0  0  0  0  0  0  0
   25.7110   31.6380   19.1510 O   0  0  0  0  0  0  0  0  0  0  0  0
   25.3670   29.7760   17.8600 O   0  0  0  0  0  0  0  0  0  0  0  0
   25.1200   29.4360   16.9260 H   0  0  0  0  0  0  0  0  0  0  0  0
   29.8670   25.5550   16.9770 C   0  0  0  0  0  0  0  0  0  0  0  0
   28.3450   25.7220   17.0260 C   0  0  0  0  0  0  0  0  0  0  0  0
   27.5990   24.4470   16.6640 C   0  0  0  0  0  0  0  0  0  0  0  0
   27.0230   23.7650   17.8740 C   0  0  0  0  0  0  0  0  0  0  0  0
   25.6040   23.2970   17.5680 C   0  0  0  0  0  0  0  0  0  0  0  0
   24.7900   24.4180   17.0440 N   0  0  0  0  0  0  0  0  0  0  0  0
  1  4  1  0  0  0  0
  1  5  1  0  0  0  0
  2  1  1  0  0  0  0
  3  2  2  0  0  0  0
  6  5  1  6  0  0  0
  7 27  1  6  0  0  0
  7  6  1  0  0  0  0
  8  7  1  1  0  0  0
  8 11  1  0  0  0  0
  8 13  1  0  0  0  0
  9 16  1  6  0  0  0
  9 14  1  0  0  0  0
  9 10  1  0  0  0  0
 11  9  1  0  0  0  0
 12 10  1  0  0  0  0
 12 20  1  1  0  0  0
 13 22  1  6  0  0  0
 13 12  1  0  0  0  0
 14 15  1  0  0  0  0
 16 18  1  0  0  0  0
 17 16  2  0  0  0  0
 19 18  1  0  0  0  0
 20 21  1  0  0  0  0
 22 23  1  0  0  0  0
 23 25  1  0  0  0  0
 23 26  2  0  0  0  0
 24 22  1  0  0  0  0
 28 27  1  0  0  0  0
 29  6  1  0  0  0  0
 30 29  1  0  0  0  0
 31  2  1  0  0  0  0
 32 31  1  0  0  0  0
 32 33  1  0  0  0  0
 33 35  1  0  0  0  0
 33 34  2  0  0  0  0
 34 36  1  0  0  0  0
 35 37  2  0  0  0  0
 36 38  1  0  0  0  0
 37 36  1  0  0  0  0
 38 39  1  0  0  0  0
 39 40  2  0  0  0  0
 41 39  1  0  0  0  0
 42 41  1  0  0  0  0
 43 44  1  0  0  0  0
 45 44  1  0  0  0  0
 45 46  1  0  0  0  0
 47 46  1  0  0  0  0
 48 47  1  0  0  0  0
M  END
>  <REMARK>
 VINA RESULT:    -4.050      2.800      5.879
 INTER + INTRA:         -13.726
 INTER:                  -6.186
 INTRA:                  -7.540
 UNBOUND:                -6.362
 SMILES CC(=O)N[C@@H]1[C@@H](O)C[C@](O)(C(=O)O)O[C@H]1C(O)[C@H](O)CNC(=O)OCc1cn(CC(=O)O)nn1
 SMILES IDX 21 1 22 2 23 3 20 5 18 6 16 7 15 8 9 9 8 10 14 11 6 12 5 13
 SMILES IDX 10 14 11 16 12 17 13 18 7 20 4 22 2 23 1 25 3 26 17 27 19 29
 SMILES IDX 24 31 25 32 26 33 27 34 34 35 28 36 33 37 29 38 30 39 31 40
 SMILES IDX 32 41
 H PARENT 21 4 10 15 13 19 7 21 4 24 17 28 19 30 32 42
 Flexibility Score: inf
  4 active torsions:
  status: ('A' for Active; 'I' for Inactive)
    1  A    between atoms: CA   and  CB  
    2  A    between atoms: CB   and  CG  
    3  A    between atoms: CG   and  CD  
    4  A    between atoms: CD   and  CE  

>  <TORSDO>
F 17

>  <BEGIN_>
RES LYS A 131

$$$$
ligand_53_pose_9_2HRL.pdbqt
 OpenBabel07062320523D

  6  5  0  0  0  0  0  0  0  0999 V2000
   33.1930   34.6630    9.2900 C   0  0  0  0  0  0  0  0  0  0  0  0
   32.0600   35.3600   10.0340 C   0  0  0  0  0  0  0  0  0  0  0  0
   30.7990   35.4970    9.2200 C   0  0  0  0  0  0  0  0  0  0  0  0
   30.0660   34.1670    9.1380 C   0  0  0  0  0  0  0  0  0  0  0  0
   28.6250   34.3780    8.7140 C   0  0  0  0  0  0  0  0  0  0  0  0
   27.6910   33.6300    9.6000 N   0  0  0  0  0  0  0  0  0  0  0  0
  1  2  1  0  0  0  0
  3  2  1  0  0  0  0
  4  3  1  0  0  0  0
  5  4  1  0  0  0  0
  5  6  1  0  0  0  0
M  END
>  <EGIN_R>
ES LYS A 135

>  <REMARK>
  4 active torsions:
  status: ('A' for Active; 'I' for Inactive)
    5  A    between atoms: CA   and  CB  
    6  A    between atoms: CB   and  CG  
    7  A    between atoms: CG   and  CD  
    8  A    between atoms: CD   and  CE  

$$$$
