ligand_55_pose_15_2HRL.pdbqt
 OpenBabel07062320523D

 51 51  0  0  1  0  0  0  0  0999 V2000
   30.7820   32.7320   17.6710 N   0  0  0  0  0  0  0  0  0  0  0  0
   30.7830   31.9240   16.5170 C   0  0  0  0  0  0  0  0  0  0  0  0
   30.1510   30.8580   16.4260 O   0  0  0  0  0  0  0  0  0  0  0  0
   31.3550   33.6280   17.6270 H   0  0  0  0  0  0  0  0  0  0  0  0
   30.0920   32.4600   18.8760 C   0  0  0  0  0  0  0  0  0  0  0  0
   30.7770   31.5580   19.8720 C   0  0  2  0  0  0  0  0  0  0  0  0
   29.7920   30.4960   20.2510 C   0  0  2  0  0  0  0  0  0  0  0  0
   30.2780   29.4020   21.1470 C   0  0  2  0  0  0  0  0  0  0  0  0
   32.2070   28.7840   22.3270 C   0  0  2  0  0  0  0  0  0  0  0  0
   31.9030   27.3390   22.1200 C   0  0  0  0  0  0  0  0  0  0  0  0
   31.4920   29.6770   21.6290 O   0  0  0  0  0  0  0  0  0  0  0  0
   31.1600   27.0570   20.8430 C   0  0  1  0  0  0  0  0  0  0  0  0
   30.0430   28.0190   20.6230 C   0  0  1  0  0  0  0  0  0  0  0  0
   33.5660   28.9880   22.0620 O   0  0  0  0  0  0  0  0  0  0  0  0
   34.0860   28.6670   22.8290 H   0  0  0  0  0  0  0  0  0  0  0  0
   32.0250   29.0840   23.7770 C   0  0  0  0  0  0  0  0  0  0  0  0
   31.8920   30.2330   24.2400 O   0  0  0  0  0  0  0  0  0  0  0  0
   31.9960   28.0330   24.7120 O   0  0  0  0  0  0  0  0  0  0  0  0
   32.1120   27.0700   24.4240 H   0  0  0  0  0  0  0  0  0  0  0  0
   32.0770   27.0010   19.8010 O   0  0  0  0  0  0  0  0  0  0  0  0
   31.6100   27.3300   18.9910 H   0  0  0  0  0  0  0  0  0  0  0  0
   28.8350   27.4250   21.1660 N   0  0  0  0  0  0  0  0  0  0  0  0
   27.6480   27.2300   20.4100 C   0  0  0  0  0  0  0  0  0  0  0  0
   28.7800   27.1010   22.1780 H   0  0  0  0  0  0  0  0  0  0  0  0
   26.4220   26.6110   21.0180 C   0  0  0  0  0  0  0  0  0  0  0  0
   27.6710   27.5990   19.2080 O   0  0  0  0  0  0  0  0  0  0  0  0
   29.3530   29.9590   19.0040 O   0  0  0  0  0  0  0  0  0  0  0  0
   29.8700   30.3370   18.2620 H   0  0  0  0  0  0  0  0  0  0  0  0
   31.2750   32.3140   20.8980 O   0  0  0  0  0  0  0  0  0  0  0  0
   30.8090   32.1680   21.7300 H   0  0  0  0  0  0  0  0  0  0  0  0
   31.5220   32.3160   15.4060 O   0  0  0  0  0  0  0  0  0  0  0  0
   31.6620   33.6510   14.9900 C   0  0  0  0  0  0  0  0  0  0  0  0
   30.4180   34.1400   14.3670 C   0  0  0  0  0  0  0  0  0  0  0  0
   30.1540   34.3770   13.0330 C   0  0  0  0  0  0  0  0  0  0  0  0
   29.2980   34.4440   15.0180 N   0  0  0  0  0  0  0  0  0  0  0  0
   28.8930   34.8160   12.9140 N   0  0  0  0  0  0  0  0  0  0  0  0
   28.3960   34.8450   14.1450 N   0  0  0  0  0  0  0  0  0  0  0  0
   28.1460   35.1970   11.7440 C   0  0  0  0  0  0  0  0  0  0  0  0
   26.6710   34.8630   11.8730 C   0  0  0  0  0  0  0  0  0  0  0  0
   26.1540   34.6630   10.5360 N   0  0  0  0  0  0  0  0  0  0  0  0
   25.5800   33.8110   10.4620 H   0  0  0  0  0  0  0  0  0  0  0  0
   25.2730   36.0260    9.9670 S   0  0  0  0  0  0  0  0  0  0  0  0
   25.1430   36.9880   11.1190 O   0  0  0  0  0  0  0  0  0  0  0  0
   25.9920   36.6390    8.8090 O   0  0  0  0  0  0  0  0  0  0  0  0
   23.6340   35.5530    9.4610 C   0  0  0  0  0  0  0  0  0  0  0  0
   29.8670   25.5550   16.9770 C   0  0  0  0  0  0  0  0  0  0  0  0
   28.3450   25.7220   17.0260 C   0  0  0  0  0  0  0  0  0  0  0  0
   27.6010   24.4010   16.9030 C   0  0  0  0  0  0  0  0  0  0  0  0
   26.7010   24.1460   18.0800 C   0  0  0  0  0  0  0  0  0  0  0  0
   25.3670   24.8510   17.8620 C   0  0  0  0  0  0  0  0  0  0  0  0
   24.5360   24.1020   16.8900 N   0  0  0  0  0  0  0  0  0  0  0  0
  1  5  1  0  0  0  0
  2  1  1  0  0  0  0
  3  2  2  0  0  0  0
  4  1  1  0  0  0  0
  6  5  1  6  0  0  0
  6  7  1  0  0  0  0
  6 29  1  0  0  0  0
  7 27  1  6  0  0  0
  8  7  1  6  0  0  0
  8 11  1  0  0  0  0
  9 14  1  6  0  0  0
  9 16  1  0  0  0  0
 10  9  1  0  0  0  0
 11  9  1  0  0  0  0
 12 20  1  6  0  0  0
 12 10  1  0  0  0  0
 13 12  1  0  0  0  0
 13  8  1  0  0  0  0
 13 22  1  1  0  0  0
 14 15  1  0  0  0  0
 16 17  2  0  0  0  0
 16 18  1  0  0  0  0
 19 18  1  0  0  0  0
 21 20  1  0  0  0  0
 22 24  1  0  0  0  0
 23 25  1  0  0  0  0
 23 22  1  0  0  0  0
 26 23  2  0  0  0  0
 28 27  1  0  0  0  0
 29 30  1  0  0  0  0
 31  2  1  0  0  0  0
 32 31  1  0  0  0  0
 33 32  1  0  0  0  0
 33 35  1  0  0  0  0
 34 33  2  0  0  0  0
 36 34  1  0  0  0  0
 36 37  1  0  0  0  0
 37 35  2  0  0  0  0
 38 39  1  0  0  0  0
 38 36  1  0  0  0  0
 40 39  1  0  0  0  0
 41 40  1  0  0  0  0
 42 40  1  0  0  0  0
 42 43  2  0  0  0  0
 44 42  2  0  0  0  0
 45 42  1  0  0  0  0
 46 47  1  0  0  0  0
 48 47  1  0  0  0  0
 48 49  1  0  0  0  0
 50 49  1  0  0  0  0
 51 50  1  0  0  0  0
M  END
>  <REMARK>
 VINA RESULT:    -4.247      3.700      8.640
 INTER + INTRA:         -14.372
 INTER:                  -9.115
 INTRA:                  -5.258
 UNBOUND:                -6.277
 SMILES CC(=O)N[C@@H]1[C@@H](O)C[C@](O)(C(=O)O)O[C@H]1C(O)[C@H](O)CNC(=O)OCc1cn(CCNS(C)(=O)=O)nn1
 SMILES IDX 21 1 22 2 23 3 20 5 18 6 16 7 15 8 9 9 8 10 14 11 6 12 5 13
 SMILES IDX 10 14 11 16 12 17 13 18 7 20 4 22 2 23 1 25 3 26 17 27 19 29
 SMILES IDX 24 31 25 32 26 33 27 34 37 35 28 36 36 37 29 38 30 39 31 40
 SMILES IDX 32 42 34 43 35 44 33 45
 H PARENT 21 4 10 15 13 19 7 21 4 24 17 28 19 30 31 41
 Flexibility Score: inf
  4 active torsions:
  status: ('A' for Active; 'I' for Inactive)
    1  A    between atoms: CA   and  CB  
    2  A    between atoms: CB   and  CG  
    3  A    between atoms: CG   and  CD  
    4  A    between atoms: CD   and  CE  

>  <TORSDO>
F 18

>  <BEGIN_>
RES LYS A 131

$$$$
ligand_55_pose_15_2HRL.pdbqt
 OpenBabel07062320523D

  6  5  0  0  0  0  0  0  0  0999 V2000
   33.1930   34.6630    9.2900 C   0  0  0  0  0  0  0  0  0  0  0  0
   32.0600   35.3600   10.0340 C   0  0  0  0  0  0  0  0  0  0  0  0
   30.8710   35.6730    9.1630 C   0  0  0  0  0  0  0  0  0  0  0  0
   30.2750   34.3970    8.5890 C   0  0  0  0  0  0  0  0  0  0  0  0
   28.8630   34.6460    8.0920 C   0  0  0  0  0  0  0  0  0  0  0  0
   28.8710   35.4280    6.8250 N   0  0  0  0  0  0  0  0  0  0  0  0
  1  2  1  0  0  0  0
  3  2  1  0  0  0  0
  4  3  1  0  0  0  0
  5  4  1  0  0  0  0
  6  5  1  0  0  0  0
M  END
>  <EGIN_R>
ES LYS A 135

>  <REMARK>
  4 active torsions:
  status: ('A' for Active; 'I' for Inactive)
    5  A    between atoms: CA   and  CB  
    6  A    between atoms: CB   and  CG  
    7  A    between atoms: CG   and  CD  
    8  A    between atoms: CD   and  CE  

$$$$
