ligand_37_pose_3_2HRL.pdbqt
 OpenBabel07062320523D

 55 56  0  0  1  0  0  0  0  0999 V2000
   25.1710   36.4130   10.8290 O   0  0  0  0  0  0  0  0  0  0  0  0
   24.0970   36.4600    9.9090 C   0  0  0  0  0  0  0  0  0  0  0  0
   23.3930   37.6640    9.6940 N   0  0  0  0  0  0  0  0  0  0  0  0
   23.7220   38.4970   10.2780 H   0  0  0  0  0  0  0  0  0  0  0  0
   23.8380   35.3890    9.3280 O   0  0  0  0  0  0  0  0  0  0  0  0
   22.3110   37.7910    8.7700 C   0  0  0  0  0  0  0  0  0  0  0  0
   20.9820   37.7520    9.4460 C   0  0  2  0  0  0  0  0  0  0  0  0
   20.0230   36.8580    8.6640 C   0  0  2  0  0  0  0  0  0  0  0  0
   20.2360   35.3970    8.9090 C   0  0  2  0  0  0  0  0  0  0  0  0
   18.1020   34.6370    8.3100 C   0  0  2  0  0  0  0  0  0  0  0  0
   17.7650   34.5220    9.7620 C   0  0  0  0  0  0  0  0  0  0  0  0
   19.4490   34.6210    8.0400 O   0  0  0  0  0  0  0  0  0  0  0  0
   18.9570   33.9490   10.5000 C   0  0  1  0  0  0  0  0  0  0  0  0
   20.0940   34.9450   10.3250 C   0  0  1  0  0  0  0  0  0  0  0  0
   17.4910   35.7410    7.7620 O   0  0  0  0  0  0  0  0  0  0  0  0
   18.0410   36.5690    7.8390 H   0  0  0  0  0  0  0  0  0  0  0  0
   17.5380   33.4280    7.6070 C   0  0  0  0  0  0  0  0  0  0  0  0
   17.0270   32.4840    8.2630 O   0  0  0  0  0  0  0  0  0  0  0  0
   17.5570   33.3050    6.2260 O   0  0  0  0  0  0  0  0  0  0  0  0
   18.3690   32.9120    5.7260 H   0  0  0  0  0  0  0  0  0  0  0  0
   18.6560   33.7370   11.8310 O   0  0  0  0  0  0  0  0  0  0  0  0
   18.1030   32.9300   11.9810 H   0  0  0  0  0  0  0  0  0  0  0  0
   21.3270   34.3620   10.8630 N   0  0  0  0  0  0  0  0  0  0  0  0
   21.7880   34.6260   12.1870 C   0  0  0  0  0  0  0  0  0  0  0  0
   21.9210   33.7190   10.2770 H   0  0  0  0  0  0  0  0  0  0  0  0
   23.0540   34.0020   12.6790 C   0  0  0  0  0  0  0  0  0  0  0  0
   21.1240   35.3830   12.9330 O   0  0  0  0  0  0  0  0  0  0  0  0
   20.1970   37.1050    7.2960 O   0  0  0  0  0  0  0  0  0  0  0  0
   21.1660   37.2360    7.1120 H   0  0  0  0  0  0  0  0  0  0  0  0
   20.4560   39.0410    9.5240 O   0  0  0  0  0  0  0  0  0  0  0  0
   21.1710   39.7410    9.5790 H   0  0  0  0  0  0  0  0  0  0  0  0
   25.8460   37.6130   11.1420 C   0  0  0  0  0  0  0  0  0  0  0  0
   26.9440   37.8950   10.1980 C   0  0  0  0  0  0  0  0  0  0  0  0
   26.8950   38.5440    8.9860 C   0  0  0  0  0  0  0  0  0  0  0  0
   28.2310   37.5540   10.3730 N   0  0  0  0  0  0  0  0  0  0  0  0
   28.1410   38.5800    8.4560 N   0  0  0  0  0  0  0  0  0  0  0  0
   28.9230   37.9790    9.3110 N   0  0  0  0  0  0  0  0  0  0  0  0
   28.5020   39.1740    7.1960 C   0  0  1  0  0  0  0  0  0  0  0  0
   30.0040   39.1510    7.0200 C   0  0  0  0  0  0  0  0  0  0  0  0
   27.7890   38.4870    6.1110 C   0  0  0  0  0  0  0  0  0  0  0  0
   27.4890   39.1260    5.0590 O   0  0  0  0  0  0  0  0  0  0  0  0
   27.4250   37.1590    6.1820 O   0  0  0  0  0  0  0  0  0  0  0  0
   28.2550   36.0560    5.9920 C   0  0  0  0  0  0  0  0  0  0  0  0
   28.3180   35.2700    7.2550 C   0  0  0  0  0  0  0  0  0  0  0  0
   27.1610   34.9210    7.9160 C   0  0  0  0  0  0  0  0  0  0  0  0
   29.5290   34.8850    7.7630 C   0  0  0  0  0  0  0  0  0  0  0  0
   27.2140   34.1920    9.0790 C   0  0  0  0  0  0  0  0  0  0  0  0
   29.6120   34.1600    8.9190 C   0  0  0  0  0  0  0  0  0  0  0  0
   28.4550   33.8150    9.5750 C   0  0  0  0  0  0  0  0  0  0  0  0
   29.8670   25.5550   16.9770 C   0  0  0  0  0  0  0  0  0  0  0  0
   28.3450   25.7220   17.0260 C   0  0  0  0  0  0  0  0  0  0  0  0
   27.6010   24.4010   16.9040 C   0  0  0  0  0  0  0  0  0  0  0  0
   26.1610   24.5210   17.3190 C   0  0  0  0  0  0  0  0  0  0  0  0
   25.9580   23.8220   18.6590 C   0  0  0  0  0  0  0  0  0  0  0  0
   25.5770   24.8030   19.7030 N   0  0  0  0  0  0  0  0  0  0  0  0
  1 32  1  0  0  0  0
  2  1  1  0  0  0  0
  3  2  1  0  0  0  0
  3  4  1  0  0  0  0
  5  2  2  0  0  0  0
  6  3  1  0  0  0  0
  7  6  1  6  0  0  0
  7 30  1  0  0  0  0
  8 28  1  6  0  0  0
  8  7  1  0  0  0  0
  9  8  1  1  0  0  0
  9 14  1  0  0  0  0
 10 17  1  6  0  0  0
 10 11  1  0  0  0  0
 11 13  1  0  0  0  0
 12 10  1  0  0  0  0
 12  9  1  0  0  0  0
 13 21  1  1  0  0  0
 14 13  1  0  0  0  0
 14 23  1  6  0  0  0
 15 16  1  0  0  0  0
 15 10  1  0  0  0  0
 17 18  2  0  0  0  0
 19 17  1  0  0  0  0
 20 19  1  0  0  0  0
 21 22  1  0  0  0  0
 23 24  1  0  0  0  0
 24 26  1  0  0  0  0
 24 27  2  0  0  0  0
 25 23  1  0  0  0  0
 29 28  1  0  0  0  0
 30 31  1  0  0  0  0
 33 35  1  0  0  0  0
 33 32  1  0  0  0  0
 34 33  2  0  0  0  0
 36 34  1  0  0  0  0
 36 37  1  0  0  0  0
 37 35  2  0  0  0  0
 38 39  1  6  0  0  0
 38 36  1  0  0  0  0
 40 42  1  0  0  0  0
 40 38  1  0  0  0  0
 41 40  2  0  0  0  0
 43 42  1  0  0  0  0
 43 44  1  0  0  0  0
 44 46  2  0  0  0  0
 44 45  1  0  0  0  0
 45 47  2  0  0  0  0
 46 48  1  0  0  0  0
 47 49  1  0  0  0  0
 48 49  2  0  0  0  0
 50 51  1  0  0  0  0
 52 51  1  0  0  0  0
 52 53  1  0  0  0  0
 53 54  1  0  0  0  0
 54 55  1  0  0  0  0
M  END
>  <REMARK>
 VINA RESULT:    -5.804      1.717      2.541
 INTER + INTRA:         -16.512
 INTER:                 -11.506
 INTRA:                  -5.006
 UNBOUND:                -5.110
 SMILES CC(=O)N[C@@H]1[C@@H](O)C[C@](O)(C(=O)O)O[C@H]1C(O)[C@H](O)CNC(=O)OCc1cn([C@@H](C)C(=O)OCc2ccccc2)nn1
 SMILES IDX 24 1 22 2 21 3 23 5 20 6 18 7 16 8 15 9 9 10 8 11 14 12 6 13
 SMILES IDX 5 14 10 15 11 17 12 18 13 19 7 21 4 23 2 24 1 26 3 27 17 28
 SMILES IDX 19 30 25 32 26 33 27 34 42 35 28 36 41 37 29 38 30 39 31 40
 SMILES IDX 32 41 33 42 34 43 35 44 36 45 40 46 37 47 39 48 38 49
 H PARENT 21 4 10 16 13 20 7 22 4 25 17 29 19 31
 Flexibility Score: inf
  4 active torsions:
  status: ('A' for Active; 'I' for Inactive)
    1  A    between atoms: CA   and  CB  
    2  A    between atoms: CB   and  CG  
    3  A    between atoms: CG   and  CD  
    4  A    between atoms: CD   and  CE  

>  <TORSDO>
F 19

>  <BEGIN_>
RES LYS A 131

$$$$
ligand_37_pose_3_2HRL.pdbqt
 OpenBabel07062320523D

  6  5  0  0  0  0  0  0  0  0999 V2000
   33.1930   34.6630    9.2900 C   0  0  0  0  0  0  0  0  0  0  0  0
   32.0600   35.3600   10.0340 C   0  0  0  0  0  0  0  0  0  0  0  0
   32.2390   35.3720   11.5300 C   0  0  0  0  0  0  0  0  0  0  0  0
   32.1820   36.7940   12.0660 C   0  0  0  0  0  0  0  0  0  0  0  0
   31.9290   36.7900   13.5610 C   0  0  0  0  0  0  0  0  0  0  0  0
   30.9480   35.7350   13.9370 N   0  0  0  0  0  0  0  0  0  0  0  0
  1  2  1  0  0  0  0
  2  3  1  0  0  0  0
  3  4  1  0  0  0  0
  4  5  1  0  0  0  0
  5  6  1  0  0  0  0
M  END
>  <EGIN_R>
ES LYS A 135

>  <REMARK>
  4 active torsions:
  status: ('A' for Active; 'I' for Inactive)
    5  A    between atoms: CA   and  CB  
    6  A    between atoms: CB   and  CG  
    7  A    between atoms: CG   and  CD  
    8  A    between atoms: CD   and  CE  

$$$$
