ligand_62_pose_14_2HRL.pdbqt
 OpenBabel07062320523D

 52 52  0  0  1  0  0  0  0  0999 V2000
   24.5340   32.0110   15.4710 N   0  0  0  0  0  0  0  0  0  0  0  0
   24.4600   30.7470   14.8530 C   0  0  0  0  0  0  0  0  0  0  0  0
   24.7690   30.5740   13.6520 O   0  0  0  0  0  0  0  0  0  0  0  0
   24.2590   32.0530   16.4850 H   0  0  0  0  0  0  0  0  0  0  0  0
   24.9430   33.2250   14.8540 C   0  0  0  0  0  0  0  0  0  0  0  0
   26.4000   33.4580   14.6900 C   0  0  2  0  0  0  0  0  0  0  0  0
   27.1210   33.6650   16.0040 C   0  0  2  0  0  0  0  0  0  0  0  0
   28.5500   34.0870   15.8790 C   0  0  2  0  0  0  0  0  0  0  0  0
   30.3520   33.8140   14.4530 C   0  0  2  0  0  0  0  0  0  0  0  0
   30.8550   34.8910   15.3760 C   0  0  0  0  0  0  0  0  0  0  0  0
   29.0470   33.4420   14.7260 O   0  0  0  0  0  0  0  0  0  0  0  0
   30.7300   34.5540   16.8190 C   0  0  1  0  0  0  0  0  0  0  0  0
   29.4520   33.7210   17.0070 C   0  0  1  0  0  0  0  0  0  0  0  0
   31.2360   32.7500   14.4820 O   0  0  0  0  0  0  0  0  0  0  0  0
   31.3990   32.3480   13.5930 H   0  0  0  0  0  0  0  0  0  0  0  0
   30.3710   34.3730   13.0740 C   0  0  0  0  0  0  0  0  0  0  0  0
   29.3230   34.7940   12.5110 O   0  0  0  0  0  0  0  0  0  0  0  0
   31.5500   34.4620   12.3260 O   0  0  0  0  0  0  0  0  0  0  0  0
   32.4610   34.4530   12.7670 H   0  0  0  0  0  0  0  0  0  0  0  0
   31.8340   33.8690   17.3230 O   0  0  0  0  0  0  0  0  0  0  0  0
   31.5820   33.5580   18.2360 H   0  0  0  0  0  0  0  0  0  0  0  0
   28.9980   33.9940   18.3260 N   0  0  0  0  0  0  0  0  0  0  0  0
   29.3750   33.1870   19.4650 C   0  0  0  0  0  0  0  0  0  0  0  0
   28.3770   34.7980   18.5590 H   0  0  0  0  0  0  0  0  0  0  0  0
   28.8770   33.5100   20.8220 C   0  0  0  0  0  0  0  0  0  0  0  0
   30.1210   32.2140   19.3060 O   0  0  0  0  0  0  0  0  0  0  0  0
   27.1780   32.3510   16.5660 O   0  0  0  0  0  0  0  0  0  0  0  0
   26.3510   32.1320   17.0240 H   0  0  0  0  0  0  0  0  0  0  0  0
   26.6200   34.6150   13.9460 O   0  0  0  0  0  0  0  0  0  0  0  0
   27.1520   34.4030   13.1430 H   0  0  0  0  0  0  0  0  0  0  0  0
   24.0360   29.6250   15.5600 O   0  0  0  0  0  0  0  0  0  0  0  0
   23.7990   29.6710   16.9430 C   0  0  0  0  0  0  0  0  0  0  0  0
   24.9460   29.1260   17.6930 C   0  0  0  0  0  0  0  0  0  0  0  0
   25.2260   29.2810   19.0360 C   0  0  0  0  0  0  0  0  0  0  0  0
   25.9290   28.3700   17.1580 N   0  0  0  0  0  0  0  0  0  0  0  0
   26.3540   28.6200   19.2680 N   0  0  0  0  0  0  0  0  0  0  0  0
   26.7680   28.0830   18.1570 N   0  0  0  0  0  0  0  0  0  0  0  0
   27.0340   28.5060   20.5560 C   0  0  1  0  0  0  0  0  0  0  0  0
   26.4810   27.3140   21.2830 C   0  0  0  0  0  0  0  0  0  0  0  0
   27.0410   27.1970   22.5350 O   0  0  0  0  0  0  0  0  0  0  0  0
   26.6780   28.1860   23.4230 C   0  0  0  0  0  0  0  0  0  0  0  0
   28.4950   28.2770   20.3100 C   0  0  0  0  0  0  0  0  0  0  0  0
   29.3070   29.2090   20.4010 O   0  0  0  0  0  0  0  0  0  0  0  0
   28.9080   26.9620   19.9700 N   0  0  0  0  0  0  0  0  0  0  0  0
   29.8960   26.6820   20.1670 H   0  0  0  0  0  0  0  0  0  0  0  0
   28.2540   26.2960   19.5410 H   0  0  0  0  0  0  0  0  0  0  0  0
   29.8670   25.5550   16.9770 C   0  0  0  0  0  0  0  0  0  0  0  0
   28.3450   25.7220   17.0260 C   0  0  0  0  0  0  0  0  0  0  0  0
   27.6020   24.3990   16.9250 C   0  0  0  0  0  0  0  0  0  0  0  0
   26.1500   24.5350   17.2910 C   0  0  0  0  0  0  0  0  0  0  0  0
   26.0050   24.5370   18.8090 C   0  0  0  0  0  0  0  0  0  0  0  0
   25.4890   23.2300   19.2820 N   0  0  0  0  0  0  0  0  0  0  0  0
  1  4  1  0  0  0  0
  2  1  1  0  0  0  0
  2 31  1  0  0  0  0
  3  2  2  0  0  0  0
  5  1  1  0  0  0  0
  6  5  1  1  0  0  0
  6  7  1  0  0  0  0
  7 27  1  6  0  0  0
  8  7  1  1  0  0  0
  8 13  1  0  0  0  0
  9 16  1  6  0  0  0
  9 14  1  0  0  0  0
  9 11  1  0  0  0  0
  9 10  1  0  0  0  0
 10 12  1  0  0  0  0
 11  8  1  0  0  0  0
 12 13  1  0  0  0  0
 12 20  1  6  0  0  0
 13 22  1  1  0  0  0
 15 14  1  0  0  0  0
 17 16  2  0  0  0  0
 18 19  1  0  0  0  0
 18 16  1  0  0  0  0
 20 21  1  0  0  0  0
 22 24  1  0  0  0  0
 22 23  1  0  0  0  0
 23 25  1  0  0  0  0
 26 23  2  0  0  0  0
 27 28  1  0  0  0  0
 29  6  1  0  0  0  0
 30 29  1  0  0  0  0
 31 32  1  0  0  0  0
 32 33  1  0  0  0  0
 33 34  2  0  0  0  0
 34 36  1  0  0  0  0
 35 33  1  0  0  0  0
 35 37  2  0  0  0  0
 36 38  1  0  0  0  0
 37 36  1  0  0  0  0
 38 39  1  6  0  0  0
 39 40  1  0  0  0  0
 40 41  1  0  0  0  0
 42 43  2  0  0  0  0
 42 38  1  0  0  0  0
 44 45  1  0  0  0  0
 44 42  1  0  0  0  0
 46 44  1  0  0  0  0
 47 48  1  0  0  0  0
 49 48  1  0  0  0  0
 49 50  1  0  0  0  0
 50 51  1  0  0  0  0
 51 52  1  0  0  0  0
M  END
>  <REMARK>
 VINA RESULT:    -3.922      2.510      7.405
 INTER + INTRA:         -14.229
 INTER:                  -7.746
 INTRA:                  -6.483
 UNBOUND:                -6.753
 SMILES COCC(C(N)=O)n1cc(COC(=O)NC[C@@H](O)C(O)[C@@H]2O[C@@](O)(C(=O)O)C[C@H](O)[C@H]2NC(C)=O)nn1
 SMILES IDX 15 1 13 2 14 3 16 5 17 6 19 7 21 8 23 9 28 10 22 11 29 12
 SMILES IDX 31 13 24 14 25 16 26 17 27 18 30 20 32 22 33 23 34 25 35 26
 SMILES IDX 20 27 18 29 12 31 11 32 10 33 9 34 36 35 8 36 37 37 4 38
 SMILES IDX 3 39 2 40 1 41 5 42 7 43 6 44
 H PARENT 15 4 24 15 27 19 30 21 32 24 20 28 18 30 6 45 6 46
 Flexibility Score: inf
  4 active torsions:
  status: ('A' for Active; 'I' for Inactive)
    1  A    between atoms: CA   and  CB  
    2  A    between atoms: CB   and  CG  
    3  A    between atoms: CG   and  CD  
    4  A    between atoms: CD   and  CE  

>  <TORSDO>
F 18

>  <BEGIN_>
RES LYS A 131

$$$$
ligand_62_pose_14_2HRL.pdbqt
 OpenBabel07062320523D

  6  5  0  0  0  0  0  0  0  0999 V2000
   33.1930   34.6630    9.2900 C   0  0  0  0  0  0  0  0  0  0  0  0
   32.0600   35.3600   10.0340 C   0  0  0  0  0  0  0  0  0  0  0  0
   30.8000   35.5000    9.2190 C   0  0  0  0  0  0  0  0  0  0  0  0
   30.1180   34.1520    9.0490 C   0  0  0  0  0  0  0  0  0  0  0  0
   28.6600   34.3370    8.6720 C   0  0  0  0  0  0  0  0  0  0  0  0
   27.7640   33.6540    9.6450 N   0  0  0  0  0  0  0  0  0  0  0  0
  1  2  1  0  0  0  0
  3  2  1  0  0  0  0
  4  3  1  0  0  0  0
  5  4  1  0  0  0  0
  5  6  1  0  0  0  0
M  END
>  <EGIN_R>
ES LYS A 135

>  <REMARK>
  4 active torsions:
  status: ('A' for Active; 'I' for Inactive)
    5  A    between atoms: CA   and  CB  
    6  A    between atoms: CB   and  CG  
    7  A    between atoms: CG   and  CD  
    8  A    between atoms: CD   and  CE  

$$$$
