ligand_62_pose_10_2HRL.pdbqt
 OpenBabel07062320523D

 52 52  0  0  1  0  0  0  0  0999 V2000
   23.5420   35.0530   12.2670 N   0  0  0  0  0  0  0  0  0  0  0  0
   24.6030   34.1460   12.4580 C   0  0  0  0  0  0  0  0  0  0  0  0
   24.4140   32.9730   12.8510 O   0  0  0  0  0  0  0  0  0  0  0  0
   23.8020   36.0150   11.9290 H   0  0  0  0  0  0  0  0  0  0  0  0
   22.1620   34.7900   12.4890 C   0  0  0  0  0  0  0  0  0  0  0  0
   21.2780   34.6940   11.3010 C   0  0  2  0  0  0  0  0  0  0  0  0
   21.0930   36.0160   10.5880 C   0  0  2  0  0  0  0  0  0  0  0  0
   19.9210   36.0740    9.6620 C   0  0  2  0  0  0  0  0  0  0  0  0
   18.8410   34.7530    8.0990 C   0  0  2  0  0  0  0  0  0  0  0  0
   17.8730   35.8970    8.2520 C   0  0  0  0  0  0  0  0  0  0  0  0
   19.9310   34.8590    8.9450 O   0  0  0  0  0  0  0  0  0  0  0  0
   18.4950   37.2370    8.0900 C   0  0  1  0  0  0  0  0  0  0  0  0
   19.9230   37.1740    8.6570 C   0  0  1  0  0  0  0  0  0  0  0  0
   19.1960   34.6440    6.7670 O   0  0  0  0  0  0  0  0  0  0  0  0
   18.7480   35.3050    6.1830 H   0  0  0  0  0  0  0  0  0  0  0  0
   18.1130   33.5090    8.4710 C   0  0  0  0  0  0  0  0  0  0  0  0
   17.8350   33.2340    9.6710 O   0  0  0  0  0  0  0  0  0  0  0  0
   17.6980   32.5780    7.5130 O   0  0  0  0  0  0  0  0  0  0  0  0
   17.0160   31.8630    7.7280 H   0  0  0  0  0  0  0  0  0  0  0  0
   18.5160   37.6800    6.7690 O   0  0  0  0  0  0  0  0  0  0  0  0
   19.2070   37.1380    6.3000 H   0  0  0  0  0  0  0  0  0  0  0  0
   20.2190   38.4860    9.1180 N   0  0  0  0  0  0  0  0  0  0  0  0
   21.4340   39.1840    8.7620 C   0  0  0  0  0  0  0  0  0  0  0  0
   19.5760   39.0320    9.7310 H   0  0  0  0  0  0  0  0  0  0  0  0
   21.6980   40.5510    9.2670 C   0  0  0  0  0  0  0  0  0  0  0  0
   22.2620   38.6350    8.0260 O   0  0  0  0  0  0  0  0  0  0  0  0
   22.2370   36.1000    9.7340 O   0  0  0  0  0  0  0  0  0  0  0  0
   21.9720   36.1570    8.8010 H   0  0  0  0  0  0  0  0  0  0  0  0
   20.0040   34.2820   11.6820 O   0  0  0  0  0  0  0  0  0  0  0  0
   19.5170   33.9260   10.9010 H   0  0  0  0  0  0  0  0  0  0  0  0
   25.9210   34.5220   12.2130 O   0  0  0  0  0  0  0  0  0  0  0  0
   26.5140   34.3560   10.9510 C   0  0  0  0  0  0  0  0  0  0  0  0
   26.2020   35.4940   10.0680 C   0  0  0  0  0  0  0  0  0  0  0  0
   27.0180   36.5620    9.7470 C   0  0  0  0  0  0  0  0  0  0  0  0
   25.0300   35.6700    9.4210 N   0  0  0  0  0  0  0  0  0  0  0  0
   26.3220   37.3380    8.9240 N   0  0  0  0  0  0  0  0  0  0  0  0
   25.1480   36.8090    8.7340 N   0  0  0  0  0  0  0  0  0  0  0  0
   26.7840   38.5860    8.3230 C   0  0  1  0  0  0  0  0  0  0  0  0
   27.5700   38.2570    7.0850 C   0  0  0  0  0  0  0  0  0  0  0  0
   27.0060   37.1980    6.4120 O   0  0  0  0  0  0  0  0  0  0  0  0
   27.9020   36.2390    5.9910 C   0  0  0  0  0  0  0  0  0  0  0  0
   25.5890   39.4010    7.9260 C   0  0  0  0  0  0  0  0  0  0  0  0
   25.2250   40.3670    8.6110 O   0  0  0  0  0  0  0  0  0  0  0  0
   24.8980   39.0230    6.7450 N   0  0  0  0  0  0  0  0  0  0  0  0
   24.3390   39.7480    6.2400 H   0  0  0  0  0  0  0  0  0  0  0  0
   24.9440   38.0600    6.3890 H   0  0  0  0  0  0  0  0  0  0  0  0
   29.8670   25.5550   16.9770 C   0  0  0  0  0  0  0  0  0  0  0  0
   28.3450   25.7220   17.0260 C   0  0  0  0  0  0  0  0  0  0  0  0
   27.5990   24.4790   16.5650 C   0  0  0  0  0  0  0  0  0  0  0  0
   27.1910   23.6040   17.7180 C   0  0  0  0  0  0  0  0  0  0  0  0
   25.7120   23.2510   17.5900 C   0  0  0  0  0  0  0  0  0  0  0  0
   24.9660   24.3650   16.9580 N   0  0  0  0  0  0  0  0  0  0  0  0
  1  2  1  0  0  0  0
  1  5  1  0  0  0  0
  2  3  2  0  0  0  0
  4  1  1  0  0  0  0
  6 29  1  0  0  0  0
  6  5  1  1  0  0  0
  7 27  1  6  0  0  0
  7  6  1  0  0  0  0
  8  7  1  1  0  0  0
  9 14  1  6  0  0  0
  9 10  1  0  0  0  0
  9 16  1  0  0  0  0
  9 11  1  0  0  0  0
 11  8  1  0  0  0  0
 12 20  1  6  0  0  0
 12 10  1  0  0  0  0
 12 13  1  0  0  0  0
 13 22  1  1  0  0  0
 13  8  1  0  0  0  0
 15 14  1  0  0  0  0
 16 17  2  0  0  0  0
 18 19  1  0  0  0  0
 18 16  1  0  0  0  0
 21 20  1  0  0  0  0
 22 24  1  0  0  0  0
 23 22  1  0  0  0  0
 23 25  1  0  0  0  0
 26 23  2  0  0  0  0
 28 27  1  0  0  0  0
 30 29  1  0  0  0  0
 31  2  1  0  0  0  0
 32 31  1  0  0  0  0
 33 32  1  0  0  0  0
 34 33  2  0  0  0  0
 35 33  1  0  0  0  0
 36 34  1  0  0  0  0
 37 36  1  0  0  0  0
 37 35  2  0  0  0  0
 38 39  1  6  0  0  0
 38 36  1  0  0  0  0
 40 39  1  0  0  0  0
 41 40  1  0  0  0  0
 42 38  1  0  0  0  0
 42 43  2  0  0  0  0
 44 42  1  0  0  0  0
 45 44  1  0  0  0  0
 46 44  1  0  0  0  0
 47 48  1  0  0  0  0
 49 48  1  0  0  0  0
 49 50  1  0  0  0  0
 51 50  1  0  0  0  0
 52 51  1  0  0  0  0
M  END
>  <REMARK>
 VINA RESULT:    -4.022      6.938     12.114
 INTER + INTRA:         -14.419
 INTER:                  -8.113
 INTRA:                  -6.306
 UNBOUND:                -6.753
 SMILES COCC(C(N)=O)n1cc(COC(=O)NC[C@@H](O)C(O)[C@@H]2O[C@@](O)(C(=O)O)C[C@H](O)[C@H]2NC(C)=O)nn1
 SMILES IDX 15 1 13 2 14 3 16 5 17 6 19 7 21 8 23 9 28 10 22 11 29 12
 SMILES IDX 31 13 24 14 25 16 26 17 27 18 30 20 32 22 33 23 34 25 35 26
 SMILES IDX 20 27 18 29 12 31 11 32 10 33 9 34 36 35 8 36 37 37 4 38
 SMILES IDX 3 39 2 40 1 41 5 42 7 43 6 44
 H PARENT 15 4 24 15 27 19 30 21 32 24 20 28 18 30 6 45 6 46
 Flexibility Score: inf
  4 active torsions:
  status: ('A' for Active; 'I' for Inactive)
    1  A    between atoms: CA   and  CB  
    2  A    between atoms: CB   and  CG  
    3  A    between atoms: CG   and  CD  
    4  A    between atoms: CD   and  CE  

>  <TORSDO>
F 18

>  <BEGIN_>
RES LYS A 131

$$$$
ligand_62_pose_10_2HRL.pdbqt
 OpenBabel07062320523D

  6  5  0  0  0  0  0  0  0  0999 V2000
   33.1930   34.6630    9.2900 C   0  0  0  0  0  0  0  0  0  0  0  0
   32.0600   35.3600   10.0340 C   0  0  0  0  0  0  0  0  0  0  0  0
   30.7520   35.3490    9.2860 C   0  0  0  0  0  0  0  0  0  0  0  0
   30.4650   36.7170    8.6870 C   0  0  0  0  0  0  0  0  0  0  0  0
   30.6130   37.8010    9.7380 C   0  0  0  0  0  0  0  0  0  0  0  0
   31.6340   38.8060    9.3310 N   0  0  0  0  0  0  0  0  0  0  0  0
  1  2  1  0  0  0  0
  3  2  1  0  0  0  0
  4  3  1  0  0  0  0
  4  5  1  0  0  0  0
  6  5  1  0  0  0  0
M  END
>  <EGIN_R>
ES LYS A 135

>  <REMARK>
  4 active torsions:
  status: ('A' for Active; 'I' for Inactive)
    5  A    between atoms: CA   and  CB  
    6  A    between atoms: CB   and  CG  
    7  A    between atoms: CG   and  CD  
    8  A    between atoms: CD   and  CE  

$$$$
