ligand_1_pose_12_2HRL.pdbqt
 OpenBabel07062320523D

 47 47  0  0  1  0  0  0  0  0999 V2000
   31.0350   35.3770   14.8990 N   0  0  0  0  0  0  0  0  0  0  0  0
   30.3680   35.3600   13.6690 C   0  0  0  0  0  0  0  0  0  0  0  0
   30.6390   34.5020   12.8320 O   0  0  0  0  0  0  0  0  0  0  0  0
   30.7280   36.1670   15.5600 H   0  0  0  0  0  0  0  0  0  0  0  0
   32.0410   34.5190   15.3940 C   0  0  0  0  0  0  0  0  0  0  0  0
   31.6970   33.6370   16.5530 C   0  0  2  0  0  0  0  0  0  0  0  0
   31.1210   32.3230   16.1200 C   0  0  1  0  0  0  0  0  0  0  0  0
   29.6890   32.0670   16.3300 C   0  0  2  0  0  0  0  0  0  0  0  0
   27.5440   32.8960   16.1770 C   0  0  2  0  0  0  0  0  0  0  0  0
   27.2010   31.4210   16.1960 C   0  0  0  0  0  0  0  0  0  0  0  0
   28.9050   33.1460   16.0060 O   0  0  0  0  0  0  0  0  0  0  0  0
   27.9350   30.7220   17.3330 C   0  0  1  0  0  0  0  0  0  0  0  0
   29.2440   31.4810   17.6260 C   0  0  1  0  0  0  0  0  0  0  0  0
   27.1790   33.4980   17.3780 O   0  0  0  0  0  0  0  0  0  0  0  0
   26.8900   32.8490   18.0590 H   0  0  0  0  0  0  0  0  0  0  0  0
   26.8540   33.5900   15.0660 C   0  0  0  0  0  0  0  0  0  0  0  0
   25.6210   33.8350   15.0750 O   0  0  0  0  0  0  0  0  0  0  0  0
   27.5880   33.9910   13.9650 O   0  0  0  0  0  0  0  0  0  0  0  0
   27.1160   34.1230   13.0580 H   0  0  0  0  0  0  0  0  0  0  0  0
   27.1190   30.7020   18.4560 O   0  0  0  0  0  0  0  0  0  0  0  0
   26.5770   31.5340   18.4330 H   0  0  0  0  0  0  0  0  0  0  0  0
   30.1860   30.5560   18.2210 N   0  0  0  0  0  0  0  0  0  0  0  0
   30.3320   30.5470   19.6320 C   0  0  0  0  0  0  0  0  0  0  0  0
   30.7600   29.8960   17.6400 H   0  0  0  0  0  0  0  0  0  0  0  0
   31.2750   29.6330   20.3320 C   0  0  0  0  0  0  0  0  0  0  0  0
   29.6480   31.3330   20.3260 O   0  0  0  0  0  0  0  0  0  0  0  0
   31.4210   32.2820   14.7080 O   0  0  0  0  0  0  0  0  0  0  0  0
   32.2370   32.7890   14.5560 H   0  0  0  0  0  0  0  0  0  0  0  0
   30.9490   34.2840   17.4790 O   0  0  0  0  0  0  0  0  0  0  0  0
   31.4390   34.8140   18.1380 H   0  0  0  0  0  0  0  0  0  0  0  0
   29.3890   36.3000   13.3560 O   0  0  0  0  0  0  0  0  0  0  0  0
   29.1200   36.6810   12.0240 C   0  0  0  0  0  0  0  0  0  0  0  0
   27.9240   35.9550   11.5330 C   0  0  0  0  0  0  0  0  0  0  0  0
   26.6490   36.4440   11.3960 C   0  0  0  0  0  0  0  0  0  0  0  0
   27.8900   34.6900   11.1390 N   0  0  0  0  0  0  0  0  0  0  0  0
   25.9100   35.4270   10.9180 N   0  0  0  0  0  0  0  0  0  0  0  0
   26.6620   34.3500   10.7590 N   0  0  0  0  0  0  0  0  0  0  0  0
   24.4940   35.5160   10.6270 C   0  0  0  0  0  0  0  0  0  0  0  0
   23.7140   35.0880   11.8680 C   0  0  0  0  0  0  0  0  0  0  0  0
   24.3540   33.9670   12.4350 O   0  0  0  0  0  0  0  0  0  0  0  0
   24.3950   33.2230   11.7600 H   0  0  0  0  0  0  0  0  0  0  0  0
   29.8670   25.5550   16.9770 C   0  0  0  0  0  0  0  0  0  0  0  0
   28.3450   25.7220   17.0260 C   0  0  0  0  0  0  0  0  0  0  0  0
   27.6010   24.4000   16.9080 C   0  0  0  0  0  0  0  0  0  0  0  0
   26.1520   24.5300   17.2880 C   0  0  0  0  0  0  0  0  0  0  0  0
   25.6370   23.1860   17.7930 C   0  0  0  0  0  0  0  0  0  0  0  0
   25.5130   23.2000   19.2700 N   0  0  0  0  0  0  0  0  0  0  0  0
  1  5  1  0  0  0  0
  1  4  1  0  0  0  0
  2  1  1  0  0  0  0
  3  2  2  0  0  0  0
  6  5  1  6  0  0  0
  6 29  1  0  0  0  0
  7 27  1  6  0  0  0
  7  6  1  0  0  0  0
  8  7  1  1  0  0  0
  8 13  1  0  0  0  0
  9 16  1  6  0  0  0
  9 10  1  0  0  0  0
  9 14  1  0  0  0  0
 10 12  1  0  0  0  0
 11  9  1  0  0  0  0
 11  8  1  0  0  0  0
 12 13  1  0  0  0  0
 12 20  1  1  0  0  0
 13 22  1  6  0  0  0
 14 15  1  0  0  0  0
 16 17  2  0  0  0  0
 18 16  1  0  0  0  0
 19 18  1  0  0  0  0
 21 20  1  0  0  0  0
 22 23  1  0  0  0  0
 23 26  2  0  0  0  0
 23 25  1  0  0  0  0
 24 22  1  0  0  0  0
 28 27  1  0  0  0  0
 29 30  1  0  0  0  0
 31  2  1  0  0  0  0
 32 31  1  0  0  0  0
 33 32  1  0  0  0  0
 34 33  2  0  0  0  0
 35 33  1  0  0  0  0
 36 34  1  0  0  0  0
 37 36  1  0  0  0  0
 37 35  2  0  0  0  0
 38 36  1  0  0  0  0
 38 39  1  0  0  0  0
 39 40  1  0  0  0  0
 41 40  1  0  0  0  0
 42 43  1  0  0  0  0
 44 43  1  0  0  0  0
 44 45  1  0  0  0  0
 45 46  1  0  0  0  0
 46 47  1  0  0  0  0
M  END
>  <REMARK>
 VINA RESULT:    -3.189      5.264      9.837
 INTER + INTRA:         -13.370
 INTER:                  -7.169
 INTRA:                  -6.201
 UNBOUND:                -7.572
 SMILES CC(=O)N[C@@H]1[C@@H](O)C[C@](O)(C(=O)O)O[C@H]1C(O)[C@H](O)CNC(=O)OCc1cn(CCO)nn1
 SMILES IDX 21 1 22 2 23 3 20 5 18 6 16 7 15 8 9 9 8 10 14 11 6 12 5 13
 SMILES IDX 10 14 11 16 12 17 13 18 7 20 4 22 2 23 1 25 3 26 17 27 19 29
 SMILES IDX 24 31 25 32 26 33 27 34 33 35 28 36 32 37 29 38 30 39 31 40
 H PARENT 21 4 10 15 13 19 7 21 4 24 17 28 19 30 31 41
 Flexibility Score: inf
  4 active torsions:
  status: ('A' for Active; 'I' for Inactive)
    1  A    between atoms: CA   and  CB  
    2  A    between atoms: CB   and  CG  
    3  A    between atoms: CG   and  CD  
    4  A    between atoms: CD   and  CE  

>  <TORSDO>
F 17

>  <BEGIN_>
RES LYS A 131

$$$$
ligand_1_pose_12_2HRL.pdbqt
 OpenBabel07062320523D

  6  5  0  0  0  0  0  0  0  0999 V2000
   33.1930   34.6630    9.2900 C   0  0  0  0  0  0  0  0  0  0  0  0
   32.0600   35.3600   10.0340 C   0  0  0  0  0  0  0  0  0  0  0  0
   30.9080   35.7530    9.1460 C   0  0  0  0  0  0  0  0  0  0  0  0
   30.3610   34.5400    8.4090 C   0  0  0  0  0  0  0  0  0  0  0  0
   29.0160   34.8590    7.7830 C   0  0  0  0  0  0  0  0  0  0  0  0
   28.6620   36.2920    7.9750 N   0  0  0  0  0  0  0  0  0  0  0  0
  1  2  1  0  0  0  0
  3  2  1  0  0  0  0
  4  3  1  0  0  0  0
  5  6  1  0  0  0  0
  5  4  1  0  0  0  0
M  END
>  <EGIN_R>
ES LYS A 135

>  <REMARK>
  4 active torsions:
  status: ('A' for Active; 'I' for Inactive)
    5  A    between atoms: CA   and  CB  
    6  A    between atoms: CB   and  CG  
    7  A    between atoms: CG   and  CD  
    8  A    between atoms: CD   and  CE  

$$$$
