ligand_49_pose_18_2HRL.pdbqt
 OpenBabel07062320523D

 48 49  0  0  1  0  0  0  0  0999 V2000
   26.5090   40.1430    5.9900 C   0  0  0  0  0  0  0  0  0  0  0  0
   27.2960   39.6420    4.8110 C   0  0  2  0  0  0  0  0  0  0  0  0
   28.1020   38.4580    5.3080 C   0  0  1  0  0  0  0  0  0  0  0  0
   28.5950   38.6460    6.7070 C   0  0  2  0  0  0  0  0  0  0  0  0
   29.8340   40.1230    7.9940 C   0  0  2  0  0  0  0  0  0  0  0  0
   29.5170   39.0680    9.0430 C   0  0  0  0  0  0  0  0  0  0  0  0
   29.6210   39.5610    6.7340 O   0  0  0  0  0  0  0  0  0  0  0  0
   29.9820   37.7380    8.4860 C   0  0  1  0  0  0  0  0  0  0  0  0
   28.9980   37.3660    7.3840 C   0  0  1  0  0  0  0  0  0  0  0  0
   31.1710   40.4630    8.1660 O   0  0  0  0  0  0  0  0  0  0  0  0
   31.6860   39.6000    8.2220 H   0  0  0  0  0  0  0  0  0  0  0  0
   29.0110   41.3280    8.1560 C   0  0  0  0  0  0  0  0  0  0  0  0
   29.0720   42.2790    7.3370 O   0  0  0  0  0  0  0  0  0  0  0  0
   28.1380   41.4510    9.2240 O   0  0  0  0  0  0  0  0  0  0  0  0
   28.4650   41.6250   10.1830 H   0  0  0  0  0  0  0  0  0  0  0  0
   31.2520   37.9550    7.9260 O   0  0  0  0  0  0  0  0  0  0  0  0
   31.1500   37.8750    6.9410 H   0  0  0  0  0  0  0  0  0  0  0  0
   27.8690   36.6830    7.9810 N   0  0  0  0  0  0  0  0  0  0  0  0
   27.8280   35.2730    8.0540 C   0  0  0  0  0  0  0  0  0  0  0  0
   27.0750   37.2280    8.3640 H   0  0  0  0  0  0  0  0  0  0  0  0
   26.7050   34.5100    8.6520 C   0  0  0  0  0  0  0  0  0  0  0  0
   28.7960   34.6290    7.5880 O   0  0  0  0  0  0  0  0  0  0  0  0
   27.2390   37.3610    5.3010 O   0  0  0  0  0  0  0  0  0  0  0  0
   26.3200   37.5850    5.0550 H   0  0  0  0  0  0  0  0  0  0  0  0
   28.1400   40.6020    4.3050 O   0  0  0  0  0  0  0  0  0  0  0  0
   27.6660   41.1160    3.5970 H   0  0  0  0  0  0  0  0  0  0  0  0
   25.3670   39.3650    6.3540 N   0  0  0  0  0  0  0  0  0  0  0  0
   24.2570   39.8140    7.0770 C   0  0  0  0  0  0  0  0  0  0  0  0
   25.3750   38.3430    6.0390 H   0  0  0  0  0  0  0  0  0  0  0  0
   24.2030   41.0000    7.4760 O   0  0  0  0  0  0  0  0  0  0  0  0
   23.1920   38.9400    7.3610 O   0  0  0  0  0  0  0  0  0  0  0  0
   23.5070   37.5720    7.5440 C   0  0  0  0  0  0  0  0  0  0  0  0
   24.2920   37.4400    8.7910 C   0  0  0  0  0  0  0  0  0  0  0  0
   23.8640   36.7170    9.8970 C   0  0  0  0  0  0  0  0  0  0  0  0
   25.4800   37.9350    9.1160 N   0  0  0  0  0  0  0  0  0  0  0  0
   24.8100   36.8100   10.8310 N   0  0  0  0  0  0  0  0  0  0  0  0
   25.7850   37.5530   10.3460 N   0  0  0  0  0  0  0  0  0  0  0  0
   24.7160   36.1770   12.1420 C   0  0  0  0  0  0  0  0  0  0  0  0
   24.1470   34.8010   11.9430 C   0  0  0  0  0  0  0  0  0  0  0  0
   26.1110   36.0060   12.7020 C   0  0  0  0  0  0  0  0  0  0  0  0
   25.1290   33.8400   12.5310 C   0  0  0  0  0  0  0  0  0  0  0  0
   26.4490   34.5530   12.4200 C   0  0  0  0  0  0  0  0  0  0  0  0
   29.8670   25.5550   16.9770 C   0  0  0  0  0  0  0  0  0  0  0  0
   28.3450   25.7220   17.0260 C   0  0  0  0  0  0  0  0  0  0  0  0
   27.6010   24.4010   16.9050 C   0  0  0  0  0  0  0  0  0  0  0  0
   26.1520   24.5300   17.2840 C   0  0  0  0  0  0  0  0  0  0  0  0
   25.7320   23.3180   18.1090 C   0  0  0  0  0  0  0  0  0  0  0  0
   24.2910   23.3930   18.4450 N   0  0  0  0  0  0  0  0  0  0  0  0
  1 27  1  0  0  0  0
  2  3  1  0  0  0  0
  2  1  1  1  0  0  0
  3 23  1  1  0  0  0
  4  3  1  6  0  0  0
  4  7  1  0  0  0  0
  4  9  1  0  0  0  0
  5 12  1  1  0  0  0
  5 10  1  0  0  0  0
  5  6  1  0  0  0  0
  7  5  1  0  0  0  0
  8 16  1  6  0  0  0
  8  6  1  0  0  0  0
  9 18  1  1  0  0  0
  9  8  1  0  0  0  0
 10 11  1  0  0  0  0
 12 14  1  0  0  0  0
 13 12  2  0  0  0  0
 14 15  1  0  0  0  0
 17 16  1  0  0  0  0
 18 19  1  0  0  0  0
 18 20  1  0  0  0  0
 19 21  1  0  0  0  0
 22 19  2  0  0  0  0
 24 23  1  0  0  0  0
 25  2  1  0  0  0  0
 26 25  1  0  0  0  0
 27 28  1  0  0  0  0
 28 31  1  0  0  0  0
 28 30  2  0  0  0  0
 29 27  1  0  0  0  0
 31 32  1  0  0  0  0
 32 33  1  0  0  0  0
 33 35  1  0  0  0  0
 33 34  2  0  0  0  0
 34 36  1  0  0  0  0
 35 37  2  0  0  0  0
 36 38  1  0  0  0  0
 37 36  1  0  0  0  0
 38 40  1  0  0  0  0
 39 38  1  0  0  0  0
 39 41  1  0  0  0  0
 42 41  1  0  0  0  0
 42 40  1  0  0  0  0
 43 44  1  0  0  0  0
 45 44  1  0  0  0  0
 45 46  1  0  0  0  0
 46 47  1  0  0  0  0
 47 48  1  0  0  0  0
M  END
>  <REMARK>
 VINA RESULT:    -4.833      5.794      9.685
 INTER + INTRA:         -13.391
 INTER:                  -8.447
 INTRA:                  -4.944
 UNBOUND:                -5.026
 SMILES CC(=O)N[C@@H]1[C@@H](O)C[C@](O)(C(=O)O)O[C@H]1C(O)[C@H](O)CNC(=O)OCc1cn(C2CCCC2)nn1
 SMILES IDX 20 1 18 2 16 3 15 4 9 5 8 6 14 7 6 8 5 9 10 10 11 12 12 13
 SMILES IDX 13 14 7 16 4 18 2 19 1 21 3 22 17 23 19 25 21 27 22 28 23 30
 SMILES IDX 24 31 25 32 26 33 27 34 35 35 28 36 34 37 29 38 30 39 33 40
 SMILES IDX 31 41 32 42
 H PARENT 10 11 13 15 7 17 4 20 17 24 19 26 21 29
 Flexibility Score: inf
  4 active torsions:
  status: ('A' for Active; 'I' for Inactive)
    1  A    between atoms: CA   and  CB  
    2  A    between atoms: CB   and  CG  
    3  A    between atoms: CG   and  CD  
    4  A    between atoms: CD   and  CE  

>  <TORSDO>
F 15

>  <BEGIN_>
RES LYS A 131

$$$$
ligand_49_pose_18_2HRL.pdbqt
 OpenBabel07062320523D

  6  5  0  0  0  0  0  0  0  0999 V2000
   33.1930   34.6630    9.2900 C   0  0  0  0  0  0  0  0  0  0  0  0
   32.0600   35.3600   10.0340 C   0  0  0  0  0  0  0  0  0  0  0  0
   30.8440   34.4910   10.2310 C   0  0  0  0  0  0  0  0  0  0  0  0
   29.8830   35.1300   11.2210 C   0  0  0  0  0  0  0  0  0  0  0  0
   30.1430   34.6140   12.6240 C   0  0  0  0  0  0  0  0  0  0  0  0
   30.9960   35.5620   13.3940 N   0  0  0  0  0  0  0  0  0  0  0  0
  1  2  1  0  0  0  0
  2  3  1  0  0  0  0
  3  4  1  0  0  0  0
  4  5  1  0  0  0  0
  5  6  1  0  0  0  0
M  END
>  <EGIN_R>
ES LYS A 135

>  <REMARK>
  4 active torsions:
  status: ('A' for Active; 'I' for Inactive)
    5  A    between atoms: CA   and  CB  
    6  A    between atoms: CB   and  CG  
    7  A    between atoms: CG   and  CD  
    8  A    between atoms: CD   and  CE  

$$$$
