ligand_8_pose_17_2HRL.pdbqt
 OpenBabel07062320523D

 50 51  0  0  1  0  0  0  0  0999 V2000
   30.3340   31.3150   17.0240 C   0  0  0  0  0  0  0  0  0  0  0  0
   30.4040   32.8180   16.9520 C   0  0  2  0  0  0  0  0  0  0  0  0
   30.6240   33.2040   15.5220 C   0  0  1  0  0  0  0  0  0  0  0  0
   30.9620   34.6550   15.2790 C   0  0  2  0  0  0  0  0  0  0  0  0
   30.3180   35.2390   13.1010 C   0  0  2  0  0  0  0  0  0  0  0  0
   31.3780   36.3400   13.0520 C   0  0  0  0  0  0  0  0  0  0  0  0
   29.9830   35.1170   14.4080 O   0  0  0  0  0  0  0  0  0  0  0  0
   32.6070   35.7390   13.6720 C   0  0  1  0  0  0  0  0  0  0  0  0
   32.3560   34.9440   14.9260 C   0  0  1  0  0  0  0  0  0  0  0  0
   30.8570   34.1380   12.4850 O   0  0  0  0  0  0  0  0  0  0  0  0
   31.6840   33.8960   12.9700 H   0  0  0  0  0  0  0  0  0  0  0  0
   29.1270   35.6790   12.3230 C   0  0  0  0  0  0  0  0  0  0  0  0
   29.0820   36.8580   11.8950 O   0  0  0  0  0  0  0  0  0  0  0  0
   28.0700   34.8150   12.0600 O   0  0  0  0  0  0  0  0  0  0  0  0
   27.9440   33.9270   12.5400 H   0  0  0  0  0  0  0  0  0  0  0  0
   33.1750   34.9130   12.7010 O   0  0  0  0  0  0  0  0  0  0  0  0
   32.7250   34.0510   12.6550 H   0  0  0  0  0  0  0  0  0  0  0  0
   32.9800   35.6620   16.0570 N   0  0  0  0  0  0  0  0  0  0  0  0
   34.3840   35.7530   16.1860 C   0  0  0  0  0  0  0  0  0  0  0  0
   32.3740   36.1260   16.7940 H   0  0  0  0  0  0  0  0  0  0  0  0
   35.0250   36.4730   17.3380 C   0  0  0  0  0  0  0  0  0  0  0  0
   35.0960   35.2100   15.3050 O   0  0  0  0  0  0  0  0  0  0  0  0
   31.4420   32.3000   14.8950 O   0  0  0  0  0  0  0  0  0  0  0  0
   32.4100   32.5700   14.9200 H   0  0  0  0  0  0  0  0  0  0  0  0
   31.4180   33.2840   17.7480 O   0  0  0  0  0  0  0  0  0  0  0  0
   32.0040   32.5560   18.0950 H   0  0  0  0  0  0  0  0  0  0  0  0
   29.0700   30.7460   17.3470 N   0  0  0  0  0  0  0  0  0  0  0  0
   28.3000   29.9600   16.4620 C   0  0  0  0  0  0  0  0  0  0  0  0
   28.6420   30.9030   18.3200 H   0  0  0  0  0  0  0  0  0  0  0  0
   28.6520   29.6960   15.2890 O   0  0  0  0  0  0  0  0  0  0  0  0
   27.0750   29.4480   16.9150 O   0  0  0  0  0  0  0  0  0  0  0  0
   27.1000   28.2070   17.5840 C   0  0  0  0  0  0  0  0  0  0  0  0
   27.4890   28.4550   18.9940 C   0  0  0  0  0  0  0  0  0  0  0  0
   28.0210   27.4830   19.8510 C   0  0  0  0  0  0  0  0  0  0  0  0
   27.4380   29.5580   19.7500 N   0  0  0  0  0  0  0  0  0  0  0  0
   28.2630   28.0220   21.0590 N   0  0  0  0  0  0  0  0  0  0  0  0
   27.8970   29.2890   20.9680 N   0  0  0  0  0  0  0  0  0  0  0  0
   28.8050   27.3450   22.1920 C   0  0  0  0  0  0  0  0  0  0  0  0
   27.9990   26.8300   23.1830 C   0  0  0  0  0  0  0  0  0  0  0  0
   30.1660   27.1780   22.3380 C   0  0  0  0  0  0  0  0  0  0  0  0
   28.5460   26.1700   24.2850 C   0  0  0  0  0  0  0  0  0  0  0  0
   30.7130   26.5230   23.4300 C   0  0  0  0  0  0  0  0  0  0  0  0
   31.2990   27.8910   20.9630 Br  0  0  0  0  0  0  0  0  0  0  0  0
   29.9080   26.0060   24.4230 C   0  0  0  0  0  0  0  0  0  0  0  0
   29.8670   25.5550   16.9770 C   0  0  0  0  0  0  0  0  0  0  0  0
   28.3450   25.7220   17.0260 C   0  0  0  0  0  0  0  0  0  0  0  0
   27.6010   24.4030   16.8830 C   0  0  0  0  0  0  0  0  0  0  0  0
   26.1430   24.5360   17.2240 C   0  0  0  0  0  0  0  0  0  0  0  0
   25.9700   24.5090   18.7400 C   0  0  0  0  0  0  0  0  0  0  0  0
   25.4960   23.1780   19.1850 N   0  0  0  0  0  0  0  0  0  0  0  0
  1 27  1  0  0  0  0
  2  1  1  6  0  0  0
  2 25  1  0  0  0  0
  3 23  1  1  0  0  0
  3  2  1  0  0  0  0
  4  3  1  6  0  0  0
  5 12  1  6  0  0  0
  5  7  1  0  0  0  0
  6  5  1  0  0  0  0
  6  8  1  0  0  0  0
  7  4  1  0  0  0  0
  8 16  1  6  0  0  0
  8  9  1  0  0  0  0
  9  4  1  0  0  0  0
  9 18  1  1  0  0  0
 10 11  1  0  0  0  0
 10  5  1  0  0  0  0
 13 12  2  0  0  0  0
 14 12  1  0  0  0  0
 14 15  1  0  0  0  0
 17 16  1  0  0  0  0
 18 19  1  0  0  0  0
 18 20  1  0  0  0  0
 19 21  1  0  0  0  0
 22 19  2  0  0  0  0
 23 24  1  0  0  0  0
 25 26  1  0  0  0  0
 27 29  1  0  0  0  0
 28 31  1  0  0  0  0
 28 27  1  0  0  0  0
 30 28  2  0  0  0  0
 31 32  1  0  0  0  0
 32 33  1  0  0  0  0
 33 35  1  0  0  0  0
 33 34  2  0  0  0  0
 34 36  1  0  0  0  0
 35 37  2  0  0  0  0
 36 38  1  0  0  0  0
 37 36  1  0  0  0  0
 38 40  2  0  0  0  0
 38 39  1  0  0  0  0
 39 41  2  0  0  0  0
 40 42  1  0  0  0  0
 41 44  1  0  0  0  0
 42 44  2  0  0  0  0
 43 40  1  0  0  0  0
 45 46  1  0  0  0  0
 47 46  1  0  0  0  0
 47 48  1  0  0  0  0
 48 49  1  0  0  0  0
 49 50  1  0  0  0  0
M  END
>  <REMARK>
 VINA RESULT:    -5.443      3.454      8.234
 INTER + INTRA:         -13.815
 INTER:                  -9.420
 INTRA:                  -4.396
 UNBOUND:                -4.396
 SMILES CC(=O)N[C@@H]1[C@@H](O)C[C@](O)(C(=O)O)O[C@H]1C(O)[C@H](O)CNC(=O)OCc1cn(-c2ccccc2Br)nn1
 SMILES IDX 20 1 18 2 16 3 15 4 9 5 8 6 14 7 6 8 5 9 10 10 11 12 12 13
 SMILES IDX 13 14 7 16 4 18 2 19 1 21 3 22 17 23 19 25 21 27 22 28 23 30
 SMILES IDX 24 31 25 32 26 33 27 34 37 35 28 36 36 37 29 38 30 39 34 40
 SMILES IDX 31 41 33 42 35 43 32 44
 H PARENT 10 11 13 15 7 17 4 20 17 24 19 26 21 29
 Flexibility Score: inf
  4 active torsions:
  status: ('A' for Active; 'I' for Inactive)
    1  A    between atoms: CA   and  CB  
    2  A    between atoms: CB   and  CG  
    3  A    between atoms: CG   and  CD  
    4  A    between atoms: CD   and  CE  

>  <TORSDO>
F 15

>  <BEGIN_>
RES LYS A 131

$$$$
ligand_8_pose_17_2HRL.pdbqt
 OpenBabel07062320523D

  6  5  0  0  0  0  0  0  0  0999 V2000
   33.1930   34.6630    9.2900 C   0  0  0  0  0  0  0  0  0  0  0  0
   32.0600   35.3600   10.0340 C   0  0  0  0  0  0  0  0  0  0  0  0
   30.8100   35.5270    9.2090 C   0  0  0  0  0  0  0  0  0  0  0  0
   30.1290   34.1850    8.9880 C   0  0  0  0  0  0  0  0  0  0  0  0
   28.6940   34.3830    8.5390 C   0  0  0  0  0  0  0  0  0  0  0  0
   28.6230   35.2800    7.3520 N   0  0  0  0  0  0  0  0  0  0  0  0
  1  2  1  0  0  0  0
  3  2  1  0  0  0  0
  4  3  1  0  0  0  0
  5  4  1  0  0  0  0
  6  5  1  0  0  0  0
M  END
>  <EGIN_R>
ES LYS A 135

>  <REMARK>
  4 active torsions:
  status: ('A' for Active; 'I' for Inactive)
    5  A    between atoms: CA   and  CB  
    6  A    between atoms: CB   and  CG  
    7  A    between atoms: CG   and  CD  
    8  A    between atoms: CD   and  CE  

$$$$
