ligand_27_pose_4_2HRL.pdbqt
 OpenBabel07062320523D

 50 51  0  0  1  0  0  0  0  0999 V2000
   25.8240   33.6800   15.1800 C   0  0  0  0  0  0  0  0  0  0  0  0
   26.7760   34.1200   14.1060 C   0  0  2  0  0  0  0  0  0  0  0  0
   27.9000   34.9690   14.6260 C   0  0  2  0  0  0  0  0  0  0  0  0
   29.2480   34.2740   14.4200 C   0  0  2  0  0  0  0  0  0  0  0  0
   29.7020   32.6820   16.0900 C   0  0  2  0  0  0  0  0  0  0  0  0
   31.1020   33.2660   16.2260 C   0  0  0  0  0  0  0  0  0  0  0  0
   29.1610   33.0290   14.9010 O   0  0  0  0  0  0  0  0  0  0  0  0
   30.8640   34.7740   16.2880 C   0  0  1  0  0  0  0  0  0  0  0  0
   30.3110   35.1710   14.9470 C   0  0  1  0  0  0  0  0  0  0  0  0
   28.9950   33.1280   17.1990 O   0  0  0  0  0  0  0  0  0  0  0  0
   29.1090   34.1080   17.2700 H   0  0  0  0  0  0  0  0  0  0  0  0
   29.7820   31.2040   16.1510 C   0  0  0  0  0  0  0  0  0  0  0  0
   30.5940   30.6710   16.9430 O   0  0  0  0  0  0  0  0  0  0  0  0
   28.9930   30.3760   15.3670 O   0  0  0  0  0  0  0  0  0  0  0  0
   28.1540   29.9640   15.7900 H   0  0  0  0  0  0  0  0  0  0  0  0
   29.9220   35.1020   17.2560 O   0  0  0  0  0  0  0  0  0  0  0  0
   30.3440   35.4600   18.0880 H   0  0  0  0  0  0  0  0  0  0  0  0
   31.4320   35.2390   14.0330 N   0  0  0  0  0  0  0  0  0  0  0  0
   31.5160   36.3070   13.1040 C   0  0  0  0  0  0  0  0  0  0  0  0
   32.1970   34.5030   14.0410 H   0  0  0  0  0  0  0  0  0  0  0  0
   32.6690   36.3700   12.1690 C   0  0  0  0  0  0  0  0  0  0  0  0
   30.6190   37.1890   13.0790 O   0  0  0  0  0  0  0  0  0  0  0  0
   27.6640   35.1330   16.0080 O   0  0  0  0  0  0  0  0  0  0  0  0
   28.4060   35.5810   16.4380 H   0  0  0  0  0  0  0  0  0  0  0  0
   26.0630   34.8550   13.1440 O   0  0  0  0  0  0  0  0  0  0  0  0
   25.1190   34.8500   13.3830 H   0  0  0  0  0  0  0  0  0  0  0  0
   26.2870   32.4290   15.7710 N   0  0  0  0  0  0  0  0  0  0  0  0
   25.6930   31.1940   15.4090 C   0  0  0  0  0  0  0  0  0  0  0  0
   27.0620   32.4740   16.4620 H   0  0  0  0  0  0  0  0  0  0  0  0
   24.7580   31.1870   14.5690 O   0  0  0  0  0  0  0  0  0  0  0  0
   26.1020   29.9840   15.9460 O   0  0  0  0  0  0  0  0  0  0  0  0
   25.7120   29.6720   17.2660 C   0  0  0  0  0  0  0  0  0  0  0  0
   26.8500   29.9260   18.1870 C   0  0  0  0  0  0  0  0  0  0  0  0
   27.7090   28.9810   18.7200 C   0  0  0  0  0  0  0  0  0  0  0  0
   27.2770   31.1010   18.6850 N   0  0  0  0  0  0  0  0  0  0  0  0
   28.6180   29.5950   19.5130 N   0  0  0  0  0  0  0  0  0  0  0  0
   28.3230   30.8840   19.4680 N   0  0  0  0  0  0  0  0  0  0  0  0
   29.6700   28.9760   20.2440 C   0  0  0  0  0  0  0  0  0  0  0  0
   29.4930   27.6950   20.7210 C   0  0  0  0  0  0  0  0  0  0  0  0
   30.8750   29.5930   20.5060 C   0  0  0  0  0  0  0  0  0  0  0  0
   30.4870   27.0500   21.4370 C   0  0  0  0  0  0  0  0  0  0  0  0
   31.8860   28.9810   21.2160 C   0  0  0  0  0  0  0  0  0  0  0  0
   31.6770   27.6980   21.6800 C   0  0  0  0  0  0  0  0  0  0  0  0
   33.4180   29.8090   21.5310 Cl  0  0  0  0  0  0  0  0  0  0  0  0
   29.8670   25.5550   16.9770 C   0  0  0  0  0  0  0  0  0  0  0  0
   28.3450   25.7220   17.0260 C   0  0  0  0  0  0  0  0  0  0  0  0
   27.6010   24.4030   16.8870 C   0  0  0  0  0  0  0  0  0  0  0  0
   26.5020   24.2630   17.9040 C   0  0  0  0  0  0  0  0  0  0  0  0
   25.1840   24.7310   17.2960 C   0  0  0  0  0  0  0  0  0  0  0  0
   24.3240   23.5710   16.9640 N   0  0  0  0  0  0  0  0  0  0  0  0
  1 27  1  0  0  0  0
  2  3  1  0  0  0  0
  2  1  1  1  0  0  0
  3 23  1  1  0  0  0
  4  3  1  1  0  0  0
  4  7  1  0  0  0  0
  4  9  1  0  0  0  0
  5 12  1  1  0  0  0
  5  6  1  0  0  0  0
  5 10  1  0  0  0  0
  6  8  1  0  0  0  0
  7  5  1  0  0  0  0
  8 16  1  1  0  0  0
  9 18  1  6  0  0  0
  9  8  1  0  0  0  0
 10 11  1  0  0  0  0
 12 13  2  0  0  0  0
 14 15  1  0  0  0  0
 14 12  1  0  0  0  0
 16 17  1  0  0  0  0
 18 20  1  0  0  0  0
 19 18  1  0  0  0  0
 21 19  1  0  0  0  0
 22 19  2  0  0  0  0
 23 24  1  0  0  0  0
 25 26  1  0  0  0  0
 25  2  1  0  0  0  0
 27 29  1  0  0  0  0
 28 27  1  0  0  0  0
 28 31  1  0  0  0  0
 30 28  2  0  0  0  0
 31 32  1  0  0  0  0
 32 33  1  0  0  0  0
 33 35  1  0  0  0  0
 33 34  2  0  0  0  0
 34 36  1  0  0  0  0
 35 37  2  0  0  0  0
 36 38  1  0  0  0  0
 37 36  1  0  0  0  0
 38 40  2  0  0  0  0
 38 39  1  0  0  0  0
 39 41  2  0  0  0  0
 40 42  1  0  0  0  0
 41 43  1  0  0  0  0
 42 44  1  0  0  0  0
 42 43  2  0  0  0  0
 45 46  1  0  0  0  0
 47 46  1  0  0  0  0
 47 48  1  0  0  0  0
 49 48  1  0  0  0  0
 50 49  1  0  0  0  0
M  END
>  <REMARK>
 VINA RESULT:    -5.758      3.261      7.555
 INTER + INTRA:         -14.463
 INTER:                  -7.605
 INTRA:                  -6.858
 UNBOUND:                -4.497
 SMILES CC(=O)N[C@@H]1[C@@H](O)C[C@](O)(C(=O)O)O[C@H]1C(O)[C@H](O)CNC(=O)OCc1cn(-c2cccc(Cl)c2)nn1
 SMILES IDX 20 1 18 2 16 3 15 4 9 5 8 6 14 7 6 8 5 9 10 10 11 12 12 13
 SMILES IDX 13 14 7 16 4 18 2 19 1 21 3 22 17 23 19 25 21 27 22 28 23 30
 SMILES IDX 24 31 25 32 26 33 27 34 37 35 28 36 36 37 29 38 30 39 35 40
 SMILES IDX 31 41 33 42 32 43 34 44
 H PARENT 10 11 13 15 7 17 4 20 17 24 19 26 21 29
 Flexibility Score: inf
  4 active torsions:
  status: ('A' for Active; 'I' for Inactive)
    1  A    between atoms: CA   and  CB  
    2  A    between atoms: CB   and  CG  
    3  A    between atoms: CG   and  CD  
    4  A    between atoms: CD   and  CE  

>  <TORSDO>
F 15

>  <BEGIN_>
RES LYS A 131

$$$$
ligand_27_pose_4_2HRL.pdbqt
 OpenBabel07062320523D

  6  5  0  0  0  0  0  0  0  0999 V2000
   33.1930   34.6630    9.2900 C   0  0  0  0  0  0  0  0  0  0  0  0
   32.0600   35.3600   10.0340 C   0  0  0  0  0  0  0  0  0  0  0  0
   30.7090   34.7380    9.7930 C   0  0  0  0  0  0  0  0  0  0  0  0
   30.4670   34.5410    8.3040 C   0  0  0  0  0  0  0  0  0  0  0  0
   29.0220   34.8410    7.9550 C   0  0  0  0  0  0  0  0  0  0  0  0
   28.9200   35.5330    6.6410 N   0  0  0  0  0  0  0  0  0  0  0  0
  1  2  1  0  0  0  0
  3  2  1  0  0  0  0
  4  3  1  0  0  0  0
  5  4  1  0  0  0  0
  6  5  1  0  0  0  0
M  END
>  <EGIN_R>
ES LYS A 135

>  <REMARK>
  4 active torsions:
  status: ('A' for Active; 'I' for Inactive)
    5  A    between atoms: CA   and  CB  
    6  A    between atoms: CB   and  CG  
    7  A    between atoms: CG   and  CD  
    8  A    between atoms: CD   and  CE  

$$$$
