ligand_16_pose_7_2HRL.pdbqt
 OpenBabel07062320523D

 54 55  0  0  1  0  0  0  0  0999 V2000
   25.6710   28.6450   18.3300 N   0  0  0  0  0  0  0  0  0  0  0  0
   25.0770   29.8950   18.0930 C   0  0  0  0  0  0  0  0  0  0  0  0
   24.7040   30.5950   19.0490 O   0  0  0  0  0  0  0  0  0  0  0  0
   25.9580   28.1060   17.4560 H   0  0  0  0  0  0  0  0  0  0  0  0
   25.8950   28.0960   19.6410 C   0  0  0  0  0  0  0  0  0  0  0  0
   27.3690   27.8680   19.8470 C   0  0  2  0  0  0  0  0  0  0  0  0
   28.1610   29.1240   20.0290 C   0  0  1  0  0  0  0  0  0  0  0  0
   29.3800   28.8590   20.9320 C   0  0  2  0  0  0  0  0  0  0  0  0
   31.4060   27.7480   20.8460 C   0  0  2  0  0  0  0  0  0  0  0  0
   30.9760   26.6570   21.8160 C   0  0  0  0  0  0  0  0  0  0  0  0
   30.2780   28.1430   20.1690 O   0  0  0  0  0  0  0  0  0  0  0  0
   29.9190   27.1700   22.7390 C   0  0  1  0  0  0  0  0  0  0  0  0
   28.8890   28.0370   22.0680 C   0  0  1  0  0  0  0  0  0  0  0  0
   32.2350   27.0640   19.9100 O   0  0  0  0  0  0  0  0  0  0  0  0
   31.7120   26.2750   19.5640 H   0  0  0  0  0  0  0  0  0  0  0  0
   32.1730   28.8050   21.5100 C   0  0  0  0  0  0  0  0  0  0  0  0
   32.8560   28.5110   22.5500 O   0  0  0  0  0  0  0  0  0  0  0  0
   32.2470   30.1300   21.1320 O   0  0  0  0  0  0  0  0  0  0  0  0
   32.9960   30.6810   21.5280 H   0  0  0  0  0  0  0  0  0  0  0  0
   29.2360   26.0370   23.2430 O   0  0  0  0  0  0  0  0  0  0  0  0
   29.7240   25.2530   22.8930 H   0  0  0  0  0  0  0  0  0  0  0  0
   28.1820   28.8050   23.0710 N   0  0  0  0  0  0  0  0  0  0  0  0
   26.9270   28.3960   23.5860 C   0  0  0  0  0  0  0  0  0  0  0  0
   28.5820   29.6910   23.4480 H   0  0  0  0  0  0  0  0  0  0  0  0
   26.2090   29.2120   24.6310 C   0  0  0  0  0  0  0  0  0  0  0  0
   26.4210   27.3410   23.1590 O   0  0  0  0  0  0  0  0  0  0  0  0
   28.5220   29.7560   18.8640 O   0  0  0  0  0  0  0  0  0  0  0  0
   29.3810   29.3880   18.5310 H   0  0  0  0  0  0  0  0  0  0  0  0
   27.9340   27.0950   18.8240 O   0  0  0  0  0  0  0  0  0  0  0  0
   28.6640   27.6190   18.3870 H   0  0  0  0  0  0  0  0  0  0  0  0
   24.8730   30.4150   16.8220 O   0  0  0  0  0  0  0  0  0  0  0  0
   25.5780   31.5150   16.3000 C   0  0  0  0  0  0  0  0  0  0  0  0
   26.9900   31.1430   16.0680 C   0  0  0  0  0  0  0  0  0  0  0  0
   28.0380   32.0390   15.8550 C   0  0  0  0  0  0  0  0  0  0  0  0
   27.5690   29.9280   16.0040 N   0  0  0  0  0  0  0  0  0  0  0  0
   29.1690   31.3470   15.6770 N   0  0  0  0  0  0  0  0  0  0  0  0
   28.8610   30.0760   15.7720 N   0  0  0  0  0  0  0  0  0  0  0  0
   30.5030   31.9070   15.4130 C   0  0  0  0  0  0  0  0  0  0  0  0
   30.8750   32.6500   16.6600 C   0  0  0  0  0  0  0  0  0  0  0  0
   31.5040   33.8590   16.5590 C   0  0  0  0  0  0  0  0  0  0  0  0
   30.6030   32.1460   17.9070 C   0  0  0  0  0  0  0  0  0  0  0  0
   31.8670   34.5750   17.7040 C   0  0  0  0  0  0  0  0  0  0  0  0
   30.9640   32.8570   19.0470 C   0  0  0  0  0  0  0  0  0  0  0  0
   31.6000   34.0790   18.9570 C   0  0  0  0  0  0  0  0  0  0  0  0
   31.9720   34.8160   20.1570 C   0  0  0  0  0  0  0  0  0  0  0  0
   31.9260   34.3200   21.3040 O   0  0  0  0  0  0  0  0  0  0  0  0
   32.3990   36.1340   20.0390 O   0  0  0  0  0  0  0  0  0  0  0  0
   32.1840   36.6840   19.2250 H   0  0  0  0  0  0  0  0  0  0  0  0
   29.8670   25.5550   16.9770 C   0  0  0  0  0  0  0  0  0  0  0  0
   28.3450   25.7220   17.0260 C   0  0  0  0  0  0  0  0  0  0  0  0
   27.5990   24.4720   16.5860 C   0  0  0  0  0  0  0  0  0  0  0  0
   27.0660   23.6900   17.7550 C   0  0  0  0  0  0  0  0  0  0  0  0
   25.6180   24.0890   18.0170 C   0  0  0  0  0  0  0  0  0  0  0  0
   25.4550   24.5640   19.4120 N   0  0  0  0  0  0  0  0  0  0  0  0
  1  5  1  0  0  0  0
  2  1  1  0  0  0  0
  2  3  2  0  0  0  0
  4  1  1  0  0  0  0
  6  5  1  6  0  0  0
  6  7  1  0  0  0  0
  7 27  1  6  0  0  0
  8  7  1  6  0  0  0
  8 13  1  0  0  0  0
  9 14  1  6  0  0  0
  9 16  1  0  0  0  0
  9 10  1  0  0  0  0
 10 12  1  0  0  0  0
 11  9  1  0  0  0  0
 11  8  1  0  0  0  0
 12 20  1  6  0  0  0
 13 12  1  0  0  0  0
 13 22  1  1  0  0  0
 15 14  1  0  0  0  0
 16 17  2  0  0  0  0
 18 16  1  0  0  0  0
 18 19  1  0  0  0  0
 21 20  1  0  0  0  0
 22 24  1  0  0  0  0
 22 23  1  0  0  0  0
 23 25  1  0  0  0  0
 26 23  2  0  0  0  0
 28 27  1  0  0  0  0
 29  6  1  0  0  0  0
 30 29  1  0  0  0  0
 31  2  1  0  0  0  0
 32 31  1  0  0  0  0
 33 32  1  0  0  0  0
 34 33  2  0  0  0  0
 35 33  1  0  0  0  0
 36 37  1  0  0  0  0
 36 34  1  0  0  0  0
 37 35  2  0  0  0  0
 38 36  1  0  0  0  0
 38 39  1  0  0  0  0
 39 41  1  0  0  0  0
 40 39  2  0  0  0  0
 40 42  1  0  0  0  0
 41 43  2  0  0  0  0
 42 44  2  0  0  0  0
 44 43  1  0  0  0  0
 44 45  1  0  0  0  0
 45 46  2  0  0  0  0
 47 45  1  0  0  0  0
 48 47  1  0  0  0  0
 49 50  1  0  0  0  0
 51 50  1  0  0  0  0
 51 52  1  0  0  0  0
 52 53  1  0  0  0  0
 53 54  1  0  0  0  0
M  END
>  <REMARK>
 VINA RESULT:    -6.003      1.920      2.504
 INTER + INTRA:         -15.260
 INTER:                  -9.210
 INTRA:                  -6.050
 UNBOUND:                -3.993
 SMILES CC(=O)N[C@@H]1[C@@H](O)C[C@](O)(C(=O)O)O[C@H]1C(O)[C@H](O)CNC(=O)OCc1cn(Cc2ccc(C(=O)O)cc2)nn1
 SMILES IDX 21 1 22 2 23 3 20 5 18 6 16 7 15 8 9 9 8 10 14 11 6 12 5 13
 SMILES IDX 10 14 11 16 12 17 13 18 7 20 4 22 2 23 1 25 3 26 17 27 19 29
 SMILES IDX 24 31 25 32 26 33 27 34 40 35 28 36 39 37 29 38 30 39 31 40
 SMILES IDX 38 41 32 42 37 43 33 44 34 45 35 46 36 47
 H PARENT 21 4 10 15 13 19 7 21 4 24 17 28 19 30 36 48
 Flexibility Score: inf
  4 active torsions:
  status: ('A' for Active; 'I' for Inactive)
    1  A    between atoms: CA   and  CB  
    2  A    between atoms: CB   and  CG  
    3  A    between atoms: CG   and  CD  
    4  A    between atoms: CD   and  CE  

>  <TORSDO>
F 18

>  <BEGIN_>
RES LYS A 131

$$$$
ligand_16_pose_7_2HRL.pdbqt
 OpenBabel07062320523D

  6  5  0  0  0  0  0  0  0  0999 V2000
   33.1930   34.6630    9.2900 C   0  0  0  0  0  0  0  0  0  0  0  0
   32.0600   35.3600   10.0340 C   0  0  0  0  0  0  0  0  0  0  0  0
   30.7950   35.4850    9.2250 C   0  0  0  0  0  0  0  0  0  0  0  0
   30.0200   34.1760    9.2340 C   0  0  0  0  0  0  0  0  0  0  0  0
   28.6030   34.3920    8.7400 C   0  0  0  0  0  0  0  0  0  0  0  0
   27.6220   33.6540    9.5840 N   0  0  0  0  0  0  0  0  0  0  0  0
  1  2  1  0  0  0  0
  3  4  1  0  0  0  0
  3  2  1  0  0  0  0
  5  4  1  0  0  0  0
  5  6  1  0  0  0  0
M  END
>  <EGIN_R>
ES LYS A 135

>  <REMARK>
  4 active torsions:
  status: ('A' for Active; 'I' for Inactive)
    5  A    between atoms: CA   and  CB  
    6  A    between atoms: CB   and  CG  
    7  A    between atoms: CG   and  CD  
    8  A    between atoms: CD   and  CE  

$$$$
