ligand_93_pose_14_2HRL.pdbqt
 OpenBabel07062320523D

 50 51  0  0  1  0  0  0  0  0999 V2000
   27.1750   35.3450   16.5850 C   0  0  0  0  0  0  0  0  0  0  0  0
   27.4710   34.7470   15.2280 C   0  0  2  0  0  0  0  0  0  0  0  0
   28.7570   34.0000   15.2480 C   0  0  1  0  0  0  0  0  0  0  0  0
   29.9720   34.7910   15.6570 C   0  0  2  0  0  0  0  0  0  0  0  0
   31.5020   35.0160   13.8780 C   0  0  2  0  0  0  0  0  0  0  0  0
   32.6200   34.4570   14.7330 C   0  0  0  0  0  0  0  0  0  0  0  0
   30.4190   35.4450   14.5580 O   0  0  0  0  0  0  0  0  0  0  0  0
   32.0070   33.4150   15.6330 C   0  0  1  0  0  0  0  0  0  0  0  0
   30.9700   34.0940   16.4920 C   0  0  1  0  0  0  0  0  0  0  0  0
   31.1140   33.9740   13.0360 O   0  0  0  0  0  0  0  0  0  0  0  0
   30.1880   34.1960   12.7180 H   0  0  0  0  0  0  0  0  0  0  0  0
   32.1090   36.0780   13.0160 C   0  0  0  0  0  0  0  0  0  0  0  0
   31.7670   37.2800   13.0680 O   0  0  0  0  0  0  0  0  0  0  0  0
   33.0900   35.7100   12.1200 O   0  0  0  0  0  0  0  0  0  0  0  0
   33.0550   34.8410   11.5830 H   0  0  0  0  0  0  0  0  0  0  0  0
   31.4630   32.4360   14.7990 O   0  0  0  0  0  0  0  0  0  0  0  0
   30.7750   32.8020   14.1910 H   0  0  0  0  0  0  0  0  0  0  0  0
   31.6960   35.0670   17.3280 N   0  0  0  0  0  0  0  0  0  0  0  0
   32.0230   34.7950   18.6790 C   0  0  0  0  0  0  0  0  0  0  0  0
   31.9810   35.9830   16.9290 H   0  0  0  0  0  0  0  0  0  0  0  0
   32.7540   35.8240   19.4530 C   0  0  0  0  0  0  0  0  0  0  0  0
   31.7010   33.6980   19.2240 O   0  0  0  0  0  0  0  0  0  0  0  0
   28.6530   32.7620   15.8680 O   0  0  0  0  0  0  0  0  0  0  0  0
   27.7040   32.4630   15.9360 H   0  0  0  0  0  0  0  0  0  0  0  0
   27.5290   35.8510   14.3380 O   0  0  0  0  0  0  0  0  0  0  0  0
   27.8820   35.5410   13.4600 H   0  0  0  0  0  0  0  0  0  0  0  0
   26.8900   34.3630   17.6060 N   0  0  0  0  0  0  0  0  0  0  0  0
   27.6580   34.3790   18.8130 C   0  0  0  0  0  0  0  0  0  0  0  0
   26.1330   33.6780   17.4390 H   0  0  0  0  0  0  0  0  0  0  0  0
   28.5460   35.2400   18.9370 O   0  0  0  0  0  0  0  0  0  0  0  0
   27.3640   33.4270   19.7750 O   0  0  0  0  0  0  0  0  0  0  0  0
   27.1120   32.1070   19.3680 C   0  0  0  0  0  0  0  0  0  0  0  0
   28.3850   31.3500   19.4450 C   0  0  0  0  0  0  0  0  0  0  0  0
   28.7150   30.4740   20.4860 C   0  0  0  0  0  0  0  0  0  0  0  0
   29.4280   31.3300   18.6070 N   0  0  0  0  0  0  0  0  0  0  0  0
   29.9290   30.0040   20.1830 N   0  0  0  0  0  0  0  0  0  0  0  0
   30.3690   30.5140   19.0500 N   0  0  0  0  0  0  0  0  0  0  0  0
   30.6560   29.0770   20.9700 C   0  0  0  0  0  0  0  0  0  0  0  0
   30.4410   27.7130   20.7740 C   0  0  0  0  0  0  0  0  0  0  0  0
   31.5490   29.5370   21.8980 C   0  0  0  0  0  0  0  0  0  0  0  0
   31.1450   26.8040   21.5350 C   0  0  0  0  0  0  0  0  0  0  0  0
   32.2440   28.6090   22.6510 C   0  0  0  0  0  0  0  0  0  0  0  0
   31.9060   31.5860   22.2290 I   0  0  0  0  0  0  0  0  0  0  0  0
   32.0480   27.2510   22.4750 C   0  0  0  0  0  0  0  0  0  0  0  0
   29.8670   25.5550   16.9770 C   0  0  0  0  0  0  0  0  0  0  0  0
   28.3450   25.7220   17.0260 C   0  0  0  0  0  0  0  0  0  0  0  0
   27.6010   24.4020   16.8930 C   0  0  0  0  0  0  0  0  0  0  0  0
   26.5000   24.2670   17.9080 C   0  0  0  0  0  0  0  0  0  0  0  0
   26.3830   25.5620   18.7060 C   0  0  0  0  0  0  0  0  0  0  0  0
   25.6280   25.3310   19.9610 N   0  0  0  0  0  0  0  0  0  0  0  0
  1 27  1  0  0  0  0
  2  3  1  0  0  0  0
  2  1  1  1  0  0  0
  3 23  1  1  0  0  0
  4  3  1  6  0  0  0
  4  9  1  0  0  0  0
  5 12  1  6  0  0  0
  5  7  1  0  0  0  0
  5  6  1  0  0  0  0
  6  8  1  0  0  0  0
  7  4  1  0  0  0  0
  8 16  1  6  0  0  0
  8  9  1  0  0  0  0
  9 18  1  1  0  0  0
 10  5  1  0  0  0  0
 11 10  1  0  0  0  0
 12 13  2  0  0  0  0
 14 12  1  0  0  0  0
 15 14  1  0  0  0  0
 17 16  1  0  0  0  0
 18 19  1  0  0  0  0
 19 22  2  0  0  0  0
 19 21  1  0  0  0  0
 20 18  1  0  0  0  0
 23 24  1  0  0  0  0
 25  2  1  0  0  0  0
 26 25  1  0  0  0  0
 27 28  1  0  0  0  0
 28 30  2  0  0  0  0
 28 31  1  0  0  0  0
 29 27  1  0  0  0  0
 32 33  1  0  0  0  0
 32 31  1  0  0  0  0
 33 34  2  0  0  0  0
 35 37  2  0  0  0  0
 35 33  1  0  0  0  0
 36 34  1  0  0  0  0
 36 38  1  0  0  0  0
 37 36  1  0  0  0  0
 38 40  1  0  0  0  0
 39 38  2  0  0  0  0
 39 41  1  0  0  0  0
 40 43  1  0  0  0  0
 40 42  2  0  0  0  0
 41 44  2  0  0  0  0
 44 42  1  0  0  0  0
 45 46  1  0  0  0  0
 47 46  1  0  0  0  0
 47 48  1  0  0  0  0
 48 49  1  0  0  0  0
 49 50  1  0  0  0  0
M  END
>  <REMARK>
 VINA RESULT:    -4.221      3.938      7.216
 INTER + INTRA:         -13.591
 INTER:                  -7.721
 INTRA:                  -5.871
 UNBOUND:                -6.285
 SMILES CC(=O)N[C@@H]1[C@@H](O)C[C@](O)(C(=O)O)O[C@H]1C(O)[C@H](O)CNC(=O)OCc1cn(-c2ccccc2I)nn1
 SMILES IDX 20 1 18 2 16 3 15 4 9 5 8 6 14 7 6 8 5 9 10 10 11 12 12 13
 SMILES IDX 13 14 7 16 4 18 2 19 1 21 3 22 17 23 19 25 21 27 22 28 23 30
 SMILES IDX 24 31 25 32 26 33 27 34 37 35 28 36 36 37 29 38 30 39 34 40
 SMILES IDX 31 41 33 42 35 43 32 44
 H PARENT 10 11 13 15 7 17 4 20 17 24 19 26 21 29
 Flexibility Score: inf
  4 active torsions:
  status: ('A' for Active; 'I' for Inactive)
    1  A    between atoms: CA   and  CB  
    2  A    between atoms: CB   and  CG  
    3  A    between atoms: CG   and  CD  
    4  A    between atoms: CD   and  CE  

>  <TORSDO>
F 15

>  <BEGIN_>
RES LYS A 131

$$$$
ligand_93_pose_14_2HRL.pdbqt
 OpenBabel07062320523D

  6  5  0  0  0  0  0  0  0  0999 V2000
   33.1930   34.6630    9.2900 C   0  0  0  0  0  0  0  0  0  0  0  0
   32.0600   35.3600   10.0340 C   0  0  0  0  0  0  0  0  0  0  0  0
   30.7880   35.4640    9.2330 C   0  0  0  0  0  0  0  0  0  0  0  0
   30.2240   34.0830    8.9390 C   0  0  0  0  0  0  0  0  0  0  0  0
   28.7120   34.0890    9.0530 C   0  0  0  0  0  0  0  0  0  0  0  0
   28.0970   34.9310    7.9890 N   0  0  0  0  0  0  0  0  0  0  0  0
  1  2  1  0  0  0  0
  3  2  1  0  0  0  0
  4  5  1  0  0  0  0
  4  3  1  0  0  0  0
  6  5  1  0  0  0  0
M  END
>  <EGIN_R>
ES LYS A 135

>  <REMARK>
  4 active torsions:
  status: ('A' for Active; 'I' for Inactive)
    5  A    between atoms: CA   and  CB  
    6  A    between atoms: CB   and  CG  
    7  A    between atoms: CG   and  CD  
    8  A    between atoms: CD   and  CE  

$$$$
