ligand_85_pose_14_2HRL.pdbqt
 OpenBabel07062320523D

 55 56  0  0  1  0  0  0  0  0999 V2000
   25.1590   29.5230   17.7870 N   0  0  0  0  0  0  0  0  0  0  0  0
   24.5580   29.6300   16.5240 C   0  0  0  0  0  0  0  0  0  0  0  0
   24.0140   28.6380   15.9990 O   0  0  0  0  0  0  0  0  0  0  0  0
   25.6090   30.3620   18.2190 H   0  0  0  0  0  0  0  0  0  0  0  0
   25.1850   28.2910   18.5300 C   0  0  0  0  0  0  0  0  0  0  0  0
   26.5920   27.9960   18.9830 C   0  0  2  0  0  0  0  0  0  0  0  0
   27.1680   29.0950   19.8400 C   0  0  2  0  0  0  0  0  0  0  0  0
   28.1630   28.5550   20.7950 C   0  0  2  0  0  0  0  0  0  0  0  0
   30.2740   27.7290   21.1450 C   0  0  2  0  0  0  0  0  0  0  0  0
   29.8740   27.9860   22.5760 C   0  0  0  0  0  0  0  0  0  0  0  0
   29.2750   27.9520   20.2310 O   0  0  0  0  0  0  0  0  0  0  0  0
   28.5290   27.4390   22.9220 C   0  0  1  0  0  0  0  0  0  0  0  0
   27.5560   27.5280   21.7510 C   0  0  1  0  0  0  0  0  0  0  0  0
   30.6120   26.3680   21.0390 O   0  0  0  0  0  0  0  0  0  0  0  0
   29.7740   25.9110   20.7240 H   0  0  0  0  0  0  0  0  0  0  0  0
   31.4400   28.5310   20.7600 C   0  0  0  0  0  0  0  0  0  0  0  0
   31.6750   29.6110   21.3530 O   0  0  0  0  0  0  0  0  0  0  0  0
   32.3300   28.1750   19.7580 O   0  0  0  0  0  0  0  0  0  0  0  0
   32.0520   28.4060   18.7910 H   0  0  0  0  0  0  0  0  0  0  0  0
   28.6880   26.0990   23.3300 O   0  0  0  0  0  0  0  0  0  0  0  0
   29.5860   26.0560   23.7550 H   0  0  0  0  0  0  0  0  0  0  0  0
   26.2400   27.8830   22.1610 N   0  0  0  0  0  0  0  0  0  0  0  0
   25.2130   26.9070   22.1990 C   0  0  0  0  0  0  0  0  0  0  0  0
   26.0040   28.8540   22.4410 H   0  0  0  0  0  0  0  0  0  0  0  0
   23.8410   27.3310   22.6410 C   0  0  0  0  0  0  0  0  0  0  0  0
   25.3750   25.7140   21.8890 O   0  0  0  0  0  0  0  0  0  0  0  0
   26.1540   29.8390   20.3870 O   0  0  0  0  0  0  0  0  0  0  0  0
   25.3340   29.6880   19.8180 H   0  0  0  0  0  0  0  0  0  0  0  0
   27.4460   27.9090   17.8390 O   0  0  0  0  0  0  0  0  0  0  0  0
   27.7380   28.7970   17.5520 H   0  0  0  0  0  0  0  0  0  0  0  0
   24.5270   30.8110   15.7890 O   0  0  0  0  0  0  0  0  0  0  0  0
   25.6420   31.1660   14.9950 C   0  0  0  0  0  0  0  0  0  0  0  0
   26.8870   31.1110   15.7750 C   0  0  0  0  0  0  0  0  0  0  0  0
   27.4350   32.0420   16.6310 C   0  0  0  0  0  0  0  0  0  0  0  0
   27.7470   30.0780   15.7790 N   0  0  0  0  0  0  0  0  0  0  0  0
   28.6040   31.5580   17.1310 N   0  0  0  0  0  0  0  0  0  0  0  0
   28.7510   30.3730   16.5900 N   0  0  0  0  0  0  0  0  0  0  0  0
   29.4910   32.1870   18.0460 C   0  0  0  0  0  0  0  0  0  0  0  0
   29.2970   32.0700   19.4150 C   0  0  0  0  0  0  0  0  0  0  0  0
   30.5500   32.9180   17.5610 C   0  0  0  0  0  0  0  0  0  0  0  0
   30.1420   32.6690   20.3150 C   0  0  0  0  0  0  0  0  0  0  0  0
   31.4230   33.5350   18.4410 C   0  0  0  0  0  0  0  0  0  0  0  0
   29.9060   32.5290   22.0550 Cl  0  0  0  0  0  0  0  0  0  0  0  0
   31.1990   33.3990   19.8110 C   0  0  0  0  0  0  0  0  0  0  0  0
   30.7390   33.0290   16.1340 C   0  0  0  0  0  0  0  0  0  0  0  0
   31.3980   32.1900   15.4570 O   0  0  0  0  0  0  0  0  0  0  0  0
   30.1730   34.1190   15.4330 N   0  0  0  0  0  0  0  0  0  0  0  0
   29.4120   35.1010   16.1640 C   0  0  0  0  0  0  0  0  0  0  0  0
   30.3310   34.2810   13.9950 C   0  0  0  0  0  0  0  0  0  0  0  0
   29.8670   25.5550   16.9770 C   0  0  0  0  0  0  0  0  0  0  0  0
   28.3450   25.7220   17.0260 C   0  0  0  0  0  0  0  0  0  0  0  0
   27.6020   24.3980   16.9340 C   0  0  0  0  0  0  0  0  0  0  0  0
   26.1490   24.5370   17.2960 C   0  0  0  0  0  0  0  0  0  0  0  0
   25.6060   23.1860   17.7510 C   0  0  0  0  0  0  0  0  0  0  0  0
   25.4780   23.1490   19.2270 N   0  0  0  0  0  0  0  0  0  0  0  0
  1  4  1  0  0  0  0
  1  5  1  0  0  0  0
  2  1  1  0  0  0  0
  3  2  2  0  0  0  0
  6  5  1  6  0  0  0
  6  7  1  0  0  0  0
  7 27  1  1  0  0  0
  8  7  1  6  0  0  0
  8 13  1  0  0  0  0
  9 16  1  6  0  0  0
  9 10  1  0  0  0  0
 10 12  1  0  0  0  0
 11  8  1  0  0  0  0
 11  9  1  0  0  0  0
 12 20  1  6  0  0  0
 13 22  1  1  0  0  0
 13 12  1  0  0  0  0
 14  9  1  0  0  0  0
 15 14  1  0  0  0  0
 16 17  2  0  0  0  0
 18 16  1  0  0  0  0
 19 18  1  0  0  0  0
 20 21  1  0  0  0  0
 22 23  1  0  0  0  0
 22 24  1  0  0  0  0
 23 25  1  0  0  0  0
 26 23  2  0  0  0  0
 28 27  1  0  0  0  0
 29  6  1  0  0  0  0
 30 29  1  0  0  0  0
 31  2  1  0  0  0  0
 32 33  1  0  0  0  0
 32 31  1  0  0  0  0
 33 35  1  0  0  0  0
 33 34  2  0  0  0  0
 34 36  1  0  0  0  0
 35 37  2  0  0  0  0
 36 38  1  0  0  0  0
 37 36  1  0  0  0  0
 38 39  1  0  0  0  0
 39 41  2  0  0  0  0
 40 38  2  0  0  0  0
 40 42  1  0  0  0  0
 41 43  1  0  0  0  0
 42 44  2  0  0  0  0
 44 41  1  0  0  0  0
 45 40  1  0  0  0  0
 46 45  2  0  0  0  0
 47 45  1  0  0  0  0
 47 48  1  0  0  0  0
 49 47  1  0  0  0  0
 50 51  1  0  0  0  0
 52 51  1  0  0  0  0
 52 53  1  0  0  0  0
 53 54  1  0  0  0  0
 54 55  1  0  0  0  0
M  END
>  <REMARK>
 VINA RESULT:    -4.743      6.360     11.661
 INTER + INTRA:         -14.673
 INTER:                  -8.368
 INTRA:                  -6.306
 UNBOUND:                -6.187
 SMILES CC(=O)N[C@@H]1[C@@H](O)C[C@](O)(C(=O)O)O[C@H]1C(O)[C@H](O)CNC(=O)OCc1cn(-c2cc(Cl)ccc2C(=O)N(C)C)nn1
 SMILES IDX 21 1 22 2 23 3 20 5 18 6 16 7 15 8 9 9 8 10 14 11 6 12 5 13
 SMILES IDX 10 14 11 16 12 17 13 18 7 20 4 22 2 23 1 25 3 26 17 27 19 29
 SMILES IDX 24 31 25 32 26 33 27 34 42 35 28 36 41 37 29 38 30 39 35 40
 SMILES IDX 31 41 34 42 32 43 33 44 36 45 37 46 38 47 39 48 40 49
 H PARENT 21 4 10 15 13 19 7 21 4 24 17 28 19 30
 Flexibility Score: inf
  4 active torsions:
  status: ('A' for Active; 'I' for Inactive)
    1  A    between atoms: CA   and  CB  
    2  A    between atoms: CB   and  CG  
    3  A    between atoms: CG   and  CD  
    4  A    between atoms: CD   and  CE  

>  <TORSDO>
F 16

>  <BEGIN_>
RES LYS A 131

$$$$
ligand_85_pose_14_2HRL.pdbqt
 OpenBabel07062320523D

  6  5  0  0  0  0  0  0  0  0999 V2000
   33.1930   34.6630    9.2900 C   0  0  0  0  0  0  0  0  0  0  0  0
   32.0600   35.3600   10.0340 C   0  0  0  0  0  0  0  0  0  0  0  0
   30.8000   35.4990    9.2190 C   0  0  0  0  0  0  0  0  0  0  0  0
   30.1050   34.1540    9.0730 C   0  0  0  0  0  0  0  0  0  0  0  0
   28.6530   34.3450    8.6790 C   0  0  0  0  0  0  0  0  0  0  0  0
   27.7410   33.6680    9.6420 N   0  0  0  0  0  0  0  0  0  0  0  0
  1  2  1  0  0  0  0
  3  2  1  0  0  0  0
  4  3  1  0  0  0  0
  5  4  1  0  0  0  0
  5  6  1  0  0  0  0
M  END
>  <EGIN_R>
ES LYS A 135

>  <REMARK>
  4 active torsions:
  status: ('A' for Active; 'I' for Inactive)
    5  A    between atoms: CA   and  CB  
    6  A    between atoms: CB   and  CG  
    7  A    between atoms: CG   and  CD  
    8  A    between atoms: CD   and  CE  

$$$$
