ligand_46_pose_5_2HRL.pdbqt
 OpenBabel07062320523D

 50 51  0  0  1  0  0  0  0  0999 V2000
   29.1390   31.6520   18.0870 N   0  0  0  0  0  0  0  0  0  0  0  0
   27.9400   32.1340   18.6490 C   0  0  0  0  0  0  0  0  0  0  0  0
   27.6500   33.3410   18.6600 O   0  0  0  0  0  0  0  0  0  0  0  0
   29.2730   30.6080   18.1320 H   0  0  0  0  0  0  0  0  0  0  0  0
   30.1230   32.5020   17.4900 C   0  0  0  0  0  0  0  0  0  0  0  0
   30.4410   32.0150   16.0950 C   0  0  2  0  0  0  0  0  0  0  0  0
   29.6120   32.7230   15.0620 C   0  0  2  0  0  0  0  0  0  0  0  0
   30.4170   33.6310   14.1630 C   0  0  2  0  0  0  0  0  0  0  0  0
   32.2560   35.0230   14.5360 C   0  0  2  0  0  0  0  0  0  0  0  0
   31.9270   35.6150   13.1560 C   0  0  0  0  0  0  0  0  0  0  0  0
   31.7110   33.7750   14.5610 O   0  0  0  0  0  0  0  0  0  0  0  0
   30.4530   35.9970   13.2750 C   0  0  1  0  0  0  0  0  0  0  0  0
   29.6430   34.8690   13.8750 C   0  0  1  0  0  0  0  0  0  0  0  0
   31.8460   35.8780   15.5380 O   0  0  0  0  0  0  0  0  0  0  0  0
   31.3090   36.5940   15.1380 H   0  0  0  0  0  0  0  0  0  0  0  0
   33.7530   34.8540   14.5690 C   0  0  0  0  0  0  0  0  0  0  0  0
   34.4520   35.3830   15.4590 O   0  0  0  0  0  0  0  0  0  0  0  0
   34.3860   34.1000   13.6000 O   0  0  0  0  0  0  0  0  0  0  0  0
   35.0870   34.5410   13.0280 H   0  0  0  0  0  0  0  0  0  0  0  0
   30.4210   37.1380   14.0770 O   0  0  0  0  0  0  0  0  0  0  0  0
   30.0030   36.9150   14.9370 H   0  0  0  0  0  0  0  0  0  0  0  0
   28.5690   34.4890   12.9400 N   0  0  0  0  0  0  0  0  0  0  0  0
   27.2240   34.8940   13.1170 C   0  0  0  0  0  0  0  0  0  0  0  0
   28.8050   33.8860   12.1000 H   0  0  0  0  0  0  0  0  0  0  0  0
   26.1100   34.5370   12.2050 C   0  0  0  0  0  0  0  0  0  0  0  0
   26.9500   35.6080   14.1140 O   0  0  0  0  0  0  0  0  0  0  0  0
   28.5670   33.3770   15.6850 O   0  0  0  0  0  0  0  0  0  0  0  0
   28.0950   32.7300   16.2620 H   0  0  0  0  0  0  0  0  0  0  0  0
   30.2080   30.6400   16.1140 O   0  0  0  0  0  0  0  0  0  0  0  0
   30.0500   30.2660   15.2180 H   0  0  0  0  0  0  0  0  0  0  0  0
   27.0230   31.2530   19.2200 O   0  0  0  0  0  0  0  0  0  0  0  0
   26.4630   30.2270   18.4360 C   0  0  0  0  0  0  0  0  0  0  0  0
   26.2150   30.6750   17.0440 C   0  0  0  0  0  0  0  0  0  0  0  0
   25.0840   31.2920   16.5840 C   0  0  0  0  0  0  0  0  0  0  0  0
   27.0510   30.5490   16.0080 N   0  0  0  0  0  0  0  0  0  0  0  0
   25.2620   31.5260   15.2730 N   0  0  0  0  0  0  0  0  0  0  0  0
   26.4730   31.0600   14.9490 N   0  0  0  0  0  0  0  0  0  0  0  0
   24.3640   32.1520   14.3360 C   0  0  0  0  0  0  0  0  0  0  0  0
   23.5570   31.1380   13.6060 C   0  0  0  0  0  0  0  0  0  0  0  0
   24.0430   29.8560   13.3800 C   0  0  0  0  0  0  0  0  0  0  0  0
   22.3020   31.4170   13.1230 C   0  0  0  0  0  0  0  0  0  0  0  0
   23.2930   28.9250   12.7040 C   0  0  0  0  0  0  0  0  0  0  0  0
   21.5390   30.4850   12.4420 C   0  0  0  0  0  0  0  0  0  0  0  0
   22.0340   29.2200   12.2270 C   0  0  0  0  0  0  0  0  0  0  0  0
   29.8670   25.5550   16.9770 C   0  0  0  0  0  0  0  0  0  0  0  0
   28.3450   25.7220   17.0260 C   0  0  0  0  0  0  0  0  0  0  0  0
   27.6020   24.3990   16.9260 C   0  0  0  0  0  0  0  0  0  0  0  0
   26.4720   24.3080   17.9130 C   0  0  0  0  0  0  0  0  0  0  0  0
   26.2760   25.6610   18.5890 C   0  0  0  0  0  0  0  0  0  0  0  0
   24.9620   26.2400   18.2190 N   0  0  0  0  0  0  0  0  0  0  0  0
  1  4  1  0  0  0  0
  1  2  1  0  0  0  0
  2  3  2  0  0  0  0
  2 31  1  0  0  0  0
  5  1  1  0  0  0  0
  6 29  1  0  0  0  0
  6  5  1  1  0  0  0
  7 27  1  1  0  0  0
  7  6  1  0  0  0  0
  8 11  1  0  0  0  0
  8  7  1  1  0  0  0
  9 11  1  0  0  0  0
  9 16  1  1  0  0  0
  9 14  1  0  0  0  0
 10 12  1  0  0  0  0
 10  9  1  0  0  0  0
 12 13  1  0  0  0  0
 12 20  1  1  0  0  0
 13 22  1  6  0  0  0
 13  8  1  0  0  0  0
 15 14  1  0  0  0  0
 16 17  2  0  0  0  0
 18 16  1  0  0  0  0
 19 18  1  0  0  0  0
 20 21  1  0  0  0  0
 22 23  1  0  0  0  0
 23 26  2  0  0  0  0
 24 22  1  0  0  0  0
 25 23  1  0  0  0  0
 27 28  1  0  0  0  0
 30 29  1  0  0  0  0
 32 31  1  0  0  0  0
 33 32  1  0  0  0  0
 34 33  2  0  0  0  0
 35 33  1  0  0  0  0
 36 34  1  0  0  0  0
 37 36  1  0  0  0  0
 37 35  2  0  0  0  0
 38 36  1  0  0  0  0
 39 38  1  0  0  0  0
 40 39  1  0  0  0  0
 41 39  2  0  0  0  0
 42 40  2  0  0  0  0
 43 41  1  0  0  0  0
 44 43  2  0  0  0  0
 44 42  1  0  0  0  0
 45 46  1  0  0  0  0
 47 46  1  0  0  0  0
 47 48  1  0  0  0  0
 48 49  1  0  0  0  0
 50 49  1  0  0  0  0
M  END
>  <REMARK>
 VINA RESULT:    -5.443      6.217     11.002
 INTER + INTRA:         -15.029
 INTER:                  -9.117
 INTRA:                  -5.912
 UNBOUND:                -5.290
 SMILES CC(=O)N[C@@H]1[C@@H](O)C[C@](O)(C(=O)O)O[C@H]1C(O)[C@H](O)CNC(=O)OCc1cn(Cc2ccccc2)nn1
 SMILES IDX 21 1 22 2 23 3 20 5 18 6 16 7 15 8 9 9 8 10 14 11 6 12 5 13
 SMILES IDX 10 14 11 16 12 17 13 18 7 20 4 22 2 23 1 25 3 26 17 27 19 29
 SMILES IDX 24 31 25 32 26 33 27 34 37 35 28 36 36 37 29 38 30 39 31 40
 SMILES IDX 35 41 32 42 34 43 33 44
 H PARENT 21 4 10 15 13 19 7 21 4 24 17 28 19 30
 Flexibility Score: inf
  4 active torsions:
  status: ('A' for Active; 'I' for Inactive)
    1  A    between atoms: CA   and  CB  
    2  A    between atoms: CB   and  CG  
    3  A    between atoms: CG   and  CD  
    4  A    between atoms: CD   and  CE  

>  <TORSDO>
F 16

>  <BEGIN_>
RES LYS A 131

$$$$
ligand_46_pose_5_2HRL.pdbqt
 OpenBabel07062320523D

  6  5  0  0  0  0  0  0  0  0999 V2000
   33.1930   34.6630    9.2900 C   0  0  0  0  0  0  0  0  0  0  0  0
   32.0600   35.3600   10.0340 C   0  0  0  0  0  0  0  0  0  0  0  0
   30.8840   35.7020    9.1560 C   0  0  0  0  0  0  0  0  0  0  0  0
   30.3870   34.4680    8.4190 C   0  0  0  0  0  0  0  0  0  0  0  0
   28.8740   34.4760    8.3260 C   0  0  0  0  0  0  0  0  0  0  0  0
   28.2620   33.7280    9.4590 N   0  0  0  0  0  0  0  0  0  0  0  0
  1  2  1  0  0  0  0
  3  2  1  0  0  0  0
  4  3  1  0  0  0  0
  5  4  1  0  0  0  0
  5  6  1  0  0  0  0
M  END
>  <EGIN_R>
ES LYS A 135

>  <REMARK>
  4 active torsions:
  status: ('A' for Active; 'I' for Inactive)
    5  A    between atoms: CA   and  CB  
    6  A    between atoms: CB   and  CG  
    7  A    between atoms: CG   and  CD  
    8  A    between atoms: CD   and  CE  

$$$$
