ligand_10_pose_10_2HRL.pdbqt
 OpenBabel07062320523D

 53 53  0  0  1  0  0  0  0  0999 V2000
   29.1610   30.1020   19.0470 N   0  0  0  0  0  0  0  0  0  0  0  0
   27.8590   29.7420   19.5090 C   0  0  0  0  0  0  0  0  0  0  0  0
   27.1420   30.6200   20.0020 O   0  0  0  0  0  0  0  0  0  0  0  0
   29.7150   29.3030   18.6400 H   0  0  0  0  0  0  0  0  0  0  0  0
   29.7110   31.4190   19.1100 C   0  0  0  0  0  0  0  0  0  0  0  0
   30.2170   31.8600   17.7520 C   0  0  2  0  0  0  0  0  0  0  0  0
   29.1660   32.6680   17.0120 C   0  0  2  0  0  0  0  0  0  0  0  0
   29.5090   34.1030   16.8360 C   0  0  2  0  0  0  0  0  0  0  0  0
   28.3240   34.2950   14.8460 C   0  0  2  0  0  0  0  0  0  0  0  0
   29.4860   33.7990   14.0940 C   0  0  0  0  0  0  0  0  0  0  0  0
   28.5340   34.7910   16.1070 O   0  0  0  0  0  0  0  0  0  0  0  0
   30.8220   33.8600   14.7220 C   0  0  1  0  0  0  0  0  0  0  0  0
   30.8360   34.3040   16.1580 C   0  0  1  0  0  0  0  0  0  0  0  0
   27.3440   33.2810   14.9980 O   0  0  0  0  0  0  0  0  0  0  0  0
   26.5680   33.5980   14.4620 H   0  0  0  0  0  0  0  0  0  0  0  0
   27.6190   35.3660   14.0910 C   0  0  0  0  0  0  0  0  0  0  0  0
   27.3190   35.2930   12.8770 O   0  0  0  0  0  0  0  0  0  0  0  0
   27.2720   36.5170   14.7810 O   0  0  0  0  0  0  0  0  0  0  0  0
   27.9690   37.0920   15.2720 H   0  0  0  0  0  0  0  0  0  0  0  0
   31.4730   32.6350   14.6080 O   0  0  0  0  0  0  0  0  0  0  0  0
   32.2380   32.5260   15.1980 H   0  0  0  0  0  0  0  0  0  0  0  0
   31.1940   35.7410   16.2410 N   0  0  0  0  0  0  0  0  0  0  0  0
   32.5450   36.1500   16.3040 C   0  0  0  0  0  0  0  0  0  0  0  0
   30.4620   36.4830   16.2570 H   0  0  0  0  0  0  0  0  0  0  0  0
   32.9510   37.5840   16.3900 C   0  0  0  0  0  0  0  0  0  0  0  0
   33.4330   35.2720   16.2870 O   0  0  0  0  0  0  0  0  0  0  0  0
   28.0270   32.5530   17.8590 O   0  0  0  0  0  0  0  0  0  0  0  0
   27.5500   31.7090   17.6810 H   0  0  0  0  0  0  0  0  0  0  0  0
   30.6430   30.7330   17.0610 O   0  0  0  0  0  0  0  0  0  0  0  0
   31.4500   30.3150   17.4510 H   0  0  0  0  0  0  0  0  0  0  0  0
   27.3730   28.4480   19.4240 O   0  0  0  0  0  0  0  0  0  0  0  0
   27.1430   27.8610   18.1670 C   0  0  0  0  0  0  0  0  0  0  0  0
   26.9790   28.8650   17.0880 C   0  0  0  0  0  0  0  0  0  0  0  0
   25.7500   29.2330   16.5950 C   0  0  0  0  0  0  0  0  0  0  0  0
   27.8880   29.5690   16.4180 N   0  0  0  0  0  0  0  0  0  0  0  0
   25.9550   30.1620   15.6270 N   0  0  0  0  0  0  0  0  0  0  0  0
   27.2440   30.3330   15.5530 N   0  0  0  0  0  0  0  0  0  0  0  0
   24.8590   30.7780   14.8840 C   0  0  1  0  0  0  0  0  0  0  0  0
   23.7870   29.7530   14.6310 C   0  0  0  0  0  0  0  0  0  0  0  0
   23.3320   29.7460   13.2320 C   0  0  0  0  0  0  0  0  0  0  0  0
   23.6440   28.7770   12.4970 O   0  0  0  0  0  0  0  0  0  0  0  0
   22.5740   30.8070   12.7600 O   0  0  0  0  0  0  0  0  0  0  0  0
   23.0270   31.5170   12.1640 H   0  0  0  0  0  0  0  0  0  0  0  0
   24.2570   31.8400   15.7350 C   0  0  0  0  0  0  0  0  0  0  0  0
   23.0380   32.1480   15.7150 O   0  0  0  0  0  0  0  0  0  0  0  0
   25.0880   32.5330   16.5980 O   0  0  0  0  0  0  0  0  0  0  0  0
   24.8670   32.6700   17.5780 H   0  0  0  0  0  0  0  0  0  0  0  0
   29.8670   25.5550   16.9770 C   0  0  0  0  0  0  0  0  0  0  0  0
   28.3450   25.7220   17.0260 C   0  0  0  0  0  0  0  0  0  0  0  0
   27.6000   24.4090   16.8420 C   0  0  0  0  0  0  0  0  0  0  0  0
   26.5990   24.1670   17.9360 C   0  0  0  0  0  0  0  0  0  0  0  0
   25.2300   24.6780   17.4970 C   0  0  0  0  0  0  0  0  0  0  0  0
   24.4760   25.2050   18.6580 N   0  0  0  0  0  0  0  0  0  0  0  0
  1  5  1  0  0  0  0
  1  2  1  0  0  0  0
  2  3  2  0  0  0  0
  4  1  1  0  0  0  0
  6  5  1  1  0  0  0
  7  6  1  0  0  0  0
  7 27  1  1  0  0  0
  8  7  1  6  0  0  0
  9 16  1  6  0  0  0
  9 14  1  0  0  0  0
  9 11  1  0  0  0  0
 10 12  1  0  0  0  0
 10  9  1  0  0  0  0
 11  8  1  0  0  0  0
 12 20  1  1  0  0  0
 12 13  1  0  0  0  0
 13 22  1  6  0  0  0
 13  8  1  0  0  0  0
 15 14  1  0  0  0  0
 16 18  1  0  0  0  0
 17 16  2  0  0  0  0
 18 19  1  0  0  0  0
 20 21  1  0  0  0  0
 22 24  1  0  0  0  0
 22 23  1  0  0  0  0
 23 25  1  0  0  0  0
 26 23  2  0  0  0  0
 28 27  1  0  0  0  0
 29 30  1  0  0  0  0
 29  6  1  0  0  0  0
 31  2  1  0  0  0  0
 32 31  1  0  0  0  0
 33 32  1  0  0  0  0
 34 33  2  0  0  0  0
 35 33  1  0  0  0  0
 36 34  1  0  0  0  0
 37 36  1  0  0  0  0
 37 35  2  0  0  0  0
 38 39  1  1  0  0  0
 38 36  1  0  0  0  0
 38 44  1  0  0  0  0
 40 39  1  0  0  0  0
 41 40  2  0  0  0  0
 42 40  1  0  0  0  0
 43 42  1  0  0  0  0
 44 46  1  0  0  0  0
 45 44  2  0  0  0  0
 46 47  1  0  0  0  0
 48 49  1  0  0  0  0
 50 49  1  0  0  0  0
 50 51  1  0  0  0  0
 52 51  1  0  0  0  0
 52 53  1  0  0  0  0
M  END
>  <REMARK>
 VINA RESULT:    -4.630      2.338      4.531
 INTER + INTRA:         -14.841
 INTER:                  -8.075
 INTRA:                  -6.766
 UNBOUND:                -5.744
 SMILES CC(=O)N[C@@H]1[C@@H](O)C[C@](O)(C(=O)O)O[C@H]1C(O)[C@H](O)CNC(=O)OCc1cn([C@@H](CC(=O)O)C(=O)O)nn1
 SMILES IDX 21 1 22 2 23 3 20 5 18 6 16 7 15 8 9 9 8 10 14 11 6 12 5 13
 SMILES IDX 10 14 11 16 12 17 13 18 7 20 4 22 2 23 1 25 3 26 17 27 19 29
 SMILES IDX 24 31 25 32 26 33 27 34 38 35 28 36 37 37 29 38 30 39 31 40
 SMILES IDX 32 41 33 42 34 44 35 45 36 46
 H PARENT 21 4 10 15 13 19 7 21 4 24 17 28 19 30 33 43 36 47
 Flexibility Score: inf
  4 active torsions:
  status: ('A' for Active; 'I' for Inactive)
    1  A    between atoms: CA   and  CB  
    2  A    between atoms: CB   and  CG  
    3  A    between atoms: CG   and  CD  
    4  A    between atoms: CD   and  CE  

>  <TORSDO>
F 20

>  <BEGIN_>
RES LYS A 131

$$$$
ligand_10_pose_10_2HRL.pdbqt
 OpenBabel07062320523D

  6  5  0  0  0  0  0  0  0  0999 V2000
   33.1930   34.6630    9.2900 C   0  0  0  0  0  0  0  0  0  0  0  0
   32.0600   35.3600   10.0340 C   0  0  0  0  0  0  0  0  0  0  0  0
   30.8240   35.5640    9.1960 C   0  0  0  0  0  0  0  0  0  0  0  0
   30.0670   34.2560    9.0290 C   0  0  0  0  0  0  0  0  0  0  0  0
   28.9270   34.1700   10.0260 C   0  0  0  0  0  0  0  0  0  0  0  0
   27.6530   33.7940    9.3530 N   0  0  0  0  0  0  0  0  0  0  0  0
  1  2  1  0  0  0  0
  3  2  1  0  0  0  0
  4  3  1  0  0  0  0
  4  5  1  0  0  0  0
  6  5  1  0  0  0  0
M  END
>  <EGIN_R>
ES LYS A 135

>  <REMARK>
  4 active torsions:
  status: ('A' for Active; 'I' for Inactive)
    5  A    between atoms: CA   and  CB  
    6  A    between atoms: CB   and  CG  
    7  A    between atoms: CG   and  CD  
    8  A    between atoms: CD   and  CE  

$$$$
