ligand_7_pose_5_2HRL.pdbqt
 OpenBabel07062320523D

 52 53  0  0  1  0  0  0  0  0999 V2000
   27.5570   38.8920    8.6540 C   0  0  0  0  0  0  0  0  0  0  0  0
   26.2810   38.1320    8.6030 C   0  0  2  0  0  0  0  0  0  0  0  0
   25.9520   37.3410    9.8280 C   0  0  1  0  0  0  0  0  0  0  0  0
   24.7380   36.4930    9.7520 C   0  0  2  0  0  0  0  0  0  0  0  0
   22.5440   36.7340    8.9790 C   0  0  2  0  0  0  0  0  0  0  0  0
   22.1240   35.4950    9.7170 C   0  0  0  0  0  0  0  0  0  0  0  0
   23.8830   36.8440    8.7490 O   0  0  0  0  0  0  0  0  0  0  0  0
   23.0740   35.0810   10.7890 C   0  0  1  0  0  0  0  0  0  0  0  0
   24.0410   36.2490   11.0560 C   0  0  1  0  0  0  0  0  0  0  0  0
   22.0720   37.8340    9.6900 O   0  0  0  0  0  0  0  0  0  0  0  0
   22.0370   37.5760   10.6560 H   0  0  0  0  0  0  0  0  0  0  0  0
   21.8570   36.7000    7.6600 C   0  0  0  0  0  0  0  0  0  0  0  0
   20.6560   36.3730    7.5790 O   0  0  0  0  0  0  0  0  0  0  0  0
   22.5450   37.0310    6.4850 O   0  0  0  0  0  0  0  0  0  0  0  0
   22.7690   38.0210    6.3130 H   0  0  0  0  0  0  0  0  0  0  0  0
   22.4740   34.6380   11.9500 O   0  0  0  0  0  0  0  0  0  0  0  0
   22.0040   33.7780   11.7310 H   0  0  0  0  0  0  0  0  0  0  0  0
   24.9390   35.7620   12.0700 N   0  0  0  0  0  0  0  0  0  0  0  0
   25.0900   36.5230   13.2610 C   0  0  0  0  0  0  0  0  0  0  0  0
   25.4830   34.8700   11.9630 H   0  0  0  0  0  0  0  0  0  0  0  0
   25.9930   36.1080   14.3660 C   0  0  0  0  0  0  0  0  0  0  0  0
   24.4500   37.5930   13.4170 O   0  0  0  0  0  0  0  0  0  0  0  0
   27.0550   36.5500   10.1350 O   0  0  0  0  0  0  0  0  0  0  0  0
   27.6390   37.0680   10.7430 H   0  0  0  0  0  0  0  0  0  0  0  0
   26.1860   37.3750    7.4330 O   0  0  0  0  0  0  0  0  0  0  0  0
   26.1460   37.9440    6.6250 H   0  0  0  0  0  0  0  0  0  0  0  0
   28.0000   39.1690   10.0060 N   0  0  0  0  0  0  0  0  0  0  0  0
   29.3720   39.2960   10.3630 C   0  0  0  0  0  0  0  0  0  0  0  0
   27.3180   39.2940   10.8120 H   0  0  0  0  0  0  0  0  0  0  0  0
   30.2600   39.1680    9.5000 O   0  0  0  0  0  0  0  0  0  0  0  0
   29.7510   39.5650   11.6810 O   0  0  0  0  0  0  0  0  0  0  0  0
   31.1420   39.4950   12.0330 C   0  0  0  0  0  0  0  0  0  0  0  0
   31.4880   38.0720   12.2770 C   0  0  0  0  0  0  0  0  0  0  0  0
   30.9360   37.2670   13.2600 C   0  0  0  0  0  0  0  0  0  0  0  0
   32.3580   37.3080   11.6310 N   0  0  0  0  0  0  0  0  0  0  0  0
   31.4770   36.0490   13.1900 N   0  0  0  0  0  0  0  0  0  0  0  0
   32.3480   36.1220   12.1690 N   0  0  0  0  0  0  0  0  0  0  0  0
   31.2350   34.8920   13.9790 C   0  0  0  0  0  0  0  0  0  0  0  0
   30.0970   34.1420   13.7810 C   0  0  0  0  0  0  0  0  0  0  0  0
   32.1190   34.4800   14.9640 C   0  0  0  0  0  0  0  0  0  0  0  0
   29.1380   34.5590   12.7350 C   0  0  0  0  0  0  0  0  0  0  0  0
   29.8620   33.0020   14.5620 C   0  0  0  0  0  0  0  0  0  0  0  0
   31.8780   33.3550   15.7280 C   0  0  0  0  0  0  0  0  0  0  0  0
   33.3570   35.3130   15.1660 C   0  0  0  0  0  0  0  0  0  0  0  0
   30.7430   32.5950   15.5400 C   0  0  0  0  0  0  0  0  0  0  0  0
   30.4690   31.3760   16.3590 C   0  0  0  0  0  0  0  0  0  0  0  0
   29.8670   25.5550   16.9770 C   0  0  0  0  0  0  0  0  0  0  0  0
   28.3450   25.7220   17.0260 C   0  0  0  0  0  0  0  0  0  0  0  0
   27.6010   24.4030   16.8840 C   0  0  0  0  0  0  0  0  0  0  0  0
   26.5800   24.2090   17.9710 C   0  0  0  0  0  0  0  0  0  0  0  0
   25.6300   23.0810   17.5810 C   0  0  0  0  0  0  0  0  0  0  0  0
   24.3880   23.6300   16.9890 N   0  0  0  0  0  0  0  0  0  0  0  0
  1 27  1  0  0  0  0
  2  1  1  1  0  0  0
  2  3  1  0  0  0  0
  3 23  1  6  0  0  0
  4  3  1  1  0  0  0
  4  9  1  0  0  0  0
  5 12  1  6  0  0  0
  5 10  1  0  0  0  0
  5  6  1  0  0  0  0
  6  8  1  0  0  0  0
  7  5  1  0  0  0  0
  7  4  1  0  0  0  0
  8  9  1  0  0  0  0
  8 16  1  1  0  0  0
  9 18  1  1  0  0  0
 10 11  1  0  0  0  0
 13 12  2  0  0  0  0
 14 12  1  0  0  0  0
 15 14  1  0  0  0  0
 17 16  1  0  0  0  0
 18 19  1  0  0  0  0
 19 22  2  0  0  0  0
 19 21  1  0  0  0  0
 20 18  1  0  0  0  0
 23 24  1  0  0  0  0
 25  2  1  0  0  0  0
 26 25  1  0  0  0  0
 27 28  1  0  0  0  0
 27 29  1  0  0  0  0
 28 31  1  0  0  0  0
 30 28  2  0  0  0  0
 31 32  1  0  0  0  0
 32 33  1  0  0  0  0
 33 34  2  0  0  0  0
 35 37  2  0  0  0  0
 35 33  1  0  0  0  0
 36 34  1  0  0  0  0
 36 38  1  0  0  0  0
 37 36  1  0  0  0  0
 38 40  1  0  0  0  0
 39 38  2  0  0  0  0
 39 42  1  0  0  0  0
 40 44  1  0  0  0  0
 40 43  2  0  0  0  0
 41 39  1  0  0  0  0
 42 45  2  0  0  0  0
 45 43  1  0  0  0  0
 45 46  1  0  0  0  0
 47 48  1  0  0  0  0
 49 48  1  0  0  0  0
 49 50  1  0  0  0  0
 51 50  1  0  0  0  0
 52 51  1  0  0  0  0
M  END
>  <REMARK>
 VINA RESULT:    -4.842      7.115     11.642
 INTER + INTRA:         -14.297
 INTER:                  -9.239
 INTRA:                  -5.058
 UNBOUND:                -5.917
 SMILES CC(=O)N[C@@H]1[C@@H](O)C[C@](O)(C(=O)O)O[C@H]1C(O)[C@H](O)CNC(=O)OCc1cn(-c2c(C)cc(C)cc2C)nn1
 SMILES IDX 20 1 18 2 16 3 15 4 9 5 8 6 14 7 6 8 5 9 10 10 11 12 12 13
 SMILES IDX 13 14 7 16 4 18 2 19 1 21 3 22 17 23 19 25 21 27 22 28 23 30
 SMILES IDX 24 31 25 32 26 33 27 34 39 35 28 36 38 37 29 38 30 39 36 40
 SMILES IDX 31 41 32 42 35 43 37 44 33 45 34 46
 H PARENT 10 11 13 15 7 17 4 20 17 24 19 26 21 29
 Flexibility Score: inf
  4 active torsions:
  status: ('A' for Active; 'I' for Inactive)
    1  A    between atoms: CA   and  CB  
    2  A    between atoms: CB   and  CG  
    3  A    between atoms: CG   and  CD  
    4  A    between atoms: CD   and  CE  

>  <TORSDO>
F 15

>  <BEGIN_>
RES LYS A 131

$$$$
ligand_7_pose_5_2HRL.pdbqt
 OpenBabel07062320523D

  6  5  0  0  0  0  0  0  0  0999 V2000
   33.1930   34.6630    9.2900 C   0  0  0  0  0  0  0  0  0  0  0  0
   32.0600   35.3600   10.0340 C   0  0  0  0  0  0  0  0  0  0  0  0
   30.7880   35.4640    9.2330 C   0  0  0  0  0  0  0  0  0  0  0  0
   30.1950   34.0850    8.9850 C   0  0  0  0  0  0  0  0  0  0  0  0
   28.7220   34.1930    8.6410 C   0  0  0  0  0  0  0  0  0  0  0  0
   28.5110   35.0610    7.4500 N   0  0  0  0  0  0  0  0  0  0  0  0
  1  2  1  0  0  0  0
  3  2  1  0  0  0  0
  4  3  1  0  0  0  0
  5  4  1  0  0  0  0
  6  5  1  0  0  0  0
M  END
>  <EGIN_R>
ES LYS A 135

>  <REMARK>
  4 active torsions:
  status: ('A' for Active; 'I' for Inactive)
    5  A    between atoms: CA   and  CB  
    6  A    between atoms: CB   and  CG  
    7  A    between atoms: CG   and  CD  
    8  A    between atoms: CD   and  CE  

$$$$
