ligand_69_pose_10_2HRL.pdbqt
 OpenBabel07062320523D

 54 51  0  0  1  0  0  0  0  0999 V2000
   28.4990   26.9950   22.4670 N   0  0  0  0  0  0  0  0  0  0  0  0
   27.7880   28.1220   22.9770 C   0  0  0  0  0  0  0  0  0  0  0  0
   28.3580   29.0760   23.5690 O   0  0  0  0  0  0  0  0  0  0  0  0
   28.0010   26.2180   21.9820 H   0  0  0  0  0  0  0  0  0  0  0  0
   29.9480   27.0050   22.6700 C   0  0  0  0  0  0  0  0  0  0  0  0
   30.5760   26.8310   21.3000 C   0  0  2  0  0  0  0  0  0  0  0  0
   31.5850   27.9110   20.9810 C   0  0  2  0  0  0  0  0  0  0  0  0
   31.0000   29.2860   21.0800 C   0  0  2  0  0  0  0  0  0  0  0  0
   30.0050   31.0490   20.0330 C   0  0  2  0  0  0  0  0  0  0  0  0
   29.9160   31.5120   21.4710 C   0  0  0  0  0  0  0  0  0  0  0  0
   30.3870   29.7170   19.9340 O   0  0  0  0  0  0  0  0  0  0  0  0
   31.2530   31.4150   22.1780 C   0  0  1  0  0  0  0  0  0  0  0  0
   32.0220   30.3220   21.4930 C   0  0  1  0  0  0  0  0  0  0  0  0
   30.8240   31.8850   19.2810 O   0  0  0  0  0  0  0  0  0  0  0  0
   31.5340   31.3800   18.8040 H   0  0  0  0  0  0  0  0  0  0  0  0
   28.6350   31.1410   19.4740 C   0  0  0  0  0  0  0  0  0  0  0  0
   28.3880   31.7020   18.3720 O   0  0  0  0  0  0  0  0  0  0  0  0
   27.5830   30.5950   20.1760 O   0  0  0  0  0  0  0  0  0  0  0  0
   26.7400   31.0990   20.4330 H   0  0  0  0  0  0  0  0  0  0  0  0
   31.8530   32.6510   22.1060 O   0  0  0  0  0  0  0  0  0  0  0  0
   31.8120   33.0560   23.0270 H   0  0  0  0  0  0  0  0  0  0  0  0
   33.1100   29.7910   22.2270 N   0  0  0  0  0  0  0  0  0  0  0  0
   34.4010   30.3730   22.3320 C   0  0  0  0  0  0  0  0  0  0  0  0
   32.9650   28.8950   22.7390 H   0  0  0  0  0  0  0  0  0  0  0  0
   35.4860   29.7310   23.1340 C   0  0  0  0  0  0  0  0  0  0  0  0
   34.6000   31.4460   21.7280 O   0  0  0  0  0  0  0  0  0  0  0  0
   32.2550   27.6570   19.8090 O   0  0  0  0  0  0  0  0  0  0  0  0
   32.7230   28.4750   19.5310 H   0  0  0  0  0  0  0  0  0  0  0  0
   29.5710   26.9520   20.3110 O   0  0  0  0  0  0  0  0  0  0  0  0
   29.4050   26.0750   19.8640 H   0  0  0  0  0  0  0  0  0  0  0  0
   26.4250   28.1870   22.8260 O   0  0  0  0  0  0  0  0  0  0  0  0
   25.6670   27.2930   22.0300 C   0  0  0  0  0  0  0  0  0  0  0  0
   25.6450   27.8030   20.6400 C   0  0  0  0  0  0  0  0  0  0  0  0
   24.6570   28.5000   19.9820 C   0  0  0  0  0  0  0  0  0  0  0  0
   26.6540   27.6500   19.7600 N   0  0  0  0  0  0  0  0  0  0  0  0
   25.0810   28.7530   18.7290 N   0  0  0  0  0  0  0  0  0  0  0  0
   26.3010   28.2190   18.6370 N   0  0  0  0  0  0  0  0  0  0  0  0
   24.3390   29.4720   17.6930 C   0  0  2  0  0  0  0  0  0  0  0  0
   24.0120   28.4970   16.6120 C   0  0  0  0  0  0  0  0  0  0  0  0
   23.1570   29.0360   15.5200 *   0  0  0  0  0  0  0  0  0  0  0  0
   22.3940   28.0310   14.8860 O   0  0  0  0  0  0  0  0  0  0  0  0
   22.9420   27.6180   14.1860 H   0  0  0  0  0  0  0  0  0  0  0  0
   25.1750   30.6240   17.2530 C   0  0  0  0  0  0  0  0  0  0  0  0
   25.9340   30.3930   15.9810 C   0  0  1  0  0  0  0  0  0  0  0  0
   25.0890   30.4400   14.7680 C   0  0  0  0  0  0  0  0  0  0  0  0
   23.9210   29.8710   14.5680 *   0  0  0  0  0  0  0  0  0  0  0  0
   27.0410   31.2310   15.8590 O   0  0  0  0  0  0  0  0  0  0  0  0
   27.5840   31.0030   15.0630 H   0  0  0  0  0  0  0  0  0  0  0  0
   29.8670   25.5550   16.9770 C   0  0  0  0  0  0  0  0  0  0  0  0
   28.3450   25.7220   17.0260 C   0  0  0  0  0  0  0  0  0  0  0  0
   27.6020   24.3980   16.9350 C   0  0  0  0  0  0  0  0  0  0  0  0
   26.5140   24.2870   17.9660 C   0  0  0  0  0  0  0  0  0  0  0  0
   25.6440   23.0720   17.6590 C   0  0  0  0  0  0  0  0  0  0  0  0
   24.2240   23.3570   17.9760 N   0  0  0  0  0  0  0  0  0  0  0  0
  1  5  1  0  0  0  0
  1  2  1  0  0  0  0
  2  3  2  0  0  0  0
  4  1  1  0  0  0  0
  6  5  1  1  0  0  0
  7 27  1  6  0  0  0
  7  6  1  0  0  0  0
  8  7  1  6  0  0  0
  8 13  1  0  0  0  0
  9 14  1  6  0  0  0
  9 10  1  0  0  0  0
 10 12  1  0  0  0  0
 11  9  1  0  0  0  0
 11  8  1  0  0  0  0
 12 20  1  6  0  0  0
 13 12  1  0  0  0  0
 13 22  1  1  0  0  0
 15 14  1  0  0  0  0
 16  9  1  0  0  0  0
 16 18  1  0  0  0  0
 17 16  2  0  0  0  0
 18 19  1  0  0  0  0
 20 21  1  0  0  0  0
 22 23  1  0  0  0  0
 22 24  1  0  0  0  0
 23 25  1  0  0  0  0
 26 23  2  0  0  0  0
 28 27  1  0  0  0  0
 29  6  1  0  0  0  0
 30 29  1  0  0  0  0
 31  2  1  0  0  0  0
 32 31  1  0  0  0  0
 33 32  1  0  0  0  0
 34 33  2  0  0  0  0
 35 33  1  0  0  0  0
 36 34  1  0  0  0  0
 37 36  1  0  0  0  0
 37 35  2  0  0  0  0
 38 39  1  6  0  0  0
 38 36  1  0  0  0  0
 42 41  1  0  0  0  0
 43 38  1  0  0  0  0
 44 45  1  6  0  0  0
 44 43  1  0  0  0  0
 47 44  1  0  0  0  0
 48 47  1  0  0  0  0
 49 50  1  0  0  0  0
 51 50  1  0  0  0  0
 51 52  1  0  0  0  0
 53 52  1  0  0  0  0
 53 54  1  0  0  0  0
M  END
>  <REMARK>
 VINA RESULT:    -7.770      4.717      7.380
 INTER + INTRA:         -13.141
 INTER:                  -7.204
 INTRA:                  -5.937
 UNBOUND:                 3.032
 SMILES CC(=O)N[C@@H]1[C@@H](O)C[C@](O)(C(=O)O)O[C@H]1C(O)[C@H](O)CNC(=O)OCc1cn(C2CC(O)C=C[C@@H](O)C2)nn1
 SMILES IDX 21 1 22 2 23 3 20 5 18 6 16 7 15 8 9 9 8 10 14 11 6 12 5 13
 SMILES IDX 10 14 11 16 12 17 13 18 7 20 4 22 2 23 1 25 3 26 17 27 19 29
 SMILES IDX 24 31 25 32 26 33 27 34 39 35 28 36 38 37 29 38 30 39 31 40
 SMILES IDX 32 42 37 44 35 45 34 46 33 47 36 49
 H PARENT 21 4 10 15 13 19 7 21 4 24 17 28 19 30 32 43 36 50
 Flexibility Score: 90.00
  4 active torsions:
  status: ('A' for Active; 'I' for Inactive)
    1  A    between atoms: CA   and  CB  
    2  A    between atoms: CB   and  CG  
    3  A    between atoms: CG   and  CD  
    4  A    between atoms: CD   and  CE  

>  <TORSDO>
F 17

>  <BEGIN_>
RES LYS A 131

$$$$
ligand_69_pose_10_2HRL.pdbqt
 OpenBabel07062320523D

  6  5  0  0  0  0  0  0  0  0999 V2000
   33.1930   34.6630    9.2900 C   0  0  0  0  0  0  0  0  0  0  0  0
   32.0600   35.3600   10.0340 C   0  0  0  0  0  0  0  0  0  0  0  0
   30.8000   35.5000    9.2190 C   0  0  0  0  0  0  0  0  0  0  0  0
   30.2420   34.1330    8.8550 C   0  0  0  0  0  0  0  0  0  0  0  0
   28.7430   34.2100    8.6400 C   0  0  0  0  0  0  0  0  0  0  0  0
   28.1230   35.2200    9.5410 N   0  0  0  0  0  0  0  0  0  0  0  0
  1  2  1  0  0  0  0
  3  2  1  0  0  0  0
  4  3  1  0  0  0  0
  5  4  1  0  0  0  0
  5  6  1  0  0  0  0
M  END
>  <EGIN_R>
ES LYS A 135

>  <REMARK>
  4 active torsions:
  status: ('A' for Active; 'I' for Inactive)
    5  A    between atoms: CA   and  CB  
    6  A    between atoms: CB   and  CG  
    7  A    between atoms: CG   and  CD  
    8  A    between atoms: CD   and  CE  

$$$$
