ligand_23_pose_9_2HRL.pdbqt
 OpenBabel07062320523D

 55 56  0  0  1  0  0  0  0  0999 V2000
   28.0560   36.0890   14.8100 N   0  0  0  0  0  0  0  0  0  0  0  0
   26.9980   35.4290   14.1360 C   0  0  0  0  0  0  0  0  0  0  0  0
   26.2580   36.0910   13.3880 O   0  0  0  0  0  0  0  0  0  0  0  0
   28.6450   35.4660   15.4270 H   0  0  0  0  0  0  0  0  0  0  0  0
   28.3150   37.4990   14.6700 C   0  0  0  0  0  0  0  0  0  0  0  0
   29.5850   37.7420   13.8810 C   0  0  2  0  0  0  0  0  0  0  0  0
   30.7070   38.1080   14.8430 C   0  0  1  0  0  0  0  0  0  0  0  0
   31.7880   37.0330   14.7520 C   0  0  2  0  0  0  0  0  0  0  0  0
   31.2490   34.8290   15.2240 C   0  0  2  0  0  0  0  0  0  0  0  0
   32.6200   34.5240   15.7830 C   0  0  0  0  0  0  0  0  0  0  0  0
   31.2620   35.8600   14.3070 O   0  0  0  0  0  0  0  0  0  0  0  0
   33.4480   35.7450   15.9990 C   0  0  1  0  0  0  0  0  0  0  0  0
   32.5160   36.9550   16.0600 C   0  0  1  0  0  0  0  0  0  0  0  0
   30.3270   35.1020   16.2310 O   0  0  0  0  0  0  0  0  0  0  0  0
   29.4330   34.7290   15.9550 H   0  0  0  0  0  0  0  0  0  0  0  0
   30.7900   33.6060   14.5130 C   0  0  0  0  0  0  0  0  0  0  0  0
   29.9770   33.6660   13.5540 O   0  0  0  0  0  0  0  0  0  0  0  0
   31.2380   32.3340   14.8720 O   0  0  0  0  0  0  0  0  0  0  0  0
   31.7070   31.7450   14.1940 H   0  0  0  0  0  0  0  0  0  0  0  0
   34.2530   35.6910   17.1240 O   0  0  0  0  0  0  0  0  0  0  0  0
   34.5270   36.5920   17.4560 H   0  0  0  0  0  0  0  0  0  0  0  0
   33.3170   38.1610   16.1890 N   0  0  0  0  0  0  0  0  0  0  0  0
   33.5320   38.8050   17.4430 C   0  0  0  0  0  0  0  0  0  0  0  0
   33.7560   38.5740   15.3200 H   0  0  0  0  0  0  0  0  0  0  0  0
   34.3690   40.0320   17.4560 C   0  0  0  0  0  0  0  0  0  0  0  0
   33.0090   38.3050   18.4540 O   0  0  0  0  0  0  0  0  0  0  0  0
   31.2520   39.3070   14.4180 O   0  0  0  0  0  0  0  0  0  0  0  0
   32.2370   39.2650   14.3920 H   0  0  0  0  0  0  0  0  0  0  0  0
   29.3500   38.8090   12.9970 O   0  0  0  0  0  0  0  0  0  0  0  0
   29.4680   39.6950   13.4640 H   0  0  0  0  0  0  0  0  0  0  0  0
   26.7730   34.0580   14.2950 O   0  0  0  0  0  0  0  0  0  0  0  0
   26.3740   33.5210   15.5390 C   0  0  0  0  0  0  0  0  0  0  0  0
   27.4470   32.6540   16.0870 C   0  0  0  0  0  0  0  0  0  0  0  0
   28.0120   32.7890   17.3400 C   0  0  0  0  0  0  0  0  0  0  0  0
   28.0600   31.6140   15.5100 N   0  0  0  0  0  0  0  0  0  0  0  0
   28.9300   31.8150   17.4310 N   0  0  0  0  0  0  0  0  0  0  0  0
   28.9680   31.0930   16.3210 N   0  0  0  0  0  0  0  0  0  0  0  0
   29.7660   31.5720   18.5600 C   0  0  0  0  0  0  0  0  0  0  0  0
   29.9010   30.3260   19.1340 C   0  0  0  0  0  0  0  0  0  0  0  0
   30.4870   32.6060   19.1320 C   0  0  0  0  0  0  0  0  0  0  0  0
   30.7200   30.0970   20.2380 C   0  0  0  0  0  0  0  0  0  0  0  0
   31.2980   32.4060   20.2160 C   0  0  0  0  0  0  0  0  0  0  0  0
   31.4120   31.1520   20.7660 C   0  0  0  0  0  0  0  0  0  0  0  0
   30.8850   28.5270   20.9560 S   0  0  0  0  0  0  0  0  0  0  0  0
   29.5240   27.8800   20.9950 O   0  0  0  0  0  0  0  0  0  0  0  0
   31.3260   28.6790   22.3920 O   0  0  0  0  0  0  0  0  0  0  0  0
   31.9590   27.5280   20.0630 N   0  0  0  0  0  0  0  0  0  0  0  0
   32.1570   26.6630   20.5970 H   0  0  0  0  0  0  0  0  0  0  0  0
   32.8360   28.0220   19.7980 H   0  0  0  0  0  0  0  0  0  0  0  0
   29.8670   25.5550   16.9770 C   0  0  0  0  0  0  0  0  0  0  0  0
   28.3450   25.7220   17.0260 C   0  0  0  0  0  0  0  0  0  0  0  0
   27.6000   24.4100   16.8300 C   0  0  0  0  0  0  0  0  0  0  0  0
   26.1490   24.5210   17.2080 C   0  0  0  0  0  0  0  0  0  0  0  0
   26.0050   24.3850   18.7200 C   0  0  0  0  0  0  0  0  0  0  0  0
   25.4290   25.6210   19.3000 N   0  0  0  0  0  0  0  0  0  0  0  0
  1  4  1  0  0  0  0
  2 31  1  0  0  0  0
  2  1  1  0  0  0  0
  3  2  2  0  0  0  0
  5  1  1  0  0  0  0
  6  5  1  1  0  0  0
  6  7  1  0  0  0  0
  7 27  1  6  0  0  0
  8  7  1  1  0  0  0
  8 13  1  0  0  0  0
  9 16  1  6  0  0  0
  9 10  1  0  0  0  0
  9 14  1  0  0  0  0
 10 12  1  0  0  0  0
 11  8  1  0  0  0  0
 11  9  1  0  0  0  0
 12 13  1  0  0  0  0
 12 20  1  1  0  0  0
 13 22  1  6  0  0  0
 15 14  1  0  0  0  0
 16 18  1  0  0  0  0
 17 16  2  0  0  0  0
 19 18  1  0  0  0  0
 20 21  1  0  0  0  0
 22 23  1  0  0  0  0
 23 25  1  0  0  0  0
 23 26  2  0  0  0  0
 24 22  1  0  0  0  0
 28 27  1  0  0  0  0
 29 30  1  0  0  0  0
 29  6  1  0  0  0  0
 31 32  1  0  0  0  0
 32 33  1  0  0  0  0
 33 34  2  0  0  0  0
 34 36  1  0  0  0  0
 35 33  1  0  0  0  0
 35 37  2  0  0  0  0
 36 38  1  0  0  0  0
 37 36  1  0  0  0  0
 38 40  2  0  0  0  0
 38 39  1  0  0  0  0
 39 41  2  0  0  0  0
 40 42  1  0  0  0  0
 41 43  1  0  0  0  0
 41 44  1  0  0  0  0
 42 43  2  0  0  0  0
 44 45  2  0  0  0  0
 44 46  2  0  0  0  0
 47 48  1  0  0  0  0
 47 44  1  0  0  0  0
 49 47  1  0  0  0  0
 50 51  1  0  0  0  0
 52 51  1  0  0  0  0
 52 53  1  0  0  0  0
 53 54  1  0  0  0  0
 54 55  1  0  0  0  0
M  END
>  <REMARK>
 VINA RESULT:    -4.434      3.844      7.228
 INTER + INTRA:         -14.687
 INTER:                  -8.075
 INTRA:                  -6.611
 UNBOUND:                -6.624
 SMILES CC(=O)N[C@@H]1[C@@H](O)C[C@](O)(C(=O)O)O[C@H]1C(O)[C@H](O)CNC(=O)OCc1cn(-c2cccc(S(N)(=O)=O)c2)nn1
 SMILES IDX 21 1 22 2 23 3 20 5 18 6 16 7 15 8 9 9 8 10 14 11 6 12 5 13
 SMILES IDX 10 14 11 16 12 17 13 18 7 20 4 22 2 23 1 25 3 26 17 27 19 29
 SMILES IDX 24 31 25 32 26 33 27 34 40 35 28 36 39 37 29 38 38 39 30 40
 SMILES IDX 33 41 31 42 32 43 34 44 36 45 37 46 35 47
 H PARENT 21 4 10 15 13 19 7 21 4 24 17 28 19 30 35 48 35 49
 Flexibility Score: inf
  4 active torsions:
  status: ('A' for Active; 'I' for Inactive)
    1  A    between atoms: CA   and  CB  
    2  A    between atoms: CB   and  CG  
    3  A    between atoms: CG   and  CD  
    4  A    between atoms: CD   and  CE  

>  <TORSDO>
F 17

>  <BEGIN_>
RES LYS A 131

$$$$
ligand_23_pose_9_2HRL.pdbqt
 OpenBabel07062320523D

  6  5  0  0  0  0  0  0  0  0999 V2000
   33.1930   34.6630    9.2900 C   0  0  0  0  0  0  0  0  0  0  0  0
   32.0600   35.3600   10.0340 C   0  0  0  0  0  0  0  0  0  0  0  0
   30.6940   34.8240    9.6910 C   0  0  0  0  0  0  0  0  0  0  0  0
   30.5830   34.5530    8.1990 C   0  0  0  0  0  0  0  0  0  0  0  0
   29.2070   34.9350    7.6890 C   0  0  0  0  0  0  0  0  0  0  0  0
   28.1440   34.5030    8.6380 N   0  0  0  0  0  0  0  0  0  0  0  0
  1  2  1  0  0  0  0
  3  2  1  0  0  0  0
  4  3  1  0  0  0  0
  5  4  1  0  0  0  0
  5  6  1  0  0  0  0
M  END
>  <EGIN_R>
ES LYS A 135

>  <REMARK>
  4 active torsions:
  status: ('A' for Active; 'I' for Inactive)
    5  A    between atoms: CA   and  CB  
    6  A    between atoms: CB   and  CG  
    7  A    between atoms: CG   and  CD  
    8  A    between atoms: CD   and  CE  

$$$$
