ligand_66_pose_1_2HRL.pdbqt
 OpenBabel07062320523D

 52 53  0  0  1  0  0  0  0  0999 V2000
   29.4280   30.4250   17.5280 N   0  0  0  0  0  0  0  0  0  0  0  0
   28.4350   30.5520   18.5060 C   0  0  0  0  0  0  0  0  0  0  0  0
   28.3800   31.5640   19.2330 O   0  0  0  0  0  0  0  0  0  0  0  0
   29.4070   29.5360   16.9430 H   0  0  0  0  0  0  0  0  0  0  0  0
   30.4450   31.4130   17.2820 C   0  0  0  0  0  0  0  0  0  0  0  0
   30.1460   32.2820   16.0930 C   0  0  2  0  0  0  0  0  0  0  0  0
   29.3670   33.5080   16.3680 C   0  0  2  0  0  0  0  0  0  0  0  0
   29.3040   34.5140   15.2070 C   0  0  2  0  0  0  0  0  0  0  0  0
   28.0840   35.0250   13.3520 C   0  0  2  0  0  0  0  0  0  0  0  0
   29.2630   34.7350   12.4470 C   0  0  0  0  0  0  0  0  0  0  0  0
   28.2200   34.2450   14.4700 O   0  0  0  0  0  0  0  0  0  0  0  0
   30.5630   35.1010   13.1100 C   0  0  1  0  0  0  0  0  0  0  0  0
   30.6210   34.6790   14.5490 C   0  0  1  0  0  0  0  0  0  0  0  0
   26.9090   34.6410   12.6580 O   0  0  0  0  0  0  0  0  0  0  0  0
   26.2480   35.3570   12.8830 H   0  0  0  0  0  0  0  0  0  0  0  0
   27.9790   36.4710   13.5720 C   0  0  0  0  0  0  0  0  0  0  0  0
   27.5410   36.9520   14.6420 O   0  0  0  0  0  0  0  0  0  0  0  0
   28.3550   37.4290   12.6070 O   0  0  0  0  0  0  0  0  0  0  0  0
   29.3570   37.4650   12.4060 H   0  0  0  0  0  0  0  0  0  0  0  0
   31.5900   34.4960   12.3870 O   0  0  0  0  0  0  0  0  0  0  0  0
   31.2590   33.8300   11.7480 H   0  0  0  0  0  0  0  0  0  0  0  0
   31.4520   35.6180   15.2780 N   0  0  0  0  0  0  0  0  0  0  0  0
   32.8820   35.4600   15.3900 C   0  0  0  0  0  0  0  0  0  0  0  0
   31.0860   36.4700   15.7730 H   0  0  0  0  0  0  0  0  0  0  0  0
   33.6980   36.4550   16.1540 C   0  0  0  0  0  0  0  0  0  0  0  0
   33.4480   34.4890   14.8490 O   0  0  0  0  0  0  0  0  0  0  0  0
   29.8300   34.2190   17.4760 O   0  0  0  0  0  0  0  0  0  0  0  0
   29.2960   35.0300   17.6640 H   0  0  0  0  0  0  0  0  0  0  0  0
   29.6470   31.4640   15.0790 O   0  0  0  0  0  0  0  0  0  0  0  0
   29.2360   32.0470   14.3950 H   0  0  0  0  0  0  0  0  0  0  0  0
   27.4650   29.5730   18.7270 O   0  0  0  0  0  0  0  0  0  0  0  0
   26.9640   28.8640   17.6230 C   0  0  0  0  0  0  0  0  0  0  0  0
   26.0590   29.7450   16.8580 C   0  0  0  0  0  0  0  0  0  0  0  0
   26.1950   30.1860   15.5610 C   0  0  0  0  0  0  0  0  0  0  0  0
   24.9110   30.2810   17.3120 N   0  0  0  0  0  0  0  0  0  0  0  0
   25.1390   30.9670   15.2670 N   0  0  0  0  0  0  0  0  0  0  0  0
   24.3850   30.9970   16.3590 N   0  0  0  0  0  0  0  0  0  0  0  0
   24.7980   31.6610   14.0540 C   0  0  0  0  0  0  0  0  0  0  0  0
   23.5990   31.0340   13.4030 C   0  0  0  0  0  0  0  0  0  0  0  0
   23.6380   29.7100   13.0280 C   0  0  0  0  0  0  0  0  0  0  0  0
   22.4510   31.7430   13.1740 C   0  0  0  0  0  0  0  0  0  0  0  0
   22.5210   29.1170   12.4270 C   0  0  0  0  0  0  0  0  0  0  0  0
   21.3320   31.1920   12.5850 C   0  0  0  0  0  0  0  0  0  0  0  0
   21.3710   29.8680   12.2110 C   0  0  0  0  0  0  0  0  0  0  0  0
   20.1190   31.9130   12.3350 C   0  0  0  0  0  0  0  0  0  0  0  0
   19.1240   32.4950   12.1490 N   0  0  0  0  0  0  0  0  0  0  0  0
   29.8670   25.5550   16.9770 C   0  0  0  0  0  0  0  0  0  0  0  0
   28.3450   25.7220   17.0260 C   0  0  0  0  0  0  0  0  0  0  0  0
   27.5990   24.4260   16.7490 C   0  0  0  0  0  0  0  0  0  0  0  0
   26.9190   23.8900   17.9780 C   0  0  0  0  0  0  0  0  0  0  0  0
   25.6620   24.7070   18.2610 C   0  0  0  0  0  0  0  0  0  0  0  0
   24.6680   24.5220   17.1780 N   0  0  0  0  0  0  0  0  0  0  0  0
  1  2  1  0  0  0  0
  2 31  1  0  0  0  0
  2  3  2  0  0  0  0
  4  1  1  0  0  0  0
  5  1  1  0  0  0  0
  6  7  1  0  0  0  0
  6  5  1  1  0  0  0
  7 27  1  1  0  0  0
  8  7  1  1  0  0  0
  9 14  1  6  0  0  0
  9 16  1  0  0  0  0
  9 11  1  0  0  0  0
 10 12  1  0  0  0  0
 10  9  1  0  0  0  0
 11  8  1  0  0  0  0
 12 20  1  6  0  0  0
 12 13  1  0  0  0  0
 13  8  1  0  0  0  0
 13 22  1  1  0  0  0
 14 15  1  0  0  0  0
 16 17  2  0  0  0  0
 18 16  1  0  0  0  0
 19 18  1  0  0  0  0
 21 20  1  0  0  0  0
 22 23  1  0  0  0  0
 22 24  1  0  0  0  0
 23 25  1  0  0  0  0
 26 23  2  0  0  0  0
 27 28  1  0  0  0  0
 29  6  1  0  0  0  0
 30 29  1  0  0  0  0
 32 31  1  0  0  0  0
 33 35  1  0  0  0  0
 33 32  1  0  0  0  0
 34 33  2  0  0  0  0
 36 34  1  0  0  0  0
 36 37  1  0  0  0  0
 37 35  2  0  0  0  0
 38 36  1  0  0  0  0
 39 38  1  0  0  0  0
 40 39  2  0  0  0  0
 41 39  1  0  0  0  0
 42 40  1  0  0  0  0
 43 41  2  0  0  0  0
 44 42  2  0  0  0  0
 44 43  1  0  0  0  0
 45 43  1  0  0  0  0
 46 45  3  0  0  0  0
 47 48  1  0  0  0  0
 49 48  1  0  0  0  0
 49 50  1  0  0  0  0
 50 51  1  0  0  0  0
 52 51  1  0  0  0  0
M  END
>  <REMARK>
 VINA RESULT:    -5.356      1.632      2.162
 INTER + INTRA:         -15.108
 INTER:                  -9.727
 INTRA:                  -5.381
 UNBOUND:                -5.212
 SMILES CC(=O)N[C@@H]1[C@@H](O)C[C@](O)(C(=O)O)O[C@H]1C(O)[C@H](O)CNC(=O)OCc1cn(Cc2cccc(C#N)c2)nn1
 SMILES IDX 21 1 22 2 23 3 20 5 18 6 16 7 15 8 9 9 8 10 14 11 6 12 5 13
 SMILES IDX 10 14 11 16 12 17 13 18 7 20 4 22 2 23 1 25 3 26 17 27 19 29
 SMILES IDX 24 31 25 32 26 33 27 34 39 35 28 36 38 37 29 38 30 39 31 40
 SMILES IDX 37 41 32 42 34 43 33 44 35 45 36 46
 H PARENT 21 4 10 15 13 19 7 21 4 24 17 28 19 30
 Flexibility Score: inf
  4 active torsions:
  status: ('A' for Active; 'I' for Inactive)
    1  A    between atoms: CA   and  CB  
    2  A    between atoms: CB   and  CG  
    3  A    between atoms: CG   and  CD  
    4  A    between atoms: CD   and  CE  

>  <TORSDO>
F 17

>  <BEGIN_>
RES LYS A 131

$$$$
ligand_66_pose_1_2HRL.pdbqt
 OpenBabel07062320523D

  6  5  0  0  0  0  0  0  0  0999 V2000
   33.1930   34.6630    9.2900 C   0  0  0  0  0  0  0  0  0  0  0  0
   32.0600   35.3600   10.0340 C   0  0  0  0  0  0  0  0  0  0  0  0
   30.8300   35.5780    9.1910 C   0  0  0  0  0  0  0  0  0  0  0  0
   30.1280   34.2580    8.9150 C   0  0  0  0  0  0  0  0  0  0  0  0
   28.6880   34.4970    8.5020 C   0  0  0  0  0  0  0  0  0  0  0  0
   27.7480   33.7280    9.3640 N   0  0  0  0  0  0  0  0  0  0  0  0
  1  2  1  0  0  0  0
  3  2  1  0  0  0  0
  4  3  1  0  0  0  0
  5  4  1  0  0  0  0
  5  6  1  0  0  0  0
M  END
>  <EGIN_R>
ES LYS A 135

>  <REMARK>
  4 active torsions:
  status: ('A' for Active; 'I' for Inactive)
    5  A    between atoms: CA   and  CB  
    6  A    between atoms: CB   and  CG  
    7  A    between atoms: CG   and  CD  
    8  A    between atoms: CD   and  CE  

$$$$
