ligand_18_pose_19_2HRL.pdbqt
 OpenBabel07062320523D

 54 55  0  0  1  0  0  0  0  0999 V2000
   32.9720   28.4440   22.1630 N   0  0  0  0  0  0  0  0  0  0  0  0
   32.9340   28.8250   23.5200 C   0  0  0  0  0  0  0  0  0  0  0  0
   32.6260   30.0090   23.8000 O   0  0  0  0  0  0  0  0  0  0  0  0
   33.2310   27.4540   21.9530 H   0  0  0  0  0  0  0  0  0  0  0  0
   32.6770   29.3160   21.0440 C   0  0  0  0  0  0  0  0  0  0  0  0
   31.3480   28.9750   20.4310 C   0  0  2  0  0  0  0  0  0  0  0  0
   30.1920   29.7390   20.9810 C   0  0  1  0  0  0  0  0  0  0  0  0
   28.9540   29.8120   20.1690 C   0  0  2  0  0  0  0  0  0  0  0  0
   27.4000   28.3100   19.2730 C   0  0  2  0  0  0  0  0  0  0  0  0
   26.6540   29.6120   19.0480 C   0  0  0  0  0  0  0  0  0  0  0  0
   28.5530   28.4470   19.9880 O   0  0  0  0  0  0  0  0  0  0  0  0
   27.5630   30.5440   18.3250 C   0  0  1  0  0  0  0  0  0  0  0  0
   29.0170   30.3700   18.8060 C   0  0  1  0  0  0  0  0  0  0  0  0
   27.6240   27.7840   17.9860 O   0  0  0  0  0  0  0  0  0  0  0  0
   26.8250   27.2480   17.7230 H   0  0  0  0  0  0  0  0  0  0  0  0
   26.5400   27.3400   20.0000 C   0  0  0  0  0  0  0  0  0  0  0  0
   25.3750   27.1430   19.5950 O   0  0  0  0  0  0  0  0  0  0  0  0
   26.9920   26.6440   21.1170 O   0  0  0  0  0  0  0  0  0  0  0  0
   26.6110   26.9430   22.0150 H   0  0  0  0  0  0  0  0  0  0  0  0
   27.4860   30.4490   16.9520 O   0  0  0  0  0  0  0  0  0  0  0  0
   26.9900   31.2130   16.5660 H   0  0  0  0  0  0  0  0  0  0  0  0
   29.6350   31.6270   18.6040 N   0  0  0  0  0  0  0  0  0  0  0  0
   30.3700   31.8780   17.4260 C   0  0  0  0  0  0  0  0  0  0  0  0
   29.5670   32.3840   19.2980 H   0  0  0  0  0  0  0  0  0  0  0  0
   31.0410   33.1890   17.1680 C   0  0  0  0  0  0  0  0  0  0  0  0
   30.5090   31.0020   16.5080 O   0  0  0  0  0  0  0  0  0  0  0  0
   30.0210   29.6490   22.3540 O   0  0  0  0  0  0  0  0  0  0  0  0
   29.1150   29.4730   22.6380 H   0  0  0  0  0  0  0  0  0  0  0  0
   31.1050   27.6120   20.3170 O   0  0  0  0  0  0  0  0  0  0  0  0
   30.1480   27.3930   20.2460 H   0  0  0  0  0  0  0  0  0  0  0  0
   33.2250   27.9330   24.5620 O   0  0  0  0  0  0  0  0  0  0  0  0
   32.6210   26.6530   24.6050 C   0  0  0  0  0  0  0  0  0  0  0  0
   31.1990   26.8000   24.1880 C   0  0  0  0  0  0  0  0  0  0  0  0
   30.1310   27.2440   24.9390 C   0  0  0  0  0  0  0  0  0  0  0  0
   30.6740   26.5240   22.9830 N   0  0  0  0  0  0  0  0  0  0  0  0
   29.0230   27.2220   24.1850 N   0  0  0  0  0  0  0  0  0  0  0  0
   29.3810   26.7800   22.9980 N   0  0  0  0  0  0  0  0  0  0  0  0
   27.6870   27.6320   24.6460 C   0  0  0  0  0  0  0  0  0  0  0  0
   27.4430   28.9840   24.0890 C   0  0  0  0  0  0  0  0  0  0  0  0
   26.8790   29.0750   22.9490 O   0  0  0  0  0  0  0  0  0  0  0  0
   27.7890   30.2010   24.7210 N   0  0  0  0  0  0  0  0  0  0  0  0
   28.2480   30.1250   25.6470 H   0  0  0  0  0  0  0  0  0  0  0  0
   27.5300   31.4980   24.1410 C   0  0  0  0  0  0  0  0  0  0  0  0
   28.7740   32.3310   24.3800 C   0  0  0  0  0  0  0  0  0  0  0  0
   29.9060   32.0080   24.9940 C   0  0  0  0  0  0  0  0  0  0  0  0
   29.0080   33.9740   23.8810 S   0  0  0  0  0  0  0  0  0  0  0  0
   30.9090   32.9060   25.1060 C   0  0  0  0  0  0  0  0  0  0  0  0
   30.6640   34.1640   24.5380 C   0  0  0  0  0  0  0  0  0  0  0  0
   29.8670   25.5550   16.9770 C   0  0  0  0  0  0  0  0  0  0  0  0
   28.3450   25.7220   17.0260 C   0  0  0  0  0  0  0  0  0  0  0  0
   27.6020   24.3990   16.9260 C   0  0  0  0  0  0  0  0  0  0  0  0
   26.1540   24.5320   17.3100 C   0  0  0  0  0  0  0  0  0  0  0  0
   25.7250   23.3080   18.1120 C   0  0  0  0  0  0  0  0  0  0  0  0
   25.5290   23.6640   19.5370 N   0  0  0  0  0  0  0  0  0  0  0  0
  1  2  1  0  0  0  0
  2  3  2  0  0  0  0
  2 31  1  0  0  0  0
  4  1  1  0  0  0  0
  5  1  1  0  0  0  0
  6  7  1  0  0  0  0
  6  5  1  1  0  0  0
  7 27  1  1  0  0  0
  8  7  1  6  0  0  0
  9 14  1  6  0  0  0
  9 11  1  0  0  0  0
  9 16  1  0  0  0  0
 10  9  1  0  0  0  0
 11  8  1  0  0  0  0
 12 20  1  6  0  0  0
 12 13  1  0  0  0  0
 12 10  1  0  0  0  0
 13 22  1  1  0  0  0
 13  8  1  0  0  0  0
 15 14  1  0  0  0  0
 16 18  1  0  0  0  0
 17 16  2  0  0  0  0
 18 19  1  0  0  0  0
 21 20  1  0  0  0  0
 22 24  1  0  0  0  0
 23 22  1  0  0  0  0
 25 23  1  0  0  0  0
 26 23  2  0  0  0  0
 27 28  1  0  0  0  0
 29  6  1  0  0  0  0
 30 29  1  0  0  0  0
 31 32  1  0  0  0  0
 33 32  1  0  0  0  0
 33 34  2  0  0  0  0
 35 37  2  0  0  0  0
 35 33  1  0  0  0  0
 36 38  1  0  0  0  0
 36 34  1  0  0  0  0
 37 36  1  0  0  0  0
 39 38  1  0  0  0  0
 39 41  1  0  0  0  0
 40 39  2  0  0  0  0
 41 42  1  0  0  0  0
 43 44  1  0  0  0  0
 43 41  1  0  0  0  0
 44 45  2  0  0  0  0
 45 47  1  0  0  0  0
 46 44  1  0  0  0  0
 46 48  1  0  0  0  0
 48 47  2  0  0  0  0
 49 50  1  0  0  0  0
 51 50  1  0  0  0  0
 51 52  1  0  0  0  0
 52 53  1  0  0  0  0
 53 54  1  0  0  0  0
M  END
>  <REMARK>
 VINA RESULT:    -4.060      6.609     12.485
 INTER + INTRA:         -14.528
 INTER:                  -6.564
 INTRA:                  -7.964
 UNBOUND:                -6.788
 SMILES CC(=O)N[C@@H]1[C@@H](O)C[C@](O)(C(=O)O)O[C@H]1C(O)[C@H](O)CNC(=O)OCc1cn(CC(=O)NCc2cccs2)nn1
 SMILES IDX 21 1 22 2 23 3 20 5 18 6 16 7 15 8 9 9 8 10 14 11 6 12 5 13
 SMILES IDX 10 14 11 16 12 17 13 18 7 20 4 22 2 23 1 25 3 26 17 27 19 29
 SMILES IDX 24 31 25 32 26 33 27 34 40 35 28 36 39 37 29 38 30 39 31 40
 SMILES IDX 32 41 33 43 34 44 35 45 38 46 36 47 37 48
 H PARENT 21 4 10 15 13 19 7 21 4 24 17 28 19 30 32 42
 Flexibility Score: inf
  4 active torsions:
  status: ('A' for Active; 'I' for Inactive)
    1  A    between atoms: CA   and  CB  
    2  A    between atoms: CB   and  CG  
    3  A    between atoms: CG   and  CD  
    4  A    between atoms: CD   and  CE  

>  <TORSDO>
F 18

>  <BEGIN_>
RES LYS A 131

$$$$
ligand_18_pose_19_2HRL.pdbqt
 OpenBabel07062320523D

  6  5  0  0  0  0  0  0  0  0999 V2000
   33.1930   34.6630    9.2900 C   0  0  0  0  0  0  0  0  0  0  0  0
   32.0600   35.3600   10.0340 C   0  0  0  0  0  0  0  0  0  0  0  0
   30.7290   34.6670    9.8910 C   0  0  0  0  0  0  0  0  0  0  0  0
   30.3390   34.5510    8.4260 C   0  0  0  0  0  0  0  0  0  0  0  0
   29.3240   35.6160    8.0590 C   0  0  0  0  0  0  0  0  0  0  0  0
   28.9010   35.4880    6.6370 N   0  0  0  0  0  0  0  0  0  0  0  0
  1  2  1  0  0  0  0
  3  2  1  0  0  0  0
  4  3  1  0  0  0  0
  5  4  1  0  0  0  0
  6  5  1  0  0  0  0
M  END
>  <EGIN_R>
ES LYS A 135

>  <REMARK>
  4 active torsions:
  status: ('A' for Active; 'I' for Inactive)
    5  A    between atoms: CA   and  CB  
    6  A    between atoms: CB   and  CG  
    7  A    between atoms: CG   and  CD  
    8  A    between atoms: CD   and  CE  

$$$$
