ligand_73_pose_19_2HRL.pdbqt
 OpenBabel07062320523D

 54 55  0  0  1  0  0  0  0  0999 V2000
   25.9580   33.9680   15.6190 N   0  0  0  0  0  0  0  0  0  0  0  0
   24.6310   34.4750   15.6330 C   0  0  0  0  0  0  0  0  0  0  0  0
   24.3400   35.5780   16.2050 O   0  0  0  0  0  0  0  0  0  0  0  0
   26.1530   33.0760   15.1390 H   0  0  0  0  0  0  0  0  0  0  0  0
   26.9990   34.7130   16.2650 C   0  0  0  0  0  0  0  0  0  0  0  0
   28.1930   35.0380   15.4420 C   0  0  2  0  0  0  0  0  0  0  0  0
   28.0160   36.1630   14.4550 C   0  0  1  0  0  0  0  0  0  0  0  0
   29.2900   36.6700   13.8530 C   0  0  2  0  0  0  0  0  0  0  0  0
   31.5820   36.5530   13.9150 C   0  0  2  0  0  0  0  0  0  0  0  0
   31.3790   37.2180   12.5730 C   0  0  0  0  0  0  0  0  0  0  0  0
   30.4000   36.2450   14.5640 O   0  0  0  0  0  0  0  0  0  0  0  0
   30.5630   38.4540   12.7520 C   0  0  1  0  0  0  0  0  0  0  0  0
   29.2660   38.1090   13.4920 C   0  0  1  0  0  0  0  0  0  0  0  0
   32.3110   37.4380   14.6980 O   0  0  0  0  0  0  0  0  0  0  0  0
   32.2070   38.3400   14.2880 H   0  0  0  0  0  0  0  0  0  0  0  0
   32.4070   35.3410   13.6870 C   0  0  0  0  0  0  0  0  0  0  0  0
   32.9440   34.7260   14.6460 O   0  0  0  0  0  0  0  0  0  0  0  0
   32.6030   34.8590   12.4070 O   0  0  0  0  0  0  0  0  0  0  0  0
   32.4200   35.3910   11.5780 H   0  0  0  0  0  0  0  0  0  0  0  0
   31.3450   39.3610   13.4920 O   0  0  0  0  0  0  0  0  0  0  0  0
   31.1350   39.1760   14.4580 H   0  0  0  0  0  0  0  0  0  0  0  0
   28.1660   38.2880   12.5320 N   0  0  0  0  0  0  0  0  0  0  0  0
   27.3040   39.4040   12.5580 C   0  0  0  0  0  0  0  0  0  0  0  0
   28.0210   37.5530   11.8000 H   0  0  0  0  0  0  0  0  0  0  0  0
   26.2050   39.5460   11.5720 C   0  0  0  0  0  0  0  0  0  0  0  0
   27.4630   40.2810   13.4160 O   0  0  0  0  0  0  0  0  0  0  0  0
   27.1660   35.7920   13.4130 O   0  0  0  0  0  0  0  0  0  0  0  0
   26.4210   35.2360   13.6940 H   0  0  0  0  0  0  0  0  0  0  0  0
   28.5430   33.8620   14.7620 O   0  0  0  0  0  0  0  0  0  0  0  0
   27.9680   33.1300   15.1250 H   0  0  0  0  0  0  0  0  0  0  0  0
   23.6500   33.7420   15.0080 O   0  0  0  0  0  0  0  0  0  0  0  0
   23.0010   34.2640   13.8890 C   0  0  0  0  0  0  0  0  0  0  0  0
   23.9130   34.5290   12.7450 C   0  0  0  0  0  0  0  0  0  0  0  0
   23.8110   35.5200   11.7790 C   0  0  0  0  0  0  0  0  0  0  0  0
   25.0280   33.8520   12.4150 N   0  0  0  0  0  0  0  0  0  0  0  0
   24.8340   35.4250   10.9150 N   0  0  0  0  0  0  0  0  0  0  0  0
   25.5620   34.4010   11.3230 N   0  0  0  0  0  0  0  0  0  0  0  0
   25.1220   36.2320    9.7780 C   0  0  0  0  0  0  0  0  0  0  0  0
   24.2520   37.2340    9.4020 C   0  0  0  0  0  0  0  0  0  0  0  0
   26.2550   36.0620    9.0100 C   0  0  0  0  0  0  0  0  0  0  0  0
   24.5130   38.0310    8.2990 C   0  0  0  0  0  0  0  0  0  0  0  0
   26.5580   36.8330    7.8990 C   0  0  0  0  0  0  0  0  0  0  0  0
   25.6530   37.8330    7.5560 C   0  0  0  0  0  0  0  0  0  0  0  0
   27.7210   36.6460    7.1250 N   0  0  0  0  0  0  0  0  0  0  0  0
   27.8490   35.6170    6.4600 O   0  0  0  0  0  0  0  0  0  0  0  0
   28.6920   37.5970    7.1150 O   0  0  0  0  0  0  0  0  0  0  0  0
   25.9590   38.6070    6.4390 O   0  0  0  0  0  0  0  0  0  0  0  0
   26.0740   39.6220    6.5720 H   0  0  0  0  0  0  0  0  0  0  0  0
   29.8670   25.5550   16.9770 C   0  0  0  0  0  0  0  0  0  0  0  0
   28.3450   25.7220   17.0260 C   0  0  0  0  0  0  0  0  0  0  0  0
   27.6010   24.4020   16.8890 C   0  0  0  0  0  0  0  0  0  0  0  0
   26.1610   24.5180   17.3070 C   0  0  0  0  0  0  0  0  0  0  0  0
   25.8920   23.5720   18.4730 C   0  0  0  0  0  0  0  0  0  0  0  0
   25.5070   24.3360   19.6830 N   0  0  0  0  0  0  0  0  0  0  0  0
  1  2  1  0  0  0  0
  1  5  1  0  0  0  0
  2  3  2  0  0  0  0
  4  1  1  0  0  0  0
  6  5  1  6  0  0  0
  7 27  1  6  0  0  0
  7  6  1  0  0  0  0
  8  7  1  1  0  0  0
  8 11  1  0  0  0  0
  9 16  1  6  0  0  0
  9 11  1  0  0  0  0
  9 14  1  0  0  0  0
 10 12  1  0  0  0  0
 10  9  1  0  0  0  0
 12 20  1  1  0  0  0
 12 13  1  0  0  0  0
 13 22  1  6  0  0  0
 13  8  1  0  0  0  0
 15 14  1  0  0  0  0
 16 17  2  0  0  0  0
 18 16  1  0  0  0  0
 19 18  1  0  0  0  0
 20 21  1  0  0  0  0
 22 23  1  0  0  0  0
 23 26  2  0  0  0  0
 24 22  1  0  0  0  0
 25 23  1  0  0  0  0
 27 28  1  0  0  0  0
 29 30  1  0  0  0  0
 29  6  1  0  0  0  0
 31  2  1  0  0  0  0
 32 31  1  0  0  0  0
 33 32  1  0  0  0  0
 34 33  2  0  0  0  0
 35 33  1  0  0  0  0
 36 37  1  0  0  0  0
 36 34  1  0  0  0  0
 37 35  2  0  0  0  0
 38 36  1  0  0  0  0
 39 38  1  0  0  0  0
 40 38  2  0  0  0  0
 41 39  2  0  0  0  0
 42 40  1  0  0  0  0
 43 42  2  0  0  0  0
 43 41  1  0  0  0  0
 44 42  1  0  0  0  0
 45 44  2  0  0  0  0
 46 44  2  0  0  0  0
 47 48  1  0  0  0  0
 47 43  1  0  0  0  0
 49 50  1  0  0  0  0
 51 50  1  0  0  0  0
 51 52  1  0  0  0  0
 52 53  1  0  0  0  0
 53 54  1  0  0  0  0
M  END
>  <REMARK>
 VINA RESULT:    -3.845      4.050      8.261
 INTER + INTRA:         -14.303
 INTER:                  -7.710
 INTRA:                  -6.593
 UNBOUND:                -7.311
 SMILES CC(=O)N[C@@H]1[C@@H](O)C[C@](O)(C(=O)O)O[C@H]1C(O)[C@H](O)CNC(=O)OCc1cn(-c2ccc(O)c([N+](=O)[O-])c2)nn1
 SMILES IDX 21 1 22 2 23 3 20 5 18 6 16 7 15 8 9 9 8 10 14 11 6 12 5 13
 SMILES IDX 10 14 11 16 12 17 13 18 7 20 4 22 2 23 1 25 3 26 17 27 19 29
 SMILES IDX 24 31 25 32 26 33 27 34 40 35 28 36 39 37 29 38 30 39 38 40
 SMILES IDX 31 41 34 42 32 43 35 44 36 45 37 46 33 47
 H PARENT 21 4 10 15 13 19 7 21 4 24 17 28 19 30 33 48
 Flexibility Score: inf
  4 active torsions:
  status: ('A' for Active; 'I' for Inactive)
    1  A    between atoms: CA   and  CB  
    2  A    between atoms: CB   and  CG  
    3  A    between atoms: CG   and  CD  
    4  A    between atoms: CD   and  CE  

>  <TORSDO>
F 17

>  <BEGIN_>
RES LYS A 131

$$$$
ligand_73_pose_19_2HRL.pdbqt
 OpenBabel07062320523D

  6  5  0  0  0  0  0  0  0  0999 V2000
   33.1930   34.6630    9.2900 C   0  0  0  0  0  0  0  0  0  0  0  0
   32.0600   35.3600   10.0340 C   0  0  0  0  0  0  0  0  0  0  0  0
   30.8180   35.5480    9.2010 C   0  0  0  0  0  0  0  0  0  0  0  0
   30.2650   34.2040    8.7520 C   0  0  0  0  0  0  0  0  0  0  0  0
   28.9300   33.9280    9.4160 C   0  0  0  0  0  0  0  0  0  0  0  0
   28.8990   34.4690   10.8040 N   0  0  0  0  0  0  0  0  0  0  0  0
  1  2  1  0  0  0  0
  3  2  1  0  0  0  0
  4  3  1  0  0  0  0
  4  5  1  0  0  0  0
  5  6  1  0  0  0  0
M  END
>  <EGIN_R>
ES LYS A 135

>  <REMARK>
  4 active torsions:
  status: ('A' for Active; 'I' for Inactive)
    5  A    between atoms: CA   and  CB  
    6  A    between atoms: CB   and  CG  
    7  A    between atoms: CG   and  CD  
    8  A    between atoms: CD   and  CE  

$$$$
