ligand_51_pose_12_2HRL.pdbqt
 OpenBabel07062320523D

 53 56  0  0  1  0  0  0  0  0999 V2000
   26.1420   37.2040    7.3370 C   0  0  0  0  0  0  0  0  0  0  0  0
   27.4200   37.2880    6.5420 C   0  0  2  0  0  0  0  0  0  0  0  0
   28.0950   38.6390    6.6640 C   0  0  1  0  0  0  0  0  0  0  0  0
   29.5370   38.4650    7.1510 C   0  0  2  0  0  0  0  0  0  0  0  0
   29.7370   38.5830    9.4840 C   0  0  2  0  0  0  0  0  0  0  0  0
   29.6270   40.0780    9.3240 C   0  0  0  0  0  0  0  0  0  0  0  0
   29.6220   37.8470    8.3570 O   0  0  0  0  0  0  0  0  0  0  0  0
   30.5220   40.5300    8.2230 C   0  0  1  0  0  0  0  0  0  0  0  0
   30.3530   39.6940    6.9830 C   0  0  1  0  0  0  0  0  0  0  0  0
   28.6570   38.2290   10.3260 O   0  0  0  0  0  0  0  0  0  0  0  0
   28.2660   37.3960    9.9510 H   0  0  0  0  0  0  0  0  0  0  0  0
   30.9800   38.3190   10.2520 C   0  0  0  0  0  0  0  0  0  0  0  0
   30.9860   38.2240   11.5100 O   0  0  0  0  0  0  0  0  0  0  0  0
   32.1770   38.1680    9.5880 O   0  0  0  0  0  0  0  0  0  0  0  0
   33.0670   38.4900    9.9730 H   0  0  0  0  0  0  0  0  0  0  0  0
   30.2410   41.8940    7.9810 O   0  0  0  0  0  0  0  0  0  0  0  0
   29.3390   42.1100    8.3000 H   0  0  0  0  0  0  0  0  0  0  0  0
   31.6620   39.3140    6.4690 N   0  0  0  0  0  0  0  0  0  0  0  0
   32.4210   40.1610    5.6200 C   0  0  0  0  0  0  0  0  0  0  0  0
   32.0740   38.3710    6.7330 H   0  0  0  0  0  0  0  0  0  0  0  0
   33.7340   39.6980    5.1480 C   0  0  0  0  0  0  0  0  0  0  0  0
   31.9310   41.2870    5.3040 O   0  0  0  0  0  0  0  0  0  0  0  0
   28.0100   39.3920    5.5330 O   0  0  0  0  0  0  0  0  0  0  0  0
   28.8420   39.6530    5.1110 H   0  0  0  0  0  0  0  0  0  0  0  0
   27.1160   36.9730    5.2210 O   0  0  0  0  0  0  0  0  0  0  0  0
   26.7890   36.0180    5.1900 H   0  0  0  0  0  0  0  0  0  0  0  0
   26.5130   37.2030    8.7410 N   0  0  0  0  0  0  0  0  0  0  0  0
   25.9200   36.2950    9.6830 C   0  0  0  0  0  0  0  0  0  0  0  0
   27.2250   37.8560    9.1470 H   0  0  0  0  0  0  0  0  0  0  0  0
   25.0600   35.4900    9.2470 O   0  0  0  0  0  0  0  0  0  0  0  0
   26.2610   36.2820   11.0140 O   0  0  0  0  0  0  0  0  0  0  0  0
   25.5920   35.4010   11.8880 C   0  0  0  0  0  0  0  0  0  0  0  0
   26.5730   34.9920   12.9430 C   0  0  0  0  0  0  0  0  0  0  0  0
   27.8560   35.4970   13.0450 C   0  0  0  0  0  0  0  0  0  0  0  0
   26.4530   34.1210   13.9410 N   0  0  0  0  0  0  0  0  0  0  0  0
   28.4440   34.9180   14.0820 N   0  0  0  0  0  0  0  0  0  0  0  0
   27.5790   34.0830   14.6200 N   0  0  0  0  0  0  0  0  0  0  0  0
   29.8160   35.1900   14.5170 C   0  0  2  0  0  0  0  0  0  0  0  0
   30.7260   34.6180   13.4390 C   0  0  0  0  0  0  0  0  0  0  0  0
   30.0970   34.5410   15.8370 C   0  0  0  0  0  0  0  0  0  0  0  0
   30.0100   36.6800   14.6500 C   0  0  0  0  0  0  0  0  0  0  0  0
   32.1710   34.8900   13.8130 C   0  0  1  0  0  0  0  0  0  0  0  0
   31.5530   34.7670   16.1760 C   0  0  1  0  0  0  0  0  0  0  0  0
   31.4550   36.9520   15.0090 C   0  0  2  0  0  0  0  0  0  0  0  0
   32.3580   36.3740   13.9330 C   0  0  0  0  0  0  0  0  0  0  0  0
   32.4440   34.1860   15.1190 C   0  0  0  0  0  0  0  0  0  0  0  0
   31.7560   36.2590   16.3150 C   0  0  0  0  0  0  0  0  0  0  0  0
   29.8670   25.5550   16.9770 C   0  0  0  0  0  0  0  0  0  0  0  0
   28.3450   25.7220   17.0260 C   0  0  0  0  0  0  0  0  0  0  0  0
   27.6020   24.3990   16.9190 C   0  0  0  0  0  0  0  0  0  0  0  0
   26.1590   24.5260   17.3230 C   0  0  0  0  0  0  0  0  0  0  0  0
   25.8070   23.4160   18.3090 C   0  0  0  0  0  0  0  0  0  0  0  0
   25.1180   22.3040   17.6130 N   0  0  0  0  0  0  0  0  0  0  0  0
  1 27  1  0  0  0  0
  2  3  1  0  0  0  0
  2  1  1  1  0  0  0
  3 23  1  6  0  0  0
  4  3  1  1  0  0  0
  4  7  1  0  0  0  0
  5 12  1  1  0  0  0
  5 10  1  0  0  0  0
  6  5  1  0  0  0  0
  7  5  1  0  0  0  0
  8 16  1  6  0  0  0
  8  6  1  0  0  0  0
  9 18  1  1  0  0  0
  9  4  1  0  0  0  0
  9  8  1  0  0  0  0
 11 10  1  0  0  0  0
 12 13  2  0  0  0  0
 14 15  1  0  0  0  0
 14 12  1  0  0  0  0
 16 17  1  0  0  0  0
 18 20  1  0  0  0  0
 19 18  1  0  0  0  0
 21 19  1  0  0  0  0
 22 19  2  0  0  0  0
 24 23  1  0  0  0  0
 25  2  1  0  0  0  0
 26 25  1  0  0  0  0
 27 29  1  0  0  0  0
 27 28  1  0  0  0  0
 28 31  1  0  0  0  0
 30 28  2  0  0  0  0
 31 32  1  0  0  0  0
 32 33  1  0  0  0  0
 33 34  2  0  0  0  0
 33 35  1  0  0  0  0
 34 36  1  0  0  0  0
 35 37  2  0  0  0  0
 36 38  1  0  0  0  0
 36 37  1  0  0  0  0
 38 39  1  6  0  0  0
 38 41  1  0  0  0  0
 38 40  1  0  0  0  0
 40 43  1  0  0  0  0
 41 44  1  0  0  0  0
 42 39  1  1  0  0  0
 42 45  1  0  0  0  0
 42 46  1  0  0  0  0
 43 46  1  6  0  0  0
 43 47  1  0  0  0  0
 44 45  1  6  0  0  0
 44 47  1  0  0  0  0
 48 49  1  0  0  0  0
 50 49  1  0  0  0  0
 50 51  1  0  0  0  0
 51 52  1  0  0  0  0
 53 52  1  0  0  0  0
M  END
>  <REMARK>
 VINA RESULT:    -4.742      7.521     12.525
 INTER + INTRA:         -14.762
 INTER:                  -9.085
 INTRA:                  -5.678
 UNBOUND:                -6.554
 SMILES CC(=O)N[C@@H]1[C@@H](O)C[C@](O)(C(=O)O)O[C@H]1C(O)[C@H](O)CNC(=O)OCc1cn(C23CC4CC(CC(C4)C2)C3)nn1
 SMILES IDX 20 1 18 2 16 3 15 4 9 5 8 6 14 7 6 8 5 9 10 10 11 12 12 13
 SMILES IDX 13 14 7 16 4 18 2 19 1 21 3 22 17 23 19 25 21 27 22 28 23 30
 SMILES IDX 24 31 25 32 26 33 27 34 40 35 28 36 39 37 29 38 38 39 37 40
 SMILES IDX 30 41 33 42 35 43 31 44 32 45 34 46 36 47
 H PARENT 10 11 13 15 7 17 4 20 17 24 19 26 21 29
 Flexibility Score: inf
  4 active torsions:
  status: ('A' for Active; 'I' for Inactive)
    1  A    between atoms: CA   and  CB  
    2  A    between atoms: CB   and  CG  
    3  A    between atoms: CG   and  CD  
    4  A    between atoms: CD   and  CE  

>  <TORSDO>
F 15

>  <BEGIN_>
RES LYS A 131

$$$$
ligand_51_pose_12_2HRL.pdbqt
 OpenBabel07062320523D

  6  5  0  0  0  0  0  0  0  0999 V2000
   33.1930   34.6630    9.2900 C   0  0  0  0  0  0  0  0  0  0  0  0
   32.0600   35.3600   10.0340 C   0  0  0  0  0  0  0  0  0  0  0  0
   30.7470   34.6250    9.9570 C   0  0  0  0  0  0  0  0  0  0  0  0
   30.3220   34.4340    8.5090 C   0  0  0  0  0  0  0  0  0  0  0  0
   28.8100   34.3890    8.3990 C   0  0  0  0  0  0  0  0  0  0  0  0
   28.2060   33.7220    9.5850 N   0  0  0  0  0  0  0  0  0  0  0  0
  1  2  1  0  0  0  0
  3  2  1  0  0  0  0
  4  3  1  0  0  0  0
  5  4  1  0  0  0  0
  5  6  1  0  0  0  0
M  END
>  <EGIN_R>
ES LYS A 135

>  <REMARK>
  4 active torsions:
  status: ('A' for Active; 'I' for Inactive)
    5  A    between atoms: CA   and  CB  
    6  A    between atoms: CB   and  CG  
    7  A    between atoms: CG   and  CD  
    8  A    between atoms: CD   and  CE  

$$$$
