ligand_25_pose_12_2HRL.pdbqt
 OpenBabel07062320523D

 56 59  0  0  1  0  0  0  0  0999 V2000
   23.1580   40.7680    7.1520 C   0  0  0  0  0  0  0  0  0  0  0  0
   22.8340   39.6170    8.0310 C   0  0  2  0  0  0  0  0  0  0  0  0
   23.5670   38.3640    7.6720 C   0  0  1  0  0  0  0  0  0  0  0  0
   24.2650   37.6620    8.8030 C   0  0  2  0  0  0  0  0  0  0  0  0
   22.7350   36.6550   10.2620 C   0  0  2  0  0  0  0  0  0  0  0  0
   23.6730   36.6330   11.4510 C   0  0  0  0  0  0  0  0  0  0  0  0
   23.4630   36.5640    9.1190 O   0  0  0  0  0  0  0  0  0  0  0  0
   24.7460   37.6380   11.2420 C   0  0  1  0  0  0  0  0  0  0  0  0
   24.5190   38.5260   10.0080 C   0  0  1  0  0  0  0  0  0  0  0  0
   21.9200   37.7460   10.4060 O   0  0  0  0  0  0  0  0  0  0  0  0
   22.3880   38.5890   10.2150 H   0  0  0  0  0  0  0  0  0  0  0  0
   21.9100   35.4120   10.3670 C   0  0  0  0  0  0  0  0  0  0  0  0
   22.0540   34.6620   11.3600 O   0  0  0  0  0  0  0  0  0  0  0  0
   20.9820   35.0470    9.4020 O   0  0  0  0  0  0  0  0  0  0  0  0
   19.9740   35.1330    9.5890 H   0  0  0  0  0  0  0  0  0  0  0  0
   24.9430   38.4850   12.3210 O   0  0  0  0  0  0  0  0  0  0  0  0
   24.6630   39.4120   12.1490 H   0  0  0  0  0  0  0  0  0  0  0  0
   25.7730   39.2290    9.8510 N   0  0  0  0  0  0  0  0  0  0  0  0
   25.9340   40.6340    9.9590 C   0  0  0  0  0  0  0  0  0  0  0  0
   26.6220   38.6620    9.6450 H   0  0  0  0  0  0  0  0  0  0  0  0
   27.2700   41.2890    9.7820 C   0  0  0  0  0  0  0  0  0  0  0  0
   24.9100   41.3190   10.2110 O   0  0  0  0  0  0  0  0  0  0  0  0
   22.8340   37.4620    6.9100 O   0  0  0  0  0  0  0  0  0  0  0  0
   23.3580   36.9050    6.3120 H   0  0  0  0  0  0  0  0  0  0  0  0
   21.4750   39.3290    7.9400 O   0  0  0  0  0  0  0  0  0  0  0  0
   21.0410   39.2370    8.8100 H   0  0  0  0  0  0  0  0  0  0  0  0
   24.3870   40.6930    6.4540 N   0  0  0  0  0  0  0  0  0  0  0  0
   25.3830   41.6850    6.4970 C   0  0  0  0  0  0  0  0  0  0  0  0
   24.5930   39.8340    5.8480 H   0  0  0  0  0  0  0  0  0  0  0  0
   25.2650   42.7070    7.1650 O   0  0  0  0  0  0  0  0  0  0  0  0
   26.5770   41.5480    5.7660 O   0  0  0  0  0  0  0  0  0  0  0  0
   26.7720   40.5710    4.7900 C   0  0  0  0  0  0  0  0  0  0  0  0
   27.5570   39.4040    5.2610 C   0  0  0  0  0  0  0  0  0  0  0  0
   27.8840   39.0310    6.5420 C   0  0  0  0  0  0  0  0  0  0  0  0
   28.0880   38.4960    4.4390 N   0  0  0  0  0  0  0  0  0  0  0  0
   28.5990   37.9150    6.4520 N   0  0  0  0  0  0  0  0  0  0  0  0
   28.7120   37.6060    5.1760 N   0  0  0  0  0  0  0  0  0  0  0  0
   29.1710   37.1420    7.5440 C   0  0  0  0  0  0  0  0  0  0  0  0
   28.1900   36.2110    8.1270 C   0  0  0  0  0  0  0  0  0  0  0  0
   29.6340   37.9760    8.6420 C   0  0  0  0  0  0  0  0  0  0  0  0
   27.4350   35.1920    7.5200 C   0  0  0  0  0  0  0  0  0  0  0  0
   28.0950   36.4880    9.4610 C   0  0  0  0  0  0  0  0  0  0  0  0
   28.9960   37.5910    9.7910 C   0  0  0  0  0  0  0  0  0  0  0  0
   30.5610   39.0350    8.7210 C   0  0  0  0  0  0  0  0  0  0  0  0
   26.5810   34.4610    8.3080 C   0  0  0  0  0  0  0  0  0  0  0  0
   27.2150   35.7240   10.2280 C   0  0  0  0  0  0  0  0  0  0  0  0
   29.2200   38.1960   11.0310 C   0  0  0  0  0  0  0  0  0  0  0  0
   30.7960   39.6440    9.9260 C   0  0  0  0  0  0  0  0  0  0  0  0
   26.4640   34.7190    9.6590 C   0  0  0  0  0  0  0  0  0  0  0  0
   30.1310   39.2270   11.0670 C   0  0  0  0  0  0  0  0  0  0  0  0
   29.8670   25.5550   16.9770 C   0  0  0  0  0  0  0  0  0  0  0  0
   28.3450   25.7220   17.0260 C   0  0  0  0  0  0  0  0  0  0  0  0
   27.6000   24.4070   16.8560 C   0  0  0  0  0  0  0  0  0  0  0  0
   26.5760   24.1920   17.9350 C   0  0  0  0  0  0  0  0  0  0  0  0
   25.2060   23.9730   17.3000 C   0  0  0  0  0  0  0  0  0  0  0  0
   24.6740   22.6380   17.6620 N   0  0  0  0  0  0  0  0  0  0  0  0
  2  1  1  6  0  0  0
  3 23  1  1  0  0  0
  3  2  1  0  0  0  0
  4  3  1  6  0  0  0
  4  7  1  0  0  0  0
  4  9  1  0  0  0  0
  5 12  1  1  0  0  0
  5 10  1  0  0  0  0
  5  6  1  0  0  0  0
  7  5  1  0  0  0  0
  8  6  1  0  0  0  0
  8 16  1  1  0  0  0
  9 18  1  6  0  0  0
  9  8  1  0  0  0  0
 11 10  1  0  0  0  0
 12 13  2  0  0  0  0
 14 15  1  0  0  0  0
 14 12  1  0  0  0  0
 17 16  1  0  0  0  0
 18 19  1  0  0  0  0
 19 22  2  0  0  0  0
 20 18  1  0  0  0  0
 21 19  1  0  0  0  0
 24 23  1  0  0  0  0
 25  2  1  0  0  0  0
 25 26  1  0  0  0  0
 27 28  1  0  0  0  0
 27  1  1  0  0  0  0
 28 30  2  0  0  0  0
 29 27  1  0  0  0  0
 31 28  1  0  0  0  0
 32 33  1  0  0  0  0
 32 31  1  0  0  0  0
 33 34  2  0  0  0  0
 35 37  2  0  0  0  0
 35 33  1  0  0  0  0
 36 34  1  0  0  0  0
 36 38  1  0  0  0  0
 37 36  1  0  0  0  0
 38 39  1  0  0  0  0
 38 40  1  0  0  0  0
 39 42  1  0  0  0  0
 40 44  2  0  0  0  0
 40 43  1  0  0  0  0
 41 39  2  0  0  0  0
 41 45  1  0  0  0  0
 42 43  1  0  0  0  0
 42 46  2  0  0  0  0
 43 47  2  0  0  0  0
 44 48  1  0  0  0  0
 45 49  2  0  0  0  0
 47 50  1  0  0  0  0
 48 50  2  0  0  0  0
 49 46  1  0  0  0  0
 51 52  1  0  0  0  0
 53 52  1  0  0  0  0
 53 54  1  0  0  0  0
 55 56  1  0  0  0  0
 55 54  1  0  0  0  0
M  END
>  <REMARK>
 VINA RESULT:    -6.380      4.646      8.261
 INTER + INTRA:         -15.619
 INTER:                  -9.457
 INTRA:                  -6.162
 UNBOUND:                -4.578
 SMILES CC(=O)N[C@@H]1[C@@H](O)C[C@](O)(C(=O)O)O[C@H]1C(O)[C@H](O)CNC(=O)OCc1cn(C2c3ccccc3-c3ccccc32)nn1
 SMILES IDX 20 1 18 2 16 3 15 4 9 5 8 6 14 7 6 8 5 9 10 10 11 12 12 13
 SMILES IDX 13 14 7 16 4 18 2 19 1 21 3 22 17 23 19 25 21 27 22 28 23 30
 SMILES IDX 24 31 25 32 26 33 27 34 43 35 28 36 42 37 29 38 30 39 41 40
 SMILES IDX 31 41 35 42 36 43 40 44 32 45 34 46 37 47 39 48 33 49 38 50
 H PARENT 10 11 13 15 7 17 4 20 17 24 19 26 21 29
 Flexibility Score: inf
  4 active torsions:
  status: ('A' for Active; 'I' for Inactive)
    1  A    between atoms: CA   and  CB  
    2  A    between atoms: CB   and  CG  
    3  A    between atoms: CG   and  CD  
    4  A    between atoms: CD   and  CE  

>  <TORSDO>
F 15

>  <BEGIN_>
RES LYS A 131

$$$$
ligand_25_pose_12_2HRL.pdbqt
 OpenBabel07062320523D

  6  5  0  0  0  0  0  0  0  0999 V2000
   33.1930   34.6630    9.2900 C   0  0  0  0  0  0  0  0  0  0  0  0
   32.0600   35.3600   10.0340 C   0  0  0  0  0  0  0  0  0  0  0  0
   30.8410   34.4950   10.2220 C   0  0  0  0  0  0  0  0  0  0  0  0
   30.3460   34.5690   11.6580 C   0  0  0  0  0  0  0  0  0  0  0  0
   31.3080   35.3720   12.5120 C   0  0  0  0  0  0  0  0  0  0  0  0
   31.3580   34.8460   13.9040 N   0  0  0  0  0  0  0  0  0  0  0  0
  1  2  1  0  0  0  0
  2  3  1  0  0  0  0
  3  4  1  0  0  0  0
  4  5  1  0  0  0  0
  5  6  1  0  0  0  0
M  END
>  <EGIN_R>
ES LYS A 135

>  <REMARK>
  4 active torsions:
  status: ('A' for Active; 'I' for Inactive)
    5  A    between atoms: CA   and  CB  
    6  A    between atoms: CB   and  CG  
    7  A    between atoms: CG   and  CD  
    8  A    between atoms: CD   and  CE  

$$$$
