ligand_74_pose_15_2HRL.pdbqt
 OpenBabel07062320523D

 54 54  0  0  1  0  0  0  0  0999 V2000
   30.8830   37.3810   15.8400 O   0  0  0  0  0  0  0  0  0  0  0  0
   29.6740   37.3410   16.5580 C   0  0  0  0  0  0  0  0  0  0  0  0
   29.1450   36.1200   17.0410 N   0  0  0  0  0  0  0  0  0  0  0  0
   29.7200   35.2450   16.8300 H   0  0  0  0  0  0  0  0  0  0  0  0
   29.0760   38.4260   16.7560 O   0  0  0  0  0  0  0  0  0  0  0  0
   27.9070   36.0210   17.7800 C   0  0  0  0  0  0  0  0  0  0  0  0
   27.8980   34.7590   18.5710 C   0  0  2  0  0  0  0  0  0  0  0  0
   27.3570   33.5620   17.8060 C   0  0  2  0  0  0  0  0  0  0  0  0
   28.4340   32.5680   17.5030 C   0  0  2  0  0  0  0  0  0  0  0  0
   30.1080   33.0010   15.9530 C   0  0  2  0  0  0  0  0  0  0  0  0
   30.1670   31.5780   15.4530 C   0  0  0  0  0  0  0  0  0  0  0  0
   29.6710   33.0880   17.2650 O   0  0  0  0  0  0  0  0  0  0  0  0
   29.2040   30.6800   16.2000 C   0  0  1  0  0  0  0  0  0  0  0  0
   27.9690   31.5520   16.4630 C   0  0  1  0  0  0  0  0  0  0  0  0
   29.3490   33.8000   15.0940 O   0  0  0  0  0  0  0  0  0  0  0  0
   28.3990   33.5790   15.0970 H   0  0  0  0  0  0  0  0  0  0  0  0
   31.4960   33.5350   15.9230 C   0  0  0  0  0  0  0  0  0  0  0  0
   31.9120   34.2100   16.9140 O   0  0  0  0  0  0  0  0  0  0  0  0
   32.3670   33.3390   14.8730 O   0  0  0  0  0  0  0  0  0  0  0  0
   32.9940   34.1090   14.5910 H   0  0  0  0  0  0  0  0  0  0  0  0
   28.8940   29.5290   15.5190 O   0  0  0  0  0  0  0  0  0  0  0  0
   27.9420   29.6260   15.2060 H   0  0  0  0  0  0  0  0  0  0  0  0
   26.8970   30.7670   17.0250 N   0  0  0  0  0  0  0  0  0  0  0  0
   25.7240   30.4810   16.2600 C   0  0  0  0  0  0  0  0  0  0  0  0
   26.9180   30.3750   17.9980 H   0  0  0  0  0  0  0  0  0  0  0  0
   24.6110   29.6820   16.8050 C   0  0  0  0  0  0  0  0  0  0  0  0
   25.6320   30.9210   15.0870 O   0  0  0  0  0  0  0  0  0  0  0  0
   26.6300   33.9690   16.7110 O   0  0  0  0  0  0  0  0  0  0  0  0
   26.5460   33.2180   16.0870 H   0  0  0  0  0  0  0  0  0  0  0  0
   27.0510   34.9450   19.6890 O   0  0  0  0  0  0  0  0  0  0  0  0
   27.5720   35.0040   20.5220 H   0  0  0  0  0  0  0  0  0  0  0  0
   30.8190   37.7330   14.4810 C   0  0  0  0  0  0  0  0  0  0  0  0
   30.4730   36.5880   13.6190 C   0  0  0  0  0  0  0  0  0  0  0  0
   29.2870   36.2900   12.9650 C   0  0  0  0  0  0  0  0  0  0  0  0
   31.3010   35.5840   13.3050 N   0  0  0  0  0  0  0  0  0  0  0  0
   29.4380   35.1370   12.2900 N   0  0  0  0  0  0  0  0  0  0  0  0
   30.6620   34.7310   12.5120 N   0  0  0  0  0  0  0  0  0  0  0  0
   28.3810   34.4910   11.4640 C   0  0  0  0  0  0  0  0  0  0  0  0
   27.1050   35.2450   11.6030 C   0  0  2  0  0  0  0  0  0  0  0  0
   26.3050   34.6020   12.7220 C   0  0  0  0  0  0  0  0  0  0  0  0
   25.7080   35.6650   13.5700 C   0  0  0  0  0  0  0  0  0  0  0  0
   26.2840   36.0650   14.5970 O   0  0  0  0  0  0  0  0  0  0  0  0
   24.4780   36.1940   13.1660 O   0  0  0  0  0  0  0  0  0  0  0  0
   23.6680   35.6060   13.1570 H   0  0  0  0  0  0  0  0  0  0  0  0
   26.3730   35.4040   10.3350 C   0  0  0  0  0  0  0  0  0  0  0  0
   26.0970   36.7750    9.8490 C   0  0  0  0  0  0  0  0  0  0  0  0
   27.4070   37.5750   10.0990 C   0  0  0  0  0  0  0  0  0  0  0  0
   25.7630   36.9350    8.4050 C   0  0  0  0  0  0  0  0  0  0  0  0
   29.8670   25.5550   16.9770 C   0  0  0  0  0  0  0  0  0  0  0  0
   28.3450   25.7220   17.0260 C   0  0  0  0  0  0  0  0  0  0  0  0
   27.5990   24.4310   16.7260 C   0  0  0  0  0  0  0  0  0  0  0  0
   26.9950   23.8260   17.9630 C   0  0  0  0  0  0  0  0  0  0  0  0
   25.5410   23.4540   17.6900 C   0  0  0  0  0  0  0  0  0  0  0  0
   24.8970   24.4760   16.8310 N   0  0  0  0  0  0  0  0  0  0  0  0
  1  2  1  0  0  0  0
  2  5  2  0  0  0  0
  2  3  1  0  0  0  0
  3  6  1  0  0  0  0
  4  3  1  0  0  0  0
  7  6  1  6  0  0  0
  7 30  1  0  0  0  0
  8 28  1  6  0  0  0
  8  7  1  0  0  0  0
  9  8  1  6  0  0  0
 10 15  1  6  0  0  0
 10 12  1  0  0  0  0
 11 10  1  0  0  0  0
 11 13  1  0  0  0  0
 12  9  1  0  0  0  0
 13 21  1  6  0  0  0
 13 14  1  0  0  0  0
 14 23  1  1  0  0  0
 14  9  1  0  0  0  0
 15 16  1  0  0  0  0
 17 10  1  0  0  0  0
 17 18  2  0  0  0  0
 19 17  1  0  0  0  0
 20 19  1  0  0  0  0
 22 21  1  0  0  0  0
 23 25  1  0  0  0  0
 24 26  1  0  0  0  0
 24 23  1  0  0  0  0
 27 24  2  0  0  0  0
 29 28  1  0  0  0  0
 30 31  1  0  0  0  0
 32  1  1  0  0  0  0
 33 32  1  0  0  0  0
 34 33  2  0  0  0  0
 35 33  1  0  0  0  0
 36 37  1  0  0  0  0
 36 34  1  0  0  0  0
 37 35  2  0  0  0  0
 38 39  1  0  0  0  0
 38 36  1  0  0  0  0
 39 45  1  6  0  0  0
 39 40  1  0  0  0  0
 40 41  1  0  0  0  0
 41 42  2  0  0  0  0
 43 41  1  0  0  0  0
 44 43  1  0  0  0  0
 46 47  1  0  0  0  0
 46 45  1  0  0  0  0
 48 46  1  0  0  0  0
 49 50  1  0  0  0  0
 51 50  1  0  0  0  0
 51 52  1  0  0  0  0
 53 52  1  0  0  0  0
 54 53  1  0  0  0  0
M  END
>  <REMARK>
 VINA RESULT:    -4.006      4.175      6.612
 INTER + INTRA:         -15.339
 INTER:                  -7.376
 INTRA:                  -7.963
 UNBOUND:                -7.118
 SMILES CC(=O)N[C@@H]1[C@@H](O)C[C@](O)(C(=O)O)O[C@H]1C(O)[C@H](O)CNC(=O)OCc1cn(C[C@H](CC(=O)O)CC(C)C)nn1
 SMILES IDX 24 1 22 2 21 3 23 5 20 6 18 7 16 8 15 9 9 10 8 11 14 12 6 13
 SMILES IDX 5 14 10 15 11 17 12 18 13 19 7 21 4 23 2 24 1 26 3 27 17 28
 SMILES IDX 19 30 25 32 26 33 27 34 40 35 28 36 39 37 29 38 30 39 31 40
 SMILES IDX 32 41 33 42 34 43 35 45 36 46 37 47 38 48
 H PARENT 21 4 10 16 13 20 7 22 4 25 17 29 19 31 34 44
 Flexibility Score: inf
  4 active torsions:
  status: ('A' for Active; 'I' for Inactive)
    1  A    between atoms: CA   and  CB  
    2  A    between atoms: CB   and  CG  
    3  A    between atoms: CG   and  CD  
    4  A    between atoms: CD   and  CE  

>  <TORSDO>
F 21

>  <BEGIN_>
RES LYS A 131

$$$$
ligand_74_pose_15_2HRL.pdbqt
 OpenBabel07062320523D

  6  5  0  0  0  0  0  0  0  0999 V2000
   33.1930   34.6630    9.2900 C   0  0  0  0  0  0  0  0  0  0  0  0
   32.0600   35.3600   10.0340 C   0  0  0  0  0  0  0  0  0  0  0  0
   30.9190   35.7760    9.1410 C   0  0  0  0  0  0  0  0  0  0  0  0
   30.4100   34.5920    8.3340 C   0  0  0  0  0  0  0  0  0  0  0  0
   28.9850   34.8340    7.8760 C   0  0  0  0  0  0  0  0  0  0  0  0
   28.9370   35.8400    6.7780 N   0  0  0  0  0  0  0  0  0  0  0  0
  1  2  1  0  0  0  0
  3  2  1  0  0  0  0
  4  3  1  0  0  0  0
  5  4  1  0  0  0  0
  6  5  1  0  0  0  0
M  END
>  <EGIN_R>
ES LYS A 135

>  <REMARK>
  4 active torsions:
  status: ('A' for Active; 'I' for Inactive)
    5  A    between atoms: CA   and  CB  
    6  A    between atoms: CB   and  CG  
    7  A    between atoms: CG   and  CD  
    8  A    between atoms: CD   and  CE  

$$$$
