ligand_64_pose_19_2HRL.pdbqt
 OpenBabel07062320523D

 59 61  0  0  1  0  0  0  0  0999 V2000
   25.0170   30.2750   17.3640 N   0  0  0  0  0  0  0  0  0  0  0  0
   23.6500   30.3320   16.9460 C   0  0  0  0  0  0  0  0  0  0  0  0
   22.7650   29.9450   17.7520 O   0  0  0  0  0  0  0  0  0  0  0  0
   25.7120   30.6150   16.6380 H   0  0  0  0  0  0  0  0  0  0  0  0
   25.4330   29.8000   18.6560 C   0  0  0  0  0  0  0  0  0  0  0  0
   26.0150   28.4220   18.5640 C   0  0  2  0  0  0  0  0  0  0  0  0
   27.3670   28.4330   19.2680 C   0  0  2  0  0  0  0  0  0  0  0  0
   28.0550   29.7310   19.0330 C   0  0  2  0  0  0  0  0  0  0  0  0
   28.9700   30.9970   17.3090 C   0  0  2  0  0  0  0  0  0  0  0  0
   29.0010   32.0370   18.4230 C   0  0  0  0  0  0  0  0  0  0  0  0
   28.2620   29.8720   17.6430 O   0  0  0  0  0  0  0  0  0  0  0  0
   29.6900   31.4280   19.5920 C   0  0  1  0  0  0  0  0  0  0  0  0
   29.3940   29.9130   19.6620 C   0  0  1  0  0  0  0  0  0  0  0  0
   30.3320   30.7030   17.0610 O   0  0  0  0  0  0  0  0  0  0  0  0
   30.5170   29.8810   17.5840 H   0  0  0  0  0  0  0  0  0  0  0  0
   28.3870   31.5540   16.0740 C   0  0  0  0  0  0  0  0  0  0  0  0
   28.9910   32.4390   15.4410 O   0  0  0  0  0  0  0  0  0  0  0  0
   27.1720   31.1000   15.6070 O   0  0  0  0  0  0  0  0  0  0  0  0
   26.5900   31.6350   14.9690 H   0  0  0  0  0  0  0  0  0  0  0  0
   31.0470   31.6640   19.6340 O   0  0  0  0  0  0  0  0  0  0  0  0
   31.5370   30.8480   19.8740 H   0  0  0  0  0  0  0  0  0  0  0  0
   29.5130   29.4930   21.0320 N   0  0  0  0  0  0  0  0  0  0  0  0
   30.7180   28.8690   21.5230 C   0  0  0  0  0  0  0  0  0  0  0  0
   28.7400   29.6420   21.6840 H   0  0  0  0  0  0  0  0  0  0  0  0
   30.8820   28.4260   22.9160 C   0  0  0  0  0  0  0  0  0  0  0  0
   31.6400   28.7240   20.6660 O   0  0  0  0  0  0  0  0  0  0  0  0
   28.1380   27.3350   18.9990 O   0  0  0  0  0  0  0  0  0  0  0  0
   29.0820   27.4070   19.2280 H   0  0  0  0  0  0  0  0  0  0  0  0
   26.2190   28.1890   17.1880 O   0  0  0  0  0  0  0  0  0  0  0  0
   27.1570   28.4180   17.0210 H   0  0  0  0  0  0  0  0  0  0  0  0
   23.3170   30.8020   15.6840 O   0  0  0  0  0  0  0  0  0  0  0  0
   22.9420   32.1590   15.5620 C   0  0  0  0  0  0  0  0  0  0  0  0
   23.9830   32.8280   14.7400 C   0  0  0  0  0  0  0  0  0  0  0  0
   23.8520   33.2830   13.4220 C   0  0  0  0  0  0  0  0  0  0  0  0
   25.2600   33.1470   15.0570 N   0  0  0  0  0  0  0  0  0  0  0  0
   25.0080   33.8350   13.0140 N   0  0  0  0  0  0  0  0  0  0  0  0
   25.8420   33.7390   14.0220 N   0  0  0  0  0  0  0  0  0  0  0  0
   25.2070   34.4020   11.7030 C   0  0  0  0  0  0  0  0  0  0  0  0
   24.1940   35.0370   11.0310 C   0  0  0  0  0  0  0  0  0  0  0  0
   26.4470   34.3140   11.0810 C   0  0  0  0  0  0  0  0  0  0  0  0
   24.3500   35.5890    9.7760 C   0  0  0  0  0  0  0  0  0  0  0  0
   26.6160   34.8580    9.8340 C   0  0  0  0  0  0  0  0  0  0  0  0
   25.5710   35.4710    9.2310 N   0  0  0  0  0  0  0  0  0  0  0  0
   23.2620   36.2590    9.0840 C   0  0  0  0  0  0  0  0  0  0  0  0
   22.0950   36.0980    9.4930 O   0  0  0  0  0  0  0  0  0  0  0  0
   23.4900   37.0650    7.9890 O   0  0  0  0  0  0  0  0  0  0  0  0
   22.7480   37.6040    7.5310 H   0  0  0  0  0  0  0  0  0  0  0  0
   27.9190   34.7790    9.1490 C   0  0  0  0  0  0  0  0  0  0  0  0
   28.0290   35.3400    7.8950 C   0  0  0  0  0  0  0  0  0  0  0  0
   28.9810   34.1650    9.7500 C   0  0  0  0  0  0  0  0  0  0  0  0
   29.2430   35.2680    7.2540 C   0  0  0  0  0  0  0  0  0  0  0  0
   30.1830   34.1150    9.0710 C   0  0  0  0  0  0  0  0  0  0  0  0
   30.3450   34.6600    7.8170 C   0  0  0  0  0  0  0  0  0  0  0  0
   29.8670   25.5550   16.9770 C   0  0  0  0  0  0  0  0  0  0  0  0
   28.3450   25.7220   17.0260 C   0  0  0  0  0  0  0  0  0  0  0  0
   27.6020   24.4000   16.9140 C   0  0  0  0  0  0  0  0  0  0  0  0
   26.1470   24.5360   17.2680 C   0  0  0  0  0  0  0  0  0  0  0  0
   25.9910   24.5490   18.7850 C   0  0  0  0  0  0  0  0  0  0  0  0
   25.5120   23.2330   19.2690 N   0  0  0  0  0  0  0  0  0  0  0  0
  1  5  1  0  0  0  0
  2  1  1  0  0  0  0
  2  3  2  0  0  0  0
  4  1  1  0  0  0  0
  6  5  1  6  0  0  0
  6  7  1  0  0  0  0
  7 27  1  6  0  0  0
  8  7  1  6  0  0  0
  8 13  1  0  0  0  0
  9 16  1  6  0  0  0
  9 11  1  0  0  0  0
  9 10  1  0  0  0  0
 10 12  1  0  0  0  0
 11  8  1  0  0  0  0
 12 20  1  6  0  0  0
 12 13  1  0  0  0  0
 13 22  1  1  0  0  0
 14  9  1  0  0  0  0
 14 15  1  0  0  0  0
 17 16  2  0  0  0  0
 18 16  1  0  0  0  0
 19 18  1  0  0  0  0
 20 21  1  0  0  0  0
 22 23  1  0  0  0  0
 22 24  1  0  0  0  0
 23 25  1  0  0  0  0
 26 23  2  0  0  0  0
 27 28  1  0  0  0  0
 29  6  1  0  0  0  0
 30 29  1  0  0  0  0
 31  2  1  0  0  0  0
 32 31  1  0  0  0  0
 33 35  1  0  0  0  0
 33 32  1  0  0  0  0
 34 33  2  0  0  0  0
 36 34  1  0  0  0  0
 36 37  1  0  0  0  0
 37 35  2  0  0  0  0
 38 36  1  0  0  0  0
 39 38  2  0  0  0  0
 40 38  1  0  0  0  0
 41 39  1  0  0  0  0
 42 40  2  0  0  0  0
 43 41  2  0  0  0  0
 43 42  1  0  0  0  0
 44 45  2  0  0  0  0
 44 41  1  0  0  0  0
 46 44  1  0  0  0  0
 47 46  1  0  0  0  0
 48 50  1  0  0  0  0
 48 42  1  0  0  0  0
 49 48  2  0  0  0  0
 51 53  2  0  0  0  0
 51 49  1  0  0  0  0
 52 50  2  0  0  0  0
 53 52  1  0  0  0  0
 54 55  1  0  0  0  0
 56 55  1  0  0  0  0
 56 57  1  0  0  0  0
 57 58  1  0  0  0  0
 58 59  1  0  0  0  0
M  END
>  <REMARK>
 VINA RESULT:    -5.824      2.805      4.519
 INTER + INTRA:         -16.148
 INTER:                 -11.372
 INTRA:                  -4.777
 UNBOUND:                -5.216
 SMILES CC(=O)N[C@@H]1[C@@H](O)C[C@](O)(C(=O)O)O[C@H]1C(O)[C@H](O)CNC(=O)OCc1cn(-c2cc(C(=O)O)nc(-c3ccccc3)c2)nn1
 SMILES IDX 21 1 22 2 23 3 20 5 18 6 16 7 15 8 9 9 8 10 14 11 6 12 5 13
 SMILES IDX 10 14 11 16 12 17 13 18 7 20 4 22 2 23 1 25 3 26 17 27 19 29
 SMILES IDX 24 31 25 32 26 33 27 34 45 35 28 36 44 37 29 38 30 39 43 40
 SMILES IDX 31 41 36 42 35 43 32 44 33 45 34 46 37 48 38 49 42 50 39 51
 SMILES IDX 41 52 40 53
 H PARENT 21 4 10 15 13 19 7 21 4 24 17 28 19 30 34 47
 Flexibility Score: inf
  4 active torsions:
  status: ('A' for Active; 'I' for Inactive)
    1  A    between atoms: CA   and  CB  
    2  A    between atoms: CB   and  CG  
    3  A    between atoms: CG   and  CD  
    4  A    between atoms: CD   and  CE  

>  <TORSDO>
F 18

>  <BEGIN_>
RES LYS A 131

$$$$
ligand_64_pose_19_2HRL.pdbqt
 OpenBabel07062320523D

  6  5  0  0  0  0  0  0  0  0999 V2000
   33.1930   34.6630    9.2900 C   0  0  0  0  0  0  0  0  0  0  0  0
   32.0600   35.3600   10.0340 C   0  0  0  0  0  0  0  0  0  0  0  0
   32.5080   36.0690   11.2860 C   0  0  0  0  0  0  0  0  0  0  0  0
   31.3170   36.3910   12.1750 C   0  0  0  0  0  0  0  0  0  0  0  0
   31.1420   35.3240   13.2380 C   0  0  0  0  0  0  0  0  0  0  0  0
   29.8460   34.6080   13.0720 N   0  0  0  0  0  0  0  0  0  0  0  0
  1  2  1  0  0  0  0
  2  3  1  0  0  0  0
  3  4  1  0  0  0  0
  4  5  1  0  0  0  0
  6  5  1  0  0  0  0
M  END
>  <EGIN_R>
ES LYS A 135

>  <REMARK>
  4 active torsions:
  status: ('A' for Active; 'I' for Inactive)
    5  A    between atoms: CA   and  CB  
    6  A    between atoms: CB   and  CG  
    7  A    between atoms: CG   and  CD  
    8  A    between atoms: CD   and  CE  

$$$$
