ligand_82_pose_3_2HRL.pdbqt
 OpenBabel07062320523D

 53 55  0  0  1  0  0  0  0  0999 V2000
   25.8340   30.3720   16.9560 N   0  0  0  0  0  0  0  0  0  0  0  0
   25.3530   31.1060   15.8180 C   0  0  0  0  0  0  0  0  0  0  0  0
   24.9960   30.4650   14.7970 O   0  0  0  0  0  0  0  0  0  0  0  0
   26.1300   30.8980   17.8050 H   0  0  0  0  0  0  0  0  0  0  0  0
   25.8990   28.9270   16.9040 C   0  0  0  0  0  0  0  0  0  0  0  0
   27.2700   28.5030   17.3450 C   0  0  2  0  0  0  0  0  0  0  0  0
   27.3680   28.3460   18.8470 C   0  0  1  0  0  0  0  0  0  0  0  0
   28.3910   29.3440   19.3360 C   0  0  2  0  0  0  0  0  0  0  0  0
   29.7090   28.2000   20.8600 C   0  0  2  0  0  0  0  0  0  0  0  0
   29.3480   29.1110   22.0110 C   0  0  0  0  0  0  0  0  0  0  0  0
   29.6080   28.8030   19.6290 O   0  0  0  0  0  0  0  0  0  0  0  0
   28.9300   30.4420   21.4380 C   0  0  1  0  0  0  0  0  0  0  0  0
   27.8070   30.1710   20.4570 C   0  0  1  0  0  0  0  0  0  0  0  0
   28.9610   27.0220   20.9470 O   0  0  0  0  0  0  0  0  0  0  0  0
   28.7170   26.9280   21.9080 H   0  0  0  0  0  0  0  0  0  0  0  0
   31.1370   27.8120   21.0520 C   0  0  0  0  0  0  0  0  0  0  0  0
   31.7110   28.0870   22.1600 O   0  0  0  0  0  0  0  0  0  0  0  0
   31.8740   27.1660   20.0830 O   0  0  0  0  0  0  0  0  0  0  0  0
   31.5850   26.2710   19.6970 H   0  0  0  0  0  0  0  0  0  0  0  0
   28.4640   31.3110   22.4060 O   0  0  0  0  0  0  0  0  0  0  0  0
   27.5830   30.9740   22.7090 H   0  0  0  0  0  0  0  0  0  0  0  0
   27.1950   31.3910   19.9980 N   0  0  0  0  0  0  0  0  0  0  0  0
   25.8510   31.7180   20.3130 C   0  0  0  0  0  0  0  0  0  0  0  0
   27.7710   32.0410   19.4190 H   0  0  0  0  0  0  0  0  0  0  0  0
   25.2980   33.0000   19.7960 C   0  0  0  0  0  0  0  0  0  0  0  0
   25.1520   30.9400   21.0090 O   0  0  0  0  0  0  0  0  0  0  0  0
   26.1530   28.6520   19.4560 O   0  0  0  0  0  0  0  0  0  0  0  0
   26.0620   29.5910   19.6890 H   0  0  0  0  0  0  0  0  0  0  0  0
   28.1540   29.5310   16.9520 O   0  0  0  0  0  0  0  0  0  0  0  0
   28.6450   29.8850   17.7450 H   0  0  0  0  0  0  0  0  0  0  0  0
   25.2640   32.4710   15.7970 O   0  0  0  0  0  0  0  0  0  0  0  0
   26.2740   33.3240   15.2870 C   0  0  0  0  0  0  0  0  0  0  0  0
   27.5760   32.9970   15.9030 C   0  0  0  0  0  0  0  0  0  0  0  0
   28.8230   32.9780   15.3230 C   0  0  0  0  0  0  0  0  0  0  0  0
   27.7620   32.6480   17.1850 N   0  0  0  0  0  0  0  0  0  0  0  0
   29.7460   32.6190   16.2640 N   0  0  0  0  0  0  0  0  0  0  0  0
   29.0640   32.4260   17.3840 N   0  0  0  0  0  0  0  0  0  0  0  0
   31.1630   32.4920   16.0280 C   0  0  0  0  0  0  0  0  0  0  0  0
   31.8240   33.8420   15.9620 C   0  0  0  0  0  0  0  0  0  0  0  0
   32.1280   34.5170   17.0670 C   0  0  0  0  0  0  0  0  0  0  0  0
   32.1580   34.4680   14.6670 C   0  0  2  0  0  0  0  0  0  0  0  0
   32.9940   35.7220   16.9500 C   0  0  0  0  0  0  0  0  0  0  0  0
   33.6470   34.8350   14.7460 C   0  0  0  0  0  0  0  0  0  0  0  0
   31.8770   35.9550   14.7430 C   0  0  0  0  0  0  0  0  0  0  0  0
   33.2040   36.0710   15.5090 C   0  0  1  0  0  0  0  0  0  0  0  0
   31.9860   36.6650   13.4240 C   0  0  0  0  0  0  0  0  0  0  0  0
   30.6690   36.3530   15.5210 C   0  0  0  0  0  0  0  0  0  0  0  0
   29.8670   25.5550   16.9770 C   0  0  0  0  0  0  0  0  0  0  0  0
   28.3450   25.7220   17.0260 C   0  0  0  0  0  0  0  0  0  0  0  0
   27.5990   24.4750   16.5760 C   0  0  0  0  0  0  0  0  0  0  0  0
   27.2170   23.5950   17.7330 C   0  0  0  0  0  0  0  0  0  0  0  0
   25.6980   23.5630   17.8680 C   0  0  0  0  0  0  0  0  0  0  0  0
   25.3070   23.2250   19.2570 N   0  0  0  0  0  0  0  0  0  0  0  0
  1  4  1  0  0  0  0
  2  1  1  0  0  0  0
  3  2  2  0  0  0  0
  5  1  1  0  0  0  0
  6  5  1  1  0  0  0
  6  7  1  0  0  0  0
  7 27  1  1  0  0  0
  8  7  1  1  0  0  0
  8 11  1  0  0  0  0
  8 13  1  0  0  0  0
  9 14  1  1  0  0  0
  9 16  1  0  0  0  0
  9 10  1  0  0  0  0
 11  9  1  0  0  0  0
 12 10  1  0  0  0  0
 12 20  1  1  0  0  0
 13 22  1  6  0  0  0
 13 12  1  0  0  0  0
 14 15  1  0  0  0  0
 16 17  2  0  0  0  0
 18 16  1  0  0  0  0
 19 18  1  0  0  0  0
 20 21  1  0  0  0  0
 22 23  1  0  0  0  0
 23 26  2  0  0  0  0
 24 22  1  0  0  0  0
 25 23  1  0  0  0  0
 27 28  1  0  0  0  0
 29  6  1  0  0  0  0
 29 30  1  0  0  0  0
 31  2  1  0  0  0  0
 32 31  1  0  0  0  0
 32 33  1  0  0  0  0
 33 35  1  0  0  0  0
 34 33  2  0  0  0  0
 34 36  1  0  0  0  0
 35 37  2  0  0  0  0
 36 37  1  0  0  0  0
 38 36  1  0  0  0  0
 39 38  1  0  0  0  0
 39 40  2  0  0  0  0
 41 44  1  0  0  0  0
 41 43  1  1  0  0  0
 41 39  1  0  0  0  0
 42 40  1  0  0  0  0
 44 45  1  0  0  0  0
 44 47  1  0  0  0  0
 45 43  1  6  0  0  0
 45 42  1  0  0  0  0
 46 44  1  0  0  0  0
 48 49  1  0  0  0  0
 50 49  1  0  0  0  0
 50 51  1  0  0  0  0
 51 52  1  0  0  0  0
 52 53  1  0  0  0  0
M  END
>  <REMARK>
 VINA RESULT:    -5.653      2.070      3.551
 INTER + INTRA:         -15.450
 INTER:                  -8.387
 INTRA:                  -7.063
 UNBOUND:                -5.337
 SMILES CC(=O)N[C@@H]1[C@@H](O)C[C@](O)(C(=O)O)O[C@H]1C(O)[C@H](O)CNC(=O)OCc1cn(CC2=CC[C@H]3C[C@@H]2C3(C)C)nn1
 SMILES IDX 21 1 22 2 23 3 20 5 18 6 16 7 15 8 9 9 8 10 14 11 6 12 5 13
 SMILES IDX 10 14 11 16 12 17 13 18 7 20 4 22 2 23 1 25 3 26 17 27 19 29
 SMILES IDX 24 31 25 32 26 33 27 34 40 35 28 36 39 37 29 38 30 39 31 40
 SMILES IDX 35 41 32 42 34 43 36 44 33 45 37 46 38 47
 H PARENT 21 4 10 15 13 19 7 21 4 24 17 28 19 30
 Flexibility Score: inf
  4 active torsions:
  status: ('A' for Active; 'I' for Inactive)
    1  A    between atoms: CA   and  CB  
    2  A    between atoms: CB   and  CG  
    3  A    between atoms: CG   and  CD  
    4  A    between atoms: CD   and  CE  

>  <TORSDO>
F 16

>  <BEGIN_>
RES LYS A 131

$$$$
ligand_82_pose_3_2HRL.pdbqt
 OpenBabel07062320523D

  6  5  0  0  0  0  0  0  0  0999 V2000
   33.1930   34.6630    9.2900 C   0  0  0  0  0  0  0  0  0  0  0  0
   32.0600   35.3600   10.0340 C   0  0  0  0  0  0  0  0  0  0  0  0
   30.8590   35.6460    9.1710 C   0  0  0  0  0  0  0  0  0  0  0  0
   30.3130   34.3610    8.5670 C   0  0  0  0  0  0  0  0  0  0  0  0
   28.8010   34.4240    8.4590 C   0  0  0  0  0  0  0  0  0  0  0  0
   28.1530   33.7480    9.6170 N   0  0  0  0  0  0  0  0  0  0  0  0
  1  2  1  0  0  0  0
  3  2  1  0  0  0  0
  4  3  1  0  0  0  0
  5  4  1  0  0  0  0
  5  6  1  0  0  0  0
M  END
>  <EGIN_R>
ES LYS A 135

>  <REMARK>
  4 active torsions:
  status: ('A' for Active; 'I' for Inactive)
    5  A    between atoms: CA   and  CB  
    6  A    between atoms: CB   and  CG  
    7  A    between atoms: CG   and  CD  
    8  A    between atoms: CD   and  CE  

$$$$
