ligand_57_pose_15_2HRL.pdbqt
 OpenBabel07062320523D

 50 51  0  0  1  0  0  0  0  0999 V2000
   30.5400   33.2890   19.6050 C   0  0  0  0  0  0  0  0  0  0  0  0
   30.8620   31.8520   19.8450 C   0  0  2  0  0  0  0  0  0  0  0  0
   29.6300   31.0190   20.1310 C   0  0  2  0  0  0  0  0  0  0  0  0
   30.0310   29.7480   20.8490 C   0  0  2  0  0  0  0  0  0  0  0  0
   31.4670   27.9080   20.7690 C   0  0  2  0  0  0  0  0  0  0  0  0
   30.3400   26.9830   21.1170 C   0  0  0  0  0  0  0  0  0  0  0  0
   31.1090   29.1340   20.2930 O   0  0  0  0  0  0  0  0  0  0  0  0
   29.2500   27.6990   21.8680 C   0  0  1  0  0  0  0  0  0  0  0  0
   28.8220   28.8810   21.0010 C   0  0  1  0  0  0  0  0  0  0  0  0
   32.3040   27.2270   19.8400 O   0  0  0  0  0  0  0  0  0  0  0  0
   33.1950   27.6520   19.7880 H   0  0  0  0  0  0  0  0  0  0  0  0
   32.2800   28.1280   21.9920 C   0  0  0  0  0  0  0  0  0  0  0  0
   32.3570   27.2260   22.8640 O   0  0  0  0  0  0  0  0  0  0  0  0
   32.9870   29.2900   22.2620 O   0  0  0  0  0  0  0  0  0  0  0  0
   32.5580   30.1060   22.7000 H   0  0  0  0  0  0  0  0  0  0  0  0
   28.1490   26.8690   22.0940 O   0  0  0  0  0  0  0  0  0  0  0  0
   28.3360   26.1700   22.7590 H   0  0  0  0  0  0  0  0  0  0  0  0
   27.8060   29.5780   21.8020 N   0  0  0  0  0  0  0  0  0  0  0  0
   26.5390   29.9090   21.2830 C   0  0  0  0  0  0  0  0  0  0  0  0
   28.0660   29.8140   22.7680 H   0  0  0  0  0  0  0  0  0  0  0  0
   25.5100   30.6230   22.1180 C   0  0  0  0  0  0  0  0  0  0  0  0
   26.2780   29.5940   20.0940 O   0  0  0  0  0  0  0  0  0  0  0  0
   28.9750   30.7760   18.9460 O   0  0  0  0  0  0  0  0  0  0  0  0
   29.6060   30.8010   18.1830 H   0  0  0  0  0  0  0  0  0  0  0  0
   31.7000   31.7750   20.9820 O   0  0  0  0  0  0  0  0  0  0  0  0
   32.6570   31.8030   20.7170 H   0  0  0  0  0  0  0  0  0  0  0  0
   29.9250   33.4150   18.3010 N   0  0  0  0  0  0  0  0  0  0  0  0
   30.6360   33.6870   17.1010 C   0  0  0  0  0  0  0  0  0  0  0  0
   28.8740   33.3090   18.1660 H   0  0  0  0  0  0  0  0  0  0  0  0
   31.8670   33.8270   17.1440 O   0  0  0  0  0  0  0  0  0  0  0  0
   30.0000   33.8010   15.8710 O   0  0  0  0  0  0  0  0  0  0  0  0
   29.8550   32.6750   15.0290 C   0  0  0  0  0  0  0  0  0  0  0  0
   28.7860   31.7750   15.5320 C   0  0  0  0  0  0  0  0  0  0  0  0
   27.5090   32.0940   15.8940 C   0  0  0  0  0  0  0  0  0  0  0  0
   28.8990   30.4480   15.7260 N   0  0  0  0  0  0  0  0  0  0  0  0
   26.8750   30.9800   16.2950 N   0  0  0  0  0  0  0  0  0  0  0  0
   27.7610   29.9870   16.1770 N   0  0  0  0  0  0  0  0  0  0  0  0
   25.5080   30.8950   16.7550 C   0  0  0  0  0  0  0  0  0  0  0  0
   24.8540   29.6040   16.3160 C   0  0  0  0  0  0  0  0  0  0  0  0
   24.7160   32.1040   16.3550 C   0  0  0  0  0  0  0  0  0  0  0  0
   24.3000   29.6850   14.9130 C   0  0  0  0  0  0  0  0  0  0  0  0
   24.2510   32.0850   14.9320 C   0  0  0  0  0  0  0  0  0  0  0  0
   23.5320   30.8730   14.6850 N   0  0  0  0  0  0  0  0  0  0  0  0
   22.2870   30.8890   15.3990 C   0  0  0  0  0  0  0  0  0  0  0  0
   29.8670   25.5550   16.9770 C   0  0  0  0  0  0  0  0  0  0  0  0
   28.3450   25.7220   17.0260 C   0  0  0  0  0  0  0  0  0  0  0  0
   27.6020   24.3980   16.9350 C   0  0  0  0  0  0  0  0  0  0  0  0
   26.4510   24.3270   17.9000 C   0  0  0  0  0  0  0  0  0  0  0  0
   25.9950   25.7390   18.2530 C   0  0  0  0  0  0  0  0  0  0  0  0
   25.8600   25.8890   19.7210 N   0  0  0  0  0  0  0  0  0  0  0  0
  2  1  1  1  0  0  0
  2  3  1  0  0  0  0
  2 25  1  0  0  0  0
  3 23  1  6  0  0  0
  4  3  1  6  0  0  0
  4  9  1  0  0  0  0
  5 10  1  6  0  0  0
  5  6  1  0  0  0  0
  5 12  1  0  0  0  0
  6  8  1  0  0  0  0
  7  5  1  0  0  0  0
  7  4  1  0  0  0  0
  8 16  1  6  0  0  0
  9 18  1  1  0  0  0
  9  8  1  0  0  0  0
 11 10  1  0  0  0  0
 12 14  1  0  0  0  0
 12 13  2  0  0  0  0
 14 15  1  0  0  0  0
 16 17  1  0  0  0  0
 18 20  1  0  0  0  0
 19 18  1  0  0  0  0
 19 21  1  0  0  0  0
 22 19  2  0  0  0  0
 24 23  1  0  0  0  0
 26 25  1  0  0  0  0
 27  1  1  0  0  0  0
 28 30  2  0  0  0  0
 28 27  1  0  0  0  0
 29 27  1  0  0  0  0
 31 28  1  0  0  0  0
 32 33  1  0  0  0  0
 32 31  1  0  0  0  0
 33 35  1  0  0  0  0
 33 34  2  0  0  0  0
 34 36  1  0  0  0  0
 35 37  2  0  0  0  0
 36 38  1  0  0  0  0
 37 36  1  0  0  0  0
 39 38  1  0  0  0  0
 40 38  1  0  0  0  0
 41 39  1  0  0  0  0
 42 40  1  0  0  0  0
 43 41  1  0  0  0  0
 43 42  1  0  0  0  0
 43 44  1  0  0  0  0
 45 46  1  0  0  0  0
 47 46  1  0  0  0  0
 47 48  1  0  0  0  0
 48 49  1  0  0  0  0
 49 50  1  0  0  0  0
M  END
>  <REMARK>
 VINA RESULT:    -4.312      2.516      4.801
 INTER + INTRA:         -13.249
 INTER:                  -7.205
 INTRA:                  -6.044
 UNBOUND:                -5.786
 SMILES CC(=O)N[C@@H]1[C@@H](O)C[C@](O)(C(=O)O)O[C@H]1C(O)[C@H](O)CNC(=O)OCc1cn(C2CCN(C)CC2)nn1
 SMILES IDX 20 1 18 2 16 3 15 4 9 5 8 6 14 7 6 8 5 9 10 10 11 12 12 13
 SMILES IDX 13 14 7 16 4 18 2 19 1 21 3 22 17 23 19 25 21 27 22 28 23 30
 SMILES IDX 24 31 25 32 26 33 27 34 37 35 28 36 36 37 29 38 30 39 35 40
 SMILES IDX 31 41 34 42 32 43 33 44
 H PARENT 10 11 13 15 7 17 4 20 17 24 19 26 21 29
 Flexibility Score: inf
  4 active torsions:
  status: ('A' for Active; 'I' for Inactive)
    1  A    between atoms: CA   and  CB  
    2  A    between atoms: CB   and  CG  
    3  A    between atoms: CG   and  CD  
    4  A    between atoms: CD   and  CE  

>  <TORSDO>
F 15

>  <BEGIN_>
RES LYS A 131

$$$$
ligand_57_pose_15_2HRL.pdbqt
 OpenBabel07062320523D

  6  5  0  0  0  0  0  0  0  0999 V2000
   33.1930   34.6630    9.2900 C   0  0  0  0  0  0  0  0  0  0  0  0
   32.0600   35.3600   10.0340 C   0  0  0  0  0  0  0  0  0  0  0  0
   30.7070   34.7480    9.7810 C   0  0  0  0  0  0  0  0  0  0  0  0
   30.4920   34.5160    8.2930 C   0  0  0  0  0  0  0  0  0  0  0  0
   29.0770   34.8890    7.8950 C   0  0  0  0  0  0  0  0  0  0  0  0
   28.0800   34.2690    8.8120 N   0  0  0  0  0  0  0  0  0  0  0  0
  1  2  1  0  0  0  0
  3  2  1  0  0  0  0
  4  3  1  0  0  0  0
  5  4  1  0  0  0  0
  5  6  1  0  0  0  0
M  END
>  <EGIN_R>
ES LYS A 135

>  <REMARK>
  4 active torsions:
  status: ('A' for Active; 'I' for Inactive)
    5  A    between atoms: CA   and  CB  
    6  A    between atoms: CB   and  CG  
    7  A    between atoms: CG   and  CD  
    8  A    between atoms: CD   and  CE  

$$$$
