ligand_57_pose_13_2HRL.pdbqt
 OpenBabel07062320523D

 50 51  0  0  1  0  0  0  0  0999 V2000
   29.8260   31.0620   16.1840 C   0  0  0  0  0  0  0  0  0  0  0  0
   30.4840   32.3460   15.8010 C   0  0  2  0  0  0  0  0  0  0  0  0
   29.5510   33.2780   15.0560 C   0  0  2  0  0  0  0  0  0  0  0  0
   30.3610   34.3020   14.2900 C   0  0  2  0  0  0  0  0  0  0  0  0
   32.1370   35.8100   14.4520 C   0  0  2  0  0  0  0  0  0  0  0  0
   31.3400   36.8630   13.7460 C   0  0  0  0  0  0  0  0  0  0  0  0
   31.4250   34.7790   14.9890 O   0  0  0  0  0  0  0  0  0  0  0  0
   30.2780   36.2560   12.8690 C   0  0  1  0  0  0  0  0  0  0  0  0
   29.4340   35.3500   13.7610 C   0  0  1  0  0  0  0  0  0  0  0  0
   32.9150   36.4620   15.4490 O   0  0  0  0  0  0  0  0  0  0  0  0
   33.1620   37.3760   15.1650 H   0  0  0  0  0  0  0  0  0  0  0  0
   33.0960   35.2250   13.4800 C   0  0  0  0  0  0  0  0  0  0  0  0
   33.2660   35.7740   12.3620 O   0  0  0  0  0  0  0  0  0  0  0  0
   33.8470   34.0830   13.7120 O   0  0  0  0  0  0  0  0  0  0  0  0
   34.8650   34.0970   13.7750 H   0  0  0  0  0  0  0  0  0  0  0  0
   29.4600   37.2350   12.2980 O   0  0  0  0  0  0  0  0  0  0  0  0
   29.9370   37.7880   11.6410 H   0  0  0  0  0  0  0  0  0  0  0  0
   28.4580   34.7380   12.8490 N   0  0  0  0  0  0  0  0  0  0  0  0
   27.1180   35.1690   12.7850 C   0  0  0  0  0  0  0  0  0  0  0  0
   28.8020   33.9740   12.2540 H   0  0  0  0  0  0  0  0  0  0  0  0
   26.1310   34.5310   11.8450 C   0  0  0  0  0  0  0  0  0  0  0  0
   26.7550   36.1090   13.5380 O   0  0  0  0  0  0  0  0  0  0  0  0
   28.6860   33.8520   15.9580 O   0  0  0  0  0  0  0  0  0  0  0  0
   27.9160   33.2540   16.1360 H   0  0  0  0  0  0  0  0  0  0  0  0
   31.5620   32.0440   14.9360 O   0  0  0  0  0  0  0  0  0  0  0  0
   32.3810   31.8280   15.4560 H   0  0  0  0  0  0  0  0  0  0  0  0
   28.5880   30.9370   15.4460 N   0  0  0  0  0  0  0  0  0  0  0  0
   27.3420   30.5750   16.0240 C   0  0  0  0  0  0  0  0  0  0  0  0
   28.5420   31.1160   14.3970 H   0  0  0  0  0  0  0  0  0  0  0  0
   27.2820   30.3460   17.2410 O   0  0  0  0  0  0  0  0  0  0  0  0
   26.1780   30.4660   15.2720 O   0  0  0  0  0  0  0  0  0  0  0  0
   25.0270   29.8480   15.8130 C   0  0  0  0  0  0  0  0  0  0  0  0
   24.0110   29.6120   14.7560 C   0  0  0  0  0  0  0  0  0  0  0  0
   22.7730   29.0510   14.8800 C   0  0  0  0  0  0  0  0  0  0  0  0
   24.1440   29.9190   13.4520 N   0  0  0  0  0  0  0  0  0  0  0  0
   22.1810   29.0250   13.6740 N   0  0  0  0  0  0  0  0  0  0  0  0
   23.0540   29.5670   12.8210 N   0  0  0  0  0  0  0  0  0  0  0  0
   20.8620   28.5090   13.3830 C   0  0  0  0  0  0  0  0  0  0  0  0
   20.3620   28.9940   12.0400 C   0  0  0  0  0  0  0  0  0  0  0  0
   19.8980   28.8030   14.4940 C   0  0  0  0  0  0  0  0  0  0  0  0
   19.7300   30.3640   12.1190 C   0  0  0  0  0  0  0  0  0  0  0  0
   19.3660   30.2010   14.4870 C   0  0  0  0  0  0  0  0  0  0  0  0
   18.8010   30.4870   13.2030 N   0  0  0  0  0  0  0  0  0  0  0  0
   17.6040   29.7190   13.0150 C   0  0  0  0  0  0  0  0  0  0  0  0
   29.8670   25.5550   16.9770 C   0  0  0  0  0  0  0  0  0  0  0  0
   28.3450   25.7220   17.0260 C   0  0  0  0  0  0  0  0  0  0  0  0
   27.6010   24.4060   16.8580 C   0  0  0  0  0  0  0  0  0  0  0  0
   26.4260   24.2970   17.7910 C   0  0  0  0  0  0  0  0  0  0  0  0
   26.0540   25.6830   18.3050 C   0  0  0  0  0  0  0  0  0  0  0  0
   25.8090   25.6460   19.7670 N   0  0  0  0  0  0  0  0  0  0  0  0
  2  1  1  6  0  0  0
  3  2  1  0  0  0  0
  3 23  1  1  0  0  0
  4  7  1  0  0  0  0
  4  3  1  1  0  0  0
  5 12  1  6  0  0  0
  5  7  1  0  0  0  0
  5 10  1  0  0  0  0
  6  5  1  0  0  0  0
  8 16  1  1  0  0  0
  8  6  1  0  0  0  0
  8  9  1  0  0  0  0
  9 18  1  6  0  0  0
  9  4  1  0  0  0  0
 11 10  1  0  0  0  0
 12 14  1  0  0  0  0
 13 12  2  0  0  0  0
 14 15  1  0  0  0  0
 17 16  1  0  0  0  0
 19 18  1  0  0  0  0
 19 22  2  0  0  0  0
 20 18  1  0  0  0  0
 21 19  1  0  0  0  0
 23 24  1  0  0  0  0
 25 26  1  0  0  0  0
 25  2  1  0  0  0  0
 27 28  1  0  0  0  0
 27  1  1  0  0  0  0
 28 30  2  0  0  0  0
 29 27  1  0  0  0  0
 31 32  1  0  0  0  0
 31 28  1  0  0  0  0
 33 34  2  0  0  0  0
 33 32  1  0  0  0  0
 35 33  1  0  0  0  0
 36 34  1  0  0  0  0
 37 35  2  0  0  0  0
 37 36  1  0  0  0  0
 38 36  1  0  0  0  0
 38 40  1  0  0  0  0
 39 41  1  0  0  0  0
 39 38  1  0  0  0  0
 41 43  1  0  0  0  0
 42 40  1  0  0  0  0
 43 42  1  0  0  0  0
 44 43  1  0  0  0  0
 45 46  1  0  0  0  0
 47 46  1  0  0  0  0
 47 48  1  0  0  0  0
 48 49  1  0  0  0  0
 49 50  1  0  0  0  0
M  END
>  <REMARK>
 VINA RESULT:    -4.370      5.168      9.719
 INTER + INTRA:         -13.349
 INTER:                  -8.793
 INTRA:                  -4.556
 UNBOUND:                -5.786
 SMILES CC(=O)N[C@@H]1[C@@H](O)C[C@](O)(C(=O)O)O[C@H]1C(O)[C@H](O)CNC(=O)OCc1cn(C2CCN(C)CC2)nn1
 SMILES IDX 20 1 18 2 16 3 15 4 9 5 8 6 14 7 6 8 5 9 10 10 11 12 12 13
 SMILES IDX 13 14 7 16 4 18 2 19 1 21 3 22 17 23 19 25 21 27 22 28 23 30
 SMILES IDX 24 31 25 32 26 33 27 34 37 35 28 36 36 37 29 38 30 39 35 40
 SMILES IDX 31 41 34 42 32 43 33 44
 H PARENT 10 11 13 15 7 17 4 20 17 24 19 26 21 29
 Flexibility Score: inf
  4 active torsions:
  status: ('A' for Active; 'I' for Inactive)
    1  A    between atoms: CA   and  CB  
    2  A    between atoms: CB   and  CG  
    3  A    between atoms: CG   and  CD  
    4  A    between atoms: CD   and  CE  

>  <TORSDO>
F 15

>  <BEGIN_>
RES LYS A 131

$$$$
ligand_57_pose_13_2HRL.pdbqt
 OpenBabel07062320523D

  6  5  0  0  0  0  0  0  0  0999 V2000
   33.1930   34.6630    9.2900 C   0  0  0  0  0  0  0  0  0  0  0  0
   32.0600   35.3600   10.0340 C   0  0  0  0  0  0  0  0  0  0  0  0
   30.7470   34.6250    9.9570 C   0  0  0  0  0  0  0  0  0  0  0  0
   30.2910   34.4890    8.5130 C   0  0  0  0  0  0  0  0  0  0  0  0
   28.7790   34.5720    8.4210 C   0  0  0  0  0  0  0  0  0  0  0  0
   28.2750   35.8440    9.0080 N   0  0  0  0  0  0  0  0  0  0  0  0
  1  2  1  0  0  0  0
  3  2  1  0  0  0  0
  4  3  1  0  0  0  0
  5  4  1  0  0  0  0
  5  6  1  0  0  0  0
M  END
>  <EGIN_R>
ES LYS A 135

>  <REMARK>
  4 active torsions:
  status: ('A' for Active; 'I' for Inactive)
    5  A    between atoms: CA   and  CB  
    6  A    between atoms: CB   and  CG  
    7  A    between atoms: CG   and  CD  
    8  A    between atoms: CD   and  CE  

$$$$
