ligand_84_pose_16_2HRL.pdbqt
 OpenBabel07062320523D

 60 62  0  0  1  0  0  0  0  0999 V2000
   31.0130   32.2700   16.5560 O   0  0  0  0  0  0  0  0  0  0  0  0
   29.9780   31.3740   16.7730 C   0  0  0  0  0  0  0  0  0  0  0  0
   29.1990   30.7880   15.7360 N   0  0  0  0  0  0  0  0  0  0  0  0
   29.4330   31.0710   14.7650 H   0  0  0  0  0  0  0  0  0  0  0  0
   29.7430   31.0830   17.9770 O   0  0  0  0  0  0  0  0  0  0  0  0
   28.1780   29.8730   16.1300 C   0  0  0  0  0  0  0  0  0  0  0  0
   26.7940   30.2220   15.7580 C   0  0  2  0  0  0  0  0  0  0  0  0
   26.5520   31.6840   15.4240 C   0  0  1  0  0  0  0  0  0  0  0  0
   25.1340   31.7060   14.8510 C   0  0  2  0  0  0  0  0  0  0  0  0
   23.7190   30.2840   13.6590 C   0  0  2  0  0  0  0  0  0  0  0  0
   23.2320   31.4520   12.8480 C   0  0  0  0  0  0  0  0  0  0  0  0
   24.9300   30.4880   14.2640 O   0  0  0  0  0  0  0  0  0  0  0  0
   23.5110   32.7850   13.4420 C   0  0  1  0  0  0  0  0  0  0  0  0
   25.0010   32.8020   13.8460 C   0  0  1  0  0  0  0  0  0  0  0  0
   23.9170   29.2450   12.7120 O   0  0  0  0  0  0  0  0  0  0  0  0
   24.6140   29.4790   12.0720 H   0  0  0  0  0  0  0  0  0  0  0  0
   22.6930   29.7720   14.6140 C   0  0  0  0  0  0  0  0  0  0  0  0
   23.0140   28.9410   15.5010 O   0  0  0  0  0  0  0  0  0  0  0  0
   21.3660   30.1740   14.5820 O   0  0  0  0  0  0  0  0  0  0  0  0
   20.7770   30.2740   15.4000 H   0  0  0  0  0  0  0  0  0  0  0  0
   23.3180   33.7610   12.4640 O   0  0  0  0  0  0  0  0  0  0  0  0
   22.5870   33.4980   11.8450 H   0  0  0  0  0  0  0  0  0  0  0  0
   25.3540   34.0960   14.3670 N   0  0  0  0  0  0  0  0  0  0  0  0
   26.0520   35.0390   13.5800 C   0  0  0  0  0  0  0  0  0  0  0  0
   25.0900   34.3380   15.3370 H   0  0  0  0  0  0  0  0  0  0  0  0
   26.3690   36.3510   14.2190 C   0  0  0  0  0  0  0  0  0  0  0  0
   26.4030   34.8230   12.4010 O   0  0  0  0  0  0  0  0  0  0  0  0
   26.6220   32.4320   16.6110 O   0  0  0  0  0  0  0  0  0  0  0  0
   26.1120   33.2650   16.4390 H   0  0  0  0  0  0  0  0  0  0  0  0
   25.9980   30.0110   16.9180 O   0  0  0  0  0  0  0  0  0  0  0  0
   26.5860   30.3060   17.6700 H   0  0  0  0  0  0  0  0  0  0  0  0
   31.4910   32.5250   15.2460 C   0  0  0  0  0  0  0  0  0  0  0  0
   31.8280   33.9570   15.0870 C   0  0  0  0  0  0  0  0  0  0  0  0
   31.3510   34.7590   14.0470 C   0  0  0  0  0  0  0  0  0  0  0  0
   32.5850   34.7860   15.8190 N   0  0  0  0  0  0  0  0  0  0  0  0
   31.8140   36.0110   14.1730 N   0  0  0  0  0  0  0  0  0  0  0  0
   32.5820   35.9950   15.2850 N   0  0  0  0  0  0  0  0  0  0  0  0
   31.5670   37.1790   13.3480 C   0  0  0  0  0  0  0  0  0  0  0  0
   30.0890   37.5750   13.4640 C   0  0  1  0  0  0  0  0  0  0  0  0
   29.7150   37.9240   14.8550 C   0  0  0  0  0  0  0  0  0  0  0  0
   29.6690   38.4510   12.3590 C   0  0  0  0  0  0  0  0  0  0  0  0
   28.4140   38.0870   11.7790 N   0  0  0  0  0  0  0  0  0  0  0  0
   27.4100   39.1530   12.0430 C   0  0  0  0  0  0  0  0  0  0  0  0
   28.5260   38.0840   10.3230 C   0  0  0  0  0  0  0  0  0  0  0  0
   26.1360   38.8920   11.3200 C   0  0  0  0  0  0  0  0  0  0  0  0
   27.3390   37.2270    9.8560 C   0  0  0  0  0  0  0  0  0  0  0  0
   26.1400   37.8030   10.3940 N   0  0  0  0  0  0  0  0  0  0  0  0
   24.8990   37.2530    9.9690 C   0  0  0  0  0  0  0  0  0  0  0  0
   23.7860   38.0620    9.9090 C   0  0  0  0  0  0  0  0  0  0  0  0
   24.7920   35.9120    9.6250 C   0  0  0  0  0  0  0  0  0  0  0  0
   22.5870   37.5220    9.5060 C   0  0  0  0  0  0  0  0  0  0  0  0
   23.5920   35.3860    9.2260 C   0  0  0  0  0  0  0  0  0  0  0  0
   22.4770   36.2080    9.1660 C   0  0  0  0  0  0  0  0  0  0  0  0
   20.9560   35.5200    8.6640 Cl  0  0  0  0  0  0  0  0  0  0  0  0
   29.8670   25.5550   16.9770 C   0  0  0  0  0  0  0  0  0  0  0  0
   28.3450   25.7220   17.0260 C   0  0  0  0  0  0  0  0  0  0  0  0
   27.6010   24.4020   16.8930 C   0  0  0  0  0  0  0  0  0  0  0  0
   26.1580   24.5220   17.2950 C   0  0  0  0  0  0  0  0  0  0  0  0
   26.0120   25.6170   18.3470 C   0  0  0  0  0  0  0  0  0  0  0  0
   25.5590   25.0410   19.6360 N   0  0  0  0  0  0  0  0  0  0  0  0
  1  2  1  0  0  0  0
  2  5  2  0  0  0  0
  3  6  1  0  0  0  0
  3  2  1  0  0  0  0
  4  3  1  0  0  0  0
  7  6  1  1  0  0  0
  7 30  1  0  0  0  0
  8  7  1  0  0  0  0
  8 28  1  1  0  0  0
  9  8  1  6  0  0  0
 10 15  1  6  0  0  0
 10 12  1  0  0  0  0
 10 17  1  0  0  0  0
 11 13  1  0  0  0  0
 11 10  1  0  0  0  0
 12  9  1  0  0  0  0
 13 21  1  6  0  0  0
 13 14  1  0  0  0  0
 14 23  1  1  0  0  0
 14  9  1  0  0  0  0
 16 15  1  0  0  0  0
 17 18  2  0  0  0  0
 19 17  1  0  0  0  0
 19 20  1  0  0  0  0
 22 21  1  0  0  0  0
 23 25  1  0  0  0  0
 24 26  1  0  0  0  0
 24 23  1  0  0  0  0
 27 24  2  0  0  0  0
 29 28  1  0  0  0  0
 30 31  1  0  0  0  0
 32  1  1  0  0  0  0
 33 32  1  0  0  0  0
 33 35  1  0  0  0  0
 34 36  1  0  0  0  0
 34 33  2  0  0  0  0
 36 37  1  0  0  0  0
 37 35  2  0  0  0  0
 38 39  1  0  0  0  0
 38 36  1  0  0  0  0
 39 40  1  1  0  0  0
 41 39  1  0  0  0  0
 42 43  1  0  0  0  0
 42 41  1  0  0  0  0
 44 42  1  0  0  0  0
 45 43  1  0  0  0  0
 46 44  1  0  0  0  0
 46 47  1  0  0  0  0
 47 45  1  0  0  0  0
 48 47  1  0  0  0  0
 49 48  1  0  0  0  0
 50 48  2  0  0  0  0
 51 49  2  0  0  0  0
 52 50  1  0  0  0  0
 53 52  2  0  0  0  0
 53 51  1  0  0  0  0
 54 53  1  0  0  0  0
 55 56  1  0  0  0  0
 57 56  1  0  0  0  0
 57 58  1  0  0  0  0
 58 59  1  0  0  0  0
 59 60  1  0  0  0  0
M  END
>  <REMARK>
 VINA RESULT:    -4.877      4.263      9.488
 INTER + INTRA:         -15.701
 INTER:                  -9.118
 INTRA:                  -6.583
 UNBOUND:                -6.121
 SMILES CC(=O)N[C@@H]1[C@@H](O)C[C@](O)(C(=O)O)O[C@H]1C(O)[C@H](O)CNC(=O)OCc1cn(C[C@@H](C)CN2CCN(c3ccc(Cl)cc3)CC2)nn1
 SMILES IDX 24 1 22 2 21 3 23 5 20 6 18 7 16 8 15 9 9 10 8 11 14 12 6 13
 SMILES IDX 5 14 10 15 11 17 12 18 13 19 7 21 4 23 2 24 1 26 3 27 17 28
 SMILES IDX 19 30 25 32 26 33 27 34 47 35 28 36 46 37 29 38 30 39 31 40
 SMILES IDX 32 41 33 42 34 43 45 44 35 45 44 46 36 47 37 48 38 49 43 50
 SMILES IDX 39 51 42 52 40 53 41 54
 H PARENT 21 4 10 16 13 20 7 22 4 25 17 29 19 31
 Flexibility Score: inf
  4 active torsions:
  status: ('A' for Active; 'I' for Inactive)
    1  A    between atoms: CA   and  CB  
    2  A    between atoms: CB   and  CG  
    3  A    between atoms: CG   and  CD  
    4  A    between atoms: CD   and  CE  

>  <TORSDO>
F 19

>  <BEGIN_>
RES LYS A 131

$$$$
ligand_84_pose_16_2HRL.pdbqt
 OpenBabel07062320523D

  6  5  0  0  0  0  0  0  0  0999 V2000
   33.1930   34.6630    9.2900 C   0  0  0  0  0  0  0  0  0  0  0  0
   32.0600   35.3600   10.0340 C   0  0  0  0  0  0  0  0  0  0  0  0
   30.7420   34.6360    9.9390 C   0  0  0  0  0  0  0  0  0  0  0  0
   30.3500   34.4240    8.4850 C   0  0  0  0  0  0  0  0  0  0  0  0
   28.8400   34.4170    8.3360 C   0  0  0  0  0  0  0  0  0  0  0  0
   28.1890   33.7560    9.5000 N   0  0  0  0  0  0  0  0  0  0  0  0
  1  2  1  0  0  0  0
  3  2  1  0  0  0  0
  4  3  1  0  0  0  0
  5  4  1  0  0  0  0
  5  6  1  0  0  0  0
M  END
>  <EGIN_R>
ES LYS A 135

>  <REMARK>
  4 active torsions:
  status: ('A' for Active; 'I' for Inactive)
    5  A    between atoms: CA   and  CB  
    6  A    between atoms: CB   and  CG  
    7  A    between atoms: CG   and  CD  
    8  A    between atoms: CD   and  CE  

$$$$
