ligand_54_pose_4_2HRL.pdbqt
 OpenBabel07062320523D

 52 52  0  0  1  0  0  0  0  0999 V2000
   25.5550   37.4750   12.2650 O   0  0  0  0  0  0  0  0  0  0  0  0
   25.3160   38.1460   11.0570 C   0  0  0  0  0  0  0  0  0  0  0  0
   24.1060   37.9900   10.3470 N   0  0  0  0  0  0  0  0  0  0  0  0
   23.3920   37.3380   10.8040 H   0  0  0  0  0  0  0  0  0  0  0  0
   26.2050   38.8850   10.6290 O   0  0  0  0  0  0  0  0  0  0  0  0
   23.7380   38.5970    9.1080 C   0  0  0  0  0  0  0  0  0  0  0  0
   23.7810   37.6090    7.9770 C   0  0  2  0  0  0  0  0  0  0  0  0
   25.0990   37.8620    7.2490 C   0  0  2  0  0  0  0  0  0  0  0  0
   26.0380   36.7030    7.3740 C   0  0  2  0  0  0  0  0  0  0  0  0
   27.4380   35.7400    8.9520 C   0  0  2  0  0  0  0  0  0  0  0  0
   28.1270   35.0290    7.8330 C   0  0  0  0  0  0  0  0  0  0  0  0
   26.1760   36.2250    8.6440 O   0  0  0  0  0  0  0  0  0  0  0  0
   28.0780   35.7360    6.5100 C   0  0  1  0  0  0  0  0  0  0  0  0
   27.3720   37.0560    6.7260 C   0  0  1  0  0  0  0  0  0  0  0  0
   28.2620   36.7360    9.4820 O   0  0  0  0  0  0  0  0  0  0  0  0
   29.2000   36.5080    9.2060 H   0  0  0  0  0  0  0  0  0  0  0  0
   27.2320   34.7300   10.0300 C   0  0  0  0  0  0  0  0  0  0  0  0
   28.1100   33.8820   10.2970 O   0  0  0  0  0  0  0  0  0  0  0  0
   26.0210   34.7470   10.7480 O   0  0  0  0  0  0  0  0  0  0  0  0
   25.7140   35.6650   11.0650 H   0  0  0  0  0  0  0  0  0  0  0  0
   29.3270   35.8890    5.9200 O   0  0  0  0  0  0  0  0  0  0  0  0
   29.4360   36.8590    5.7450 H   0  0  0  0  0  0  0  0  0  0  0  0
   27.0860   37.7340    5.4790 N   0  0  0  0  0  0  0  0  0  0  0  0
   27.6630   39.0080    5.2300 C   0  0  0  0  0  0  0  0  0  0  0  0
   26.4760   37.3450    4.7390 H   0  0  0  0  0  0  0  0  0  0  0  0
   27.4270   39.7700    3.9870 C   0  0  0  0  0  0  0  0  0  0  0  0
   28.4120   39.5120    6.1110 O   0  0  0  0  0  0  0  0  0  0  0  0
   25.6470   39.0410    7.7280 O   0  0  0  0  0  0  0  0  0  0  0  0
   26.3980   38.8870    8.3620 H   0  0  0  0  0  0  0  0  0  0  0  0
   22.7750   37.8510    7.0770 O   0  0  0  0  0  0  0  0  0  0  0  0
   22.0230   38.3700    7.4610 H   0  0  0  0  0  0  0  0  0  0  0  0
   26.7750   37.6800   12.9710 C   0  0  0  0  0  0  0  0  0  0  0  0
   27.3850   36.3740   13.2800 C   0  0  0  0  0  0  0  0  0  0  0  0
   28.7430   36.1190   13.0670 C   0  0  0  0  0  0  0  0  0  0  0  0
   26.8950   35.2450   13.7730 N   0  0  0  0  0  0  0  0  0  0  0  0
   29.0050   34.8500   13.4400 N   0  0  0  0  0  0  0  0  0  0  0  0
   27.8820   34.3440   13.8610 N   0  0  0  0  0  0  0  0  0  0  0  0
   30.3030   34.2420   13.3550 C   0  0  0  0  0  0  0  0  0  0  0  0
   30.6650   33.4440   14.5850 C   0  0  0  0  0  0  0  0  0  0  0  0
   31.0210   34.3050   15.7580 C   0  0  0  0  0  0  0  0  0  0  0  0
   31.7660   35.3840   15.2960 O   0  0  0  0  0  0  0  0  0  0  0  0
   33.1300   35.0680   15.3040 C   0  0  0  0  0  0  0  0  0  0  0  0
   33.9150   36.0220   16.1660 C   0  0  0  0  0  0  0  0  0  0  0  0
   31.7470   33.6360   16.7090 O   0  0  0  0  0  0  0  0  0  0  0  0
   31.0700   33.5440   17.9250 C   0  0  0  0  0  0  0  0  0  0  0  0
   31.8780   34.2780   18.9900 C   0  0  0  0  0  0  0  0  0  0  0  0
   29.8670   25.5550   16.9770 C   0  0  0  0  0  0  0  0  0  0  0  0
   28.3450   25.7220   17.0260 C   0  0  0  0  0  0  0  0  0  0  0  0
   27.6010   24.4060   16.8590 C   0  0  0  0  0  0  0  0  0  0  0  0
   26.5320   24.2240   17.9010 C   0  0  0  0  0  0  0  0  0  0  0  0
   25.1590   24.3270   17.2450 C   0  0  0  0  0  0  0  0  0  0  0  0
   24.5010   25.6030   17.6160 N   0  0  0  0  0  0  0  0  0  0  0  0
  1 32  1  0  0  0  0
  2  1  1  0  0  0  0
  3  4  1  0  0  0  0
  3  2  1  0  0  0  0
  5  2  2  0  0  0  0
  6  3  1  0  0  0  0
  7  6  1  1  0  0  0
  8 28  1  1  0  0  0
  8  7  1  0  0  0  0
  9  8  1  1  0  0  0
  9 12  1  0  0  0  0
 10 15  1  1  0  0  0
 10 17  1  0  0  0  0
 11 10  1  0  0  0  0
 12 10  1  0  0  0  0
 13 21  1  1  0  0  0
 13 14  1  0  0  0  0
 13 11  1  0  0  0  0
 14 23  1  6  0  0  0
 14  9  1  0  0  0  0
 16 15  1  0  0  0  0
 17 18  2  0  0  0  0
 17 19  1  0  0  0  0
 19 20  1  0  0  0  0
 22 21  1  0  0  0  0
 24 23  1  0  0  0  0
 24 27  2  0  0  0  0
 25 23  1  0  0  0  0
 26 24  1  0  0  0  0
 28 29  1  0  0  0  0
 30 31  1  0  0  0  0
 30  7  1  0  0  0  0
 32 33  1  0  0  0  0
 33 35  1  0  0  0  0
 34 33  2  0  0  0  0
 34 36  1  0  0  0  0
 35 37  2  0  0  0  0
 36 37  1  0  0  0  0
 38 36  1  0  0  0  0
 38 39  1  0  0  0  0
 39 40  1  0  0  0  0
 40 44  1  0  0  0  0
 41 42  1  0  0  0  0
 41 40  1  0  0  0  0
 42 43  1  0  0  0  0
 44 45  1  0  0  0  0
 45 46  1  0  0  0  0
 47 48  1  0  0  0  0
 49 48  1  0  0  0  0
 49 50  1  0  0  0  0
 51 52  1  0  0  0  0
 51 50  1  0  0  0  0
M  END
>  <REMARK>
 VINA RESULT:    -4.324      5.182     11.574
 INTER + INTRA:         -14.938
 INTER:                  -9.347
 INTRA:                  -5.591
 UNBOUND:                -5.938
 SMILES CCOC(CCn1cc(COC(=O)NC[C@@H](O)C(O)[C@@H]2O[C@@](O)(C(=O)O)C[C@H](O)[C@H]2NC(C)=O)nn1)OCC
 SMILES IDX 11 1 12 2 14 3 13 5 15 6 16 7 18 8 20 9 22 10 27 11 21 12
 SMILES IDX 28 13 30 14 23 15 24 17 25 18 26 19 29 21 31 23 32 24 33 26
 SMILES IDX 34 27 19 28 17 30 10 32 9 33 8 34 35 35 7 36 36 37 6 38 5 39
 SMILES IDX 4 40 3 41 2 42 1 43 37 44 38 45 39 46
 H PARENT 14 4 23 16 26 20 29 22 31 25 19 29 17 31
 Flexibility Score: inf
  4 active torsions:
  status: ('A' for Active; 'I' for Inactive)
    1  A    between atoms: CA   and  CB  
    2  A    between atoms: CB   and  CG  
    3  A    between atoms: CG   and  CD  
    4  A    between atoms: CD   and  CE  

>  <TORSDO>
F 21

>  <BEGIN_>
RES LYS A 131

$$$$
ligand_54_pose_4_2HRL.pdbqt
 OpenBabel07062320523D

  6  5  0  0  0  0  0  0  0  0999 V2000
   33.1930   34.6630    9.2900 C   0  0  0  0  0  0  0  0  0  0  0  0
   32.0600   35.3600   10.0340 C   0  0  0  0  0  0  0  0  0  0  0  0
   32.5020   36.0390   11.3050 C   0  0  0  0  0  0  0  0  0  0  0  0
   31.8930   37.4280   11.4110 C   0  0  0  0  0  0  0  0  0  0  0  0
   31.4330   37.9140   10.0490 C   0  0  0  0  0  0  0  0  0  0  0  0
   32.2790   39.0410    9.5680 N   0  0  0  0  0  0  0  0  0  0  0  0
  1  2  1  0  0  0  0
  2  3  1  0  0  0  0
  3  4  1  0  0  0  0
  5  4  1  0  0  0  0
  6  5  1  0  0  0  0
M  END
>  <EGIN_R>
ES LYS A 135

>  <REMARK>
  4 active torsions:
  status: ('A' for Active; 'I' for Inactive)
    5  A    between atoms: CA   and  CB  
    6  A    between atoms: CB   and  CG  
    7  A    between atoms: CG   and  CD  
    8  A    between atoms: CD   and  CE  

$$$$
