ligand_62_pose_17_2HRL.pdbqt
 OpenBabel07062320523D

 52 52  0  0  1  0  0  0  0  0999 V2000
   30.3690   36.6930   13.4220 N   0  0  0  0  0  0  0  0  0  0  0  0
   31.6100   36.2520   12.9180 C   0  0  0  0  0  0  0  0  0  0  0  0
   32.2420   36.8950   12.0500 O   0  0  0  0  0  0  0  0  0  0  0  0
   29.9180   36.0870   14.1530 H   0  0  0  0  0  0  0  0  0  0  0  0
   29.6760   37.8730   13.0330 C   0  0  0  0  0  0  0  0  0  0  0  0
   28.7670   37.7840   11.8630 C   0  0  2  0  0  0  0  0  0  0  0  0
   28.0100   36.4760   11.7960 C   0  0  2  0  0  0  0  0  0  0  0  0
   27.1170   36.3250   10.6060 C   0  0  2  0  0  0  0  0  0  0  0  0
   26.1050   37.6290    8.9840 C   0  0  2  0  0  0  0  0  0  0  0  0
   25.8480   36.2400    8.4620 C   0  0  0  0  0  0  0  0  0  0  0  0
   26.8660   37.6340   10.1400 O   0  0  0  0  0  0  0  0  0  0  0  0
   25.2340   35.3250    9.4610 C   0  0  1  0  0  0  0  0  0  0  0  0
   25.7930   35.6860   10.8470 C   0  0  1  0  0  0  0  0  0  0  0  0
   24.8940   38.2820    9.1290 O   0  0  0  0  0  0  0  0  0  0  0  0
   24.9760   39.2680    9.1330 H   0  0  0  0  0  0  0  0  0  0  0  0
   26.8820   38.3540    7.9420 C   0  0  0  0  0  0  0  0  0  0  0  0
   28.0530   38.7720    8.1550 O   0  0  0  0  0  0  0  0  0  0  0  0
   26.3570   38.6120    6.6710 O   0  0  0  0  0  0  0  0  0  0  0  0
   26.9090   38.4870    5.8330 H   0  0  0  0  0  0  0  0  0  0  0  0
   23.8420   35.3740    9.4700 O   0  0  0  0  0  0  0  0  0  0  0  0
   23.5480   35.2630    8.5250 H   0  0  0  0  0  0  0  0  0  0  0  0
   25.7720   34.4810   11.6010 N   0  0  0  0  0  0  0  0  0  0  0  0
   24.6710   34.1190   12.4660 C   0  0  0  0  0  0  0  0  0  0  0  0
   26.5410   33.7770   11.5710 H   0  0  0  0  0  0  0  0  0  0  0  0
   24.6940   32.8520   13.2330 C   0  0  0  0  0  0  0  0  0  0  0  0
   23.6980   34.8750   12.5670 O   0  0  0  0  0  0  0  0  0  0  0  0
   27.1200   36.5450   12.9130 O   0  0  0  0  0  0  0  0  0  0  0  0
   26.8290   37.4570   13.0710 H   0  0  0  0  0  0  0  0  0  0  0  0
   29.4980   37.8660   10.6800 O   0  0  0  0  0  0  0  0  0  0  0  0
   29.1470   37.2200   10.0230 H   0  0  0  0  0  0  0  0  0  0  0  0
   32.1890   35.0710   13.3730 O   0  0  0  0  0  0  0  0  0  0  0  0
   32.9180   35.0190   14.5710 C   0  0  0  0  0  0  0  0  0  0  0  0
   32.2030   34.2260   15.5880 C   0  0  0  0  0  0  0  0  0  0  0  0
   31.6600   32.9640   15.4450 C   0  0  0  0  0  0  0  0  0  0  0  0
   31.9630   34.6310   16.8540 N   0  0  0  0  0  0  0  0  0  0  0  0
   31.1170   32.6490   16.6160 N   0  0  0  0  0  0  0  0  0  0  0  0
   31.2970   33.6350   17.4460 N   0  0  0  0  0  0  0  0  0  0  0  0
   30.4260   31.4030   16.9350 C   0  0  1  0  0  0  0  0  0  0  0  0
   29.9780   31.4590   18.3680 C   0  0  0  0  0  0  0  0  0  0  0  0
   29.0380   30.4880   18.6280 O   0  0  0  0  0  0  0  0  0  0  0  0
   29.1990   29.8390   19.8330 C   0  0  0  0  0  0  0  0  0  0  0  0
   29.2130   31.2880   16.0620 C   0  0  0  0  0  0  0  0  0  0  0  0
   28.4920   32.2730   15.8450 O   0  0  0  0  0  0  0  0  0  0  0  0
   28.9250   30.0180   15.4980 N   0  0  0  0  0  0  0  0  0  0  0  0
   28.3570   29.9780   14.6200 H   0  0  0  0  0  0  0  0  0  0  0  0
   29.2640   29.1540   15.9370 H   0  0  0  0  0  0  0  0  0  0  0  0
   29.8670   25.5550   16.9770 C   0  0  0  0  0  0  0  0  0  0  0  0
   28.3450   25.7220   17.0260 C   0  0  0  0  0  0  0  0  0  0  0  0
   27.6020   24.3990   16.9190 C   0  0  0  0  0  0  0  0  0  0  0  0
   26.5360   24.2620   17.9710 C   0  0  0  0  0  0  0  0  0  0  0  0
   25.2830   23.6530   17.3500 C   0  0  0  0  0  0  0  0  0  0  0  0
   24.3530   24.7190   16.9080 N   0  0  0  0  0  0  0  0  0  0  0  0
  1  4  1  0  0  0  0
  2 31  1  0  0  0  0
  2  1  1  0  0  0  0
  3  2  2  0  0  0  0
  5  1  1  0  0  0  0
  6  5  1  1  0  0  0
  7  6  1  0  0  0  0
  7 27  1  1  0  0  0
  8 13  1  0  0  0  0
  8  7  1  1  0  0  0
  9 16  1  6  0  0  0
  9 14  1  0  0  0  0
  9 11  1  0  0  0  0
 10  9  1  0  0  0  0
 10 12  1  0  0  0  0
 11  8  1  0  0  0  0
 12 20  1  1  0  0  0
 12 13  1  0  0  0  0
 13 22  1  1  0  0  0
 14 15  1  0  0  0  0
 16 17  2  0  0  0  0
 18 16  1  0  0  0  0
 19 18  1  0  0  0  0
 21 20  1  0  0  0  0
 22 23  1  0  0  0  0
 23 26  2  0  0  0  0
 23 25  1  0  0  0  0
 24 22  1  0  0  0  0
 27 28  1  0  0  0  0
 29  6  1  0  0  0  0
 30 29  1  0  0  0  0
 31 32  1  0  0  0  0
 32 33  1  0  0  0  0
 33 35  1  0  0  0  0
 34 33  2  0  0  0  0
 34 36  1  0  0  0  0
 35 37  2  0  0  0  0
 36 38  1  0  0  0  0
 36 37  1  0  0  0  0
 38 39  1  1  0  0  0
 39 40  1  0  0  0  0
 40 41  1  0  0  0  0
 42 38  1  0  0  0  0
 43 42  2  0  0  0  0
 44 46  1  0  0  0  0
 44 42  1  0  0  0  0
 45 44  1  0  0  0  0
 47 48  1  0  0  0  0
 49 48  1  0  0  0  0
 49 50  1  0  0  0  0
 51 50  1  0  0  0  0
 52 51  1  0  0  0  0
M  END
>  <REMARK>
 VINA RESULT:    -3.883      2.913      9.794
 INTER + INTRA:         -14.155
 INTER:                  -8.601
 INTRA:                  -5.554
 UNBOUND:                -6.753
 SMILES COCC(C(N)=O)n1cc(COC(=O)NC[C@@H](O)C(O)[C@@H]2O[C@@](O)(C(=O)O)C[C@H](O)[C@H]2NC(C)=O)nn1
 SMILES IDX 15 1 13 2 14 3 16 5 17 6 19 7 21 8 23 9 28 10 22 11 29 12
 SMILES IDX 31 13 24 14 25 16 26 17 27 18 30 20 32 22 33 23 34 25 35 26
 SMILES IDX 20 27 18 29 12 31 11 32 10 33 9 34 36 35 8 36 37 37 4 38
 SMILES IDX 3 39 2 40 1 41 5 42 7 43 6 44
 H PARENT 15 4 24 15 27 19 30 21 32 24 20 28 18 30 6 45 6 46
 Flexibility Score: inf
  4 active torsions:
  status: ('A' for Active; 'I' for Inactive)
    1  A    between atoms: CA   and  CB  
    2  A    between atoms: CB   and  CG  
    3  A    between atoms: CG   and  CD  
    4  A    between atoms: CD   and  CE  

>  <TORSDO>
F 18

>  <BEGIN_>
RES LYS A 131

$$$$
ligand_62_pose_17_2HRL.pdbqt
 OpenBabel07062320523D

  6  5  0  0  0  0  0  0  0  0999 V2000
   33.1930   34.6630    9.2900 C   0  0  0  0  0  0  0  0  0  0  0  0
   32.0600   35.3600   10.0340 C   0  0  0  0  0  0  0  0  0  0  0  0
   30.6890   34.9080    9.6030 C   0  0  0  0  0  0  0  0  0  0  0  0
   30.2160   35.7020    8.3950 C   0  0  0  0  0  0  0  0  0  0  0  0
   29.1300   34.9470    7.6530 C   0  0  0  0  0  0  0  0  0  0  0  0
   28.7710   35.6360    6.3820 N   0  0  0  0  0  0  0  0  0  0  0  0
  1  2  1  0  0  0  0
  3  2  1  0  0  0  0
  4  3  1  0  0  0  0
  5  4  1  0  0  0  0
  6  5  1  0  0  0  0
M  END
>  <EGIN_R>
ES LYS A 135

>  <REMARK>
  4 active torsions:
  status: ('A' for Active; 'I' for Inactive)
    5  A    between atoms: CA   and  CB  
    6  A    between atoms: CB   and  CG  
    7  A    between atoms: CG   and  CD  
    8  A    between atoms: CD   and  CE  

$$$$
