ligand_15_pose_13_2HRL.pdbqt
 OpenBabel07062320523D

 50 51  0  0  1  0  0  0  0  0999 V2000
   26.2400   34.9480   15.6290 C   0  0  0  0  0  0  0  0  0  0  0  0
   27.6990   35.0350   15.2950 C   0  0  2  0  0  0  0  0  0  0  0  0
   28.6310   34.8450   16.4400 C   0  0  2  0  0  0  0  0  0  0  0  0
   30.0970   34.8910   16.0630 C   0  0  2  0  0  0  0  0  0  0  0  0
   31.3310   34.8500   14.0680 C   0  0  2  0  0  0  0  0  0  0  0  0
   32.3660   34.0980   14.8570 C   0  0  0  0  0  0  0  0  0  0  0  0
   30.1250   34.8260   14.6750 O   0  0  0  0  0  0  0  0  0  0  0  0
   31.6600   33.0110   15.6330 C   0  0  1  0  0  0  0  0  0  0  0  0
   30.7820   33.7050   16.6830 C   0  0  1  0  0  0  0  0  0  0  0  0
   31.1670   34.2130   12.8060 O   0  0  0  0  0  0  0  0  0  0  0  0
   30.6020   33.4190   12.9970 H   0  0  0  0  0  0  0  0  0  0  0  0
   31.7440   36.2610   13.8280 C   0  0  0  0  0  0  0  0  0  0  0  0
   32.5300   36.8800   14.5670 O   0  0  0  0  0  0  0  0  0  0  0  0
   31.2320   36.9270   12.7280 O   0  0  0  0  0  0  0  0  0  0  0  0
   31.7050   37.7180   12.2880 H   0  0  0  0  0  0  0  0  0  0  0  0
   30.7840   32.3730   14.7560 O   0  0  0  0  0  0  0  0  0  0  0  0
   30.8690   31.4000   14.7580 H   0  0  0  0  0  0  0  0  0  0  0  0
   31.6930   34.1570   17.6970 N   0  0  0  0  0  0  0  0  0  0  0  0
   31.3480   34.3250   19.0590 C   0  0  0  0  0  0  0  0  0  0  0  0
   32.6890   34.3870   17.4430 H   0  0  0  0  0  0  0  0  0  0  0  0
   32.3310   34.8030   20.0770 C   0  0  0  0  0  0  0  0  0  0  0  0
   30.1840   34.0650   19.4250 O   0  0  0  0  0  0  0  0  0  0  0  0
   28.3310   33.5990   17.0440 O   0  0  0  0  0  0  0  0  0  0  0  0
   28.4290   33.7170   18.0120 H   0  0  0  0  0  0  0  0  0  0  0  0
   27.9270   36.3110   14.7360 O   0  0  0  0  0  0  0  0  0  0  0  0
   28.8830   36.5560   14.7980 H   0  0  0  0  0  0  0  0  0  0  0  0
   25.8030   33.7020   16.1690 N   0  0  0  0  0  0  0  0  0  0  0  0
   25.3200   32.6650   15.2900 C   0  0  0  0  0  0  0  0  0  0  0  0
   25.7840   33.4420   17.1750 H   0  0  0  0  0  0  0  0  0  0  0  0
   25.3040   32.9060   14.0600 O   0  0  0  0  0  0  0  0  0  0  0  0
   24.8890   31.4440   15.7860 O   0  0  0  0  0  0  0  0  0  0  0  0
   25.6650   30.3110   15.4210 C   0  0  0  0  0  0  0  0  0  0  0  0
   26.9520   30.4100   16.1680 C   0  0  0  0  0  0  0  0  0  0  0  0
   27.1360   30.2100   17.5230 C   0  0  0  0  0  0  0  0  0  0  0  0
   28.1740   30.7060   15.6850 N   0  0  0  0  0  0  0  0  0  0  0  0
   28.4350   30.3870   17.8160 N   0  0  0  0  0  0  0  0  0  0  0  0
   29.0240   30.6850   16.6810 N   0  0  0  0  0  0  0  0  0  0  0  0
   29.1060   30.2900   19.0700 C   0  0  0  0  0  0  0  0  0  0  0  0
   30.4110   30.7100   19.2440 C   0  0  0  0  0  0  0  0  0  0  0  0
   28.4670   29.7670   20.1750 C   0  0  0  0  0  0  0  0  0  0  0  0
   31.0480   30.6110   20.4670 C   0  0  0  0  0  0  0  0  0  0  0  0
   29.1030   29.6650   21.4070 C   0  0  0  0  0  0  0  0  0  0  0  0
   30.4020   30.0840   21.5720 C   0  0  0  0  0  0  0  0  0  0  0  0
   31.3280   29.9710   23.2330 Br  0  0  0  0  0  0  0  0  0  0  0  0
   29.8670   25.5550   16.9770 C   0  0  0  0  0  0  0  0  0  0  0  0
   28.3450   25.7220   17.0260 C   0  0  0  0  0  0  0  0  0  0  0  0
   27.6010   24.4070   16.8570 C   0  0  0  0  0  0  0  0  0  0  0  0
   26.6630   24.1350   18.0000 C   0  0  0  0  0  0  0  0  0  0  0  0
   25.6600   23.0610   17.5920 C   0  0  0  0  0  0  0  0  0  0  0  0
   24.8380   22.6490   18.7550 N   0  0  0  0  0  0  0  0  0  0  0  0
  1 27  1  0  0  0  0
  2  1  1  1  0  0  0
  2  3  1  0  0  0  0
  3 23  1  6  0  0  0
  4  3  1  1  0  0  0
  4  9  1  0  0  0  0
  5 10  1  6  0  0  0
  5  7  1  0  0  0  0
  5  6  1  0  0  0  0
  6  8  1  0  0  0  0
  7  4  1  0  0  0  0
  8 16  1  6  0  0  0
  8  9  1  0  0  0  0
  9 18  1  1  0  0  0
 10 11  1  0  0  0  0
 12  5  1  0  0  0  0
 12 13  2  0  0  0  0
 14 12  1  0  0  0  0
 15 14  1  0  0  0  0
 16 17  1  0  0  0  0
 18 19  1  0  0  0  0
 19 22  2  0  0  0  0
 19 21  1  0  0  0  0
 20 18  1  0  0  0  0
 23 24  1  0  0  0  0
 25 26  1  0  0  0  0
 25  2  1  0  0  0  0
 27 29  1  0  0  0  0
 28 31  1  0  0  0  0
 28 27  1  0  0  0  0
 30 28  2  0  0  0  0
 32 31  1  0  0  0  0
 32 33  1  0  0  0  0
 33 34  2  0  0  0  0
 34 36  1  0  0  0  0
 35 33  1  0  0  0  0
 35 37  2  0  0  0  0
 36 38  1  0  0  0  0
 37 36  1  0  0  0  0
 38 39  2  0  0  0  0
 38 40  1  0  0  0  0
 39 41  1  0  0  0  0
 40 42  2  0  0  0  0
 41 43  2  0  0  0  0
 42 43  1  0  0  0  0
 43 44  1  0  0  0  0
 45 46  1  0  0  0  0
 47 46  1  0  0  0  0
 47 48  1  0  0  0  0
 49 48  1  0  0  0  0
 49 50  1  0  0  0  0
M  END
>  <REMARK>
 VINA RESULT:    -5.184      4.063      7.195
 INTER + INTRA:         -14.134
 INTER:                  -7.444
 INTRA:                  -6.690
 UNBOUND:                -5.161
 SMILES CC(=O)N[C@@H]1[C@@H](O)C[C@](O)(C(=O)O)O[C@H]1C(O)[C@H](O)CNC(=O)OCc1cn(-c2ccc(Br)cc2)nn1
 SMILES IDX 20 1 18 2 16 3 15 4 9 5 8 6 14 7 6 8 5 9 10 10 11 12 12 13
 SMILES IDX 13 14 7 16 4 18 2 19 1 21 3 22 17 23 19 25 21 27 22 28 23 30
 SMILES IDX 24 31 25 32 26 33 27 34 37 35 28 36 36 37 29 38 30 39 35 40
 SMILES IDX 31 41 34 42 32 43 33 44
 H PARENT 10 11 13 15 7 17 4 20 17 24 19 26 21 29
 Flexibility Score: inf
  4 active torsions:
  status: ('A' for Active; 'I' for Inactive)
    1  A    between atoms: CA   and  CB  
    2  A    between atoms: CB   and  CG  
    3  A    between atoms: CG   and  CD  
    4  A    between atoms: CD   and  CE  

>  <TORSDO>
F 15

>  <BEGIN_>
RES LYS A 131

$$$$
ligand_15_pose_13_2HRL.pdbqt
 OpenBabel07062320523D

  6  5  0  0  0  0  0  0  0  0999 V2000
   33.1930   34.6630    9.2900 C   0  0  0  0  0  0  0  0  0  0  0  0
   32.0600   35.3600   10.0340 C   0  0  0  0  0  0  0  0  0  0  0  0
   30.7750   35.4250    9.2500 C   0  0  0  0  0  0  0  0  0  0  0  0
   30.1880   34.0350    9.0640 C   0  0  0  0  0  0  0  0  0  0  0  0
   28.6750   34.0780    9.1560 C   0  0  0  0  0  0  0  0  0  0  0  0
   28.0890   34.8330    8.0140 N   0  0  0  0  0  0  0  0  0  0  0  0
  1  2  1  0  0  0  0
  3  2  1  0  0  0  0
  4  5  1  0  0  0  0
  4  3  1  0  0  0  0
  6  5  1  0  0  0  0
M  END
>  <EGIN_R>
ES LYS A 135

>  <REMARK>
  4 active torsions:
  status: ('A' for Active; 'I' for Inactive)
    5  A    between atoms: CA   and  CB  
    6  A    between atoms: CB   and  CG  
    7  A    between atoms: CG   and  CD  
    8  A    between atoms: CD   and  CE  

$$$$
