ligand_24_pose_11_2HRL.pdbqt
 OpenBabel07062320523D

 52 53  0  0  1  0  0  0  0  0999 V2000
   23.0500   32.5570   14.3330 N   0  0  0  0  0  0  0  0  0  0  0  0
   23.4450   31.4740   13.5190 C   0  0  0  0  0  0  0  0  0  0  0  0
   22.6890   30.9380   12.6730 O   0  0  0  0  0  0  0  0  0  0  0  0
   23.7610   32.9230   15.0090 H   0  0  0  0  0  0  0  0  0  0  0  0
   21.7620   33.1730   14.2890 C   0  0  0  0  0  0  0  0  0  0  0  0
   21.7480   34.5620   13.7470 C   0  0  2  0  0  0  0  0  0  0  0  0
   21.9440   34.6080   12.2480 C   0  0  1  0  0  0  0  0  0  0  0  0
   23.3510   34.8240   11.8190 C   0  0  2  0  0  0  0  0  0  0  0  0
   25.3300   35.9000   12.3470 C   0  0  2  0  0  0  0  0  0  0  0  0
   25.5790   36.2800   10.9150 C   0  0  0  0  0  0  0  0  0  0  0  0
   24.0330   35.6770   12.6830 O   0  0  0  0  0  0  0  0  0  0  0  0
   24.7020   35.5150    9.9460 C   0  0  1  0  0  0  0  0  0  0  0  0
   23.3110   35.5690   10.4800 C   0  0  1  0  0  0  0  0  0  0  0  0
   25.7440   37.0300   13.1010 O   0  0  0  0  0  0  0  0  0  0  0  0
   25.7950   36.7140   14.0350 H   0  0  0  0  0  0  0  0  0  0  0  0
   26.2700   34.8080   12.6960 C   0  0  0  0  0  0  0  0  0  0  0  0
   27.4130   34.7000   12.1610 O   0  0  0  0  0  0  0  0  0  0  0  0
   25.9450   33.8330   13.6370 O   0  0  0  0  0  0  0  0  0  0  0  0
   26.2060   32.8750   13.4970 H   0  0  0  0  0  0  0  0  0  0  0  0
   24.8300   36.0480    8.6780 O   0  0  0  0  0  0  0  0  0  0  0  0
   25.4740   35.5310    8.1700 H   0  0  0  0  0  0  0  0  0  0  0  0
   22.3070   35.0870    9.5880 N   0  0  0  0  0  0  0  0  0  0  0  0
   21.5870   35.8720    8.6760 C   0  0  0  0  0  0  0  0  0  0  0  0
   22.0880   34.0540    9.6110 H   0  0  0  0  0  0  0  0  0  0  0  0
   20.5670   35.2480    7.8000 C   0  0  0  0  0  0  0  0  0  0  0  0
   21.7980   37.0860    8.5980 O   0  0  0  0  0  0  0  0  0  0  0  0
   21.4240   33.4620   11.6860 O   0  0  0  0  0  0  0  0  0  0  0  0
   20.5450   33.1840   12.0260 H   0  0  0  0  0  0  0  0  0  0  0  0
   22.5830   35.4170   14.4030 O   0  0  0  0  0  0  0  0  0  0  0  0
   22.0360   36.1990   14.7180 H   0  0  0  0  0  0  0  0  0  0  0  0
   24.7460   30.9520   13.6440 O   0  0  0  0  0  0  0  0  0  0  0  0
   25.0550   30.2000   14.7960 C   0  0  0  0  0  0  0  0  0  0  0  0
   26.0670   30.8580   15.6420 C   0  0  0  0  0  0  0  0  0  0  0  0
   27.2550   30.3020   16.1250 C   0  0  0  0  0  0  0  0  0  0  0  0
   26.0540   32.1140   16.1200 N   0  0  0  0  0  0  0  0  0  0  0  0
   27.8960   31.2230   16.8570 N   0  0  0  0  0  0  0  0  0  0  0  0
   27.1490   32.3100   16.8390 N   0  0  0  0  0  0  0  0  0  0  0  0
   29.1540   31.0860   17.5440 C   0  0  0  0  0  0  0  0  0  0  0  0
   30.1540   32.0530   17.0430 C   0  0  0  0  0  0  0  0  0  0  0  0
   30.6580   31.9380   15.7670 C   0  0  0  0  0  0  0  0  0  0  0  0
   30.5830   33.0700   17.8550 C   0  0  0  0  0  0  0  0  0  0  0  0
   31.6000   32.8530   15.3040 C   0  0  0  0  0  0  0  0  0  0  0  0
   31.5240   33.9930   17.4030 C   0  0  0  0  0  0  0  0  0  0  0  0
   32.0250   33.8790   16.1320 C   0  0  0  0  0  0  0  0  0  0  0  0
   32.9700   34.7870   15.6490 O   0  0  0  0  0  0  0  0  0  0  0  0
   33.3150   34.7690   14.2740 C   0  0  0  0  0  0  0  0  0  0  0  0
   29.8670   25.5550   16.9770 C   0  0  0  0  0  0  0  0  0  0  0  0
   28.3450   25.7220   17.0260 C   0  0  0  0  0  0  0  0  0  0  0  0
   27.6010   24.4060   16.8570 C   0  0  0  0  0  0  0  0  0  0  0  0
   26.7480   24.0810   18.0520 C   0  0  0  0  0  0  0  0  0  0  0  0
   25.7150   25.1850   18.2560 C   0  0  0  0  0  0  0  0  0  0  0  0
   25.8230   25.7510   19.6210 N   0  0  0  0  0  0  0  0  0  0  0  0
  1  4  1  0  0  0  0
  2 31  1  0  0  0  0
  2  1  1  0  0  0  0
  3  2  2  0  0  0  0
  5  1  1  0  0  0  0
  6  5  1  1  0  0  0
  6 29  1  0  0  0  0
  7 27  1  6  0  0  0
  7  6  1  0  0  0  0
  8  7  1  1  0  0  0
  8 11  1  0  0  0  0
  9 11  1  0  0  0  0
  9 16  1  1  0  0  0
  9 14  1  0  0  0  0
 10  9  1  0  0  0  0
 12 20  1  6  0  0  0
 12 13  1  0  0  0  0
 12 10  1  0  0  0  0
 13 22  1  6  0  0  0
 13  8  1  0  0  0  0
 14 15  1  0  0  0  0
 16 18  1  0  0  0  0
 17 16  2  0  0  0  0
 19 18  1  0  0  0  0
 21 20  1  0  0  0  0
 22 24  1  0  0  0  0
 23 22  1  0  0  0  0
 25 23  1  0  0  0  0
 26 23  2  0  0  0  0
 27 28  1  0  0  0  0
 29 30  1  0  0  0  0
 31 32  1  0  0  0  0
 32 33  1  0  0  0  0
 33 35  1  0  0  0  0
 33 34  2  0  0  0  0
 34 36  1  0  0  0  0
 35 37  2  0  0  0  0
 36 38  1  0  0  0  0
 37 36  1  0  0  0  0
 39 38  1  0  0  0  0
 39 41  2  0  0  0  0
 40 39  1  0  0  0  0
 42 40  2  0  0  0  0
 42 44  1  0  0  0  0
 43 41  1  0  0  0  0
 44 43  2  0  0  0  0
 45 44  1  0  0  0  0
 46 45  1  0  0  0  0
 47 48  1  0  0  0  0
 49 48  1  0  0  0  0
 49 50  1  0  0  0  0
 50 51  1  0  0  0  0
 51 52  1  0  0  0  0
M  END
>  <REMARK>
 VINA RESULT:    -4.980      4.698      8.612
 INTER + INTRA:         -14.477
 INTER:                  -8.760
 INTRA:                  -5.717
 UNBOUND:                -5.276
 SMILES COc1ccc(Cn2cc(COC(=O)NC[C@@H](O)C(O)[C@@H]3O[C@@](O)(C(=O)O)C[C@H](O)[C@H]3NC(C)=O)nn2)cc1
 SMILES IDX 15 1 13 2 14 3 16 5 17 6 19 7 21 8 23 9 28 10 22 11 29 12
 SMILES IDX 31 13 24 14 25 16 26 17 27 18 30 20 32 22 33 23 34 25 35 26
 SMILES IDX 20 27 18 29 12 31 11 32 10 33 9 34 36 35 8 36 37 37 7 38
 SMILES IDX 6 39 5 40 38 41 4 42 39 43 3 44 2 45 1 46
 H PARENT 15 4 24 15 27 19 30 21 32 24 20 28 18 30
 Flexibility Score: inf
  4 active torsions:
  status: ('A' for Active; 'I' for Inactive)
    1  A    between atoms: CA   and  CB  
    2  A    between atoms: CB   and  CG  
    3  A    between atoms: CG   and  CD  
    4  A    between atoms: CD   and  CE  

>  <TORSDO>
F 17

>  <BEGIN_>
RES LYS A 131

$$$$
ligand_24_pose_11_2HRL.pdbqt
 OpenBabel07062320523D

  6  5  0  0  0  0  0  0  0  0999 V2000
   33.1930   34.6630    9.2900 C   0  0  0  0  0  0  0  0  0  0  0  0
   32.0600   35.3600   10.0340 C   0  0  0  0  0  0  0  0  0  0  0  0
   30.7880   35.4650    9.2330 C   0  0  0  0  0  0  0  0  0  0  0  0
   30.2490   34.0830    8.8980 C   0  0  0  0  0  0  0  0  0  0  0  0
   28.7390   34.0520    9.0390 C   0  0  0  0  0  0  0  0  0  0  0  0
   28.0920   35.0050    8.0950 N   0  0  0  0  0  0  0  0  0  0  0  0
  1  2  1  0  0  0  0
  3  2  1  0  0  0  0
  4  5  1  0  0  0  0
  4  3  1  0  0  0  0
  6  5  1  0  0  0  0
M  END
>  <EGIN_R>
ES LYS A 135

>  <REMARK>
  4 active torsions:
  status: ('A' for Active; 'I' for Inactive)
    5  A    between atoms: CA   and  CB  
    6  A    between atoms: CB   and  CG  
    7  A    between atoms: CG   and  CD  
    8  A    between atoms: CD   and  CE  

$$$$
