ligand_90_pose_4_2HRL.pdbqt
 OpenBabel07062320523D

 61 62  0  0  1  0  0  0  0  0999 V2000
   30.2830   32.0540   20.1660 C   0  0  0  0  0  0  0  0  0  0  0  0
   31.4940   31.5310   20.6730 O   0  0  0  0  0  0  0  0  0  0  0  0
   31.5730   30.2520   21.1950 C   0  0  0  0  0  0  0  0  0  0  0  0
   31.2990   29.0980   20.3840 N   0  0  0  0  0  0  0  0  0  0  0  0
   31.0340   29.2860   19.3960 H   0  0  0  0  0  0  0  0  0  0  0  0
   31.8860   30.1180   22.3910 O   0  0  0  0  0  0  0  0  0  0  0  0
   31.3750   27.7640   20.8710 C   0  0  0  0  0  0  0  0  0  0  0  0
   30.0680   27.0550   20.9480 C   0  0  2  0  0  0  0  0  0  0  0  0
   28.9800   27.9640   20.3980 C   0  0  1  0  0  0  0  0  0  0  0  0
   27.8890   27.2110   19.7070 C   0  0  2  0  0  0  0  0  0  0  0  0
   26.7960   28.5970   18.1860 C   0  0  2  0  0  0  0  0  0  0  0  0
   25.3960   28.0910   18.4990 C   0  0  0  0  0  0  0  0  0  0  0  0
   27.7480   27.6420   18.4130 O   0  0  0  0  0  0  0  0  0  0  0  0
   25.4830   26.8980   19.4400 C   0  0  1  0  0  0  0  0  0  0  0  0
   26.5910   27.2390   20.4440 C   0  0  1  0  0  0  0  0  0  0  0  0
   27.0090   29.6760   19.0230 O   0  0  0  0  0  0  0  0  0  0  0  0
   26.4480   30.4470   18.7540 H   0  0  0  0  0  0  0  0  0  0  0  0
   26.8970   29.0770   16.7830 C   0  0  0  0  0  0  0  0  0  0  0  0
   25.8780   29.4340   16.1270 O   0  0  0  0  0  0  0  0  0  0  0  0
   28.1210   29.1540   16.1400 O   0  0  0  0  0  0  0  0  0  0  0  0
   28.9040   28.5460   16.2980 H   0  0  0  0  0  0  0  0  0  0  0  0
   24.2580   26.7710   20.0710 O   0  0  0  0  0  0  0  0  0  0  0  0
   24.3330   26.5440   21.0250 H   0  0  0  0  0  0  0  0  0  0  0  0
   26.5700   26.2730   21.5350 N   0  0  0  0  0  0  0  0  0  0  0  0
   26.3130   26.7160   22.8480 C   0  0  0  0  0  0  0  0  0  0  0  0
   26.7460   25.2850   21.3390 H   0  0  0  0  0  0  0  0  0  0  0  0
   26.2810   25.7490   24.0070 C   0  0  0  0  0  0  0  0  0  0  0  0
   26.0980   27.9150   23.1430 O   0  0  0  0  0  0  0  0  0  0  0  0
   28.4350   28.7550   21.3970 O   0  0  0  0  0  0  0  0  0  0  0  0
   27.4610   28.7850   21.3810 H   0  0  0  0  0  0  0  0  0  0  0  0
   29.7080   26.6380   22.2190 O   0  0  0  0  0  0  0  0  0  0  0  0
   29.9580   25.6910   22.3960 H   0  0  0  0  0  0  0  0  0  0  0  0
   30.3460   31.8590   18.6970 C   0  0  0  0  0  0  0  0  0  0  0  0
   30.9870   32.7170   17.8310 C   0  0  0  0  0  0  0  0  0  0  0  0
   29.8420   30.9000   17.9070 N   0  0  0  0  0  0  0  0  0  0  0  0
   30.8600   32.2650   16.5450 N   0  0  0  0  0  0  0  0  0  0  0  0
   30.1600   31.1610   16.6250 N   0  0  0  0  0  0  0  0  0  0  0  0
   31.4310   32.9770   15.4230 C   0  0  0  0  0  0  0  0  0  0  0  0
   30.2600   33.5480   14.6450 C   0  0  0  0  0  0  0  0  0  0  0  0
   30.4450   34.0530   13.5170 O   0  0  0  0  0  0  0  0  0  0  0  0
   28.9560   33.5340   15.1460 N   0  0  0  0  0  0  0  0  0  0  0  0
   28.8860   33.0560   16.1230 H   0  0  0  0  0  0  0  0  0  0  0  0
   27.7550   34.0370   14.5890 C   0  0  0  0  0  0  0  0  0  0  0  0
   26.4580   33.5650   15.0670 C   0  0  1  0  0  0  0  0  0  0  0  0
   26.4720   32.1960   15.4480 O   0  0  0  0  0  0  0  0  0  0  0  0
   25.9600   32.0870   16.2860 H   0  0  0  0  0  0  0  0  0  0  0  0
   25.5730   34.4100   15.8850 C   0  0  0  0  0  0  0  0  0  0  0  0
   24.2070   33.9260   15.9530 N   0  0  0  0  0  0  0  0  0  0  0  0
   23.2530   34.1160   15.0060 C   0  0  0  0  0  0  0  0  0  0  0  0
   23.6650   33.2320   16.9700 C   0  0  0  0  0  0  0  0  0  0  0  0
   22.1030   33.5130   15.4800 C   0  0  0  0  0  0  0  0  0  0  0  0
   22.3540   32.9760   16.6750 N   0  0  0  0  0  0  0  0  0  0  0  0
   24.2670   32.7950   18.1760 N   0  0  0  0  0  0  0  0  0  0  0  0
   23.8370   33.2920   19.2590 O   0  0  0  0  0  0  0  0  0  0  0  0
   25.2680   31.8910   18.2910 O   0  0  0  0  0  0  0  0  0  0  0  0
   29.8670   25.5550   16.9770 C   0  0  0  0  0  0  0  0  0  0  0  0
   28.3450   25.7220   17.0260 C   0  0  0  0  0  0  0  0  0  0  0  0
   27.5990   24.4290   16.7330 C   0  0  0  0  0  0  0  0  0  0  0  0
   26.9780   23.8410   17.9700 C   0  0  0  0  0  0  0  0  0  0  0  0
   25.5840   23.3180   17.6400 C   0  0  0  0  0  0  0  0  0  0  0  0
   24.8000   24.3490   16.9180 N   0  0  0  0  0  0  0  0  0  0  0  0
  1  2  1  0  0  0  0
  2  3  1  0  0  0  0
  3  6  2  0  0  0  0
  4  7  1  0  0  0  0
  4  3  1  0  0  0  0
  5  4  1  0  0  0  0
  8  7  1  1  0  0  0
  8 31  1  0  0  0  0
  9  8  1  0  0  0  0
  9 29  1  1  0  0  0
 10  9  1  1  0  0  0
 10 15  1  0  0  0  0
 11 18  1  6  0  0  0
 11 13  1  0  0  0  0
 11 12  1  0  0  0  0
 11 16  1  0  0  0  0
 12 14  1  0  0  0  0
 13 10  1  0  0  0  0
 14 22  1  1  0  0  0
 14 15  1  0  0  0  0
 15 24  1  1  0  0  0
 17 16  1  0  0  0  0
 19 18  2  0  0  0  0
 20 21  1  0  0  0  0
 20 18  1  0  0  0  0
 22 23  1  0  0  0  0
 24 25  1  0  0  0  0
 25 28  2  0  0  0  0
 25 27  1  0  0  0  0
 26 24  1  0  0  0  0
 30 29  1  0  0  0  0
 31 32  1  0  0  0  0
 33  1  1  0  0  0  0
 34 33  2  0  0  0  0
 35 33  1  0  0  0  0
 36 37  1  0  0  0  0
 36 34  1  0  0  0  0
 37 35  2  0  0  0  0
 38 36  1  0  0  0  0
 39 41  1  0  0  0  0
 39 38  1  0  0  0  0
 40 39  2  0  0  0  0
 41 42  1  0  0  0  0
 43 41  1  0  0  0  0
 44 43  1  1  0  0  0
 44 45  1  0  0  0  0
 44 47  1  0  0  0  0
 45 46  1  0  0  0  0
 47 48  1  0  0  0  0
 48 50  1  0  0  0  0
 49 51  2  0  0  0  0
 49 48  1  0  0  0  0
 50 53  1  0  0  0  0
 51 52  1  0  0  0  0
 52 50  2  0  0  0  0
 53 55  2  0  0  0  0
 53 54  2  0  0  0  0
 56 57  1  0  0  0  0
 58 57  1  0  0  0  0
 58 59  1  0  0  0  0
 60 59  1  0  0  0  0
 61 60  1  0  0  0  0
M  END
>  <REMARK>
 VINA RESULT:    -5.335      6.510     13.130
 INTER + INTRA:         -17.020
 INTER:                  -8.457
 INTRA:                  -8.563
 UNBOUND:                -5.759
 SMILES CC(=O)N[C@@H]1[C@@H](O)C[C@](O)(C(=O)O)O[C@H]1C(O)[C@H](O)CNC(=O)OCc1cn(CC(=O)NCC(O)Cn2ccnc2[N+](=O)[O-])nn1
 SMILES IDX 25 1 24 2 22 3 21 4 23 6 20 7 18 8 16 9 15 10 9 11 8 12
 SMILES IDX 14 13 6 14 5 15 10 16 11 18 12 19 13 20 7 22 4 24 2 25 1 27
 SMILES IDX 3 28 17 29 19 31 26 33 27 34 46 35 28 36 45 37 29 38 30 39
 SMILES IDX 31 40 32 41 33 43 34 44 35 45 36 47 37 48 38 49 41 50 39 51
 SMILES IDX 40 52 42 53 43 54 44 55
 H PARENT 21 5 10 17 13 21 7 23 4 26 17 30 19 32 32 42 35 46
 Flexibility Score: inf
  4 active torsions:
  status: ('A' for Active; 'I' for Inactive)
    1  A    between atoms: CA   and  CB  
    2  A    between atoms: CB   and  CG  
    3  A    between atoms: CG   and  CD  
    4  A    between atoms: CD   and  CE  

>  <TORSDO>
F 22

>  <BEGIN_>
RES LYS A 131

$$$$
ligand_90_pose_4_2HRL.pdbqt
 OpenBabel07062320523D

  6  5  0  0  0  0  0  0  0  0999 V2000
   33.1930   34.6630    9.2900 C   0  0  0  0  0  0  0  0  0  0  0  0
   32.0600   35.3600   10.0340 C   0  0  0  0  0  0  0  0  0  0  0  0
   30.6940   34.8250    9.6900 C   0  0  0  0  0  0  0  0  0  0  0  0
   29.9810   35.7560    8.7210 C   0  0  0  0  0  0  0  0  0  0  0  0
   28.9750   34.9870    7.8860 C   0  0  0  0  0  0  0  0  0  0  0  0
   28.8860   35.5430    6.5070 N   0  0  0  0  0  0  0  0  0  0  0  0
  1  2  1  0  0  0  0
  3  2  1  0  0  0  0
  4  3  1  0  0  0  0
  5  4  1  0  0  0  0
  6  5  1  0  0  0  0
M  END
>  <EGIN_R>
ES LYS A 135

>  <REMARK>
  4 active torsions:
  status: ('A' for Active; 'I' for Inactive)
    5  A    between atoms: CA   and  CB  
    6  A    between atoms: CB   and  CG  
    7  A    between atoms: CG   and  CD  
    8  A    between atoms: CD   and  CE  

$$$$
