ligand_46_pose_19_2HRL.pdbqt
 OpenBabel07062320523D

 50 51  0  0  1  0  0  0  0  0999 V2000
   25.7790   34.9460   12.6690 N   0  0  0  0  0  0  0  0  0  0  0  0
   25.9650   35.3290   14.0120 C   0  0  0  0  0  0  0  0  0  0  0  0
   25.3130   34.8270   14.9420 O   0  0  0  0  0  0  0  0  0  0  0  0
   26.3920   35.4400   11.9680 H   0  0  0  0  0  0  0  0  0  0  0  0
   24.8280   33.9590   12.2590 C   0  0  0  0  0  0  0  0  0  0  0  0
   23.6000   34.6350   11.6950 C   0  0  2  0  0  0  0  0  0  0  0  0
   23.9660   35.7220   10.7250 C   0  0  2  0  0  0  0  0  0  0  0  0
   22.7700   36.4070   10.1080 C   0  0  2  0  0  0  0  0  0  0  0  0
   20.8410   35.6100    9.0570 C   0  0  2  0  0  0  0  0  0  0  0  0
   20.6480   37.0620    8.5930 C   0  0  0  0  0  0  0  0  0  0  0  0
   21.6330   35.6610   10.1650 O   0  0  0  0  0  0  0  0  0  0  0  0
   21.9780   37.4030    7.9250 C   0  0  1  0  0  0  0  0  0  0  0  0
   23.1460   36.9890    8.7920 C   0  0  1  0  0  0  0  0  0  0  0  0
   21.3090   34.8300    8.0200 O   0  0  0  0  0  0  0  0  0  0  0  0
   21.2180   35.3330    7.1840 H   0  0  0  0  0  0  0  0  0  0  0  0
   19.4840   35.1310    9.5030 C   0  0  0  0  0  0  0  0  0  0  0  0
   18.4380   35.7210    9.1620 O   0  0  0  0  0  0  0  0  0  0  0  0
   19.3740   34.0160   10.3110 O   0  0  0  0  0  0  0  0  0  0  0  0
   19.4000   33.1050    9.8820 H   0  0  0  0  0  0  0  0  0  0  0  0
   21.9740   36.7230    6.7070 O   0  0  0  0  0  0  0  0  0  0  0  0
   21.1000   36.8410    6.2750 H   0  0  0  0  0  0  0  0  0  0  0  0
   23.9840   38.1690    9.0760 N   0  0  0  0  0  0  0  0  0  0  0  0
   25.2560   38.3620    8.4830 C   0  0  0  0  0  0  0  0  0  0  0  0
   23.6270   38.9060    9.7500 H   0  0  0  0  0  0  0  0  0  0  0  0
   26.1340   39.5310    8.7380 C   0  0  0  0  0  0  0  0  0  0  0  0
   25.6730   37.4860    7.6850 O   0  0  0  0  0  0  0  0  0  0  0  0
   24.8370   35.2150    9.7800 O   0  0  0  0  0  0  0  0  0  0  0  0
   25.7120   35.6590    9.8940 H   0  0  0  0  0  0  0  0  0  0  0  0
   22.8970   35.1210   12.7980 O   0  0  0  0  0  0  0  0  0  0  0  0
   22.7360   36.0900   12.7530 H   0  0  0  0  0  0  0  0  0  0  0  0
   26.9050   36.3030   14.3460 O   0  0  0  0  0  0  0  0  0  0  0  0
   27.8660   36.6960   13.3960 C   0  0  0  0  0  0  0  0  0  0  0  0
   29.0880   35.8610   13.4740 C   0  0  0  0  0  0  0  0  0  0  0  0
   29.8160   35.5970   14.6030 C   0  0  0  0  0  0  0  0  0  0  0  0
   29.6850   35.2300   12.4580 N   0  0  0  0  0  0  0  0  0  0  0  0
   30.8410   34.8080   14.2410 N   0  0  0  0  0  0  0  0  0  0  0  0
   30.7350   34.6010   12.9240 N   0  0  0  0  0  0  0  0  0  0  0  0
   31.8890   34.2560   15.0610 C   0  0  0  0  0  0  0  0  0  0  0  0
   31.3430   33.2920   16.0540 C   0  0  0  0  0  0  0  0  0  0  0  0
   31.2610   33.6140   17.4040 C   0  0  0  0  0  0  0  0  0  0  0  0
   30.8960   32.0470   15.6880 C   0  0  0  0  0  0  0  0  0  0  0  0
   30.7560   32.7200   18.3140 C   0  0  0  0  0  0  0  0  0  0  0  0
   30.3850   31.1380   16.5980 C   0  0  0  0  0  0  0  0  0  0  0  0
   30.3100   31.4730   17.9310 C   0  0  0  0  0  0  0  0  0  0  0  0
   29.8670   25.5550   16.9770 C   0  0  0  0  0  0  0  0  0  0  0  0
   28.3450   25.7220   17.0260 C   0  0  0  0  0  0  0  0  0  0  0  0
   27.6010   24.4020   16.8950 C   0  0  0  0  0  0  0  0  0  0  0  0
   26.1500   24.5300   17.2660 C   0  0  0  0  0  0  0  0  0  0  0  0
   25.6270   23.1820   17.7500 C   0  0  0  0  0  0  0  0  0  0  0  0
   25.5310   23.1630   19.2290 N   0  0  0  0  0  0  0  0  0  0  0  0
  1  2  1  0  0  0  0
  2 31  1  0  0  0  0
  2  3  2  0  0  0  0
  4  1  1  0  0  0  0
  5  1  1  0  0  0  0
  6  5  1  1  0  0  0
  6 29  1  0  0  0  0
  7 27  1  6  0  0  0
  7  6  1  0  0  0  0
  8 11  1  0  0  0  0
  8  7  1  6  0  0  0
  9 14  1  6  0  0  0
  9 16  1  0  0  0  0
  9 11  1  0  0  0  0
 10  9  1  0  0  0  0
 12 20  1  6  0  0  0
 12 10  1  0  0  0  0
 12 13  1  0  0  0  0
 13 22  1  1  0  0  0
 13  8  1  0  0  0  0
 15 14  1  0  0  0  0
 16 18  1  0  0  0  0
 17 16  2  0  0  0  0
 19 18  1  0  0  0  0
 21 20  1  0  0  0  0
 22 24  1  0  0  0  0
 23 25  1  0  0  0  0
 23 22  1  0  0  0  0
 26 23  2  0  0  0  0
 27 28  1  0  0  0  0
 30 29  1  0  0  0  0
 32 33  1  0  0  0  0
 32 31  1  0  0  0  0
 33 34  2  0  0  0  0
 35 37  2  0  0  0  0
 35 33  1  0  0  0  0
 36 34  1  0  0  0  0
 36 38  1  0  0  0  0
 37 36  1  0  0  0  0
 38 39  1  0  0  0  0
 39 40  1  0  0  0  0
 40 42  2  0  0  0  0
 41 39  2  0  0  0  0
 41 43  1  0  0  0  0
 43 44  2  0  0  0  0
 44 42  1  0  0  0  0
 45 46  1  0  0  0  0
 47 46  1  0  0  0  0
 47 48  1  0  0  0  0
 48 49  1  0  0  0  0
 49 50  1  0  0  0  0
M  END
>  <REMARK>
 VINA RESULT:    -5.020      3.647      6.427
 INTER + INTRA:         -14.272
 INTER:                  -8.982
 INTRA:                  -5.290
 UNBOUND:                -5.290
 SMILES CC(=O)N[C@@H]1[C@@H](O)C[C@](O)(C(=O)O)O[C@H]1C(O)[C@H](O)CNC(=O)OCc1cn(Cc2ccccc2)nn1
 SMILES IDX 21 1 22 2 23 3 20 5 18 6 16 7 15 8 9 9 8 10 14 11 6 12 5 13
 SMILES IDX 10 14 11 16 12 17 13 18 7 20 4 22 2 23 1 25 3 26 17 27 19 29
 SMILES IDX 24 31 25 32 26 33 27 34 37 35 28 36 36 37 29 38 30 39 31 40
 SMILES IDX 35 41 32 42 34 43 33 44
 H PARENT 21 4 10 15 13 19 7 21 4 24 17 28 19 30
 Flexibility Score: inf
  4 active torsions:
  status: ('A' for Active; 'I' for Inactive)
    1  A    between atoms: CA   and  CB  
    2  A    between atoms: CB   and  CG  
    3  A    between atoms: CG   and  CD  
    4  A    between atoms: CD   and  CE  

>  <TORSDO>
F 16

>  <BEGIN_>
RES LYS A 131

$$$$
ligand_46_pose_19_2HRL.pdbqt
 OpenBabel07062320523D

  6  5  0  0  0  0  0  0  0  0999 V2000
   33.1930   34.6630    9.2900 C   0  0  0  0  0  0  0  0  0  0  0  0
   32.0600   35.3600   10.0340 C   0  0  0  0  0  0  0  0  0  0  0  0
   30.8220   35.5570    9.1980 C   0  0  0  0  0  0  0  0  0  0  0  0
   30.1140   34.2300    8.9670 C   0  0  0  0  0  0  0  0  0  0  0  0
   28.6500   34.4570    8.6400 C   0  0  0  0  0  0  0  0  0  0  0  0
   28.1280   35.6690    9.3310 N   0  0  0  0  0  0  0  0  0  0  0  0
  1  2  1  0  0  0  0
  3  2  1  0  0  0  0
  4  3  1  0  0  0  0
  5  4  1  0  0  0  0
  5  6  1  0  0  0  0
M  END
>  <EGIN_R>
ES LYS A 135

>  <REMARK>
  4 active torsions:
  status: ('A' for Active; 'I' for Inactive)
    5  A    between atoms: CA   and  CB  
    6  A    between atoms: CB   and  CG  
    7  A    between atoms: CG   and  CD  
    8  A    between atoms: CD   and  CE  

$$$$
