ligand_20_pose_7_2HRL.pdbqt
 OpenBabel07062320523D

 53 55  0  0  1  0  0  0  0  0999 V2000
   30.2530   31.4900   16.9150 C   0  0  0  0  0  0  0  0  0  0  0  0
   31.1540   31.8950   15.8320 C   0  0  2  0  0  0  0  0  0  0  0  0
   31.7090   33.3150   16.0810 C   0  0  1  0  0  0  0  0  0  0  0  0
   30.9730   34.3680   15.3760 C   0  0  2  0  0  0  0  0  0  0  0  0
   32.4720   35.3330   13.8610 C   0  0  2  0  0  0  0  0  0  0  0  0
   32.9530   36.1650   15.0150 C   0  0  0  0  0  0  0  0  0  0  0  0
   31.3120   34.6500   14.0860 O   0  0  0  0  0  0  0  0  0  0  0  0
   31.8610   36.6750   15.8880 C   0  0  1  0  0  0  0  0  0  0  0  0
   30.8370   35.6380   16.2250 C   0  0  1  0  0  0  0  0  0  0  0  0
   33.4780   34.4440   13.4850 O   0  0  0  0  0  0  0  0  0  0  0  0
   34.3260   34.6160   13.9610 H   0  0  0  0  0  0  0  0  0  0  0  0
   32.2360   36.2590   12.7300 C   0  0  0  0  0  0  0  0  0  0  0  0
   31.2260   36.9810   12.7160 O   0  0  0  0  0  0  0  0  0  0  0  0
   33.1410   36.3180   11.6910 O   0  0  0  0  0  0  0  0  0  0  0  0
   33.5980   37.1910   11.3910 H   0  0  0  0  0  0  0  0  0  0  0  0
   32.4500   37.2090   17.0500 O   0  0  0  0  0  0  0  0  0  0  0  0
   31.9320   38.0250   17.2540 H   0  0  0  0  0  0  0  0  0  0  0  0
   29.4910   36.1480   16.2200 N   0  0  0  0  0  0  0  0  0  0  0  0
   28.4820   35.6450   17.0850 C   0  0  0  0  0  0  0  0  0  0  0  0
   29.2240   36.9310   15.5490 H   0  0  0  0  0  0  0  0  0  0  0  0
   27.1170   36.2020   17.0400 C   0  0  0  0  0  0  0  0  0  0  0  0
   28.7800   34.7210   17.8830 O   0  0  0  0  0  0  0  0  0  0  0  0
   31.3860   33.4770   17.4770 O   0  0  0  0  0  0  0  0  0  0  0  0
   31.0360   34.3840   17.6390 H   0  0  0  0  0  0  0  0  0  0  0  0
   30.2990   32.0680   14.6770 O   0  0  0  0  0  0  0  0  0  0  0  0
   30.2920   31.2190   14.1550 H   0  0  0  0  0  0  0  0  0  0  0  0
   28.8710   31.8560   16.7730 N   0  0  0  0  0  0  0  0  0  0  0  0
   27.9190   30.9880   16.1780 C   0  0  0  0  0  0  0  0  0  0  0  0
   28.5240   32.7520   17.1520 H   0  0  0  0  0  0  0  0  0  0  0  0
   28.3130   29.8660   15.7660 O   0  0  0  0  0  0  0  0  0  0  0  0
   26.5890   31.3040   16.0230 O   0  0  0  0  0  0  0  0  0  0  0  0
   26.0510   32.6070   16.1480 C   0  0  0  0  0  0  0  0  0  0  0  0
   25.8240   33.1390   14.7610 C   0  0  0  0  0  0  0  0  0  0  0  0
   26.4810   34.1680   14.1230 C   0  0  0  0  0  0  0  0  0  0  0  0
   24.9060   32.6950   13.8580 N   0  0  0  0  0  0  0  0  0  0  0  0
   25.9280   34.2860   12.8810 N   0  0  0  0  0  0  0  0  0  0  0  0
   24.9760   33.3800   12.7490 N   0  0  0  0  0  0  0  0  0  0  0  0
   26.3300   35.2380   11.9090 C   0  0  0  0  0  0  0  0  0  0  0  0
   27.4990   35.9500   12.1000 C   0  0  0  0  0  0  0  0  0  0  0  0
   25.6110   35.5010   10.7620 C   0  0  0  0  0  0  0  0  0  0  0  0
   27.9400   36.8880   11.1900 C   0  0  0  0  0  0  0  0  0  0  0  0
   26.0290   36.4240    9.8480 C   0  0  0  0  0  0  0  0  0  0  0  0
   27.2090   37.1410   10.0420 C   0  0  0  0  0  0  0  0  0  0  0  0
   25.5260   36.8770    8.6510 C   0  0  0  0  0  0  0  0  0  0  0  0
   27.3760   37.9720    9.0010 N   0  0  0  0  0  0  0  0  0  0  0  0
   26.3780   37.8240    8.1610 N   0  0  0  0  0  0  0  0  0  0  0  0
   28.1740   38.6240    8.8860 H   0  0  0  0  0  0  0  0  0  0  0  0
   29.8670   25.5550   16.9770 C   0  0  0  0  0  0  0  0  0  0  0  0
   28.3450   25.7220   17.0260 C   0  0  0  0  0  0  0  0  0  0  0  0
   27.6000   24.4160   16.7970 C   0  0  0  0  0  0  0  0  0  0  0  0
   26.8260   23.9850   18.0120 C   0  0  0  0  0  0  0  0  0  0  0  0
   25.5350   23.2990   17.5760 C   0  0  0  0  0  0  0  0  0  0  0  0
   24.6430   24.2620   16.8870 N   0  0  0  0  0  0  0  0  0  0  0  0
  2  3  1  0  0  0  0
  2  1  1  1  0  0  0
  3 23  1  1  0  0  0
  4  3  1  1  0  0  0
  4  9  1  0  0  0  0
  5 12  1  6  0  0  0
  5  7  1  0  0  0  0
  5  6  1  0  0  0  0
  6  8  1  0  0  0  0
  7  4  1  0  0  0  0
  8  9  1  0  0  0  0
  8 16  1  1  0  0  0
  9 18  1  6  0  0  0
 10  5  1  0  0  0  0
 10 11  1  0  0  0  0
 13 12  2  0  0  0  0
 14 12  1  0  0  0  0
 15 14  1  0  0  0  0
 16 17  1  0  0  0  0
 18 19  1  0  0  0  0
 19 22  2  0  0  0  0
 20 18  1  0  0  0  0
 21 19  1  0  0  0  0
 23 24  1  0  0  0  0
 25  2  1  0  0  0  0
 26 25  1  0  0  0  0
 27  1  1  0  0  0  0
 27 29  1  0  0  0  0
 28 27  1  0  0  0  0
 30 28  2  0  0  0  0
 31 32  1  0  0  0  0
 31 28  1  0  0  0  0
 33 32  1  0  0  0  0
 34 33  2  0  0  0  0
 35 33  1  0  0  0  0
 36 34  1  0  0  0  0
 37 36  1  0  0  0  0
 37 35  2  0  0  0  0
 38 39  1  0  0  0  0
 38 36  1  0  0  0  0
 40 38  2  0  0  0  0
 41 39  2  0  0  0  0
 42 43  2  0  0  0  0
 42 40  1  0  0  0  0
 43 41  1  0  0  0  0
 44 42  1  0  0  0  0
 45 43  1  0  0  0  0
 46 44  2  0  0  0  0
 46 45  1  0  0  0  0
 47 45  1  0  0  0  0
 48 49  1  0  0  0  0
 50 49  1  0  0  0  0
 50 51  1  0  0  0  0
 52 51  1  0  0  0  0
 53 52  1  0  0  0  0
M  END
>  <REMARK>
 VINA RESULT:    -4.737      2.088      3.361
 INTER + INTRA:         -14.688
 INTER:                  -8.455
 INTRA:                  -6.233
 UNBOUND:                -6.490
 SMILES CC(=O)N[C@@H]1[C@@H](O)C[C@](O)(C(=O)O)O[C@H]1C(O)[C@H](O)CNC(=O)OCc1cn(-c2ccc3[nH]ncc3c2)nn1
 SMILES IDX 20 1 18 2 16 3 15 4 9 5 8 6 14 7 6 8 5 9 10 10 11 12 12 13
 SMILES IDX 13 14 7 16 4 18 2 19 1 21 3 22 17 23 19 25 21 27 22 28 23 30
 SMILES IDX 24 31 25 32 26 33 27 34 39 35 28 36 38 37 29 38 30 39 37 40
 SMILES IDX 31 41 36 42 32 43 35 44 33 45 34 46
 H PARENT 10 11 13 15 7 17 4 20 17 24 19 26 21 29 33 47
 Flexibility Score: inf
  4 active torsions:
  status: ('A' for Active; 'I' for Inactive)
    1  A    between atoms: CA   and  CB  
    2  A    between atoms: CB   and  CG  
    3  A    between atoms: CG   and  CD  
    4  A    between atoms: CD   and  CE  

>  <TORSDO>
F 15

>  <BEGIN_>
RES LYS A 131

$$$$
ligand_20_pose_7_2HRL.pdbqt
 OpenBabel07062320523D

  6  5  0  0  0  0  0  0  0  0999 V2000
   33.1930   34.6630    9.2900 C   0  0  0  0  0  0  0  0  0  0  0  0
   32.0600   35.3600   10.0340 C   0  0  0  0  0  0  0  0  0  0  0  0
   30.7290   34.6680    9.8900 C   0  0  0  0  0  0  0  0  0  0  0  0
   30.3620   34.5110    8.4220 C   0  0  0  0  0  0  0  0  0  0  0  0
   28.8550   34.5170    8.2470 C   0  0  0  0  0  0  0  0  0  0  0  0
   28.4610   35.2590    7.0180 N   0  0  0  0  0  0  0  0  0  0  0  0
  1  2  1  0  0  0  0
  3  2  1  0  0  0  0
  4  3  1  0  0  0  0
  5  4  1  0  0  0  0
  6  5  1  0  0  0  0
M  END
>  <EGIN_R>
ES LYS A 135

>  <REMARK>
  4 active torsions:
  status: ('A' for Active; 'I' for Inactive)
    5  A    between atoms: CA   and  CB  
    6  A    between atoms: CB   and  CG  
    7  A    between atoms: CG   and  CD  
    8  A    between atoms: CD   and  CE  

$$$$
