ligand_42_pose_15_2HRL.pdbqt
 OpenBabel07062320523D

 52 54  0  0  1  0  0  0  0  0999 V2000
   32.2260   28.5950   21.9300 C   0  0  0  0  0  0  0  0  0  0  0  0
   31.4040   28.2600   20.7310 C   0  0  2  0  0  0  0  0  0  0  0  0
   30.0350   27.6920   21.1430 C   0  0  1  0  0  0  0  0  0  0  0  0
   29.0240   28.2580   20.2130 C   0  0  2  0  0  0  0  0  0  0  0  0
   28.2250   30.1470   19.2180 C   0  0  2  0  0  0  0  0  0  0  0  0
   27.3810   29.0980   18.5290 C   0  0  0  0  0  0  0  0  0  0  0  0
   29.1990   29.6260   20.0330 O   0  0  0  0  0  0  0  0  0  0  0  0
   26.7140   28.1590   19.5160 C   0  0  1  0  0  0  0  0  0  0  0  0
   27.5930   28.0770   20.7190 C   0  0  1  0  0  0  0  0  0  0  0  0
   27.3350   30.9790   19.9010 O   0  0  0  0  0  0  0  0  0  0  0  0
   27.7500   31.8830   19.8950 H   0  0  0  0  0  0  0  0  0  0  0  0
   28.9030   30.9170   18.1490 C   0  0  0  0  0  0  0  0  0  0  0  0
   28.5370   32.0930   17.9140 O   0  0  0  0  0  0  0  0  0  0  0  0
   29.9350   30.3940   17.3890 O   0  0  0  0  0  0  0  0  0  0  0  0
   30.7970   30.0350   17.7850 H   0  0  0  0  0  0  0  0  0  0  0  0
   25.4660   28.7470   19.8190 O   0  0  0  0  0  0  0  0  0  0  0  0
   25.3670   29.6050   19.3690 H   0  0  0  0  0  0  0  0  0  0  0  0
   27.4220   26.9300   21.5330 N   0  0  0  0  0  0  0  0  0  0  0  0
   26.4430   26.7440   22.5460 C   0  0  0  0  0  0  0  0  0  0  0  0
   28.0760   26.1310   21.3850 H   0  0  0  0  0  0  0  0  0  0  0  0
   26.3490   25.4900   23.3500 C   0  0  0  0  0  0  0  0  0  0  0  0
   25.6440   27.6860   22.7470 O   0  0  0  0  0  0  0  0  0  0  0  0
   30.1140   26.3290   21.0740 O   0  0  0  0  0  0  0  0  0  0  0  0
   29.3100   25.8270   20.9030 H   0  0  0  0  0  0  0  0  0  0  0  0
   32.0180   27.3350   19.9300 O   0  0  0  0  0  0  0  0  0  0  0  0
   32.7130   26.7820   20.3460 H   0  0  0  0  0  0  0  0  0  0  0  0
   32.6460   29.9520   21.9330 N   0  0  0  0  0  0  0  0  0  0  0  0
   31.8490   31.0110   22.3950 C   0  0  0  0  0  0  0  0  0  0  0  0
   33.6120   30.2180   21.5710 H   0  0  0  0  0  0  0  0  0  0  0  0
   30.6940   30.8990   22.8390 O   0  0  0  0  0  0  0  0  0  0  0  0
   32.3740   32.3160   22.3640 O   0  0  0  0  0  0  0  0  0  0  0  0
   31.5160   33.3930   22.1370 C   0  0  0  0  0  0  0  0  0  0  0  0
   31.9300   34.0910   20.8920 C   0  0  0  0  0  0  0  0  0  0  0  0
   31.5620   33.7510   19.5950 C   0  0  0  0  0  0  0  0  0  0  0  0
   32.7230   35.1680   20.7580 N   0  0  0  0  0  0  0  0  0  0  0  0
   32.1290   34.6080   18.7280 N   0  0  0  0  0  0  0  0  0  0  0  0
   32.8220   35.4500   19.4730 N   0  0  0  0  0  0  0  0  0  0  0  0
   31.9860   34.5830   17.3120 C   0  0  0  0  0  0  0  0  0  0  0  0
   31.5720   33.4340   16.6690 C   0  0  0  0  0  0  0  0  0  0  0  0
   32.2480   35.6810   16.5190 C   0  0  0  0  0  0  0  0  0  0  0  0
   31.4260   33.3880   15.2840 C   0  0  0  0  0  0  0  0  0  0  0  0
   32.1100   35.6580   15.1320 C   0  0  0  0  0  0  0  0  0  0  0  0
   31.6950   34.4990   14.5140 C   0  0  0  0  0  0  0  0  0  0  0  0
   32.3070   36.6090   14.1340 O   0  0  0  0  0  0  0  0  0  0  0  0
   31.6480   34.7750   13.1360 O   0  0  0  0  0  0  0  0  0  0  0  0
   32.4290   35.9490   12.8880 C   0  0  0  0  0  0  0  0  0  0  0  0
   29.8670   25.5550   16.9770 C   0  0  0  0  0  0  0  0  0  0  0  0
   28.3450   25.7220   17.0260 C   0  0  0  0  0  0  0  0  0  0  0  0
   27.6020   24.3980   16.9360 C   0  0  0  0  0  0  0  0  0  0  0  0
   26.1560   24.5320   17.3270 C   0  0  0  0  0  0  0  0  0  0  0  0
   25.8860   23.6940   18.5730 C   0  0  0  0  0  0  0  0  0  0  0  0
   25.5040   24.5640   19.7100 N   0  0  0  0  0  0  0  0  0  0  0  0
  1 27  1  0  0  0  0
  2  3  1  0  0  0  0
  2  1  1  1  0  0  0
  3 23  1  6  0  0  0
  4  9  1  0  0  0  0
  4  3  1  1  0  0  0
  5 12  1  6  0  0  0
  5 10  1  0  0  0  0
  5  7  1  0  0  0  0
  6  5  1  0  0  0  0
  6  8  1  0  0  0  0
  7  4  1  0  0  0  0
  8 16  1  1  0  0  0
  8  9  1  0  0  0  0
  9 18  1  6  0  0  0
 11 10  1  0  0  0  0
 13 12  2  0  0  0  0
 14 15  1  0  0  0  0
 14 12  1  0  0  0  0
 17 16  1  0  0  0  0
 18 19  1  0  0  0  0
 19 22  2  0  0  0  0
 19 21  1  0  0  0  0
 20 18  1  0  0  0  0
 24 23  1  0  0  0  0
 25 26  1  0  0  0  0
 25  2  1  0  0  0  0
 27 28  1  0  0  0  0
 28 30  2  0  0  0  0
 29 27  1  0  0  0  0
 31 28  1  0  0  0  0
 32 31  1  0  0  0  0
 33 32  1  0  0  0  0
 34 33  2  0  0  0  0
 35 33  1  0  0  0  0
 36 37  1  0  0  0  0
 36 34  1  0  0  0  0
 37 35  2  0  0  0  0
 38 36  1  0  0  0  0
 39 38  1  0  0  0  0
 40 38  2  0  0  0  0
 41 39  2  0  0  0  0
 42 40  1  0  0  0  0
 43 42  2  0  0  0  0
 43 41  1  0  0  0  0
 44 42  1  0  0  0  0
 45 43  1  0  0  0  0
 46 45  1  0  0  0  0
 46 44  1  0  0  0  0
 47 48  1  0  0  0  0
 49 48  1  0  0  0  0
 49 50  1  0  0  0  0
 50 51  1  0  0  0  0
 51 52  1  0  0  0  0
M  END
>  <REMARK>
 VINA RESULT:    -5.396      2.530      5.597
 INTER + INTRA:         -13.887
 INTER:                  -8.547
 INTRA:                  -5.339
 UNBOUND:                -4.548
 SMILES CC(=O)N[C@@H]1[C@@H](O)C[C@](O)(C(=O)O)O[C@H]1C(O)[C@H](O)CNC(=O)OCc1cn(-c2ccc3c(c2)OCO3)nn1
 SMILES IDX 20 1 18 2 16 3 15 4 9 5 8 6 14 7 6 8 5 9 10 10 11 12 12 13
 SMILES IDX 13 14 7 16 4 18 2 19 1 21 3 22 17 23 19 25 21 27 22 28 23 30
 SMILES IDX 24 31 25 32 26 33 27 34 39 35 28 36 38 37 29 38 30 39 34 40
 SMILES IDX 31 41 33 42 32 43 35 44 37 45 36 46
 H PARENT 10 11 13 15 7 17 4 20 17 24 19 26 21 29
 Flexibility Score: inf
  4 active torsions:
  status: ('A' for Active; 'I' for Inactive)
    1  A    between atoms: CA   and  CB  
    2  A    between atoms: CB   and  CG  
    3  A    between atoms: CG   and  CD  
    4  A    between atoms: CD   and  CE  

>  <TORSDO>
F 15

>  <BEGIN_>
RES LYS A 131

$$$$
ligand_42_pose_15_2HRL.pdbqt
 OpenBabel07062320523D

  6  5  0  0  0  0  0  0  0  0999 V2000
   33.1930   34.6630    9.2900 C   0  0  0  0  0  0  0  0  0  0  0  0
   32.0600   35.3600   10.0340 C   0  0  0  0  0  0  0  0  0  0  0  0
   30.7070   34.7460    9.7830 C   0  0  0  0  0  0  0  0  0  0  0  0
   30.5070   34.4770    8.2990 C   0  0  0  0  0  0  0  0  0  0  0  0
   29.4280   35.3820    7.7350 C   0  0  0  0  0  0  0  0  0  0  0  0
   28.0740   34.8030    7.9540 N   0  0  0  0  0  0  0  0  0  0  0  0
  1  2  1  0  0  0  0
  3  2  1  0  0  0  0
  4  3  1  0  0  0  0
  5  6  1  0  0  0  0
  5  4  1  0  0  0  0
M  END
>  <EGIN_R>
ES LYS A 135

>  <REMARK>
  4 active torsions:
  status: ('A' for Active; 'I' for Inactive)
    5  A    between atoms: CA   and  CB  
    6  A    between atoms: CB   and  CG  
    7  A    between atoms: CG   and  CD  
    8  A    between atoms: CD   and  CE  

$$$$
