ligand_2_pose_8_2HRL.pdbqt
 OpenBabel07062320523D

 50 51  0  0  1  0  0  0  0  0999 V2000
   27.5650   31.1610   20.2510 C   0  0  0  0  0  0  0  0  0  0  0  0
   28.3010   30.8400   21.5130 C   0  0  2  0  0  0  0  0  0  0  0  0
   27.7710   29.4960   22.0380 C   0  0  2  0  0  0  0  0  0  0  0  0
   28.8850   28.6890   22.7010 C   0  0  2  0  0  0  0  0  0  0  0  0
   30.4650   27.8760   21.1670 C   0  0  2  0  0  0  0  0  0  0  0  0
   30.7330   26.5770   21.8940 C   0  0  0  0  0  0  0  0  0  0  0  0
   30.0160   28.8930   21.9370 O   0  0  0  0  0  0  0  0  0  0  0  0
   29.8590   26.5050   23.0950 C   0  0  1  0  0  0  0  0  0  0  0  0
   28.5730   27.2530   22.8020 C   0  0  1  0  0  0  0  0  0  0  0  0
   29.6440   27.5570   20.0880 O   0  0  0  0  0  0  0  0  0  0  0  0
   29.6650   28.3410   19.4840 H   0  0  0  0  0  0  0  0  0  0  0  0
   31.7740   28.2950   20.6010 C   0  0  0  0  0  0  0  0  0  0  0  0
   32.3840   29.2330   21.1630 O   0  0  0  0  0  0  0  0  0  0  0  0
   32.3180   27.6900   19.5020 O   0  0  0  0  0  0  0  0  0  0  0  0
   32.0860   26.7160   19.2940 H   0  0  0  0  0  0  0  0  0  0  0  0
   29.6220   25.2080   23.5330 O   0  0  0  0  0  0  0  0  0  0  0  0
   28.7210   25.1250   23.9060 H   0  0  0  0  0  0  0  0  0  0  0  0
   27.6120   26.8470   23.7700 N   0  0  0  0  0  0  0  0  0  0  0  0
   26.3450   26.3150   23.4330 C   0  0  0  0  0  0  0  0  0  0  0  0
   27.9000   26.9670   24.7770 H   0  0  0  0  0  0  0  0  0  0  0  0
   25.3720   25.9040   24.4660 C   0  0  0  0  0  0  0  0  0  0  0  0
   26.1260   26.2240   22.1940 O   0  0  0  0  0  0  0  0  0  0  0  0
   27.2190   28.7630   20.9820 O   0  0  0  0  0  0  0  0  0  0  0  0
   26.5200   28.1270   21.3030 H   0  0  0  0  0  0  0  0  0  0  0  0
   28.1960   31.8230   22.4710 O   0  0  0  0  0  0  0  0  0  0  0  0
   28.8910   31.8480   23.1510 H   0  0  0  0  0  0  0  0  0  0  0  0
   28.3480   31.2390   19.0630 N   0  0  0  0  0  0  0  0  0  0  0  0
   28.4410   30.2210   18.0820 C   0  0  0  0  0  0  0  0  0  0  0  0
   28.9110   32.1150   18.8790 H   0  0  0  0  0  0  0  0  0  0  0  0
   27.8180   29.1510   18.1870 O   0  0  0  0  0  0  0  0  0  0  0  0
   29.2570   30.4060   16.9490 O   0  0  0  0  0  0  0  0  0  0  0  0
   28.7740   31.1220   15.8150 C   0  0  0  0  0  0  0  0  0  0  0  0
   29.8240   32.1040   15.4500 C   0  0  0  0  0  0  0  0  0  0  0  0
   29.6540   33.2040   14.6610 C   0  0  0  0  0  0  0  0  0  0  0  0
   31.0940   32.0830   15.8260 N   0  0  0  0  0  0  0  0  0  0  0  0
   30.8510   33.8220   14.5830 N   0  0  0  0  0  0  0  0  0  0  0  0
   31.7170   33.1270   15.2970 N   0  0  0  0  0  0  0  0  0  0  0  0
   31.0640   35.0220   13.8330 C   0  0  0  0  0  0  0  0  0  0  0  0
   32.2430   35.1920   13.1490 C   0  0  0  0  0  0  0  0  0  0  0  0
   30.0640   35.9610   13.8310 C   0  0  0  0  0  0  0  0  0  0  0  0
   32.4070   36.3650   12.4380 C   0  0  0  0  0  0  0  0  0  0  0  0
   30.2590   37.1230   13.1100 C   0  0  0  0  0  0  0  0  0  0  0  0
   31.4210   37.3390   12.4110 C   0  0  0  0  0  0  0  0  0  0  0  0
   31.6060   38.8260   11.5210 Cl  0  0  0  0  0  0  0  0  0  0  0  0
   29.8670   25.5550   16.9770 C   0  0  0  0  0  0  0  0  0  0  0  0
   28.3450   25.7220   17.0260 C   0  0  0  0  0  0  0  0  0  0  0  0
   27.6020   24.3990   16.9270 C   0  0  0  0  0  0  0  0  0  0  0  0
   26.6500   24.1960   18.0730 C   0  0  0  0  0  0  0  0  0  0  0  0
   26.1800   25.5520   18.5900 C   0  0  0  0  0  0  0  0  0  0  0  0
   24.8550   25.8930   18.0220 N   0  0  0  0  0  0  0  0  0  0  0  0
  2  1  1  6  0  0  0
  2  3  1  0  0  0  0
  2 25  1  0  0  0  0
  3 23  1  6  0  0  0
  4  3  1  6  0  0  0
  4  9  1  0  0  0  0
  5 10  1  6  0  0  0
  5  6  1  0  0  0  0
  5  7  1  0  0  0  0
  6  8  1  0  0  0  0
  7  4  1  0  0  0  0
  8 16  1  6  0  0  0
  9  8  1  0  0  0  0
  9 18  1  1  0  0  0
 11 10  1  0  0  0  0
 12 13  2  0  0  0  0
 12  5  1  0  0  0  0
 14 12  1  0  0  0  0
 15 14  1  0  0  0  0
 16 17  1  0  0  0  0
 18 20  1  0  0  0  0
 19 18  1  0  0  0  0
 19 21  1  0  0  0  0
 22 19  2  0  0  0  0
 23 24  1  0  0  0  0
 25 26  1  0  0  0  0
 27  1  1  0  0  0  0
 28 30  2  0  0  0  0
 28 27  1  0  0  0  0
 29 27  1  0  0  0  0
 31 28  1  0  0  0  0
 32 31  1  0  0  0  0
 33 32  1  0  0  0  0
 33 35  1  0  0  0  0
 34 33  2  0  0  0  0
 36 34  1  0  0  0  0
 36 37  1  0  0  0  0
 37 35  2  0  0  0  0
 38 36  1  0  0  0  0
 39 38  2  0  0  0  0
 40 38  1  0  0  0  0
 41 39  1  0  0  0  0
 42 40  2  0  0  0  0
 43 41  2  0  0  0  0
 43 42  1  0  0  0  0
 44 43  1  0  0  0  0
 45 46  1  0  0  0  0
 47 46  1  0  0  0  0
 47 48  1  0  0  0  0
 48 49  1  0  0  0  0
 50 49  1  0  0  0  0
M  END
>  <REMARK>
 VINA RESULT:    -4.231      2.819      4.969
 INTER + INTRA:         -14.330
 INTER:                  -9.281
 INTRA:                  -5.049
 UNBOUND:                -7.007
 SMILES CC(=O)N[C@@H]1[C@@H](O)C[C@](O)(C(=O)O)O[C@H]1C(O)[C@H](O)CNC(=O)OCc1cn(-c2ccc(Cl)cc2)nn1
 SMILES IDX 20 1 18 2 16 3 15 4 9 5 8 6 14 7 6 8 5 9 10 10 11 12 12 13
 SMILES IDX 13 14 7 16 4 18 2 19 1 21 3 22 17 23 19 25 21 27 22 28 23 30
 SMILES IDX 24 31 25 32 26 33 27 34 37 35 28 36 36 37 29 38 30 39 35 40
 SMILES IDX 31 41 34 42 32 43 33 44
 H PARENT 10 11 13 15 7 17 4 20 17 24 19 26 21 29
 Flexibility Score: inf
  4 active torsions:
  status: ('A' for Active; 'I' for Inactive)
    1  A    between atoms: CA   and  CB  
    2  A    between atoms: CB   and  CG  
    3  A    between atoms: CG   and  CD  
    4  A    between atoms: CD   and  CE  

>  <TORSDO>
F 15

>  <BEGIN_>
RES LYS A 131

$$$$
ligand_2_pose_8_2HRL.pdbqt
 OpenBabel07062320523D

  6  5  0  0  0  0  0  0  0  0999 V2000
   33.1930   34.6630    9.2900 C   0  0  0  0  0  0  0  0  0  0  0  0
   32.0600   35.3600   10.0340 C   0  0  0  0  0  0  0  0  0  0  0  0
   30.7970   35.4900    9.2230 C   0  0  0  0  0  0  0  0  0  0  0  0
   29.5930   35.0240   10.0260 C   0  0  0  0  0  0  0  0  0  0  0  0
   28.8830   33.8900    9.3120 C   0  0  0  0  0  0  0  0  0  0  0  0
   27.4540   34.2260    9.0590 N   0  0  0  0  0  0  0  0  0  0  0  0
  1  2  1  0  0  0  0
  3  4  1  0  0  0  0
  3  2  1  0  0  0  0
  5  4  1  0  0  0  0
  6  5  1  0  0  0  0
M  END
>  <EGIN_R>
ES LYS A 135

>  <REMARK>
  4 active torsions:
  status: ('A' for Active; 'I' for Inactive)
    5  A    between atoms: CA   and  CB  
    6  A    between atoms: CB   and  CG  
    7  A    between atoms: CG   and  CD  
    8  A    between atoms: CD   and  CE  

$$$$
