ligand_33_pose_19_2HRL.pdbqt
 OpenBabel07062320523D

 52 52  0  0  1  0  0  0  0  0999 V2000
   33.2050   33.6070   21.4950 C   0  0  0  0  0  0  0  0  0  0  0  0
   32.6740   33.1200   22.7220 O   0  0  0  0  0  0  0  0  0  0  0  0
   33.0850   31.8510   23.1480 C   0  0  0  0  0  0  0  0  0  0  0  0
   32.3130   30.7250   22.7450 N   0  0  0  0  0  0  0  0  0  0  0  0
   31.4690   30.9030   22.1390 H   0  0  0  0  0  0  0  0  0  0  0  0
   34.1120   31.7710   23.8660 O   0  0  0  0  0  0  0  0  0  0  0  0
   32.7090   29.4210   23.1720 C   0  0  0  0  0  0  0  0  0  0  0  0
   32.9030   28.4230   22.0560 C   0  0  2  0  0  0  0  0  0  0  0  0
   31.7250   28.5380   21.1080 C   0  0  2  0  0  0  0  0  0  0  0  0
   30.6080   27.5880   21.3860 C   0  0  2  0  0  0  0  0  0  0  0  0
   29.0460   28.8510   20.1800 C   0  0  2  0  0  0  0  0  0  0  0  0
   28.5680   29.3950   21.5360 C   0  0  0  0  0  0  0  0  0  0  0  0
   29.6990   27.6640   20.3510 O   0  0  0  0  0  0  0  0  0  0  0  0
   28.4740   28.1860   22.4340 C   0  0  1  0  0  0  0  0  0  0  0  0
   29.9190   27.7200   22.6960 C   0  0  1  0  0  0  0  0  0  0  0  0
   29.7630   29.8320   19.5010 O   0  0  0  0  0  0  0  0  0  0  0  0
   29.1470   30.4630   19.0080 H   0  0  0  0  0  0  0  0  0  0  0  0
   27.8140   28.5740   19.3980 C   0  0  0  0  0  0  0  0  0  0  0  0
   27.5950   27.4060   18.9570 O   0  0  0  0  0  0  0  0  0  0  0  0
   26.9230   29.6070   19.1670 O   0  0  0  0  0  0  0  0  0  0  0  0
   26.1070   29.3740   18.5840 H   0  0  0  0  0  0  0  0  0  0  0  0
   27.8340   28.4760   23.6390 O   0  0  0  0  0  0  0  0  0  0  0  0
   28.4410   28.1700   24.3630 H   0  0  0  0  0  0  0  0  0  0  0  0
   29.8860   26.4630   23.4310 N   0  0  0  0  0  0  0  0  0  0  0  0
   30.0960   26.3820   24.8220 C   0  0  0  0  0  0  0  0  0  0  0  0
   29.6900   25.5730   22.8900 H   0  0  0  0  0  0  0  0  0  0  0  0
   30.0580   25.0640   25.5540 C   0  0  0  0  0  0  0  0  0  0  0  0
   30.3240   27.4530   25.4620 O   0  0  0  0  0  0  0  0  0  0  0  0
   32.2610   28.1260   19.8540 O   0  0  0  0  0  0  0  0  0  0  0  0
   31.6160   27.4730   19.4950 H   0  0  0  0  0  0  0  0  0  0  0  0
   33.0370   27.1720   22.6160 O   0  0  0  0  0  0  0  0  0  0  0  0
   32.1660   26.7090   22.6800 H   0  0  0  0  0  0  0  0  0  0  0  0
   32.1290   33.4480   20.4890 C   0  0  0  0  0  0  0  0  0  0  0  0
   31.9860   34.2640   19.3850 C   0  0  0  0  0  0  0  0  0  0  0  0
   31.1520   32.5430   20.4500 N   0  0  0  0  0  0  0  0  0  0  0  0
   30.9030   33.7950   18.7280 N   0  0  0  0  0  0  0  0  0  0  0  0
   30.4090   32.7620   19.3740 N   0  0  0  0  0  0  0  0  0  0  0  0
   30.4270   34.4150   17.4900 C   0  0  0  0  0  0  0  0  0  0  0  0
   31.5830   34.4610   16.5250 C   0  0  0  0  0  0  0  0  0  0  0  0
   31.7960   33.1500   15.7990 C   0  0  0  0  0  0  0  0  0  0  0  0
   30.5200   32.4430   15.4990 C   0  0  0  0  0  0  0  0  0  0  0  0
   30.3870   31.1070   16.1770 C   0  0  0  0  0  0  0  0  0  0  0  0
   28.9980   30.7150   16.4560 C   0  0  0  0  0  0  0  0  0  0  0  0
   28.2690   31.4040   17.1880 O   0  0  0  0  0  0  0  0  0  0  0  0
   28.4570   29.5440   15.8980 O   0  0  0  0  0  0  0  0  0  0  0  0
   28.9300   29.0830   15.1130 H   0  0  0  0  0  0  0  0  0  0  0  0
   29.8670   25.5550   16.9770 C   0  0  0  0  0  0  0  0  0  0  0  0
   28.3450   25.7220   17.0260 C   0  0  0  0  0  0  0  0  0  0  0  0
   27.6010   24.4010   16.9040 C   0  0  0  0  0  0  0  0  0  0  0  0
   26.1700   24.5130   17.3490 C   0  0  0  0  0  0  0  0  0  0  0  0
   25.6460   23.1340   17.7330 C   0  0  0  0  0  0  0  0  0  0  0  0
   25.3510   23.0770   19.1850 N   0  0  0  0  0  0  0  0  0  0  0  0
  1  2  1  0  0  0  0
  2  3  1  0  0  0  0
  3  6  2  0  0  0  0
  4  3  1  0  0  0  0
  4  7  1  0  0  0  0
  5  4  1  0  0  0  0
  8 31  1  0  0  0  0
  8  7  1  1  0  0  0
  9 29  1  6  0  0  0
  9  8  1  0  0  0  0
 10  9  1  6  0  0  0
 10 15  1  0  0  0  0
 11 18  1  6  0  0  0
 11 13  1  0  0  0  0
 11 12  1  0  0  0  0
 12 14  1  0  0  0  0
 13 10  1  0  0  0  0
 14 15  1  0  0  0  0
 14 22  1  1  0  0  0
 15 24  1  6  0  0  0
 16 11  1  0  0  0  0
 17 16  1  0  0  0  0
 19 18  2  0  0  0  0
 20 18  1  0  0  0  0
 21 20  1  0  0  0  0
 22 23  1  0  0  0  0
 24 25  1  0  0  0  0
 25 28  2  0  0  0  0
 25 27  1  0  0  0  0
 26 24  1  0  0  0  0
 30 29  1  0  0  0  0
 31 32  1  0  0  0  0
 33  1  1  0  0  0  0
 34 33  2  0  0  0  0
 35 33  1  0  0  0  0
 36 37  1  0  0  0  0
 36 34  1  0  0  0  0
 37 35  2  0  0  0  0
 38 36  1  0  0  0  0
 39 38  1  0  0  0  0
 40 39  1  0  0  0  0
 41 40  1  0  0  0  0
 41 42  1  0  0  0  0
 42 43  1  0  0  0  0
 43 44  2  0  0  0  0
 45 43  1  0  0  0  0
 46 45  1  0  0  0  0
 47 48  1  0  0  0  0
 49 48  1  0  0  0  0
 49 50  1  0  0  0  0
 50 51  1  0  0  0  0
 51 52  1  0  0  0  0
M  END
>  <REMARK>
 VINA RESULT:    -4.140      8.998     14.319
 INTER + INTRA:         -14.414
 INTER:                  -7.897
 INTRA:                  -6.517
 UNBOUND:                -5.918
 SMILES CC(=O)N[C@@H]1[C@@H](O)C[C@](O)(C(=O)O)O[C@H]1C(O)[C@H](O)CNC(=O)OCc1cn(CCCCCC(=O)O)nn1
 SMILES IDX 25 1 24 2 22 3 21 4 23 6 20 7 18 8 16 9 15 10 9 11 8 12
 SMILES IDX 14 13 6 14 5 15 10 16 11 18 12 19 13 20 7 22 4 24 2 25 1 27
 SMILES IDX 3 28 17 29 19 31 26 33 27 34 38 35 28 36 37 37 29 38 30 39
 SMILES IDX 31 40 32 41 33 42 34 43 35 44 36 45
 H PARENT 21 5 10 17 13 21 7 23 4 26 17 30 19 32 36 46
 Flexibility Score: inf
  4 active torsions:
  status: ('A' for Active; 'I' for Inactive)
    1  A    between atoms: CA   and  CB  
    2  A    between atoms: CB   and  CG  
    3  A    between atoms: CG   and  CD  
    4  A    between atoms: CD   and  CE  

>  <TORSDO>
F 21

>  <BEGIN_>
RES LYS A 131

$$$$
ligand_33_pose_19_2HRL.pdbqt
 OpenBabel07062320523D

  6  5  0  0  0  0  0  0  0  0999 V2000
   33.1930   34.6630    9.2900 C   0  0  0  0  0  0  0  0  0  0  0  0
   32.0600   35.3600   10.0340 C   0  0  0  0  0  0  0  0  0  0  0  0
   30.7080   34.7390    9.7910 C   0  0  0  0  0  0  0  0  0  0  0  0
   30.4080   34.6720    8.3020 C   0  0  0  0  0  0  0  0  0  0  0  0
   29.2550   35.5920    7.9490 C   0  0  0  0  0  0  0  0  0  0  0  0
   27.9690   34.8430    7.8930 N   0  0  0  0  0  0  0  0  0  0  0  0
  1  2  1  0  0  0  0
  3  2  1  0  0  0  0
  4  3  1  0  0  0  0
  5  4  1  0  0  0  0
  6  5  1  0  0  0  0
M  END
>  <EGIN_R>
ES LYS A 135

>  <REMARK>
  4 active torsions:
  status: ('A' for Active; 'I' for Inactive)
    5  A    between atoms: CA   and  CB  
    6  A    between atoms: CB   and  CG  
    7  A    between atoms: CG   and  CD  
    8  A    between atoms: CD   and  CE  

$$$$
