ligand_2_pose_15_2HRL.pdbqt
 OpenBabel07062320523D

 50 51  0  0  1  0  0  0  0  0999 V2000
   32.4920   35.9950   14.8920 C   0  0  0  0  0  0  0  0  0  0  0  0
   32.4460   34.5710   14.4350 C   0  0  2  0  0  0  0  0  0  0  0  0
   31.9320   33.7170   15.6060 C   0  0  2  0  0  0  0  0  0  0  0  0
   30.7040   32.9090   15.1950 C   0  0  2  0  0  0  0  0  0  0  0  0
   28.9110   34.2550   14.5010 C   0  0  2  0  0  0  0  0  0  0  0  0
   27.8220   33.3640   15.0590 C   0  0  0  0  0  0  0  0  0  0  0  0
   30.0760   33.6370   14.2050 O   0  0  0  0  0  0  0  0  0  0  0  0
   28.4510   32.2070   15.7490 C   0  0  1  0  0  0  0  0  0  0  0  0
   29.7850   32.6490   16.3170 C   0  0  1  0  0  0  0  0  0  0  0  0
   29.0280   35.3260   15.3850 O   0  0  0  0  0  0  0  0  0  0  0  0
   29.2170   36.1230   14.8290 H   0  0  0  0  0  0  0  0  0  0  0  0
   28.3660   34.8040   13.2310 C   0  0  0  0  0  0  0  0  0  0  0  0
   27.1240   34.9040   13.1190 O   0  0  0  0  0  0  0  0  0  0  0  0
   29.1770   35.1940   12.2010 O   0  0  0  0  0  0  0  0  0  0  0  0
   28.7600   35.5640   11.3430 H   0  0  0  0  0  0  0  0  0  0  0  0
   27.6370   31.6270   16.7140 O   0  0  0  0  0  0  0  0  0  0  0  0
   28.1120   31.5460   17.5670 H   0  0  0  0  0  0  0  0  0  0  0  0
   30.1770   31.6870   17.2890 N   0  0  0  0  0  0  0  0  0  0  0  0
   30.3590   31.9940   18.6590 C   0  0  0  0  0  0  0  0  0  0  0  0
   30.3280   30.7090   16.9270 H   0  0  0  0  0  0  0  0  0  0  0  0
   30.7660   30.9670   19.6400 C   0  0  0  0  0  0  0  0  0  0  0  0
   30.1460   33.2000   18.9600 O   0  0  0  0  0  0  0  0  0  0  0  0
   31.6160   34.5450   16.6880 O   0  0  0  0  0  0  0  0  0  0  0  0
   31.6730   35.5100   16.4390 H   0  0  0  0  0  0  0  0  0  0  0  0
   33.6580   34.1060   13.9760 O   0  0  0  0  0  0  0  0  0  0  0  0
   33.6760   33.7490   13.0720 H   0  0  0  0  0  0  0  0  0  0  0  0
   31.9060   36.9590   14.0220 N   0  0  0  0  0  0  0  0  0  0  0  0
   30.8820   37.8690   14.3860 C   0  0  0  0  0  0  0  0  0  0  0  0
   32.2460   37.0180   13.0220 H   0  0  0  0  0  0  0  0  0  0  0  0
   30.4110   37.8980   15.5350 O   0  0  0  0  0  0  0  0  0  0  0  0
   30.3710   38.7730   13.4350 O   0  0  0  0  0  0  0  0  0  0  0  0
   28.9850   39.1010   13.4160 C   0  0  0  0  0  0  0  0  0  0  0  0
   28.4080   38.4540   12.2130 C   0  0  0  0  0  0  0  0  0  0  0  0
   27.0850   38.2070   11.9900 C   0  0  0  0  0  0  0  0  0  0  0  0
   29.0740   38.0080   11.1570 N   0  0  0  0  0  0  0  0  0  0  0  0
   26.9930   37.6080   10.7850 N   0  0  0  0  0  0  0  0  0  0  0  0
   28.2120   37.4940   10.2900 N   0  0  0  0  0  0  0  0  0  0  0  0
   25.7490   37.1960   10.2100 C   0  0  0  0  0  0  0  0  0  0  0  0
   24.8160   38.1450    9.8660 C   0  0  0  0  0  0  0  0  0  0  0  0
   25.5430   35.8530   10.0240 C   0  0  0  0  0  0  0  0  0  0  0  0
   23.6290   37.7040    9.3140 C   0  0  0  0  0  0  0  0  0  0  0  0
   24.3450   35.4460    9.4690 C   0  0  0  0  0  0  0  0  0  0  0  0
   23.3820   36.3550    9.1100 C   0  0  0  0  0  0  0  0  0  0  0  0
   21.8920   35.7770    8.4160 Cl  0  0  0  0  0  0  0  0  0  0  0  0
   29.8670   25.5550   16.9770 C   0  0  0  0  0  0  0  0  0  0  0  0
   28.3450   25.7220   17.0260 C   0  0  0  0  0  0  0  0  0  0  0  0
   27.6020   24.3980   16.9290 C   0  0  0  0  0  0  0  0  0  0  0  0
   26.5280   24.2740   17.9740 C   0  0  0  0  0  0  0  0  0  0  0  0
   25.2340   23.8010   17.3200 C   0  0  0  0  0  0  0  0  0  0  0  0
   25.0360   22.3500   17.5520 N   0  0  0  0  0  0  0  0  0  0  0  0
  2  1  1  1  0  0  0
  2  3  1  0  0  0  0
  3 23  1  1  0  0  0
  4  3  1  1  0  0  0
  4  9  1  0  0  0  0
  5 12  1  6  0  0  0
  5  6  1  0  0  0  0
  5 10  1  0  0  0  0
  6  8  1  0  0  0  0
  7  5  1  0  0  0  0
  7  4  1  0  0  0  0
  8  9  1  0  0  0  0
  8 16  1  1  0  0  0
  9 18  1  1  0  0  0
 11 10  1  0  0  0  0
 13 12  2  0  0  0  0
 14 12  1  0  0  0  0
 15 14  1  0  0  0  0
 16 17  1  0  0  0  0
 18 19  1  0  0  0  0
 19 22  2  0  0  0  0
 19 21  1  0  0  0  0
 20 18  1  0  0  0  0
 24 23  1  0  0  0  0
 25  2  1  0  0  0  0
 26 25  1  0  0  0  0
 27 28  1  0  0  0  0
 27  1  1  0  0  0  0
 28 30  2  0  0  0  0
 29 27  1  0  0  0  0
 31 28  1  0  0  0  0
 32 31  1  0  0  0  0
 33 32  1  0  0  0  0
 34 33  2  0  0  0  0
 35 33  1  0  0  0  0
 36 34  1  0  0  0  0
 37 36  1  0  0  0  0
 37 35  2  0  0  0  0
 38 36  1  0  0  0  0
 39 38  2  0  0  0  0
 40 38  1  0  0  0  0
 41 39  1  0  0  0  0
 42 40  2  0  0  0  0
 43 41  2  0  0  0  0
 43 42  1  0  0  0  0
 44 43  1  0  0  0  0
 45 46  1  0  0  0  0
 47 46  1  0  0  0  0
 47 48  1  0  0  0  0
 49 50  1  0  0  0  0
 49 48  1  0  0  0  0
M  END
>  <REMARK>
 VINA RESULT:    -4.009      5.248      9.605
 INTER + INTRA:         -13.946
 INTER:                  -7.347
 INTRA:                  -6.599
 UNBOUND:                -7.007
 SMILES CC(=O)N[C@@H]1[C@@H](O)C[C@](O)(C(=O)O)O[C@H]1C(O)[C@H](O)CNC(=O)OCc1cn(-c2ccc(Cl)cc2)nn1
 SMILES IDX 20 1 18 2 16 3 15 4 9 5 8 6 14 7 6 8 5 9 10 10 11 12 12 13
 SMILES IDX 13 14 7 16 4 18 2 19 1 21 3 22 17 23 19 25 21 27 22 28 23 30
 SMILES IDX 24 31 25 32 26 33 27 34 37 35 28 36 36 37 29 38 30 39 35 40
 SMILES IDX 31 41 34 42 32 43 33 44
 H PARENT 10 11 13 15 7 17 4 20 17 24 19 26 21 29
 Flexibility Score: inf
  4 active torsions:
  status: ('A' for Active; 'I' for Inactive)
    1  A    between atoms: CA   and  CB  
    2  A    between atoms: CB   and  CG  
    3  A    between atoms: CG   and  CD  
    4  A    between atoms: CD   and  CE  

>  <TORSDO>
F 15

>  <BEGIN_>
RES LYS A 131

$$$$
ligand_2_pose_15_2HRL.pdbqt
 OpenBabel07062320523D

  6  5  0  0  0  0  0  0  0  0999 V2000
   33.1930   34.6630    9.2900 C   0  0  0  0  0  0  0  0  0  0  0  0
   32.0600   35.3600   10.0340 C   0  0  0  0  0  0  0  0  0  0  0  0
   30.8790   35.6910    9.1590 C   0  0  0  0  0  0  0  0  0  0  0  0
   30.3810   34.4490    8.4360 C   0  0  0  0  0  0  0  0  0  0  0  0
   28.8670   34.4460    8.3620 C   0  0  0  0  0  0  0  0  0  0  0  0
   28.2750   33.6760    9.4910 N   0  0  0  0  0  0  0  0  0  0  0  0
  1  2  1  0  0  0  0
  3  2  1  0  0  0  0
  4  3  1  0  0  0  0
  5  4  1  0  0  0  0
  5  6  1  0  0  0  0
M  END
>  <EGIN_R>
ES LYS A 135

>  <REMARK>
  4 active torsions:
  status: ('A' for Active; 'I' for Inactive)
    5  A    between atoms: CA   and  CB  
    6  A    between atoms: CB   and  CG  
    7  A    between atoms: CG   and  CD  
    8  A    between atoms: CD   and  CE  

$$$$
