ligand_36_pose_13_2HRL.pdbqt
 OpenBabel07062320523D

 52 53  0  0  1  0  0  0  0  0999 V2000
   24.0970   36.2360   10.3570 N   0  0  0  0  0  0  0  0  0  0  0  0
   24.9680   36.7480   11.3630 C   0  0  0  0  0  0  0  0  0  0  0  0
   25.0500   38.0150   11.5270 O   0  0  0  0  0  0  0  0  0  0  0  0
   24.0460   35.2060   10.2460 H   0  0  0  0  0  0  0  0  0  0  0  0
   23.3440   37.1340    9.5600 C   0  0  0  0  0  0  0  0  0  0  0  0
   23.6520   37.1380    8.0810 C   0  0  2  0  0  0  0  0  0  0  0  0
   24.8960   37.9310    7.7320 C   0  0  2  0  0  0  0  0  0  0  0  0
   26.0540   37.0640    7.3720 C   0  0  2  0  0  0  0  0  0  0  0  0
   27.7430   35.7860    8.3380 C   0  0  2  0  0  0  0  0  0  0  0  0
   28.0420   35.4540    6.8930 C   0  0  0  0  0  0  0  0  0  0  0  0
   26.5520   36.4240    8.5140 O   0  0  0  0  0  0  0  0  0  0  0  0
   28.0150   36.6440    6.0010 C   0  0  1  0  0  0  0  0  0  0  0  0
   27.2130   37.7460    6.7170 C   0  0  1  0  0  0  0  0  0  0  0  0
   28.8290   36.5230    8.8570 O   0  0  0  0  0  0  0  0  0  0  0  0
   28.4810   37.0640    9.6250 H   0  0  0  0  0  0  0  0  0  0  0  0
   27.6970   34.5020    9.0690 C   0  0  0  0  0  0  0  0  0  0  0  0
   26.6110   34.1030    9.5450 O   0  0  0  0  0  0  0  0  0  0  0  0
   28.8370   33.7480    9.2270 O   0  0  0  0  0  0  0  0  0  0  0  0
   29.7550   34.1170    9.3970 H   0  0  0  0  0  0  0  0  0  0  0  0
   29.2620   37.1040    5.6270 O   0  0  0  0  0  0  0  0  0  0  0  0
   29.8390   37.0860    6.4520 H   0  0  0  0  0  0  0  0  0  0  0  0
   26.8950   38.8050    5.8110 N   0  0  0  0  0  0  0  0  0  0  0  0
   27.3830   40.1400    6.0250 C   0  0  0  0  0  0  0  0  0  0  0  0
   26.3000   38.6550    4.9470 H   0  0  0  0  0  0  0  0  0  0  0  0
   27.0440   41.2380    5.0720 C   0  0  0  0  0  0  0  0  0  0  0  0
   28.1030   40.4100    7.0160 O   0  0  0  0  0  0  0  0  0  0  0  0
   25.1390   38.8790    8.6720 O   0  0  0  0  0  0  0  0  0  0  0  0
   25.2990   39.7690    8.3550 H   0  0  0  0  0  0  0  0  0  0  0  0
   22.5240   37.7680    7.4960 O   0  0  0  0  0  0  0  0  0  0  0  0
   22.5120   37.6670    6.5270 H   0  0  0  0  0  0  0  0  0  0  0  0
   25.7500   35.9690   12.1950 O   0  0  0  0  0  0  0  0  0  0  0  0
   26.8540   36.5600   12.8430 C   0  0  0  0  0  0  0  0  0  0  0  0
   28.0200   35.6470   12.9010 C   0  0  0  0  0  0  0  0  0  0  0  0
   28.5320   34.9810   14.0030 C   0  0  0  0  0  0  0  0  0  0  0  0
   28.7940   35.3020   11.8640 N   0  0  0  0  0  0  0  0  0  0  0  0
   29.5840   34.2620   13.6040 N   0  0  0  0  0  0  0  0  0  0  0  0
   29.7160   34.4770   12.3120 N   0  0  0  0  0  0  0  0  0  0  0  0
   30.4220   33.4040   14.4130 C   0  0  0  0  0  0  0  0  0  0  0  0
   31.4380   34.1210   15.1850 C   0  0  0  0  0  0  0  0  0  0  0  0
   31.3260   34.2150   16.5480 C   0  0  0  0  0  0  0  0  0  0  0  0
   32.5120   34.7080   14.5350 C   0  0  0  0  0  0  0  0  0  0  0  0
   32.2750   34.8930   17.2890 C   0  0  0  0  0  0  0  0  0  0  0  0
   33.4800   35.3950   15.2560 C   0  0  0  0  0  0  0  0  0  0  0  0
   33.3440   35.4780   16.6430 C   0  0  0  0  0  0  0  0  0  0  0  0
   34.3330   36.1860   17.4020 C   0  0  0  0  0  0  0  0  0  0  0  0
   35.1340   36.7580   18.0370 N   0  0  0  0  0  0  0  0  0  0  0  0
   29.8670   25.5550   16.9770 C   0  0  0  0  0  0  0  0  0  0  0  0
   28.3450   25.7220   17.0260 C   0  0  0  0  0  0  0  0  0  0  0  0
   27.6010   24.4010   16.9070 C   0  0  0  0  0  0  0  0  0  0  0  0
   26.1490   24.5330   17.2720 C   0  0  0  0  0  0  0  0  0  0  0  0
   25.9860   24.3680   18.7790 C   0  0  0  0  0  0  0  0  0  0  0  0
   25.0430   25.3790   19.3130 N   0  0  0  0  0  0  0  0  0  0  0  0
  1  2  1  0  0  0  0
  2  3  2  0  0  0  0
  2 31  1  0  0  0  0
  4  1  1  0  0  0  0
  5  1  1  0  0  0  0
  6  5  1  1  0  0  0
  7  6  1  0  0  0  0
  7 27  1  1  0  0  0
  8  7  1  1  0  0  0
  8 11  1  0  0  0  0
  9 11  1  0  0  0  0
  9 14  1  1  0  0  0
  9 16  1  0  0  0  0
 10  9  1  0  0  0  0
 12 20  1  1  0  0  0
 12 13  1  0  0  0  0
 12 10  1  0  0  0  0
 13 22  1  6  0  0  0
 13  8  1  0  0  0  0
 14 15  1  0  0  0  0
 16 18  1  0  0  0  0
 16 17  2  0  0  0  0
 18 19  1  0  0  0  0
 20 21  1  0  0  0  0
 22 23  1  0  0  0  0
 23 26  2  0  0  0  0
 24 22  1  0  0  0  0
 25 23  1  0  0  0  0
 28 27  1  0  0  0  0
 29  6  1  0  0  0  0
 30 29  1  0  0  0  0
 31 32  1  0  0  0  0
 32 33  1  0  0  0  0
 33 34  2  0  0  0  0
 35 37  2  0  0  0  0
 35 33  1  0  0  0  0
 36 34  1  0  0  0  0
 36 38  1  0  0  0  0
 37 36  1  0  0  0  0
 38 39  1  0  0  0  0
 39 40  1  0  0  0  0
 40 42  2  0  0  0  0
 41 39  2  0  0  0  0
 41 43  1  0  0  0  0
 43 44  2  0  0  0  0
 44 42  1  0  0  0  0
 44 45  1  0  0  0  0
 45 46  3  0  0  0  0
 47 48  1  0  0  0  0
 49 48  1  0  0  0  0
 49 50  1  0  0  0  0
 50 51  1  0  0  0  0
 51 52  1  0  0  0  0
M  END
>  <REMARK>
 VINA RESULT:    -4.203      6.570     11.812
 INTER + INTRA:         -14.746
 INTER:                 -10.201
 INTRA:                  -4.545
 UNBOUND:                -6.980
 SMILES CC(=O)N[C@@H]1[C@@H](O)C[C@](O)(C(=O)O)O[C@H]1C(O)[C@H](O)CNC(=O)OCc1cn(Cc2ccc(C#N)cc2)nn1
 SMILES IDX 21 1 22 2 23 3 20 5 18 6 16 7 15 8 9 9 8 10 14 11 6 12 5 13
 SMILES IDX 10 14 11 16 12 17 13 18 7 20 4 22 2 23 1 25 3 26 17 27 19 29
 SMILES IDX 24 31 25 32 26 33 27 34 39 35 28 36 38 37 29 38 30 39 31 40
 SMILES IDX 37 41 32 42 36 43 33 44 34 45 35 46
 H PARENT 21 4 10 15 13 19 7 21 4 24 17 28 19 30
 Flexibility Score: inf
  4 active torsions:
  status: ('A' for Active; 'I' for Inactive)
    1  A    between atoms: CA   and  CB  
    2  A    between atoms: CB   and  CG  
    3  A    between atoms: CG   and  CD  
    4  A    between atoms: CD   and  CE  

>  <TORSDO>
F 17

>  <BEGIN_>
RES LYS A 131

$$$$
ligand_36_pose_13_2HRL.pdbqt
 OpenBabel07062320523D

  6  5  0  0  0  0  0  0  0  0999 V2000
   33.1930   34.6630    9.2900 C   0  0  0  0  0  0  0  0  0  0  0  0
   32.0600   35.3600   10.0340 C   0  0  0  0  0  0  0  0  0  0  0  0
   32.5290   36.2130   11.1840 C   0  0  0  0  0  0  0  0  0  0  0  0
   31.6610   37.4540   11.3210 C   0  0  0  0  0  0  0  0  0  0  0  0
   31.9030   38.4040   10.1640 C   0  0  0  0  0  0  0  0  0  0  0  0
   30.7190   39.2750    9.9280 N   0  0  0  0  0  0  0  0  0  0  0  0
  1  2  1  0  0  0  0
  2  3  1  0  0  0  0
  3  4  1  0  0  0  0
  5  4  1  0  0  0  0
  6  5  1  0  0  0  0
M  END
>  <EGIN_R>
ES LYS A 135

>  <REMARK>
  4 active torsions:
  status: ('A' for Active; 'I' for Inactive)
    5  A    between atoms: CA   and  CB  
    6  A    between atoms: CB   and  CG  
    7  A    between atoms: CG   and  CD  
    8  A    between atoms: CD   and  CE  

$$$$
