ligand_75_pose_14_2HRL.pdbqt
 OpenBabel07062320523D

 55 56  0  0  1  0  0  0  0  0999 V2000
   23.7590   37.0710   13.5210 N   0  0  0  0  0  0  0  0  0  0  0  0
   24.2730   36.4230   14.6670 C   0  0  0  0  0  0  0  0  0  0  0  0
   23.5830   36.1990   15.6830 O   0  0  0  0  0  0  0  0  0  0  0  0
   24.4600   37.2140   12.7150 H   0  0  0  0  0  0  0  0  0  0  0  0
   22.4150   37.5420   13.3440 C   0  0  0  0  0  0  0  0  0  0  0  0
   21.6810   36.7150   12.3380 C   0  0  2  0  0  0  0  0  0  0  0  0
   22.5370   36.2600   11.1720 C   0  0  2  0  0  0  0  0  0  0  0  0
   21.7950   36.3720    9.8900 C   0  0  2  0  0  0  0  0  0  0  0  0
   20.2370   35.5420    8.4030 C   0  0  2  0  0  0  0  0  0  0  0  0
   20.5340   36.8330    7.6930 C   0  0  0  0  0  0  0  0  0  0  0  0
   20.8230   35.4530    9.6500 O   0  0  0  0  0  0  0  0  0  0  0  0
   21.9690   37.2020    7.6150 C   0  0  1  0  0  0  0  0  0  0  0  0
   22.7370   36.4770    8.6920 C   0  0  1  0  0  0  0  0  0  0  0  0
   20.5640   34.4730    7.5700 O   0  0  0  0  0  0  0  0  0  0  0  0
   20.7360   34.7530    6.6450 H   0  0  0  0  0  0  0  0  0  0  0  0
   18.7630   35.4890    8.6130 C   0  0  0  0  0  0  0  0  0  0  0  0
   18.2820   35.8270    9.7470 O   0  0  0  0  0  0  0  0  0  0  0  0
   17.8860   35.0830    7.6170 O   0  0  0  0  0  0  0  0  0  0  0  0
   18.0010   34.2320    7.1040 H   0  0  0  0  0  0  0  0  0  0  0  0
   22.5280   37.0000    6.3570 O   0  0  0  0  0  0  0  0  0  0  0  0
   22.0700   36.2710    5.9070 H   0  0  0  0  0  0  0  0  0  0  0  0
   23.9770   37.1100    9.0160 N   0  0  0  0  0  0  0  0  0  0  0  0
   25.1910   36.3890    9.1580 C   0  0  0  0  0  0  0  0  0  0  0  0
   24.0390   38.1610    9.1640 H   0  0  0  0  0  0  0  0  0  0  0  0
   26.4470   37.0870    9.4920 C   0  0  0  0  0  0  0  0  0  0  0  0
   25.2180   35.1430    9.0020 O   0  0  0  0  0  0  0  0  0  0  0  0
   23.1260   35.0210   11.4030 O   0  0  0  0  0  0  0  0  0  0  0  0
   22.5200   34.3300   11.0570 H   0  0  0  0  0  0  0  0  0  0  0  0
   20.5630   37.3810   11.8330 O   0  0  0  0  0  0  0  0  0  0  0  0
   20.5200   37.2230   10.8500 H   0  0  0  0  0  0  0  0  0  0  0  0
   25.6160   35.9930   14.7150 O   0  0  0  0  0  0  0  0  0  0  0  0
   26.0600   35.0660   13.7750 C   0  0  0  0  0  0  0  0  0  0  0  0
   25.4690   33.7210   13.9670 C   0  0  0  0  0  0  0  0  0  0  0  0
   24.6120   33.0030   13.1670 C   0  0  0  0  0  0  0  0  0  0  0  0
   25.6950   32.9360   15.0340 N   0  0  0  0  0  0  0  0  0  0  0  0
   24.3370   31.8100   13.7520 N   0  0  0  0  0  0  0  0  0  0  0  0
   25.0110   31.8000   14.8870 N   0  0  0  0  0  0  0  0  0  0  0  0
   23.4820   30.8030   13.2080 C   0  0  0  0  0  0  0  0  0  0  0  0
   22.1460   31.0350   13.0110 C   0  0  0  0  0  0  0  0  0  0  0  0
   23.9910   29.5700   12.8720 C   0  0  0  0  0  0  0  0  0  0  0  0
   21.2870   30.0380   12.4710 C   0  0  0  0  0  0  0  0  0  0  0  0
   23.2220   28.5730   12.3510 C   0  0  0  0  0  0  0  0  0  0  0  0
   21.8540   28.8320   12.1560 C   0  0  0  0  0  0  0  0  0  0  0  0
   19.9190   30.3540   12.2520 C   0  0  0  0  0  0  0  0  0  0  0  0
   19.1860   31.3780   12.0430 C   0  0  0  0  0  0  0  0  0  0  0  0
   19.3920   32.7650   11.9170 C   0  0  0  0  0  0  0  0  0  0  0  0
   18.3970   33.5770   12.2710 O   0  0  0  0  0  0  0  0  0  0  0  0
   20.4620   33.5030   11.4780 O   0  0  0  0  0  0  0  0  0  0  0  0
   20.4870   34.5110   11.4860 H   0  0  0  0  0  0  0  0  0  0  0  0
   29.8670   25.5550   16.9770 C   0  0  0  0  0  0  0  0  0  0  0  0
   28.3450   25.7220   17.0260 C   0  0  0  0  0  0  0  0  0  0  0  0
   27.6010   24.4030   16.8870 C   0  0  0  0  0  0  0  0  0  0  0  0
   26.5840   24.2080   17.9770 C   0  0  0  0  0  0  0  0  0  0  0  0
   25.3150   24.9800   17.6320 C   0  0  0  0  0  0  0  0  0  0  0  0
   24.4030   24.1430   16.8170 N   0  0  0  0  0  0  0  0  0  0  0  0
  1  2  1  0  0  0  0
  2 31  1  0  0  0  0
  2  3  2  0  0  0  0
  4  1  1  0  0  0  0
  5  1  1  0  0  0  0
  6  5  1  1  0  0  0
  7 27  1  1  0  0  0
  7  6  1  0  0  0  0
  8  7  1  1  0  0  0
  9 14  1  6  0  0  0
  9 16  1  0  0  0  0
  9 11  1  0  0  0  0
 10  9  1  0  0  0  0
 11  8  1  0  0  0  0
 12 20  1  6  0  0  0
 12 10  1  0  0  0  0
 12 13  1  0  0  0  0
 13 22  1  1  0  0  0
 13  8  1  0  0  0  0
 15 14  1  0  0  0  0
 16 17  2  0  0  0  0
 18 16  1  0  0  0  0
 19 18  1  0  0  0  0
 21 20  1  0  0  0  0
 22 23  1  0  0  0  0
 22 24  1  0  0  0  0
 23 25  1  0  0  0  0
 26 23  2  0  0  0  0
 28 27  1  0  0  0  0
 29  6  1  0  0  0  0
 30 29  1  0  0  0  0
 32 33  1  0  0  0  0
 32 31  1  0  0  0  0
 33 35  1  0  0  0  0
 34 36  1  0  0  0  0
 34 33  2  0  0  0  0
 36 37  1  0  0  0  0
 37 35  2  0  0  0  0
 38 36  1  0  0  0  0
 39 38  1  0  0  0  0
 40 38  2  0  0  0  0
 41 39  2  0  0  0  0
 42 40  1  0  0  0  0
 43 42  2  0  0  0  0
 43 41  1  0  0  0  0
 44 41  1  0  0  0  0
 45 44  2  0  0  0  0
 46 45  1  0  0  0  0
 46 47  2  0  0  0  0
 48 49  1  0  0  0  0
 48 46  1  0  0  0  0
 50 51  1  0  0  0  0
 52 51  1  0  0  0  0
 52 53  1  0  0  0  0
 54 53  1  0  0  0  0
 55 54  1  0  0  0  0
M  END
>  <REMARK>
 VINA RESULT:    -4.895      3.836      6.824
 INTER + INTRA:         -15.505
 INTER:                  -9.387
 INTRA:                  -6.118
 UNBOUND:                -6.317
 SMILES CC(=O)N[C@@H]1[C@@H](O)C[C@](O)(C(=O)O)O[C@H]1C(O)[C@H](O)CNC(=O)OCc1cn(-c2cccc(C=CC(=O)O)c2)nn1
 SMILES IDX 21 1 22 2 23 3 20 5 18 6 16 7 15 8 9 9 8 10 14 11 6 12 5 13
 SMILES IDX 10 14 11 16 12 17 13 18 7 20 4 22 2 23 1 25 3 26 17 27 19 29
 SMILES IDX 24 31 25 32 26 33 27 34 41 35 28 36 40 37 29 38 39 39 30 40
 SMILES IDX 33 41 31 42 32 43 34 44 35 45 36 46 37 47 38 48
 H PARENT 21 4 10 15 13 19 7 21 4 24 17 28 19 30 38 49
 Flexibility Score: inf
  4 active torsions:
  status: ('A' for Active; 'I' for Inactive)
    1  A    between atoms: CA   and  CB  
    2  A    between atoms: CB   and  CG  
    3  A    between atoms: CG   and  CD  
    4  A    between atoms: CD   and  CE  

>  <TORSDO>
F 18

>  <BEGIN_>
RES LYS A 131

$$$$
ligand_75_pose_14_2HRL.pdbqt
 OpenBabel07062320523D

  6  5  0  0  0  0  0  0  0  0999 V2000
   33.1930   34.6630    9.2900 C   0  0  0  0  0  0  0  0  0  0  0  0
   32.0600   35.3600   10.0340 C   0  0  0  0  0  0  0  0  0  0  0  0
   30.7530   35.3530    9.2840 C   0  0  0  0  0  0  0  0  0  0  0  0
   29.6890   34.6000   10.0680 C   0  0  0  0  0  0  0  0  0  0  0  0
   28.6210   34.0620    9.1340 C   0  0  0  0  0  0  0  0  0  0  0  0
   28.6470   34.7700    7.8250 N   0  0  0  0  0  0  0  0  0  0  0  0
  1  2  1  0  0  0  0
  3  2  1  0  0  0  0
  3  4  1  0  0  0  0
  5  4  1  0  0  0  0
  6  5  1  0  0  0  0
M  END
>  <EGIN_R>
ES LYS A 135

>  <REMARK>
  4 active torsions:
  status: ('A' for Active; 'I' for Inactive)
    5  A    between atoms: CA   and  CB  
    6  A    between atoms: CB   and  CG  
    7  A    between atoms: CG   and  CD  
    8  A    between atoms: CD   and  CE  

$$$$
