ligand_42_pose_12_2HRL.pdbqt
 OpenBabel07062320523D

 52 54  0  0  1  0  0  0  0  0999 V2000
   21.3950   36.0830   13.7550 C   0  0  0  0  0  0  0  0  0  0  0  0
   21.7500   36.2490   12.3150 C   0  0  2  0  0  0  0  0  0  0  0  0
   21.0730   35.1720   11.4520 C   0  0  1  0  0  0  0  0  0  0  0  0
   21.1660   35.6170   10.0370 C   0  0  2  0  0  0  0  0  0  0  0  0
   21.3220   37.4010    8.6280 C   0  0  2  0  0  0  0  0  0  0  0  0
   21.4610   36.2620    7.6410 C   0  0  0  0  0  0  0  0  0  0  0  0
   21.2950   36.9980    9.9400 O   0  0  0  0  0  0  0  0  0  0  0  0
   20.3560   35.2330    7.7950 C   0  0  1  0  0  0  0  0  0  0  0  0
   19.9260   35.2490    9.2220 C   0  0  1  0  0  0  0  0  0  0  0  0
   20.1740   38.1040    8.2530 O   0  0  0  0  0  0  0  0  0  0  0  0
   20.4930   38.9860    7.9230 H   0  0  0  0  0  0  0  0  0  0  0  0
   22.5120   38.2650    8.4510 C   0  0  0  0  0  0  0  0  0  0  0  0
   23.2300   38.5300    9.4430 O   0  0  0  0  0  0  0  0  0  0  0  0
   22.8740   38.8000    7.2260 O   0  0  0  0  0  0  0  0  0  0  0  0
   23.6750   39.4080    7.0950 H   0  0  0  0  0  0  0  0  0  0  0  0
   19.3210   35.6530    6.9310 O   0  0  0  0  0  0  0  0  0  0  0  0
   19.1940   36.6180    6.9830 H   0  0  0  0  0  0  0  0  0  0  0  0
   19.2730   34.0780    9.6850 N   0  0  0  0  0  0  0  0  0  0  0  0
   17.9060   33.7380    9.4990 C   0  0  0  0  0  0  0  0  0  0  0  0
   19.8430   33.3860   10.2180 H   0  0  0  0  0  0  0  0  0  0  0  0
   17.3150   32.4730   10.0290 C   0  0  0  0  0  0  0  0  0  0  0  0
   17.1970   34.5480    8.8620 O   0  0  0  0  0  0  0  0  0  0  0  0
   21.7230   33.9900   11.6800 O   0  0  0  0  0  0  0  0  0  0  0  0
   22.1190   33.5290   10.9320 H   0  0  0  0  0  0  0  0  0  0  0  0
   23.1010   36.1670   12.1080 O   0  0  0  0  0  0  0  0  0  0  0  0
   23.4610   36.6640   11.3420 H   0  0  0  0  0  0  0  0  0  0  0  0
   22.3680   35.3310   14.4660 N   0  0  0  0  0  0  0  0  0  0  0  0
   22.1700   34.0070   14.8910 C   0  0  0  0  0  0  0  0  0  0  0  0
   23.3120   35.7620   14.7080 H   0  0  0  0  0  0  0  0  0  0  0  0
   21.1340   33.3440   14.7140 O   0  0  0  0  0  0  0  0  0  0  0  0
   23.2100   33.3550   15.5760 O   0  0  0  0  0  0  0  0  0  0  0  0
   24.0540   32.4910   14.8760 C   0  0  0  0  0  0  0  0  0  0  0  0
   24.8500   33.2750   13.8980 C   0  0  0  0  0  0  0  0  0  0  0  0
   26.1070   33.8310   14.1140 C   0  0  0  0  0  0  0  0  0  0  0  0
   24.5370   33.6050   12.6330 N   0  0  0  0  0  0  0  0  0  0  0  0
   26.5140   34.4680   13.0020 N   0  0  0  0  0  0  0  0  0  0  0  0
   25.5350   34.3070   12.1300 N   0  0  0  0  0  0  0  0  0  0  0  0
   27.7470   35.1590   12.8370 C   0  0  0  0  0  0  0  0  0  0  0  0
   27.7790   36.4020   12.2380 C   0  0  0  0  0  0  0  0  0  0  0  0
   28.9530   34.6360   13.2550 C   0  0  0  0  0  0  0  0  0  0  0  0
   28.9760   37.0960   12.0660 C   0  0  0  0  0  0  0  0  0  0  0  0
   30.1620   35.3110   13.0930 C   0  0  0  0  0  0  0  0  0  0  0  0
   30.1680   36.5510   12.4930 C   0  0  0  0  0  0  0  0  0  0  0  0
   31.4810   35.0070   13.4230 O   0  0  0  0  0  0  0  0  0  0  0  0
   31.5080   36.9780   12.4700 O   0  0  0  0  0  0  0  0  0  0  0  0
   32.3460   35.8340   12.6670 C   0  0  0  0  0  0  0  0  0  0  0  0
   29.8670   25.5550   16.9770 C   0  0  0  0  0  0  0  0  0  0  0  0
   28.3450   25.7220   17.0260 C   0  0  0  0  0  0  0  0  0  0  0  0
   27.6020   24.3990   16.9180 C   0  0  0  0  0  0  0  0  0  0  0  0
   26.1580   24.5270   17.3170 C   0  0  0  0  0  0  0  0  0  0  0  0
   25.9450   23.8740   18.6780 C   0  0  0  0  0  0  0  0  0  0  0  0
   25.5490   24.8870   19.6840 N   0  0  0  0  0  0  0  0  0  0  0  0
  1 27  1  0  0  0  0
  2  1  1  1  0  0  0
  3 23  1  6  0  0  0
  3  2  1  0  0  0  0
  4  3  1  1  0  0  0
  5 10  1  6  0  0  0
  5  7  1  0  0  0  0
  6  8  1  0  0  0  0
  6  5  1  0  0  0  0
  7  4  1  0  0  0  0
  8 16  1  6  0  0  0
  8  9  1  0  0  0  0
  9 18  1  1  0  0  0
  9  4  1  0  0  0  0
 11 10  1  0  0  0  0
 12  5  1  0  0  0  0
 12 13  2  0  0  0  0
 14 12  1  0  0  0  0
 15 14  1  0  0  0  0
 16 17  1  0  0  0  0
 18 20  1  0  0  0  0
 19 18  1  0  0  0  0
 19 21  1  0  0  0  0
 22 19  2  0  0  0  0
 24 23  1  0  0  0  0
 25  2  1  0  0  0  0
 26 25  1  0  0  0  0
 27 29  1  0  0  0  0
 27 28  1  0  0  0  0
 28 31  1  0  0  0  0
 30 28  2  0  0  0  0
 32 31  1  0  0  0  0
 33 34  2  0  0  0  0
 33 32  1  0  0  0  0
 35 33  1  0  0  0  0
 36 34  1  0  0  0  0
 37 35  2  0  0  0  0
 37 36  1  0  0  0  0
 38 36  1  0  0  0  0
 38 40  2  0  0  0  0
 39 38  1  0  0  0  0
 41 39  2  0  0  0  0
 41 43  1  0  0  0  0
 42 40  1  0  0  0  0
 42 44  1  0  0  0  0
 43 42  2  0  0  0  0
 45 43  1  0  0  0  0
 45 46  1  0  0  0  0
 46 44  1  0  0  0  0
 47 48  1  0  0  0  0
 49 48  1  0  0  0  0
 49 50  1  0  0  0  0
 50 51  1  0  0  0  0
 51 52  1  0  0  0  0
M  END
>  <REMARK>
 VINA RESULT:    -5.496      8.267     13.006
 INTER + INTRA:         -14.059
 INTER:                  -7.878
 INTRA:                  -6.181
 UNBOUND:                -4.548
 SMILES CC(=O)N[C@@H]1[C@@H](O)C[C@](O)(C(=O)O)O[C@H]1C(O)[C@H](O)CNC(=O)OCc1cn(-c2ccc3c(c2)OCO3)nn1
 SMILES IDX 20 1 18 2 16 3 15 4 9 5 8 6 14 7 6 8 5 9 10 10 11 12 12 13
 SMILES IDX 13 14 7 16 4 18 2 19 1 21 3 22 17 23 19 25 21 27 22 28 23 30
 SMILES IDX 24 31 25 32 26 33 27 34 39 35 28 36 38 37 29 38 30 39 34 40
 SMILES IDX 31 41 33 42 32 43 35 44 37 45 36 46
 H PARENT 10 11 13 15 7 17 4 20 17 24 19 26 21 29
 Flexibility Score: inf
  4 active torsions:
  status: ('A' for Active; 'I' for Inactive)
    1  A    between atoms: CA   and  CB  
    2  A    between atoms: CB   and  CG  
    3  A    between atoms: CG   and  CD  
    4  A    between atoms: CD   and  CE  

>  <TORSDO>
F 15

>  <BEGIN_>
RES LYS A 131

$$$$
ligand_42_pose_12_2HRL.pdbqt
 OpenBabel07062320523D

  6  5  0  0  0  0  0  0  0  0999 V2000
   33.1930   34.6630    9.2900 C   0  0  0  0  0  0  0  0  0  0  0  0
   32.0600   35.3600   10.0340 C   0  0  0  0  0  0  0  0  0  0  0  0
   30.8010   35.5030    9.2180 C   0  0  0  0  0  0  0  0  0  0  0  0
   29.9030   34.2890    9.4000 C   0  0  0  0  0  0  0  0  0  0  0  0
   28.5220   34.5580    8.8340 C   0  0  0  0  0  0  0  0  0  0  0  0
   27.5030   33.6730    9.4630 N   0  0  0  0  0  0  0  0  0  0  0  0
  1  2  1  0  0  0  0
  3  4  1  0  0  0  0
  3  2  1  0  0  0  0
  5  4  1  0  0  0  0
  5  6  1  0  0  0  0
M  END
>  <EGIN_R>
ES LYS A 135

>  <REMARK>
  4 active torsions:
  status: ('A' for Active; 'I' for Inactive)
    5  A    between atoms: CA   and  CB  
    6  A    between atoms: CB   and  CG  
    7  A    between atoms: CG   and  CD  
    8  A    between atoms: CD   and  CE  

$$$$
