ligand_42_pose_0_2HRL.pdbqt
 OpenBabel07062320523D

 52 54  0  0  1  0  0  0  0  0999 V2000
   30.2530   27.0330   21.3540 C   0  0  0  0  0  0  0  0  0  0  0  0
   31.5620   27.6930   21.0750 C   0  0  2  0  0  0  0  0  0  0  0  0
   31.3930   29.2140   20.9300 C   0  0  1  0  0  0  0  0  0  0  0  0
   32.6320   29.8480   21.4510 C   0  0  2  0  0  0  0  0  0  0  0  0
   34.2890   29.7470   23.0140 C   0  0  2  0  0  0  0  0  0  0  0  0
   34.7830   30.9000   22.1660 C   0  0  0  0  0  0  0  0  0  0  0  0
   33.1780   29.1220   22.5040 O   0  0  0  0  0  0  0  0  0  0  0  0
   33.7110   31.9500   21.9470 C   0  0  1  0  0  0  0  0  0  0  0  0
   32.3910   31.2580   21.9880 C   0  0  1  0  0  0  0  0  0  0  0  0
   34.0800   30.2650   24.2930 O   0  0  0  0  0  0  0  0  0  0  0  0
   34.8060   29.8880   24.8600 H   0  0  0  0  0  0  0  0  0  0  0  0
   35.3820   28.7490   23.0540 C   0  0  0  0  0  0  0  0  0  0  0  0
   36.5700   29.1430   23.1300 O   0  0  0  0  0  0  0  0  0  0  0  0
   35.1530   27.3840   23.0120 O   0  0  0  0  0  0  0  0  0  0  0  0
   34.6200   26.8830   23.7140 H   0  0  0  0  0  0  0  0  0  0  0  0
   33.8540   32.8690   23.0090 O   0  0  0  0  0  0  0  0  0  0  0  0
   33.2620   33.6340   22.8910 H   0  0  0  0  0  0  0  0  0  0  0  0
   31.3190   31.9300   21.3500 N   0  0  0  0  0  0  0  0  0  0  0  0
   30.5170   32.9660   21.8990 C   0  0  0  0  0  0  0  0  0  0  0  0
   31.0840   31.6460   20.3740 H   0  0  0  0  0  0  0  0  0  0  0  0
   29.4070   33.6110   21.1370 C   0  0  0  0  0  0  0  0  0  0  0  0
   30.7750   33.3300   23.0690 O   0  0  0  0  0  0  0  0  0  0  0  0
   31.1760   29.4830   19.6070 O   0  0  0  0  0  0  0  0  0  0  0  0
   31.8130   29.1620   18.9600 H   0  0  0  0  0  0  0  0  0  0  0  0
   32.1380   27.2230   19.9250 O   0  0  0  0  0  0  0  0  0  0  0  0
   32.4570   27.8940   19.2850 H   0  0  0  0  0  0  0  0  0  0  0  0
   29.3980   27.0310   20.2190 N   0  0  0  0  0  0  0  0  0  0  0  0
   28.1380   27.6510   20.1930 C   0  0  0  0  0  0  0  0  0  0  0  0
   29.6960   26.5420   19.3210 H   0  0  0  0  0  0  0  0  0  0  0  0
   27.6180   28.2570   21.1440 O   0  0  0  0  0  0  0  0  0  0  0  0
   27.3830   27.5980   19.0080 O   0  0  0  0  0  0  0  0  0  0  0  0
   26.7450   28.7520   18.5510 C   0  0  0  0  0  0  0  0  0  0  0  0
   27.6400   29.4590   17.6000 C   0  0  0  0  0  0  0  0  0  0  0  0
   28.4760   30.5300   17.8950 C   0  0  0  0  0  0  0  0  0  0  0  0
   27.8270   29.2220   16.2900 N   0  0  0  0  0  0  0  0  0  0  0  0
   29.1330   30.9070   16.7840 N   0  0  0  0  0  0  0  0  0  0  0  0
   28.7120   30.0890   15.8360 N   0  0  0  0  0  0  0  0  0  0  0  0
   30.0770   31.9670   16.6890 C   0  0  0  0  0  0  0  0  0  0  0  0
   30.7850   32.1730   15.5220 C   0  0  0  0  0  0  0  0  0  0  0  0
   30.3340   32.8310   17.7340 C   0  0  0  0  0  0  0  0  0  0  0  0
   31.7150   33.2060   15.4070 C   0  0  0  0  0  0  0  0  0  0  0  0
   31.2590   33.8700   17.6430 C   0  0  0  0  0  0  0  0  0  0  0  0
   31.9530   34.0540   16.4670 C   0  0  0  0  0  0  0  0  0  0  0  0
   31.6870   34.8520   18.5320 O   0  0  0  0  0  0  0  0  0  0  0  0
   32.7980   35.1590   16.6700 O   0  0  0  0  0  0  0  0  0  0  0  0
   32.9240   35.3730   18.0800 C   0  0  0  0  0  0  0  0  0  0  0  0
   29.8670   25.5550   16.9770 C   0  0  0  0  0  0  0  0  0  0  0  0
   28.3450   25.7220   17.0260 C   0  0  0  0  0  0  0  0  0  0  0  0
   27.6000   24.4160   16.7980 C   0  0  0  0  0  0  0  0  0  0  0  0
   26.9160   23.9290   18.0450 C   0  0  0  0  0  0  0  0  0  0  0  0
   25.5420   24.5820   18.1610 C   0  0  0  0  0  0  0  0  0  0  0  0
   24.7600   24.3680   16.9210 N   0  0  0  0  0  0  0  0  0  0  0  0
  2  1  1  6  0  0  0
  3 23  1  6  0  0  0
  3  2  1  0  0  0  0
  4  3  1  1  0  0  0
  4  9  1  0  0  0  0
  4  7  1  0  0  0  0
  5 12  1  1  0  0  0
  5 10  1  0  0  0  0
  6  5  1  0  0  0  0
  7  5  1  0  0  0  0
  8  9  1  0  0  0  0
  8  6  1  0  0  0  0
  8 16  1  1  0  0  0
  9 18  1  6  0  0  0
 10 11  1  0  0  0  0
 12 13  2  0  0  0  0
 14 12  1  0  0  0  0
 14 15  1  0  0  0  0
 17 16  1  0  0  0  0
 18 19  1  0  0  0  0
 19 22  2  0  0  0  0
 20 18  1  0  0  0  0
 21 19  1  0  0  0  0
 24 23  1  0  0  0  0
 25  2  1  0  0  0  0
 26 25  1  0  0  0  0
 27  1  1  0  0  0  0
 28 27  1  0  0  0  0
 28 30  2  0  0  0  0
 29 27  1  0  0  0  0
 31 28  1  0  0  0  0
 32 31  1  0  0  0  0
 33 34  2  0  0  0  0
 33 32  1  0  0  0  0
 35 33  1  0  0  0  0
 36 34  1  0  0  0  0
 37 35  2  0  0  0  0
 37 36  1  0  0  0  0
 38 36  1  0  0  0  0
 38 40  2  0  0  0  0
 39 38  1  0  0  0  0
 41 39  2  0  0  0  0
 41 43  1  0  0  0  0
 42 40  1  0  0  0  0
 42 44  1  0  0  0  0
 43 45  1  0  0  0  0
 43 42  2  0  0  0  0
 45 46  1  0  0  0  0
 46 44  1  0  0  0  0
 47 48  1  0  0  0  0
 49 48  1  0  0  0  0
 49 50  1  0  0  0  0
 50 51  1  0  0  0  0
 52 51  1  0  0  0  0
M  END
>  <REMARK>
 VINA RESULT:    -6.634      0.000      0.000
 INTER + INTRA:         -16.030
 INTER:                 -10.079
 INTRA:                  -5.951
 UNBOUND:                -4.548
 SMILES CC(=O)N[C@@H]1[C@@H](O)C[C@](O)(C(=O)O)O[C@H]1C(O)[C@H](O)CNC(=O)OCc1cn(-c2ccc3c(c2)OCO3)nn1
 SMILES IDX 20 1 18 2 16 3 15 4 9 5 8 6 14 7 6 8 5 9 10 10 11 12 12 13
 SMILES IDX 13 14 7 16 4 18 2 19 1 21 3 22 17 23 19 25 21 27 22 28 23 30
 SMILES IDX 24 31 25 32 26 33 27 34 39 35 28 36 38 37 29 38 30 39 34 40
 SMILES IDX 31 41 33 42 32 43 35 44 37 45 36 46
 H PARENT 10 11 13 15 7 17 4 20 17 24 19 26 21 29
 Flexibility Score: inf
  4 active torsions:
  status: ('A' for Active; 'I' for Inactive)
    1  A    between atoms: CA   and  CB  
    2  A    between atoms: CB   and  CG  
    3  A    between atoms: CG   and  CD  
    4  A    between atoms: CD   and  CE  

>  <TORSDO>
F 15

>  <BEGIN_>
RES LYS A 131

$$$$
ligand_42_pose_0_2HRL.pdbqt
 OpenBabel07062320523D

  6  5  0  0  0  0  0  0  0  0999 V2000
   33.1930   34.6630    9.2900 C   0  0  0  0  0  0  0  0  0  0  0  0
   32.0600   35.3600   10.0340 C   0  0  0  0  0  0  0  0  0  0  0  0
   30.7060   34.7520    9.7750 C   0  0  0  0  0  0  0  0  0  0  0  0
   30.4960   34.5210    8.2870 C   0  0  0  0  0  0  0  0  0  0  0  0
   29.0880   34.9110    7.8800 C   0  0  0  0  0  0  0  0  0  0  0  0
   28.7670   36.2970    8.3210 N   0  0  0  0  0  0  0  0  0  0  0  0
  1  2  1  0  0  0  0
  3  2  1  0  0  0  0
  4  3  1  0  0  0  0
  5  4  1  0  0  0  0
  5  6  1  0  0  0  0
M  END
>  <EGIN_R>
ES LYS A 135

>  <REMARK>
  4 active torsions:
  status: ('A' for Active; 'I' for Inactive)
    5  A    between atoms: CA   and  CB  
    6  A    between atoms: CB   and  CG  
    7  A    between atoms: CG   and  CD  
    8  A    between atoms: CD   and  CE  

$$$$
