ligand_30_pose_11_2HRL.pdbqt
 OpenBabel07062320523D

 57 57  0  0  1  0  0  0  0  0999 V2000
   27.7740   37.1730   14.2620 C   0  0  0  0  0  0  0  0  0  0  0  0
   26.4180   37.3130   13.8060 N   0  0  0  0  0  0  0  0  0  0  0  0
   24.2410   37.2220   13.5440 C   0  0  0  0  0  0  0  0  0  0  0  0
   25.2710   36.8090   14.3460 C   0  0  0  0  0  0  0  0  0  0  0  0
   24.7760   37.9590   12.5460 N   0  0  0  0  0  0  0  0  0  0  0  0
   26.0680   37.9930   12.7330 N   0  0  0  0  0  0  0  0  0  0  0  0
   22.8150   36.9010   13.7590 C   0  0  0  0  0  0  0  0  0  0  0  0
   22.5080   35.6220   13.2460 O   0  0  0  0  0  0  0  0  0  0  0  0
   23.0420   35.1970   12.0360 C   0  0  0  0  0  0  0  0  0  0  0  0
   22.7770   35.8850   10.8220 N   0  0  0  0  0  0  0  0  0  0  0  0
   22.1680   36.7310   10.8170 H   0  0  0  0  0  0  0  0  0  0  0  0
   23.7890   34.1590   12.0390 O   0  0  0  0  0  0  0  0  0  0  0  0
   23.3470   35.4140    9.5990 C   0  0  0  0  0  0  0  0  0  0  0  0
   24.3260   36.3980    8.9950 C   0  0  2  0  0  0  0  0  0  0  0  0
   23.7000   37.0930    7.8240 C   0  0  2  0  0  0  0  0  0  0  0  0
   24.1490   38.5380    7.7810 C   0  0  2  0  0  0  0  0  0  0  0  0
   26.0150   39.8310    7.3170 C   0  0  2  0  0  0  0  0  0  0  0  0
   25.3080   40.8440    8.1890 C   0  0  0  0  0  0  0  0  0  0  0  0
   25.4730   38.5610    7.4350 O   0  0  0  0  0  0  0  0  0  0  0  0
   24.9310   40.1710    9.4800 C   0  0  1  0  0  0  0  0  0  0  0  0
   23.8440   39.1460    9.1260 C   0  0  1  0  0  0  0  0  0  0  0  0
   27.3280   39.7580    7.7750 O   0  0  0  0  0  0  0  0  0  0  0  0
   27.4110   40.1270    8.6830 H   0  0  0  0  0  0  0  0  0  0  0  0
   26.0140   40.3410    5.9460 C   0  0  0  0  0  0  0  0  0  0  0  0
   25.0550   41.0490    5.5530 O   0  0  0  0  0  0  0  0  0  0  0  0
   27.0210   40.0950    5.0220 O   0  0  0  0  0  0  0  0  0  0  0  0
   26.9920   39.2120    4.4880 H   0  0  0  0  0  0  0  0  0  0  0  0
   26.0250   39.5790   10.0730 O   0  0  0  0  0  0  0  0  0  0  0  0
   25.8520   39.5180   11.0460 H   0  0  0  0  0  0  0  0  0  0  0  0
   22.6030   39.8900    9.0960 N   0  0  0  0  0  0  0  0  0  0  0  0
   21.5400   39.4640    9.9270 C   0  0  0  0  0  0  0  0  0  0  0  0
   22.4710   40.7320    8.4810 H   0  0  0  0  0  0  0  0  0  0  0  0
   20.2420   40.2060    9.9250 C   0  0  0  0  0  0  0  0  0  0  0  0
   21.6810   38.4690   10.6630 O   0  0  0  0  0  0  0  0  0  0  0  0
   22.3120   36.9770    7.9470 O   0  0  0  0  0  0  0  0  0  0  0  0
   21.8670   37.8230    8.1310 H   0  0  0  0  0  0  0  0  0  0  0  0
   25.4830   35.7580    8.5510 O   0  0  0  0  0  0  0  0  0  0  0  0
   25.5650   35.8010    7.5790 H   0  0  0  0  0  0  0  0  0  0  0  0
   28.6550   36.8440   13.0870 C   0  0  0  0  0  0  0  0  0  0  0  0
   29.4340   35.5740   13.2780 C   0  0  0  0  0  0  0  0  0  0  0  0
   29.5330   34.7610   12.0110 C   0  0  0  0  0  0  0  0  0  0  0  0
   28.2350   34.8920   11.2180 C   0  0  0  0  0  0  0  0  0  0  0  0
   28.4370   34.2870    9.8540 C   0  0  0  0  0  0  0  0  0  0  0  0
   29.8940   34.1440    9.5220 C   0  0  0  0  0  0  0  0  0  0  0  0
   30.1670   34.6160    8.1320 C   0  0  0  0  0  0  0  0  0  0  0  0
   29.1990   35.7250    7.7300 C   0  0  0  0  0  0  0  0  0  0  0  0
   28.7440   35.5900    6.3020 C   0  0  0  0  0  0  0  0  0  0  0  0
   28.2500   36.9400    5.8840 C   0  0  0  0  0  0  0  0  0  0  0  0
   28.9210   37.9850    6.0050 O   0  0  0  0  0  0  0  0  0  0  0  0
   26.9740   37.0520    5.3280 O   0  0  0  0  0  0  0  0  0  0  0  0
   26.4880   36.2160    5.0540 H   0  0  0  0  0  0  0  0  0  0  0  0
   29.8670   25.5550   16.9770 C   0  0  0  0  0  0  0  0  0  0  0  0
   28.3450   25.7220   17.0260 C   0  0  0  0  0  0  0  0  0  0  0  0
   27.6020   24.3980   16.9350 C   0  0  0  0  0  0  0  0  0  0  0  0
   26.1470   24.5400   17.2840 C   0  0  0  0  0  0  0  0  0  0  0  0
   25.9860   24.5470   18.8010 C   0  0  0  0  0  0  0  0  0  0  0  0
   25.5250   23.2230   19.2800 N   0  0  0  0  0  0  0  0  0  0  0  0
  2  1  1  0  0  0  0
  2  4  1  0  0  0  0
  3  7  1  0  0  0  0
  3  4  2  0  0  0  0
  5  6  2  0  0  0  0
  5  3  1  0  0  0  0
  6  2  1  0  0  0  0
  8  7  1  0  0  0  0
  9 12  2  0  0  0  0
  9  8  1  0  0  0  0
 10  9  1  0  0  0  0
 11 10  1  0  0  0  0
 13 10  1  0  0  0  0
 14 13  1  6  0  0  0
 15 35  1  1  0  0  0
 15 14  1  0  0  0  0
 16 15  1  1  0  0  0
 16 21  1  0  0  0  0
 17 24  1  6  0  0  0
 17 19  1  0  0  0  0
 17 22  1  0  0  0  0
 17 18  1  0  0  0  0
 18 20  1  0  0  0  0
 19 16  1  0  0  0  0
 20 28  1  6  0  0  0
 21 30  1  6  0  0  0
 21 20  1  0  0  0  0
 22 23  1  0  0  0  0
 25 24  2  0  0  0  0
 26 24  1  0  0  0  0
 27 26  1  0  0  0  0
 28 29  1  0  0  0  0
 30 31  1  0  0  0  0
 31 34  2  0  0  0  0
 32 30  1  0  0  0  0
 33 31  1  0  0  0  0
 35 36  1  0  0  0  0
 37 14  1  0  0  0  0
 38 37  1  0  0  0  0
 39 40  1  0  0  0  0
 39  1  1  0  0  0  0
 41 40  1  0  0  0  0
 42 41  1  0  0  0  0
 43 42  1  0  0  0  0
 44 43  1  0  0  0  0
 45 44  1  0  0  0  0
 46 45  1  0  0  0  0
 47 46  1  0  0  0  0
 48 49  2  0  0  0  0
 48 47  1  0  0  0  0
 50 48  1  0  0  0  0
 51 50  1  0  0  0  0
 52 53  1  0  0  0  0
 54 53  1  0  0  0  0
 54 55  1  0  0  0  0
 55 56  1  0  0  0  0
 56 57  1  0  0  0  0
M  END
>  <REMARK>
 VINA RESULT:    -3.724      6.015     10.920
 INTER + INTRA:         -17.029
 INTER:                  -9.567
 INTRA:                  -7.461
 UNBOUND:                -8.298
 SMILES CC(=O)N[C@@H]1[C@@H](O)C[C@](O)(C(=O)O)O[C@H]1C(O)[C@H](O)CNC(=O)OCc1cn(CCCCCCCCCCC(=O)O)nn1
 SMILES IDX 29 1 28 2 26 3 27 4 43 5 42 6 25 7 24 8 22 9 21 10 23 12
 SMILES IDX 20 13 18 14 16 15 15 16 9 17 8 18 14 19 6 20 5 21 10 22
 SMILES IDX 11 24 12 25 13 26 7 28 4 30 2 31 1 33 3 34 17 35 19 37 30 39
 SMILES IDX 31 40 32 41 33 42 34 43 35 44 36 45 37 46 38 47 39 48 40 49
 SMILES IDX 41 50
 H PARENT 21 11 10 23 13 27 7 29 4 32 17 36 19 38 41 51
 Flexibility Score: inf
  4 active torsions:
  status: ('A' for Active; 'I' for Inactive)
    1  A    between atoms: CA   and  CB  
    2  A    between atoms: CB   and  CG  
    3  A    between atoms: CG   and  CD  
    4  A    between atoms: CD   and  CE  

>  <TORSDO>
F 26

>  <BEGIN_>
RES LYS A 131

$$$$
ligand_30_pose_11_2HRL.pdbqt
 OpenBabel07062320523D

  6  5  0  0  0  0  0  0  0  0999 V2000
   33.1930   34.6630    9.2900 C   0  0  0  0  0  0  0  0  0  0  0  0
   32.0600   35.3600   10.0340 C   0  0  0  0  0  0  0  0  0  0  0  0
   32.5280   36.4650   10.9460 C   0  0  0  0  0  0  0  0  0  0  0  0
   31.8510   37.7790   10.5890 C   0  0  0  0  0  0  0  0  0  0  0  0
   31.5010   38.5560   11.8430 C   0  0  0  0  0  0  0  0  0  0  0  0
   30.5610   39.6710   11.5390 N   0  0  0  0  0  0  0  0  0  0  0  0
  1  2  1  0  0  0  0
  2  3  1  0  0  0  0
  4  3  1  0  0  0  0
  4  5  1  0  0  0  0
  6  5  1  0  0  0  0
M  END
>  <EGIN_R>
ES LYS A 135

>  <REMARK>
  4 active torsions:
  status: ('A' for Active; 'I' for Inactive)
    5  A    between atoms: CA   and  CB  
    6  A    between atoms: CB   and  CG  
    7  A    between atoms: CG   and  CD  
    8  A    between atoms: CD   and  CE  

$$$$
