ligand_32_pose_19_2HRL.pdbqt
 OpenBabel07062320523D

 49 49  0  0  1  0  0  0  0  0999 V2000
   28.5380   39.1930   12.6920 N   0  0  0  0  0  0  0  0  0  0  0  0
   29.8850   38.9110   12.3510 C   0  0  0  0  0  0  0  0  0  0  0  0
   30.3040   37.7180   12.2650 O   0  0  0  0  0  0  0  0  0  0  0  0
   28.2320   40.1840   12.7520 H   0  0  0  0  0  0  0  0  0  0  0  0
   27.5850   38.1430   12.9590 C   0  0  0  0  0  0  0  0  0  0  0  0
   26.5420   37.9830   11.8880 C   0  0  2  0  0  0  0  0  0  0  0  0
   26.8980   36.8330   10.9460 C   0  0  1  0  0  0  0  0  0  0  0  0
   25.7730   36.6160    9.9490 C   0  0  2  0  0  0  0  0  0  0  0  0
   24.2020   37.9880    8.8990 C   0  0  2  0  0  0  0  0  0  0  0  0
   23.3570   36.7830    8.5960 C   0  0  0  0  0  0  0  0  0  0  0  0
   25.5210   37.6960    9.1680 O   0  0  0  0  0  0  0  0  0  0  0  0
   23.6590   35.5780    9.4130 C   0  0  1  0  0  0  0  0  0  0  0  0
   24.5410   36.0310   10.5870 C   0  0  1  0  0  0  0  0  0  0  0  0
   23.5910   38.7070    9.9200 O   0  0  0  0  0  0  0  0  0  0  0  0
   24.3200   38.9450   10.5570 H   0  0  0  0  0  0  0  0  0  0  0  0
   24.1880   38.8320    7.6820 C   0  0  0  0  0  0  0  0  0  0  0  0
   23.2860   39.6560    7.4210 O   0  0  0  0  0  0  0  0  0  0  0  0
   25.2210   38.7150    6.7690 O   0  0  0  0  0  0  0  0  0  0  0  0
   25.7200   39.5080    6.3850 H   0  0  0  0  0  0  0  0  0  0  0  0
   22.5190   34.9310    9.8820 O   0  0  0  0  0  0  0  0  0  0  0  0
   22.7400   34.1230   10.4220 H   0  0  0  0  0  0  0  0  0  0  0  0
   24.8610   34.9030   11.4400 N   0  0  0  0  0  0  0  0  0  0  0  0
   24.1130   34.6620   12.6270 C   0  0  0  0  0  0  0  0  0  0  0  0
   25.6400   34.2380   11.2210 H   0  0  0  0  0  0  0  0  0  0  0  0
   24.4080   33.5070   13.5410 C   0  0  0  0  0  0  0  0  0  0  0  0
   23.1560   35.4380   12.9460 O   0  0  0  0  0  0  0  0  0  0  0  0
   28.0550   37.1840   10.2560 O   0  0  0  0  0  0  0  0  0  0  0  0
   28.5020   36.3990    9.8380 H   0  0  0  0  0  0  0  0  0  0  0  0
   26.4870   39.1880   11.1830 O   0  0  0  0  0  0  0  0  0  0  0  0
   26.2800   39.9170   11.8190 H   0  0  0  0  0  0  0  0  0  0  0  0
   30.7490   39.9540   12.1100 O   0  0  0  0  0  0  0  0  0  0  0  0
   31.2660   40.2590   10.8260 C   0  0  0  0  0  0  0  0  0  0  0  0
   30.2890   39.8420    9.7630 C   0  0  0  0  0  0  0  0  0  0  0  0
   30.5450   39.0620    8.6660 C   0  0  0  0  0  0  0  0  0  0  0  0
   28.9870   40.1880    9.7270 N   0  0  0  0  0  0  0  0  0  0  0  0
   29.3820   38.9490    7.9790 N   0  0  0  0  0  0  0  0  0  0  0  0
   28.4640   39.6370    8.6430 N   0  0  0  0  0  0  0  0  0  0  0  0
   29.2360   38.1950    6.7520 C   0  0  0  0  0  0  0  0  0  0  0  0
   29.1030   39.1950    5.6060 C   0  0  0  0  0  0  0  0  0  0  0  0
   27.7970   38.9070    4.9390 C   0  0  0  0  0  0  0  0  0  0  0  0
   27.0870   39.7860    4.4330 O   0  0  0  0  0  0  0  0  0  0  0  0
   27.3970   37.5710    4.9070 O   0  0  0  0  0  0  0  0  0  0  0  0
   26.4470   37.3370    4.6240 H   0  0  0  0  0  0  0  0  0  0  0  0
   29.8670   25.5550   16.9770 C   0  0  0  0  0  0  0  0  0  0  0  0
   28.3450   25.7220   17.0260 C   0  0  0  0  0  0  0  0  0  0  0  0
   27.6010   24.4030   16.8860 C   0  0  0  0  0  0  0  0  0  0  0  0
   26.5090   24.2560   17.9090 C   0  0  0  0  0  0  0  0  0  0  0  0
   25.1510   24.3250   17.2180 C   0  0  0  0  0  0  0  0  0  0  0  0
   24.2530   23.2650   17.7330 N   0  0  0  0  0  0  0  0  0  0  0  0
  1  4  1  0  0  0  0
  1  5  1  0  0  0  0
  2  1  1  0  0  0  0
  3  2  2  0  0  0  0
  6  5  1  1  0  0  0
  7 27  1  6  0  0  0
  7  6  1  0  0  0  0
  8 13  1  0  0  0  0
  8  7  1  1  0  0  0
  9 16  1  6  0  0  0
  9 11  1  0  0  0  0
  9 14  1  0  0  0  0
 10  9  1  0  0  0  0
 10 12  1  0  0  0  0
 11  8  1  0  0  0  0
 12 20  1  1  0  0  0
 12 13  1  0  0  0  0
 13 22  1  1  0  0  0
 14 15  1  0  0  0  0
 17 16  2  0  0  0  0
 18 16  1  0  0  0  0
 19 18  1  0  0  0  0
 20 21  1  0  0  0  0
 22 23  1  0  0  0  0
 23 26  2  0  0  0  0
 23 25  1  0  0  0  0
 24 22  1  0  0  0  0
 28 27  1  0  0  0  0
 29 30  1  0  0  0  0
 29  6  1  0  0  0  0
 31  2  1  0  0  0  0
 32 31  1  0  0  0  0
 33 32  1  0  0  0  0
 34 33  2  0  0  0  0
 35 33  1  0  0  0  0
 36 37  1  0  0  0  0
 36 34  1  0  0  0  0
 37 35  2  0  0  0  0
 38 36  1  0  0  0  0
 39 38  1  0  0  0  0
 40 39  1  0  0  0  0
 41 40  2  0  0  0  0
 42 40  1  0  0  0  0
 43 42  1  0  0  0  0
 44 45  1  0  0  0  0
 46 45  1  0  0  0  0
 46 47  1  0  0  0  0
 48 49  1  0  0  0  0
 48 47  1  0  0  0  0
M  END
>  <REMARK>
 VINA RESULT:    -4.052      8.248     12.538
 INTER + INTRA:         -13.250
 INTER:                  -6.643
 INTRA:                  -6.606
 UNBOUND:                -5.644
 SMILES CC(=O)N[C@@H]1[C@@H](O)C[C@](O)(C(=O)O)O[C@H]1C(O)[C@H](O)CNC(=O)OCc1cn(CCC(=O)O)nn1
 SMILES IDX 21 1 22 2 23 3 20 5 18 6 16 7 15 8 9 9 8 10 14 11 6 12 5 13
 SMILES IDX 10 14 11 16 12 17 13 18 7 20 4 22 2 23 1 25 3 26 17 27 19 29
 SMILES IDX 24 31 25 32 26 33 27 34 35 35 28 36 34 37 29 38 30 39 31 40
 SMILES IDX 32 41 33 42
 H PARENT 21 4 10 15 13 19 7 21 4 24 17 28 19 30 33 43
 Flexibility Score: inf
  4 active torsions:
  status: ('A' for Active; 'I' for Inactive)
    1  A    between atoms: CA   and  CB  
    2  A    between atoms: CB   and  CG  
    3  A    between atoms: CG   and  CD  
    4  A    between atoms: CD   and  CE  

>  <TORSDO>
F 18

>  <BEGIN_>
RES LYS A 131

$$$$
ligand_32_pose_19_2HRL.pdbqt
 OpenBabel07062320523D

  6  5  0  0  0  0  0  0  0  0999 V2000
   33.1930   34.6630    9.2900 C   0  0  0  0  0  0  0  0  0  0  0  0
   32.0600   35.3600   10.0340 C   0  0  0  0  0  0  0  0  0  0  0  0
   30.7910   35.4730    9.2290 C   0  0  0  0  0  0  0  0  0  0  0  0
   30.2630   34.0950    8.8620 C   0  0  0  0  0  0  0  0  0  0  0  0
   28.7500   34.0630    8.9530 C   0  0  0  0  0  0  0  0  0  0  0  0
   28.1290   34.8010    7.8190 N   0  0  0  0  0  0  0  0  0  0  0  0
  1  2  1  0  0  0  0
  3  2  1  0  0  0  0
  4  5  1  0  0  0  0
  4  3  1  0  0  0  0
  6  5  1  0  0  0  0
M  END
>  <EGIN_R>
ES LYS A 135

>  <REMARK>
  4 active torsions:
  status: ('A' for Active; 'I' for Inactive)
    5  A    between atoms: CA   and  CB  
    6  A    between atoms: CB   and  CG  
    7  A    between atoms: CG   and  CD  
    8  A    between atoms: CD   and  CE  

$$$$
