ligand_88_pose_12_2HRL.pdbqt
 OpenBabel07062320523D

 54 55  0  0  1  0  0  0  0  0999 V2000
   29.9630   41.1540    8.1580 N   0  0  0  0  0  0  0  0  0  0  0  0
   28.6110   41.1400    8.6040 C   0  0  0  0  0  0  0  0  0  0  0  0
   28.3570   40.7170    9.7550 O   0  0  0  0  0  0  0  0  0  0  0  0
   30.1470   41.5080    7.2030 H   0  0  0  0  0  0  0  0  0  0  0  0
   31.0460   40.6960    8.9860 C   0  0  0  0  0  0  0  0  0  0  0  0
   32.2840   40.4540    8.1720 C   0  0  2  0  0  0  0  0  0  0  0  0
   31.9760   40.2730    6.7010 C   0  0  1  0  0  0  0  0  0  0  0  0
   33.2430   40.5630    5.8760 C   0  0  2  0  0  0  0  0  0  0  0  0
   35.2010   39.2580    5.9160 C   0  0  2  0  0  0  0  0  0  0  0  0
   35.9440   40.5740    5.6380 C   0  0  0  0  0  0  0  0  0  0  0  0
   33.8720   39.3970    5.6940 O   0  0  0  0  0  0  0  0  0  0  0  0
   35.4240   41.5060    6.7210 C   0  0  1  0  0  0  0  0  0  0  0  0
   33.9650   41.7130    6.4400 C   0  0  1  0  0  0  0  0  0  0  0  0
   35.5440   38.9030    7.2050 O   0  0  0  0  0  0  0  0  0  0  0  0
   35.7740   39.6700    7.7840 H   0  0  0  0  0  0  0  0  0  0  0  0
   35.7110   38.2150    4.9920 C   0  0  0  0  0  0  0  0  0  0  0  0
   35.5160   38.3530    3.7580 O   0  0  0  0  0  0  0  0  0  0  0  0
   36.3960   37.0910    5.4430 O   0  0  0  0  0  0  0  0  0  0  0  0
   36.3730   36.2780    4.8100 H   0  0  0  0  0  0  0  0  0  0  0  0
   35.6500   40.9690    7.9870 O   0  0  0  0  0  0  0  0  0  0  0  0
   35.2190   40.0900    8.0160 H   0  0  0  0  0  0  0  0  0  0  0  0
   33.8590   42.9180    5.6180 N   0  0  0  0  0  0  0  0  0  0  0  0
   32.9000   43.9350    5.8500 C   0  0  0  0  0  0  0  0  0  0  0  0
   34.5120   43.0770    4.8010 H   0  0  0  0  0  0  0  0  0  0  0  0
   32.8280   45.1510    4.9840 C   0  0  0  0  0  0  0  0  0  0  0  0
   32.0890   43.8160    6.8040 O   0  0  0  0  0  0  0  0  0  0  0  0
   31.4150   39.0600    6.3900 O   0  0  0  0  0  0  0  0  0  0  0  0
   30.4890   39.1390    6.0790 H   0  0  0  0  0  0  0  0  0  0  0  0
   33.0250   39.4300    8.7210 O   0  0  0  0  0  0  0  0  0  0  0  0
   33.9900   39.5310    8.6240 H   0  0  0  0  0  0  0  0  0  0  0  0
   27.5980   41.5820    7.7900 O   0  0  0  0  0  0  0  0  0  0  0  0
   27.6530   41.4450    6.3820 C   0  0  0  0  0  0  0  0  0  0  0  0
   27.8610   40.0110    6.0510 C   0  0  0  0  0  0  0  0  0  0  0  0
   27.0310   38.9490    6.3870 C   0  0  0  0  0  0  0  0  0  0  0  0
   28.8680   39.4330    5.3710 N   0  0  0  0  0  0  0  0  0  0  0  0
   27.5540   37.8090    5.9120 N   0  0  0  0  0  0  0  0  0  0  0  0
   28.6960   38.1330    5.2840 N   0  0  0  0  0  0  0  0  0  0  0  0
   27.0260   36.4780    6.0290 C   0  0  0  0  0  0  0  0  0  0  0  0
   27.4570   35.7880    7.2720 C   0  0  0  0  0  0  0  0  0  0  0  0
   26.5470   35.6790    8.3050 C   0  0  0  0  0  0  0  0  0  0  0  0
   28.7130   35.2560    7.4430 C   0  0  0  0  0  0  0  0  0  0  0  0
   26.8410   35.0610    9.5010 C   0  0  0  0  0  0  0  0  0  0  0  0
   29.0370   34.6250    8.6480 C   0  0  0  0  0  0  0  0  0  0  0  0
   25.5680   34.9240   10.9060 Br  0  0  0  0  0  0  0  0  0  0  0  0
   28.1130   34.5290    9.6610 C   0  0  0  0  0  0  0  0  0  0  0  0
   30.8120   33.9100    8.8030 Br  0  0  0  0  0  0  0  0  0  0  0  0
   29.6460   35.3490    6.4280 O   0  0  0  0  0  0  0  0  0  0  0  0
   30.3150   36.1070    6.4400 H   0  0  0  0  0  0  0  0  0  0  0  0
   29.8670   25.5550   16.9770 C   0  0  0  0  0  0  0  0  0  0  0  0
   28.3450   25.7220   17.0260 C   0  0  0  0  0  0  0  0  0  0  0  0
   27.6020   24.3990   16.9250 C   0  0  0  0  0  0  0  0  0  0  0  0
   26.5960   24.2280   18.0290 C   0  0  0  0  0  0  0  0  0  0  0  0
   26.0570   25.5940   18.4420 C   0  0  0  0  0  0  0  0  0  0  0  0
   25.7920   25.6280   19.8990 N   0  0  0  0  0  0  0  0  0  0  0  0
  1  2  1  0  0  0  0
  1  5  1  0  0  0  0
  2  3  2  0  0  0  0
  4  1  1  0  0  0  0
  6 29  1  0  0  0  0
  6  5  1  1  0  0  0
  7 27  1  1  0  0  0
  7  6  1  0  0  0  0
  8 13  1  0  0  0  0
  8  7  1  1  0  0  0
  9 16  1  6  0  0  0
  9 14  1  0  0  0  0
 10  9  1  0  0  0  0
 10 12  1  0  0  0  0
 11  8  1  0  0  0  0
 11  9  1  0  0  0  0
 12 20  1  1  0  0  0
 13 22  1  6  0  0  0
 13 12  1  0  0  0  0
 14 15  1  0  0  0  0
 16 18  1  0  0  0  0
 17 16  2  0  0  0  0
 19 18  1  0  0  0  0
 20 21  1  0  0  0  0
 22 23  1  0  0  0  0
 23 26  2  0  0  0  0
 24 22  1  0  0  0  0
 25 23  1  0  0  0  0
 28 27  1  0  0  0  0
 30 29  1  0  0  0  0
 31  2  1  0  0  0  0
 32 31  1  0  0  0  0
 33 32  1  0  0  0  0
 33 34  2  0  0  0  0
 35 33  1  0  0  0  0
 36 38  1  0  0  0  0
 36 34  1  0  0  0  0
 37 35  2  0  0  0  0
 37 36  1  0  0  0  0
 38 39  1  0  0  0  0
 39 41  2  0  0  0  0
 39 40  1  0  0  0  0
 40 42  2  0  0  0  0
 41 43  1  0  0  0  0
 42 45  1  0  0  0  0
 42 44  1  0  0  0  0
 43 46  1  0  0  0  0
 43 45  2  0  0  0  0
 47 48  1  0  0  0  0
 47 41  1  0  0  0  0
 49 50  1  0  0  0  0
 51 50  1  0  0  0  0
 51 52  1  0  0  0  0
 52 53  1  0  0  0  0
 53 54  1  0  0  0  0
M  END
>  <REMARK>
 VINA RESULT:    -5.056      8.611     14.923
 INTER + INTRA:         -14.989
 INTER:                 -10.018
 INTRA:                  -4.971
 UNBOUND:                -5.794
 SMILES CC(=O)N[C@@H]1[C@@H](O)C[C@](O)(C(=O)O)O[C@H]1C(O)[C@H](O)CNC(=O)OCc1cn(Cc2cc(Br)cc(Br)c2O)nn1
 SMILES IDX 21 1 22 2 23 3 20 5 18 6 16 7 15 8 9 9 8 10 14 11 6 12 5 13
 SMILES IDX 10 14 11 16 12 17 13 18 7 20 4 22 2 23 1 25 3 26 17 27 19 29
 SMILES IDX 24 31 25 32 26 33 27 34 40 35 28 36 39 37 29 38 30 39 31 40
 SMILES IDX 37 41 32 42 35 43 33 44 34 45 36 46 38 47
 H PARENT 21 4 10 15 13 19 7 21 4 24 17 28 19 30 38 48
 Flexibility Score: inf
  4 active torsions:
  status: ('A' for Active; 'I' for Inactive)
    1  A    between atoms: CA   and  CB  
    2  A    between atoms: CB   and  CG  
    3  A    between atoms: CG   and  CD  
    4  A    between atoms: CD   and  CE  

>  <TORSDO>
F 17

>  <BEGIN_>
RES LYS A 131

$$$$
ligand_88_pose_12_2HRL.pdbqt
 OpenBabel07062320523D

  6  5  0  0  0  0  0  0  0  0999 V2000
   33.1930   34.6630    9.2900 C   0  0  0  0  0  0  0  0  0  0  0  0
   32.0600   35.3600   10.0340 C   0  0  0  0  0  0  0  0  0  0  0  0
   32.5190   36.1330   11.2430 C   0  0  0  0  0  0  0  0  0  0  0  0
   31.6980   37.4020   11.4130 C   0  0  0  0  0  0  0  0  0  0  0  0
   30.2180   37.0740   11.4770 C   0  0  0  0  0  0  0  0  0  0  0  0
   29.4730   37.7440   10.3750 N   0  0  0  0  0  0  0  0  0  0  0  0
  1  2  1  0  0  0  0
  2  3  1  0  0  0  0
  3  4  1  0  0  0  0
  4  5  1  0  0  0  0
  6  5  1  0  0  0  0
M  END
>  <EGIN_R>
ES LYS A 135

>  <REMARK>
  4 active torsions:
  status: ('A' for Active; 'I' for Inactive)
    5  A    between atoms: CA   and  CB  
    6  A    between atoms: CB   and  CG  
    7  A    between atoms: CG   and  CD  
    8  A    between atoms: CD   and  CE  

$$$$
