ligand_21_pose_4_2HRL.pdbqt
 OpenBabel07062320523D

 54 55  0  0  1  0  0  0  0  0999 V2000
   31.2300   35.8140   14.8290 N   0  0  0  0  0  0  0  0  0  0  0  0
   31.4620   36.8210   13.8450 C   0  0  0  0  0  0  0  0  0  0  0  0
   32.1990   36.5410   12.8760 O   0  0  0  0  0  0  0  0  0  0  0  0
   30.6170   36.0580   15.6300 H   0  0  0  0  0  0  0  0  0  0  0  0
   31.8310   34.5120   14.7100 C   0  0  0  0  0  0  0  0  0  0  0  0
   30.7290   33.5090   14.3510 C   0  0  2  0  0  0  0  0  0  0  0  0
   29.4410   33.9510   14.9880 C   0  0  2  0  0  0  0  0  0  0  0  0
   28.9240   32.8470   15.8720 C   0  0  2  0  0  0  0  0  0  0  0  0
   27.1980   31.2960   16.0150 C   0  0  2  0  0  0  0  0  0  0  0  0
   26.5770   32.0150   17.1900 C   0  0  0  0  0  0  0  0  0  0  0  0
   27.8590   32.2560   15.2680 O   0  0  0  0  0  0  0  0  0  0  0  0
   27.6730   32.5770   18.0310 C   0  0  1  0  0  0  0  0  0  0  0  0
   28.6990   33.3520   17.2520 C   0  0  1  0  0  0  0  0  0  0  0  0
   26.1120   30.8660   15.2220 O   0  0  0  0  0  0  0  0  0  0  0  0
   26.2230   29.9340   14.9290 H   0  0  0  0  0  0  0  0  0  0  0  0
   28.0380   30.1450   16.4000 C   0  0  0  0  0  0  0  0  0  0  0  0
   27.7430   29.3330   17.3100 O   0  0  0  0  0  0  0  0  0  0  0  0
   29.2270   29.9270   15.7300 O   0  0  0  0  0  0  0  0  0  0  0  0
   29.9310   30.6520   15.5710 H   0  0  0  0  0  0  0  0  0  0  0  0
   27.0650   33.4080   18.9980 O   0  0  0  0  0  0  0  0  0  0  0  0
   26.0910   33.1730   19.0440 H   0  0  0  0  0  0  0  0  0  0  0  0
   29.9530   33.2920   17.9780 N   0  0  0  0  0  0  0  0  0  0  0  0
   30.6900   34.4680   18.3170 C   0  0  0  0  0  0  0  0  0  0  0  0
   30.3520   32.3760   18.2740 H   0  0  0  0  0  0  0  0  0  0  0  0
   31.9650   34.3480   19.0590 C   0  0  0  0  0  0  0  0  0  0  0  0
   30.2520   35.5890   17.9840 O   0  0  0  0  0  0  0  0  0  0  0  0
   28.4780   34.2920   14.0300 O   0  0  0  0  0  0  0  0  0  0  0  0
   28.8460   34.1060   13.1360 H   0  0  0  0  0  0  0  0  0  0  0  0
   31.1620   32.2670   14.7570 O   0  0  0  0  0  0  0  0  0  0  0  0
   31.5210   31.7120   14.0330 H   0  0  0  0  0  0  0  0  0  0  0  0
   30.8750   38.0680   13.9800 O   0  0  0  0  0  0  0  0  0  0  0  0
   29.9800   38.5790   13.0190 C   0  0  0  0  0  0  0  0  0  0  0  0
   28.6970   37.8710   13.1400 C   0  0  0  0  0  0  0  0  0  0  0  0
   27.7610   37.6650   12.1220 C   0  0  0  0  0  0  0  0  0  0  0  0
   28.1530   37.2800   14.2340 N   0  0  0  0  0  0  0  0  0  0  0  0
   26.7460   36.9870   12.6430 N   0  0  0  0  0  0  0  0  0  0  0  0
   26.9850   36.7550   13.9220 N   0  0  0  0  0  0  0  0  0  0  0  0
   25.5580   36.5580   11.9340 C   0  0  0  0  0  0  0  0  0  0  0  0
   26.0370   35.6910   10.8050 C   0  0  0  0  0  0  0  0  0  0  0  0
   25.6780   36.0260    9.5260 C   0  0  0  0  0  0  0  0  0  0  0  0
   26.8140   34.5920   11.0740 C   0  0  0  0  0  0  0  0  0  0  0  0
   26.0900   35.2650    8.4630 C   0  0  0  0  0  0  0  0  0  0  0  0
   27.2410   33.8060    9.9980 C   0  0  0  0  0  0  0  0  0  0  0  0
   26.8710   34.1590    8.7290 C   0  0  0  0  0  0  0  0  0  0  0  0
   24.8920   37.1450    9.2970 O   0  0  0  0  0  0  0  0  0  0  0  0
   23.6790   36.9540    8.6360 C   0  0  0  0  0  0  0  0  0  0  0  0
   23.4530   37.5720    7.5690 O   0  0  0  0  0  0  0  0  0  0  0  0
   22.6560   36.0290    9.1780 C   0  0  0  0  0  0  0  0  0  0  0  0
   29.8670   25.5550   16.9770 C   0  0  0  0  0  0  0  0  0  0  0  0
   28.3450   25.7220   17.0260 C   0  0  0  0  0  0  0  0  0  0  0  0
   27.6020   24.4000   16.9120 C   0  0  0  0  0  0  0  0  0  0  0  0
   26.6010   24.2150   18.0190 C   0  0  0  0  0  0  0  0  0  0  0  0
   25.9820   25.5620   18.3760 C   0  0  0  0  0  0  0  0  0  0  0  0
   25.8750   25.7100   19.8470 N   0  0  0  0  0  0  0  0  0  0  0  0
  1  4  1  0  0  0  0
  2 31  1  0  0  0  0
  2  1  1  0  0  0  0
  3  2  2  0  0  0  0
  5  1  1  0  0  0  0
  6  5  1  1  0  0  0
  6 29  1  0  0  0  0
  6  7  1  0  0  0  0
  7 27  1  6  0  0  0
  8  7  1  6  0  0  0
  8 13  1  0  0  0  0
  9 14  1  6  0  0  0
  9 16  1  0  0  0  0
  9 10  1  0  0  0  0
 10 12  1  0  0  0  0
 11  8  1  0  0  0  0
 11  9  1  0  0  0  0
 12 20  1  1  0  0  0
 13 22  1  1  0  0  0
 13 12  1  0  0  0  0
 15 14  1  0  0  0  0
 16 17  2  0  0  0  0
 18 16  1  0  0  0  0
 19 18  1  0  0  0  0
 20 21  1  0  0  0  0
 22 24  1  0  0  0  0
 22 23  1  0  0  0  0
 23 25  1  0  0  0  0
 26 23  2  0  0  0  0
 28 27  1  0  0  0  0
 30 29  1  0  0  0  0
 32 33  1  0  0  0  0
 32 31  1  0  0  0  0
 33 35  1  0  0  0  0
 34 36  1  0  0  0  0
 34 33  2  0  0  0  0
 36 37  1  0  0  0  0
 37 35  2  0  0  0  0
 38 36  1  0  0  0  0
 39 41  1  0  0  0  0
 39 38  1  0  0  0  0
 40 39  2  0  0  0  0
 42 44  2  0  0  0  0
 42 40  1  0  0  0  0
 43 41  2  0  0  0  0
 44 43  1  0  0  0  0
 45 40  1  0  0  0  0
 46 48  1  0  0  0  0
 46 45  1  0  0  0  0
 47 46  2  0  0  0  0
 49 50  1  0  0  0  0
 51 50  1  0  0  0  0
 51 52  1  0  0  0  0
 52 53  1  0  0  0  0
 53 54  1  0  0  0  0
M  END
>  <REMARK>
 VINA RESULT:    -4.794      4.621      8.642
 INTER + INTRA:         -15.412
 INTER:                  -9.300
 INTRA:                  -6.113
 UNBOUND:                -6.275
 SMILES CC(=O)N[C@@H]1[C@@H](O)C[C@](O)(C(=O)O)O[C@H]1C(O)[C@H](O)CNC(=O)OCc1cn(Cc2ccccc2OC(C)=O)nn1
 SMILES IDX 21 1 22 2 23 3 20 5 18 6 16 7 15 8 9 9 8 10 14 11 6 12 5 13
 SMILES IDX 10 14 11 16 12 17 13 18 7 20 4 22 2 23 1 25 3 26 17 27 19 29
 SMILES IDX 24 31 25 32 26 33 27 34 41 35 28 36 40 37 29 38 30 39 35 40
 SMILES IDX 31 41 34 42 32 43 33 44 36 45 37 46 39 47 38 48
 H PARENT 21 4 10 15 13 19 7 21 4 24 17 28 19 30
 Flexibility Score: inf
  4 active torsions:
  status: ('A' for Active; 'I' for Inactive)
    1  A    between atoms: CA   and  CB  
    2  A    between atoms: CB   and  CG  
    3  A    between atoms: CG   and  CD  
    4  A    between atoms: CD   and  CE  

>  <TORSDO>
F 18

>  <BEGIN_>
RES LYS A 131

$$$$
ligand_21_pose_4_2HRL.pdbqt
 OpenBabel07062320523D

  6  5  0  0  0  0  0  0  0  0999 V2000
   33.1930   34.6630    9.2900 C   0  0  0  0  0  0  0  0  0  0  0  0
   32.0600   35.3600   10.0340 C   0  0  0  0  0  0  0  0  0  0  0  0
   30.7050   34.7560    9.7700 C   0  0  0  0  0  0  0  0  0  0  0  0
   30.4360   34.6730    8.2760 C   0  0  0  0  0  0  0  0  0  0  0  0
   29.6880   35.9040    7.8000 C   0  0  0  0  0  0  0  0  0  0  0  0
   29.0770   35.6770    6.4610 N   0  0  0  0  0  0  0  0  0  0  0  0
  1  2  1  0  0  0  0
  3  2  1  0  0  0  0
  4  3  1  0  0  0  0
  5  4  1  0  0  0  0
  6  5  1  0  0  0  0
M  END
>  <EGIN_R>
ES LYS A 135

>  <REMARK>
  4 active torsions:
  status: ('A' for Active; 'I' for Inactive)
    5  A    between atoms: CA   and  CB  
    6  A    between atoms: CB   and  CG  
    7  A    between atoms: CG   and  CD  
    8  A    between atoms: CD   and  CE  

$$$$
