ligand_48_pose_19_2HRL.pdbqt
 OpenBabel07062320523D

 49 50  0  0  1  0  0  0  0  0999 V2000
   26.8880   28.9970   19.4600 C   0  0  0  0  0  0  0  0  0  0  0  0
   28.0800   28.3260   20.1270 C   0  0  2  0  0  0  0  0  0  0  0  0
   29.0960   29.3940   20.3910 C   0  0  1  0  0  0  0  0  0  0  0  0
   29.6990   29.3730   21.7790 C   0  0  2  0  0  0  0  0  0  0  0  0
   31.9790   28.8010   21.6600 C   0  0  2  0  0  0  0  0  0  0  0  0
   31.8120   27.7670   22.7610 C   0  0  0  0  0  0  0  0  0  0  0  0
   31.0150   29.7440   21.7890 O   0  0  0  0  0  0  0  0  0  0  0  0
   30.4430   27.1420   22.7170 C   0  0  1  0  0  0  0  0  0  0  0  0
   29.3470   28.1820   22.6000 C   0  0  1  0  0  0  0  0  0  0  0  0
   32.0580   28.1860   20.4120 O   0  0  0  0  0  0  0  0  0  0  0  0
   32.9460   28.4350   20.0030 H   0  0  0  0  0  0  0  0  0  0  0  0
   33.2900   29.4540   21.9330 C   0  0  0  0  0  0  0  0  0  0  0  0
   34.1720   28.8410   22.5740 O   0  0  0  0  0  0  0  0  0  0  0  0
   33.5260   30.7200   21.4800 O   0  0  0  0  0  0  0  0  0  0  0  0
   33.9390   31.4610   22.0320 H   0  0  0  0  0  0  0  0  0  0  0  0
   30.3600   26.1900   21.7100 O   0  0  0  0  0  0  0  0  0  0  0  0
   29.4200   26.0810   21.4230 H   0  0  0  0  0  0  0  0  0  0  0  0
   28.9190   28.5730   23.9450 N   0  0  0  0  0  0  0  0  0  0  0  0
   27.5360   28.6590   24.2120 C   0  0  0  0  0  0  0  0  0  0  0  0
   29.6020   28.7860   24.6970 H   0  0  0  0  0  0  0  0  0  0  0  0
   27.0000   29.0500   25.5530 C   0  0  0  0  0  0  0  0  0  0  0  0
   26.6530   28.4090   23.3310 O   0  0  0  0  0  0  0  0  0  0  0  0
   29.9900   29.5610   19.3670 O   0  0  0  0  0  0  0  0  0  0  0  0
   30.3130   28.6900   18.9740 H   0  0  0  0  0  0  0  0  0  0  0  0
   28.4960   27.2990   19.3150 O   0  0  0  0  0  0  0  0  0  0  0  0
   27.7890   27.0740   18.6900 H   0  0  0  0  0  0  0  0  0  0  0  0
   27.3810   29.8310   18.3890 N   0  0  0  0  0  0  0  0  0  0  0  0
   27.0330   29.6970   17.0220 C   0  0  0  0  0  0  0  0  0  0  0  0
   28.0640   30.6240   18.5940 H   0  0  0  0  0  0  0  0  0  0  0  0
   26.2370   28.7920   16.6750 O   0  0  0  0  0  0  0  0  0  0  0  0
   27.5550   30.5480   16.0530 O   0  0  0  0  0  0  0  0  0  0  0  0
   28.8630   30.3470   15.5800 C   0  0  0  0  0  0  0  0  0  0  0  0
   29.7450   31.3700   16.2020 C   0  0  0  0  0  0  0  0  0  0  0  0
   30.6210   32.2280   15.5250 C   0  0  0  0  0  0  0  0  0  0  0  0
   29.9100   31.6990   17.4970 N   0  0  0  0  0  0  0  0  0  0  0  0
   31.2550   33.0130   16.4130 N   0  0  0  0  0  0  0  0  0  0  0  0
   30.8020   32.6660   17.6060 N   0  0  0  0  0  0  0  0  0  0  0  0
   32.2450   34.0390   16.1190 C   0  0  0  0  0  0  0  0  0  0  0  0
   32.1900   34.3730   14.6450 C   0  0  0  0  0  0  0  0  0  0  0  0
   31.9310   35.2970   16.8970 C   0  0  0  0  0  0  0  0  0  0  0  0
   31.4930   35.6980   14.3980 C   0  0  0  0  0  0  0  0  0  0  0  0
   32.8460   36.3840   16.3620 C   0  0  0  0  0  0  0  0  0  0  0  0
   32.2840   36.8160   15.0220 C   0  0  0  0  0  0  0  0  0  0  0  0
   29.8670   25.5550   16.9770 C   0  0  0  0  0  0  0  0  0  0  0  0
   28.3450   25.7220   17.0260 C   0  0  0  0  0  0  0  0  0  0  0  0
   27.5990   24.4280   16.7410 C   0  0  0  0  0  0  0  0  0  0  0  0
   26.9470   23.8660   17.9740 C   0  0  0  0  0  0  0  0  0  0  0  0
   25.5660   23.3270   17.6180 C   0  0  0  0  0  0  0  0  0  0  0  0
   24.7750   24.3560   16.9030 N   0  0  0  0  0  0  0  0  0  0  0  0
  2  1  1  6  0  0  0
  2  3  1  0  0  0  0
  3 23  1  6  0  0  0
  4  3  1  6  0  0  0
  4  7  1  0  0  0  0
  4  9  1  0  0  0  0
  5 10  1  6  0  0  0
  5  7  1  0  0  0  0
  5 12  1  0  0  0  0
  5  6  1  0  0  0  0
  8 16  1  6  0  0  0
  8  6  1  0  0  0  0
  9  8  1  0  0  0  0
  9 18  1  1  0  0  0
 11 10  1  0  0  0  0
 12 13  2  0  0  0  0
 14 12  1  0  0  0  0
 14 15  1  0  0  0  0
 17 16  1  0  0  0  0
 18 19  1  0  0  0  0
 18 20  1  0  0  0  0
 19 21  1  0  0  0  0
 22 19  2  0  0  0  0
 24 23  1  0  0  0  0
 25  2  1  0  0  0  0
 26 25  1  0  0  0  0
 27 29  1  0  0  0  0
 27  1  1  0  0  0  0
 28 27  1  0  0  0  0
 30 28  2  0  0  0  0
 31 28  1  0  0  0  0
 32 31  1  0  0  0  0
 32 33  1  0  0  0  0
 33 35  1  0  0  0  0
 34 33  2  0  0  0  0
 34 36  1  0  0  0  0
 35 37  2  0  0  0  0
 36 37  1  0  0  0  0
 38 36  1  0  0  0  0
 38 40  1  0  0  0  0
 39 38  1  0  0  0  0
 41 39  1  0  0  0  0
 41 43  1  0  0  0  0
 42 40  1  0  0  0  0
 43 42  1  0  0  0  0
 44 45  1  0  0  0  0
 46 45  1  0  0  0  0
 46 47  1  0  0  0  0
 48 47  1  0  0  0  0
 49 48  1  0  0  0  0
M  END
>  <REMARK>
 VINA RESULT:    -4.570      1.704      2.412
 INTER + INTRA:         -13.705
 INTER:                  -7.972
 INTRA:                  -5.733
 UNBOUND:                -5.796
 SMILES CC(=O)N[C@@H]1[C@@H](O)C[C@](O)(C(=O)O)O[C@H]1C(O)[C@H](O)CNC(=O)OCc1cn(C2CCCCC2)nn1
 SMILES IDX 20 1 18 2 16 3 15 4 9 5 8 6 14 7 6 8 5 9 10 10 11 12 12 13
 SMILES IDX 13 14 7 16 4 18 2 19 1 21 3 22 17 23 19 25 21 27 22 28 23 30
 SMILES IDX 24 31 25 32 26 33 27 34 36 35 28 36 35 37 29 38 30 39 34 40
 SMILES IDX 31 41 33 42 32 43
 H PARENT 10 11 13 15 7 17 4 20 17 24 19 26 21 29
 Flexibility Score: inf
  4 active torsions:
  status: ('A' for Active; 'I' for Inactive)
    1  A    between atoms: CA   and  CB  
    2  A    between atoms: CB   and  CG  
    3  A    between atoms: CG   and  CD  
    4  A    between atoms: CD   and  CE  

>  <TORSDO>
F 15

>  <BEGIN_>
RES LYS A 131

$$$$
ligand_48_pose_19_2HRL.pdbqt
 OpenBabel07062320523D

  6  5  0  0  0  0  0  0  0  0999 V2000
   33.1930   34.6630    9.2900 C   0  0  0  0  0  0  0  0  0  0  0  0
   32.0600   35.3600   10.0340 C   0  0  0  0  0  0  0  0  0  0  0  0
   30.8110   35.5300    9.2080 C   0  0  0  0  0  0  0  0  0  0  0  0
   30.0710   34.2080    9.0750 C   0  0  0  0  0  0  0  0  0  0  0  0
   28.7120   34.4210    8.4370 C   0  0  0  0  0  0  0  0  0  0  0  0
   28.8170   35.2700    7.2180 N   0  0  0  0  0  0  0  0  0  0  0  0
  1  2  1  0  0  0  0
  3  2  1  0  0  0  0
  4  3  1  0  0  0  0
  5  4  1  0  0  0  0
  6  5  1  0  0  0  0
M  END
>  <EGIN_R>
ES LYS A 135

>  <REMARK>
  4 active torsions:
  status: ('A' for Active; 'I' for Inactive)
    5  A    between atoms: CA   and  CB  
    6  A    between atoms: CB   and  CG  
    7  A    between atoms: CG   and  CD  
    8  A    between atoms: CD   and  CE  

$$$$
