ligand_9_pose_1_2HRL.pdbqt
 OpenBabel07062320523D

 54 55  0  0  1  0  0  0  0  0999 V2000
   25.7570   27.9060   18.2030 N   0  0  0  0  0  0  0  0  0  0  0  0
   24.8370   28.8240   17.6290 C   0  0  0  0  0  0  0  0  0  0  0  0
   24.0640   29.4530   18.3930 O   0  0  0  0  0  0  0  0  0  0  0  0
   26.3880   27.3970   17.5530 H   0  0  0  0  0  0  0  0  0  0  0  0
   25.8150   27.6870   19.6340 C   0  0  0  0  0  0  0  0  0  0  0  0
   27.2080   27.5230   20.1420 C   0  0  2  0  0  0  0  0  0  0  0  0
   27.9830   28.8000   20.1980 C   0  0  1  0  0  0  0  0  0  0  0  0
   29.2950   28.6010   21.0010 C   0  0  2  0  0  0  0  0  0  0  0  0
   31.4050   27.8070   20.8090 C   0  0  2  0  0  0  0  0  0  0  0  0
   31.1980   26.7110   21.8290 C   0  0  0  0  0  0  0  0  0  0  0  0
   30.2310   28.0500   20.1670 O   0  0  0  0  0  0  0  0  0  0  0  0
   30.1250   27.0430   22.8210 C   0  0  1  0  0  0  0  0  0  0  0  0
   29.0000   27.8550   22.2490 C   0  0  1  0  0  0  0  0  0  0  0  0
   32.2840   27.2420   19.8420 O   0  0  0  0  0  0  0  0  0  0  0  0
   31.8350   26.5900   19.2750 H   0  0  0  0  0  0  0  0  0  0  0  0
   32.0850   28.9640   21.4070 C   0  0  0  0  0  0  0  0  0  0  0  0
   32.8100   28.8840   22.4560 O   0  0  0  0  0  0  0  0  0  0  0  0
   31.9270   30.2200   20.7910 O   0  0  0  0  0  0  0  0  0  0  0  0
   32.7330   30.8570   20.8140 H   0  0  0  0  0  0  0  0  0  0  0  0
   29.6640   25.8580   23.3930 O   0  0  0  0  0  0  0  0  0  0  0  0
   28.7310   25.6480   23.1360 H   0  0  0  0  0  0  0  0  0  0  0  0
   28.4390   28.7610   23.2350 N   0  0  0  0  0  0  0  0  0  0  0  0
   27.3670   28.3780   24.0840 C   0  0  0  0  0  0  0  0  0  0  0  0
   28.8580   29.7350   23.3100 H   0  0  0  0  0  0  0  0  0  0  0  0
   26.8450   29.3610   25.0680 C   0  0  0  0  0  0  0  0  0  0  0  0
   26.8520   27.2100   24.0110 O   0  0  0  0  0  0  0  0  0  0  0  0
   28.3180   29.3350   18.9790 O   0  0  0  0  0  0  0  0  0  0  0  0
   28.4970   28.6900   18.2720 H   0  0  0  0  0  0  0  0  0  0  0  0
   27.8700   26.5050   19.4620 O   0  0  0  0  0  0  0  0  0  0  0  0
   28.8300   26.7640   19.4080 H   0  0  0  0  0  0  0  0  0  0  0  0
   24.7420   29.0680   16.2700 O   0  0  0  0  0  0  0  0  0  0  0  0
   25.1680   30.2890   15.6950 C   0  0  0  0  0  0  0  0  0  0  0  0
   26.6240   30.4590   15.8600 C   0  0  0  0  0  0  0  0  0  0  0  0
   27.3530   31.6310   15.9710 C   0  0  0  0  0  0  0  0  0  0  0  0
   27.5490   29.4780   15.9360 N   0  0  0  0  0  0  0  0  0  0  0  0
   28.6610   31.3310   16.1060 N   0  0  0  0  0  0  0  0  0  0  0  0
   28.7380   29.9980   16.0790 N   0  0  0  0  0  0  0  0  0  0  0  0
   29.7640   32.2020   16.2490 C   0  0  0  0  0  0  0  0  0  0  0  0
   30.1710   32.6540   17.4900 C   0  0  0  0  0  0  0  0  0  0  0  0
   30.4790   32.6330   15.1540 C   0  0  0  0  0  0  0  0  0  0  0  0
   31.2430   33.5050   17.6730 C   0  0  0  0  0  0  0  0  0  0  0  0
   31.5650   33.4900   15.3060 C   0  0  0  0  0  0  0  0  0  0  0  0
   31.9340   33.9160   16.5570 C   0  0  0  0  0  0  0  0  0  0  0  0
   31.6510   33.9660   18.9950 C   0  0  0  0  0  0  0  0  0  0  0  0
   32.1250   35.1210   19.1250 O   0  0  0  0  0  0  0  0  0  0  0  0
   31.5350   33.1790   20.1290 O   0  0  0  0  0  0  0  0  0  0  0  0
   30.6270   33.4710   21.1720 C   0  0  0  0  0  0  0  0  0  0  0  0
   31.4070   33.7430   22.4250 C   0  0  0  0  0  0  0  0  0  0  0  0
   29.8670   25.5550   16.9770 C   0  0  0  0  0  0  0  0  0  0  0  0
   28.3450   25.7220   17.0260 C   0  0  0  0  0  0  0  0  0  0  0  0
   27.6010   24.4060   16.8600 C   0  0  0  0  0  0  0  0  0  0  0  0
   26.1460   24.5280   17.2230 C   0  0  0  0  0  0  0  0  0  0  0  0
   25.7600   23.3940   18.1670 C   0  0  0  0  0  0  0  0  0  0  0  0
   25.4620   23.9240   19.5190 N   0  0  0  0  0  0  0  0  0  0  0  0
  1  5  1  0  0  0  0
  2  1  1  0  0  0  0
  2  3  2  0  0  0  0
  4  1  1  0  0  0  0
  6  5  1  6  0  0  0
  6  7  1  0  0  0  0
  7 27  1  6  0  0  0
  8  7  1  6  0  0  0
  8 13  1  0  0  0  0
  9 14  1  6  0  0  0
  9 16  1  0  0  0  0
  9 10  1  0  0  0  0
 10 12  1  0  0  0  0
 11  9  1  0  0  0  0
 11  8  1  0  0  0  0
 12 20  1  6  0  0  0
 13 12  1  0  0  0  0
 13 22  1  1  0  0  0
 15 14  1  0  0  0  0
 16 17  2  0  0  0  0
 18 19  1  0  0  0  0
 18 16  1  0  0  0  0
 21 20  1  0  0  0  0
 22 24  1  0  0  0  0
 22 23  1  0  0  0  0
 23 25  1  0  0  0  0
 26 23  2  0  0  0  0
 28 27  1  0  0  0  0
 29  6  1  0  0  0  0
 30 29  1  0  0  0  0
 31  2  1  0  0  0  0
 32 33  1  0  0  0  0
 32 31  1  0  0  0  0
 33 35  1  0  0  0  0
 33 34  2  0  0  0  0
 34 36  1  0  0  0  0
 35 37  2  0  0  0  0
 36 38  1  0  0  0  0
 37 36  1  0  0  0  0
 38 39  2  0  0  0  0
 39 41  1  0  0  0  0
 40 42  2  0  0  0  0
 40 38  1  0  0  0  0
 41 44  1  0  0  0  0
 42 43  1  0  0  0  0
 43 41  2  0  0  0  0
 44 45  2  0  0  0  0
 44 46  1  0  0  0  0
 46 47  1  0  0  0  0
 47 48  1  0  0  0  0
 49 50  1  0  0  0  0
 51 50  1  0  0  0  0
 51 52  1  0  0  0  0
 52 53  1  0  0  0  0
 53 54  1  0  0  0  0
M  END
>  <REMARK>
 VINA RESULT:    -5.455      2.079      3.435
 INTER + INTRA:         -16.070
 INTER:                  -9.436
 INTRA:                  -6.634
 UNBOUND:                -5.671
 SMILES CCOC(=O)c1cccc(-n2cc(COC(=O)NC[C@@H](O)C(O)[C@@H]3O[C@@](O)(C(=O)O)C[C@H](O)[C@H]3NC(C)=O)nn2)c1
 SMILES IDX 18 1 16 2 17 3 19 5 20 6 22 7 24 8 26 9 31 10 25 11 32 12
 SMILES IDX 34 13 27 14 28 16 29 17 30 18 33 20 35 22 36 23 37 25 38 26
 SMILES IDX 23 27 21 29 15 31 14 32 13 33 12 34 39 35 11 36 40 37 10 38
 SMILES IDX 41 39 9 40 6 41 8 42 7 43 4 44 5 45 3 46 2 47 1 48
 H PARENT 18 4 27 15 30 19 33 21 35 24 23 28 21 30
 Flexibility Score: inf
  4 active torsions:
  status: ('A' for Active; 'I' for Inactive)
    1  A    between atoms: CA   and  CB  
    2  A    between atoms: CB   and  CG  
    3  A    between atoms: CG   and  CD  
    4  A    between atoms: CD   and  CE  

>  <TORSDO>
F 18

>  <BEGIN_>
RES LYS A 131

$$$$
ligand_9_pose_1_2HRL.pdbqt
 OpenBabel07062320523D

  6  5  0  0  0  0  0  0  0  0999 V2000
   33.1930   34.6630    9.2900 C   0  0  0  0  0  0  0  0  0  0  0  0
   32.0600   35.3600   10.0340 C   0  0  0  0  0  0  0  0  0  0  0  0
   30.8150   35.5400    9.2040 C   0  0  0  0  0  0  0  0  0  0  0  0
   30.1360   34.2020    8.9590 C   0  0  0  0  0  0  0  0  0  0  0  0
   28.6710   34.4030    8.6180 C   0  0  0  0  0  0  0  0  0  0  0  0
   27.7930   33.6720    9.5730 N   0  0  0  0  0  0  0  0  0  0  0  0
  1  2  1  0  0  0  0
  3  2  1  0  0  0  0
  4  3  1  0  0  0  0
  5  4  1  0  0  0  0
  5  6  1  0  0  0  0
M  END
>  <EGIN_R>
ES LYS A 135

>  <REMARK>
  4 active torsions:
  status: ('A' for Active; 'I' for Inactive)
    5  A    between atoms: CA   and  CB  
    6  A    between atoms: CB   and  CG  
    7  A    between atoms: CG   and  CD  
    8  A    between atoms: CD   and  CE  

$$$$
