ligand_85_pose_19_2HRL.pdbqt
 OpenBabel07062320523D

 55 56  0  0  1  0  0  0  0  0999 V2000
   23.5980   33.1830   14.6840 N   0  0  0  0  0  0  0  0  0  0  0  0
   23.7060   31.8810   15.1960 C   0  0  0  0  0  0  0  0  0  0  0  0
   22.8710   31.0090   14.8800 O   0  0  0  0  0  0  0  0  0  0  0  0
   24.3040   33.9050   14.9520 H   0  0  0  0  0  0  0  0  0  0  0  0
   22.5410   33.5780   13.7900 C   0  0  0  0  0  0  0  0  0  0  0  0
   23.1180   33.9410   12.4450 C   0  0  2  0  0  0  0  0  0  0  0  0
   24.5360   34.4440   12.5380 C   0  0  2  0  0  0  0  0  0  0  0  0
   24.7890   35.5030   11.5340 C   0  0  2  0  0  0  0  0  0  0  0  0
   24.6130   36.2010    9.3570 C   0  0  2  0  0  0  0  0  0  0  0  0
   24.9570   37.5180   10.0060 C   0  0  0  0  0  0  0  0  0  0  0  0
   24.6410   35.1260   10.2110 O   0  0  0  0  0  0  0  0  0  0  0  0
   26.1310   37.4350   10.9250 C   0  0  1  0  0  0  0  0  0  0  0  0
   26.1920   36.0980   11.6580 C   0  0  1  0  0  0  0  0  0  0  0  0
   25.5840   35.9500    8.3710 O   0  0  0  0  0  0  0  0  0  0  0  0
   25.0760   35.9050    7.5050 H   0  0  0  0  0  0  0  0  0  0  0  0
   23.2960   36.2460    8.7140 C   0  0  0  0  0  0  0  0  0  0  0  0
   23.0050   37.2050    7.9590 O   0  0  0  0  0  0  0  0  0  0  0  0
   22.3170   35.2790    8.8820 O   0  0  0  0  0  0  0  0  0  0  0  0
   22.4650   34.3830    8.3920 H   0  0  0  0  0  0  0  0  0  0  0  0
   27.3020   37.6360   10.1670 O   0  0  0  0  0  0  0  0  0  0  0  0
   28.0100   37.1100   10.6280 H   0  0  0  0  0  0  0  0  0  0  0  0
   26.6030   36.2380   13.0130 N   0  0  0  0  0  0  0  0  0  0  0  0
   27.9810   36.2380   13.3480 C   0  0  0  0  0  0  0  0  0  0  0  0
   25.9130   36.3420   13.7810 H   0  0  0  0  0  0  0  0  0  0  0  0
   28.3650   36.3890   14.7920 C   0  0  0  0  0  0  0  0  0  0  0  0
   28.8990   36.1210   12.5170 O   0  0  0  0  0  0  0  0  0  0  0  0
   25.4080   33.3840   12.5270 O   0  0  0  0  0  0  0  0  0  0  0  0
   26.3410   33.7670   12.5130 H   0  0  0  0  0  0  0  0  0  0  0  0
   22.3610   35.0160   11.8840 O   0  0  0  0  0  0  0  0  0  0  0  0
   21.9580   35.5640   12.5860 H   0  0  0  0  0  0  0  0  0  0  0  0
   24.7170   31.4820   16.0640 O   0  0  0  0  0  0  0  0  0  0  0  0
   25.4720   30.3240   15.7680 C   0  0  0  0  0  0  0  0  0  0  0  0
   26.9130   30.6120   15.7870 C   0  0  0  0  0  0  0  0  0  0  0  0
   27.5710   31.8230   15.8500 C   0  0  0  0  0  0  0  0  0  0  0  0
   27.8850   29.6850   15.7430 N   0  0  0  0  0  0  0  0  0  0  0  0
   28.9140   31.6040   15.8430 N   0  0  0  0  0  0  0  0  0  0  0  0
   29.0550   30.3020   15.7780 N   0  0  0  0  0  0  0  0  0  0  0  0
   29.9570   32.5670   15.8950 C   0  0  0  0  0  0  0  0  0  0  0  0
   30.3820   33.2140   14.7440 C   0  0  0  0  0  0  0  0  0  0  0  0
   30.5460   32.8560   17.1040 C   0  0  0  0  0  0  0  0  0  0  0  0
   31.3880   34.1470   14.7720 C   0  0  0  0  0  0  0  0  0  0  0  0
   31.5640   33.7930   17.1690 C   0  0  0  0  0  0  0  0  0  0  0  0
   31.9370   34.9740   13.3170 Cl  0  0  0  0  0  0  0  0  0  0  0  0
   31.9680   34.4240   15.9930 C   0  0  0  0  0  0  0  0  0  0  0  0
   30.0920   32.1760   18.2940 C   0  0  0  0  0  0  0  0  0  0  0  0
   30.5580   31.0640   18.6740 O   0  0  0  0  0  0  0  0  0  0  0  0
   29.0790   32.7550   19.0920 N   0  0  0  0  0  0  0  0  0  0  0  0
   28.5180   34.0240   18.6970 C   0  0  0  0  0  0  0  0  0  0  0  0
   28.5840   32.1140   20.3010 C   0  0  0  0  0  0  0  0  0  0  0  0
   29.8670   25.5550   16.9770 C   0  0  0  0  0  0  0  0  0  0  0  0
   28.3450   25.7220   17.0260 C   0  0  0  0  0  0  0  0  0  0  0  0
   27.6020   24.4000   16.9140 C   0  0  0  0  0  0  0  0  0  0  0  0
   26.1580   24.5260   17.3130 C   0  0  0  0  0  0  0  0  0  0  0  0
   25.9660   25.7960   18.1350 C   0  0  0  0  0  0  0  0  0  0  0  0
   25.6100   25.4600   19.5340 N   0  0  0  0  0  0  0  0  0  0  0  0
  1  4  1  0  0  0  0
  1  2  1  0  0  0  0
  2 31  1  0  0  0  0
  3  2  2  0  0  0  0
  5  1  1  0  0  0  0
  6  7  1  0  0  0  0
  6  5  1  1  0  0  0
  7 27  1  6  0  0  0
  8 13  1  0  0  0  0
  8  7  1  1  0  0  0
  9 14  1  6  0  0  0
  9 10  1  0  0  0  0
  9 11  1  0  0  0  0
 10 12  1  0  0  0  0
 11  8  1  0  0  0  0
 12 20  1  6  0  0  0
 12 13  1  0  0  0  0
 13 22  1  1  0  0  0
 15 14  1  0  0  0  0
 16 18  1  0  0  0  0
 16  9  1  0  0  0  0
 17 16  2  0  0  0  0
 19 18  1  0  0  0  0
 20 21  1  0  0  0  0
 22 23  1  0  0  0  0
 22 24  1  0  0  0  0
 23 25  1  0  0  0  0
 26 23  2  0  0  0  0
 28 27  1  0  0  0  0
 29  6  1  0  0  0  0
 29 30  1  0  0  0  0
 32 33  1  0  0  0  0
 32 31  1  0  0  0  0
 33 34  2  0  0  0  0
 35 37  2  0  0  0  0
 35 33  1  0  0  0  0
 36 34  1  0  0  0  0
 36 38  1  0  0  0  0
 37 36  1  0  0  0  0
 38 40  2  0  0  0  0
 39 41  2  0  0  0  0
 39 38  1  0  0  0  0
 40 42  1  0  0  0  0
 40 45  1  0  0  0  0
 41 44  1  0  0  0  0
 43 41  1  0  0  0  0
 44 42  2  0  0  0  0
 45 46  2  0  0  0  0
 45 47  1  0  0  0  0
 47 49  1  0  0  0  0
 48 47  1  0  0  0  0
 50 51  1  0  0  0  0
 52 51  1  0  0  0  0
 52 53  1  0  0  0  0
 53 54  1  0  0  0  0
 54 55  1  0  0  0  0
M  END
>  <REMARK>
 VINA RESULT:    -4.531      3.247      5.267
 INTER + INTRA:         -14.294
 INTER:                  -8.107
 INTRA:                  -6.187
 UNBOUND:                -6.187
 SMILES CC(=O)N[C@@H]1[C@@H](O)C[C@](O)(C(=O)O)O[C@H]1C(O)[C@H](O)CNC(=O)OCc1cn(-c2cc(Cl)ccc2C(=O)N(C)C)nn1
 SMILES IDX 21 1 22 2 23 3 20 5 18 6 16 7 15 8 9 9 8 10 14 11 6 12 5 13
 SMILES IDX 10 14 11 16 12 17 13 18 7 20 4 22 2 23 1 25 3 26 17 27 19 29
 SMILES IDX 24 31 25 32 26 33 27 34 42 35 28 36 41 37 29 38 30 39 35 40
 SMILES IDX 31 41 34 42 32 43 33 44 36 45 37 46 38 47 39 48 40 49
 H PARENT 21 4 10 15 13 19 7 21 4 24 17 28 19 30
 Flexibility Score: inf
  4 active torsions:
  status: ('A' for Active; 'I' for Inactive)
    1  A    between atoms: CA   and  CB  
    2  A    between atoms: CB   and  CG  
    3  A    between atoms: CG   and  CD  
    4  A    between atoms: CD   and  CE  

>  <TORSDO>
F 16

>  <BEGIN_>
RES LYS A 131

$$$$
ligand_85_pose_19_2HRL.pdbqt
 OpenBabel07062320523D

  6  5  0  0  0  0  0  0  0  0999 V2000
   33.1930   34.6630    9.2900 C   0  0  0  0  0  0  0  0  0  0  0  0
   32.0600   35.3600   10.0340 C   0  0  0  0  0  0  0  0  0  0  0  0
   30.7320   34.6610    9.9010 C   0  0  0  0  0  0  0  0  0  0  0  0
   30.3370   34.5320    8.4380 C   0  0  0  0  0  0  0  0  0  0  0  0
   28.8280   34.5390    8.2910 C   0  0  0  0  0  0  0  0  0  0  0  0
   28.1710   33.9030    9.4660 N   0  0  0  0  0  0  0  0  0  0  0  0
  1  2  1  0  0  0  0
  3  2  1  0  0  0  0
  4  3  1  0  0  0  0
  5  4  1  0  0  0  0
  5  6  1  0  0  0  0
M  END
>  <EGIN_R>
ES LYS A 135

>  <REMARK>
  4 active torsions:
  status: ('A' for Active; 'I' for Inactive)
    5  A    between atoms: CA   and  CB  
    6  A    between atoms: CB   and  CG  
    7  A    between atoms: CG   and  CD  
    8  A    between atoms: CD   and  CE  

$$$$
