ligand_25_pose_16_2HRL.pdbqt
 OpenBabel07062320523D

 56 59  0  0  1  0  0  0  0  0999 V2000
   27.4590   43.0500    8.0040 C   0  0  0  0  0  0  0  0  0  0  0  0
   27.8510   42.7280    9.3980 C   0  0  2  0  0  0  0  0  0  0  0  0
   29.0750   41.8730    9.4940 C   0  0  1  0  0  0  0  0  0  0  0  0
   28.9100   40.4380    9.0770 C   0  0  2  0  0  0  0  0  0  0  0  0
   29.2210   38.9790   10.8820 C   0  0  2  0  0  0  0  0  0  0  0  0
   29.5840   37.7810   10.0300 C   0  0  0  0  0  0  0  0  0  0  0  0
   28.3740   39.7810   10.1860 O   0  0  0  0  0  0  0  0  0  0  0  0
   30.0320   38.2520    8.6950 C   0  0  1  0  0  0  0  0  0  0  0  0
   30.1780   39.7800    8.6040 C   0  0  1  0  0  0  0  0  0  0  0  0
   30.3920   39.5330   11.3260 O   0  0  0  0  0  0  0  0  0  0  0  0
   31.1800   39.1410   10.8890 H   0  0  0  0  0  0  0  0  0  0  0  0
   28.4630   38.4360   12.0510 C   0  0  0  0  0  0  0  0  0  0  0  0
   28.9220   38.5930   13.2060 O   0  0  0  0  0  0  0  0  0  0  0  0
   27.2610   37.7580   11.9140 O   0  0  0  0  0  0  0  0  0  0  0  0
   27.0620   37.2170   11.0610 H   0  0  0  0  0  0  0  0  0  0  0  0
   31.2340   37.7040    8.2770 O   0  0  0  0  0  0  0  0  0  0  0  0
   31.9450   37.7510    8.9560 H   0  0  0  0  0  0  0  0  0  0  0  0
   30.3600   40.0280    7.1910 N   0  0  0  0  0  0  0  0  0  0  0  0
   31.6110   40.2580    6.5630 C   0  0  0  0  0  0  0  0  0  0  0  0
   29.5110   40.0350    6.5890 H   0  0  0  0  0  0  0  0  0  0  0  0
   31.7170   40.5080    5.0890 C   0  0  0  0  0  0  0  0  0  0  0  0
   32.6380   40.2460    7.2890 O   0  0  0  0  0  0  0  0  0  0  0  0
   30.2140   42.4250    8.9200 O   0  0  0  0  0  0  0  0  0  0  0  0
   30.0540   43.1740    8.3240 H   0  0  0  0  0  0  0  0  0  0  0  0
   26.8210   42.0290   10.0230 O   0  0  0  0  0  0  0  0  0  0  0  0
   25.9760   42.5170   10.0340 H   0  0  0  0  0  0  0  0  0  0  0  0
   26.3720   42.3130    7.4760 N   0  0  0  0  0  0  0  0  0  0  0  0
   26.4850   41.3700    6.4390 C   0  0  0  0  0  0  0  0  0  0  0  0
   25.3910   42.4660    7.8790 H   0  0  0  0  0  0  0  0  0  0  0  0
   27.5580   41.1010    5.9080 O   0  0  0  0  0  0  0  0  0  0  0  0
   25.3580   40.6820    5.9550 O   0  0  0  0  0  0  0  0  0  0  0  0
   24.3960   40.1060    6.7850 C   0  0  0  0  0  0  0  0  0  0  0  0
   24.9170   39.0030    7.6290 C   0  0  0  0  0  0  0  0  0  0  0  0
   24.9010   37.6490    7.4020 C   0  0  0  0  0  0  0  0  0  0  0  0
   25.5150   39.1990    8.8060 N   0  0  0  0  0  0  0  0  0  0  0  0
   25.4870   37.0730    8.4470 N   0  0  0  0  0  0  0  0  0  0  0  0
   25.8520   38.0230    9.2830 N   0  0  0  0  0  0  0  0  0  0  0  0
   25.7070   35.6510    8.6630 C   0  0  0  0  0  0  0  0  0  0  0  0
   25.3580   35.2460   10.0360 C   0  0  0  0  0  0  0  0  0  0  0  0
   27.0940   35.2590    8.4700 C   0  0  0  0  0  0  0  0  0  0  0  0
   24.1490   35.3830   10.7410 C   0  0  0  0  0  0  0  0  0  0  0  0
   26.4610   34.6650   10.5920 C   0  0  0  0  0  0  0  0  0  0  0  0
   27.5520   34.6700    9.6180 C   0  0  0  0  0  0  0  0  0  0  0  0
   27.9840   35.3740    7.3830 C   0  0  0  0  0  0  0  0  0  0  0  0
   24.0940   34.9120   12.0290 C   0  0  0  0  0  0  0  0  0  0  0  0
   26.3660   34.2000   11.9030 C   0  0  0  0  0  0  0  0  0  0  0  0
   28.8540   34.1790    9.7610 C   0  0  0  0  0  0  0  0  0  0  0  0
   29.2640   34.9000    7.5000 C   0  0  0  0  0  0  0  0  0  0  0  0
   25.1950   34.3210   12.6170 C   0  0  0  0  0  0  0  0  0  0  0  0
   29.6920   34.3100    8.6770 C   0  0  0  0  0  0  0  0  0  0  0  0
   29.8670   25.5550   16.9770 C   0  0  0  0  0  0  0  0  0  0  0  0
   28.3450   25.7220   17.0260 C   0  0  0  0  0  0  0  0  0  0  0  0
   27.6020   24.3980   16.9310 C   0  0  0  0  0  0  0  0  0  0  0  0
   26.5400   24.2680   17.9870 C   0  0  0  0  0  0  0  0  0  0  0  0
   25.1680   24.1970   17.3240 C   0  0  0  0  0  0  0  0  0  0  0  0
   24.6550   22.8060   17.3410 N   0  0  0  0  0  0  0  0  0  0  0  0
  2  1  1  6  0  0  0
  2  3  1  0  0  0  0
  2 25  1  0  0  0  0
  3 23  1  6  0  0  0
  4  3  1  1  0  0  0
  4  7  1  0  0  0  0
  5 10  1  1  0  0  0
  5 12  1  0  0  0  0
  6  5  1  0  0  0  0
  7  5  1  0  0  0  0
  8 16  1  1  0  0  0
  8  6  1  0  0  0  0
  9 18  1  6  0  0  0
  9  8  1  0  0  0  0
  9  4  1  0  0  0  0
 11 10  1  0  0  0  0
 12 13  2  0  0  0  0
 14 12  1  0  0  0  0
 15 14  1  0  0  0  0
 16 17  1  0  0  0  0
 19 18  1  0  0  0  0
 19 22  2  0  0  0  0
 20 18  1  0  0  0  0
 21 19  1  0  0  0  0
 24 23  1  0  0  0  0
 25 26  1  0  0  0  0
 27 29  1  0  0  0  0
 27  1  1  0  0  0  0
 28 27  1  0  0  0  0
 30 28  2  0  0  0  0
 31 28  1  0  0  0  0
 31 32  1  0  0  0  0
 32 33  1  0  0  0  0
 33 35  1  0  0  0  0
 34 33  2  0  0  0  0
 34 36  1  0  0  0  0
 35 37  2  0  0  0  0
 36 38  1  0  0  0  0
 36 37  1  0  0  0  0
 38 39  1  0  0  0  0
 39 42  2  0  0  0  0
 39 41  1  0  0  0  0
 40 38  1  0  0  0  0
 40 43  2  0  0  0  0
 41 45  2  0  0  0  0
 42 46  1  0  0  0  0
 43 47  1  0  0  0  0
 43 42  1  0  0  0  0
 44 48  2  0  0  0  0
 44 40  1  0  0  0  0
 45 49  1  0  0  0  0
 46 49  2  0  0  0  0
 48 50  1  0  0  0  0
 50 47  2  0  0  0  0
 51 52  1  0  0  0  0
 53 52  1  0  0  0  0
 53 54  1  0  0  0  0
 55 56  1  0  0  0  0
 55 54  1  0  0  0  0
M  END
>  <REMARK>
 VINA RESULT:    -6.326      4.075      8.150
 INTER + INTRA:         -15.526
 INTER:                  -9.256
 INTRA:                  -6.271
 UNBOUND:                -4.578
 SMILES CC(=O)N[C@@H]1[C@@H](O)C[C@](O)(C(=O)O)O[C@H]1C(O)[C@H](O)CNC(=O)OCc1cn(C2c3ccccc3-c3ccccc32)nn1
 SMILES IDX 20 1 18 2 16 3 15 4 9 5 8 6 14 7 6 8 5 9 10 10 11 12 12 13
 SMILES IDX 13 14 7 16 4 18 2 19 1 21 3 22 17 23 19 25 21 27 22 28 23 30
 SMILES IDX 24 31 25 32 26 33 27 34 43 35 28 36 42 37 29 38 30 39 41 40
 SMILES IDX 31 41 35 42 36 43 40 44 32 45 34 46 37 47 39 48 33 49 38 50
 H PARENT 10 11 13 15 7 17 4 20 17 24 19 26 21 29
 Flexibility Score: inf
  4 active torsions:
  status: ('A' for Active; 'I' for Inactive)
    1  A    between atoms: CA   and  CB  
    2  A    between atoms: CB   and  CG  
    3  A    between atoms: CG   and  CD  
    4  A    between atoms: CD   and  CE  

>  <TORSDO>
F 15

>  <BEGIN_>
RES LYS A 131

$$$$
ligand_25_pose_16_2HRL.pdbqt
 OpenBabel07062320523D

  6  5  0  0  0  0  0  0  0  0999 V2000
   33.1930   34.6630    9.2900 C   0  0  0  0  0  0  0  0  0  0  0  0
   32.0600   35.3600   10.0340 C   0  0  0  0  0  0  0  0  0  0  0  0
   32.4930   35.9990   11.3280 C   0  0  0  0  0  0  0  0  0  0  0  0
   31.3250   36.0890   12.2990 C   0  0  0  0  0  0  0  0  0  0  0  0
   31.2190   34.8200   13.1230 C   0  0  0  0  0  0  0  0  0  0  0  0
   29.8050   34.3660   13.2280 N   0  0  0  0  0  0  0  0  0  0  0  0
  1  2  1  0  0  0  0
  2  3  1  0  0  0  0
  3  4  1  0  0  0  0
  4  5  1  0  0  0  0
  5  6  1  0  0  0  0
M  END
>  <EGIN_R>
ES LYS A 135

>  <REMARK>
  4 active torsions:
  status: ('A' for Active; 'I' for Inactive)
    5  A    between atoms: CA   and  CB  
    6  A    between atoms: CB   and  CG  
    7  A    between atoms: CG   and  CD  
    8  A    between atoms: CD   and  CE  

$$$$
