ligand_20_pose_4_2HRL.pdbqt
 OpenBabel07062320523D

 53 55  0  0  1  0  0  0  0  0999 V2000
   25.8410   28.4180   20.3550 C   0  0  0  0  0  0  0  0  0  0  0  0
   26.8890   27.5340   20.8730 C   0  0  2  0  0  0  0  0  0  0  0  0
   28.2800   27.9750   20.3660 C   0  0  1  0  0  0  0  0  0  0  0  0
   29.0220   28.8000   21.3240 C   0  0  2  0  0  0  0  0  0  0  0  0
   29.5100   30.8130   20.2360 C   0  0  2  0  0  0  0  0  0  0  0  0
   30.6860   30.0940   19.6400 C   0  0  0  0  0  0  0  0  0  0  0  0
   28.8900   30.1560   21.2580 O   0  0  0  0  0  0  0  0  0  0  0  0
   31.4050   29.2120   20.6000 C   0  0  1  0  0  0  0  0  0  0  0  0
   30.4910   28.3700   21.4320 C   0  0  1  0  0  0  0  0  0  0  0  0
   28.5880   31.0990   19.2300 O   0  0  0  0  0  0  0  0  0  0  0  0
   28.9750   30.9910   18.3270 H   0  0  0  0  0  0  0  0  0  0  0  0
   30.0160   32.0990   20.7700 C   0  0  0  0  0  0  0  0  0  0  0  0
   30.3920   32.9900   19.9920 O   0  0  0  0  0  0  0  0  0  0  0  0
   30.0670   32.3030   22.1320 O   0  0  0  0  0  0  0  0  0  0  0  0
   29.3730   32.8650   22.6450 H   0  0  0  0  0  0  0  0  0  0  0  0
   32.3060   28.4180   19.8660 O   0  0  0  0  0  0  0  0  0  0  0  0
   32.7460   27.8370   20.5320 H   0  0  0  0  0  0  0  0  0  0  0  0
   30.9190   28.2530   22.8010 N   0  0  0  0  0  0  0  0  0  0  0  0
   30.7290   27.0670   23.5600 C   0  0  0  0  0  0  0  0  0  0  0  0
   31.3960   29.0760   23.2790 H   0  0  0  0  0  0  0  0  0  0  0  0
   31.1850   26.9970   24.9610 C   0  0  0  0  0  0  0  0  0  0  0  0
   30.1670   26.0850   23.0110 O   0  0  0  0  0  0  0  0  0  0  0  0
   28.9590   26.7030   20.3360 O   0  0  0  0  0  0  0  0  0  0  0  0
   29.4250   26.5900   19.4760 H   0  0  0  0  0  0  0  0  0  0  0  0
   26.6760   26.2680   20.2060 O   0  0  0  0  0  0  0  0  0  0  0  0
   26.7490   25.5360   20.8790 H   0  0  0  0  0  0  0  0  0  0  0  0
   26.0810   29.0180   19.0720 N   0  0  0  0  0  0  0  0  0  0  0  0
   25.4570   28.5410   17.8890 C   0  0  0  0  0  0  0  0  0  0  0  0
   26.6820   29.8520   18.9870 H   0  0  0  0  0  0  0  0  0  0  0  0
   24.6730   27.5620   17.9840 O   0  0  0  0  0  0  0  0  0  0  0  0
   25.6630   29.0880   16.6440 O   0  0  0  0  0  0  0  0  0  0  0  0
   25.7400   30.4750   16.3750 C   0  0  0  0  0  0  0  0  0  0  0  0
   27.1880   30.8210   16.1750 C   0  0  0  0  0  0  0  0  0  0  0  0
   27.7260   31.9710   15.6410 C   0  0  0  0  0  0  0  0  0  0  0  0
   28.2620   30.0440   16.4900 N   0  0  0  0  0  0  0  0  0  0  0  0
   29.0830   31.8250   15.6630 N   0  0  0  0  0  0  0  0  0  0  0  0
   29.3780   30.6470   16.1830 N   0  0  0  0  0  0  0  0  0  0  0  0
   30.0030   32.7970   15.1960 C   0  0  0  0  0  0  0  0  0  0  0  0
   31.2880   32.8160   15.7050 C   0  0  0  0  0  0  0  0  0  0  0  0
   29.6890   33.7440   14.2440 C   0  0  0  0  0  0  0  0  0  0  0  0
   32.2260   33.7380   15.2900 C   0  0  0  0  0  0  0  0  0  0  0  0
   30.6010   34.6650   13.8170 C   0  0  0  0  0  0  0  0  0  0  0  0
   31.8960   34.6820   14.3320 C   0  0  0  0  0  0  0  0  0  0  0  0
   30.5630   35.6950   12.9070 C   0  0  0  0  0  0  0  0  0  0  0  0
   32.5740   35.6800   13.7440 N   0  0  0  0  0  0  0  0  0  0  0  0
   31.7890   36.2940   12.8880 N   0  0  0  0  0  0  0  0  0  0  0  0
   33.5630   35.9210   13.9390 H   0  0  0  0  0  0  0  0  0  0  0  0
   29.8670   25.5550   16.9770 C   0  0  0  0  0  0  0  0  0  0  0  0
   28.3450   25.7220   17.0260 C   0  0  0  0  0  0  0  0  0  0  0  0
   27.6010   24.4030   16.8880 C   0  0  0  0  0  0  0  0  0  0  0  0
   26.1490   24.5300   17.2570 C   0  0  0  0  0  0  0  0  0  0  0  0
   25.5950   23.1570   17.6220 C   0  0  0  0  0  0  0  0  0  0  0  0
   25.0410   23.1690   18.9970 N   0  0  0  0  0  0  0  0  0  0  0  0
  2  1  1  6  0  0  0
  3 23  1  1  0  0  0
  3  2  1  0  0  0  0
  4  3  1  6  0  0  0
  4  9  1  0  0  0  0
  5 10  1  6  0  0  0
  5 12  1  0  0  0  0
  5  7  1  0  0  0  0
  6  5  1  0  0  0  0
  6  8  1  0  0  0  0
  7  4  1  0  0  0  0
  8 16  1  6  0  0  0
  8  9  1  0  0  0  0
  9 18  1  1  0  0  0
 11 10  1  0  0  0  0
 12 14  1  0  0  0  0
 13 12  2  0  0  0  0
 14 15  1  0  0  0  0
 16 17  1  0  0  0  0
 18 20  1  0  0  0  0
 18 19  1  0  0  0  0
 19 21  1  0  0  0  0
 22 19  2  0  0  0  0
 24 23  1  0  0  0  0
 25  2  1  0  0  0  0
 25 26  1  0  0  0  0
 27  1  1  0  0  0  0
 28 30  2  0  0  0  0
 28 27  1  0  0  0  0
 29 27  1  0  0  0  0
 31 28  1  0  0  0  0
 32 31  1  0  0  0  0
 33 32  1  0  0  0  0
 33 35  1  0  0  0  0
 34 36  1  0  0  0  0
 34 33  2  0  0  0  0
 36 37  1  0  0  0  0
 37 35  2  0  0  0  0
 38 36  1  0  0  0  0
 38 39  2  0  0  0  0
 40 38  1  0  0  0  0
 41 39  1  0  0  0  0
 42 40  2  0  0  0  0
 42 43  1  0  0  0  0
 43 41  2  0  0  0  0
 44 42  1  0  0  0  0
 45 47  1  0  0  0  0
 45 43  1  0  0  0  0
 46 44  2  0  0  0  0
 46 45  1  0  0  0  0
 48 49  1  0  0  0  0
 50 49  1  0  0  0  0
 50 51  1  0  0  0  0
 51 52  1  0  0  0  0
 52 53  1  0  0  0  0
M  END
>  <REMARK>
 VINA RESULT:    -4.958      4.338      7.794
 INTER + INTRA:         -15.072
 INTER:                  -9.034
 INTRA:                  -6.038
 UNBOUND:                -6.490
 SMILES CC(=O)N[C@@H]1[C@@H](O)C[C@](O)(C(=O)O)O[C@H]1C(O)[C@H](O)CNC(=O)OCc1cn(-c2ccc3[nH]ncc3c2)nn1
 SMILES IDX 20 1 18 2 16 3 15 4 9 5 8 6 14 7 6 8 5 9 10 10 11 12 12 13
 SMILES IDX 13 14 7 16 4 18 2 19 1 21 3 22 17 23 19 25 21 27 22 28 23 30
 SMILES IDX 24 31 25 32 26 33 27 34 39 35 28 36 38 37 29 38 30 39 37 40
 SMILES IDX 31 41 36 42 32 43 35 44 33 45 34 46
 H PARENT 10 11 13 15 7 17 4 20 17 24 19 26 21 29 33 47
 Flexibility Score: inf
  4 active torsions:
  status: ('A' for Active; 'I' for Inactive)
    1  A    between atoms: CA   and  CB  
    2  A    between atoms: CB   and  CG  
    3  A    between atoms: CG   and  CD  
    4  A    between atoms: CD   and  CE  

>  <TORSDO>
F 15

>  <BEGIN_>
RES LYS A 131

$$$$
ligand_20_pose_4_2HRL.pdbqt
 OpenBabel07062320523D

  6  5  0  0  0  0  0  0  0  0999 V2000
   33.1930   34.6630    9.2900 C   0  0  0  0  0  0  0  0  0  0  0  0
   32.0600   35.3600   10.0340 C   0  0  0  0  0  0  0  0  0  0  0  0
   30.7970   35.4900    9.2230 C   0  0  0  0  0  0  0  0  0  0  0  0
   29.9050   34.2730    9.4200 C   0  0  0  0  0  0  0  0  0  0  0  0
   28.5670   34.4770    8.7370 C   0  0  0  0  0  0  0  0  0  0  0  0
   27.4870   33.7260    9.4350 N   0  0  0  0  0  0  0  0  0  0  0  0
  1  2  1  0  0  0  0
  3  4  1  0  0  0  0
  3  2  1  0  0  0  0
  5  4  1  0  0  0  0
  5  6  1  0  0  0  0
M  END
>  <EGIN_R>
ES LYS A 135

>  <REMARK>
  4 active torsions:
  status: ('A' for Active; 'I' for Inactive)
    5  A    between atoms: CA   and  CB  
    6  A    between atoms: CB   and  CG  
    7  A    between atoms: CG   and  CD  
    8  A    between atoms: CD   and  CE  

$$$$
