ligand_17_pose_7_2HRL.pdbqt
 OpenBabel07062320523D

 50 50  0  0  1  0  0  0  0  0999 V2000
   28.4510   29.6280   16.3430 N   0  0  0  0  0  0  0  0  0  0  0  0
   27.0360   29.5270   16.5050 C   0  0  0  0  0  0  0  0  0  0  0  0
   26.2770   30.2370   15.8240 O   0  0  0  0  0  0  0  0  0  0  0  0
   29.0210   29.0080   16.9440 H   0  0  0  0  0  0  0  0  0  0  0  0
   29.0840   30.5190   15.4210 C   0  0  0  0  0  0  0  0  0  0  0  0
   29.9660   31.5470   16.0730 C   0  0  2  0  0  0  0  0  0  0  0  0
   29.2120   32.8460   16.2570 C   0  0  1  0  0  0  0  0  0  0  0  0
   28.5940   33.3140   14.9710 C   0  0  2  0  0  0  0  0  0  0  0  0
   30.2680   34.8680   14.4080 C   0  0  2  0  0  0  0  0  0  0  0  0
   29.3710   35.9790   14.9360 C   0  0  0  0  0  0  0  0  0  0  0  0
   29.5890   33.7220   14.1180 O   0  0  0  0  0  0  0  0  0  0  0  0
   27.9470   35.6300   14.4870 C   0  0  1  0  0  0  0  0  0  0  0  0
   27.5660   34.3700   15.1770 C   0  0  1  0  0  0  0  0  0  0  0  0
   31.3210   34.7260   15.3090 O   0  0  0  0  0  0  0  0  0  0  0  0
   31.4560   33.7670   15.5530 H   0  0  0  0  0  0  0  0  0  0  0  0
   30.8540   35.3520   13.1180 C   0  0  0  0  0  0  0  0  0  0  0  0
   30.6530   36.5060   12.6830 O   0  0  0  0  0  0  0  0  0  0  0  0
   31.6450   34.4930   12.3840 O   0  0  0  0  0  0  0  0  0  0  0  0
   32.3430   33.8810   12.7970 H   0  0  0  0  0  0  0  0  0  0  0  0
   27.1270   36.7100   14.8130 O   0  0  0  0  0  0  0  0  0  0  0  0
   26.7000   36.4740   15.6970 H   0  0  0  0  0  0  0  0  0  0  0  0
   26.2240   33.9250   14.8510 N   0  0  0  0  0  0  0  0  0  0  0  0
   25.2450   33.6140   15.8370 C   0  0  0  0  0  0  0  0  0  0  0  0
   25.9100   33.8120   13.8460 H   0  0  0  0  0  0  0  0  0  0  0  0
   23.8740   33.1580   15.4430 C   0  0  0  0  0  0  0  0  0  0  0  0
   25.5200   33.7170   17.0480 O   0  0  0  0  0  0  0  0  0  0  0  0
   28.2400   32.5560   17.2310 O   0  0  0  0  0  0  0  0  0  0  0  0
   27.4670   32.1840   16.7290 H   0  0  0  0  0  0  0  0  0  0  0  0
   31.1520   31.6590   15.4070 O   0  0  0  0  0  0  0  0  0  0  0  0
   31.2100   30.9650   14.7040 H   0  0  0  0  0  0  0  0  0  0  0  0
   26.4530   28.6520   17.4060 O   0  0  0  0  0  0  0  0  0  0  0  0
   25.7510   29.1050   18.5560 C   0  0  0  0  0  0  0  0  0  0  0  0
   26.6290   30.0580   19.2810 C   0  0  0  0  0  0  0  0  0  0  0  0
   27.7510   29.6690   20.0130 C   0  0  0  0  0  0  0  0  0  0  0  0
   26.5720   31.3910   19.4010 N   0  0  0  0  0  0  0  0  0  0  0  0
   28.3040   30.7640   20.5280 N   0  0  0  0  0  0  0  0  0  0  0  0
   27.5820   31.7970   20.1500 N   0  0  0  0  0  0  0  0  0  0  0  0
   29.4800   30.8160   21.3530 C   0  0  0  0  0  0  0  0  0  0  0  0
   30.6960   30.5430   20.4860 C   0  0  0  0  0  0  0  0  0  0  0  0
   31.7080   29.7820   21.1440 N   0  0  0  0  0  0  0  0  0  0  0  0
   31.2570   28.5770   21.7560 C   0  0  0  0  0  0  0  0  0  0  0  0
   31.5900   27.4320   20.7880 C   0  0  0  0  0  0  0  0  0  0  0  0
   32.6270   30.5730   21.8900 C   0  0  0  0  0  0  0  0  0  0  0  0
   34.0080   30.0010   21.9690 C   0  0  0  0  0  0  0  0  0  0  0  0
   29.8670   25.5550   16.9770 C   0  0  0  0  0  0  0  0  0  0  0  0
   28.3450   25.7220   17.0260 C   0  0  0  0  0  0  0  0  0  0  0  0
   27.6010   24.4030   16.8870 C   0  0  0  0  0  0  0  0  0  0  0  0
   26.1860   24.4950   17.3850 C   0  0  0  0  0  0  0  0  0  0  0  0
   26.1540   25.2950   18.6840 C   0  0  0  0  0  0  0  0  0  0  0  0
   24.7600   25.6480   19.0420 N   0  0  0  0  0  0  0  0  0  0  0  0
  1  2  1  0  0  0  0
  1  4  1  0  0  0  0
  2 31  1  0  0  0  0
  3  2  2  0  0  0  0
  5  1  1  0  0  0  0
  6  5  1  6  0  0  0
  6  7  1  0  0  0  0
  7 27  1  1  0  0  0
  8 13  1  0  0  0  0
  8  7  1  1  0  0  0
  9 16  1  6  0  0  0
  9 10  1  0  0  0  0
  9 14  1  0  0  0  0
 11  9  1  0  0  0  0
 11  8  1  0  0  0  0
 12 20  1  1  0  0  0
 12 10  1  0  0  0  0
 12 13  1  0  0  0  0
 13 22  1  6  0  0  0
 14 15  1  0  0  0  0
 17 16  2  0  0  0  0
 18 19  1  0  0  0  0
 18 16  1  0  0  0  0
 20 21  1  0  0  0  0
 22 23  1  0  0  0  0
 23 26  2  0  0  0  0
 24 22  1  0  0  0  0
 25 23  1  0  0  0  0
 28 27  1  0  0  0  0
 29  6  1  0  0  0  0
 30 29  1  0  0  0  0
 31 32  1  0  0  0  0
 32 33  1  0  0  0  0
 33 35  1  0  0  0  0
 33 34  2  0  0  0  0
 34 36  1  0  0  0  0
 35 37  2  0  0  0  0
 36 38  1  0  0  0  0
 37 36  1  0  0  0  0
 39 40  1  0  0  0  0
 39 38  1  0  0  0  0
 40 41  1  0  0  0  0
 40 43  1  0  0  0  0
 42 41  1  0  0  0  0
 43 44  1  0  0  0  0
 45 46  1  0  0  0  0
 47 46  1  0  0  0  0
 47 48  1  0  0  0  0
 48 49  1  0  0  0  0
 49 50  1  0  0  0  0
M  END
>  <REMARK>
 VINA RESULT:    -3.630      3.112      6.952
 INTER + INTRA:         -14.289
 INTER:                  -7.646
 INTRA:                  -6.644
 UNBOUND:                -7.158
 SMILES CCN(CC)CCn1cc(COC(=O)NC[C@@H](O)C(O)[C@@H]2O[C@@](O)(C(=O)O)C[C@H](O)[C@H]2NC(C)=O)nn1
 SMILES IDX 15 1 13 2 14 3 16 5 17 6 19 7 21 8 23 9 28 10 22 11 29 12
 SMILES IDX 31 13 24 14 25 16 26 17 27 18 30 20 32 22 33 23 34 25 35 26
 SMILES IDX 20 27 18 29 12 31 11 32 10 33 9 34 36 35 8 36 37 37 7 38
 SMILES IDX 6 39 3 40 2 41 1 42 4 43 5 44
 H PARENT 15 4 24 15 27 19 30 21 32 24 20 28 18 30
 Flexibility Score: inf
  4 active torsions:
  status: ('A' for Active; 'I' for Inactive)
    1  A    between atoms: CA   and  CB  
    2  A    between atoms: CB   and  CG  
    3  A    between atoms: CG   and  CD  
    4  A    between atoms: CD   and  CE  

>  <TORSDO>
F 19

>  <BEGIN_>
RES LYS A 131

$$$$
ligand_17_pose_7_2HRL.pdbqt
 OpenBabel07062320523D

  6  5  0  0  0  0  0  0  0  0999 V2000
   33.1930   34.6630    9.2900 C   0  0  0  0  0  0  0  0  0  0  0  0
   32.0600   35.3600   10.0340 C   0  0  0  0  0  0  0  0  0  0  0  0
   30.8170   35.5460    9.2020 C   0  0  0  0  0  0  0  0  0  0  0  0
   30.2140   34.2000    8.8300 C   0  0  0  0  0  0  0  0  0  0  0  0
   28.7250   34.3350    8.5770 C   0  0  0  0  0  0  0  0  0  0  0  0
   27.9360   33.6840    9.6590 N   0  0  0  0  0  0  0  0  0  0  0  0
  1  2  1  0  0  0  0
  3  2  1  0  0  0  0
  4  3  1  0  0  0  0
  5  4  1  0  0  0  0
  5  6  1  0  0  0  0
M  END
>  <EGIN_R>
ES LYS A 135

>  <REMARK>
  4 active torsions:
  status: ('A' for Active; 'I' for Inactive)
    5  A    between atoms: CA   and  CB  
    6  A    between atoms: CB   and  CG  
    7  A    between atoms: CG   and  CD  
    8  A    between atoms: CD   and  CE  

$$$$
