ligand_58_pose_3_2HRL.pdbqt
 OpenBabel07062320523D

 56 58  0  0  1  0  0  0  0  0999 V2000
   31.8240   35.4100   14.8980 N   0  0  0  0  0  0  0  0  0  0  0  0
   31.5860   35.9500   13.6160 C   0  0  0  0  0  0  0  0  0  0  0  0
   31.8650   35.2860   12.5900 O   0  0  0  0  0  0  0  0  0  0  0  0
   31.5840   35.9880   15.7290 H   0  0  0  0  0  0  0  0  0  0  0  0
   32.3790   34.1050   15.0700 C   0  0  0  0  0  0  0  0  0  0  0  0
   31.8530   33.5150   16.3790 C   0  0  2  0  0  0  0  0  0  0  0  0
   30.6190   32.7130   15.9970 C   0  0  2  0  0  0  0  0  0  0  0  0
   30.4500   31.4210   16.7460 C   0  0  2  0  0  0  0  0  0  0  0  0
   28.1300   31.0950   16.5090 C   0  0  2  0  0  0  0  0  0  0  0  0
   27.9070   31.4090   17.9720 C   0  0  0  0  0  0  0  0  0  0  0  0
   29.3930   30.7530   16.1610 O   0  0  0  0  0  0  0  0  0  0  0  0
   28.9960   32.2530   18.5620 C   0  0  1  0  0  0  0  0  0  0  0  0
   30.3040   31.6120   18.2040 C   0  0  1  0  0  0  0  0  0  0  0  0
   27.7810   32.2590   15.8210 O   0  0  0  0  0  0  0  0  0  0  0  0
   27.2010   31.9750   15.0590 H   0  0  0  0  0  0  0  0  0  0  0  0
   27.1330   30.0420   16.0960 C   0  0  0  0  0  0  0  0  0  0  0  0
   26.1170   30.3290   15.4560 O   0  0  0  0  0  0  0  0  0  0  0  0
   27.3820   28.7370   16.4510 O   0  0  0  0  0  0  0  0  0  0  0  0
   26.8580   27.9860   15.9890 H   0  0  0  0  0  0  0  0  0  0  0  0
   28.8460   33.5340   18.1140 O   0  0  0  0  0  0  0  0  0  0  0  0
   29.6640   34.0780   18.2780 H   0  0  0  0  0  0  0  0  0  0  0  0
   30.3540   30.3190   18.9160 N   0  0  0  0  0  0  0  0  0  0  0  0
   30.9830   30.1760   20.1640 C   0  0  0  0  0  0  0  0  0  0  0  0
   29.9050   29.4950   18.4620 H   0  0  0  0  0  0  0  0  0  0  0  0
   31.0110   28.8550   20.8470 C   0  0  0  0  0  0  0  0  0  0  0  0
   31.5310   31.1650   20.7220 O   0  0  0  0  0  0  0  0  0  0  0  0
   30.8340   32.3780   14.6090 O   0  0  0  0  0  0  0  0  0  0  0  0
   31.4000   33.0370   14.1790 H   0  0  0  0  0  0  0  0  0  0  0  0
   31.5460   34.6080   17.1750 O   0  0  0  0  0  0  0  0  0  0  0  0
   30.8010   35.1390   16.8340 H   0  0  0  0  0  0  0  0  0  0  0  0
   31.0420   37.2170   13.4430 O   0  0  0  0  0  0  0  0  0  0  0  0
   29.9750   37.6140   14.2610 C   0  0  0  0  0  0  0  0  0  0  0  0
   28.8460   36.6660   14.0760 C   0  0  0  0  0  0  0  0  0  0  0  0
   27.8610   36.7700   13.0900 C   0  0  0  0  0  0  0  0  0  0  0  0
   28.5150   35.5570   14.7600 N   0  0  0  0  0  0  0  0  0  0  0  0
   27.0070   35.7520   13.2220 N   0  0  0  0  0  0  0  0  0  0  0  0
   27.4150   35.0310   14.2330 N   0  0  0  0  0  0  0  0  0  0  0  0
   25.8300   35.4600   12.4160 C   0  0  0  0  0  0  0  0  0  0  0  0
   26.1900   35.1350   11.0360 C   0  0  0  0  0  0  0  0  0  0  0  0
   27.1930   34.2090   10.7270 C   0  0  0  0  0  0  0  0  0  0  0  0
   25.5180   35.7330    9.9880 C   0  0  0  0  0  0  0  0  0  0  0  0
   27.4990   33.9090    9.4170 C   0  0  0  0  0  0  0  0  0  0  0  0
   25.8430   35.4150    8.6850 C   0  0  0  0  0  0  0  0  0  0  0  0
   26.8300   34.5050    8.3670 C   0  0  0  0  0  0  0  0  0  0  0  0
   24.8820   34.5560   13.0710 C   0  0  0  0  0  0  0  0  0  0  0  0
   24.9260   33.1730   12.8200 C   0  0  0  0  0  0  0  0  0  0  0  0
   23.9410   35.0410   13.9470 C   0  0  0  0  0  0  0  0  0  0  0  0
   24.0460   32.3220   13.4370 C   0  0  0  0  0  0  0  0  0  0  0  0
   23.0470   34.1630   14.5700 C   0  0  0  0  0  0  0  0  0  0  0  0
   23.1040   32.8130   14.3130 C   0  0  0  0  0  0  0  0  0  0  0  0
   29.8670   25.5550   16.9770 C   0  0  0  0  0  0  0  0  0  0  0  0
   28.3450   25.7220   17.0260 C   0  0  0  0  0  0  0  0  0  0  0  0
   27.6010   24.4010   16.9040 C   0  0  0  0  0  0  0  0  0  0  0  0
   26.1520   24.5290   17.2830 C   0  0  0  0  0  0  0  0  0  0  0  0
   26.0430   24.8670   18.7670 C   0  0  0  0  0  0  0  0  0  0  0  0
   25.5070   23.7120   19.5240 N   0  0  0  0  0  0  0  0  0  0  0  0
  1  5  1  0  0  0  0
  1  4  1  0  0  0  0
  2  1  1  0  0  0  0
  3  2  2  0  0  0  0
  6  5  1  6  0  0  0
  6 29  1  0  0  0  0
  7 27  1  6  0  0  0
  7  6  1  0  0  0  0
  8  7  1  6  0  0  0
  8 13  1  0  0  0  0
  9 14  1  6  0  0  0
  9 10  1  0  0  0  0
 10 12  1  0  0  0  0
 11  9  1  0  0  0  0
 11  8  1  0  0  0  0
 12 20  1  6  0  0  0
 13 12  1  0  0  0  0
 13 22  1  1  0  0  0
 15 14  1  0  0  0  0
 16 18  1  0  0  0  0
 16  9  1  0  0  0  0
 17 16  2  0  0  0  0
 19 18  1  0  0  0  0
 20 21  1  0  0  0  0
 22 23  1  0  0  0  0
 23 26  2  0  0  0  0
 23 25  1  0  0  0  0
 24 22  1  0  0  0  0
 28 27  1  0  0  0  0
 30 29  1  0  0  0  0
 31  2  1  0  0  0  0
 31 32  1  0  0  0  0
 33 32  1  0  0  0  0
 33 35  1  0  0  0  0
 34 36  1  0  0  0  0
 34 33  2  0  0  0  0
 36 37  1  0  0  0  0
 37 35  2  0  0  0  0
 38 45  1  0  0  0  0
 38 36  1  0  0  0  0
 39 38  1  0  0  0  0
 40 39  1  0  0  0  0
 41 39  2  0  0  0  0
 42 40  2  0  0  0  0
 43 41  1  0  0  0  0
 44 43  2  0  0  0  0
 44 42  1  0  0  0  0
 45 47  1  0  0  0  0
 46 45  2  0  0  0  0
 46 48  1  0  0  0  0
 47 49  2  0  0  0  0
 48 50  2  0  0  0  0
 50 49  1  0  0  0  0
 51 52  1  0  0  0  0
 53 52  1  0  0  0  0
 53 54  1  0  0  0  0
 54 55  1  0  0  0  0
 55 56  1  0  0  0  0
M  END
>  <REMARK>
 VINA RESULT:    -5.941      2.187      3.091
 INTER + INTRA:         -16.467
 INTER:                 -10.787
 INTRA:                  -5.680
 UNBOUND:                -5.490
 SMILES CC(=O)N[C@@H]1[C@@H](O)C[C@](O)(C(=O)O)O[C@H]1C(O)[C@H](O)CNC(=O)OCc1cn(C(c2ccccc2)c2ccccc2)nn1
 SMILES IDX 21 1 22 2 23 3 20 5 18 6 16 7 15 8 9 9 8 10 14 11 6 12 5 13
 SMILES IDX 10 14 11 16 12 17 13 18 7 20 4 22 2 23 1 25 3 26 17 27 19 29
 SMILES IDX 24 31 25 32 26 33 27 34 43 35 28 36 42 37 29 38 30 39 31 40
 SMILES IDX 35 41 32 42 34 43 33 44 36 45 37 46 41 47 38 48 40 49 39 50
 H PARENT 21 4 10 15 13 19 7 21 4 24 17 28 19 30
 Flexibility Score: inf
  4 active torsions:
  status: ('A' for Active; 'I' for Inactive)
    1  A    between atoms: CA   and  CB  
    2  A    between atoms: CB   and  CG  
    3  A    between atoms: CG   and  CD  
    4  A    between atoms: CD   and  CE  

>  <TORSDO>
F 17

>  <BEGIN_>
RES LYS A 131

$$$$
ligand_58_pose_3_2HRL.pdbqt
 OpenBabel07062320523D

  6  5  0  0  0  0  0  0  0  0999 V2000
   33.1930   34.6630    9.2900 C   0  0  0  0  0  0  0  0  0  0  0  0
   32.0600   35.3600   10.0340 C   0  0  0  0  0  0  0  0  0  0  0  0
   30.7480   35.3340    9.2940 C   0  0  0  0  0  0  0  0  0  0  0  0
   30.2260   36.7460    9.0770 C   0  0  0  0  0  0  0  0  0  0  0  0
   31.0670   37.7480    9.8440 C   0  0  0  0  0  0  0  0  0  0  0  0
   31.4750   38.8850    8.9720 N   0  0  0  0  0  0  0  0  0  0  0  0
  1  2  1  0  0  0  0
  3  2  1  0  0  0  0
  4  3  1  0  0  0  0
  4  5  1  0  0  0  0
  6  5  1  0  0  0  0
M  END
>  <EGIN_R>
ES LYS A 135

>  <REMARK>
  4 active torsions:
  status: ('A' for Active; 'I' for Inactive)
    5  A    between atoms: CA   and  CB  
    6  A    between atoms: CB   and  CG  
    7  A    between atoms: CG   and  CD  
    8  A    between atoms: CD   and  CE  

$$$$
