ligand_0_pose_2_2HRL.pdbqt
 OpenBabel07062320523D

 54 55  0  0  1  0  0  0  0  0999 V2000
   28.2960   31.1000   17.9370 N   0  0  0  0  0  0  0  0  0  0  0  0
   27.7720   30.1030   18.8010 C   0  0  0  0  0  0  0  0  0  0  0  0
   28.5540   29.2950   19.3350 O   0  0  0  0  0  0  0  0  0  0  0  0
   27.5760   31.7560   17.5150 H   0  0  0  0  0  0  0  0  0  0  0  0
   29.6920   31.2620   17.6160 C   0  0  0  0  0  0  0  0  0  0  0  0
   29.9990   30.9180   16.1680 C   0  0  2  0  0  0  0  0  0  0  0  0
   30.3380   32.1370   15.3630 C   0  0  1  0  0  0  0  0  0  0  0  0
   29.5990   33.3620   15.7490 C   0  0  2  0  0  0  0  0  0  0  0  0
   27.3770   34.0640   15.9520 C   0  0  2  0  0  0  0  0  0  0  0  0
   28.0410   35.2570   16.5740 C   0  0  0  0  0  0  0  0  0  0  0  0
   28.2190   33.0440   15.6440 O   0  0  0  0  0  0  0  0  0  0  0  0
   29.2410   35.7440   15.8360 C   0  0  1  0  0  0  0  0  0  0  0  0
   29.7970   34.6080   14.9850 C   0  0  1  0  0  0  0  0  0  0  0  0
   26.6110   34.4900   14.8420 O   0  0  0  0  0  0  0  0  0  0  0  0
   27.1410   34.2860   14.0170 H   0  0  0  0  0  0  0  0  0  0  0  0
   26.3870   33.5580   16.9470 C   0  0  0  0  0  0  0  0  0  0  0  0
   26.6820   33.6450   18.1780 O   0  0  0  0  0  0  0  0  0  0  0  0
   25.1730   33.0020   16.6060 O   0  0  0  0  0  0  0  0  0  0  0  0
   24.3510   33.1590   17.1670 H   0  0  0  0  0  0  0  0  0  0  0  0
   28.8810   36.8310   15.0550 O   0  0  0  0  0  0  0  0  0  0  0  0
   28.8580   36.6330   14.0860 H   0  0  0  0  0  0  0  0  0  0  0  0
   31.0700   34.8960   14.4460 N   0  0  0  0  0  0  0  0  0  0  0  0
   31.2340   35.4480   13.1590 C   0  0  0  0  0  0  0  0  0  0  0  0
   31.9350   34.7260   14.9970 H   0  0  0  0  0  0  0  0  0  0  0  0
   32.5410   35.7690   12.5460 C   0  0  0  0  0  0  0  0  0  0  0  0
   30.2040   35.6850   12.4900 O   0  0  0  0  0  0  0  0  0  0  0  0
   31.6640   32.2770   15.0290 O   0  0  0  0  0  0  0  0  0  0  0  0
   31.9300   33.2450   15.0840 H   0  0  0  0  0  0  0  0  0  0  0  0
   29.0730   30.0760   15.6200 O   0  0  0  0  0  0  0  0  0  0  0  0
   28.3060   30.5830   15.2360 H   0  0  0  0  0  0  0  0  0  0  0  0
   26.4140   29.9960   19.0760 O   0  0  0  0  0  0  0  0  0  0  0  0
   25.5810   29.0610   18.4140 C   0  0  0  0  0  0  0  0  0  0  0  0
   25.3070   29.5110   17.0150 C   0  0  0  0  0  0  0  0  0  0  0  0
   24.0920   29.4110   16.3640 C   0  0  0  0  0  0  0  0  0  0  0  0
   26.1550   30.0820   16.1470 N   0  0  0  0  0  0  0  0  0  0  0  0
   24.2570   29.9320   15.1110 N   0  0  0  0  0  0  0  0  0  0  0  0
   25.4940   30.3220   15.0150 N   0  0  0  0  0  0  0  0  0  0  0  0
   23.2300   30.0070   14.1140 C   0  0  0  0  0  0  0  0  0  0  0  0
   22.7530   31.2080   13.6460 C   0  0  0  0  0  0  0  0  0  0  0  0
   22.7160   28.8130   13.6190 C   0  0  0  0  0  0  0  0  0  0  0  0
   21.7500   31.1980   12.6720 C   0  0  0  0  0  0  0  0  0  0  0  0
   21.7300   28.8230   12.6620 C   0  0  0  0  0  0  0  0  0  0  0  0
   21.2550   30.0210   12.1970 C   0  0  0  0  0  0  0  0  0  0  0  0
   23.2480   32.4910   14.1210 C   0  0  0  0  0  0  0  0  0  0  0  0
   22.6040   33.0540   15.0640 O   0  0  0  0  0  0  0  0  0  0  0  0
   24.4000   33.1230   13.5800 N   0  0  0  0  0  0  0  0  0  0  0  0
   25.3570   32.7740   13.7490 H   0  0  0  0  0  0  0  0  0  0  0  0
   24.2270   33.9910   12.9890 H   0  0  0  0  0  0  0  0  0  0  0  0
   29.8670   25.5550   16.9770 C   0  0  0  0  0  0  0  0  0  0  0  0
   28.3450   25.7220   17.0260 C   0  0  0  0  0  0  0  0  0  0  0  0
   27.6010   24.4060   16.8620 C   0  0  0  0  0  0  0  0  0  0  0  0
   26.4220   24.3020   17.7900 C   0  0  0  0  0  0  0  0  0  0  0  0
   25.5940   23.0740   17.4260 C   0  0  0  0  0  0  0  0  0  0  0  0
   24.8080   22.6130   18.5940 N   0  0  0  0  0  0  0  0  0  0  0  0
  1  2  1  0  0  0  0
  2 31  1  0  0  0  0
  2  3  2  0  0  0  0
  4  1  1  0  0  0  0
  5  1  1  0  0  0  0
  6  5  1  1  0  0  0
  7 27  1  1  0  0  0
  7  6  1  0  0  0  0
  8  7  1  6  0  0  0
  9 14  1  6  0  0  0
  9 10  1  0  0  0  0
  9 16  1  0  0  0  0
 11  8  1  0  0  0  0
 11  9  1  0  0  0  0
 12 20  1  6  0  0  0
 12 10  1  0  0  0  0
 13 22  1  1  0  0  0
 13  8  1  0  0  0  0
 13 12  1  0  0  0  0
 15 14  1  0  0  0  0
 16 17  2  0  0  0  0
 18 16  1  0  0  0  0
 18 19  1  0  0  0  0
 21 20  1  0  0  0  0
 22 24  1  0  0  0  0
 23 22  1  0  0  0  0
 25 23  1  0  0  0  0
 26 23  2  0  0  0  0
 27 28  1  0  0  0  0
 29  6  1  0  0  0  0
 30 29  1  0  0  0  0
 32 31  1  0  0  0  0
 33 32  1  0  0  0  0
 34 33  2  0  0  0  0
 35 33  1  0  0  0  0
 36 34  1  0  0  0  0
 37 36  1  0  0  0  0
 37 35  2  0  0  0  0
 38 36  1  0  0  0  0
 39 38  1  0  0  0  0
 39 44  1  0  0  0  0
 40 38  2  0  0  0  0
 41 39  2  0  0  0  0
 42 40  1  0  0  0  0
 43 42  2  0  0  0  0
 43 41  1  0  0  0  0
 44 45  2  0  0  0  0
 46 47  1  0  0  0  0
 46 44  1  0  0  0  0
 48 46  1  0  0  0  0
 49 50  1  0  0  0  0
 51 50  1  0  0  0  0
 51 52  1  0  0  0  0
 53 52  1  0  0  0  0
 53 54  1  0  0  0  0
M  END
>  <REMARK>
 VINA RESULT:    -5.632      3.106      7.869
 INTER + INTRA:         -15.491
 INTER:                  -8.404
 INTRA:                  -7.087
 UNBOUND:                -5.414
 SMILES CC(=O)N[C@@H]1[C@@H](O)C[C@](O)(C(=O)O)O[C@H]1C(O)[C@H](O)CNC(=O)OCc1cn(-c2ccccc2C(N)=O)nn1
 SMILES IDX 21 1 22 2 23 3 20 5 18 6 16 7 15 8 9 9 8 10 14 11 6 12 5 13
 SMILES IDX 10 14 11 16 12 17 13 18 7 20 4 22 2 23 1 25 3 26 17 27 19 29
 SMILES IDX 24 31 25 32 26 33 27 34 39 35 28 36 38 37 29 38 34 39 30 40
 SMILES IDX 33 41 31 42 32 43 35 44 37 45 36 46
 H PARENT 21 4 10 15 13 19 7 21 4 24 17 28 19 30 36 47 36 48
 Flexibility Score: inf
  4 active torsions:
  status: ('A' for Active; 'I' for Inactive)
    1  A    between atoms: CA   and  CB  
    2  A    between atoms: CB   and  CG  
    3  A    between atoms: CG   and  CD  
    4  A    between atoms: CD   and  CE  

>  <TORSDO>
F 16

>  <BEGIN_>
RES LYS A 131

$$$$
ligand_0_pose_2_2HRL.pdbqt
 OpenBabel07062320523D

  6  5  0  0  0  0  0  0  0  0999 V2000
   33.1930   34.6630    9.2900 C   0  0  0  0  0  0  0  0  0  0  0  0
   32.0600   35.3600   10.0340 C   0  0  0  0  0  0  0  0  0  0  0  0
   30.8180   35.5460    9.2020 C   0  0  0  0  0  0  0  0  0  0  0  0
   30.1710   34.2040    8.8950 C   0  0  0  0  0  0  0  0  0  0  0  0
   28.7370   34.3960    8.4400 C   0  0  0  0  0  0  0  0  0  0  0  0
   27.7790   33.8370    9.4340 N   0  0  0  0  0  0  0  0  0  0  0  0
  1  2  1  0  0  0  0
  3  2  1  0  0  0  0
  4  3  1  0  0  0  0
  5  4  1  0  0  0  0
  5  6  1  0  0  0  0
M  END
>  <EGIN_R>
ES LYS A 135

>  <REMARK>
  4 active torsions:
  status: ('A' for Active; 'I' for Inactive)
    5  A    between atoms: CA   and  CB  
    6  A    between atoms: CB   and  CG  
    7  A    between atoms: CG   and  CD  
    8  A    between atoms: CD   and  CE  

$$$$
