ligand_82_pose_5_2HRL.pdbqt
 OpenBabel07062320523D

 53 55  0  0  1  0  0  0  0  0999 V2000
   27.3100   36.9600   12.6230 N   0  0  0  0  0  0  0  0  0  0  0  0
   26.2470   37.4660   11.7980 C   0  0  0  0  0  0  0  0  0  0  0  0
   25.4210   38.2660   12.3060 O   0  0  0  0  0  0  0  0  0  0  0  0
   27.9970   36.2970   12.2070 H   0  0  0  0  0  0  0  0  0  0  0  0
   27.4040   37.3760   14.0070 C   0  0  0  0  0  0  0  0  0  0  0  0
   27.6150   36.1500   14.8500 C   0  0  2  0  0  0  0  0  0  0  0  0
   28.7350   35.2790   14.3280 C   0  0  1  0  0  0  0  0  0  0  0  0
   29.5730   34.8660   15.5160 C   0  0  2  0  0  0  0  0  0  0  0  0
   31.6160   34.2050   14.6470 C   0  0  2  0  0  0  0  0  0  0  0  0
   31.4960   32.7900   15.1680 C   0  0  0  0  0  0  0  0  0  0  0  0
   30.9050   35.1230   15.3810 O   0  0  0  0  0  0  0  0  0  0  0  0
   30.5630   32.8090   16.3540 C   0  0  1  0  0  0  0  0  0  0  0  0
   29.2640   33.4340   15.8890 C   0  0  1  0  0  0  0  0  0  0  0  0
   31.2880   34.2280   13.2880 O   0  0  0  0  0  0  0  0  0  0  0  0
   30.3220   33.9930   13.2390 H   0  0  0  0  0  0  0  0  0  0  0  0
   33.0580   34.5760   14.7430 C   0  0  0  0  0  0  0  0  0  0  0  0
   33.4420   35.3290   15.7010 O   0  0  0  0  0  0  0  0  0  0  0  0
   34.0050   34.1420   13.8410 O   0  0  0  0  0  0  0  0  0  0  0  0
   34.9990   34.2870   13.9960 H   0  0  0  0  0  0  0  0  0  0  0  0
   30.2920   31.5420   16.8320 O   0  0  0  0  0  0  0  0  0  0  0  0
   29.5790   31.1560   16.2630 H   0  0  0  0  0  0  0  0  0  0  0  0
   28.2310   33.3220   16.8860 N   0  0  0  0  0  0  0  0  0  0  0  0
   26.9760   32.7270   16.5980 C   0  0  0  0  0  0  0  0  0  0  0  0
   28.4290   33.6930   17.8400 H   0  0  0  0  0  0  0  0  0  0  0  0
   25.9660   32.6530   17.6890 C   0  0  0  0  0  0  0  0  0  0  0  0
   26.7310   32.2780   15.4510 O   0  0  0  0  0  0  0  0  0  0  0  0
   28.2290   34.1200   13.7430 O   0  0  0  0  0  0  0  0  0  0  0  0
   27.2670   34.1400   13.6130 H   0  0  0  0  0  0  0  0  0  0  0  0
   26.4150   35.4100   14.7870 O   0  0  0  0  0  0  0  0  0  0  0  0
   26.4680   34.7280   14.0600 H   0  0  0  0  0  0  0  0  0  0  0  0
   26.0960   37.1180   10.4830 O   0  0  0  0  0  0  0  0  0  0  0  0
   25.2420   36.0830   10.0300 C   0  0  0  0  0  0  0  0  0  0  0  0
   24.9410   35.1490   11.1350 C   0  0  0  0  0  0  0  0  0  0  0  0
   23.7320   34.8840   11.7330 C   0  0  0  0  0  0  0  0  0  0  0  0
   25.8390   34.3750   11.7620 N   0  0  0  0  0  0  0  0  0  0  0  0
   23.9160   33.9510   12.7140 N   0  0  0  0  0  0  0  0  0  0  0  0
   25.2100   33.6660   12.7030 N   0  0  0  0  0  0  0  0  0  0  0  0
   22.8740   33.4230   13.5600 C   0  0  0  0  0  0  0  0  0  0  0  0
   22.7720   31.9270   13.4210 C   0  0  0  0  0  0  0  0  0  0  0  0
   21.8620   31.3680   12.6290 C   0  0  0  0  0  0  0  0  0  0  0  0
   23.6790   31.0270   14.1610 C   0  0  2  0  0  0  0  0  0  0  0  0
   21.9670   29.9110   12.3420 C   0  0  0  0  0  0  0  0  0  0  0  0
   24.3020   30.0960   13.1100 C   0  0  0  0  0  0  0  0  0  0  0  0
   22.9000   29.8200   14.6430 C   0  0  0  0  0  0  0  0  0  0  0  0
   23.0190   29.2870   13.2070 C   0  0  1  0  0  0  0  0  0  0  0  0
   23.6690   28.9320   15.5810 C   0  0  0  0  0  0  0  0  0  0  0  0
   21.5060   30.0810   15.1010 C   0  0  0  0  0  0  0  0  0  0  0  0
   29.8670   25.5550   16.9770 C   0  0  0  0  0  0  0  0  0  0  0  0
   28.3450   25.7220   17.0260 C   0  0  0  0  0  0  0  0  0  0  0  0
   27.6020   24.3990   16.9250 C   0  0  0  0  0  0  0  0  0  0  0  0
   26.1530   24.5330   17.3040 C   0  0  0  0  0  0  0  0  0  0  0  0
   26.0460   25.0240   18.7430 C   0  0  0  0  0  0  0  0  0  0  0  0
   24.6260   25.2070   19.1250 N   0  0  0  0  0  0  0  0  0  0  0  0
  1  5  1  0  0  0  0
  2  3  2  0  0  0  0
  2  1  1  0  0  0  0
  4  1  1  0  0  0  0
  6  5  1  6  0  0  0
  7 27  1  1  0  0  0
  7  6  1  0  0  0  0
  8  7  1  6  0  0  0
  8 13  1  0  0  0  0
  9 14  1  6  0  0  0
  9 16  1  0  0  0  0
  9 10  1  0  0  0  0
  9 11  1  0  0  0  0
 10 12  1  0  0  0  0
 11  8  1  0  0  0  0
 12 20  1  6  0  0  0
 13 12  1  0  0  0  0
 13 22  1  1  0  0  0
 15 14  1  0  0  0  0
 16 17  2  0  0  0  0
 18 19  1  0  0  0  0
 18 16  1  0  0  0  0
 21 20  1  0  0  0  0
 22 24  1  0  0  0  0
 23 22  1  0  0  0  0
 23 25  1  0  0  0  0
 26 23  2  0  0  0  0
 28 27  1  0  0  0  0
 29  6  1  0  0  0  0
 30 29  1  0  0  0  0
 31  2  1  0  0  0  0
 32 31  1  0  0  0  0
 32 33  1  0  0  0  0
 33 34  2  0  0  0  0
 33 35  1  0  0  0  0
 34 36  1  0  0  0  0
 35 37  2  0  0  0  0
 36 38  1  0  0  0  0
 37 36  1  0  0  0  0
 39 38  1  0  0  0  0
 39 41  1  0  0  0  0
 40 39  2  0  0  0  0
 41 43  1  6  0  0  0
 41 44  1  0  0  0  0
 42 40  1  0  0  0  0
 43 45  1  0  0  0  0
 44 47  1  0  0  0  0
 44 46  1  0  0  0  0
 45 42  1  6  0  0  0
 45 44  1  0  0  0  0
 48 49  1  0  0  0  0
 50 49  1  0  0  0  0
 50 51  1  0  0  0  0
 51 52  1  0  0  0  0
 52 53  1  0  0  0  0
M  END
>  <REMARK>
 VINA RESULT:    -5.631      4.290      8.422
 INTER + INTRA:         -15.411
 INTER:                  -8.447
 INTRA:                  -6.965
 UNBOUND:                -5.337
 SMILES CC(=O)N[C@@H]1[C@@H](O)C[C@](O)(C(=O)O)O[C@H]1C(O)[C@H](O)CNC(=O)OCc1cn(CC2=CC[C@H]3C[C@@H]2C3(C)C)nn1
 SMILES IDX 21 1 22 2 23 3 20 5 18 6 16 7 15 8 9 9 8 10 14 11 6 12 5 13
 SMILES IDX 10 14 11 16 12 17 13 18 7 20 4 22 2 23 1 25 3 26 17 27 19 29
 SMILES IDX 24 31 25 32 26 33 27 34 40 35 28 36 39 37 29 38 30 39 31 40
 SMILES IDX 35 41 32 42 34 43 36 44 33 45 37 46 38 47
 H PARENT 21 4 10 15 13 19 7 21 4 24 17 28 19 30
 Flexibility Score: inf
  4 active torsions:
  status: ('A' for Active; 'I' for Inactive)
    1  A    between atoms: CA   and  CB  
    2  A    between atoms: CB   and  CG  
    3  A    between atoms: CG   and  CD  
    4  A    between atoms: CD   and  CE  

>  <TORSDO>
F 16

>  <BEGIN_>
RES LYS A 131

$$$$
ligand_82_pose_5_2HRL.pdbqt
 OpenBabel07062320523D

  6  5  0  0  0  0  0  0  0  0999 V2000
   33.1930   34.6630    9.2900 C   0  0  0  0  0  0  0  0  0  0  0  0
   32.0600   35.3600   10.0340 C   0  0  0  0  0  0  0  0  0  0  0  0
   30.7120   34.7220    9.8140 C   0  0  0  0  0  0  0  0  0  0  0  0
   30.4560   34.5090    8.3300 C   0  0  0  0  0  0  0  0  0  0  0  0
   29.0060   34.7990    7.9930 C   0  0  0  0  0  0  0  0  0  0  0  0
   28.8950   35.5790    6.7290 N   0  0  0  0  0  0  0  0  0  0  0  0
  1  2  1  0  0  0  0
  3  2  1  0  0  0  0
  4  3  1  0  0  0  0
  5  4  1  0  0  0  0
  6  5  1  0  0  0  0
M  END
>  <EGIN_R>
ES LYS A 135

>  <REMARK>
  4 active torsions:
  status: ('A' for Active; 'I' for Inactive)
    5  A    between atoms: CA   and  CB  
    6  A    between atoms: CB   and  CG  
    7  A    between atoms: CG   and  CD  
    8  A    between atoms: CD   and  CE  

$$$$
