ligand_58_pose_1_2HRL.pdbqt
 OpenBabel07062320523D

 56 58  0  0  1  0  0  0  0  0999 V2000
   32.6270   36.3580   14.4680 N   0  0  0  0  0  0  0  0  0  0  0  0
   32.2600   36.2900   13.1060 C   0  0  0  0  0  0  0  0  0  0  0  0
   32.4000   35.2190   12.4690 O   0  0  0  0  0  0  0  0  0  0  0  0
   32.5020   37.2610   14.9680 H   0  0  0  0  0  0  0  0  0  0  0  0
   33.1570   35.2250   15.1600 C   0  0  0  0  0  0  0  0  0  0  0  0
   32.2530   34.9100   16.3530 C   0  0  2  0  0  0  0  0  0  0  0  0
   31.3200   33.8090   15.8760 C   0  0  2  0  0  0  0  0  0  0  0  0
   31.0790   32.7120   16.8740 C   0  0  2  0  0  0  0  0  0  0  0  0
   28.9690   31.9470   16.1610 C   0  0  2  0  0  0  0  0  0  0  0  0
   28.3070   32.5410   17.3850 C   0  0  0  0  0  0  0  0  0  0  0  0
   30.3060   31.7570   16.2420 O   0  0  0  0  0  0  0  0  0  0  0  0
   29.0900   33.6700   17.9830 C   0  0  1  0  0  0  0  0  0  0  0  0
   30.5040   33.2000   18.1450 C   0  0  1  0  0  0  0  0  0  0  0  0
   28.7110   32.8470   15.1240 O   0  0  0  0  0  0  0  0  0  0  0  0
   28.0780   32.3890   14.5020 H   0  0  0  0  0  0  0  0  0  0  0  0
   28.2450   30.6720   15.8070 C   0  0  0  0  0  0  0  0  0  0  0  0
   27.0120   30.6050   15.8140 O   0  0  0  0  0  0  0  0  0  0  0  0
   28.9970   29.5710   15.4690 O   0  0  0  0  0  0  0  0  0  0  0  0
   28.5660   28.6400   15.5150 H   0  0  0  0  0  0  0  0  0  0  0  0
   28.9420   34.7710   17.1880 O   0  0  0  0  0  0  0  0  0  0  0  0
   28.4260   35.4890   17.6490 H   0  0  0  0  0  0  0  0  0  0  0  0
   30.4830   32.1300   19.1630 N   0  0  0  0  0  0  0  0  0  0  0  0
   31.2210   32.2170   20.3560 C   0  0  0  0  0  0  0  0  0  0  0  0
   29.8990   31.2880   18.9730 H   0  0  0  0  0  0  0  0  0  0  0  0
   31.1720   31.1170   21.3550 C   0  0  0  0  0  0  0  0  0  0  0  0
   31.9340   33.2300   20.5960 O   0  0  0  0  0  0  0  0  0  0  0  0
   32.0120   33.2230   14.7530 O   0  0  0  0  0  0  0  0  0  0  0  0
   32.9250   32.9980   14.9900 H   0  0  0  0  0  0  0  0  0  0  0  0
   31.5810   36.0920   16.6240 O   0  0  0  0  0  0  0  0  0  0  0  0
   30.7950   36.2290   16.0610 H   0  0  0  0  0  0  0  0  0  0  0  0
   31.7410   37.3870   12.4310 O   0  0  0  0  0  0  0  0  0  0  0  0
   30.5920   38.0120   12.9360 C   0  0  0  0  0  0  0  0  0  0  0  0
   29.6000   36.9700   13.3070 C   0  0  0  0  0  0  0  0  0  0  0  0
   28.7190   36.3450   12.4200 C   0  0  0  0  0  0  0  0  0  0  0  0
   29.3210   36.4150   14.4990 N   0  0  0  0  0  0  0  0  0  0  0  0
   27.9720   35.4690   13.0970 N   0  0  0  0  0  0  0  0  0  0  0  0
   28.3470   35.5240   14.3470 N   0  0  0  0  0  0  0  0  0  0  0  0
   26.9260   34.5990   12.5810 C   0  0  0  0  0  0  0  0  0  0  0  0
   25.7460   34.6030   13.4460 C   0  0  0  0  0  0  0  0  0  0  0  0
   25.1510   35.7910   13.8870 C   0  0  0  0  0  0  0  0  0  0  0  0
   25.1730   33.4100   13.8380 C   0  0  0  0  0  0  0  0  0  0  0  0
   24.0300   35.7660   14.6870 C   0  0  0  0  0  0  0  0  0  0  0  0
   24.0490   33.4110   14.6400 C   0  0  0  0  0  0  0  0  0  0  0  0
   23.4540   34.5750   15.0810 C   0  0  0  0  0  0  0  0  0  0  0  0
   26.6800   34.7660   11.1460 C   0  0  0  0  0  0  0  0  0  0  0  0
   25.8190   35.7760   10.6840 C   0  0  0  0  0  0  0  0  0  0  0  0
   27.2920   33.9450   10.2300 C   0  0  0  0  0  0  0  0  0  0  0  0
   25.5930   35.9420    9.3420 C   0  0  0  0  0  0  0  0  0  0  0  0
   27.0520   34.1220    8.8630 C   0  0  0  0  0  0  0  0  0  0  0  0
   26.2080   35.1160    8.4270 C   0  0  0  0  0  0  0  0  0  0  0  0
   29.8670   25.5550   16.9770 C   0  0  0  0  0  0  0  0  0  0  0  0
   28.3450   25.7220   17.0260 C   0  0  0  0  0  0  0  0  0  0  0  0
   27.6010   24.4030   16.8860 C   0  0  0  0  0  0  0  0  0  0  0  0
   26.1640   24.5150   17.3130 C   0  0  0  0  0  0  0  0  0  0  0  0
   25.9790   23.8300   18.6640 C   0  0  0  0  0  0  0  0  0  0  0  0
   25.4430   24.7860   19.6610 N   0  0  0  0  0  0  0  0  0  0  0  0
  1  4  1  0  0  0  0
  1  5  1  0  0  0  0
  2  1  1  0  0  0  0
  3  2  2  0  0  0  0
  6  5  1  6  0  0  0
  6 29  1  0  0  0  0
  7 27  1  6  0  0  0
  7  6  1  0  0  0  0
  8  7  1  6  0  0  0
  8 13  1  0  0  0  0
  9 14  1  6  0  0  0
  9 11  1  0  0  0  0
  9 10  1  0  0  0  0
 10 12  1  0  0  0  0
 11  8  1  0  0  0  0
 12 20  1  6  0  0  0
 12 13  1  0  0  0  0
 13 22  1  1  0  0  0
 15 14  1  0  0  0  0
 16 17  2  0  0  0  0
 16  9  1  0  0  0  0
 18 19  1  0  0  0  0
 18 16  1  0  0  0  0
 20 21  1  0  0  0  0
 22 23  1  0  0  0  0
 23 26  2  0  0  0  0
 23 25  1  0  0  0  0
 24 22  1  0  0  0  0
 27 28  1  0  0  0  0
 30 29  1  0  0  0  0
 31 32  1  0  0  0  0
 31  2  1  0  0  0  0
 32 33  1  0  0  0  0
 33 35  1  0  0  0  0
 34 36  1  0  0  0  0
 34 33  2  0  0  0  0
 36 37  1  0  0  0  0
 37 35  2  0  0  0  0
 38 36  1  0  0  0  0
 38 39  1  0  0  0  0
 39 41  2  0  0  0  0
 39 40  1  0  0  0  0
 40 42  2  0  0  0  0
 41 43  1  0  0  0  0
 42 44  1  0  0  0  0
 43 44  2  0  0  0  0
 45 38  1  0  0  0  0
 46 45  1  0  0  0  0
 47 45  2  0  0  0  0
 48 46  2  0  0  0  0
 49 47  1  0  0  0  0
 50 49  2  0  0  0  0
 50 48  1  0  0  0  0
 51 52  1  0  0  0  0
 53 52  1  0  0  0  0
 53 54  1  0  0  0  0
 54 55  1  0  0  0  0
 55 56  1  0  0  0  0
M  END
>  <REMARK>
 VINA RESULT:    -5.977      2.209      3.891
 INTER + INTRA:         -16.533
 INTER:                  -9.569
 INTRA:                  -6.965
 UNBOUND:                -5.490
 SMILES CC(=O)N[C@@H]1[C@@H](O)C[C@](O)(C(=O)O)O[C@H]1C(O)[C@H](O)CNC(=O)OCc1cn(C(c2ccccc2)c2ccccc2)nn1
 SMILES IDX 21 1 22 2 23 3 20 5 18 6 16 7 15 8 9 9 8 10 14 11 6 12 5 13
 SMILES IDX 10 14 11 16 12 17 13 18 7 20 4 22 2 23 1 25 3 26 17 27 19 29
 SMILES IDX 24 31 25 32 26 33 27 34 43 35 28 36 42 37 29 38 30 39 31 40
 SMILES IDX 35 41 32 42 34 43 33 44 36 45 37 46 41 47 38 48 40 49 39 50
 H PARENT 21 4 10 15 13 19 7 21 4 24 17 28 19 30
 Flexibility Score: inf
  4 active torsions:
  status: ('A' for Active; 'I' for Inactive)
    1  A    between atoms: CA   and  CB  
    2  A    between atoms: CB   and  CG  
    3  A    between atoms: CG   and  CD  
    4  A    between atoms: CD   and  CE  

>  <TORSDO>
F 17

>  <BEGIN_>
RES LYS A 131

$$$$
ligand_58_pose_1_2HRL.pdbqt
 OpenBabel07062320523D

  6  5  0  0  0  0  0  0  0  0999 V2000
   33.1930   34.6630    9.2900 C   0  0  0  0  0  0  0  0  0  0  0  0
   32.0600   35.3600   10.0340 C   0  0  0  0  0  0  0  0  0  0  0  0
   30.6890   34.9710    9.5440 C   0  0  0  0  0  0  0  0  0  0  0  0
   30.7490   34.4950    8.1010 C   0  0  0  0  0  0  0  0  0  0  0  0
   29.7510   35.2530    7.2480 C   0  0  0  0  0  0  0  0  0  0  0  0
   29.4530   36.5900    7.8310 N   0  0  0  0  0  0  0  0  0  0  0  0
  1  2  1  0  0  0  0
  3  2  1  0  0  0  0
  4  3  1  0  0  0  0
  5  6  1  0  0  0  0
  5  4  1  0  0  0  0
M  END
>  <EGIN_R>
ES LYS A 135

>  <REMARK>
  4 active torsions:
  status: ('A' for Active; 'I' for Inactive)
    5  A    between atoms: CA   and  CB  
    6  A    between atoms: CB   and  CG  
    7  A    between atoms: CG   and  CD  
    8  A    between atoms: CD   and  CE  

$$$$
