ligand_76_pose_2_2HRL.pdbqt
 OpenBabel07062320523D

 55 56  0  0  1  0  0  0  0  0999 V2000
   28.2700   30.1420   19.7610 O   0  0  0  0  0  0  0  0  0  0  0  0
   28.9660   31.0170   18.9460 C   0  0  0  0  0  0  0  0  0  0  0  0
   29.8230   30.5330   17.9360 N   0  0  0  0  0  0  0  0  0  0  0  0
   29.9290   29.5100   17.8090 H   0  0  0  0  0  0  0  0  0  0  0  0
   28.8380   32.2520   19.1000 O   0  0  0  0  0  0  0  0  0  0  0  0
   30.5710   31.4190   17.0550 C   0  0  0  0  0  0  0  0  0  0  0  0
   29.9060   31.5160   15.6940 C   0  0  2  0  0  0  0  0  0  0  0  0
   29.0900   32.7980   15.6580 C   0  0  1  0  0  0  0  0  0  0  0  0
   29.4230   33.6000   14.3960 C   0  0  2  0  0  0  0  0  0  0  0  0
   31.4030   34.8020   14.6900 C   0  0  2  0  0  0  0  0  0  0  0  0
   30.5870   35.7970   15.4390 C   0  0  0  0  0  0  0  0  0  0  0  0
   30.7460   33.7430   14.1720 O   0  0  0  0  0  0  0  0  0  0  0  0
   29.2640   36.0820   14.8240 C   0  0  1  0  0  0  0  0  0  0  0  0
   28.5740   34.8320   14.3490 C   0  0  1  0  0  0  0  0  0  0  0  0
   32.3830   34.3130   15.5870 O   0  0  0  0  0  0  0  0  0  0  0  0
   32.6530   33.4000   15.3110 H   0  0  0  0  0  0  0  0  0  0  0  0
   32.1680   35.5490   13.6280 C   0  0  0  0  0  0  0  0  0  0  0  0
   32.2690   36.7980   13.6130 O   0  0  0  0  0  0  0  0  0  0  0  0
   32.8140   34.8680   12.5910 O   0  0  0  0  0  0  0  0  0  0  0  0
   32.8320   35.2680   11.6420 H   0  0  0  0  0  0  0  0  0  0  0  0
   28.4770   36.7870   15.7640 O   0  0  0  0  0  0  0  0  0  0  0  0
   28.2480   36.1950   16.5410 H   0  0  0  0  0  0  0  0  0  0  0  0
   28.0060   35.0110   13.0110 N   0  0  0  0  0  0  0  0  0  0  0  0
   26.7130   34.5720   12.6920 C   0  0  0  0  0  0  0  0  0  0  0  0
   28.6310   35.4920   12.2980 H   0  0  0  0  0  0  0  0  0  0  0  0
   26.1850   34.7740   11.3320 C   0  0  0  0  0  0  0  0  0  0  0  0
   26.0040   34.0110   13.5500 O   0  0  0  0  0  0  0  0  0  0  0  0
   27.7590   32.3850   15.4780 O   0  0  0  0  0  0  0  0  0  0  0  0
   27.1180   33.1500   15.5890 H   0  0  0  0  0  0  0  0  0  0  0  0
   29.0800   30.4180   15.4880 O   0  0  0  0  0  0  0  0  0  0  0  0
   28.3420   30.7120   14.9020 H   0  0  0  0  0  0  0  0  0  0  0  0
   27.7010   28.9920   19.1140 C   0  0  0  0  0  0  0  0  0  0  0  0
   26.5130   29.3880   18.3270 C   0  0  0  0  0  0  0  0  0  0  0  0
   26.1760   29.0670   17.0330 C   0  0  0  0  0  0  0  0  0  0  0  0
   25.5210   30.1680   18.7910 N   0  0  0  0  0  0  0  0  0  0  0  0
   25.0050   29.6520   16.7470 N   0  0  0  0  0  0  0  0  0  0  0  0
   24.6280   30.3020   17.8020 N   0  0  0  0  0  0  0  0  0  0  0  0
   24.2500   29.5920   15.4750 C   0  0  0  0  0  0  0  0  0  0  0  0
   24.8260   30.6110   14.5410 C   0  0  2  0  0  0  0  0  0  0  0  0
   24.9240   31.8740   15.1410 O   0  0  0  0  0  0  0  0  0  0  0  0
   25.5100   31.7730   15.9450 H   0  0  0  0  0  0  0  0  0  0  0  0
   24.4250   30.5540   13.1540 C   0  0  0  0  0  0  0  0  0  0  0  0
   23.4980   29.5080   12.7070 C   0  0  0  0  0  0  0  0  0  0  0  0
   22.1160   29.9260   12.5400 C   0  0  0  0  0  0  0  0  0  0  0  0
   21.1750   28.9580   12.1690 C   0  0  0  0  0  0  0  0  0  0  0  0
   21.6540   31.2010   12.6440 C   0  0  0  0  0  0  0  0  0  0  0  0
   19.8640   29.2960   11.9280 C   0  0  0  0  0  0  0  0  0  0  0  0
   20.3390   31.5620   12.4060 C   0  0  0  0  0  0  0  0  0  0  0  0
   19.4250   30.5950   12.0410 C   0  0  0  0  0  0  0  0  0  0  0  0
   29.8670   25.5550   16.9770 C   0  0  0  0  0  0  0  0  0  0  0  0
   28.3450   25.7220   17.0260 C   0  0  0  0  0  0  0  0  0  0  0  0
   27.6020   24.3990   16.9230 C   0  0  0  0  0  0  0  0  0  0  0  0
   26.1740   24.5150   17.3790 C   0  0  0  0  0  0  0  0  0  0  0  0
   26.1300   25.1670   18.7570 C   0  0  0  0  0  0  0  0  0  0  0  0
   25.3610   24.3260   19.7050 N   0  0  0  0  0  0  0  0  0  0  0  0
  2  5  2  0  0  0  0
  2  1  1  0  0  0  0
  3  2  1  0  0  0  0
  4  3  1  0  0  0  0
  6  3  1  0  0  0  0
  7  6  1  1  0  0  0
  8 28  1  6  0  0  0
  8  7  1  0  0  0  0
  9  8  1  1  0  0  0
 10 17  1  6  0  0  0
 10 11  1  0  0  0  0
 10 15  1  0  0  0  0
 12  9  1  0  0  0  0
 12 10  1  0  0  0  0
 13 11  1  0  0  0  0
 13 21  1  1  0  0  0
 14 23  1  6  0  0  0
 14  9  1  0  0  0  0
 14 13  1  0  0  0  0
 16 15  1  0  0  0  0
 18 17  2  0  0  0  0
 19 17  1  0  0  0  0
 20 19  1  0  0  0  0
 21 22  1  0  0  0  0
 24 23  1  0  0  0  0
 24 27  2  0  0  0  0
 25 23  1  0  0  0  0
 26 24  1  0  0  0  0
 28 29  1  0  0  0  0
 30  7  1  0  0  0  0
 31 30  1  0  0  0  0
 32  1  1  0  0  0  0
 33 35  1  0  0  0  0
 33 32  1  0  0  0  0
 34 33  2  0  0  0  0
 36 34  1  0  0  0  0
 36 37  1  0  0  0  0
 37 35  2  0  0  0  0
 38 36  1  0  0  0  0
 39 42  1  6  0  0  0
 39 40  1  0  0  0  0
 39 38  1  0  0  0  0
 40 41  1  0  0  0  0
 43 42  1  0  0  0  0
 44 46  1  0  0  0  0
 44 43  1  0  0  0  0
 45 44  2  0  0  0  0
 47 49  2  0  0  0  0
 47 45  1  0  0  0  0
 48 46  2  0  0  0  0
 49 48  1  0  0  0  0
 50 51  1  0  0  0  0
 52 51  1  0  0  0  0
 52 53  1  0  0  0  0
 53 54  1  0  0  0  0
 54 55  1  0  0  0  0
M  END
>  <REMARK>
 VINA RESULT:    -5.191      5.017      9.934
 INTER + INTRA:         -17.120
 INTER:                 -10.794
 INTRA:                  -6.326
 UNBOUND:                -6.771
 SMILES CC(=O)N[C@@H]1[C@@H](O)C[C@](O)(C(=O)O)O[C@H]1C(O)[C@H](O)CNC(=O)OCc1cn(CC(O)CCc2ccccc2)nn1
 SMILES IDX 24 1 22 2 21 3 23 5 20 6 18 7 16 8 15 9 9 10 8 11 14 12 6 13
 SMILES IDX 5 14 10 15 11 17 12 18 13 19 7 21 4 23 2 24 1 26 3 27 17 28
 SMILES IDX 19 30 25 32 26 33 27 34 41 35 28 36 40 37 29 38 30 39 31 40
 SMILES IDX 32 42 33 43 34 44 35 45 39 46 36 47 38 48 37 49
 H PARENT 21 4 10 16 13 20 7 22 4 25 17 29 19 31 31 41
 Flexibility Score: inf
  4 active torsions:
  status: ('A' for Active; 'I' for Inactive)
    1  A    between atoms: CA   and  CB  
    2  A    between atoms: CB   and  CG  
    3  A    between atoms: CG   and  CD  
    4  A    between atoms: CD   and  CE  

>  <TORSDO>
F 20

>  <BEGIN_>
RES LYS A 131

$$$$
ligand_76_pose_2_2HRL.pdbqt
 OpenBabel07062320523D

  6  5  0  0  0  0  0  0  0  0999 V2000
   33.1930   34.6630    9.2900 C   0  0  0  0  0  0  0  0  0  0  0  0
   32.0600   35.3600   10.0340 C   0  0  0  0  0  0  0  0  0  0  0  0
   30.7100   34.7310    9.8020 C   0  0  0  0  0  0  0  0  0  0  0  0
   30.5010   34.4390    8.3240 C   0  0  0  0  0  0  0  0  0  0  0  0
   29.3880   35.3040    7.7640 C   0  0  0  0  0  0  0  0  0  0  0  0
   28.0510   34.7280    8.0800 N   0  0  0  0  0  0  0  0  0  0  0  0
  1  2  1  0  0  0  0
  3  2  1  0  0  0  0
  4  3  1  0  0  0  0
  5  6  1  0  0  0  0
  5  4  1  0  0  0  0
M  END
>  <EGIN_R>
ES LYS A 135

>  <REMARK>
  4 active torsions:
  status: ('A' for Active; 'I' for Inactive)
    5  A    between atoms: CA   and  CB  
    6  A    between atoms: CB   and  CG  
    7  A    between atoms: CG   and  CD  
    8  A    between atoms: CD   and  CE  

$$$$
