ligand_56_pose_17_2HRL.pdbqt
 OpenBabel07062320523D

 49 50  0  0  1  0  0  0  0  0999 V2000
   25.2710   34.6110   15.4780 C   0  0  0  0  0  0  0  0  0  0  0  0
   26.2060   34.3600   16.6080 C   0  0  2  0  0  0  0  0  0  0  0  0
   27.6550   34.6340   16.2400 C   0  0  2  0  0  0  0  0  0  0  0  0
   28.5260   33.4320   16.3160 C   0  0  2  0  0  0  0  0  0  0  0  0
   29.8990   32.1820   17.6860 C   0  0  2  0  0  0  0  0  0  0  0  0
   30.1550   31.3840   16.4310 C   0  0  0  0  0  0  0  0  0  0  0  0
   28.8340   33.0360   17.5870 O   0  0  0  0  0  0  0  0  0  0  0  0
   30.3460   32.2530   15.2190 C   0  0  1  0  0  0  0  0  0  0  0  0
   29.8310   33.6360   15.5630 C   0  0  1  0  0  0  0  0  0  0  0  0
   31.0470   32.8430   18.1240 O   0  0  0  0  0  0  0  0  0  0  0  0
   31.8210   32.2230   18.2080 H   0  0  0  0  0  0  0  0  0  0  0  0
   29.5610   31.1820   18.7580 C   0  0  0  0  0  0  0  0  0  0  0  0
   30.3940   30.4100   19.2580 O   0  0  0  0  0  0  0  0  0  0  0  0
   28.2320   31.1650   19.1710 O   0  0  0  0  0  0  0  0  0  0  0  0
   27.4830   31.0800   18.4870 H   0  0  0  0  0  0  0  0  0  0  0  0
   31.6830   32.3180   14.8280 O   0  0  0  0  0  0  0  0  0  0  0  0
   31.7550   32.1090   13.8650 H   0  0  0  0  0  0  0  0  0  0  0  0
   29.6560   34.4520   14.3840 N   0  0  0  0  0  0  0  0  0  0  0  0
   30.4790   35.5900   14.1570 C   0  0  0  0  0  0  0  0  0  0  0  0
   28.9330   34.2360   13.6750 H   0  0  0  0  0  0  0  0  0  0  0  0
   30.3260   36.4570   12.9460 C   0  0  0  0  0  0  0  0  0  0  0  0
   31.3650   35.8750   15.0020 O   0  0  0  0  0  0  0  0  0  0  0  0
   28.1210   35.7620   16.8630 O   0  0  0  0  0  0  0  0  0  0  0  0
   29.0470   35.5950   17.1890 H   0  0  0  0  0  0  0  0  0  0  0  0
   26.1740   33.0530   17.0610 O   0  0  0  0  0  0  0  0  0  0  0  0
   26.2580   32.9680   18.0370 H   0  0  0  0  0  0  0  0  0  0  0  0
   24.8080   33.3820   14.9000 N   0  0  0  0  0  0  0  0  0  0  0  0
   23.5880   32.7310   15.1160 C   0  0  0  0  0  0  0  0  0  0  0  0
   25.4690   32.8810   14.2100 H   0  0  0  0  0  0  0  0  0  0  0  0
   22.7490   33.1960   15.8890 O   0  0  0  0  0  0  0  0  0  0  0  0
   23.2470   31.5250   14.4740 O   0  0  0  0  0  0  0  0  0  0  0  0
   24.2920   30.6540   14.0250 C   0  0  0  0  0  0  0  0  0  0  0  0
   25.1170   30.1970   15.1470 C   0  0  0  0  0  0  0  0  0  0  0  0
   24.8430   29.2520   16.1090 C   0  0  0  0  0  0  0  0  0  0  0  0
   26.3530   30.6610   15.4310 N   0  0  0  0  0  0  0  0  0  0  0  0
   25.9210   29.1900   16.9240 N   0  0  0  0  0  0  0  0  0  0  0  0
   26.8240   30.0410   16.5070 N   0  0  0  0  0  0  0  0  0  0  0  0
   26.0800   28.3420   18.0640 C   0  0  0  0  0  0  0  0  0  0  0  0
   27.3480   27.9570   18.4270 C   0  0  0  0  0  0  0  0  0  0  0  0
   24.9710   27.9180   18.7850 C   0  0  0  0  0  0  0  0  0  0  0  0
   27.4840   27.1390   19.5280 C   0  0  0  0  0  0  0  0  0  0  0  0
   25.1580   27.1090   19.8680 C   0  0  0  0  0  0  0  0  0  0  0  0
   26.4080   26.7380   20.2160 N   0  0  0  0  0  0  0  0  0  0  0  0
   29.8670   25.5550   16.9770 C   0  0  0  0  0  0  0  0  0  0  0  0
   28.3450   25.7220   17.0260 C   0  0  0  0  0  0  0  0  0  0  0  0
   27.6020   24.3990   16.9170 C   0  0  0  0  0  0  0  0  0  0  0  0
   26.1490   24.5350   17.2800 C   0  0  0  0  0  0  0  0  0  0  0  0
   25.7410   23.3780   18.1870 C   0  0  0  0  0  0  0  0  0  0  0  0
   24.6910   22.5560   17.5400 N   0  0  0  0  0  0  0  0  0  0  0  0
  2  1  1  6  0  0  0
  2 25  1  0  0  0  0
  3  2  1  0  0  0  0
  3 23  1  1  0  0  0
  4  3  1  1  0  0  0
  4  7  1  0  0  0  0
  5 10  1  1  0  0  0
  5 12  1  0  0  0  0
  6  5  1  0  0  0  0
  7  5  1  0  0  0  0
  8 16  1  1  0  0  0
  8  9  1  0  0  0  0
  8  6  1  0  0  0  0
  9 18  1  6  0  0  0
  9  4  1  0  0  0  0
 10 11  1  0  0  0  0
 12 14  1  0  0  0  0
 12 13  2  0  0  0  0
 15 14  1  0  0  0  0
 17 16  1  0  0  0  0
 19 18  1  0  0  0  0
 19 22  2  0  0  0  0
 20 18  1  0  0  0  0
 21 19  1  0  0  0  0
 23 24  1  0  0  0  0
 25 26  1  0  0  0  0
 27 28  1  0  0  0  0
 27  1  1  0  0  0  0
 28 30  2  0  0  0  0
 29 27  1  0  0  0  0
 31 28  1  0  0  0  0
 32 31  1  0  0  0  0
 32 33  1  0  0  0  0
 33 35  1  0  0  0  0
 33 34  2  0  0  0  0
 34 36  1  0  0  0  0
 35 37  2  0  0  0  0
 36 38  1  0  0  0  0
 37 36  1  0  0  0  0
 38 39  2  0  0  0  0
 38 40  1  0  0  0  0
 39 41  1  0  0  0  0
 40 42  2  0  0  0  0
 41 43  2  0  0  0  0
 42 43  1  0  0  0  0
 44 45  1  0  0  0  0
 46 45  1  0  0  0  0
 46 47  1  0  0  0  0
 47 48  1  0  0  0  0
 49 48  1  0  0  0  0
M  END
>  <REMARK>
 VINA RESULT:    -4.739      4.029      7.108
 INTER + INTRA:         -13.475
 INTER:                  -7.079
 INTRA:                  -6.396
 UNBOUND:                -5.272
 SMILES CC(=O)N[C@@H]1[C@@H](O)C[C@](O)(C(=O)O)O[C@H]1C(O)[C@H](O)CNC(=O)OCc1cn(-c2ccncc2)nn1
 SMILES IDX 20 1 18 2 16 3 15 4 9 5 8 6 14 7 6 8 5 9 10 10 11 12 12 13
 SMILES IDX 13 14 7 16 4 18 2 19 1 21 3 22 17 23 19 25 21 27 22 28 23 30
 SMILES IDX 24 31 25 32 26 33 27 34 36 35 28 36 35 37 29 38 30 39 34 40
 SMILES IDX 31 41 33 42 32 43
 H PARENT 10 11 13 15 7 17 4 20 17 24 19 26 21 29
 Flexibility Score: inf
  4 active torsions:
  status: ('A' for Active; 'I' for Inactive)
    1  A    between atoms: CA   and  CB  
    2  A    between atoms: CB   and  CG  
    3  A    between atoms: CG   and  CD  
    4  A    between atoms: CD   and  CE  

>  <TORSDO>
F 15

>  <BEGIN_>
RES LYS A 131

$$$$
ligand_56_pose_17_2HRL.pdbqt
 OpenBabel07062320523D

  6  5  0  0  0  0  0  0  0  0999 V2000
   33.1930   34.6630    9.2900 C   0  0  0  0  0  0  0  0  0  0  0  0
   32.0600   35.3600   10.0340 C   0  0  0  0  0  0  0  0  0  0  0  0
   30.7090   34.7360    9.7960 C   0  0  0  0  0  0  0  0  0  0  0  0
   30.4670   34.5320    8.3080 C   0  0  0  0  0  0  0  0  0  0  0  0
   29.0210   34.8250    7.9580 C   0  0  0  0  0  0  0  0  0  0  0  0
   28.9180   35.5310    6.6510 N   0  0  0  0  0  0  0  0  0  0  0  0
  1  2  1  0  0  0  0
  3  2  1  0  0  0  0
  4  3  1  0  0  0  0
  5  4  1  0  0  0  0
  6  5  1  0  0  0  0
M  END
>  <EGIN_R>
ES LYS A 135

>  <REMARK>
  4 active torsions:
  status: ('A' for Active; 'I' for Inactive)
    5  A    between atoms: CA   and  CB  
    6  A    between atoms: CB   and  CG  
    7  A    between atoms: CG   and  CD  
    8  A    between atoms: CD   and  CE  

$$$$
