ligand_36_pose_11_2HRL.pdbqt
 OpenBabel07062320523D

 52 53  0  0  1  0  0  0  0  0999 V2000
   26.9180   35.2740    8.7820 N   0  0  0  0  0  0  0  0  0  0  0  0
   27.5450   34.4920    9.7960 C   0  0  0  0  0  0  0  0  0  0  0  0
   28.5660   33.7820    9.4910 O   0  0  0  0  0  0  0  0  0  0  0  0
   26.0960   35.8430    9.0550 H   0  0  0  0  0  0  0  0  0  0  0  0
   27.4320   35.2480    7.4620 C   0  0  0  0  0  0  0  0  0  0  0  0
   28.4930   36.2720    7.1350 C   0  0  2  0  0  0  0  0  0  0  0  0
   28.2860   36.9380    5.7890 C   0  0  2  0  0  0  0  0  0  0  0  0
   28.5860   38.3980    5.8140 C   0  0  2  0  0  0  0  0  0  0  0  0
   30.1730   39.9200    6.5780 C   0  0  2  0  0  0  0  0  0  0  0  0
   29.2860   40.9050    5.8510 C   0  0  0  0  0  0  0  0  0  0  0  0
   29.8790   38.6180    6.3050 O   0  0  0  0  0  0  0  0  0  0  0  0
   27.8370   40.6900    6.1100 C   0  0  1  0  0  0  0  0  0  0  0  0
   27.6640   39.2510    6.6260 C   0  0  1  0  0  0  0  0  0  0  0  0
   30.1120   40.2060    7.9600 O   0  0  0  0  0  0  0  0  0  0  0  0
   29.4780   40.9730    8.0770 H   0  0  0  0  0  0  0  0  0  0  0  0
   31.5580   40.1880    6.1390 C   0  0  0  0  0  0  0  0  0  0  0  0
   31.8080   41.2300    5.4920 O   0  0  0  0  0  0  0  0  0  0  0  0
   32.5680   39.3040    6.4370 O   0  0  0  0  0  0  0  0  0  0  0  0
   32.4800   38.5060    7.0400 H   0  0  0  0  0  0  0  0  0  0  0  0
   27.2730   41.6000    6.9820 O   0  0  0  0  0  0  0  0  0  0  0  0
   26.5320   41.1200    7.4650 H   0  0  0  0  0  0  0  0  0  0  0  0
   26.2840   38.8770    6.6160 N   0  0  0  0  0  0  0  0  0  0  0  0
   25.6170   38.4580    7.8190 C   0  0  0  0  0  0  0  0  0  0  0  0
   25.6940   38.8990    5.7360 H   0  0  0  0  0  0  0  0  0  0  0  0
   24.1760   38.0690    7.7970 C   0  0  0  0  0  0  0  0  0  0  0  0
   26.2320   38.4080    8.9110 O   0  0  0  0  0  0  0  0  0  0  0  0
   27.0840   36.5920    5.2630 O   0  0  0  0  0  0  0  0  0  0  0  0
   26.9840   36.6890    4.3150 H   0  0  0  0  0  0  0  0  0  0  0  0
   29.6960   35.5220    7.0970 O   0  0  0  0  0  0  0  0  0  0  0  0
   30.4670   36.0540    7.3670 H   0  0  0  0  0  0  0  0  0  0  0  0
   27.1310   34.4370   11.1140 O   0  0  0  0  0  0  0  0  0  0  0  0
   27.6960   35.3340   12.0440 C   0  0  0  0  0  0  0  0  0  0  0  0
   28.3330   34.6290   13.1810 C   0  0  0  0  0  0  0  0  0  0  0  0
   29.6500   34.2140   13.3020 C   0  0  0  0  0  0  0  0  0  0  0  0
   27.7220   34.2670   14.3160 N   0  0  0  0  0  0  0  0  0  0  0  0
   29.7920   33.6230   14.4920 N   0  0  0  0  0  0  0  0  0  0  0  0
   28.6150   33.6710   15.0780 N   0  0  0  0  0  0  0  0  0  0  0  0
   30.9970   33.0460   15.0490 C   0  0  0  0  0  0  0  0  0  0  0  0
   31.9230   34.0290   15.6110 C   0  0  0  0  0  0  0  0  0  0  0  0
   32.8980   34.5840   14.8220 C   0  0  0  0  0  0  0  0  0  0  0  0
   31.8180   34.3950   16.9440 C   0  0  0  0  0  0  0  0  0  0  0  0
   33.7830   35.5100   15.3400 C   0  0  0  0  0  0  0  0  0  0  0  0
   32.6950   35.3230   17.4890 C   0  0  0  0  0  0  0  0  0  0  0  0
   33.6790   35.8740   16.6660 C   0  0  0  0  0  0  0  0  0  0  0  0
   34.5940   36.8320   17.2150 C   0  0  0  0  0  0  0  0  0  0  0  0
   35.3340   37.6120   17.6790 N   0  0  0  0  0  0  0  0  0  0  0  0
   29.8670   25.5550   16.9770 C   0  0  0  0  0  0  0  0  0  0  0  0
   28.3450   25.7220   17.0260 C   0  0  0  0  0  0  0  0  0  0  0  0
   27.5990   24.4390   16.6950 C   0  0  0  0  0  0  0  0  0  0  0  0
   27.0120   23.7920   17.9190 C   0  0  0  0  0  0  0  0  0  0  0  0
   25.6080   23.2870   17.6040 C   0  0  0  0  0  0  0  0  0  0  0  0
   24.8100   24.3470   16.9440 N   0  0  0  0  0  0  0  0  0  0  0  0
  1  4  1  0  0  0  0
  1  2  1  0  0  0  0
  2 31  1  0  0  0  0
  3  2  2  0  0  0  0
  5  1  1  0  0  0  0
  6  5  1  6  0  0  0
  7 27  1  1  0  0  0
  7  6  1  0  0  0  0
  8  7  1  1  0  0  0
  8 11  1  0  0  0  0
  8 13  1  0  0  0  0
  9 16  1  6  0  0  0
  9 14  1  0  0  0  0
 10 12  1  0  0  0  0
 10  9  1  0  0  0  0
 11  9  1  0  0  0  0
 12 13  1  0  0  0  0
 12 20  1  1  0  0  0
 13 22  1  6  0  0  0
 14 15  1  0  0  0  0
 16 18  1  0  0  0  0
 17 16  2  0  0  0  0
 18 19  1  0  0  0  0
 20 21  1  0  0  0  0
 22 23  1  0  0  0  0
 23 26  2  0  0  0  0
 24 22  1  0  0  0  0
 25 23  1  0  0  0  0
 28 27  1  0  0  0  0
 29  6  1  0  0  0  0
 29 30  1  0  0  0  0
 31 32  1  0  0  0  0
 32 33  1  0  0  0  0
 33 34  2  0  0  0  0
 33 35  1  0  0  0  0
 34 36  1  0  0  0  0
 35 37  2  0  0  0  0
 36 38  1  0  0  0  0
 36 37  1  0  0  0  0
 38 39  1  0  0  0  0
 39 41  2  0  0  0  0
 40 42  2  0  0  0  0
 40 39  1  0  0  0  0
 41 43  1  0  0  0  0
 42 44  1  0  0  0  0
 44 45  1  0  0  0  0
 44 43  2  0  0  0  0
 45 46  3  0  0  0  0
 47 48  1  0  0  0  0
 49 48  1  0  0  0  0
 49 50  1  0  0  0  0
 51 50  1  0  0  0  0
 52 51  1  0  0  0  0
M  END
>  <REMARK>
 VINA RESULT:    -4.210      6.653     12.534
 INTER + INTRA:         -14.760
 INTER:                 -10.774
 INTRA:                  -3.986
 UNBOUND:                -6.980
 SMILES CC(=O)N[C@@H]1[C@@H](O)C[C@](O)(C(=O)O)O[C@H]1C(O)[C@H](O)CNC(=O)OCc1cn(Cc2ccc(C#N)cc2)nn1
 SMILES IDX 21 1 22 2 23 3 20 5 18 6 16 7 15 8 9 9 8 10 14 11 6 12 5 13
 SMILES IDX 10 14 11 16 12 17 13 18 7 20 4 22 2 23 1 25 3 26 17 27 19 29
 SMILES IDX 24 31 25 32 26 33 27 34 39 35 28 36 38 37 29 38 30 39 31 40
 SMILES IDX 37 41 32 42 36 43 33 44 34 45 35 46
 H PARENT 21 4 10 15 13 19 7 21 4 24 17 28 19 30
 Flexibility Score: inf
  4 active torsions:
  status: ('A' for Active; 'I' for Inactive)
    1  A    between atoms: CA   and  CB  
    2  A    between atoms: CB   and  CG  
    3  A    between atoms: CG   and  CD  
    4  A    between atoms: CD   and  CE  

>  <TORSDO>
F 17

>  <BEGIN_>
RES LYS A 131

$$$$
ligand_36_pose_11_2HRL.pdbqt
 OpenBabel07062320523D

  6  5  0  0  0  0  0  0  0  0999 V2000
   33.1930   34.6630    9.2900 C   0  0  0  0  0  0  0  0  0  0  0  0
   32.0600   35.3600   10.0340 C   0  0  0  0  0  0  0  0  0  0  0  0
   32.4990   36.0290   11.3110 C   0  0  0  0  0  0  0  0  0  0  0  0
   31.7580   37.3420   11.5120 C   0  0  0  0  0  0  0  0  0  0  0  0
   30.9830   37.7120   10.2620 C   0  0  0  0  0  0  0  0  0  0  0  0
   29.5510   37.9740   10.5760 N   0  0  0  0  0  0  0  0  0  0  0  0
  1  2  1  0  0  0  0
  2  3  1  0  0  0  0
  3  4  1  0  0  0  0
  5  6  1  0  0  0  0
  5  4  1  0  0  0  0
M  END
>  <EGIN_R>
ES LYS A 135

>  <REMARK>
  4 active torsions:
  status: ('A' for Active; 'I' for Inactive)
    5  A    between atoms: CA   and  CB  
    6  A    between atoms: CB   and  CG  
    7  A    between atoms: CG   and  CD  
    8  A    between atoms: CD   and  CE  

$$$$
