ligand_6_pose_14_2HRL.pdbqt
 OpenBabel07062320523D

 52 53  0  0  1  0  0  0  0  0999 V2000
   17.3660   32.3940    8.7780 N   0  0  0  0  0  0  0  0  0  0  0  0
   16.4330   31.4090    8.4030 C   0  0  0  0  0  0  0  0  0  0  0  0
   15.7630   31.4670    7.3560 O   0  0  0  0  0  0  0  0  0  0  0  0
   17.9030   32.2120    9.6950 H   0  0  0  0  0  0  0  0  0  0  0  0
   17.6350   33.5720    8.0510 C   0  0  0  0  0  0  0  0  0  0  0  0
   18.9940   34.1490    8.0360 C   0  0  2  0  0  0  0  0  0  0  0  0
   19.5280   34.9520    9.1300 C   0  0  2  0  0  0  0  0  0  0  0  0
   20.8480   35.6400    8.7640 C   0  0  2  0  0  0  0  0  0  0  0  0
   22.8370   36.2500    9.8030 C   0  0  2  0  0  0  0  0  0  0  0  0
   23.1470   36.8060    8.4320 C   0  0  0  0  0  0  0  0  0  0  0  0
   21.7440   35.4140    9.8290 O   0  0  0  0  0  0  0  0  0  0  0  0
   21.9980   37.5590    7.8370 C   0  0  1  0  0  0  0  0  0  0  0  0
   20.7340   37.1110    8.5960 C   0  0  1  0  0  0  0  0  0  0  0  0
   22.7230   37.3250   10.6680 O   0  0  0  0  0  0  0  0  0  0  0  0
   21.9700   37.1710   11.2730 H   0  0  0  0  0  0  0  0  0  0  0  0
   24.0180   35.4450   10.2100 C   0  0  0  0  0  0  0  0  0  0  0  0
   24.9760   35.2590    9.4150 O   0  0  0  0  0  0  0  0  0  0  0  0
   24.0980   34.8810   11.4720 O   0  0  0  0  0  0  0  0  0  0  0  0
   24.3670   35.4240   12.2950 H   0  0  0  0  0  0  0  0  0  0  0  0
   22.1360   38.9280    7.8630 O   0  0  0  0  0  0  0  0  0  0  0  0
   21.5600   39.3090    7.1540 H   0  0  0  0  0  0  0  0  0  0  0  0
   19.6250   37.5540    7.7770 N   0  0  0  0  0  0  0  0  0  0  0  0
   18.8610   38.7100    8.1500 C   0  0  0  0  0  0  0  0  0  0  0  0
   19.3380   37.0720    6.9050 H   0  0  0  0  0  0  0  0  0  0  0  0
   17.7170   39.2190    7.3620 C   0  0  0  0  0  0  0  0  0  0  0  0
   19.1930   39.3040    9.1970 O   0  0  0  0  0  0  0  0  0  0  0  0
   19.6490   34.2290   10.2880 O   0  0  0  0  0  0  0  0  0  0  0  0
   20.1000   33.3590   10.2160 H   0  0  0  0  0  0  0  0  0  0  0  0
   19.1100   34.7910    6.7690 O   0  0  0  0  0  0  0  0  0  0  0  0
   19.1410   34.1080    6.0500 H   0  0  0  0  0  0  0  0  0  0  0  0
   16.2660   30.3100    9.2750 O   0  0  0  0  0  0  0  0  0  0  0  0
   16.4010   30.5840   10.6560 C   0  0  0  0  0  0  0  0  0  0  0  0
   17.7550   30.1440   11.1370 C   0  0  0  0  0  0  0  0  0  0  0  0
   18.7900   30.9420   11.5730 C   0  0  0  0  0  0  0  0  0  0  0  0
   18.2310   28.8790   11.2390 N   0  0  0  0  0  0  0  0  0  0  0  0
   19.8490   30.1730   11.9230 N   0  0  0  0  0  0  0  0  0  0  0  0
   19.4570   28.9360   11.7010 N   0  0  0  0  0  0  0  0  0  0  0  0
   21.1070   30.6220   12.4210 C   0  0  0  0  0  0  0  0  0  0  0  0
   22.2010   29.7890   12.5090 C   0  0  0  0  0  0  0  0  0  0  0  0
   21.2830   31.9290   12.8380 C   0  0  0  0  0  0  0  0  0  0  0  0
   23.4110   30.2460   12.9930 C   0  0  0  0  0  0  0  0  0  0  0  0
   22.4930   32.3870   13.3230 C   0  0  0  0  0  0  0  0  0  0  0  0
   23.5890   31.5560   13.4120 C   0  0  0  0  0  0  0  0  0  0  0  0
   24.8250   32.0330   13.9080 N   0  0  0  0  0  0  0  0  0  0  0  0
   25.4730   31.3100   14.6850 O   0  0  0  0  0  0  0  0  0  0  0  0
   25.3560   33.2490   13.5820 O   0  0  0  0  0  0  0  0  0  0  0  0
   29.8670   25.5550   16.9770 C   0  0  0  0  0  0  0  0  0  0  0  0
   28.3450   25.7220   17.0260 C   0  0  0  0  0  0  0  0  0  0  0  0
   27.6020   24.3990   16.9250 C   0  0  0  0  0  0  0  0  0  0  0  0
   26.2900   24.4280   17.6600 C   0  0  0  0  0  0  0  0  0  0  0  0
   25.6220   23.0610   17.5630 C   0  0  0  0  0  0  0  0  0  0  0  0
   24.2380   23.1950   17.0480 N   0  0  0  0  0  0  0  0  0  0  0  0
  1  4  1  0  0  0  0
  2  1  1  0  0  0  0
  2 31  1  0  0  0  0
  3  2  2  0  0  0  0
  5  1  1  0  0  0  0
  6  5  1  1  0  0  0
  6  7  1  0  0  0  0
  7 27  1  1  0  0  0
  8  7  1  1  0  0  0
  8 11  1  0  0  0  0
  9 11  1  0  0  0  0
  9 16  1  1  0  0  0
  9 14  1  0  0  0  0
 10  9  1  0  0  0  0
 12 20  1  1  0  0  0
 12 10  1  0  0  0  0
 12 13  1  0  0  0  0
 13 22  1  6  0  0  0
 13  8  1  0  0  0  0
 14 15  1  0  0  0  0
 16 18  1  0  0  0  0
 17 16  2  0  0  0  0
 18 19  1  0  0  0  0
 21 20  1  0  0  0  0
 22 23  1  0  0  0  0
 23 26  2  0  0  0  0
 24 22  1  0  0  0  0
 25 23  1  0  0  0  0
 28 27  1  0  0  0  0
 29  6  1  0  0  0  0
 30 29  1  0  0  0  0
 31 32  1  0  0  0  0
 32 33  1  0  0  0  0
 33 35  1  0  0  0  0
 33 34  2  0  0  0  0
 34 36  1  0  0  0  0
 35 37  2  0  0  0  0
 36 38  1  0  0  0  0
 37 36  1  0  0  0  0
 38 39  2  0  0  0  0
 38 40  1  0  0  0  0
 39 41  1  0  0  0  0
 40 42  2  0  0  0  0
 41 43  2  0  0  0  0
 42 43  1  0  0  0  0
 43 44  1  0  0  0  0
 44 45  2  0  0  0  0
 46 44  2  0  0  0  0
 47 48  1  0  0  0  0
 49 48  1  0  0  0  0
 49 50  1  0  0  0  0
 51 50  1  0  0  0  0
 52 51  1  0  0  0  0
M  END
>  <REMARK>
 VINA RESULT:    -5.220      9.740     14.704
 INTER + INTRA:         -14.089
 INTER:                  -8.811
 INTRA:                  -5.277
 UNBOUND:                -4.749
 SMILES CC(=O)N[C@@H]1[C@@H](O)C[C@](O)(C(=O)O)O[C@H]1C(O)[C@H](O)CNC(=O)OCc1cn(-c2ccc([N+](=O)[O-])cc2)nn1
 SMILES IDX 21 1 22 2 23 3 20 5 18 6 16 7 15 8 9 9 8 10 14 11 6 12 5 13
 SMILES IDX 10 14 11 16 12 17 13 18 7 20 4 22 2 23 1 25 3 26 17 27 19 29
 SMILES IDX 24 31 25 32 26 33 27 34 39 35 28 36 38 37 29 38 30 39 37 40
 SMILES IDX 31 41 36 42 32 43 33 44 34 45 35 46
 H PARENT 21 4 10 15 13 19 7 21 4 24 17 28 19 30
 Flexibility Score: inf
  4 active torsions:
  status: ('A' for Active; 'I' for Inactive)
    1  A    between atoms: CA   and  CB  
    2  A    between atoms: CB   and  CG  
    3  A    between atoms: CG   and  CD  
    4  A    between atoms: CD   and  CE  

>  <TORSDO>
F 16

>  <BEGIN_>
RES LYS A 131

$$$$
ligand_6_pose_14_2HRL.pdbqt
 OpenBabel07062320523D

  6  5  0  0  0  0  0  0  0  0999 V2000
   33.1930   34.6630    9.2900 C   0  0  0  0  0  0  0  0  0  0  0  0
   32.0600   35.3600   10.0340 C   0  0  0  0  0  0  0  0  0  0  0  0
   30.7910   35.4740    9.2290 C   0  0  0  0  0  0  0  0  0  0  0  0
   30.2010   34.0980    8.9610 C   0  0  0  0  0  0  0  0  0  0  0  0
   28.6900   34.1330    9.0900 C   0  0  0  0  0  0  0  0  0  0  0  0
   28.0710   34.8650    7.9500 N   0  0  0  0  0  0  0  0  0  0  0  0
  1  2  1  0  0  0  0
  3  2  1  0  0  0  0
  4  5  1  0  0  0  0
  4  3  1  0  0  0  0
  6  5  1  0  0  0  0
M  END
>  <EGIN_R>
ES LYS A 135

>  <REMARK>
  4 active torsions:
  status: ('A' for Active; 'I' for Inactive)
    5  A    between atoms: CA   and  CB  
    6  A    between atoms: CB   and  CG  
    7  A    between atoms: CG   and  CD  
    8  A    between atoms: CD   and  CE  

$$$$
