ligand_25_pose_13_2HRL.pdbqt
 OpenBabel07062320523D

 56 59  0  0  1  0  0  0  0  0999 V2000
   27.1710   28.0210   18.5260 C   0  0  0  0  0  0  0  0  0  0  0  0
   27.3400   28.6390   17.1880 C   0  0  2  0  0  0  0  0  0  0  0  0
   27.9940   29.9830   17.2270 C   0  0  1  0  0  0  0  0  0  0  0  0
   27.5180   30.9780   16.2050 C   0  0  2  0  0  0  0  0  0  0  0  0
   29.1590   32.5820   15.7390 C   0  0  2  0  0  0  0  0  0  0  0  0
   28.1880   33.6320   15.2430 C   0  0  0  0  0  0  0  0  0  0  0  0
   28.6520   31.3480   15.4810 O   0  0  0  0  0  0  0  0  0  0  0  0
   26.8320   33.3270   15.7660 C   0  0  1  0  0  0  0  0  0  0  0  0
   26.8160   32.1760   16.7850 C   0  0  1  0  0  0  0  0  0  0  0  0
   29.4530   32.8830   17.0430 O   0  0  0  0  0  0  0  0  0  0  0  0
   29.9520   33.7260   17.1280 H   0  0  0  0  0  0  0  0  0  0  0  0
   30.3940   32.7400   14.9110 C   0  0  0  0  0  0  0  0  0  0  0  0
   30.4780   33.7020   14.1130 O   0  0  0  0  0  0  0  0  0  0  0  0
   31.4630   31.8590   14.9870 O   0  0  0  0  0  0  0  0  0  0  0  0
   31.7290   31.2910   14.1710 H   0  0  0  0  0  0  0  0  0  0  0  0
   26.2020   34.4070   16.3650 O   0  0  0  0  0  0  0  0  0  0  0  0
   26.4750   34.5530   17.2980 H   0  0  0  0  0  0  0  0  0  0  0  0
   25.4110   31.8840   16.9570 N   0  0  0  0  0  0  0  0  0  0  0  0
   24.7800   31.6360   18.2040 C   0  0  0  0  0  0  0  0  0  0  0  0
   24.8150   31.8560   16.1030 H   0  0  0  0  0  0  0  0  0  0  0  0
   23.3140   31.3390   18.2990 C   0  0  0  0  0  0  0  0  0  0  0  0
   25.4970   31.6730   19.2360 O   0  0  0  0  0  0  0  0  0  0  0  0
   28.0520   30.5630   18.4890 O   0  0  0  0  0  0  0  0  0  0  0  0
   27.6560   30.0380   19.2030 H   0  0  0  0  0  0  0  0  0  0  0  0
   26.0920   28.8150   16.5950 O   0  0  0  0  0  0  0  0  0  0  0  0
   26.0150   28.3810   15.7230 H   0  0  0  0  0  0  0  0  0  0  0  0
   28.3610   27.7300   19.2340 N   0  0  0  0  0  0  0  0  0  0  0  0
   28.4960   27.8300   20.6300 C   0  0  0  0  0  0  0  0  0  0  0  0
   29.2280   27.4110   18.6900 H   0  0  0  0  0  0  0  0  0  0  0  0
   27.5710   28.1740   21.3580 O   0  0  0  0  0  0  0  0  0  0  0  0
   29.7160   27.5360   21.2650 O   0  0  0  0  0  0  0  0  0  0  0  0
   30.9380   28.0820   20.8710 C   0  0  0  0  0  0  0  0  0  0  0  0
   30.8740   29.5330   20.5690 C   0  0  0  0  0  0  0  0  0  0  0  0
   30.8770   30.6040   21.4280 C   0  0  0  0  0  0  0  0  0  0  0  0
   30.8030   30.0210   19.3290 N   0  0  0  0  0  0  0  0  0  0  0  0
   30.8050   31.7010   20.6810 N   0  0  0  0  0  0  0  0  0  0  0  0
   30.7620   31.3310   19.4180 N   0  0  0  0  0  0  0  0  0  0  0  0
   30.7790   33.0820   21.1400 C   0  0  0  0  0  0  0  0  0  0  0  0
   29.7450   33.8690   20.4460 C   0  0  0  0  0  0  0  0  0  0  0  0
   32.0350   33.7770   20.9090 C   0  0  0  0  0  0  0  0  0  0  0  0
   28.3590   33.6550   20.3420 C   0  0  0  0  0  0  0  0  0  0  0  0
   30.3600   34.9380   19.8590 C   0  0  0  0  0  0  0  0  0  0  0  0
   31.7930   34.8860   20.1430 C   0  0  0  0  0  0  0  0  0  0  0  0
   33.3630   33.5220   21.3080 C   0  0  0  0  0  0  0  0  0  0  0  0
   27.6160   34.5570   19.6240 C   0  0  0  0  0  0  0  0  0  0  0  0
   29.5710   35.8320   19.1360 C   0  0  0  0  0  0  0  0  0  0  0  0
   32.7970   35.7740   19.7430 C   0  0  0  0  0  0  0  0  0  0  0  0
   34.3630   34.3780   20.9270 C   0  0  0  0  0  0  0  0  0  0  0  0
   28.2110   35.6460   19.0190 C   0  0  0  0  0  0  0  0  0  0  0  0
   34.0800   35.4910   20.1520 C   0  0  0  0  0  0  0  0  0  0  0  0
   29.8670   25.5550   16.9770 C   0  0  0  0  0  0  0  0  0  0  0  0
   28.3450   25.7220   17.0260 C   0  0  0  0  0  0  0  0  0  0  0  0
   27.6010   24.4020   16.8960 C   0  0  0  0  0  0  0  0  0  0  0  0
   26.5260   24.2530   17.9360 C   0  0  0  0  0  0  0  0  0  0  0  0
   25.2070   23.8970   17.2570 C   0  0  0  0  0  0  0  0  0  0  0  0
   24.8550   22.4810   17.5180 N   0  0  0  0  0  0  0  0  0  0  0  0
  1 27  1  0  0  0  0
  2  3  1  0  0  0  0
  2  1  1  1  0  0  0
  3 23  1  1  0  0  0
  4  9  1  0  0  0  0
  4  3  1  1  0  0  0
  5 12  1  6  0  0  0
  5 10  1  0  0  0  0
  6  5  1  0  0  0  0
  6  8  1  0  0  0  0
  7  5  1  0  0  0  0
  7  4  1  0  0  0  0
  8 16  1  1  0  0  0
  8  9  1  0  0  0  0
  9 18  1  6  0  0  0
 10 11  1  0  0  0  0
 12 14  1  0  0  0  0
 13 12  2  0  0  0  0
 15 14  1  0  0  0  0
 16 17  1  0  0  0  0
 18 19  1  0  0  0  0
 19 21  1  0  0  0  0
 19 22  2  0  0  0  0
 20 18  1  0  0  0  0
 23 24  1  0  0  0  0
 25  2  1  0  0  0  0
 26 25  1  0  0  0  0
 27 28  1  0  0  0  0
 28 31  1  0  0  0  0
 28 30  2  0  0  0  0
 29 27  1  0  0  0  0
 32 31  1  0  0  0  0
 33 32  1  0  0  0  0
 33 34  2  0  0  0  0
 35 37  2  0  0  0  0
 35 33  1  0  0  0  0
 36 38  1  0  0  0  0
 36 34  1  0  0  0  0
 37 36  1  0  0  0  0
 39 38  1  0  0  0  0
 40 38  1  0  0  0  0
 40 44  2  0  0  0  0
 41 39  1  0  0  0  0
 42 43  1  0  0  0  0
 42 39  2  0  0  0  0
 43 40  1  0  0  0  0
 45 41  2  0  0  0  0
 46 42  1  0  0  0  0
 47 43  2  0  0  0  0
 47 50  1  0  0  0  0
 48 44  1  0  0  0  0
 49 46  2  0  0  0  0
 49 45  1  0  0  0  0
 50 48  2  0  0  0  0
 51 52  1  0  0  0  0
 53 52  1  0  0  0  0
 53 54  1  0  0  0  0
 55 56  1  0  0  0  0
 55 54  1  0  0  0  0
M  END
>  <REMARK>
 VINA RESULT:    -6.367      3.602      8.438
 INTER + INTRA:         -15.598
 INTER:                  -7.236
 INTRA:                  -8.362
 UNBOUND:                -4.578
 SMILES CC(=O)N[C@@H]1[C@@H](O)C[C@](O)(C(=O)O)O[C@H]1C(O)[C@H](O)CNC(=O)OCc1cn(C2c3ccccc3-c3ccccc32)nn1
 SMILES IDX 20 1 18 2 16 3 15 4 9 5 8 6 14 7 6 8 5 9 10 10 11 12 12 13
 SMILES IDX 13 14 7 16 4 18 2 19 1 21 3 22 17 23 19 25 21 27 22 28 23 30
 SMILES IDX 24 31 25 32 26 33 27 34 43 35 28 36 42 37 29 38 30 39 41 40
 SMILES IDX 31 41 35 42 36 43 40 44 32 45 34 46 37 47 39 48 33 49 38 50
 H PARENT 10 11 13 15 7 17 4 20 17 24 19 26 21 29
 Flexibility Score: inf
  4 active torsions:
  status: ('A' for Active; 'I' for Inactive)
    1  A    between atoms: CA   and  CB  
    2  A    between atoms: CB   and  CG  
    3  A    between atoms: CG   and  CD  
    4  A    between atoms: CD   and  CE  

>  <TORSDO>
F 15

>  <BEGIN_>
RES LYS A 131

$$$$
ligand_25_pose_13_2HRL.pdbqt
 OpenBabel07062320523D

  6  5  0  0  0  0  0  0  0  0999 V2000
   33.1930   34.6630    9.2900 C   0  0  0  0  0  0  0  0  0  0  0  0
   32.0600   35.3600   10.0340 C   0  0  0  0  0  0  0  0  0  0  0  0
   30.8150   35.5390    9.2040 C   0  0  0  0  0  0  0  0  0  0  0  0
   30.0560   34.2260    9.0850 C   0  0  0  0  0  0  0  0  0  0  0  0
   28.5820   34.4840    8.8360 C   0  0  0  0  0  0  0  0  0  0  0  0
   27.7330   33.5690    9.6480 N   0  0  0  0  0  0  0  0  0  0  0  0
  1  2  1  0  0  0  0
  3  2  1  0  0  0  0
  4  3  1  0  0  0  0
  5  4  1  0  0  0  0
  5  6  1  0  0  0  0
M  END
>  <EGIN_R>
ES LYS A 135

>  <REMARK>
  4 active torsions:
  status: ('A' for Active; 'I' for Inactive)
    5  A    between atoms: CA   and  CB  
    6  A    between atoms: CB   and  CG  
    7  A    between atoms: CG   and  CD  
    8  A    between atoms: CD   and  CE  

$$$$
