ligand_76_pose_4_2HRL.pdbqt
 OpenBabel07062320523D

 55 56  0  0  1  0  0  0  0  0999 V2000
   30.4070   35.2040   19.3450 O   0  0  0  0  0  0  0  0  0  0  0  0
   31.0010   36.2890   18.7250 C   0  0  0  0  0  0  0  0  0  0  0  0
   30.2160   37.3160   18.1620 N   0  0  0  0  0  0  0  0  0  0  0  0
   29.1830   37.2510   18.2170 H   0  0  0  0  0  0  0  0  0  0  0  0
   32.2490   36.3660   18.6580 O   0  0  0  0  0  0  0  0  0  0  0  0
   30.8010   38.4750   17.5020 C   0  0  0  0  0  0  0  0  0  0  0  0
   30.3480   38.5600   16.0560 C   0  0  2  0  0  0  0  0  0  0  0  0
   31.2300   37.6380   15.2310 C   0  0  1  0  0  0  0  0  0  0  0  0
   30.3980   36.4920   14.6480 C   0  0  2  0  0  0  0  0  0  0  0  0
   31.3090   34.4290   15.2530 C   0  0  2  0  0  0  0  0  0  0  0  0
   32.2930   34.6390   14.1560 C   0  0  0  0  0  0  0  0  0  0  0  0
   30.3730   35.3860   15.4210 O   0  0  0  0  0  0  0  0  0  0  0  0
   31.7040   35.2050   12.9140 C   0  0  1  0  0  0  0  0  0  0  0  0
   30.7320   36.3190   13.1990 C   0  0  1  0  0  0  0  0  0  0  0  0
   32.0500   34.3260   16.4560 O   0  0  0  0  0  0  0  0  0  0  0  0
   31.8140   35.0830   17.0510 H   0  0  0  0  0  0  0  0  0  0  0  0
   30.6830   33.0740   15.0500 C   0  0  0  0  0  0  0  0  0  0  0  0
   29.4800   32.9220   14.7320 O   0  0  0  0  0  0  0  0  0  0  0  0
   31.4300   31.9030   15.2100 O   0  0  0  0  0  0  0  0  0  0  0  0
   30.9790   31.0470   15.5630 H   0  0  0  0  0  0  0  0  0  0  0  0
   32.7580   35.6360   12.0750 O   0  0  0  0  0  0  0  0  0  0  0  0
   32.5170   35.4930   11.1120 H   0  0  0  0  0  0  0  0  0  0  0  0
   29.5100   36.1760   12.4050 N   0  0  0  0  0  0  0  0  0  0  0  0
   28.8420   37.2880   11.8700 C   0  0  0  0  0  0  0  0  0  0  0  0
   29.1590   35.1840   12.2600 H   0  0  0  0  0  0  0  0  0  0  0  0
   27.6150   37.0940   11.0790 C   0  0  0  0  0  0  0  0  0  0  0  0
   29.2780   38.4400   12.0590 O   0  0  0  0  0  0  0  0  0  0  0  0
   31.6200   38.4000   14.1150 O   0  0  0  0  0  0  0  0  0  0  0  0
   32.5570   38.7470   14.2150 H   0  0  0  0  0  0  0  0  0  0  0  0
   30.4590   39.8660   15.5970 O   0  0  0  0  0  0  0  0  0  0  0  0
   31.1660   40.3040   16.1290 H   0  0  0  0  0  0  0  0  0  0  0  0
   29.1590   34.7620   18.7860 C   0  0  0  0  0  0  0  0  0  0  0  0
   29.2290   33.3210   18.4610 C   0  0  0  0  0  0  0  0  0  0  0  0
   28.2100   32.4290   18.2250 C   0  0  0  0  0  0  0  0  0  0  0  0
   30.3740   32.6260   18.3360 N   0  0  0  0  0  0  0  0  0  0  0  0
   28.7540   31.2300   17.9680 N   0  0  0  0  0  0  0  0  0  0  0  0
   30.0400   31.3650   18.0370 N   0  0  0  0  0  0  0  0  0  0  0  0
   28.0490   29.9660   17.6590 C   0  0  0  0  0  0  0  0  0  0  0  0
   27.8420   29.8960   16.1780 C   0  0  2  0  0  0  0  0  0  0  0  0
   29.0480   30.0220   15.4740 O   0  0  0  0  0  0  0  0  0  0  0  0
   28.9400   30.7880   14.8400 H   0  0  0  0  0  0  0  0  0  0  0  0
   26.6730   30.5460   15.6310 C   0  0  0  0  0  0  0  0  0  0  0  0
   25.3360   30.1140   16.0540 C   0  0  0  0  0  0  0  0  0  0  0  0
   24.3940   29.8500   14.9790 C   0  0  0  0  0  0  0  0  0  0  0  0
   23.3760   28.9160   15.2080 C   0  0  0  0  0  0  0  0  0  0  0  0
   24.4480   30.3800   13.7280 C   0  0  0  0  0  0  0  0  0  0  0  0
   22.4930   28.5680   14.2130 C   0  0  0  0  0  0  0  0  0  0  0  0
   23.5690   30.0440   12.7140 C   0  0  0  0  0  0  0  0  0  0  0  0
   22.5720   29.1220   12.9570 C   0  0  0  0  0  0  0  0  0  0  0  0
   29.8670   25.5550   16.9770 C   0  0  0  0  0  0  0  0  0  0  0  0
   28.3450   25.7220   17.0260 C   0  0  0  0  0  0  0  0  0  0  0  0
   27.6020   24.3990   16.9220 C   0  0  0  0  0  0  0  0  0  0  0  0
   26.1510   24.5340   17.2940 C   0  0  0  0  0  0  0  0  0  0  0  0
   25.9360   25.8490   18.0350 C   0  0  0  0  0  0  0  0  0  0  0  0
   24.6280   26.4430   17.6680 N   0  0  0  0  0  0  0  0  0  0  0  0
  2  1  1  0  0  0  0
  3  4  1  0  0  0  0
  3  2  1  0  0  0  0
  5  2  2  0  0  0  0
  6  3  1  0  0  0  0
  7  6  1  1  0  0  0
  8 28  1  6  0  0  0
  8  7  1  0  0  0  0
  9  8  1  1  0  0  0
  9 12  1  0  0  0  0
 10 17  1  6  0  0  0
 10 12  1  0  0  0  0
 10 15  1  0  0  0  0
 11 10  1  0  0  0  0
 13 21  1  6  0  0  0
 13 14  1  0  0  0  0
 13 11  1  0  0  0  0
 14 23  1  6  0  0  0
 14  9  1  0  0  0  0
 15 16  1  0  0  0  0
 17 19  1  0  0  0  0
 18 17  2  0  0  0  0
 19 20  1  0  0  0  0
 22 21  1  0  0  0  0
 24 27  2  0  0  0  0
 24 23  1  0  0  0  0
 25 23  1  0  0  0  0
 26 24  1  0  0  0  0
 28 29  1  0  0  0  0
 30  7  1  0  0  0  0
 30 31  1  0  0  0  0
 32  1  1  0  0  0  0
 33 32  1  0  0  0  0
 34 33  2  0  0  0  0
 35 33  1  0  0  0  0
 36 37  1  0  0  0  0
 36 34  1  0  0  0  0
 37 35  2  0  0  0  0
 38 36  1  0  0  0  0
 39 42  1  6  0  0  0
 39 38  1  0  0  0  0
 40 39  1  0  0  0  0
 41 40  1  0  0  0  0
 42 43  1  0  0  0  0
 44 45  1  0  0  0  0
 44 43  1  0  0  0  0
 46 44  2  0  0  0  0
 47 45  2  0  0  0  0
 48 49  2  0  0  0  0
 48 46  1  0  0  0  0
 49 47  1  0  0  0  0
 50 51  1  0  0  0  0
 52 51  1  0  0  0  0
 52 53  1  0  0  0  0
 53 54  1  0  0  0  0
 55 54  1  0  0  0  0
M  END
>  <REMARK>
 VINA RESULT:    -5.116      5.276      9.627
 INTER + INTRA:         -16.972
 INTER:                  -9.608
 INTRA:                  -7.363
 UNBOUND:                -6.771
 SMILES CC(=O)N[C@@H]1[C@@H](O)C[C@](O)(C(=O)O)O[C@H]1C(O)[C@H](O)CNC(=O)OCc1cn(CC(O)CCc2ccccc2)nn1
 SMILES IDX 24 1 22 2 21 3 23 5 20 6 18 7 16 8 15 9 9 10 8 11 14 12 6 13
 SMILES IDX 5 14 10 15 11 17 12 18 13 19 7 21 4 23 2 24 1 26 3 27 17 28
 SMILES IDX 19 30 25 32 26 33 27 34 41 35 28 36 40 37 29 38 30 39 31 40
 SMILES IDX 32 42 33 43 34 44 35 45 39 46 36 47 38 48 37 49
 H PARENT 21 4 10 16 13 20 7 22 4 25 17 29 19 31 31 41
 Flexibility Score: inf
  4 active torsions:
  status: ('A' for Active; 'I' for Inactive)
    1  A    between atoms: CA   and  CB  
    2  A    between atoms: CB   and  CG  
    3  A    between atoms: CG   and  CD  
    4  A    between atoms: CD   and  CE  

>  <TORSDO>
F 20

>  <BEGIN_>
RES LYS A 131

$$$$
ligand_76_pose_4_2HRL.pdbqt
 OpenBabel07062320523D

  6  5  0  0  0  0  0  0  0  0999 V2000
   33.1930   34.6630    9.2900 C   0  0  0  0  0  0  0  0  0  0  0  0
   32.0600   35.3600   10.0340 C   0  0  0  0  0  0  0  0  0  0  0  0
   30.8100   35.5270    9.2090 C   0  0  0  0  0  0  0  0  0  0  0  0
   30.0650   34.2070    9.0900 C   0  0  0  0  0  0  0  0  0  0  0  0
   28.6310   34.4420    8.6550 C   0  0  0  0  0  0  0  0  0  0  0  0
   27.6770   33.7040    9.5280 N   0  0  0  0  0  0  0  0  0  0  0  0
  1  2  1  0  0  0  0
  3  2  1  0  0  0  0
  4  3  1  0  0  0  0
  5  4  1  0  0  0  0
  5  6  1  0  0  0  0
M  END
>  <EGIN_R>
ES LYS A 135

>  <REMARK>
  4 active torsions:
  status: ('A' for Active; 'I' for Inactive)
    5  A    between atoms: CA   and  CB  
    6  A    between atoms: CB   and  CG  
    7  A    between atoms: CG   and  CD  
    8  A    between atoms: CD   and  CE  

$$$$
