ligand_12_pose_6_2HRL.pdbqt
 OpenBabel07062320523D

 52 53  0  0  1  0  0  0  0  0999 V2000
   25.6440   40.1030    5.6790 N   0  0  0  0  0  0  0  0  0  0  0  0
   25.4220   40.9430    6.8100 C   0  0  0  0  0  0  0  0  0  0  0  0
   26.3870   41.5090    7.4070 O   0  0  0  0  0  0  0  0  0  0  0  0
   24.8340   39.6590    5.2180 H   0  0  0  0  0  0  0  0  0  0  0  0
   27.0150   39.9260    5.2460 C   0  0  0  0  0  0  0  0  0  0  0  0
   27.6310   38.6730    5.8060 C   0  0  2  0  0  0  0  0  0  0  0  0
   29.1150   38.8770    6.0210 C   0  0  2  0  0  0  0  0  0  0  0  0
   29.4650   39.1170    7.4520 C   0  0  2  0  0  0  0  0  0  0  0  0
   28.4640   39.2850    9.5500 C   0  0  2  0  0  0  0  0  0  0  0  0
   29.7150   40.0580    9.9410 C   0  0  0  0  0  0  0  0  0  0  0  0
   28.2790   39.2150    8.1740 O   0  0  0  0  0  0  0  0  0  0  0  0
   29.9290   41.1090    8.8730 C   0  0  1  0  0  0  0  0  0  0  0  0
   30.3280   40.3480    7.6200 C   0  0  1  0  0  0  0  0  0  0  0  0
   27.3950   40.0320   10.0430 O   0  0  0  0  0  0  0  0  0  0  0  0
   26.7130   40.2100    9.3490 H   0  0  0  0  0  0  0  0  0  0  0  0
   28.4510   37.9640   10.1890 C   0  0  0  0  0  0  0  0  0  0  0  0
   29.5140   37.2970   10.2500 O   0  0  0  0  0  0  0  0  0  0  0  0
   27.3140   37.3900   10.7430 O   0  0  0  0  0  0  0  0  0  0  0  0
   27.3170   37.2010   11.7400 H   0  0  0  0  0  0  0  0  0  0  0  0
   28.7740   41.8510    8.6460 O   0  0  0  0  0  0  0  0  0  0  0  0
   28.8140   42.2200    7.7100 H   0  0  0  0  0  0  0  0  0  0  0  0
   31.7050   39.9390    7.7970 N   0  0  0  0  0  0  0  0  0  0  0  0
   32.6540   40.1640    6.7630 C   0  0  0  0  0  0  0  0  0  0  0  0
   32.0630   39.4730    8.6660 H   0  0  0  0  0  0  0  0  0  0  0  0
   34.0820   39.7650    6.8930 C   0  0  0  0  0  0  0  0  0  0  0  0
   32.3110   40.7180    5.6880 O   0  0  0  0  0  0  0  0  0  0  0  0
   29.5850   39.8220    5.1420 O   0  0  0  0  0  0  0  0  0  0  0  0
   28.8420   40.4660    4.9680 H   0  0  0  0  0  0  0  0  0  0  0  0
   27.3800   37.6190    4.9360 O   0  0  0  0  0  0  0  0  0  0  0  0
   26.9780   37.9640    4.0950 H   0  0  0  0  0  0  0  0  0  0  0  0
   24.1510   41.1850    7.3140 O   0  0  0  0  0  0  0  0  0  0  0  0
   23.6580   40.6180    8.5110 C   0  0  0  0  0  0  0  0  0  0  0  0
   23.6140   39.1400    8.4700 C   0  0  0  0  0  0  0  0  0  0  0  0
   24.2270   38.1980    9.2690 C   0  0  0  0  0  0  0  0  0  0  0  0
   22.9120   38.4290    7.5710 N   0  0  0  0  0  0  0  0  0  0  0  0
   23.8870   36.9580    8.8410 N   0  0  0  0  0  0  0  0  0  0  0  0
   23.0860   37.1470    7.8090 N   0  0  0  0  0  0  0  0  0  0  0  0
   24.3150   35.6690    9.4050 C   0  0  0  0  0  0  0  0  0  0  0  0
   25.7060   35.6200    9.4340 O   0  0  0  0  0  0  0  0  0  0  0  0
   26.2140   34.5720    8.7020 C   0  0  0  0  0  0  0  0  0  0  0  0
   27.6790   34.6020    8.5230 C   0  0  0  0  0  0  0  0  0  0  0  0
   28.4930   33.9480    9.4260 C   0  0  0  0  0  0  0  0  0  0  0  0
   28.2550   35.2660    7.4690 C   0  0  0  0  0  0  0  0  0  0  0  0
   29.8810   33.9580    9.2740 C   0  0  0  0  0  0  0  0  0  0  0  0
   29.6330   35.2720    7.3230 C   0  0  0  0  0  0  0  0  0  0  0  0
   30.4430   34.6320    8.2070 C   0  0  0  0  0  0  0  0  0  0  0  0
   29.8670   25.5550   16.9770 C   0  0  0  0  0  0  0  0  0  0  0  0
   28.3450   25.7220   17.0260 C   0  0  0  0  0  0  0  0  0  0  0  0
   27.5990   24.4230   16.7620 C   0  0  0  0  0  0  0  0  0  0  0  0
   26.9010   23.9110   17.9910 C   0  0  0  0  0  0  0  0  0  0  0  0
   25.4540   24.3940   17.9940 C   0  0  0  0  0  0  0  0  0  0  0  0
   25.1260   25.0420   19.2850 N   0  0  0  0  0  0  0  0  0  0  0  0
  1  2  1  0  0  0  0
  2 31  1  0  0  0  0
  2  3  2  0  0  0  0
  4  1  1  0  0  0  0
  5  1  1  0  0  0  0
  6  5  1  6  0  0  0
  6  7  1  0  0  0  0
  7 27  1  6  0  0  0
  8  7  1  6  0  0  0
  8 13  1  0  0  0  0
  8 11  1  0  0  0  0
  9 10  1  0  0  0  0
  9 14  1  1  0  0  0
  9 16  1  0  0  0  0
 11  9  1  0  0  0  0
 12 20  1  6  0  0  0
 12 10  1  0  0  0  0
 13 22  1  1  0  0  0
 13 12  1  0  0  0  0
 15 14  1  0  0  0  0
 16 17  2  0  0  0  0
 16 18  1  0  0  0  0
 18 19  1  0  0  0  0
 21 20  1  0  0  0  0
 22 24  1  0  0  0  0
 23 25  1  0  0  0  0
 23 22  1  0  0  0  0
 26 23  2  0  0  0  0
 28 27  1  0  0  0  0
 29  6  1  0  0  0  0
 30 29  1  0  0  0  0
 31 32  1  0  0  0  0
 33 32  1  0  0  0  0
 33 34  2  0  0  0  0
 35 37  2  0  0  0  0
 35 33  1  0  0  0  0
 36 34  1  0  0  0  0
 36 38  1  0  0  0  0
 37 36  1  0  0  0  0
 38 39  1  0  0  0  0
 40 39  1  0  0  0  0
 41 40  1  0  0  0  0
 41 42  2  0  0  0  0
 43 41  1  0  0  0  0
 44 42  1  0  0  0  0
 45 43  2  0  0  0  0
 45 46  1  0  0  0  0
 46 44  2  0  0  0  0
 47 48  1  0  0  0  0
 49 48  1  0  0  0  0
 49 50  1  0  0  0  0
 50 51  1  0  0  0  0
 51 52  1  0  0  0  0
M  END
>  <REMARK>
 VINA RESULT:    -6.281      3.224      5.399
 INTER + INTRA:         -15.746
 INTER:                 -10.206
 INTRA:                  -5.540
 UNBOUND:                -3.774
 SMILES CC(=O)N[C@@H]1[C@@H](O)C[C@](O)(C(=O)O)O[C@H]1C(O)[C@H](O)CNC(=O)OCc1cn(COCc2ccccc2)nn1
 SMILES IDX 21 1 22 2 23 3 20 5 18 6 16 7 15 8 9 9 8 10 14 11 6 12 5 13
 SMILES IDX 10 14 11 16 12 17 13 18 7 20 4 22 2 23 1 25 3 26 17 27 19 29
 SMILES IDX 24 31 25 32 26 33 27 34 39 35 28 36 38 37 29 38 30 39 31 40
 SMILES IDX 32 41 33 42 37 43 34 44 36 45 35 46
 H PARENT 21 4 10 15 13 19 7 21 4 24 17 28 19 30
 Flexibility Score: inf
  4 active torsions:
  status: ('A' for Active; 'I' for Inactive)
    1  A    between atoms: CA   and  CB  
    2  A    between atoms: CB   and  CG  
    3  A    between atoms: CG   and  CD  
    4  A    between atoms: CD   and  CE  

>  <TORSDO>
F 18

>  <BEGIN_>
RES LYS A 131

$$$$
ligand_12_pose_6_2HRL.pdbqt
 OpenBabel07062320523D

  6  5  0  0  0  0  0  0  0  0999 V2000
   33.1930   34.6630    9.2900 C   0  0  0  0  0  0  0  0  0  0  0  0
   32.0600   35.3600   10.0340 C   0  0  0  0  0  0  0  0  0  0  0  0
   32.4350   35.8040   11.4240 C   0  0  0  0  0  0  0  0  0  0  0  0
   31.4750   35.2230   12.4510 C   0  0  0  0  0  0  0  0  0  0  0  0
   30.8540   36.3280   13.2840 C   0  0  0  0  0  0  0  0  0  0  0  0
   31.5650   37.6200   13.0760 N   0  0  0  0  0  0  0  0  0  0  0  0
  1  2  1  0  0  0  0
  2  3  1  0  0  0  0
  3  4  1  0  0  0  0
  4  5  1  0  0  0  0
  6  5  1  0  0  0  0
M  END
>  <EGIN_R>
ES LYS A 135

>  <REMARK>
  4 active torsions:
  status: ('A' for Active; 'I' for Inactive)
    5  A    between atoms: CA   and  CB  
    6  A    between atoms: CB   and  CG  
    7  A    between atoms: CG   and  CD  
    8  A    between atoms: CD   and  CE  

$$$$
