ligand_73_pose_4_2HRL.pdbqt
 OpenBabel07062320523D

 54 55  0  0  1  0  0  0  0  0999 V2000
   24.7010   34.2820   14.1610 N   0  0  0  0  0  0  0  0  0  0  0  0
   24.0980   33.0380   13.8320 C   0  0  0  0  0  0  0  0  0  0  0  0
   24.7070   32.1600   13.1360 O   0  0  0  0  0  0  0  0  0  0  0  0
   24.1770   34.9620   14.7330 H   0  0  0  0  0  0  0  0  0  0  0  0
   26.0300   34.5580   13.7000 C   0  0  0  0  0  0  0  0  0  0  0  0
   27.1360   34.2940   14.6580 C   0  0  2  0  0  0  0  0  0  0  0  0
   28.5060   34.7240   14.2030 C   0  0  1  0  0  0  0  0  0  0  0  0
   29.6380   34.0600   14.9240 C   0  0  2  0  0  0  0  0  0  0  0  0
   30.2110   32.6410   16.6350 C   0  0  2  0  0  0  0  0  0  0  0  0
   31.5010   32.6540   15.8480 C   0  0  0  0  0  0  0  0  0  0  0  0
   29.2080   33.4060   16.0660 O   0  0  0  0  0  0  0  0  0  0  0  0
   31.9690   34.0620   15.6900 C   0  0  1  0  0  0  0  0  0  0  0  0
   30.8450   34.9090   15.0810 C   0  0  1  0  0  0  0  0  0  0  0  0
   30.5010   33.1410   17.8970 O   0  0  0  0  0  0  0  0  0  0  0  0
   31.2410   32.5850   18.2650 H   0  0  0  0  0  0  0  0  0  0  0  0
   29.7950   31.2230   16.7780 C   0  0  0  0  0  0  0  0  0  0  0  0
   28.9610   30.7050   15.9910 O   0  0  0  0  0  0  0  0  0  0  0  0
   30.3210   30.4380   17.7860 O   0  0  0  0  0  0  0  0  0  0  0  0
   29.8000   29.7350   18.2740 H   0  0  0  0  0  0  0  0  0  0  0  0
   32.3180   34.5280   16.9710 O   0  0  0  0  0  0  0  0  0  0  0  0
   31.6990   34.0600   17.6090 H   0  0  0  0  0  0  0  0  0  0  0  0
   31.2800   35.2840   13.7260 N   0  0  0  0  0  0  0  0  0  0  0  0
   31.8130   36.5530   13.4190 C   0  0  0  0  0  0  0  0  0  0  0  0
   31.1880   34.5750   12.9610 H   0  0  0  0  0  0  0  0  0  0  0  0
   32.2380   36.8930   12.0400 C   0  0  0  0  0  0  0  0  0  0  0  0
   31.9280   37.4020   14.3130 O   0  0  0  0  0  0  0  0  0  0  0  0
   28.6780   34.5030   12.8370 O   0  0  0  0  0  0  0  0  0  0  0  0
   29.6000   34.3430   12.5790 H   0  0  0  0  0  0  0  0  0  0  0  0
   27.1300   32.9120   14.9040 O   0  0  0  0  0  0  0  0  0  0  0  0
   27.4330   32.7810   15.8480 H   0  0  0  0  0  0  0  0  0  0  0  0
   22.8220   32.7960   14.2850 O   0  0  0  0  0  0  0  0  0  0  0  0
   22.5860   32.6630   15.6530 C   0  0  0  0  0  0  0  0  0  0  0  0
   23.7870   32.2460   16.4240 C   0  0  0  0  0  0  0  0  0  0  0  0
   24.2070   30.9590   16.7270 C   0  0  0  0  0  0  0  0  0  0  0  0
   24.7130   33.0430   16.9880 N   0  0  0  0  0  0  0  0  0  0  0  0
   25.3410   31.0020   17.4430 N   0  0  0  0  0  0  0  0  0  0  0  0
   25.6310   32.2830   17.5900 N   0  0  0  0  0  0  0  0  0  0  0  0
   26.1130   29.9250   17.9610 C   0  0  0  0  0  0  0  0  0  0  0  0
   25.9900   28.6620   17.4230 C   0  0  0  0  0  0  0  0  0  0  0  0
   27.0040   30.0790   19.0040 C   0  0  0  0  0  0  0  0  0  0  0  0
   26.7320   27.5990   17.9120 C   0  0  0  0  0  0  0  0  0  0  0  0
   27.7660   29.0470   19.5270 C   0  0  0  0  0  0  0  0  0  0  0  0
   27.6100   27.7890   18.9520 C   0  0  0  0  0  0  0  0  0  0  0  0
   28.6720   29.2220   20.5930 N   0  0  0  0  0  0  0  0  0  0  0  0
   28.2470   29.5340   21.7060 O   0  0  0  0  0  0  0  0  0  0  0  0
   30.0040   29.0450   20.3900 O   0  0  0  0  0  0  0  0  0  0  0  0
   28.3780   26.7530   19.4810 O   0  0  0  0  0  0  0  0  0  0  0  0
   27.8860   25.9850   19.9600 H   0  0  0  0  0  0  0  0  0  0  0  0
   29.8670   25.5550   16.9770 C   0  0  0  0  0  0  0  0  0  0  0  0
   28.3450   25.7220   17.0260 C   0  0  0  0  0  0  0  0  0  0  0  0
   27.5990   24.4310   16.7270 C   0  0  0  0  0  0  0  0  0  0  0  0
   26.9810   23.8350   17.9610 C   0  0  0  0  0  0  0  0  0  0  0  0
   25.5710   23.3480   17.6410 C   0  0  0  0  0  0  0  0  0  0  0  0
   24.8150   24.3940   16.9120 N   0  0  0  0  0  0  0  0  0  0  0  0
  1  4  1  0  0  0  0
  2  1  1  0  0  0  0
  2 31  1  0  0  0  0
  3  2  2  0  0  0  0
  5  1  1  0  0  0  0
  6  5  1  6  0  0  0
  6 29  1  0  0  0  0
  7 27  1  6  0  0  0
  7  6  1  0  0  0  0
  8  7  1  1  0  0  0
  8 13  1  0  0  0  0
  8 11  1  0  0  0  0
  9 16  1  1  0  0  0
  9 14  1  0  0  0  0
 10  9  1  0  0  0  0
 11  9  1  0  0  0  0
 12 10  1  0  0  0  0
 12 20  1  1  0  0  0
 13 22  1  6  0  0  0
 13 12  1  0  0  0  0
 14 15  1  0  0  0  0
 16 18  1  0  0  0  0
 17 16  2  0  0  0  0
 18 19  1  0  0  0  0
 20 21  1  0  0  0  0
 23 22  1  0  0  0  0
 23 26  2  0  0  0  0
 24 22  1  0  0  0  0
 25 23  1  0  0  0  0
 28 27  1  0  0  0  0
 29 30  1  0  0  0  0
 31 32  1  0  0  0  0
 32 33  1  0  0  0  0
 33 34  2  0  0  0  0
 33 35  1  0  0  0  0
 34 36  1  0  0  0  0
 35 37  2  0  0  0  0
 36 37  1  0  0  0  0
 36 38  1  0  0  0  0
 38 40  2  0  0  0  0
 39 41  2  0  0  0  0
 39 38  1  0  0  0  0
 40 42  1  0  0  0  0
 41 43  1  0  0  0  0
 42 44  1  0  0  0  0
 43 47  1  0  0  0  0
 43 42  2  0  0  0  0
 44 45  2  0  0  0  0
 46 44  2  0  0  0  0
 47 48  1  0  0  0  0
 49 50  1  0  0  0  0
 51 50  1  0  0  0  0
 51 52  1  0  0  0  0
 53 52  1  0  0  0  0
 54 53  1  0  0  0  0
M  END
>  <REMARK>
 VINA RESULT:    -4.321      2.135      6.718
 INTER + INTRA:         -15.168
 INTER:                  -8.408
 INTRA:                  -6.761
 UNBOUND:                -7.311
 SMILES CC(=O)N[C@@H]1[C@@H](O)C[C@](O)(C(=O)O)O[C@H]1C(O)[C@H](O)CNC(=O)OCc1cn(-c2ccc(O)c([N+](=O)[O-])c2)nn1
 SMILES IDX 21 1 22 2 23 3 20 5 18 6 16 7 15 8 9 9 8 10 14 11 6 12 5 13
 SMILES IDX 10 14 11 16 12 17 13 18 7 20 4 22 2 23 1 25 3 26 17 27 19 29
 SMILES IDX 24 31 25 32 26 33 27 34 40 35 28 36 39 37 29 38 30 39 38 40
 SMILES IDX 31 41 34 42 32 43 35 44 36 45 37 46 33 47
 H PARENT 21 4 10 15 13 19 7 21 4 24 17 28 19 30 33 48
 Flexibility Score: inf
  4 active torsions:
  status: ('A' for Active; 'I' for Inactive)
    1  A    between atoms: CA   and  CB  
    2  A    between atoms: CB   and  CG  
    3  A    between atoms: CG   and  CD  
    4  A    between atoms: CD   and  CE  

>  <TORSDO>
F 17

>  <BEGIN_>
RES LYS A 131

$$$$
ligand_73_pose_4_2HRL.pdbqt
 OpenBabel07062320523D

  6  5  0  0  0  0  0  0  0  0999 V2000
   33.1930   34.6630    9.2900 C   0  0  0  0  0  0  0  0  0  0  0  0
   32.0600   35.3600   10.0340 C   0  0  0  0  0  0  0  0  0  0  0  0
   30.7960   35.4880    9.2240 C   0  0  0  0  0  0  0  0  0  0  0  0
   30.1120   34.1370    9.0790 C   0  0  0  0  0  0  0  0  0  0  0  0
   28.6650   34.3150    8.6610 C   0  0  0  0  0  0  0  0  0  0  0  0
   27.7440   33.6430    9.6190 N   0  0  0  0  0  0  0  0  0  0  0  0
  1  2  1  0  0  0  0
  3  2  1  0  0  0  0
  4  3  1  0  0  0  0
  5  4  1  0  0  0  0
  5  6  1  0  0  0  0
M  END
>  <EGIN_R>
ES LYS A 135

>  <REMARK>
  4 active torsions:
  status: ('A' for Active; 'I' for Inactive)
    5  A    between atoms: CA   and  CB  
    6  A    between atoms: CB   and  CG  
    7  A    between atoms: CG   and  CD  
    8  A    between atoms: CD   and  CE  

$$$$
