ligand_34_pose_12_2HRL.pdbqt
 OpenBabel07062320523D

 69 73  0  0  1  0  0  0  0  0999 V2000
   25.3180   40.0450    6.0340 N   0  0  0  0  0  0  0  0  0  0  0  0
   25.0480   40.5500    7.3520 C   0  0  0  0  0  0  0  0  0  0  0  0
   25.9920   41.1500    7.9350 O   0  0  0  0  0  0  0  0  0  0  0  0
   24.5790   39.5430    5.5090 H   0  0  0  0  0  0  0  0  0  0  0  0
   26.6110   40.2220    5.4180 C   0  0  0  0  0  0  0  0  0  0  0  0
   27.5100   39.1040    5.8320 C   0  0  2  0  0  0  0  0  0  0  0  0
   28.9270   39.2790    5.2890 C   0  0  2  0  0  0  0  0  0  0  0  0
   29.9500   38.9970    6.3780 C   0  0  2  0  0  0  0  0  0  0  0  0
   29.5530   39.8240    8.5190 C   0  0  2  0  0  0  0  0  0  0  0  0
   31.0250   39.8000    8.8670 C   0  0  0  0  0  0  0  0  0  0  0  0
   29.2800   38.8790    7.5620 O   0  0  0  0  0  0  0  0  0  0  0  0
   31.8610   39.9940    7.6540 C   0  0  1  0  0  0  0  0  0  0  0  0
   31.0770   39.9710    6.3650 C   0  0  1  0  0  0  0  0  0  0  0  0
   29.2280   41.1080    8.1640 O   0  0  0  0  0  0  0  0  0  0  0  0
   29.7830   41.7970    8.5720 H   0  0  0  0  0  0  0  0  0  0  0  0
   28.8160   39.4480    9.7490 C   0  0  0  0  0  0  0  0  0  0  0  0
   29.3340   38.6520   10.5730 O   0  0  0  0  0  0  0  0  0  0  0  0
   27.5550   39.9340   10.0530 O   0  0  0  0  0  0  0  0  0  0  0  0
   27.1340   39.7990   10.9850 H   0  0  0  0  0  0  0  0  0  0  0  0
   32.5770   41.1870    7.6980 O   0  0  0  0  0  0  0  0  0  0  0  0
   32.6140   41.5930    8.5930 H   0  0  0  0  0  0  0  0  0  0  0  0
   32.0430   39.6130    5.3160 N   0  0  0  0  0  0  0  0  0  0  0  0
   32.6300   40.5500    4.4470 C   0  0  0  0  0  0  0  0  0  0  0  0
   32.2930   38.6010    5.2320 H   0  0  0  0  0  0  0  0  0  0  0  0
   33.5950   40.1100    3.4140 C   0  0  0  0  0  0  0  0  0  0  0  0
   32.2860   41.7680    4.6010 O   0  0  0  0  0  0  0  0  0  0  0  0
   29.0090   40.6080    4.8580 O   0  0  0  0  0  0  0  0  0  0  0  0
   28.4970   41.1490    5.5180 H   0  0  0  0  0  0  0  0  0  0  0  0
   26.9940   37.8610    5.4740 O   0  0  0  0  0  0  0  0  0  0  0  0
   26.9640   37.2320    6.2340 H   0  0  0  0  0  0  0  0  0  0  0  0
   23.8440   40.4080    7.9750 O   0  0  0  0  0  0  0  0  0  0  0  0
   23.2260   39.1500    8.1150 C   0  0  0  0  0  0  0  0  0  0  0  0
   24.2560   38.1480    8.4540 C   0  0  0  0  0  0  0  0  0  0  0  0
   24.7770   37.8730    9.7200 C   0  0  0  0  0  0  0  0  0  0  0  0
   24.8960   37.3160    7.6210 N   0  0  0  0  0  0  0  0  0  0  0  0
   25.6980   36.8980    9.6060 N   0  0  0  0  0  0  0  0  0  0  0  0
   25.7460   36.5840    8.3290 N   0  0  0  0  0  0  0  0  0  0  0  0
   26.4310   36.3760   10.7030 C   0  0  0  0  0  0  0  0  0  0  0  0
   26.7000   37.0510   11.8560 C   0  0  0  0  0  0  0  0  0  0  0  0
   26.9190   35.0710   10.5950 C   0  0  0  0  0  0  0  0  0  0  0  0
   27.4270   36.4970   12.9060 C   0  0  0  0  0  0  0  0  0  0  0  0
   27.6360   34.5050   11.6140 C   0  0  0  0  0  0  0  0  0  0  0  0
   27.8920   35.2250   12.7800 C   0  0  0  0  0  0  0  0  0  0  0  0
   27.6950   37.2520   14.1280 C   0  0  0  0  0  0  0  0  0  0  0  0
   26.9050   37.1970   15.1220 O   0  0  0  0  0  0  0  0  0  0  0  0
   28.8110   38.0380   14.2270 O   0  0  0  0  0  0  0  0  0  0  0  0
   28.6630   34.5360   13.8030 C   0  0  0  0  0  0  0  0  0  0  0  0
   30.0360   34.5830   13.9070 C   0  0  0  0  0  0  0  0  0  0  0  0
   27.9800   33.7800   14.7410 C   0  0  0  0  0  0  0  0  0  0  0  0
   30.7520   35.3260   12.9890 C   0  0  0  0  0  0  0  0  0  0  0  0
   30.7160   33.9030   14.9110 C   0  0  0  0  0  0  0  0  0  0  0  0
   28.7380   33.0870   15.7730 C   0  0  0  0  0  0  0  0  0  0  0  0
   26.6080   33.6670   14.7260 C   0  0  0  0  0  0  0  0  0  0  0  0
   32.1360   35.4050   13.0530 C   0  0  0  0  0  0  0  0  0  0  0  0
   32.0880   33.9620   15.0010 C   0  0  0  0  0  0  0  0  0  0  0  0
   30.0640   33.1890   15.7970 O   0  0  0  0  0  0  0  0  0  0  0  0
   28.0750   32.3410   16.7020 C   0  0  0  0  0  0  0  0  0  0  0  0
   25.9910   32.9070   15.6790 C   0  0  0  0  0  0  0  0  0  0  0  0
   32.7830   34.7190   14.0610 C   0  0  0  0  0  0  0  0  0  0  0  0
   26.7010   32.2420   16.6670 C   0  0  0  0  0  0  0  0  0  0  0  0
   26.0840   31.5540   17.5240 O   0  0  0  0  0  0  0  0  0  0  0  0
   34.1640   34.7910   14.1320 O   0  0  0  0  0  0  0  0  0  0  0  0
   34.6970   34.5950   14.9580 H   0  0  0  0  0  0  0  0  0  0  0  0
   29.8670   25.5550   16.9770 C   0  0  0  0  0  0  0  0  0  0  0  0
   28.3450   25.7220   17.0260 C   0  0  0  0  0  0  0  0  0  0  0  0
   27.6010   24.4030   16.8870 C   0  0  0  0  0  0  0  0  0  0  0  0
   26.3420   24.3730   17.7080 C   0  0  0  0  0  0  0  0  0  0  0  0
   26.2240   25.6670   18.5070 C   0  0  0  0  0  0  0  0  0  0  0  0
   25.6510   25.4000   19.8470 N   0  0  0  0  0  0  0  0  0  0  0  0
  1  2  1  0  0  0  0
  2  3  2  0  0  0  0
  2 31  1  0  0  0  0
  4  1  1  0  0  0  0
  5  1  1  0  0  0  0
  6  5  1  6  0  0  0
  7 27  1  1  0  0  0
  7  6  1  0  0  0  0
  8  7  1  6  0  0  0
  8 11  1  0  0  0  0
  9 14  1  6  0  0  0
  9 10  1  0  0  0  0
  9 16  1  0  0  0  0
 11  9  1  0  0  0  0
 12 20  1  1  0  0  0
 12 10  1  0  0  0  0
 13 22  1  6  0  0  0
 13  8  1  0  0  0  0
 13 12  1  0  0  0  0
 14 15  1  0  0  0  0
 16 18  1  0  0  0  0
 16 17  2  0  0  0  0
 18 19  1  0  0  0  0
 20 21  1  0  0  0  0
 23 26  2  0  0  0  0
 23 22  1  0  0  0  0
 24 22  1  0  0  0  0
 25 23  1  0  0  0  0
 27 28  1  0  0  0  0
 29  6  1  0  0  0  0
 29 30  1  0  0  0  0
 31 32  1  0  0  0  0
 32 33  1  0  0  0  0
 33 34  2  0  0  0  0
 35 37  2  0  0  0  0
 35 33  1  0  0  0  0
 36 34  1  0  0  0  0
 36 38  1  0  0  0  0
 37 36  1  0  0  0  0
 38 39  1  0  0  0  0
 39 41  2  0  0  0  0
 40 38  2  0  0  0  0
 40 42  1  0  0  0  0
 41 44  1  0  0  0  0
 42 43  2  0  0  0  0
 43 41  1  0  0  0  0
 43 47  1  0  0  0  0
 44 46  2  0  0  0  0
 44 45  1  0  0  0  0
 47 48  1  0  0  0  0
 47 49  2  0  0  0  0
 48 51  1  0  0  0  0
 49 52  1  0  0  0  0
 50 54  1  0  0  0  0
 50 48  2  0  0  0  0
 51 55  2  0  0  0  0
 51 56  1  0  0  0  0
 52 56  1  0  0  0  0
 52 57  2  0  0  0  0
 53 49  1  0  0  0  0
 53 58  2  0  0  0  0
 54 59  2  0  0  0  0
 58 60  1  0  0  0  0
 59 62  1  0  0  0  0
 59 55  1  0  0  0  0
 60 57  1  0  0  0  0
 60 61  2  0  0  0  0
 62 63  1  0  0  0  0
 64 65  1  0  0  0  0
 66 65  1  0  0  0  0
 66 67  1  0  0  0  0
 67 68  1  0  0  0  0
 68 69  1  0  0  0  0
M  END
>  <REMARK>
 VINA RESULT:    -5.413      4.812      9.638
 INTER + INTRA:         -17.877
 INTER:                 -10.458
 INTRA:                  -7.419
 UNBOUND:                -7.717
 SMILES CC(=O)N[C@@H]1[C@@H](O)C[C@](O)(C(=O)O)O[C@H]1C(O)[C@H](O)CNC(=O)OCc1cn(-c2ccc(-c3c4ccc(=O)cc-4oc4cc(O)ccc34)c(C(=O)[O-])c2)nn1
 SMILES IDX 21 1 22 2 23 3 20 5 18 6 16 7 15 8 9 9 8 10 14 11 6 12 5 13
 SMILES IDX 10 14 11 16 12 17 13 18 7 20 4 22 2 23 1 25 3 26 17 27 19 29
 SMILES IDX 24 31 25 32 26 33 27 34 55 35 28 36 54 37 29 38 53 39 30 40
 SMILES IDX 49 41 31 42 32 43 50 44 51 45 52 46 33 47 48 48 34 49 47 50
 SMILES IDX 42 51 40 52 35 53 46 54 43 55 41 56 39 57 36 58 44 59 37 60
 SMILES IDX 38 61 45 62
 H PARENT 21 4 10 15 13 19 7 21 4 24 17 28 19 30 45 63
 Flexibility Score: inf
  4 active torsions:
  status: ('A' for Active; 'I' for Inactive)
    1  A    between atoms: CA   and  CB  
    2  A    between atoms: CB   and  CG  
    3  A    between atoms: CG   and  CD  
    4  A    between atoms: CD   and  CE  

>  <TORSDO>
F 18

>  <BEGIN_>
RES LYS A 131

$$$$
ligand_34_pose_12_2HRL.pdbqt
 OpenBabel07062320523D

  6  5  0  0  0  0  0  0  0  0999 V2000
   33.1930   34.6630    9.2900 C   0  0  0  0  0  0  0  0  0  0  0  0
   32.0600   35.3600   10.0340 C   0  0  0  0  0  0  0  0  0  0  0  0
   30.8840   35.7030    9.1560 C   0  0  0  0  0  0  0  0  0  0  0  0
   30.2830   34.4450    8.5490 C   0  0  0  0  0  0  0  0  0  0  0  0
   28.9340   34.7460    7.9260 C   0  0  0  0  0  0  0  0  0  0  0  0
   29.0900   35.4510    6.6230 N   0  0  0  0  0  0  0  0  0  0  0  0
  1  2  1  0  0  0  0
  3  2  1  0  0  0  0
  4  3  1  0  0  0  0
  5  4  1  0  0  0  0
  6  5  1  0  0  0  0
M  END
>  <EGIN_R>
ES LYS A 135

>  <REMARK>
  4 active torsions:
  status: ('A' for Active; 'I' for Inactive)
    5  A    between atoms: CA   and  CB  
    6  A    between atoms: CB   and  CG  
    7  A    between atoms: CG   and  CD  
    8  A    between atoms: CD   and  CE  

$$$$
