ligand_64_pose_4_2HRL.pdbqt
 OpenBabel07062320523D

 59 61  0  0  1  0  0  0  0  0999 V2000
   26.5360   35.9670   17.5020 N   0  0  0  0  0  0  0  0  0  0  0  0
   26.2450   34.6550   17.9920 C   0  0  0  0  0  0  0  0  0  0  0  0
   26.9370   34.2080   18.9430 O   0  0  0  0  0  0  0  0  0  0  0  0
   25.9160   36.2840   16.7000 H   0  0  0  0  0  0  0  0  0  0  0  0
   27.5760   36.8020   18.0370 C   0  0  0  0  0  0  0  0  0  0  0  0
   28.7650   36.8390   17.1240 C   0  0  2  0  0  0  0  0  0  0  0  0
   28.5250   35.8420   15.9970 C   0  0  2  0  0  0  0  0  0  0  0  0
   29.7940   35.1430   15.6540 C   0  0  2  0  0  0  0  0  0  0  0  0
   31.2930   34.8950   13.8930 C   0  0  2  0  0  0  0  0  0  0  0  0
   32.1030   34.2330   15.0010 C   0  0  0  0  0  0  0  0  0  0  0  0
   30.1760   35.5430   14.3550 O   0  0  0  0  0  0  0  0  0  0  0  0
   31.2410   33.2010   15.6370 C   0  0  1  0  0  0  0  0  0  0  0  0
   29.7630   33.6540   15.6280 C   0  0  1  0  0  0  0  0  0  0  0  0
   30.9570   33.8350   13.0180 O   0  0  0  0  0  0  0  0  0  0  0  0
   30.5490   33.1410   13.5990 H   0  0  0  0  0  0  0  0  0  0  0  0
   32.1080   35.8690   13.1430 C   0  0  0  0  0  0  0  0  0  0  0  0
   31.8580   37.0860   13.2220 O   0  0  0  0  0  0  0  0  0  0  0  0
   33.1520   35.4440   12.3510 O   0  0  0  0  0  0  0  0  0  0  0  0
   34.0150   35.9700   12.2440 H   0  0  0  0  0  0  0  0  0  0  0  0
   31.3710   31.9430   15.0920 O   0  0  0  0  0  0  0  0  0  0  0  0
   30.4980   31.4970   15.0280 H   0  0  0  0  0  0  0  0  0  0  0  0
   29.0890   33.0140   16.7250 N   0  0  0  0  0  0  0  0  0  0  0  0
   28.3660   31.7780   16.5430 C   0  0  0  0  0  0  0  0  0  0  0  0
   29.1210   33.4280   17.6590 H   0  0  0  0  0  0  0  0  0  0  0  0
   27.6640   31.0900   17.6360 C   0  0  0  0  0  0  0  0  0  0  0  0
   28.3750   31.3160   15.3630 O   0  0  0  0  0  0  0  0  0  0  0  0
   27.8720   36.3740   14.9190 O   0  0  0  0  0  0  0  0  0  0  0  0
   27.2640   35.7760   14.4480 H   0  0  0  0  0  0  0  0  0  0  0  0
   29.8530   36.3950   17.9030 O   0  0  0  0  0  0  0  0  0  0  0  0
   29.7270   35.4280   18.0000 H   0  0  0  0  0  0  0  0  0  0  0  0
   25.2240   33.9020   17.4290 O   0  0  0  0  0  0  0  0  0  0  0  0
   24.3030   34.5630   16.5860 C   0  0  0  0  0  0  0  0  0  0  0  0
   24.8410   34.4810   15.2030 C   0  0  0  0  0  0  0  0  0  0  0  0
   24.2460   34.9790   14.0370 C   0  0  0  0  0  0  0  0  0  0  0  0
   25.9920   33.9260   14.7560 N   0  0  0  0  0  0  0  0  0  0  0  0
   25.0310   34.7160   12.9770 N   0  0  0  0  0  0  0  0  0  0  0  0
   26.0790   34.0780   13.4410 N   0  0  0  0  0  0  0  0  0  0  0  0
   24.7060   35.0970   11.6250 C   0  0  0  0  0  0  0  0  0  0  0  0
   23.4070   35.2160   11.2010 C   0  0  0  0  0  0  0  0  0  0  0  0
   25.7170   35.3540   10.7060 C   0  0  0  0  0  0  0  0  0  0  0  0
   23.0620   35.5770    9.9160 C   0  0  0  0  0  0  0  0  0  0  0  0
   25.3890   35.7150    9.4250 C   0  0  0  0  0  0  0  0  0  0  0  0
   24.0840   35.8120    9.0780 N   0  0  0  0  0  0  0  0  0  0  0  0
   21.6780   35.6980    9.4900 C   0  0  0  0  0  0  0  0  0  0  0  0
   20.9730   36.6040    9.9760 O   0  0  0  0  0  0  0  0  0  0  0  0
   21.1300   34.8370    8.5630 O   0  0  0  0  0  0  0  0  0  0  0  0
   20.5600   35.1590    7.7730 H   0  0  0  0  0  0  0  0  0  0  0  0
   26.4400   35.9930    8.4290 C   0  0  0  0  0  0  0  0  0  0  0  0
   27.1200   34.9230    7.8870 C   0  0  0  0  0  0  0  0  0  0  0  0
   26.7230   37.2770    8.0610 C   0  0  0  0  0  0  0  0  0  0  0  0
   28.1010   35.1780    6.9590 C   0  0  0  0  0  0  0  0  0  0  0  0
   27.7160   37.4890    7.1250 C   0  0  0  0  0  0  0  0  0  0  0  0
   28.4250   36.4560    6.5530 C   0  0  0  0  0  0  0  0  0  0  0  0
   29.8670   25.5550   16.9770 C   0  0  0  0  0  0  0  0  0  0  0  0
   28.3450   25.7220   17.0260 C   0  0  0  0  0  0  0  0  0  0  0  0
   27.6010   24.4010   16.9060 C   0  0  0  0  0  0  0  0  0  0  0  0
   26.1330   24.5490   17.1930 C   0  0  0  0  0  0  0  0  0  0  0  0
   25.9090   25.7620   18.0890 C   0  0  0  0  0  0  0  0  0  0  0  0
   25.6370   25.3350   19.4820 N   0  0  0  0  0  0  0  0  0  0  0  0
  1  2  1  0  0  0  0
  1  5  1  0  0  0  0
  2  3  2  0  0  0  0
  4  1  1  0  0  0  0
  6 29  1  0  0  0  0
  6  5  1  1  0  0  0
  7 27  1  6  0  0  0
  7  6  1  0  0  0  0
  8  7  1  6  0  0  0
  9 14  1  6  0  0  0
  9 11  1  0  0  0  0
  9 10  1  0  0  0  0
 10 12  1  0  0  0  0
 11  8  1  0  0  0  0
 12 20  1  6  0  0  0
 13 12  1  0  0  0  0
 13  8  1  0  0  0  0
 13 22  1  1  0  0  0
 14 15  1  0  0  0  0
 16 17  2  0  0  0  0
 16  9  1  0  0  0  0
 18 16  1  0  0  0  0
 19 18  1  0  0  0  0
 21 20  1  0  0  0  0
 22 24  1  0  0  0  0
 23 22  1  0  0  0  0
 23 25  1  0  0  0  0
 26 23  2  0  0  0  0
 28 27  1  0  0  0  0
 29 30  1  0  0  0  0
 31  2  1  0  0  0  0
 32 31  1  0  0  0  0
 33 32  1  0  0  0  0
 34 33  2  0  0  0  0
 35 33  1  0  0  0  0
 36 37  1  0  0  0  0
 36 34  1  0  0  0  0
 37 35  2  0  0  0  0
 38 36  1  0  0  0  0
 39 38  1  0  0  0  0
 40 38  2  0  0  0  0
 41 39  2  0  0  0  0
 42 40  1  0  0  0  0
 43 42  2  0  0  0  0
 43 41  1  0  0  0  0
 44 41  1  0  0  0  0
 44 45  2  0  0  0  0
 46 44  1  0  0  0  0
 47 46  1  0  0  0  0
 48 42  1  0  0  0  0
 49 48  2  0  0  0  0
 50 48  1  0  0  0  0
 51 49  1  0  0  0  0
 52 50  2  0  0  0  0
 53 51  2  0  0  0  0
 53 52  1  0  0  0  0
 54 55  1  0  0  0  0
 56 55  1  0  0  0  0
 56 57  1  0  0  0  0
 57 58  1  0  0  0  0
 58 59  1  0  0  0  0
M  END
>  <REMARK>
 VINA RESULT:    -6.081      1.797      2.302
 INTER + INTRA:         -16.630
 INTER:                 -11.268
 INTRA:                  -5.362
 UNBOUND:                -5.216
 SMILES CC(=O)N[C@@H]1[C@@H](O)C[C@](O)(C(=O)O)O[C@H]1C(O)[C@H](O)CNC(=O)OCc1cn(-c2cc(C(=O)O)nc(-c3ccccc3)c2)nn1
 SMILES IDX 21 1 22 2 23 3 20 5 18 6 16 7 15 8 9 9 8 10 14 11 6 12 5 13
 SMILES IDX 10 14 11 16 12 17 13 18 7 20 4 22 2 23 1 25 3 26 17 27 19 29
 SMILES IDX 24 31 25 32 26 33 27 34 45 35 28 36 44 37 29 38 30 39 43 40
 SMILES IDX 31 41 36 42 35 43 32 44 33 45 34 46 37 48 38 49 42 50 39 51
 SMILES IDX 41 52 40 53
 H PARENT 21 4 10 15 13 19 7 21 4 24 17 28 19 30 34 47
 Flexibility Score: inf
  4 active torsions:
  status: ('A' for Active; 'I' for Inactive)
    1  A    between atoms: CA   and  CB  
    2  A    between atoms: CB   and  CG  
    3  A    between atoms: CG   and  CD  
    4  A    between atoms: CD   and  CE  

>  <TORSDO>
F 18

>  <BEGIN_>
RES LYS A 131

$$$$
ligand_64_pose_4_2HRL.pdbqt
 OpenBabel07062320523D

  6  5  0  0  0  0  0  0  0  0999 V2000
   33.1930   34.6630    9.2900 C   0  0  0  0  0  0  0  0  0  0  0  0
   32.0600   35.3600   10.0340 C   0  0  0  0  0  0  0  0  0  0  0  0
   30.6910   35.0200    9.5030 C   0  0  0  0  0  0  0  0  0  0  0  0
   29.6090   35.5380   10.4380 C   0  0  0  0  0  0  0  0  0  0  0  0
   29.5690   37.0540   10.4180 C   0  0  0  0  0  0  0  0  0  0  0  0
   28.6130   37.5780   11.4320 N   0  0  0  0  0  0  0  0  0  0  0  0
  1  2  1  0  0  0  0
  3  2  1  0  0  0  0
  3  4  1  0  0  0  0
  5  4  1  0  0  0  0
  5  6  1  0  0  0  0
M  END
>  <EGIN_R>
ES LYS A 135

>  <REMARK>
  4 active torsions:
  status: ('A' for Active; 'I' for Inactive)
    5  A    between atoms: CA   and  CB  
    6  A    between atoms: CB   and  CG  
    7  A    between atoms: CG   and  CD  
    8  A    between atoms: CD   and  CE  

$$$$
