ligand_62_pose_2_2HRL.pdbqt
 OpenBabel07062320523D

 52 52  0  0  1  0  0  0  0  0999 V2000
   26.1930   35.9980   12.8300 N   0  0  0  0  0  0  0  0  0  0  0  0
   24.8810   35.6270   12.4750 C   0  0  0  0  0  0  0  0  0  0  0  0
   23.9490   35.5940   13.3110 O   0  0  0  0  0  0  0  0  0  0  0  0
   26.9050   36.0010   12.0560 H   0  0  0  0  0  0  0  0  0  0  0  0
   26.6400   36.3650   14.1300 C   0  0  0  0  0  0  0  0  0  0  0  0
   27.0050   35.2740   15.0670 C   0  0  2  0  0  0  0  0  0  0  0  0
   27.9140   34.2360   14.4460 C   0  0  2  0  0  0  0  0  0  0  0  0
   28.9290   33.6510   15.3750 C   0  0  2  0  0  0  0  0  0  0  0  0
   31.1530   33.0120   15.3830 C   0  0  2  0  0  0  0  0  0  0  0  0
   30.8060   32.9240   16.8460 C   0  0  0  0  0  0  0  0  0  0  0  0
   30.1030   33.4800   14.6120 O   0  0  0  0  0  0  0  0  0  0  0  0
   29.5880   32.1180   17.1270 C   0  0  1  0  0  0  0  0  0  0  0  0
   28.5980   32.3260   15.9700 C   0  0  1  0  0  0  0  0  0  0  0  0
   31.6300   31.7840   14.9620 O   0  0  0  0  0  0  0  0  0  0  0  0
   31.0790   31.0210   15.2660 H   0  0  0  0  0  0  0  0  0  0  0  0
   32.2660   33.9910   15.2540 C   0  0  0  0  0  0  0  0  0  0  0  0
   32.4810   34.8740   16.1300 O   0  0  0  0  0  0  0  0  0  0  0  0
   33.1330   33.9880   14.1560 O   0  0  0  0  0  0  0  0  0  0  0  0
   33.3290   34.8290   13.6310 H   0  0  0  0  0  0  0  0  0  0  0  0
   29.8530   30.7610   17.3030 O   0  0  0  0  0  0  0  0  0  0  0  0
   30.1450   30.6500   18.2490 H   0  0  0  0  0  0  0  0  0  0  0  0
   27.3020   32.1620   16.5310 N   0  0  0  0  0  0  0  0  0  0  0  0
   26.4680   31.0150   16.2490 C   0  0  0  0  0  0  0  0  0  0  0  0
   26.8760   32.8490   17.1890 H   0  0  0  0  0  0  0  0  0  0  0  0
   25.1230   30.8880   16.8570 C   0  0  0  0  0  0  0  0  0  0  0  0
   26.8800   30.1290   15.4910 O   0  0  0  0  0  0  0  0  0  0  0  0
   28.6790   34.9840   13.4970 O   0  0  0  0  0  0  0  0  0  0  0  0
   28.7130   35.9240   13.7400 H   0  0  0  0  0  0  0  0  0  0  0  0
   25.8630   34.5890   15.4740 O   0  0  0  0  0  0  0  0  0  0  0  0
   25.1360   34.7270   14.8210 H   0  0  0  0  0  0  0  0  0  0  0  0
   24.5630   35.2790   11.1650 O   0  0  0  0  0  0  0  0  0  0  0  0
   24.1740   36.2410   10.2190 C   0  0  0  0  0  0  0  0  0  0  0  0
   25.3180   36.6550    9.3870 C   0  0  0  0  0  0  0  0  0  0  0  0
   25.4320   36.5800    8.0120 C   0  0  0  0  0  0  0  0  0  0  0  0
   26.4660   37.1850    9.8610 N   0  0  0  0  0  0  0  0  0  0  0  0
   26.6300   37.0640    7.7030 N   0  0  0  0  0  0  0  0  0  0  0  0
   27.2390   37.4190    8.7970 N   0  0  0  0  0  0  0  0  0  0  0  0
   27.1880   37.1820    6.3590 C   0  0  1  0  0  0  0  0  0  0  0  0
   27.1570   38.6290    5.9550 C   0  0  0  0  0  0  0  0  0  0  0  0
   27.6360   38.7930    4.6760 O   0  0  0  0  0  0  0  0  0  0  0  0
   27.2980   39.9900    4.0820 C   0  0  0  0  0  0  0  0  0  0  0  0
   28.6160   36.7270    6.3890 C   0  0  0  0  0  0  0  0  0  0  0  0
   28.9070   35.5370    6.1980 O   0  0  0  0  0  0  0  0  0  0  0  0
   29.6140   37.7050    6.6450 N   0  0  0  0  0  0  0  0  0  0  0  0
   30.5860   37.5270    6.3040 H   0  0  0  0  0  0  0  0  0  0  0  0
   29.3900   38.5690    7.1530 H   0  0  0  0  0  0  0  0  0  0  0  0
   29.8670   25.5550   16.9770 C   0  0  0  0  0  0  0  0  0  0  0  0
   28.3450   25.7220   17.0260 C   0  0  0  0  0  0  0  0  0  0  0  0
   27.6010   24.4030   16.8810 C   0  0  0  0  0  0  0  0  0  0  0  0
   26.6640   24.1520   18.0290 C   0  0  0  0  0  0  0  0  0  0  0  0
   25.4630   23.3490   17.5400 C   0  0  0  0  0  0  0  0  0  0  0  0
   24.4900   24.2340   16.8580 N   0  0  0  0  0  0  0  0  0  0  0  0
  1  5  1  0  0  0  0
  2  1  1  0  0  0  0
  2  3  2  0  0  0  0
  4  1  1  0  0  0  0
  6  5  1  6  0  0  0
  6 29  1  0  0  0  0
  7 27  1  6  0  0  0
  7  6  1  0  0  0  0
  8  7  1  6  0  0  0
  8 13  1  0  0  0  0
  9 14  1  6  0  0  0
  9 10  1  0  0  0  0
 10 12  1  0  0  0  0
 11  8  1  0  0  0  0
 11  9  1  0  0  0  0
 12 20  1  6  0  0  0
 13 22  1  1  0  0  0
 13 12  1  0  0  0  0
 14 15  1  0  0  0  0
 16  9  1  0  0  0  0
 16 17  2  0  0  0  0
 18 16  1  0  0  0  0
 19 18  1  0  0  0  0
 20 21  1  0  0  0  0
 22 24  1  0  0  0  0
 23 22  1  0  0  0  0
 23 25  1  0  0  0  0
 26 23  2  0  0  0  0
 27 28  1  0  0  0  0
 30 29  1  0  0  0  0
 31  2  1  0  0  0  0
 32 31  1  0  0  0  0
 33 35  1  0  0  0  0
 33 32  1  0  0  0  0
 34 33  2  0  0  0  0
 36 34  1  0  0  0  0
 36 37  1  0  0  0  0
 37 35  2  0  0  0  0
 38 39  1  1  0  0  0
 38 42  1  0  0  0  0
 38 36  1  0  0  0  0
 40 39  1  0  0  0  0
 41 40  1  0  0  0  0
 42 44  1  0  0  0  0
 43 42  2  0  0  0  0
 44 46  1  0  0  0  0
 45 44  1  0  0  0  0
 47 48  1  0  0  0  0
 49 48  1  0  0  0  0
 49 50  1  0  0  0  0
 51 50  1  0  0  0  0
 52 51  1  0  0  0  0
M  END
>  <REMARK>
 VINA RESULT:    -4.270      3.698      7.095
 INTER + INTRA:         -14.893
 INTER:                  -9.386
 INTRA:                  -5.507
 UNBOUND:                -6.753
 SMILES COCC(C(N)=O)n1cc(COC(=O)NC[C@@H](O)C(O)[C@@H]2O[C@@](O)(C(=O)O)C[C@H](O)[C@H]2NC(C)=O)nn1
 SMILES IDX 15 1 13 2 14 3 16 5 17 6 19 7 21 8 23 9 28 10 22 11 29 12
 SMILES IDX 31 13 24 14 25 16 26 17 27 18 30 20 32 22 33 23 34 25 35 26
 SMILES IDX 20 27 18 29 12 31 11 32 10 33 9 34 36 35 8 36 37 37 4 38
 SMILES IDX 3 39 2 40 1 41 5 42 7 43 6 44
 H PARENT 15 4 24 15 27 19 30 21 32 24 20 28 18 30 6 45 6 46
 Flexibility Score: inf
  4 active torsions:
  status: ('A' for Active; 'I' for Inactive)
    1  A    between atoms: CA   and  CB  
    2  A    between atoms: CB   and  CG  
    3  A    between atoms: CG   and  CD  
    4  A    between atoms: CD   and  CE  

>  <TORSDO>
F 18

>  <BEGIN_>
RES LYS A 131

$$$$
ligand_62_pose_2_2HRL.pdbqt
 OpenBabel07062320523D

  6  5  0  0  0  0  0  0  0  0999 V2000
   33.1930   34.6630    9.2900 C   0  0  0  0  0  0  0  0  0  0  0  0
   32.0600   35.3600   10.0340 C   0  0  0  0  0  0  0  0  0  0  0  0
   30.8060   35.5140    9.2130 C   0  0  0  0  0  0  0  0  0  0  0  0
   30.0000   34.2240    9.2170 C   0  0  0  0  0  0  0  0  0  0  0  0
   28.7490   34.3800   10.0600 C   0  0  0  0  0  0  0  0  0  0  0  0
   27.5660   33.7820    9.3800 N   0  0  0  0  0  0  0  0  0  0  0  0
  1  2  1  0  0  0  0
  3  4  1  0  0  0  0
  3  2  1  0  0  0  0
  4  5  1  0  0  0  0
  6  5  1  0  0  0  0
M  END
>  <EGIN_R>
ES LYS A 135

>  <REMARK>
  4 active torsions:
  status: ('A' for Active; 'I' for Inactive)
    5  A    between atoms: CA   and  CB  
    6  A    between atoms: CB   and  CG  
    7  A    between atoms: CG   and  CD  
    8  A    between atoms: CD   and  CE  

$$$$
