ligand_65_pose_19_2HRL.pdbqt
 OpenBabel07062320523D

 53 54  0  0  1  0  0  0  0  0999 V2000
   29.5040   35.4540   12.8880 N   0  0  0  0  0  0  0  0  0  0  0  0
   29.3100   36.6600   12.1870 C   0  0  0  0  0  0  0  0  0  0  0  0
   30.1750   37.5590   12.0840 O   0  0  0  0  0  0  0  0  0  0  0  0
   28.7470   34.7090   12.9500 H   0  0  0  0  0  0  0  0  0  0  0  0
   30.7650   35.2050   13.5530 C   0  0  0  0  0  0  0  0  0  0  0  0
   30.4960   34.5590   14.8750 C   0  0  2  0  0  0  0  0  0  0  0  0
   29.7630   33.2480   14.6780 C   0  0  2  0  0  0  0  0  0  0  0  0
   28.8520   33.0380   15.8780 C   0  0  2  0  0  0  0  0  0  0  0  0
   28.4540   30.7690   16.3760 C   0  0  2  0  0  0  0  0  0  0  0  0
   27.1000   30.8270   15.7420 C   0  0  0  0  0  0  0  0  0  0  0  0
   29.1710   31.8850   16.4640 O   0  0  0  0  0  0  0  0  0  0  0  0
   26.5040   32.1920   16.0630 C   0  0  1  0  0  0  0  0  0  0  0  0
   27.4440   33.1720   15.3630 C   0  0  1  0  0  0  0  0  0  0  0  0
   29.1950   29.8240   15.6270 O   0  0  0  0  0  0  0  0  0  0  0  0
   29.4560   29.0520   16.1810 H   0  0  0  0  0  0  0  0  0  0  0  0
   28.2800   30.1820   17.7290 C   0  0  0  0  0  0  0  0  0  0  0  0
   27.2270   29.5650   18.0310 O   0  0  0  0  0  0  0  0  0  0  0  0
   29.2550   30.2850   18.7070 O   0  0  0  0  0  0  0  0  0  0  0  0
   29.2190   30.9830   19.4520 H   0  0  0  0  0  0  0  0  0  0  0  0
   25.2430   32.3420   15.5190 O   0  0  0  0  0  0  0  0  0  0  0  0
   25.3350   32.9320   14.7180 H   0  0  0  0  0  0  0  0  0  0  0  0
   26.9660   34.5310   15.4940 N   0  0  0  0  0  0  0  0  0  0  0  0
   26.4680   35.2430   14.3740 C   0  0  0  0  0  0  0  0  0  0  0  0
   27.0140   34.9430   16.4530 H   0  0  0  0  0  0  0  0  0  0  0  0
   25.9950   36.6300   14.5750 C   0  0  0  0  0  0  0  0  0  0  0  0
   26.4160   34.7380   13.2310 O   0  0  0  0  0  0  0  0  0  0  0  0
   30.7250   32.2030   14.6470 O   0  0  0  0  0  0  0  0  0  0  0  0
   31.1330   32.2800   13.7370 H   0  0  0  0  0  0  0  0  0  0  0  0
   29.7470   35.4410   15.6690 O   0  0  0  0  0  0  0  0  0  0  0  0
   29.2670   34.9640   16.3690 H   0  0  0  0  0  0  0  0  0  0  0  0
   28.0730   36.8790   11.5580 O   0  0  0  0  0  0  0  0  0  0  0  0
   28.0650   37.6730   10.3910 C   0  0  0  0  0  0  0  0  0  0  0  0
   26.8400   37.3400    9.5930 C   0  0  0  0  0  0  0  0  0  0  0  0
   25.5990   36.9670   10.0760 C   0  0  0  0  0  0  0  0  0  0  0  0
   26.6950   37.3350    8.2480 N   0  0  0  0  0  0  0  0  0  0  0  0
   24.7550   36.7510    9.0470 N   0  0  0  0  0  0  0  0  0  0  0  0
   25.4480   36.9810    7.9550 N   0  0  0  0  0  0  0  0  0  0  0  0
   23.3830   36.3520    9.1400 C   0  0  0  0  0  0  0  0  0  0  0  0
   22.5090   36.5780    8.1420 N   0  0  0  0  0  0  0  0  0  0  0  0
   22.9170   35.7320   10.2420 N   0  0  0  0  0  0  0  0  0  0  0  0
   21.2160   36.2210    8.1900 C   0  0  0  0  0  0  0  0  0  0  0  0
   21.6200   35.3460   10.3510 C   0  0  0  0  0  0  0  0  0  0  0  0
   20.7990   35.5980    9.3260 N   0  0  0  0  0  0  0  0  0  0  0  0
   21.0940   34.6600   11.5620 C   0  0  0  0  0  0  0  0  0  0  0  0
   20.2980   36.4560    7.1460 N   0  0  0  0  0  0  0  0  0  0  0  0
   20.0500   35.6980    6.4970 H   0  0  0  0  0  0  0  0  0  0  0  0
   19.8770   37.3900    7.0350 H   0  0  0  0  0  0  0  0  0  0  0  0
   29.8670   25.5550   16.9770 C   0  0  0  0  0  0  0  0  0  0  0  0
   28.3450   25.7220   17.0260 C   0  0  0  0  0  0  0  0  0  0  0  0
   27.6010   24.4010   16.9020 C   0  0  0  0  0  0  0  0  0  0  0  0
   26.1630   24.5190   17.3240 C   0  0  0  0  0  0  0  0  0  0  0  0
   25.8130   23.3690   18.2640 C   0  0  0  0  0  0  0  0  0  0  0  0
   25.4720   23.8850   19.6100 N   0  0  0  0  0  0  0  0  0  0  0  0
  1  4  1  0  0  0  0
  1  5  1  0  0  0  0
  2  1  1  0  0  0  0
  3  2  2  0  0  0  0
  6  5  1  6  0  0  0
  6 29  1  0  0  0  0
  7 27  1  1  0  0  0
  7  6  1  0  0  0  0
  8  7  1  6  0  0  0
  8 11  1  0  0  0  0
  9 14  1  6  0  0  0
  9 11  1  0  0  0  0
  9 16  1  0  0  0  0
 10 12  1  0  0  0  0
 10  9  1  0  0  0  0
 12 20  1  6  0  0  0
 13 22  1  1  0  0  0
 13  8  1  0  0  0  0
 13 12  1  0  0  0  0
 14 15  1  0  0  0  0
 16 17  2  0  0  0  0
 16 18  1  0  0  0  0
 18 19  1  0  0  0  0
 21 20  1  0  0  0  0
 22 24  1  0  0  0  0
 23 25  1  0  0  0  0
 23 22  1  0  0  0  0
 26 23  2  0  0  0  0
 28 27  1  0  0  0  0
 29 30  1  0  0  0  0
 31  2  1  0  0  0  0
 32 31  1  0  0  0  0
 33 34  2  0  0  0  0
 33 32  1  0  0  0  0
 35 33  1  0  0  0  0
 36 38  1  0  0  0  0
 36 34  1  0  0  0  0
 37 35  2  0  0  0  0
 37 36  1  0  0  0  0
 38 40  1  0  0  0  0
 39 41  2  0  0  0  0
 39 38  2  0  0  0  0
 40 42  2  0  0  0  0
 41 43  1  0  0  0  0
 42 44  1  0  0  0  0
 43 42  1  0  0  0  0
 45 41  1  0  0  0  0
 46 45  1  0  0  0  0
 47 45  1  0  0  0  0
 48 49  1  0  0  0  0
 50 49  1  0  0  0  0
 50 51  1  0  0  0  0
 51 52  1  0  0  0  0
 52 53  1  0  0  0  0
M  END
>  <REMARK>
 VINA RESULT:    -4.865      4.374      9.237
 INTER + INTRA:         -13.697
 INTER:                  -8.563
 INTRA:                  -5.134
 UNBOUND:                -5.134
 SMILES CC(=O)N[C@@H]1[C@@H](O)C[C@](O)(C(=O)O)O[C@H]1C(O)[C@H](O)CNC(=O)OCc1cn(-c2nc(C)nc(N)n2)nn1
 SMILES IDX 21 1 22 2 23 3 20 5 18 6 16 7 15 8 9 9 8 10 14 11 6 12 5 13
 SMILES IDX 10 14 11 16 12 17 13 18 7 20 4 22 2 23 1 25 3 26 17 27 19 29
 SMILES IDX 24 31 25 32 26 33 27 34 38 35 28 36 37 37 29 38 36 39 30 40
 SMILES IDX 34 41 31 42 33 43 32 44 35 45
 H PARENT 21 4 10 15 13 19 7 21 4 24 17 28 19 30 35 46 35 47
 Flexibility Score: inf
  4 active torsions:
  status: ('A' for Active; 'I' for Inactive)
    1  A    between atoms: CA   and  CB  
    2  A    between atoms: CB   and  CG  
    3  A    between atoms: CG   and  CD  
    4  A    between atoms: CD   and  CE  

>  <TORSDO>
F 16

>  <BEGIN_>
RES LYS A 131

$$$$
ligand_65_pose_19_2HRL.pdbqt
 OpenBabel07062320523D

  6  5  0  0  0  0  0  0  0  0999 V2000
   33.1930   34.6630    9.2900 C   0  0  0  0  0  0  0  0  0  0  0  0
   32.0600   35.3600   10.0340 C   0  0  0  0  0  0  0  0  0  0  0  0
   30.7960   35.4880    9.2230 C   0  0  0  0  0  0  0  0  0  0  0  0
   30.1220   34.1340    9.0620 C   0  0  0  0  0  0  0  0  0  0  0  0
   28.6590   34.3070    8.7000 C   0  0  0  0  0  0  0  0  0  0  0  0
   27.7750   33.8040    9.7870 N   0  0  0  0  0  0  0  0  0  0  0  0
  1  2  1  0  0  0  0
  3  2  1  0  0  0  0
  4  3  1  0  0  0  0
  5  4  1  0  0  0  0
  5  6  1  0  0  0  0
M  END
>  <EGIN_R>
ES LYS A 135

>  <REMARK>
  4 active torsions:
  status: ('A' for Active; 'I' for Inactive)
    5  A    between atoms: CA   and  CB  
    6  A    between atoms: CB   and  CG  
    7  A    between atoms: CG   and  CD  
    8  A    between atoms: CD   and  CE  

$$$$
