ligand_21_pose_8_2HRL.pdbqt
 OpenBabel07062320523D

 54 55  0  0  1  0  0  0  0  0999 V2000
   30.7910   36.6010   12.6080 N   0  0  0  0  0  0  0  0  0  0  0  0
   30.1200   37.8120   12.9520 C   0  0  0  0  0  0  0  0  0  0  0  0
   30.8140   38.8150   13.2250 O   0  0  0  0  0  0  0  0  0  0  0  0
   30.2040   35.7740   12.3840 H   0  0  0  0  0  0  0  0  0  0  0  0
   32.2280   36.5330   12.5810 C   0  0  0  0  0  0  0  0  0  0  0  0
   32.6600   35.2760   13.3420 C   0  0  2  0  0  0  0  0  0  0  0  0
   32.8810   35.6300   14.7870 C   0  0  2  0  0  0  0  0  0  0  0  0
   31.9340   34.8310   15.6410 C   0  0  2  0  0  0  0  0  0  0  0  0
   29.8350   33.8320   15.5750 C   0  0  2  0  0  0  0  0  0  0  0  0
   29.2670   34.8380   16.5490 C   0  0  0  0  0  0  0  0  0  0  0  0
   30.8560   34.4740   14.8940 O   0  0  0  0  0  0  0  0  0  0  0  0
   30.3280   35.1900   17.5360 C   0  0  1  0  0  0  0  0  0  0  0  0
   31.6450   35.5530   16.9080 C   0  0  1  0  0  0  0  0  0  0  0  0
   28.8130   33.6100   14.6270 O   0  0  0  0  0  0  0  0  0  0  0  0
   27.9350   33.8960   14.9660 H   0  0  0  0  0  0  0  0  0  0  0  0
   30.2360   32.5580   16.2040 C   0  0  0  0  0  0  0  0  0  0  0  0
   31.1820   31.8410   15.7990 O   0  0  0  0  0  0  0  0  0  0  0  0
   29.5400   32.1060   17.3100 O   0  0  0  0  0  0  0  0  0  0  0  0
   29.1730   31.1560   17.4010 H   0  0  0  0  0  0  0  0  0  0  0  0
   29.8380   36.2720   18.2990 O   0  0  0  0  0  0  0  0  0  0  0  0
   30.3480   36.3020   19.1620 H   0  0  0  0  0  0  0  0  0  0  0  0
   32.6950   35.2540   17.8620 N   0  0  0  0  0  0  0  0  0  0  0  0
   33.5970   36.2550   18.3360 C   0  0  0  0  0  0  0  0  0  0  0  0
   32.8190   34.2870   18.2300 H   0  0  0  0  0  0  0  0  0  0  0  0
   34.6510   35.8940   19.3100 C   0  0  0  0  0  0  0  0  0  0  0  0
   33.4880   37.4300   17.9240 O   0  0  0  0  0  0  0  0  0  0  0  0
   32.7000   37.0000   15.0180 O   0  0  0  0  0  0  0  0  0  0  0  0
   33.0080   37.4950   14.2240 H   0  0  0  0  0  0  0  0  0  0  0  0
   33.7760   34.7790   12.7070 O   0  0  0  0  0  0  0  0  0  0  0  0
   34.5100   34.5430   13.3120 H   0  0  0  0  0  0  0  0  0  0  0  0
   28.7360   37.8540   12.9730 O   0  0  0  0  0  0  0  0  0  0  0  0
   27.9710   36.8960   13.6670 C   0  0  0  0  0  0  0  0  0  0  0  0
   27.1970   36.1100   12.6930 C   0  0  0  0  0  0  0  0  0  0  0  0
   26.4910   36.6090   11.5950 C   0  0  0  0  0  0  0  0  0  0  0  0
   27.0020   34.7680   12.6500 N   0  0  0  0  0  0  0  0  0  0  0  0
   25.9320   35.5760   10.9770 N   0  0  0  0  0  0  0  0  0  0  0  0
   26.2430   34.4620   11.6170 N   0  0  0  0  0  0  0  0  0  0  0  0
   25.1120   35.6420    9.7850 C   0  0  0  0  0  0  0  0  0  0  0  0
   26.0620   35.8060    8.6330 C   0  0  0  0  0  0  0  0  0  0  0  0
   26.0560   36.9900    7.9440 C   0  0  0  0  0  0  0  0  0  0  0  0
   26.9070   34.7790    8.2970 C   0  0  0  0  0  0  0  0  0  0  0  0
   26.9040   37.1870    6.8850 C   0  0  0  0  0  0  0  0  0  0  0  0
   27.7780   34.9650    7.2190 C   0  0  0  0  0  0  0  0  0  0  0  0
   27.7550   36.1560    6.5450 C   0  0  0  0  0  0  0  0  0  0  0  0
   25.1860   38.0050    8.3160 O   0  0  0  0  0  0  0  0  0  0  0  0
   25.7100   39.2920    8.4240 C   0  0  0  0  0  0  0  0  0  0  0  0
   25.3260   40.1830    7.6310 O   0  0  0  0  0  0  0  0  0  0  0  0
   26.7130   39.6200    9.4660 C   0  0  0  0  0  0  0  0  0  0  0  0
   29.8670   25.5550   16.9770 C   0  0  0  0  0  0  0  0  0  0  0  0
   28.3450   25.7220   17.0260 C   0  0  0  0  0  0  0  0  0  0  0  0
   27.5990   24.4370   16.7030 C   0  0  0  0  0  0  0  0  0  0  0  0
   26.9990   23.8060   17.9290 C   0  0  0  0  0  0  0  0  0  0  0  0
   25.6220   23.2440   17.5900 C   0  0  0  0  0  0  0  0  0  0  0  0
   24.7830   24.2810   16.9450 N   0  0  0  0  0  0  0  0  0  0  0  0
  1  2  1  0  0  0  0
  2 31  1  0  0  0  0
  2  3  2  0  0  0  0
  4  1  1  0  0  0  0
  5  1  1  0  0  0  0
  6  5  1  6  0  0  0
  6  7  1  0  0  0  0
  7 27  1  6  0  0  0
  8  7  1  6  0  0  0
  8 13  1  0  0  0  0
  9 14  1  6  0  0  0
  9 16  1  0  0  0  0
  9 10  1  0  0  0  0
 10 12  1  0  0  0  0
 11  9  1  0  0  0  0
 11  8  1  0  0  0  0
 12 20  1  6  0  0  0
 13 12  1  0  0  0  0
 13 22  1  1  0  0  0
 14 15  1  0  0  0  0
 16 18  1  0  0  0  0
 17 16  2  0  0  0  0
 18 19  1  0  0  0  0
 20 21  1  0  0  0  0
 22 24  1  0  0  0  0
 22 23  1  0  0  0  0
 23 25  1  0  0  0  0
 26 23  2  0  0  0  0
 28 27  1  0  0  0  0
 29 30  1  0  0  0  0
 29  6  1  0  0  0  0
 31 32  1  0  0  0  0
 33 32  1  0  0  0  0
 34 33  2  0  0  0  0
 35 33  1  0  0  0  0
 36 34  1  0  0  0  0
 36 37  1  0  0  0  0
 37 35  2  0  0  0  0
 38 36  1  0  0  0  0
 39 38  1  0  0  0  0
 40 45  1  0  0  0  0
 40 39  2  0  0  0  0
 41 39  1  0  0  0  0
 42 40  1  0  0  0  0
 43 41  2  0  0  0  0
 44 42  2  0  0  0  0
 44 43  1  0  0  0  0
 45 46  1  0  0  0  0
 46 48  1  0  0  0  0
 47 46  2  0  0  0  0
 49 50  1  0  0  0  0
 51 50  1  0  0  0  0
 51 52  1  0  0  0  0
 53 52  1  0  0  0  0
 54 53  1  0  0  0  0
M  END
>  <REMARK>
 VINA RESULT:    -4.687      4.468      8.648
 INTER + INTRA:         -15.209
 INTER:                  -9.588
 INTRA:                  -5.621
 UNBOUND:                -6.275
 SMILES CC(=O)N[C@@H]1[C@@H](O)C[C@](O)(C(=O)O)O[C@H]1C(O)[C@H](O)CNC(=O)OCc1cn(Cc2ccccc2OC(C)=O)nn1
 SMILES IDX 21 1 22 2 23 3 20 5 18 6 16 7 15 8 9 9 8 10 14 11 6 12 5 13
 SMILES IDX 10 14 11 16 12 17 13 18 7 20 4 22 2 23 1 25 3 26 17 27 19 29
 SMILES IDX 24 31 25 32 26 33 27 34 41 35 28 36 40 37 29 38 30 39 35 40
 SMILES IDX 31 41 34 42 32 43 33 44 36 45 37 46 39 47 38 48
 H PARENT 21 4 10 15 13 19 7 21 4 24 17 28 19 30
 Flexibility Score: inf
  4 active torsions:
  status: ('A' for Active; 'I' for Inactive)
    1  A    between atoms: CA   and  CB  
    2  A    between atoms: CB   and  CG  
    3  A    between atoms: CG   and  CD  
    4  A    between atoms: CD   and  CE  

>  <TORSDO>
F 18

>  <BEGIN_>
RES LYS A 131

$$$$
ligand_21_pose_8_2HRL.pdbqt
 OpenBabel07062320523D

  6  5  0  0  0  0  0  0  0  0999 V2000
   33.1930   34.6630    9.2900 C   0  0  0  0  0  0  0  0  0  0  0  0
   32.0600   35.3600   10.0340 C   0  0  0  0  0  0  0  0  0  0  0  0
   30.7470   35.3310    9.2950 C   0  0  0  0  0  0  0  0  0  0  0  0
   30.0710   36.6930    9.3490 C   0  0  0  0  0  0  0  0  0  0  0  0
   31.0880   37.8010    9.1560 C   0  0  0  0  0  0  0  0  0  0  0  0
   30.5560   39.1070    9.6330 N   0  0  0  0  0  0  0  0  0  0  0  0
  1  2  1  0  0  0  0
  3  4  1  0  0  0  0
  3  2  1  0  0  0  0
  5  4  1  0  0  0  0
  5  6  1  0  0  0  0
M  END
>  <EGIN_R>
ES LYS A 135

>  <REMARK>
  4 active torsions:
  status: ('A' for Active; 'I' for Inactive)
    5  A    between atoms: CA   and  CB  
    6  A    between atoms: CB   and  CG  
    7  A    between atoms: CG   and  CD  
    8  A    between atoms: CD   and  CE  

$$$$
