ligand_59_pose_6_2HRL.pdbqt
 OpenBabel07062320523D

 52 53  0  0  1  0  0  0  0  0999 V2000
   28.5910   40.7100    4.5260 N   0  0  0  0  0  0  0  0  0  0  0  0
   28.2900   41.9710    5.1420 C   0  0  0  0  0  0  0  0  0  0  0  0
   27.0980   42.1560    5.4730 O   0  0  0  0  0  0  0  0  0  0  0  0
   29.5970   40.5920    4.2790 H   0  0  0  0  0  0  0  0  0  0  0  0
   27.5670   39.7220    4.3170 C   0  0  0  0  0  0  0  0  0  0  0  0
   27.8730   38.4880    5.1510 C   0  0  2  0  0  0  0  0  0  0  0  0
   27.3430   38.7740    6.5260 C   0  0  2  0  0  0  0  0  0  0  0  0
   27.6790   37.7890    7.6080 C   0  0  2  0  0  0  0  0  0  0  0  0
   29.7030   37.1340    8.6280 C   0  0  2  0  0  0  0  0  0  0  0  0
   29.3060   35.6790    8.6470 C   0  0  0  0  0  0  0  0  0  0  0  0
   29.0460   37.8440    7.6840 O   0  0  0  0  0  0  0  0  0  0  0  0
   28.4830   35.4840    7.3880 C   0  0  1  0  0  0  0  0  0  0  0  0
   27.2350   36.3990    7.4450 C   0  0  1  0  0  0  0  0  0  0  0  0
   31.1000   37.1340    8.3210 O   0  0  0  0  0  0  0  0  0  0  0  0
   31.5830   36.6180    9.0150 H   0  0  0  0  0  0  0  0  0  0  0  0
   29.5890   37.7970    9.9440 C   0  0  0  0  0  0  0  0  0  0  0  0
   28.7740   37.3640   10.7810 O   0  0  0  0  0  0  0  0  0  0  0  0
   30.3740   38.8870   10.2650 O   0  0  0  0  0  0  0  0  0  0  0  0
   31.0130   39.2530    9.5710 H   0  0  0  0  0  0  0  0  0  0  0  0
   29.2090   35.6840    6.2400 O   0  0  0  0  0  0  0  0  0  0  0  0
   29.6840   36.5620    6.2960 H   0  0  0  0  0  0  0  0  0  0  0  0
   26.4520   35.8550    8.5070 N   0  0  0  0  0  0  0  0  0  0  0  0
   25.0960   36.1760    8.6830 C   0  0  0  0  0  0  0  0  0  0  0  0
   26.9010   35.2040    9.1750 H   0  0  0  0  0  0  0  0  0  0  0  0
   24.2830   35.6100    9.7860 C   0  0  0  0  0  0  0  0  0  0  0  0
   24.5490   36.9630    7.8860 O   0  0  0  0  0  0  0  0  0  0  0  0
   25.9380   38.7810    6.4460 O   0  0  0  0  0  0  0  0  0  0  0  0
   25.5270   38.2670    7.1920 H   0  0  0  0  0  0  0  0  0  0  0  0
   29.2950   38.4760    5.1890 O   0  0  0  0  0  0  0  0  0  0  0  0
   29.6250   38.3330    4.2870 H   0  0  0  0  0  0  0  0  0  0  0  0
   29.2310   42.9370    5.3710 O   0  0  0  0  0  0  0  0  0  0  0  0
   30.2070   42.8700    6.3650 C   0  0  0  0  0  0  0  0  0  0  0  0
   31.0310   41.6370    6.3120 C   0  0  0  0  0  0  0  0  0  0  0  0
   32.1890   41.5020    5.5400 C   0  0  0  0  0  0  0  0  0  0  0  0
   30.8960   40.4640    6.9180 N   0  0  0  0  0  0  0  0  0  0  0  0
   32.6840   40.2770    5.7140 N   0  0  0  0  0  0  0  0  0  0  0  0
   31.8910   39.6530    6.5520 N   0  0  0  0  0  0  0  0  0  0  0  0
   33.8610   39.7440    5.0890 C   0  0  0  0  0  0  0  0  0  0  0  0
   34.1180   39.8750    3.7400 C   0  0  0  0  0  0  0  0  0  0  0  0
   34.7610   39.0730    5.8240 N   0  0  0  0  0  0  0  0  0  0  0  0
   35.2330   39.3590    3.1350 C   0  0  0  0  0  0  0  0  0  0  0  0
   35.8690   38.5500    5.2760 C   0  0  0  0  0  0  0  0  0  0  0  0
   36.1420   38.6740    3.9180 C   0  0  0  0  0  0  0  0  0  0  0  0
   37.3880   38.0740    3.3610 C   0  0  0  0  0  0  0  0  0  0  0  0
   37.5130   36.7750    3.8360 O   0  0  0  0  0  0  0  0  0  0  0  0
   36.6400   36.4560    4.1800 H   0  0  0  0  0  0  0  0  0  0  0  0
   29.8670   25.5550   16.9770 C   0  0  0  0  0  0  0  0  0  0  0  0
   28.3450   25.7220   17.0260 C   0  0  0  0  0  0  0  0  0  0  0  0
   27.6020   24.3990   16.9260 C   0  0  0  0  0  0  0  0  0  0  0  0
   26.5990   24.2270   18.0330 C   0  0  0  0  0  0  0  0  0  0  0  0
   25.2860   23.7100   17.4550 C   0  0  0  0  0  0  0  0  0  0  0  0
   24.1960   24.6850   17.6900 N   0  0  0  0  0  0  0  0  0  0  0  0
  1  2  1  0  0  0  0
  2 31  1  0  0  0  0
  2  3  2  0  0  0  0
  4  1  1  0  0  0  0
  5  1  1  0  0  0  0
  6  5  1  6  0  0  0
  6 29  1  0  0  0  0
  6  7  1  0  0  0  0
  7 27  1  6  0  0  0
  8  7  1  6  0  0  0
  8 11  1  0  0  0  0
  9 14  1  6  0  0  0
  9 10  1  0  0  0  0
  9 16  1  0  0  0  0
 11  9  1  0  0  0  0
 12 20  1  6  0  0  0
 12 13  1  0  0  0  0
 12 10  1  0  0  0  0
 13  8  1  0  0  0  0
 13 22  1  1  0  0  0
 14 15  1  0  0  0  0
 16 18  1  0  0  0  0
 16 17  2  0  0  0  0
 19 18  1  0  0  0  0
 20 21  1  0  0  0  0
 22 23  1  0  0  0  0
 22 24  1  0  0  0  0
 23 25  1  0  0  0  0
 26 23  2  0  0  0  0
 27 28  1  0  0  0  0
 30 29  1  0  0  0  0
 31 32  1  0  0  0  0
 33 32  1  0  0  0  0
 33 35  1  0  0  0  0
 34 36  1  0  0  0  0
 34 33  2  0  0  0  0
 36 37  1  0  0  0  0
 37 35  2  0  0  0  0
 38 36  1  0  0  0  0
 38 40  2  0  0  0  0
 39 38  1  0  0  0  0
 41 39  2  0  0  0  0
 41 43  1  0  0  0  0
 42 40  1  0  0  0  0
 43 42  2  0  0  0  0
 44 45  1  0  0  0  0
 44 43  1  0  0  0  0
 45 46  1  0  0  0  0
 47 48  1  0  0  0  0
 49 48  1  0  0  0  0
 49 50  1  0  0  0  0
 51 52  1  0  0  0  0
 51 50  1  0  0  0  0
M  END
>  <REMARK>
 VINA RESULT:    -5.003      7.720     14.134
 INTER + INTRA:         -14.832
 INTER:                 -10.000
 INTRA:                  -4.831
 UNBOUND:                -5.735
 SMILES CC(=O)N[C@@H]1[C@@H](O)C[C@](O)(C(=O)O)O[C@H]1C(O)[C@H](O)CNC(=O)OCc1cn(-c2ccc(CO)cn2)nn1
 SMILES IDX 21 1 22 2 23 3 20 5 18 6 16 7 15 8 9 9 8 10 14 11 6 12 5 13
 SMILES IDX 10 14 11 16 12 17 13 18 7 20 4 22 2 23 1 25 3 26 17 27 19 29
 SMILES IDX 24 31 25 32 26 33 27 34 38 35 28 36 37 37 29 38 30 39 36 40
 SMILES IDX 31 41 35 42 32 43 33 44 34 45
 H PARENT 21 4 10 15 13 19 7 21 4 24 17 28 19 30 34 46
 Flexibility Score: inf
  4 active torsions:
  status: ('A' for Active; 'I' for Inactive)
    1  A    between atoms: CA   and  CB  
    2  A    between atoms: CB   and  CG  
    3  A    between atoms: CG   and  CD  
    4  A    between atoms: CD   and  CE  

>  <TORSDO>
F 17

>  <BEGIN_>
RES LYS A 131

$$$$
ligand_59_pose_6_2HRL.pdbqt
 OpenBabel07062320523D

  6  5  0  0  0  0  0  0  0  0999 V2000
   33.1930   34.6630    9.2900 C   0  0  0  0  0  0  0  0  0  0  0  0
   32.0600   35.3600   10.0340 C   0  0  0  0  0  0  0  0  0  0  0  0
   32.5000   36.0330   11.3090 C   0  0  0  0  0  0  0  0  0  0  0  0
   31.5150   35.7500   12.4320 C   0  0  0  0  0  0  0  0  0  0  0  0
   30.5760   34.6240   12.0470 C   0  0  0  0  0  0  0  0  0  0  0  0
   29.3320   34.6590   12.8640 N   0  0  0  0  0  0  0  0  0  0  0  0
  1  2  1  0  0  0  0
  2  3  1  0  0  0  0
  3  4  1  0  0  0  0
  5  4  1  0  0  0  0
  5  6  1  0  0  0  0
M  END
>  <EGIN_R>
ES LYS A 135

>  <REMARK>
  4 active torsions:
  status: ('A' for Active; 'I' for Inactive)
    5  A    between atoms: CA   and  CB  
    6  A    between atoms: CB   and  CG  
    7  A    between atoms: CG   and  CD  
    8  A    between atoms: CD   and  CE  

$$$$
