ligand_45_pose_16_2HRL.pdbqt
 OpenBabel07062320523D

 52 52  0  0  1  0  0  0  0  0999 V2000
   26.8850   34.3730   15.3490 O   0  0  0  0  0  0  0  0  0  0  0  0
   25.9220   34.4010   14.3600 C   0  0  0  0  0  0  0  0  0  0  0  0
   26.2580   34.4090   12.9690 N   0  0  0  0  0  0  0  0  0  0  0  0
   27.2590   34.3820   12.7480 H   0  0  0  0  0  0  0  0  0  0  0  0
   24.7150   34.4220   14.6960 O   0  0  0  0  0  0  0  0  0  0  0  0
   25.2130   34.4380   12.0140 C   0  0  0  0  0  0  0  0  0  0  0  0
   24.9320   35.7520   11.3630 C   0  0  2  0  0  0  0  0  0  0  0  0
   24.6590   35.7030    9.8920 C   0  0  1  0  0  0  0  0  0  0  0  0
   23.4960   36.5320    9.4350 C   0  0  2  0  0  0  0  0  0  0  0  0
   21.6090   36.4490    8.1250 C   0  0  2  0  0  0  0  0  0  0  0  0
   21.3720   37.7430    8.8810 C   0  0  0  0  0  0  0  0  0  0  0  0
   22.7310   35.7910    8.5680 O   0  0  0  0  0  0  0  0  0  0  0  0
   22.5410   38.6660    8.7300 C   0  0  1  0  0  0  0  0  0  0  0  0
   23.8340   37.8550    8.8420 C   0  0  1  0  0  0  0  0  0  0  0  0
   21.8030   36.7930    6.7740 O   0  0  0  0  0  0  0  0  0  0  0  0
   22.7150   36.4750    6.5440 H   0  0  0  0  0  0  0  0  0  0  0  0
   20.4200   35.5890    8.2230 C   0  0  0  0  0  0  0  0  0  0  0  0
   19.4610   35.9100    8.9790 O   0  0  0  0  0  0  0  0  0  0  0  0
   20.3130   34.4170    7.5020 O   0  0  0  0  0  0  0  0  0  0  0  0
   20.0360   33.5590    7.9410 H   0  0  0  0  0  0  0  0  0  0  0  0
   22.4620   39.2880    7.4770 O   0  0  0  0  0  0  0  0  0  0  0  0
   23.2480   39.8610    7.3460 H   0  0  0  0  0  0  0  0  0  0  0  0
   24.6820   38.6520    9.7340 N   0  0  0  0  0  0  0  0  0  0  0  0
   25.4810   39.7000    9.2180 C   0  0  0  0  0  0  0  0  0  0  0  0
   24.6870   38.4340   10.7570 H   0  0  0  0  0  0  0  0  0  0  0  0
   26.3440   40.5030   10.1410 C   0  0  0  0  0  0  0  0  0  0  0  0
   25.5100   40.0100    7.9870 O   0  0  0  0  0  0  0  0  0  0  0  0
   25.8230   36.0710    9.2020 O   0  0  0  0  0  0  0  0  0  0  0  0
   26.3310   35.2330    9.0180 H   0  0  0  0  0  0  0  0  0  0  0  0
   26.0510   36.5750   11.6170 O   0  0  0  0  0  0  0  0  0  0  0  0
   26.8980   36.1160   11.4470 H   0  0  0  0  0  0  0  0  0  0  0  0
   27.7280   35.5040   15.5190 C   0  0  0  0  0  0  0  0  0  0  0  0
   28.9370   35.3630   14.6760 C   0  0  0  0  0  0  0  0  0  0  0  0
   29.8030   36.3250   14.2040 C   0  0  0  0  0  0  0  0  0  0  0  0
   29.4270   34.2000   14.1940 N   0  0  0  0  0  0  0  0  0  0  0  0
   30.7730   35.7510   13.4660 N   0  0  0  0  0  0  0  0  0  0  0  0
   30.5070   34.4610   13.4860 N   0  0  0  0  0  0  0  0  0  0  0  0
   31.8690   36.3580   12.7850 C   0  0  0  0  0  0  0  0  0  0  0  0
   31.5870   37.7170   12.2680 C   0  0  0  0  0  0  0  0  0  0  0  0
   32.0010   38.0530   10.8960 C   0  0  0  0  0  0  0  0  0  0  0  0
   31.1380   38.7430   10.0280 N   0  0  0  0  0  0  0  0  0  0  0  0
   30.9500   38.1880    8.7140 C   0  0  0  0  0  0  0  0  0  0  0  0
   29.8010   38.6740   10.6510 C   0  0  0  0  0  0  0  0  0  0  0  0
   28.7900   37.9430    9.8550 C   0  0  0  0  0  0  0  0  0  0  0  0
   31.4390   40.1400    9.8900 C   0  0  0  0  0  0  0  0  0  0  0  0
   31.4010   40.9230   11.1520 C   0  0  0  0  0  0  0  0  0  0  0  0
   29.8670   25.5550   16.9770 C   0  0  0  0  0  0  0  0  0  0  0  0
   28.3450   25.7220   17.0260 C   0  0  0  0  0  0  0  0  0  0  0  0
   27.5990   24.4420   16.6830 C   0  0  0  0  0  0  0  0  0  0  0  0
   26.7040   23.9900   17.8040 C   0  0  0  0  0  0  0  0  0  0  0  0
   25.2510   24.0310   17.3430 C   0  0  0  0  0  0  0  0  0  0  0  0
   24.6350   22.6870   17.4450 N   0  0  0  0  0  0  0  0  0  0  0  0
  1 32  1  0  0  0  0
  2  5  2  0  0  0  0
  2  1  1  0  0  0  0
  3  2  1  0  0  0  0
  4  3  1  0  0  0  0
  6  3  1  0  0  0  0
  7 30  1  0  0  0  0
  7  6  1  6  0  0  0
  8 28  1  6  0  0  0
  8  7  1  0  0  0  0
  9  8  1  6  0  0  0
 10 15  1  6  0  0  0
 10 17  1  0  0  0  0
 10 12  1  0  0  0  0
 10 11  1  0  0  0  0
 12  9  1  0  0  0  0
 13 21  1  6  0  0  0
 13 14  1  0  0  0  0
 13 11  1  0  0  0  0
 14  9  1  0  0  0  0
 14 23  1  1  0  0  0
 16 15  1  0  0  0  0
 17 18  2  0  0  0  0
 19 20  1  0  0  0  0
 19 17  1  0  0  0  0
 22 21  1  0  0  0  0
 23 25  1  0  0  0  0
 24 23  1  0  0  0  0
 24 26  1  0  0  0  0
 27 24  2  0  0  0  0
 29 28  1  0  0  0  0
 31 30  1  0  0  0  0
 33 32  1  0  0  0  0
 34 33  2  0  0  0  0
 35 33  1  0  0  0  0
 36 37  1  0  0  0  0
 36 34  1  0  0  0  0
 37 35  2  0  0  0  0
 38 36  1  0  0  0  0
 39 38  1  0  0  0  0
 40 39  1  0  0  0  0
 41 43  1  0  0  0  0
 41 40  1  0  0  0  0
 42 41  1  0  0  0  0
 44 43  1  0  0  0  0
 45 41  1  0  0  0  0
 45 46  1  0  0  0  0
 47 48  1  0  0  0  0
 49 48  1  0  0  0  0
 49 50  1  0  0  0  0
 51 52  1  0  0  0  0
 51 50  1  0  0  0  0
M  END
>  <REMARK>
 VINA RESULT:    -3.997      7.267     12.405
 INTER + INTRA:         -13.962
 INTER:                  -8.416
 INTRA:                  -5.546
 UNBOUND:                -5.875
 SMILES CC[N+](C)(CC)CCCn1cc(COC(=O)NC[C@@H](O)C(O)[C@@H]2O[C@@](O)(C(=O)O)C[C@H](O)[C@H]2NC(C)=O)nn1
 SMILES IDX 14 1 15 2 17 3 16 5 18 6 19 7 21 8 23 9 25 10 30 11 24 12
 SMILES IDX 31 13 33 14 26 15 27 17 28 18 29 19 32 21 34 23 35 24 36 26
 SMILES IDX 37 27 22 28 20 30 13 32 12 33 11 34 38 35 10 36 39 37 9 38
 SMILES IDX 8 39 7 40 3 41 4 42 2 43 1 44 5 45 6 46
 H PARENT 17 4 26 16 29 20 32 22 34 25 22 29 20 31
 Flexibility Score: inf
  4 active torsions:
  status: ('A' for Active; 'I' for Inactive)
    1  A    between atoms: CA   and  CB  
    2  A    between atoms: CB   and  CG  
    3  A    between atoms: CG   and  CD  
    4  A    between atoms: CD   and  CE  

>  <TORSDO>
F 20

>  <BEGIN_>
RES LYS A 131

$$$$
ligand_45_pose_16_2HRL.pdbqt
 OpenBabel07062320523D

  6  5  0  0  0  0  0  0  0  0999 V2000
   33.1930   34.6630    9.2900 C   0  0  0  0  0  0  0  0  0  0  0  0
   32.0600   35.3600   10.0340 C   0  0  0  0  0  0  0  0  0  0  0  0
   30.7130   34.7220    9.8140 C   0  0  0  0  0  0  0  0  0  0  0  0
   30.4510   34.5190    8.3300 C   0  0  0  0  0  0  0  0  0  0  0  0
   28.9960   34.7970    8.0020 C   0  0  0  0  0  0  0  0  0  0  0  0
   28.8670   35.5240    6.7090 N   0  0  0  0  0  0  0  0  0  0  0  0
  1  2  1  0  0  0  0
  3  2  1  0  0  0  0
  4  3  1  0  0  0  0
  5  4  1  0  0  0  0
  6  5  1  0  0  0  0
M  END
>  <EGIN_R>
ES LYS A 135

>  <REMARK>
  4 active torsions:
  status: ('A' for Active; 'I' for Inactive)
    5  A    between atoms: CA   and  CB  
    6  A    between atoms: CB   and  CG  
    7  A    between atoms: CG   and  CD  
    8  A    between atoms: CD   and  CE  

$$$$
