ligand_56_pose_19_2HRL.pdbqt
 OpenBabel07062320523D

 49 50  0  0  1  0  0  0  0  0999 V2000
   27.0660   35.5680   16.9590 C   0  0  0  0  0  0  0  0  0  0  0  0
   26.4590   34.4570   16.1780 C   0  0  2  0  0  0  0  0  0  0  0  0
   27.4660   33.7510   15.2850 C   0  0  2  0  0  0  0  0  0  0  0  0
   28.7630   33.4720   15.9560 C   0  0  2  0  0  0  0  0  0  0  0  0
   31.0440   33.2990   15.6510 C   0  0  2  0  0  0  0  0  0  0  0  0
   31.0420   32.8700   17.0970 C   0  0  0  0  0  0  0  0  0  0  0  0
   29.8630   33.8570   15.2420 O   0  0  0  0  0  0  0  0  0  0  0  0
   29.9240   31.9170   17.4190 C   0  0  1  0  0  0  0  0  0  0  0  0
   28.9170   31.9970   16.2880 C   0  0  1  0  0  0  0  0  0  0  0  0
   31.4450   32.2670   14.8030 O   0  0  0  0  0  0  0  0  0  0  0  0
   31.7360   32.6090   13.9160 H   0  0  0  0  0  0  0  0  0  0  0  0
   32.0980   34.3670   15.5320 C   0  0  0  0  0  0  0  0  0  0  0  0
   33.0450   34.3040   14.7330 O   0  0  0  0  0  0  0  0  0  0  0  0
   31.9530   35.4570   16.3860 O   0  0  0  0  0  0  0  0  0  0  0  0
   31.7450   36.3780   16.0110 H   0  0  0  0  0  0  0  0  0  0  0  0
   30.3790   30.6080   17.5710 O   0  0  0  0  0  0  0  0  0  0  0  0
   31.3540   30.5780   17.4160 H   0  0  0  0  0  0  0  0  0  0  0  0
   27.6590   31.3860   16.6470 N   0  0  0  0  0  0  0  0  0  0  0  0
   27.3840   30.0320   16.3120 C   0  0  0  0  0  0  0  0  0  0  0  0
   26.9240   31.9120   17.1540 H   0  0  0  0  0  0  0  0  0  0  0  0
   26.0910   29.3680   16.6690 C   0  0  0  0  0  0  0  0  0  0  0  0
   28.2590   29.3710   15.6960 O   0  0  0  0  0  0  0  0  0  0  0  0
   27.5360   34.3420   14.0510 O   0  0  0  0  0  0  0  0  0  0  0  0
   28.4340   34.1690   13.6570 H   0  0  0  0  0  0  0  0  0  0  0  0
   25.4410   34.8730   15.3400 O   0  0  0  0  0  0  0  0  0  0  0  0
   24.8140   35.5060   15.7570 H   0  0  0  0  0  0  0  0  0  0  0  0
   27.1550   36.7680   16.1770 N   0  0  0  0  0  0  0  0  0  0  0  0
   28.3080   37.4150   15.7160 C   0  0  0  0  0  0  0  0  0  0  0  0
   26.2290   37.2460   15.9000 H   0  0  0  0  0  0  0  0  0  0  0  0
   29.4280   36.9740   15.9740 O   0  0  0  0  0  0  0  0  0  0  0  0
   28.2590   38.5900   14.9420 O   0  0  0  0  0  0  0  0  0  0  0  0
   27.0500   38.9210   14.2500 C   0  0  0  0  0  0  0  0  0  0  0  0
   26.7430   37.9270   13.2180 C   0  0  0  0  0  0  0  0  0  0  0  0
   27.2340   37.8140   11.9370 C   0  0  0  0  0  0  0  0  0  0  0  0
   25.8770   36.9040   13.3700 N   0  0  0  0  0  0  0  0  0  0  0  0
   26.6450   36.7320   11.3790 N   0  0  0  0  0  0  0  0  0  0  0  0
   25.8300   36.1910   12.2490 N   0  0  0  0  0  0  0  0  0  0  0  0
   26.8560   36.2330   10.0570 C   0  0  0  0  0  0  0  0  0  0  0  0
   27.4940   37.0360    9.1430 C   0  0  0  0  0  0  0  0  0  0  0  0
   26.4200   34.9610    9.7080 C   0  0  0  0  0  0  0  0  0  0  0  0
   27.6890   36.5400    7.8720 C   0  0  0  0  0  0  0  0  0  0  0  0
   26.6380   34.5140    8.4370 C   0  0  0  0  0  0  0  0  0  0  0  0
   27.2660   35.3110    7.5480 N   0  0  0  0  0  0  0  0  0  0  0  0
   29.8670   25.5550   16.9770 C   0  0  0  0  0  0  0  0  0  0  0  0
   28.3450   25.7220   17.0260 C   0  0  0  0  0  0  0  0  0  0  0  0
   27.6010   24.4010   16.9000 C   0  0  0  0  0  0  0  0  0  0  0  0
   26.5000   24.2720   17.9150 C   0  0  0  0  0  0  0  0  0  0  0  0
   25.1630   24.6010   17.2610 C   0  0  0  0  0  0  0  0  0  0  0  0
   24.6910   25.9400   17.6890 N   0  0  0  0  0  0  0  0  0  0  0  0
  2  1  1  6  0  0  0
  3 23  1  6  0  0  0
  3  2  1  0  0  0  0
  4  3  1  6  0  0  0
  4  9  1  0  0  0  0
  5 10  1  6  0  0  0
  5  6  1  0  0  0  0
  6  8  1  0  0  0  0
  7  5  1  0  0  0  0
  7  4  1  0  0  0  0
  8 16  1  6  0  0  0
  9 18  1  1  0  0  0
  9  8  1  0  0  0  0
 11 10  1  0  0  0  0
 12  5  1  0  0  0  0
 12 14  1  0  0  0  0
 13 12  2  0  0  0  0
 15 14  1  0  0  0  0
 17 16  1  0  0  0  0
 18 20  1  0  0  0  0
 19 18  1  0  0  0  0
 19 21  1  0  0  0  0
 22 19  2  0  0  0  0
 24 23  1  0  0  0  0
 25 26  1  0  0  0  0
 25  2  1  0  0  0  0
 27  1  1  0  0  0  0
 28 30  2  0  0  0  0
 28 27  1  0  0  0  0
 29 27  1  0  0  0  0
 31 28  1  0  0  0  0
 32 31  1  0  0  0  0
 33 35  1  0  0  0  0
 33 32  1  0  0  0  0
 34 33  2  0  0  0  0
 36 34  1  0  0  0  0
 36 37  1  0  0  0  0
 37 35  2  0  0  0  0
 38 36  1  0  0  0  0
 39 38  2  0  0  0  0
 40 38  1  0  0  0  0
 41 39  1  0  0  0  0
 42 40  2  0  0  0  0
 43 41  2  0  0  0  0
 43 42  1  0  0  0  0
 44 45  1  0  0  0  0
 46 45  1  0  0  0  0
 46 47  1  0  0  0  0
 48 49  1  0  0  0  0
 48 47  1  0  0  0  0
M  END
>  <REMARK>
 VINA RESULT:    -4.699      4.742      8.459
 INTER + INTRA:         -13.406
 INTER:                  -8.017
 INTRA:                  -5.389
 UNBOUND:                -5.272
 SMILES CC(=O)N[C@@H]1[C@@H](O)C[C@](O)(C(=O)O)O[C@H]1C(O)[C@H](O)CNC(=O)OCc1cn(-c2ccncc2)nn1
 SMILES IDX 20 1 18 2 16 3 15 4 9 5 8 6 14 7 6 8 5 9 10 10 11 12 12 13
 SMILES IDX 13 14 7 16 4 18 2 19 1 21 3 22 17 23 19 25 21 27 22 28 23 30
 SMILES IDX 24 31 25 32 26 33 27 34 36 35 28 36 35 37 29 38 30 39 34 40
 SMILES IDX 31 41 33 42 32 43
 H PARENT 10 11 13 15 7 17 4 20 17 24 19 26 21 29
 Flexibility Score: inf
  4 active torsions:
  status: ('A' for Active; 'I' for Inactive)
    1  A    between atoms: CA   and  CB  
    2  A    between atoms: CB   and  CG  
    3  A    between atoms: CG   and  CD  
    4  A    between atoms: CD   and  CE  

>  <TORSDO>
F 15

>  <BEGIN_>
RES LYS A 131

$$$$
ligand_56_pose_19_2HRL.pdbqt
 OpenBabel07062320523D

  6  5  0  0  0  0  0  0  0  0999 V2000
   33.1930   34.6630    9.2900 C   0  0  0  0  0  0  0  0  0  0  0  0
   32.0600   35.3600   10.0340 C   0  0  0  0  0  0  0  0  0  0  0  0
   30.6910   34.8640    9.6480 C   0  0  0  0  0  0  0  0  0  0  0  0
   29.8180   34.6820   10.8800 C   0  0  0  0  0  0  0  0  0  0  0  0
   30.6330   34.8830   12.1440 C   0  0  0  0  0  0  0  0  0  0  0  0
   30.2220   36.1260   12.8550 N   0  0  0  0  0  0  0  0  0  0  0  0
  1  2  1  0  0  0  0
  3  2  1  0  0  0  0
  3  4  1  0  0  0  0
  4  5  1  0  0  0  0
  5  6  1  0  0  0  0
M  END
>  <EGIN_R>
ES LYS A 135

>  <REMARK>
  4 active torsions:
  status: ('A' for Active; 'I' for Inactive)
    5  A    between atoms: CA   and  CB  
    6  A    between atoms: CB   and  CG  
    7  A    between atoms: CG   and  CD  
    8  A    between atoms: CD   and  CE  

$$$$
