ligand_12_pose_4_2HRL.pdbqt
 OpenBabel07062320523D

 52 53  0  0  1  0  0  0  0  0999 V2000
   22.7060   39.7320    7.4180 N   0  0  0  0  0  0  0  0  0  0  0  0
   22.0350   40.0530    8.6350 C   0  0  0  0  0  0  0  0  0  0  0  0
   22.4560   40.9800    9.3920 O   0  0  0  0  0  0  0  0  0  0  0  0
   22.3340   38.9720    6.8260 H   0  0  0  0  0  0  0  0  0  0  0  0
   23.8840   40.5080    7.0870 C   0  0  0  0  0  0  0  0  0  0  0  0
   25.0710   39.6360    6.7810 C   0  0  2  0  0  0  0  0  0  0  0  0
   25.9840   39.5640    7.9860 C   0  0  2  0  0  0  0  0  0  0  0  0
   26.9110   38.3950    7.9410 C   0  0  2  0  0  0  0  0  0  0  0  0
   29.0220   37.7980    7.1550 C   0  0  2  0  0  0  0  0  0  0  0  0
   28.5010   36.3690    7.2280 C   0  0  0  0  0  0  0  0  0  0  0  0
   28.0050   38.7450    7.1550 O   0  0  0  0  0  0  0  0  0  0  0  0
   27.1600   36.3590    6.5280 C   0  0  1  0  0  0  0  0  0  0  0  0
   26.2220   37.1510    7.4240 C   0  0  1  0  0  0  0  0  0  0  0  0
   29.6470   37.9040    5.9140 O   0  0  0  0  0  0  0  0  0  0  0  0
   29.4760   38.7800    5.4850 H   0  0  0  0  0  0  0  0  0  0  0  0
   30.0180   38.0390    8.2070 C   0  0  0  0  0  0  0  0  0  0  0  0
   29.6480   38.1010    9.4050 O   0  0  0  0  0  0  0  0  0  0  0  0
   31.3740   38.2080    7.9550 O   0  0  0  0  0  0  0  0  0  0  0  0
   31.6590   38.3830    6.9970 H   0  0  0  0  0  0  0  0  0  0  0  0
   27.2350   36.9400    5.2660 O   0  0  0  0  0  0  0  0  0  0  0  0
   28.1050   37.4420    5.2000 H   0  0  0  0  0  0  0  0  0  0  0  0
   25.8870   36.2970    8.5430 N   0  0  0  0  0  0  0  0  0  0  0  0
   24.5580   36.2670    9.0440 C   0  0  0  0  0  0  0  0  0  0  0  0
   26.5820   35.6760    9.0250 H   0  0  0  0  0  0  0  0  0  0  0  0
   24.1580   35.4060   10.1910 C   0  0  0  0  0  0  0  0  0  0  0  0
   23.6610   36.9800    8.5250 O   0  0  0  0  0  0  0  0  0  0  0  0
   25.2420   39.6710    9.1370 O   0  0  0  0  0  0  0  0  0  0  0  0
   25.3180   40.6160    9.4560 H   0  0  0  0  0  0  0  0  0  0  0  0
   25.7320   40.1460    5.6700 O   0  0  0  0  0  0  0  0  0  0  0  0
   25.7790   39.4540    4.9580 H   0  0  0  0  0  0  0  0  0  0  0  0
   20.8980   39.3770    9.0540 O   0  0  0  0  0  0  0  0  0  0  0  0
   20.7420   38.8230   10.3440 C   0  0  0  0  0  0  0  0  0  0  0  0
   20.5260   37.3600   10.3190 C   0  0  0  0  0  0  0  0  0  0  0  0
   20.7160   36.4040   11.2940 C   0  0  0  0  0  0  0  0  0  0  0  0
   20.0740   36.6800    9.2510 N   0  0  0  0  0  0  0  0  0  0  0  0
   20.3800   35.1870   10.8000 N   0  0  0  0  0  0  0  0  0  0  0  0
   19.9960   35.4040    9.5570 N   0  0  0  0  0  0  0  0  0  0  0  0
   20.4310   33.8940   11.5000 C   0  0  0  0  0  0  0  0  0  0  0  0
   21.6970   33.7200   12.0510 O   0  0  0  0  0  0  0  0  0  0  0  0
   21.6830   32.9140   13.1660 C   0  0  0  0  0  0  0  0  0  0  0  0
   22.2590   31.5700   12.9580 C   0  0  0  0  0  0  0  0  0  0  0  0
   21.4530   30.5390   12.5210 C   0  0  0  0  0  0  0  0  0  0  0  0
   23.5890   31.3230   13.1860 C   0  0  0  0  0  0  0  0  0  0  0  0
   21.9780   29.2610   12.3120 C   0  0  0  0  0  0  0  0  0  0  0  0
   24.1050   30.0540   12.9770 C   0  0  0  0  0  0  0  0  0  0  0  0
   23.3190   29.0310   12.5470 C   0  0  0  0  0  0  0  0  0  0  0  0
   29.8670   25.5550   16.9770 C   0  0  0  0  0  0  0  0  0  0  0  0
   28.3450   25.7220   17.0260 C   0  0  0  0  0  0  0  0  0  0  0  0
   27.6010   24.4030   16.8870 C   0  0  0  0  0  0  0  0  0  0  0  0
   26.6650   24.1570   18.0370 C   0  0  0  0  0  0  0  0  0  0  0  0
   25.5310   23.2420   17.5840 C   0  0  0  0  0  0  0  0  0  0  0  0
   24.4870   24.0210   16.8780 N   0  0  0  0  0  0  0  0  0  0  0  0
  1  2  1  0  0  0  0
  2 31  1  0  0  0  0
  2  3  2  0  0  0  0
  4  1  1  0  0  0  0
  5  1  1  0  0  0  0
  6  5  1  1  0  0  0
  6  7  1  0  0  0  0
  7 27  1  1  0  0  0
  8  7  1  6  0  0  0
  9 14  1  6  0  0  0
  9 11  1  0  0  0  0
  9 10  1  0  0  0  0
  9 16  1  0  0  0  0
 11  8  1  0  0  0  0
 12 20  1  6  0  0  0
 12 10  1  0  0  0  0
 12 13  1  0  0  0  0
 13  8  1  0  0  0  0
 13 22  1  1  0  0  0
 15 14  1  0  0  0  0
 16 17  2  0  0  0  0
 18 16  1  0  0  0  0
 19 18  1  0  0  0  0
 21 20  1  0  0  0  0
 22 24  1  0  0  0  0
 22 23  1  0  0  0  0
 23 25  1  0  0  0  0
 26 23  2  0  0  0  0
 27 28  1  0  0  0  0
 29  6  1  0  0  0  0
 30 29  1  0  0  0  0
 31 32  1  0  0  0  0
 33 32  1  0  0  0  0
 33 34  2  0  0  0  0
 35 37  2  0  0  0  0
 35 33  1  0  0  0  0
 36 34  1  0  0  0  0
 36 38  1  0  0  0  0
 37 36  1  0  0  0  0
 38 39  1  0  0  0  0
 39 40  1  0  0  0  0
 41 40  1  0  0  0  0
 41 43  2  0  0  0  0
 42 41  1  0  0  0  0
 44 42  2  0  0  0  0
 44 46  1  0  0  0  0
 45 43  1  0  0  0  0
 46 45  2  0  0  0  0
 47 48  1  0  0  0  0
 49 48  1  0  0  0  0
 49 50  1  0  0  0  0
 51 50  1  0  0  0  0
 52 51  1  0  0  0  0
M  END
>  <REMARK>
 VINA RESULT:    -6.380      1.787      2.608
 INTER + INTRA:         -15.935
 INTER:                 -10.663
 INTRA:                  -5.272
 UNBOUND:                -3.774
 SMILES CC(=O)N[C@@H]1[C@@H](O)C[C@](O)(C(=O)O)O[C@H]1C(O)[C@H](O)CNC(=O)OCc1cn(COCc2ccccc2)nn1
 SMILES IDX 21 1 22 2 23 3 20 5 18 6 16 7 15 8 9 9 8 10 14 11 6 12 5 13
 SMILES IDX 10 14 11 16 12 17 13 18 7 20 4 22 2 23 1 25 3 26 17 27 19 29
 SMILES IDX 24 31 25 32 26 33 27 34 39 35 28 36 38 37 29 38 30 39 31 40
 SMILES IDX 32 41 33 42 37 43 34 44 36 45 35 46
 H PARENT 21 4 10 15 13 19 7 21 4 24 17 28 19 30
 Flexibility Score: inf
  4 active torsions:
  status: ('A' for Active; 'I' for Inactive)
    1  A    between atoms: CA   and  CB  
    2  A    between atoms: CB   and  CG  
    3  A    between atoms: CG   and  CD  
    4  A    between atoms: CD   and  CE  

>  <TORSDO>
F 18

>  <BEGIN_>
RES LYS A 131

$$$$
ligand_12_pose_4_2HRL.pdbqt
 OpenBabel07062320523D

  6  5  0  0  0  0  0  0  0  0999 V2000
   33.1930   34.6630    9.2900 C   0  0  0  0  0  0  0  0  0  0  0  0
   32.0600   35.3600   10.0340 C   0  0  0  0  0  0  0  0  0  0  0  0
   30.6980   34.7940    9.7250 C   0  0  0  0  0  0  0  0  0  0  0  0
   29.7890   34.8890   10.9400 C   0  0  0  0  0  0  0  0  0  0  0  0
   30.5970   35.1940   12.1870 C   0  0  0  0  0  0  0  0  0  0  0  0
   30.1640   34.3410   13.3290 N   0  0  0  0  0  0  0  0  0  0  0  0
  1  2  1  0  0  0  0
  3  2  1  0  0  0  0
  3  4  1  0  0  0  0
  4  5  1  0  0  0  0
  5  6  1  0  0  0  0
M  END
>  <EGIN_R>
ES LYS A 135

>  <REMARK>
  4 active torsions:
  status: ('A' for Active; 'I' for Inactive)
    5  A    between atoms: CA   and  CB  
    6  A    between atoms: CB   and  CG  
    7  A    between atoms: CG   and  CD  
    8  A    between atoms: CD   and  CE  

$$$$
