ligand_20_pose_16_2HRL.pdbqt
 OpenBabel07062320523D

 53 55  0  0  1  0  0  0  0  0999 V2000
   25.8140   37.8710    9.2550 C   0  0  0  0  0  0  0  0  0  0  0  0
   24.7180   37.1170    8.6410 C   0  0  2  0  0  0  0  0  0  0  0  0
   23.4630   37.1400    9.5410 C   0  0  1  0  0  0  0  0  0  0  0  0
   22.6810   35.9010    9.4940 C   0  0  2  0  0  0  0  0  0  0  0  0
   20.6920   36.4060    8.3720 C   0  0  2  0  0  0  0  0  0  0  0  0
   20.1870   36.9100    9.6940 C   0  0  0  0  0  0  0  0  0  0  0  0
   21.8520   35.6910    8.4320 O   0  0  0  0  0  0  0  0  0  0  0  0
   20.5570   36.0480   10.8490 C   0  0  1  0  0  0  0  0  0  0  0  0
   21.9870   35.6120   10.8310 C   0  0  1  0  0  0  0  0  0  0  0  0
   20.8440   37.4810    7.4980 O   0  0  0  0  0  0  0  0  0  0  0  0
   21.6410   37.3840    6.9200 H   0  0  0  0  0  0  0  0  0  0  0  0
   19.6440   35.5160    7.8210 C   0  0  0  0  0  0  0  0  0  0  0  0
   18.4660   35.9050    7.7610 O   0  0  0  0  0  0  0  0  0  0  0  0
   19.9790   34.2560    7.3740 O   0  0  0  0  0  0  0  0  0  0  0  0
   19.7130   33.8970    6.4460 H   0  0  0  0  0  0  0  0  0  0  0  0
   20.2520   36.7530   12.0290 O   0  0  0  0  0  0  0  0  0  0  0  0
   20.6260   37.6570   11.8980 H   0  0  0  0  0  0  0  0  0  0  0  0
   22.1670   34.2460   11.2470 N   0  0  0  0  0  0  0  0  0  0  0  0
   22.7460   33.9010   12.4990 C   0  0  0  0  0  0  0  0  0  0  0  0
   21.8630   33.4520   10.6070 H   0  0  0  0  0  0  0  0  0  0  0  0
   22.9100   32.4850   12.8790 C   0  0  0  0  0  0  0  0  0  0  0  0
   23.1120   34.8260   13.2680 O   0  0  0  0  0  0  0  0  0  0  0  0
   24.0790   37.1660   10.8430 O   0  0  0  0  0  0  0  0  0  0  0  0
   23.7550   37.9430   11.3550 H   0  0  0  0  0  0  0  0  0  0  0  0
   25.1410   35.7340    8.6910 O   0  0  0  0  0  0  0  0  0  0  0  0
   25.9790   35.6360    8.1610 H   0  0  0  0  0  0  0  0  0  0  0  0
   26.8160   37.1060    9.9450 N   0  0  0  0  0  0  0  0  0  0  0  0
   27.9000   37.7220   10.6230 C   0  0  0  0  0  0  0  0  0  0  0  0
   26.7400   36.0790   10.0060 H   0  0  0  0  0  0  0  0  0  0  0  0
   27.9720   38.9780   10.6100 O   0  0  0  0  0  0  0  0  0  0  0  0
   28.8780   37.0230   11.2920 O   0  0  0  0  0  0  0  0  0  0  0  0
   29.7760   37.5890   12.2270 C   0  0  0  0  0  0  0  0  0  0  0  0
   30.2370   36.4880   13.1390 C   0  0  0  0  0  0  0  0  0  0  0  0
   29.5320   35.3880   13.5750 C   0  0  0  0  0  0  0  0  0  0  0  0
   31.4640   36.3710   13.7190 N   0  0  0  0  0  0  0  0  0  0  0  0
   30.3660   34.6740   14.3860 N   0  0  0  0  0  0  0  0  0  0  0  0
   31.5300   35.2940   14.4540 N   0  0  0  0  0  0  0  0  0  0  0  0
   30.0120   33.4650   15.0380 C   0  0  0  0  0  0  0  0  0  0  0  0
   31.0070   32.6570   15.5550 C   0  0  0  0  0  0  0  0  0  0  0  0
   28.7100   33.0380   15.1900 C   0  0  0  0  0  0  0  0  0  0  0  0
   30.7240   31.4700   16.1990 C   0  0  0  0  0  0  0  0  0  0  0  0
   28.4070   31.8680   15.8240 C   0  0  0  0  0  0  0  0  0  0  0  0
   29.4110   31.0550   16.3450 C   0  0  0  0  0  0  0  0  0  0  0  0
   27.2310   31.2150   16.1110 C   0  0  0  0  0  0  0  0  0  0  0  0
   28.8370   29.9790   16.9070 N   0  0  0  0  0  0  0  0  0  0  0  0
   27.5330   30.0620   16.7750 N   0  0  0  0  0  0  0  0  0  0  0  0
   29.3520   29.2090   17.3730 H   0  0  0  0  0  0  0  0  0  0  0  0
   29.8670   25.5550   16.9770 C   0  0  0  0  0  0  0  0  0  0  0  0
   28.3450   25.7220   17.0260 C   0  0  0  0  0  0  0  0  0  0  0  0
   27.5990   24.4360   16.7040 C   0  0  0  0  0  0  0  0  0  0  0  0
   26.9940   23.8110   17.9300 C   0  0  0  0  0  0  0  0  0  0  0  0
   25.6070   23.2720   17.5950 C   0  0  0  0  0  0  0  0  0  0  0  0
   24.7950   24.3120   16.9210 N   0  0  0  0  0  0  0  0  0  0  0  0
  1 27  1  0  0  0  0
  2 25  1  0  0  0  0
  2  1  1  1  0  0  0
  2  3  1  0  0  0  0
  3 23  1  1  0  0  0
  4  3  1  1  0  0  0
  4  9  1  0  0  0  0
  5 10  1  6  0  0  0
  5  7  1  0  0  0  0
  5  6  1  0  0  0  0
  6  8  1  0  0  0  0
  7  4  1  0  0  0  0
  8 16  1  1  0  0  0
  9  8  1  0  0  0  0
  9 18  1  6  0  0  0
 11 10  1  0  0  0  0
 12  5  1  0  0  0  0
 13 12  2  0  0  0  0
 14 12  1  0  0  0  0
 15 14  1  0  0  0  0
 17 16  1  0  0  0  0
 18 19  1  0  0  0  0
 19 21  1  0  0  0  0
 19 22  2  0  0  0  0
 20 18  1  0  0  0  0
 23 24  1  0  0  0  0
 26 25  1  0  0  0  0
 27 29  1  0  0  0  0
 27 28  1  0  0  0  0
 28 31  1  0  0  0  0
 30 28  2  0  0  0  0
 31 32  1  0  0  0  0
 32 33  1  0  0  0  0
 33 34  2  0  0  0  0
 33 35  1  0  0  0  0
 34 36  1  0  0  0  0
 35 37  2  0  0  0  0
 36 37  1  0  0  0  0
 36 38  1  0  0  0  0
 38 40  2  0  0  0  0
 38 39  1  0  0  0  0
 39 41  2  0  0  0  0
 40 42  1  0  0  0  0
 41 43  1  0  0  0  0
 42 44  1  0  0  0  0
 42 43  2  0  0  0  0
 43 45  1  0  0  0  0
 44 46  2  0  0  0  0
 45 47  1  0  0  0  0
 46 45  1  0  0  0  0
 48 49  1  0  0  0  0
 50 49  1  0  0  0  0
 50 51  1  0  0  0  0
 52 51  1  0  0  0  0
 53 52  1  0  0  0  0
M  END
>  <REMARK>
 VINA RESULT:    -4.497      3.367      9.027
 INTER + INTRA:         -14.273
 INTER:                  -9.193
 INTRA:                  -5.081
 UNBOUND:                -6.490
 SMILES CC(=O)N[C@@H]1[C@@H](O)C[C@](O)(C(=O)O)O[C@H]1C(O)[C@H](O)CNC(=O)OCc1cn(-c2ccc3[nH]ncc3c2)nn1
 SMILES IDX 20 1 18 2 16 3 15 4 9 5 8 6 14 7 6 8 5 9 10 10 11 12 12 13
 SMILES IDX 13 14 7 16 4 18 2 19 1 21 3 22 17 23 19 25 21 27 22 28 23 30
 SMILES IDX 24 31 25 32 26 33 27 34 39 35 28 36 38 37 29 38 30 39 37 40
 SMILES IDX 31 41 36 42 32 43 35 44 33 45 34 46
 H PARENT 10 11 13 15 7 17 4 20 17 24 19 26 21 29 33 47
 Flexibility Score: inf
  4 active torsions:
  status: ('A' for Active; 'I' for Inactive)
    1  A    between atoms: CA   and  CB  
    2  A    between atoms: CB   and  CG  
    3  A    between atoms: CG   and  CD  
    4  A    between atoms: CD   and  CE  

>  <TORSDO>
F 15

>  <BEGIN_>
RES LYS A 131

$$$$
ligand_20_pose_16_2HRL.pdbqt
 OpenBabel07062320523D

  6  5  0  0  0  0  0  0  0  0999 V2000
   33.1930   34.6630    9.2900 C   0  0  0  0  0  0  0  0  0  0  0  0
   32.0600   35.3600   10.0340 C   0  0  0  0  0  0  0  0  0  0  0  0
   30.8690   35.6710    9.1640 C   0  0  0  0  0  0  0  0  0  0  0  0
   30.3320   34.4030    8.5180 C   0  0  0  0  0  0  0  0  0  0  0  0
   28.8160   34.4260    8.4800 C   0  0  0  0  0  0  0  0  0  0  0  0
   28.2400   33.8070    9.7060 N   0  0  0  0  0  0  0  0  0  0  0  0
  1  2  1  0  0  0  0
  3  2  1  0  0  0  0
  4  3  1  0  0  0  0
  5  4  1  0  0  0  0
  5  6  1  0  0  0  0
M  END
>  <EGIN_R>
ES LYS A 135

>  <REMARK>
  4 active torsions:
  status: ('A' for Active; 'I' for Inactive)
    5  A    between atoms: CA   and  CB  
    6  A    between atoms: CB   and  CG  
    7  A    between atoms: CG   and  CD  
    8  A    between atoms: CD   and  CE  

$$$$
