ligand_67_pose_13_2HRL.pdbqt
 OpenBabel07062320523D

 50 51  0  0  1  0  0  0  0  0999 V2000
   28.9080   31.2930   17.1810 N   0  0  0  0  0  0  0  0  0  0  0  0
   28.1750   30.3850   17.9820 C   0  0  0  0  0  0  0  0  0  0  0  0
   27.3020   29.6330   17.4300 O   0  0  0  0  0  0  0  0  0  0  0  0
   29.6170   31.9050   17.6190 H   0  0  0  0  0  0  0  0  0  0  0  0
   28.6630   31.3540   15.7790 C   0  0  0  0  0  0  0  0  0  0  0  0
   28.9560   32.6980   15.1710 C   0  0  2  0  0  0  0  0  0  0  0  0
   30.3170   32.7770   14.5470 C   0  0  1  0  0  0  0  0  0  0  0  0
   30.8730   34.1790   14.6630 C   0  0  2  0  0  0  0  0  0  0  0  0
   31.8300   35.8330   13.3370 C   0  0  2  0  0  0  0  0  0  0  0  0
   32.7980   36.1130   14.4500 C   0  0  0  0  0  0  0  0  0  0  0  0
   31.2090   34.6140   13.4080 O   0  0  0  0  0  0  0  0  0  0  0  0
   33.2670   34.7790   14.9940 C   0  0  1  0  0  0  0  0  0  0  0  0
   32.0520   34.1100   15.6230 C   0  0  1  0  0  0  0  0  0  0  0  0
   32.5740   35.8370   12.1340 O   0  0  0  0  0  0  0  0  0  0  0  0
   32.8510   36.7390   11.8810 H   0  0  0  0  0  0  0  0  0  0  0  0
   30.8630   36.9670   13.1990 C   0  0  0  0  0  0  0  0  0  0  0  0
   31.0000   38.0750   13.7630 O   0  0  0  0  0  0  0  0  0  0  0  0
   29.7540   36.7560   12.3920 O   0  0  0  0  0  0  0  0  0  0  0  0
   29.7370   36.1140   11.6060 H   0  0  0  0  0  0  0  0  0  0  0  0
   33.6960   33.9910   13.9150 O   0  0  0  0  0  0  0  0  0  0  0  0
   32.9790   33.4040   13.5760 H   0  0  0  0  0  0  0  0  0  0  0  0
   31.7590   34.7900   16.8750 N   0  0  0  0  0  0  0  0  0  0  0  0
   31.3510   34.0250   17.9970 C   0  0  0  0  0  0  0  0  0  0  0  0
   31.8480   35.8430   16.9560 H   0  0  0  0  0  0  0  0  0  0  0  0
   31.0290   34.6250   19.3160 C   0  0  0  0  0  0  0  0  0  0  0  0
   31.2600   32.7710   17.8560 O   0  0  0  0  0  0  0  0  0  0  0  0
   31.1740   31.8160   15.0820 O   0  0  0  0  0  0  0  0  0  0  0  0
   30.7920   30.9130   15.1050 H   0  0  0  0  0  0  0  0  0  0  0  0
   28.8350   33.6730   16.1500 O   0  0  0  0  0  0  0  0  0  0  0  0
   28.2610   34.4200   15.8970 H   0  0  0  0  0  0  0  0  0  0  0  0
   28.3280   30.2440   19.3320 O   0  0  0  0  0  0  0  0  0  0  0  0
   28.9150   31.1870   20.2080 C   0  0  0  0  0  0  0  0  0  0  0  0
   30.2730   30.7840   20.6430 C   0  0  0  0  0  0  0  0  0  0  0  0
   31.0770   31.4460   21.5420 C   0  0  0  0  0  0  0  0  0  0  0  0
   30.9720   29.7100   20.2440 N   0  0  0  0  0  0  0  0  0  0  0  0
   32.2330   30.7590   21.6620 N   0  0  0  0  0  0  0  0  0  0  0  0
   32.1420   29.7110   20.8650 N   0  0  0  0  0  0  0  0  0  0  0  0
   33.3890   31.0620   22.4970 C   0  0  0  0  0  0  0  0  0  0  0  0
   34.5600   30.1810   22.1220 C   0  0  0  0  0  0  0  0  0  0  0  0
   34.8700   29.2000   23.2010 C   0  0  0  0  0  0  0  0  0  0  0  0
   36.1460   28.6580   23.1290 O   0  0  0  0  0  0  0  0  0  0  0  0
   33.9870   28.1320   23.2720 O   0  0  0  0  0  0  0  0  0  0  0  0
   36.1000   27.4540   23.8270 C   0  0  0  0  0  0  0  0  0  0  0  0
   34.6500   27.0710   23.8410 C   0  0  0  0  0  0  0  0  0  0  0  0
   29.8670   25.5550   16.9770 C   0  0  0  0  0  0  0  0  0  0  0  0
   28.3450   25.7220   17.0260 C   0  0  0  0  0  0  0  0  0  0  0  0
   27.6010   24.4010   16.8980 C   0  0  0  0  0  0  0  0  0  0  0  0
   26.6410   24.1800   18.0330 C   0  0  0  0  0  0  0  0  0  0  0  0
   25.8800   25.4710   18.3150 C   0  0  0  0  0  0  0  0  0  0  0  0
   25.9990   25.8420   19.7450 N   0  0  0  0  0  0  0  0  0  0  0  0
  1  4  1  0  0  0  0
  1  2  1  0  0  0  0
  2 31  1  0  0  0  0
  3  2  2  0  0  0  0
  5  1  1  0  0  0  0
  6  5  1  1  0  0  0
  6 29  1  0  0  0  0
  7 27  1  1  0  0  0
  7  6  1  0  0  0  0
  8  7  1  6  0  0  0
  8 13  1  0  0  0  0
  9 14  1  6  0  0  0
  9 11  1  0  0  0  0
  9 10  1  0  0  0  0
 10 12  1  0  0  0  0
 11  8  1  0  0  0  0
 12 20  1  6  0  0  0
 12 13  1  0  0  0  0
 13 22  1  1  0  0  0
 15 14  1  0  0  0  0
 16  9  1  0  0  0  0
 16 17  2  0  0  0  0
 18 16  1  0  0  0  0
 19 18  1  0  0  0  0
 21 20  1  0  0  0  0
 22 24  1  0  0  0  0
 22 23  1  0  0  0  0
 23 25  1  0  0  0  0
 26 23  2  0  0  0  0
 27 28  1  0  0  0  0
 30 29  1  0  0  0  0
 31 32  1  0  0  0  0
 32 33  1  0  0  0  0
 33 34  2  0  0  0  0
 34 36  1  0  0  0  0
 35 33  1  0  0  0  0
 35 37  2  0  0  0  0
 36 38  1  0  0  0  0
 37 36  1  0  0  0  0
 39 38  1  0  0  0  0
 39 40  1  0  0  0  0
 40 42  1  0  0  0  0
 41 40  1  0  0  0  0
 41 43  1  0  0  0  0
 42 44  1  0  0  0  0
 43 44  1  0  0  0  0
 45 46  1  0  0  0  0
 47 46  1  0  0  0  0
 47 48  1  0  0  0  0
 48 49  1  0  0  0  0
 49 50  1  0  0  0  0
M  END
>  <REMARK>
 VINA RESULT:    -4.255      3.084      8.908
 INTER + INTRA:         -14.154
 INTER:                  -8.410
 INTRA:                  -5.744
 UNBOUND:                -6.292
 SMILES CC(=O)N[C@@H]1[C@@H](O)C[C@](O)(C(=O)O)O[C@H]1C(O)[C@H](O)CNC(=O)OCc1cn(CCC2OCCO2)nn1
 SMILES IDX 21 1 22 2 23 3 20 5 18 6 16 7 15 8 9 9 8 10 14 11 6 12 5 13
 SMILES IDX 10 14 11 16 12 17 13 18 7 20 4 22 2 23 1 25 3 26 17 27 19 29
 SMILES IDX 24 31 25 32 26 33 27 34 37 35 28 36 36 37 29 38 30 39 31 40
 SMILES IDX 32 41 35 42 33 43 34 44
 H PARENT 21 4 10 15 13 19 7 21 4 24 17 28 19 30
 Flexibility Score: inf
  4 active torsions:
  status: ('A' for Active; 'I' for Inactive)
    1  A    between atoms: CA   and  CB  
    2  A    between atoms: CB   and  CG  
    3  A    between atoms: CG   and  CD  
    4  A    between atoms: CD   and  CE  

>  <TORSDO>
F 17

>  <BEGIN_>
RES LYS A 131

$$$$
ligand_67_pose_13_2HRL.pdbqt
 OpenBabel07062320523D

  6  5  0  0  0  0  0  0  0  0999 V2000
   33.1930   34.6630    9.2900 C   0  0  0  0  0  0  0  0  0  0  0  0
   32.0600   35.3600   10.0340 C   0  0  0  0  0  0  0  0  0  0  0  0
   30.7990   35.4970    9.2200 C   0  0  0  0  0  0  0  0  0  0  0  0
   30.0980   34.1540    9.0860 C   0  0  0  0  0  0  0  0  0  0  0  0
   28.6430   34.3490    8.7060 C   0  0  0  0  0  0  0  0  0  0  0  0
   27.7430   33.6070    9.6320 N   0  0  0  0  0  0  0  0  0  0  0  0
  1  2  1  0  0  0  0
  3  2  1  0  0  0  0
  4  3  1  0  0  0  0
  5  4  1  0  0  0  0
  5  6  1  0  0  0  0
M  END
>  <EGIN_R>
ES LYS A 135

>  <REMARK>
  4 active torsions:
  status: ('A' for Active; 'I' for Inactive)
    5  A    between atoms: CA   and  CB  
    6  A    between atoms: CB   and  CG  
    7  A    between atoms: CG   and  CD  
    8  A    between atoms: CD   and  CE  

$$$$
