ligand_7_pose_4_2HRL.pdbqt
 OpenBabel07062320523D

 52 53  0  0  1  0  0  0  0  0999 V2000
   29.8030   31.6260   17.9990 C   0  0  0  0  0  0  0  0  0  0  0  0
   30.3060   32.0900   16.6810 C   0  0  2  0  0  0  0  0  0  0  0  0
   29.4110   33.0360   15.9460 C   0  0  1  0  0  0  0  0  0  0  0  0
   29.9880   33.6780   14.7410 C   0  0  2  0  0  0  0  0  0  0  0  0
   31.7800   35.1050   14.2710 C   0  0  2  0  0  0  0  0  0  0  0  0
   31.2150   35.4030   12.9110 C   0  0  0  0  0  0  0  0  0  0  0  0
   31.3170   33.9620   14.8510 O   0  0  0  0  0  0  0  0  0  0  0  0
   29.7720   35.0590   12.7700 C   0  0  1  0  0  0  0  0  0  0  0  0
   29.1920   34.8150   14.1750 C   0  0  1  0  0  0  0  0  0  0  0  0
   31.5350   36.2070   15.0860 O   0  0  0  0  0  0  0  0  0  0  0  0
   31.9880   36.9960   14.6700 H   0  0  0  0  0  0  0  0  0  0  0  0
   33.2510   34.9660   14.1020 C   0  0  0  0  0  0  0  0  0  0  0  0
   34.0230   35.1860   15.0560 O   0  0  0  0  0  0  0  0  0  0  0  0
   33.7990   34.5870   12.8690 O   0  0  0  0  0  0  0  0  0  0  0  0
   34.3900   33.7440   12.8360 H   0  0  0  0  0  0  0  0  0  0  0  0
   29.0270   35.9800   12.0610 O   0  0  0  0  0  0  0  0  0  0  0  0
   28.1300   36.0400   12.5050 H   0  0  0  0  0  0  0  0  0  0  0  0
   27.8150   34.4580   13.9510 N   0  0  0  0  0  0  0  0  0  0  0  0
   26.8060   35.2490   14.5620 C   0  0  0  0  0  0  0  0  0  0  0  0
   27.5330   33.6410   13.3560 H   0  0  0  0  0  0  0  0  0  0  0  0
   25.3570   34.9620   14.3950 C   0  0  0  0  0  0  0  0  0  0  0  0
   27.1150   36.2340   15.2780 O   0  0  0  0  0  0  0  0  0  0  0  0
   28.2530   32.3450   15.5970 O   0  0  0  0  0  0  0  0  0  0  0  0
   28.3870   31.9690   14.6920 H   0  0  0  0  0  0  0  0  0  0  0  0
   30.7200   31.0170   15.8880 O   0  0  0  0  0  0  0  0  0  0  0  0
   30.6090   30.1500   16.3500 H   0  0  0  0  0  0  0  0  0  0  0  0
   28.8180   30.5680   17.8920 N   0  0  0  0  0  0  0  0  0  0  0  0
   27.5550   30.6130   18.5480 C   0  0  0  0  0  0  0  0  0  0  0  0
   28.9850   29.6930   17.3130 H   0  0  0  0  0  0  0  0  0  0  0  0
   27.2490   31.5910   19.2550 O   0  0  0  0  0  0  0  0  0  0  0  0
   26.6360   29.5690   18.4130 O   0  0  0  0  0  0  0  0  0  0  0  0
   26.6040   28.8230   17.1860 C   0  0  0  0  0  0  0  0  0  0  0  0
   25.9030   29.6410   16.1650 C   0  0  0  0  0  0  0  0  0  0  0  0
   24.5660   29.5250   15.8200 C   0  0  0  0  0  0  0  0  0  0  0  0
   26.3890   30.6110   15.4040 N   0  0  0  0  0  0  0  0  0  0  0  0
   24.2750   30.4170   14.8700 N   0  0  0  0  0  0  0  0  0  0  0  0
   25.4310   31.0640   14.6460 N   0  0  0  0  0  0  0  0  0  0  0  0
   23.0480   30.6770   14.2030 C   0  0  0  0  0  0  0  0  0  0  0  0
   22.7080   29.9690   13.0720 C   0  0  0  0  0  0  0  0  0  0  0  0
   22.1590   31.6400   14.6550 C   0  0  0  0  0  0  0  0  0  0  0  0
   23.6380   28.9340   12.5690 C   0  0  0  0  0  0  0  0  0  0  0  0
   21.4970   30.2290   12.4170 C   0  0  0  0  0  0  0  0  0  0  0  0
   20.9680   31.8890   14.0020 C   0  0  0  0  0  0  0  0  0  0  0  0
   22.5490   32.4050   15.8930 C   0  0  0  0  0  0  0  0  0  0  0  0
   20.6150   31.1870   12.8700 C   0  0  0  0  0  0  0  0  0  0  0  0
   19.3300   31.4450   12.1530 C   0  0  0  0  0  0  0  0  0  0  0  0
   29.8670   25.5550   16.9770 C   0  0  0  0  0  0  0  0  0  0  0  0
   28.3450   25.7220   17.0260 C   0  0  0  0  0  0  0  0  0  0  0  0
   27.6000   24.4070   16.8550 C   0  0  0  0  0  0  0  0  0  0  0  0
   26.2450   24.4350   17.5040 C   0  0  0  0  0  0  0  0  0  0  0  0
   25.7350   23.0080   17.6790 C   0  0  0  0  0  0  0  0  0  0  0  0
   24.5530   22.9850   18.5730 N   0  0  0  0  0  0  0  0  0  0  0  0
  2  1  1  1  0  0  0
  3 23  1  6  0  0  0
  3  2  1  0  0  0  0
  4  7  1  0  0  0  0
  4  3  1  1  0  0  0
  5 12  1  6  0  0  0
  5  7  1  0  0  0  0
  5 10  1  0  0  0  0
  6  5  1  0  0  0  0
  8 16  1  1  0  0  0
  8  6  1  0  0  0  0
  8  9  1  0  0  0  0
  9 18  1  6  0  0  0
  9  4  1  0  0  0  0
 11 10  1  0  0  0  0
 12 13  2  0  0  0  0
 14 12  1  0  0  0  0
 15 14  1  0  0  0  0
 16 17  1  0  0  0  0
 18 19  1  0  0  0  0
 19 22  2  0  0  0  0
 20 18  1  0  0  0  0
 21 19  1  0  0  0  0
 24 23  1  0  0  0  0
 25 26  1  0  0  0  0
 25  2  1  0  0  0  0
 27  1  1  0  0  0  0
 27 28  1  0  0  0  0
 28 30  2  0  0  0  0
 29 27  1  0  0  0  0
 31 28  1  0  0  0  0
 32 31  1  0  0  0  0
 33 32  1  0  0  0  0
 34 33  2  0  0  0  0
 35 33  1  0  0  0  0
 36 34  1  0  0  0  0
 37 36  1  0  0  0  0
 37 35  2  0  0  0  0
 38 40  1  0  0  0  0
 38 36  1  0  0  0  0
 39 38  2  0  0  0  0
 40 44  1  0  0  0  0
 41 39  1  0  0  0  0
 42 45  2  0  0  0  0
 42 39  1  0  0  0  0
 43 40  2  0  0  0  0
 45 43  1  0  0  0  0
 46 45  1  0  0  0  0
 47 48  1  0  0  0  0
 49 48  1  0  0  0  0
 49 50  1  0  0  0  0
 50 51  1  0  0  0  0
 51 52  1  0  0  0  0
M  END
>  <REMARK>
 VINA RESULT:    -4.851      4.869      8.807
 INTER + INTRA:         -14.313
 INTER:                  -9.125
 INTRA:                  -5.188
 UNBOUND:                -5.917
 SMILES CC(=O)N[C@@H]1[C@@H](O)C[C@](O)(C(=O)O)O[C@H]1C(O)[C@H](O)CNC(=O)OCc1cn(-c2c(C)cc(C)cc2C)nn1
 SMILES IDX 20 1 18 2 16 3 15 4 9 5 8 6 14 7 6 8 5 9 10 10 11 12 12 13
 SMILES IDX 13 14 7 16 4 18 2 19 1 21 3 22 17 23 19 25 21 27 22 28 23 30
 SMILES IDX 24 31 25 32 26 33 27 34 39 35 28 36 38 37 29 38 30 39 36 40
 SMILES IDX 31 41 32 42 35 43 37 44 33 45 34 46
 H PARENT 10 11 13 15 7 17 4 20 17 24 19 26 21 29
 Flexibility Score: inf
  4 active torsions:
  status: ('A' for Active; 'I' for Inactive)
    1  A    between atoms: CA   and  CB  
    2  A    between atoms: CB   and  CG  
    3  A    between atoms: CG   and  CD  
    4  A    between atoms: CD   and  CE  

>  <TORSDO>
F 15

>  <BEGIN_>
RES LYS A 131

$$$$
ligand_7_pose_4_2HRL.pdbqt
 OpenBabel07062320523D

  6  5  0  0  0  0  0  0  0  0999 V2000
   33.1930   34.6630    9.2900 C   0  0  0  0  0  0  0  0  0  0  0  0
   32.0600   35.3600   10.0340 C   0  0  0  0  0  0  0  0  0  0  0  0
   30.8030   35.5060    9.2160 C   0  0  0  0  0  0  0  0  0  0  0  0
   30.1210   34.1590    9.0340 C   0  0  0  0  0  0  0  0  0  0  0  0
   28.6510   34.3450    8.7100 C   0  0  0  0  0  0  0  0  0  0  0  0
   27.7890   33.6490    9.7040 N   0  0  0  0  0  0  0  0  0  0  0  0
  1  2  1  0  0  0  0
  3  2  1  0  0  0  0
  4  3  1  0  0  0  0
  5  4  1  0  0  0  0
  5  6  1  0  0  0  0
M  END
>  <EGIN_R>
ES LYS A 135

>  <REMARK>
  4 active torsions:
  status: ('A' for Active; 'I' for Inactive)
    5  A    between atoms: CA   and  CB  
    6  A    between atoms: CB   and  CG  
    7  A    between atoms: CG   and  CD  
    8  A    between atoms: CD   and  CE  

$$$$
