ligand_55_pose_2_2HRL.pdbqt
 OpenBabel07062320523D

 51 51  0  0  1  0  0  0  0  0999 V2000
   28.9030   31.6920   16.9490 N   0  0  0  0  0  0  0  0  0  0  0  0
   28.1980   30.8840   16.0330 C   0  0  0  0  0  0  0  0  0  0  0  0
   28.7400   30.0210   15.3230 O   0  0  0  0  0  0  0  0  0  0  0  0
   28.3280   32.3910   17.5100 H   0  0  0  0  0  0  0  0  0  0  0  0
   30.2970   31.6570   17.1880 C   0  0  0  0  0  0  0  0  0  0  0  0
   31.1670   32.5190   16.3080 C   0  0  2  0  0  0  0  0  0  0  0  0
   30.5310   33.8740   16.2570 C   0  0  2  0  0  0  0  0  0  0  0  0
   31.0580   34.8370   15.2420 C   0  0  2  0  0  0  0  0  0  0  0  0
   31.1350   35.1180   12.9160 C   0  0  2  0  0  0  0  0  0  0  0  0
   32.4630   35.7880   13.0130 C   0  0  0  0  0  0  0  0  0  0  0  0
   30.6650   34.5040   14.0100 O   0  0  0  0  0  0  0  0  0  0  0  0
   33.2950   35.3110   14.1720 C   0  0  1  0  0  0  0  0  0  0  0  0
   32.4970   35.2100   15.4270 C   0  0  1  0  0  0  0  0  0  0  0  0
   31.1880   34.1910   11.8670 O   0  0  0  0  0  0  0  0  0  0  0  0
   31.3430   34.6770   11.0290 H   0  0  0  0  0  0  0  0  0  0  0  0
   30.1350   36.1450   12.5010 C   0  0  0  0  0  0  0  0  0  0  0  0
   28.9350   35.8990   12.2790 O   0  0  0  0  0  0  0  0  0  0  0  0
   30.5340   37.4850   12.3410 O   0  0  0  0  0  0  0  0  0  0  0  0
   31.5080   37.7360   12.2360 H   0  0  0  0  0  0  0  0  0  0  0  0
   33.9310   34.1320   13.8040 O   0  0  0  0  0  0  0  0  0  0  0  0
   33.6520   33.4410   14.4580 H   0  0  0  0  0  0  0  0  0  0  0  0
   32.6510   36.4580   16.1520 N   0  0  0  0  0  0  0  0  0  0  0  0
   33.1620   36.5410   17.4750 C   0  0  0  0  0  0  0  0  0  0  0  0
   32.3830   37.3910   15.7160 H   0  0  0  0  0  0  0  0  0  0  0  0
   33.3010   37.8570   18.1820 C   0  0  0  0  0  0  0  0  0  0  0  0
   33.4910   35.4590   18.0260 O   0  0  0  0  0  0  0  0  0  0  0  0
   30.7020   34.3950   17.5730 O   0  0  0  0  0  0  0  0  0  0  0  0
   30.7690   35.3730   17.5530 H   0  0  0  0  0  0  0  0  0  0  0  0
   31.3530   31.8930   15.1060 O   0  0  0  0  0  0  0  0  0  0  0  0
   30.9650   32.3780   14.3680 H   0  0  0  0  0  0  0  0  0  0  0  0
   26.8230   31.0410   15.8980 O   0  0  0  0  0  0  0  0  0  0  0  0
   25.9030   29.9800   15.9680 C   0  0  0  0  0  0  0  0  0  0  0  0
   25.9260   29.3530   17.3030 C   0  0  0  0  0  0  0  0  0  0  0  0
   25.9660   28.0120   17.6270 C   0  0  0  0  0  0  0  0  0  0  0  0
   25.9130   30.0060   18.4620 N   0  0  0  0  0  0  0  0  0  0  0  0
   25.9750   27.8910   18.9620 N   0  0  0  0  0  0  0  0  0  0  0  0
   25.9420   29.1280   19.4440 N   0  0  0  0  0  0  0  0  0  0  0  0
   26.0120   26.7150   19.7910 C   0  0  0  0  0  0  0  0  0  0  0  0
   27.1540   26.7540   20.7900 C   0  0  0  0  0  0  0  0  0  0  0  0
   28.3790   26.9390   20.0420 N   0  0  0  0  0  0  0  0  0  0  0  0
   28.2070   27.3160   19.0980 H   0  0  0  0  0  0  0  0  0  0  0  0
   29.5130   27.9230   20.8790 S   0  0  0  0  0  0  0  0  0  0  0  0
   29.0700   27.9930   22.3170 O   0  0  0  0  0  0  0  0  0  0  0  0
   30.8810   27.3330   20.7480 O   0  0  0  0  0  0  0  0  0  0  0  0
   29.5190   29.5770   20.2260 C   0  0  0  0  0  0  0  0  0  0  0  0
   29.8670   25.5550   16.9770 C   0  0  0  0  0  0  0  0  0  0  0  0
   28.3450   25.7220   17.0260 C   0  0  0  0  0  0  0  0  0  0  0  0
   27.5990   24.4440   16.6760 C   0  0  0  0  0  0  0  0  0  0  0  0
   27.0100   23.7810   17.8910 C   0  0  0  0  0  0  0  0  0  0  0  0
   25.5890   23.3220   17.5820 C   0  0  0  0  0  0  0  0  0  0  0  0
   24.8150   24.4180   16.9530 N   0  0  0  0  0  0  0  0  0  0  0  0
  1  5  1  0  0  0  0
  1  4  1  0  0  0  0
  2  1  1  0  0  0  0
  3  2  2  0  0  0  0
  6  5  1  1  0  0  0
  7  6  1  0  0  0  0
  7 27  1  1  0  0  0
  8 13  1  0  0  0  0
  8  7  1  1  0  0  0
  9 14  1  6  0  0  0
  9 10  1  0  0  0  0
  9 11  1  0  0  0  0
 10 12  1  0  0  0  0
 11  8  1  0  0  0  0
 12 20  1  6  0  0  0
 12 13  1  0  0  0  0
 13 22  1  6  0  0  0
 15 14  1  0  0  0  0
 16  9  1  0  0  0  0
 17 16  2  0  0  0  0
 18 16  1  0  0  0  0
 19 18  1  0  0  0  0
 20 21  1  0  0  0  0
 22 23  1  0  0  0  0
 23 26  2  0  0  0  0
 23 25  1  0  0  0  0
 24 22  1  0  0  0  0
 28 27  1  0  0  0  0
 29  6  1  0  0  0  0
 30 29  1  0  0  0  0
 31 32  1  0  0  0  0
 31  2  1  0  0  0  0
 32 33  1  0  0  0  0
 33 34  2  0  0  0  0
 33 35  1  0  0  0  0
 34 36  1  0  0  0  0
 35 37  2  0  0  0  0
 36 37  1  0  0  0  0
 36 38  1  0  0  0  0
 38 39  1  0  0  0  0
 40 39  1  0  0  0  0
 40 42  1  0  0  0  0
 41 40  1  0  0  0  0
 42 43  2  0  0  0  0
 44 42  2  0  0  0  0
 45 42  1  0  0  0  0
 46 47  1  0  0  0  0
 48 47  1  0  0  0  0
 48 49  1  0  0  0  0
 50 49  1  0  0  0  0
 51 50  1  0  0  0  0
M  END
>  <REMARK>
 VINA RESULT:    -4.612      2.684      4.745
 INTER + INTRA:         -15.067
 INTER:                  -8.982
 INTRA:                  -6.085
 UNBOUND:                -6.277
 SMILES CC(=O)N[C@@H]1[C@@H](O)C[C@](O)(C(=O)O)O[C@H]1C(O)[C@H](O)CNC(=O)OCc1cn(CCNS(C)(=O)=O)nn1
 SMILES IDX 21 1 22 2 23 3 20 5 18 6 16 7 15 8 9 9 8 10 14 11 6 12 5 13
 SMILES IDX 10 14 11 16 12 17 13 18 7 20 4 22 2 23 1 25 3 26 17 27 19 29
 SMILES IDX 24 31 25 32 26 33 27 34 37 35 28 36 36 37 29 38 30 39 31 40
 SMILES IDX 32 42 34 43 35 44 33 45
 H PARENT 21 4 10 15 13 19 7 21 4 24 17 28 19 30 31 41
 Flexibility Score: inf
  4 active torsions:
  status: ('A' for Active; 'I' for Inactive)
    1  A    between atoms: CA   and  CB  
    2  A    between atoms: CB   and  CG  
    3  A    between atoms: CG   and  CD  
    4  A    between atoms: CD   and  CE  

>  <TORSDO>
F 18

>  <BEGIN_>
RES LYS A 131

$$$$
ligand_55_pose_2_2HRL.pdbqt
 OpenBabel07062320523D

  6  5  0  0  0  0  0  0  0  0999 V2000
   33.1930   34.6630    9.2900 C   0  0  0  0  0  0  0  0  0  0  0  0
   32.0600   35.3600   10.0340 C   0  0  0  0  0  0  0  0  0  0  0  0
   30.8970   35.7310    9.1500 C   0  0  0  0  0  0  0  0  0  0  0  0
   30.3240   34.4960    8.4710 C   0  0  0  0  0  0  0  0  0  0  0  0
   28.8930   34.7440    8.0350 C   0  0  0  0  0  0  0  0  0  0  0  0
   28.8460   35.4770    6.7400 N   0  0  0  0  0  0  0  0  0  0  0  0
  1  2  1  0  0  0  0
  3  2  1  0  0  0  0
  4  3  1  0  0  0  0
  5  4  1  0  0  0  0
  6  5  1  0  0  0  0
M  END
>  <EGIN_R>
ES LYS A 135

>  <REMARK>
  4 active torsions:
  status: ('A' for Active; 'I' for Inactive)
    5  A    between atoms: CA   and  CB  
    6  A    between atoms: CB   and  CG  
    7  A    between atoms: CG   and  CD  
    8  A    between atoms: CD   and  CE  

$$$$
