ligand_16_pose_1_2HRL.pdbqt
 OpenBabel07062320523D

 54 55  0  0  1  0  0  0  0  0999 V2000
   25.5020   27.9910   18.5330 N   0  0  0  0  0  0  0  0  0  0  0  0
   24.8400   28.9730   17.7780 C   0  0  0  0  0  0  0  0  0  0  0  0
   23.9750   29.6870   18.3120 O   0  0  0  0  0  0  0  0  0  0  0  0
   26.2250   27.4190   17.9990 H   0  0  0  0  0  0  0  0  0  0  0  0
   25.2500   27.7450   19.9280 C   0  0  0  0  0  0  0  0  0  0  0  0
   26.5560   27.7120   20.6770 C   0  0  2  0  0  0  0  0  0  0  0  0
   27.7540   27.9930   19.8270 C   0  0  1  0  0  0  0  0  0  0  0  0
   28.8380   28.7090   20.6530 C   0  0  2  0  0  0  0  0  0  0  0  0
   30.1100   30.6380   20.5620 C   0  0  2  0  0  0  0  0  0  0  0  0
   31.4090   29.9010   20.2720 C   0  0  0  0  0  0  0  0  0  0  0  0
   29.0990   29.8950   20.0010 O   0  0  0  0  0  0  0  0  0  0  0  0
   31.3570   28.5150   20.8290 C   0  0  1  0  0  0  0  0  0  0  0  0
   30.0340   27.8280   20.6300 C   0  0  1  0  0  0  0  0  0  0  0  0
   30.2200   31.8360   19.7990 O   0  0  0  0  0  0  0  0  0  0  0  0
   29.7380   32.5620   20.3050 H   0  0  0  0  0  0  0  0  0  0  0  0
   29.9690   30.9650   21.9840 C   0  0  0  0  0  0  0  0  0  0  0  0
   28.8900   31.5230   22.3840 O   0  0  0  0  0  0  0  0  0  0  0  0
   30.8980   30.7350   22.9780 O   0  0  0  0  0  0  0  0  0  0  0  0
   31.2590   31.5430   23.4660 H   0  0  0  0  0  0  0  0  0  0  0  0
   32.3220   27.7580   20.1240 O   0  0  0  0  0  0  0  0  0  0  0  0
   33.1690   27.8750   20.6200 H   0  0  0  0  0  0  0  0  0  0  0  0
   29.9380   26.7040   21.5390 N   0  0  0  0  0  0  0  0  0  0  0  0
   29.8300   26.8770   22.9410 C   0  0  0  0  0  0  0  0  0  0  0  0
   29.9440   25.7240   21.1830 H   0  0  0  0  0  0  0  0  0  0  0  0
   29.7310   25.6930   23.8680 C   0  0  0  0  0  0  0  0  0  0  0  0
   29.8170   28.0340   23.4010 O   0  0  0  0  0  0  0  0  0  0  0  0
   28.2620   26.9030   19.1630 O   0  0  0  0  0  0  0  0  0  0  0  0
   28.2980   26.1210   19.7720 H   0  0  0  0  0  0  0  0  0  0  0  0
   26.7390   26.5090   21.3720 O   0  0  0  0  0  0  0  0  0  0  0  0
   27.5780   26.5700   21.9110 H   0  0  0  0  0  0  0  0  0  0  0  0
   25.0970   29.2040   16.4320 O   0  0  0  0  0  0  0  0  0  0  0  0
   25.3500   30.4760   15.8880 C   0  0  0  0  0  0  0  0  0  0  0  0
   26.6430   30.9890   16.3870 C   0  0  0  0  0  0  0  0  0  0  0  0
   27.9010   30.5840   15.9370 C   0  0  0  0  0  0  0  0  0  0  0  0
   26.9060   31.9060   17.3380 N   0  0  0  0  0  0  0  0  0  0  0  0
   28.8390   31.2540   16.6170 N   0  0  0  0  0  0  0  0  0  0  0  0
   28.2140   32.0450   17.4550 N   0  0  0  0  0  0  0  0  0  0  0  0
   30.2950   31.1190   16.4590 C   0  0  0  0  0  0  0  0  0  0  0  0
   30.7610   32.4400   15.9290 C   0  0  0  0  0  0  0  0  0  0  0  0
   31.5670   33.2270   16.7030 C   0  0  0  0  0  0  0  0  0  0  0  0
   30.3950   32.8860   14.6840 C   0  0  0  0  0  0  0  0  0  0  0  0
   32.0150   34.4680   16.2380 C   0  0  0  0  0  0  0  0  0  0  0  0
   30.8390   34.1200   14.2210 C   0  0  0  0  0  0  0  0  0  0  0  0
   31.6540   34.9240   14.9930 C   0  0  0  0  0  0  0  0  0  0  0  0
   32.1160   36.2140   14.4970 C   0  0  0  0  0  0  0  0  0  0  0  0
   32.2750   36.4590   13.2810 O   0  0  0  0  0  0  0  0  0  0  0  0
   32.3960   37.2300   15.4040 O   0  0  0  0  0  0  0  0  0  0  0  0
   32.2900   38.1980   15.1550 H   0  0  0  0  0  0  0  0  0  0  0  0
   29.8670   25.5550   16.9770 C   0  0  0  0  0  0  0  0  0  0  0  0
   28.3450   25.7220   17.0260 C   0  0  0  0  0  0  0  0  0  0  0  0
   27.6000   24.4150   16.8040 C   0  0  0  0  0  0  0  0  0  0  0  0
   26.1550   24.5110   17.2090 C   0  0  0  0  0  0  0  0  0  0  0  0
   26.0360   24.3210   18.7170 C   0  0  0  0  0  0  0  0  0  0  0  0
   25.3210   23.0600   19.0270 N   0  0  0  0  0  0  0  0  0  0  0  0
  1  5  1  0  0  0  0
  2  3  2  0  0  0  0
  2  1  1  0  0  0  0
  4  1  1  0  0  0  0
  6  5  1  6  0  0  0
  6 29  1  0  0  0  0
  7 27  1  1  0  0  0
  7  6  1  0  0  0  0
  8  7  1  6  0  0  0
  9 14  1  6  0  0  0
  9 16  1  0  0  0  0
 10  9  1  0  0  0  0
 10 12  1  0  0  0  0
 11  9  1  0  0  0  0
 11  8  1  0  0  0  0
 12 20  1  6  0  0  0
 13  8  1  0  0  0  0
 13 12  1  0  0  0  0
 13 22  1  1  0  0  0
 14 15  1  0  0  0  0
 16 17  2  0  0  0  0
 16 18  1  0  0  0  0
 18 19  1  0  0  0  0
 20 21  1  0  0  0  0
 22 23  1  0  0  0  0
 23 26  2  0  0  0  0
 23 25  1  0  0  0  0
 24 22  1  0  0  0  0
 27 28  1  0  0  0  0
 29 30  1  0  0  0  0
 31  2  1  0  0  0  0
 32 33  1  0  0  0  0
 32 31  1  0  0  0  0
 33 35  1  0  0  0  0
 34 33  2  0  0  0  0
 34 36  1  0  0  0  0
 35 37  2  0  0  0  0
 36 37  1  0  0  0  0
 38 36  1  0  0  0  0
 39 38  1  0  0  0  0
 39 40  2  0  0  0  0
 41 39  1  0  0  0  0
 42 40  1  0  0  0  0
 43 41  2  0  0  0  0
 43 44  1  0  0  0  0
 44 42  2  0  0  0  0
 45 44  1  0  0  0  0
 45 47  1  0  0  0  0
 46 45  2  0  0  0  0
 48 47  1  0  0  0  0
 49 50  1  0  0  0  0
 51 50  1  0  0  0  0
 51 52  1  0  0  0  0
 52 53  1  0  0  0  0
 53 54  1  0  0  0  0
M  END
>  <REMARK>
 VINA RESULT:    -6.098      1.539      2.291
 INTER + INTRA:         -15.439
 INTER:                  -9.695
 INTRA:                  -5.744
 UNBOUND:                -3.993
 SMILES CC(=O)N[C@@H]1[C@@H](O)C[C@](O)(C(=O)O)O[C@H]1C(O)[C@H](O)CNC(=O)OCc1cn(Cc2ccc(C(=O)O)cc2)nn1
 SMILES IDX 21 1 22 2 23 3 20 5 18 6 16 7 15 8 9 9 8 10 14 11 6 12 5 13
 SMILES IDX 10 14 11 16 12 17 13 18 7 20 4 22 2 23 1 25 3 26 17 27 19 29
 SMILES IDX 24 31 25 32 26 33 27 34 40 35 28 36 39 37 29 38 30 39 31 40
 SMILES IDX 38 41 32 42 37 43 33 44 34 45 35 46 36 47
 H PARENT 21 4 10 15 13 19 7 21 4 24 17 28 19 30 36 48
 Flexibility Score: inf
  4 active torsions:
  status: ('A' for Active; 'I' for Inactive)
    1  A    between atoms: CA   and  CB  
    2  A    between atoms: CB   and  CG  
    3  A    between atoms: CG   and  CD  
    4  A    between atoms: CD   and  CE  

>  <TORSDO>
F 18

>  <BEGIN_>
RES LYS A 131

$$$$
ligand_16_pose_1_2HRL.pdbqt
 OpenBabel07062320523D

  6  5  0  0  0  0  0  0  0  0999 V2000
   33.1930   34.6630    9.2900 C   0  0  0  0  0  0  0  0  0  0  0  0
   32.0600   35.3600   10.0340 C   0  0  0  0  0  0  0  0  0  0  0  0
   30.7910   35.4750    9.2290 C   0  0  0  0  0  0  0  0  0  0  0  0
   30.0200   34.1650    9.2530 C   0  0  0  0  0  0  0  0  0  0  0  0
   28.6020   34.3720    8.7550 C   0  0  0  0  0  0  0  0  0  0  0  0
   27.6210   33.6550    9.6160 N   0  0  0  0  0  0  0  0  0  0  0  0
  1  2  1  0  0  0  0
  3  4  1  0  0  0  0
  3  2  1  0  0  0  0
  5  4  1  0  0  0  0
  5  6  1  0  0  0  0
M  END
>  <EGIN_R>
ES LYS A 135

>  <REMARK>
  4 active torsions:
  status: ('A' for Active; 'I' for Inactive)
    5  A    between atoms: CA   and  CB  
    6  A    between atoms: CB   and  CG  
    7  A    between atoms: CG   and  CD  
    8  A    between atoms: CD   and  CE  

$$$$
