ligand_44_pose_15_2HRL.pdbqt
 OpenBabel07062320523D

 51 52  0  0  1  0  0  0  0  0999 V2000
   23.8980   32.3820   14.1910 N   0  0  0  0  0  0  0  0  0  0  0  0
   24.1330   31.0240   13.8630 C   0  0  0  0  0  0  0  0  0  0  0  0
   23.8830   30.4830   12.7700 O   0  0  0  0  0  0  0  0  0  0  0  0
   24.1580   32.7420   15.1630 H   0  0  0  0  0  0  0  0  0  0  0  0
   23.3180   33.2640   13.2270 C   0  0  0  0  0  0  0  0  0  0  0  0
   24.1490   34.4750   12.8890 C   0  0  2  0  0  0  0  0  0  0  0  0
   25.4920   34.1410   12.3470 C   0  0  1  0  0  0  0  0  0  0  0  0
   25.9820   34.8700   11.1590 C   0  0  2  0  0  0  0  0  0  0  0  0
   27.5520   36.4530   11.7460 C   0  0  2  0  0  0  0  0  0  0  0  0
   27.4850   37.1900   10.4280 C   0  0  0  0  0  0  0  0  0  0  0  0
   27.3380   35.1230   11.4220 O   0  0  0  0  0  0  0  0  0  0  0  0
   26.0820   37.0620    9.9410 C   0  0  1  0  0  0  0  0  0  0  0  0
   25.2390   36.0250   10.6560 C   0  0  1  0  0  0  0  0  0  0  0  0
   26.6070   37.0050   12.5820 O   0  0  0  0  0  0  0  0  0  0  0  0
   26.2060   37.8330   12.2570 H   0  0  0  0  0  0  0  0  0  0  0  0
   28.9320   36.5970   12.2690 C   0  0  0  0  0  0  0  0  0  0  0  0
   29.4130   35.8480   13.1470 O   0  0  0  0  0  0  0  0  0  0  0  0
   29.7050   37.6270   11.7400 O   0  0  0  0  0  0  0  0  0  0  0  0
   29.9210   37.7060   10.7600 H   0  0  0  0  0  0  0  0  0  0  0  0
   25.4540   38.3090   10.1700 O   0  0  0  0  0  0  0  0  0  0  0  0
   26.0740   38.9660   10.5440 H   0  0  0  0  0  0  0  0  0  0  0  0
   24.2760   35.6340    9.6030 N   0  0  0  0  0  0  0  0  0  0  0  0
   22.9750   36.1440    9.5240 C   0  0  0  0  0  0  0  0  0  0  0  0
   24.6520   34.9370    8.9160 H   0  0  0  0  0  0  0  0  0  0  0  0
   22.0770   35.6790    8.4260 C   0  0  0  0  0  0  0  0  0  0  0  0
   22.5670   36.9730   10.3520 O   0  0  0  0  0  0  0  0  0  0  0  0
   26.3870   33.9880   13.3950 O   0  0  0  0  0  0  0  0  0  0  0  0
   25.9210   33.5630   14.1710 H   0  0  0  0  0  0  0  0  0  0  0  0
   24.1500   35.4650   13.8560 O   0  0  0  0  0  0  0  0  0  0  0  0
   24.5650   35.1910   14.6980 H   0  0  0  0  0  0  0  0  0  0  0  0
   24.6970   30.2040   14.8400 O   0  0  0  0  0  0  0  0  0  0  0  0
   25.1340   30.7250   16.0720 C   0  0  0  0  0  0  0  0  0  0  0  0
   26.5440   31.1510   16.0210 C   0  0  0  0  0  0  0  0  0  0  0  0
   27.7030   30.4700   16.3110 C   0  0  0  0  0  0  0  0  0  0  0  0
   26.9010   32.4010   15.6470 N   0  0  0  0  0  0  0  0  0  0  0  0
   28.7280   31.3270   16.1030 N   0  0  0  0  0  0  0  0  0  0  0  0
   28.2050   32.4720   15.7050 N   0  0  0  0  0  0  0  0  0  0  0  0
   30.1280   31.0060   16.2940 C   0  0  0  0  0  0  0  0  0  0  0  0
   30.8820   32.3020   16.3380 C   0  0  0  0  0  0  0  0  0  0  0  0
   31.5170   32.7530   15.1900 C   0  0  0  0  0  0  0  0  0  0  0  0
   30.9330   33.0230   17.5110 C   0  0  0  0  0  0  0  0  0  0  0  0
   32.2010   33.9390   15.2530 C   0  0  0  0  0  0  0  0  0  0  0  0
   31.6280   34.2300   17.5770 C   0  0  0  0  0  0  0  0  0  0  0  0
   32.2470   34.6540   16.4280 C   0  0  0  0  0  0  0  0  0  0  0  0
   33.2080   36.3060   16.4860 Br  0  0  0  0  0  0  0  0  0  0  0  0
   29.8670   25.5550   16.9770 C   0  0  0  0  0  0  0  0  0  0  0  0
   28.3450   25.7220   17.0260 C   0  0  0  0  0  0  0  0  0  0  0  0
   27.6010   24.4020   16.8960 C   0  0  0  0  0  0  0  0  0  0  0  0
   26.5150   24.2600   17.9260 C   0  0  0  0  0  0  0  0  0  0  0  0
   25.1540   24.2890   17.2370 C   0  0  0  0  0  0  0  0  0  0  0  0
   24.5620   22.9300   17.2010 N   0  0  0  0  0  0  0  0  0  0  0  0
  1  4  1  0  0  0  0
  2  1  1  0  0  0  0
  2 31  1  0  0  0  0
  3  2  2  0  0  0  0
  5  1  1  0  0  0  0
  6  5  1  1  0  0  0
  6 29  1  0  0  0  0
  7  6  1  0  0  0  0
  7 27  1  1  0  0  0
  8 11  1  0  0  0  0
  8  7  1  1  0  0  0
  9 16  1  1  0  0  0
  9 14  1  0  0  0  0
 10  9  1  0  0  0  0
 11  9  1  0  0  0  0
 12 20  1  1  0  0  0
 12 10  1  0  0  0  0
 12 13  1  0  0  0  0
 13 22  1  6  0  0  0
 13  8  1  0  0  0  0
 15 14  1  0  0  0  0
 16 17  2  0  0  0  0
 18 16  1  0  0  0  0
 19 18  1  0  0  0  0
 20 21  1  0  0  0  0
 23 22  1  0  0  0  0
 23 26  2  0  0  0  0
 24 22  1  0  0  0  0
 25 23  1  0  0  0  0
 27 28  1  0  0  0  0
 29 30  1  0  0  0  0
 31 32  1  0  0  0  0
 33 32  1  0  0  0  0
 33 34  2  0  0  0  0
 35 37  2  0  0  0  0
 35 33  1  0  0  0  0
 36 38  1  0  0  0  0
 36 34  1  0  0  0  0
 37 36  1  0  0  0  0
 38 39  1  0  0  0  0
 39 41  2  0  0  0  0
 40 42  2  0  0  0  0
 40 39  1  0  0  0  0
 41 43  1  0  0  0  0
 42 44  1  0  0  0  0
 44 45  1  0  0  0  0
 44 43  2  0  0  0  0
 46 47  1  0  0  0  0
 48 47  1  0  0  0  0
 48 49  1  0  0  0  0
 50 49  1  0  0  0  0
 51 50  1  0  0  0  0
M  END
>  <REMARK>
 VINA RESULT:    -4.451      3.531      7.134
 INTER + INTRA:         -14.361
 INTER:                  -8.556
 INTRA:                  -5.805
 UNBOUND:                -6.398
 SMILES CC(=O)N[C@@H]1[C@@H](O)C[C@](O)(C(=O)O)O[C@H]1C(O)[C@H](O)CNC(=O)OCc1cn(Cc2ccc(Br)cc2)nn1
 SMILES IDX 21 1 22 2 23 3 20 5 18 6 16 7 15 8 9 9 8 10 14 11 6 12 5 13
 SMILES IDX 10 14 11 16 12 17 13 18 7 20 4 22 2 23 1 25 3 26 17 27 19 29
 SMILES IDX 24 31 25 32 26 33 27 34 38 35 28 36 37 37 29 38 30 39 31 40
 SMILES IDX 36 41 32 42 35 43 33 44 34 45
 H PARENT 21 4 10 15 13 19 7 21 4 24 17 28 19 30
 Flexibility Score: inf
  4 active torsions:
  status: ('A' for Active; 'I' for Inactive)
    1  A    between atoms: CA   and  CB  
    2  A    between atoms: CB   and  CG  
    3  A    between atoms: CG   and  CD  
    4  A    between atoms: CD   and  CE  

>  <TORSDO>
F 16

>  <BEGIN_>
RES LYS A 131

$$$$
ligand_44_pose_15_2HRL.pdbqt
 OpenBabel07062320523D

  6  5  0  0  0  0  0  0  0  0999 V2000
   33.1930   34.6630    9.2900 C   0  0  0  0  0  0  0  0  0  0  0  0
   32.0600   35.3600   10.0340 C   0  0  0  0  0  0  0  0  0  0  0  0
   30.7340   34.6560    9.9080 C   0  0  0  0  0  0  0  0  0  0  0  0
   30.3410   34.5090    8.4460 C   0  0  0  0  0  0  0  0  0  0  0  0
   28.8310   34.5010    8.2990 C   0  0  0  0  0  0  0  0  0  0  0  0
   28.3980   35.3700    7.1700 N   0  0  0  0  0  0  0  0  0  0  0  0
  1  2  1  0  0  0  0
  3  2  1  0  0  0  0
  4  3  1  0  0  0  0
  5  4  1  0  0  0  0
  6  5  1  0  0  0  0
M  END
>  <EGIN_R>
ES LYS A 135

>  <REMARK>
  4 active torsions:
  status: ('A' for Active; 'I' for Inactive)
    5  A    between atoms: CA   and  CB  
    6  A    between atoms: CB   and  CG  
    7  A    between atoms: CG   and  CD  
    8  A    between atoms: CD   and  CE  

$$$$
