ligand_51_pose_5_2HRL.pdbqt
 OpenBabel07062320523D

 53 56  0  0  1  0  0  0  0  0999 V2000
   25.7800   29.0720   17.4880 C   0  0  0  0  0  0  0  0  0  0  0  0
   27.1040   28.3560   17.5750 C   0  0  2  0  0  0  0  0  0  0  0  0
   27.7240   28.4400   18.9540 C   0  0  1  0  0  0  0  0  0  0  0  0
   27.7840   29.9000   19.4170 C   0  0  2  0  0  0  0  0  0  0  0  0
   29.7060   31.0190   18.6730 C   0  0  2  0  0  0  0  0  0  0  0  0
   30.4370   30.2990   19.7770 C   0  0  0  0  0  0  0  0  0  0  0  0
   28.3970   30.7180   18.5230 O   0  0  0  0  0  0  0  0  0  0  0  0
   29.6550   30.3950   21.0400 C   0  0  1  0  0  0  0  0  0  0  0  0
   28.2080   30.0390   20.8320 C   0  0  1  0  0  0  0  0  0  0  0  0
   30.3640   30.6240   17.4850 O   0  0  0  0  0  0  0  0  0  0  0  0
   30.6470   31.4580   17.0260 H   0  0  0  0  0  0  0  0  0  0  0  0
   29.9740   32.4690   18.8470 C   0  0  0  0  0  0  0  0  0  0  0  0
   29.0840   33.3440   18.6690 O   0  0  0  0  0  0  0  0  0  0  0  0
   31.2320   32.8940   19.2140 O   0  0  0  0  0  0  0  0  0  0  0  0
   31.3950   33.5230   20.0020 H   0  0  0  0  0  0  0  0  0  0  0  0
   30.2750   29.5490   21.9880 O   0  0  0  0  0  0  0  0  0  0  0  0
   30.7910   30.0850   22.6270 H   0  0  0  0  0  0  0  0  0  0  0  0
   27.3630   31.0380   21.4730 N   0  0  0  0  0  0  0  0  0  0  0  0
   26.1240   30.7080   22.0840 C   0  0  0  0  0  0  0  0  0  0  0  0
   27.6740   32.0530   21.4910 H   0  0  0  0  0  0  0  0  0  0  0  0
   25.3360   31.7800   22.7080 C   0  0  0  0  0  0  0  0  0  0  0  0
   25.7500   29.4960   22.0630 O   0  0  0  0  0  0  0  0  0  0  0  0
   27.1300   27.6250   19.8680 O   0  0  0  0  0  0  0  0  0  0  0  0
   27.2300   27.8590   20.8030 H   0  0  0  0  0  0  0  0  0  0  0  0
   27.9370   28.8890   16.5950 O   0  0  0  0  0  0  0  0  0  0  0  0
   27.4990   28.7470   15.6960 H   0  0  0  0  0  0  0  0  0  0  0  0
   26.0200   30.3300   16.8040 N   0  0  0  0  0  0  0  0  0  0  0  0
   25.4200   30.6310   15.5340 C   0  0  0  0  0  0  0  0  0  0  0  0
   26.6370   31.0840   17.1890 H   0  0  0  0  0  0  0  0  0  0  0  0
   24.6700   29.7600   15.0290 O   0  0  0  0  0  0  0  0  0  0  0  0
   25.6370   31.8160   14.8760 O   0  0  0  0  0  0  0  0  0  0  0  0
   26.1680   32.9130   15.5870 C   0  0  0  0  0  0  0  0  0  0  0  0
   27.6540   32.8880   15.3950 C   0  0  0  0  0  0  0  0  0  0  0  0
   28.4220   34.0110   15.1530 C   0  0  0  0  0  0  0  0  0  0  0  0
   28.5080   31.8690   15.4090 N   0  0  0  0  0  0  0  0  0  0  0  0
   29.6840   33.6270   15.0320 N   0  0  0  0  0  0  0  0  0  0  0  0
   29.7240   32.3210   15.1900 N   0  0  0  0  0  0  0  0  0  0  0  0
   30.8060   34.5320   14.7700 C   0  0  2  0  0  0  0  0  0  0  0  0
   30.7610   34.8470   13.2800 C   0  0  0  0  0  0  0  0  0  0  0  0
   32.1090   33.8870   15.1280 C   0  0  0  0  0  0  0  0  0  0  0  0
   30.6370   35.7870   15.5900 C   0  0  0  0  0  0  0  0  0  0  0  0
   31.8850   35.8060   12.9410 C   0  0  1  0  0  0  0  0  0  0  0  0
   33.2270   34.8250   14.7330 C   0  0  1  0  0  0  0  0  0  0  0  0
   31.7500   36.7510   15.2400 C   0  0  2  0  0  0  0  0  0  0  0  0
   31.7030   37.0550   13.7530 C   0  0  0  0  0  0  0  0  0  0  0  0
   33.1870   35.1160   13.2630 C   0  0  0  0  0  0  0  0  0  0  0  0
   33.0670   36.0840   15.5550 C   0  0  0  0  0  0  0  0  0  0  0  0
   29.8670   25.5550   16.9770 C   0  0  0  0  0  0  0  0  0  0  0  0
   28.3450   25.7220   17.0260 C   0  0  0  0  0  0  0  0  0  0  0  0
   27.5990   24.4750   16.5760 C   0  0  0  0  0  0  0  0  0  0  0  0
   26.9610   23.7500   17.7280 C   0  0  0  0  0  0  0  0  0  0  0  0
   25.4540   23.9840   17.7050 C   0  0  0  0  0  0  0  0  0  0  0  0
   25.0880   25.1000   18.6090 N   0  0  0  0  0  0  0  0  0  0  0  0
  2  1  1  1  0  0  0
  2  3  1  0  0  0  0
  3 23  1  1  0  0  0
  4  3  1  6  0  0  0
  4  9  1  0  0  0  0
  5 10  1  6  0  0  0
  5 12  1  0  0  0  0
  5  6  1  0  0  0  0
  6  8  1  0  0  0  0
  7  5  1  0  0  0  0
  7  4  1  0  0  0  0
  8 16  1  1  0  0  0
  9  8  1  0  0  0  0
  9 18  1  6  0  0  0
 11 10  1  0  0  0  0
 12 14  1  0  0  0  0
 13 12  2  0  0  0  0
 14 15  1  0  0  0  0
 16 17  1  0  0  0  0
 18 20  1  0  0  0  0
 18 19  1  0  0  0  0
 19 21  1  0  0  0  0
 22 19  2  0  0  0  0
 23 24  1  0  0  0  0
 25  2  1  0  0  0  0
 26 25  1  0  0  0  0
 27 29  1  0  0  0  0
 27  1  1  0  0  0  0
 28 27  1  0  0  0  0
 30 28  2  0  0  0  0
 31 28  1  0  0  0  0
 31 32  1  0  0  0  0
 33 35  1  0  0  0  0
 33 32  1  0  0  0  0
 34 33  2  0  0  0  0
 36 34  1  0  0  0  0
 36 37  1  0  0  0  0
 37 35  2  0  0  0  0
 38 39  1  6  0  0  0
 38 36  1  0  0  0  0
 38 40  1  0  0  0  0
 38 41  1  0  0  0  0
 42 46  1  1  0  0  0
 42 39  1  0  0  0  0
 42 45  1  0  0  0  0
 43 46  1  6  0  0  0
 43 40  1  0  0  0  0
 43 47  1  0  0  0  0
 44 45  1  6  0  0  0
 44 47  1  0  0  0  0
 44 41  1  0  0  0  0
 48 49  1  0  0  0  0
 50 49  1  0  0  0  0
 50 51  1  0  0  0  0
 52 51  1  0  0  0  0
 52 53  1  0  0  0  0
M  END
>  <REMARK>
 VINA RESULT:    -4.976      2.297      3.166
 INTER + INTRA:         -15.167
 INTER:                  -8.734
 INTRA:                  -6.433
 UNBOUND:                -6.554
 SMILES CC(=O)N[C@@H]1[C@@H](O)C[C@](O)(C(=O)O)O[C@H]1C(O)[C@H](O)CNC(=O)OCc1cn(C23CC4CC(CC(C4)C2)C3)nn1
 SMILES IDX 20 1 18 2 16 3 15 4 9 5 8 6 14 7 6 8 5 9 10 10 11 12 12 13
 SMILES IDX 13 14 7 16 4 18 2 19 1 21 3 22 17 23 19 25 21 27 22 28 23 30
 SMILES IDX 24 31 25 32 26 33 27 34 40 35 28 36 39 37 29 38 38 39 37 40
 SMILES IDX 30 41 33 42 35 43 31 44 32 45 34 46 36 47
 H PARENT 10 11 13 15 7 17 4 20 17 24 19 26 21 29
 Flexibility Score: inf
  4 active torsions:
  status: ('A' for Active; 'I' for Inactive)
    1  A    between atoms: CA   and  CB  
    2  A    between atoms: CB   and  CG  
    3  A    between atoms: CG   and  CD  
    4  A    between atoms: CD   and  CE  

>  <TORSDO>
F 15

>  <BEGIN_>
RES LYS A 131

$$$$
ligand_51_pose_5_2HRL.pdbqt
 OpenBabel07062320523D

  6  5  0  0  0  0  0  0  0  0999 V2000
   33.1930   34.6630    9.2900 C   0  0  0  0  0  0  0  0  0  0  0  0
   32.0600   35.3600   10.0340 C   0  0  0  0  0  0  0  0  0  0  0  0
   30.8070   35.5180    9.2120 C   0  0  0  0  0  0  0  0  0  0  0  0
   30.1720   34.1640    8.9360 C   0  0  0  0  0  0  0  0  0  0  0  0
   28.7040   34.3250    8.5910 C   0  0  0  0  0  0  0  0  0  0  0  0
   27.8370   33.7150    9.6380 N   0  0  0  0  0  0  0  0  0  0  0  0
  1  2  1  0  0  0  0
  3  2  1  0  0  0  0
  4  3  1  0  0  0  0
  5  4  1  0  0  0  0
  5  6  1  0  0  0  0
M  END
>  <EGIN_R>
ES LYS A 135

>  <REMARK>
  4 active torsions:
  status: ('A' for Active; 'I' for Inactive)
    5  A    between atoms: CA   and  CB  
    6  A    between atoms: CB   and  CG  
    7  A    between atoms: CG   and  CD  
    8  A    between atoms: CD   and  CE  

$$$$
