ligand_66_pose_6_2HRL.pdbqt
 OpenBabel07062320523D

 52 53  0  0  1  0  0  0  0  0999 V2000
   29.6850   30.3610   18.1150 N   0  0  0  0  0  0  0  0  0  0  0  0
   29.0140   30.8060   19.2600 C   0  0  0  0  0  0  0  0  0  0  0  0
   28.7940   32.0210   19.4400 O   0  0  0  0  0  0  0  0  0  0  0  0
   29.8310   29.3110   18.0300 H   0  0  0  0  0  0  0  0  0  0  0  0
   30.1700   31.2340   17.0790 C   0  0  0  0  0  0  0  0  0  0  0  0
   29.3810   31.1290   15.8040 C   0  0  2  0  0  0  0  0  0  0  0  0
   28.2680   32.0910   15.6530 C   0  0  2  0  0  0  0  0  0  0  0  0
   28.6640   33.4600   15.0750 C   0  0  2  0  0  0  0  0  0  0  0  0
   30.3310   34.4920   13.9150 C   0  0  2  0  0  0  0  0  0  0  0  0
   30.6410   35.3990   15.0880 C   0  0  0  0  0  0  0  0  0  0  0  0
   29.8220   33.3240   14.4200 O   0  0  0  0  0  0  0  0  0  0  0  0
   29.3950   35.7330   15.8630 C   0  0  1  0  0  0  0  0  0  0  0  0
   28.5010   34.5450   16.0690 C   0  0  1  0  0  0  0  0  0  0  0  0
   31.5550   34.2190   13.2530 O   0  0  0  0  0  0  0  0  0  0  0  0
   31.7900   33.2940   13.5510 H   0  0  0  0  0  0  0  0  0  0  0  0
   29.4920   35.2090   12.9500 C   0  0  0  0  0  0  0  0  0  0  0  0
   29.8080   36.3350   12.5000 O   0  0  0  0  0  0  0  0  0  0  0  0
   28.2740   34.6990   12.4550 O   0  0  0  0  0  0  0  0  0  0  0  0
   27.9810   35.0860   11.5550 H   0  0  0  0  0  0  0  0  0  0  0  0
   29.7910   36.2600   17.0920 O   0  0  0  0  0  0  0  0  0  0  0  0
   30.7430   36.1130   17.2740 H   0  0  0  0  0  0  0  0  0  0  0  0
   27.1250   35.0000   16.1220 N   0  0  0  0  0  0  0  0  0  0  0  0
   26.4970   35.4220   17.3500 C   0  0  0  0  0  0  0  0  0  0  0  0
   26.4890   35.0550   15.2870 H   0  0  0  0  0  0  0  0  0  0  0  0
   25.0720   35.8830   17.3550 C   0  0  0  0  0  0  0  0  0  0  0  0
   27.1390   35.4070   18.4180 O   0  0  0  0  0  0  0  0  0  0  0  0
   27.5980   32.3520   16.8500 O   0  0  0  0  0  0  0  0  0  0  0  0
   26.6340   32.1390   16.8060 H   0  0  0  0  0  0  0  0  0  0  0  0
   29.0500   29.7880   15.6130 O   0  0  0  0  0  0  0  0  0  0  0  0
   29.8280   29.2430   15.8860 H   0  0  0  0  0  0  0  0  0  0  0  0
   28.5600   29.9380   20.2530 O   0  0  0  0  0  0  0  0  0  0  0  0
   28.1510   28.6470   19.8800 C   0  0  0  0  0  0  0  0  0  0  0  0
   27.1590   28.7550   18.7920 C   0  0  0  0  0  0  0  0  0  0  0  0
   25.8680   29.2300   18.8590 C   0  0  0  0  0  0  0  0  0  0  0  0
   27.3550   28.3990   17.5090 N   0  0  0  0  0  0  0  0  0  0  0  0
   25.3230   29.1500   17.6310 N   0  0  0  0  0  0  0  0  0  0  0  0
   26.2620   28.6410   16.8420 N   0  0  0  0  0  0  0  0  0  0  0  0
   24.0150   29.5220   17.1620 C   0  0  0  0  0  0  0  0  0  0  0  0
   24.0830   30.0350   15.7530 C   0  0  0  0  0  0  0  0  0  0  0  0
   23.6650   29.2360   14.7120 C   0  0  0  0  0  0  0  0  0  0  0  0
   24.5480   31.2900   15.4650 C   0  0  0  0  0  0  0  0  0  0  0  0
   23.7200   29.7110   13.3970 C   0  0  0  0  0  0  0  0  0  0  0  0
   24.6150   31.7910   14.1810 C   0  0  0  0  0  0  0  0  0  0  0  0
   24.1970   30.9920   13.1420 C   0  0  0  0  0  0  0  0  0  0  0  0
   25.0960   33.1010   13.8550 C   0  0  0  0  0  0  0  0  0  0  0  0
   25.4730   34.1750   13.5980 N   0  0  0  0  0  0  0  0  0  0  0  0
   29.8670   25.5550   16.9770 C   0  0  0  0  0  0  0  0  0  0  0  0
   28.3450   25.7220   17.0260 C   0  0  0  0  0  0  0  0  0  0  0  0
   27.6020   24.4000   16.9130 C   0  0  0  0  0  0  0  0  0  0  0  0
   26.1350   24.5470   17.2100 C   0  0  0  0  0  0  0  0  0  0  0  0
   25.5900   23.2290   17.7510 C   0  0  0  0  0  0  0  0  0  0  0  0
   25.5350   23.2590   19.2320 N   0  0  0  0  0  0  0  0  0  0  0  0
  1  2  1  0  0  0  0
  2  3  2  0  0  0  0
  2 31  1  0  0  0  0
  4  1  1  0  0  0  0
  5  1  1  0  0  0  0
  6  5  1  1  0  0  0
  7  6  1  0  0  0  0
  7 27  1  1  0  0  0
  8  7  1  1  0  0  0
  8 13  1  0  0  0  0
  9 16  1  6  0  0  0
  9 11  1  0  0  0  0
  9 10  1  0  0  0  0
 10 12  1  0  0  0  0
 11  8  1  0  0  0  0
 12 13  1  0  0  0  0
 12 20  1  1  0  0  0
 13 22  1  6  0  0  0
 14 15  1  0  0  0  0
 14  9  1  0  0  0  0
 17 16  2  0  0  0  0
 18 16  1  0  0  0  0
 19 18  1  0  0  0  0
 20 21  1  0  0  0  0
 22 23  1  0  0  0  0
 23 25  1  0  0  0  0
 23 26  2  0  0  0  0
 24 22  1  0  0  0  0
 28 27  1  0  0  0  0
 29  6  1  0  0  0  0
 29 30  1  0  0  0  0
 32 31  1  0  0  0  0
 33 34  2  0  0  0  0
 33 32  1  0  0  0  0
 35 33  1  0  0  0  0
 36 34  1  0  0  0  0
 37 35  2  0  0  0  0
 37 36  1  0  0  0  0
 38 36  1  0  0  0  0
 39 38  1  0  0  0  0
 40 39  2  0  0  0  0
 41 39  1  0  0  0  0
 42 40  1  0  0  0  0
 43 41  2  0  0  0  0
 44 42  2  0  0  0  0
 44 43  1  0  0  0  0
 45 43  1  0  0  0  0
 46 45  3  0  0  0  0
 47 48  1  0  0  0  0
 49 48  1  0  0  0  0
 49 50  1  0  0  0  0
 50 51  1  0  0  0  0
 51 52  1  0  0  0  0
M  END
>  <REMARK>
 VINA RESULT:    -5.162      2.532      3.937
 INTER + INTRA:         -14.750
 INTER:                  -7.993
 INTRA:                  -6.757
 UNBOUND:                -5.212
 SMILES CC(=O)N[C@@H]1[C@@H](O)C[C@](O)(C(=O)O)O[C@H]1C(O)[C@H](O)CNC(=O)OCc1cn(Cc2cccc(C#N)c2)nn1
 SMILES IDX 21 1 22 2 23 3 20 5 18 6 16 7 15 8 9 9 8 10 14 11 6 12 5 13
 SMILES IDX 10 14 11 16 12 17 13 18 7 20 4 22 2 23 1 25 3 26 17 27 19 29
 SMILES IDX 24 31 25 32 26 33 27 34 39 35 28 36 38 37 29 38 30 39 31 40
 SMILES IDX 37 41 32 42 34 43 33 44 35 45 36 46
 H PARENT 21 4 10 15 13 19 7 21 4 24 17 28 19 30
 Flexibility Score: inf
  4 active torsions:
  status: ('A' for Active; 'I' for Inactive)
    1  A    between atoms: CA   and  CB  
    2  A    between atoms: CB   and  CG  
    3  A    between atoms: CG   and  CD  
    4  A    between atoms: CD   and  CE  

>  <TORSDO>
F 17

>  <BEGIN_>
RES LYS A 131

$$$$
ligand_66_pose_6_2HRL.pdbqt
 OpenBabel07062320523D

  6  5  0  0  0  0  0  0  0  0999 V2000
   33.1930   34.6630    9.2900 C   0  0  0  0  0  0  0  0  0  0  0  0
   32.0600   35.3600   10.0340 C   0  0  0  0  0  0  0  0  0  0  0  0
   30.8070   35.5180    9.2120 C   0  0  0  0  0  0  0  0  0  0  0  0
   30.0030   34.2270    9.2060 C   0  0  0  0  0  0  0  0  0  0  0  0
   28.6120   34.4680    8.6510 C   0  0  0  0  0  0  0  0  0  0  0  0
   27.5910   33.6930    9.4080 N   0  0  0  0  0  0  0  0  0  0  0  0
  1  2  1  0  0  0  0
  3  2  1  0  0  0  0
  4  3  1  0  0  0  0
  5  4  1  0  0  0  0
  5  6  1  0  0  0  0
M  END
>  <EGIN_R>
ES LYS A 135

>  <REMARK>
  4 active torsions:
  status: ('A' for Active; 'I' for Inactive)
    5  A    between atoms: CA   and  CB  
    6  A    between atoms: CB   and  CG  
    7  A    between atoms: CG   and  CD  
    8  A    between atoms: CD   and  CE  

$$$$
