ligand_88_pose_19_2HRL.pdbqt
 OpenBabel07062320523D

 54 55  0  0  1  0  0  0  0  0999 V2000
   25.4090   40.1450    8.5210 N   0  0  0  0  0  0  0  0  0  0  0  0
   25.8410   39.9890    7.1740 C   0  0  0  0  0  0  0  0  0  0  0  0
   25.0570   40.2920    6.2460 O   0  0  0  0  0  0  0  0  0  0  0  0
   26.0760   39.8870    9.2690 H   0  0  0  0  0  0  0  0  0  0  0  0
   24.1000   40.6380    8.8510 C   0  0  0  0  0  0  0  0  0  0  0  0
   23.3340   39.6360    9.6670 C   0  0  2  0  0  0  0  0  0  0  0  0
   22.8180   38.4900    8.8260 C   0  0  1  0  0  0  0  0  0  0  0  0
   21.4860   37.9870    9.4130 C   0  0  2  0  0  0  0  0  0  0  0  0
   20.8630   35.7240    9.5880 C   0  0  2  0  0  0  0  0  0  0  0  0
   19.4240   36.2260    9.3960 C   0  0  0  0  0  0  0  0  0  0  0  0
   21.6990   36.7510    9.8760 O   0  0  0  0  0  0  0  0  0  0  0  0
   19.5120   37.0730    8.1360 C   0  0  1  0  0  0  0  0  0  0  0  0
   20.3870   38.2450    8.4720 C   0  0  1  0  0  0  0  0  0  0  0  0
   21.1690   35.0260    8.4370 O   0  0  0  0  0  0  0  0  0  0  0  0
   20.3840   34.8220    7.8730 H   0  0  0  0  0  0  0  0  0  0  0  0
   20.8930   34.7780   10.7310 C   0  0  0  0  0  0  0  0  0  0  0  0
   19.8130   34.4890   11.3040 O   0  0  0  0  0  0  0  0  0  0  0  0
   22.0730   34.2000   11.1890 O   0  0  0  0  0  0  0  0  0  0  0  0
   22.1130   34.0260   12.2040 H   0  0  0  0  0  0  0  0  0  0  0  0
   20.0110   36.3250    7.0720 O   0  0  0  0  0  0  0  0  0  0  0  0
   19.2510   35.8910    6.6320 H   0  0  0  0  0  0  0  0  0  0  0  0
   19.4990   39.3240    8.9050 N   0  0  0  0  0  0  0  0  0  0  0  0
   19.6890   40.6800    8.5400 C   0  0  0  0  0  0  0  0  0  0  0  0
   18.6630   39.1240    9.5210 H   0  0  0  0  0  0  0  0  0  0  0  0
   18.7570   41.7500    9.0070 C   0  0  0  0  0  0  0  0  0  0  0  0
   20.6630   40.9950    7.8090 O   0  0  0  0  0  0  0  0  0  0  0  0
   22.7260   38.7730    7.4860 O   0  0  0  0  0  0  0  0  0  0  0  0
   21.8500   38.5470    7.1100 H   0  0  0  0  0  0  0  0  0  0  0  0
   22.3640   40.2690   10.4130 O   0  0  0  0  0  0  0  0  0  0  0  0
   22.7060   40.9150   11.0580 H   0  0  0  0  0  0  0  0  0  0  0  0
   27.0980   39.5140    6.8890 O   0  0  0  0  0  0  0  0  0  0  0  0
   27.3330   38.5980    5.8350 C   0  0  0  0  0  0  0  0  0  0  0  0
   27.5040   37.2390    6.4140 C   0  0  0  0  0  0  0  0  0  0  0  0
   26.6590   36.6050    7.3150 C   0  0  0  0  0  0  0  0  0  0  0  0
   28.4860   36.3430    6.2030 N   0  0  0  0  0  0  0  0  0  0  0  0
   27.1480   35.3900    7.6030 N   0  0  0  0  0  0  0  0  0  0  0  0
   28.2850   35.2480    6.9010 N   0  0  0  0  0  0  0  0  0  0  0  0
   26.5950   34.4000    8.4840 C   0  0  0  0  0  0  0  0  0  0  0  0
   26.6540   34.7970    9.9150 C   0  0  0  0  0  0  0  0  0  0  0  0
   27.8360   34.5960   10.5980 C   0  0  0  0  0  0  0  0  0  0  0  0
   25.5910   35.3510   10.5890 C   0  0  0  0  0  0  0  0  0  0  0  0
   28.0020   34.9250   11.9250 C   0  0  0  0  0  0  0  0  0  0  0  0
   25.7320   35.6940   11.9370 C   0  0  0  0  0  0  0  0  0  0  0  0
   29.6420   34.6400   12.8410 Br  0  0  0  0  0  0  0  0  0  0  0  0
   26.9200   35.4830   12.5940 C   0  0  0  0  0  0  0  0  0  0  0  0
   24.1990   36.4610   12.8020 Br  0  0  0  0  0  0  0  0  0  0  0  0
   24.3930   35.5650    9.9330 O   0  0  0  0  0  0  0  0  0  0  0  0
   24.3390   35.3980    8.9370 H   0  0  0  0  0  0  0  0  0  0  0  0
   29.8670   25.5550   16.9770 C   0  0  0  0  0  0  0  0  0  0  0  0
   28.3450   25.7220   17.0260 C   0  0  0  0  0  0  0  0  0  0  0  0
   27.6010   24.4060   16.8620 C   0  0  0  0  0  0  0  0  0  0  0  0
   26.5170   24.2360   17.8910 C   0  0  0  0  0  0  0  0  0  0  0  0
   25.1800   24.0160   17.1900 C   0  0  0  0  0  0  0  0  0  0  0  0
   24.2240   25.0900   17.5480 N   0  0  0  0  0  0  0  0  0  0  0  0
  1  5  1  0  0  0  0
  1  4  1  0  0  0  0
  2  1  1  0  0  0  0
  3  2  2  0  0  0  0
  6  5  1  6  0  0  0
  6 29  1  0  0  0  0
  7 27  1  6  0  0  0
  7  6  1  0  0  0  0
  8  7  1  6  0  0  0
  8 11  1  0  0  0  0
  9 14  1  6  0  0  0
  9 11  1  0  0  0  0
  9 16  1  0  0  0  0
 10  9  1  0  0  0  0
 12 20  1  6  0  0  0
 12 13  1  0  0  0  0
 12 10  1  0  0  0  0
 13 22  1  1  0  0  0
 13  8  1  0  0  0  0
 15 14  1  0  0  0  0
 16 18  1  0  0  0  0
 16 17  2  0  0  0  0
 18 19  1  0  0  0  0
 21 20  1  0  0  0  0
 22 24  1  0  0  0  0
 23 22  1  0  0  0  0
 23 25  1  0  0  0  0
 26 23  2  0  0  0  0
 28 27  1  0  0  0  0
 29 30  1  0  0  0  0
 31  2  1  0  0  0  0
 32 33  1  0  0  0  0
 32 31  1  0  0  0  0
 33 34  2  0  0  0  0
 34 36  1  0  0  0  0
 35 33  1  0  0  0  0
 35 37  2  0  0  0  0
 36 38  1  0  0  0  0
 37 36  1  0  0  0  0
 38 39  1  0  0  0  0
 39 41  2  0  0  0  0
 39 40  1  0  0  0  0
 40 42  2  0  0  0  0
 41 43  1  0  0  0  0
 42 45  1  0  0  0  0
 42 44  1  0  0  0  0
 43 45  2  0  0  0  0
 43 46  1  0  0  0  0
 47 41  1  0  0  0  0
 48 47  1  0  0  0  0
 49 50  1  0  0  0  0
 51 50  1  0  0  0  0
 51 52  1  0  0  0  0
 53 54  1  0  0  0  0
 53 52  1  0  0  0  0
M  END
>  <REMARK>
 VINA RESULT:    -4.925      7.814     13.075
 INTER + INTRA:         -14.750
 INTER:                  -8.955
 INTRA:                  -5.794
 UNBOUND:                -5.794
 SMILES CC(=O)N[C@@H]1[C@@H](O)C[C@](O)(C(=O)O)O[C@H]1C(O)[C@H](O)CNC(=O)OCc1cn(Cc2cc(Br)cc(Br)c2O)nn1
 SMILES IDX 21 1 22 2 23 3 20 5 18 6 16 7 15 8 9 9 8 10 14 11 6 12 5 13
 SMILES IDX 10 14 11 16 12 17 13 18 7 20 4 22 2 23 1 25 3 26 17 27 19 29
 SMILES IDX 24 31 25 32 26 33 27 34 40 35 28 36 39 37 29 38 30 39 31 40
 SMILES IDX 37 41 32 42 35 43 33 44 34 45 36 46 38 47
 H PARENT 21 4 10 15 13 19 7 21 4 24 17 28 19 30 38 48
 Flexibility Score: inf
  4 active torsions:
  status: ('A' for Active; 'I' for Inactive)
    1  A    between atoms: CA   and  CB  
    2  A    between atoms: CB   and  CG  
    3  A    between atoms: CG   and  CD  
    4  A    between atoms: CD   and  CE  

>  <TORSDO>
F 17

>  <BEGIN_>
RES LYS A 131

$$$$
ligand_88_pose_19_2HRL.pdbqt
 OpenBabel07062320523D

  6  5  0  0  0  0  0  0  0  0999 V2000
   33.1930   34.6630    9.2900 C   0  0  0  0  0  0  0  0  0  0  0  0
   32.0600   35.3600   10.0340 C   0  0  0  0  0  0  0  0  0  0  0  0
   30.8640   35.6580    9.1670 C   0  0  0  0  0  0  0  0  0  0  0  0
   30.6880   37.1590    8.9940 C   0  0  0  0  0  0  0  0  0  0  0  0
   29.4150   37.6280    9.6730 C   0  0  0  0  0  0  0  0  0  0  0  0
   29.1890   39.0820    9.4440 N   0  0  0  0  0  0  0  0  0  0  0  0
  1  2  1  0  0  0  0
  3  2  1  0  0  0  0
  4  3  1  0  0  0  0
  4  5  1  0  0  0  0
  6  5  1  0  0  0  0
M  END
>  <EGIN_R>
ES LYS A 135

>  <REMARK>
  4 active torsions:
  status: ('A' for Active; 'I' for Inactive)
    5  A    between atoms: CA   and  CB  
    6  A    between atoms: CB   and  CG  
    7  A    between atoms: CG   and  CD  
    8  A    between atoms: CD   and  CE  

$$$$
