ligand_62_pose_13_2HRL.pdbqt
 OpenBabel07062320523D

 52 52  0  0  1  0  0  0  0  0999 V2000
   27.1650   37.1070   12.6310 N   0  0  0  0  0  0  0  0  0  0  0  0
   26.3280   36.2100   11.9370 C   0  0  0  0  0  0  0  0  0  0  0  0
   26.7040   35.6130   10.9020 O   0  0  0  0  0  0  0  0  0  0  0  0
   26.7600   37.5540   13.4920 H   0  0  0  0  0  0  0  0  0  0  0  0
   28.4960   37.4600   12.2760 C   0  0  0  0  0  0  0  0  0  0  0  0
   29.6030   36.7070   12.9160 C   0  0  2  0  0  0  0  0  0  0  0  0
   29.6200   36.8420   14.4230 C   0  0  2  0  0  0  0  0  0  0  0  0
   30.8120   36.2390   15.0960 C   0  0  2  0  0  0  0  0  0  0  0  0
   32.3990   34.5950   14.7320 C   0  0  2  0  0  0  0  0  0  0  0  0
   32.9550   35.2920   15.9460 C   0  0  0  0  0  0  0  0  0  0  0  0
   31.2450   35.1910   14.2550 O   0  0  0  0  0  0  0  0  0  0  0  0
   31.9780   35.4350   17.0580 C   0  0  1  0  0  0  0  0  0  0  0  0
   30.5850   35.6500   16.4460 C   0  0  1  0  0  0  0  0  0  0  0  0
   32.2360   33.2530   15.0220 O   0  0  0  0  0  0  0  0  0  0  0  0
   32.4940   33.0150   15.9470 H   0  0  0  0  0  0  0  0  0  0  0  0
   33.4250   34.6990   13.6580 C   0  0  0  0  0  0  0  0  0  0  0  0
   34.6400   34.4320   13.8700 O   0  0  0  0  0  0  0  0  0  0  0  0
   33.0990   35.0970   12.3580 O   0  0  0  0  0  0  0  0  0  0  0  0
   32.1460   35.3040   12.0890 H   0  0  0  0  0  0  0  0  0  0  0  0
   31.9650   34.3430   17.9240 O   0  0  0  0  0  0  0  0  0  0  0  0
   32.3060   34.6730   18.8000 H   0  0  0  0  0  0  0  0  0  0  0  0
   29.8600   36.4290   17.3890 N   0  0  0  0  0  0  0  0  0  0  0  0
   29.0340   35.8390   18.4190 C   0  0  0  0  0  0  0  0  0  0  0  0
   29.8860   37.4700   17.4070 H   0  0  0  0  0  0  0  0  0  0  0  0
   28.2970   36.6910   19.3810 C   0  0  0  0  0  0  0  0  0  0  0  0
   28.9410   34.6080   18.5000 O   0  0  0  0  0  0  0  0  0  0  0  0
   28.5170   36.0360   14.8450 O   0  0  0  0  0  0  0  0  0  0  0  0
   28.6960   35.6250   15.7060 H   0  0  0  0  0  0  0  0  0  0  0  0
   30.8320   37.1910   12.4730 O   0  0  0  0  0  0  0  0  0  0  0  0
   30.6980   38.0040   11.9320 H   0  0  0  0  0  0  0  0  0  0  0  0
   25.0340   35.9480   12.3780 O   0  0  0  0  0  0  0  0  0  0  0  0
   24.6670   34.6900   12.8830 C   0  0  0  0  0  0  0  0  0  0  0  0
   25.4600   34.3490   14.0780 C   0  0  0  0  0  0  0  0  0  0  0  0
   26.0780   33.1480   14.3650 C   0  0  0  0  0  0  0  0  0  0  0  0
   25.7060   35.1890   15.1060 N   0  0  0  0  0  0  0  0  0  0  0  0
   26.6730   33.2990   15.5420 N   0  0  0  0  0  0  0  0  0  0  0  0
   26.4510   34.5050   15.9790 N   0  0  0  0  0  0  0  0  0  0  0  0
   27.4530   32.2840   16.2480 C   0  0  1  0  0  0  0  0  0  0  0  0
   27.0220   30.9290   15.7630 C   0  0  0  0  0  0  0  0  0  0  0  0
   27.9340   29.9650   16.1250 O   0  0  0  0  0  0  0  0  0  0  0  0
   27.3970   28.8850   16.7920 C   0  0  0  0  0  0  0  0  0  0  0  0
   28.9020   32.4710   15.9110 C   0  0  0  0  0  0  0  0  0  0  0  0
   29.2450   32.8730   14.7890 O   0  0  0  0  0  0  0  0  0  0  0  0
   29.8560   32.1730   16.9190 N   0  0  0  0  0  0  0  0  0  0  0  0
   30.7930   32.6350   16.8730 H   0  0  0  0  0  0  0  0  0  0  0  0
   29.6360   31.5180   17.6790 H   0  0  0  0  0  0  0  0  0  0  0  0
   29.8670   25.5550   16.9770 C   0  0  0  0  0  0  0  0  0  0  0  0
   28.3450   25.7220   17.0260 C   0  0  0  0  0  0  0  0  0  0  0  0
   27.6010   24.4020   16.8970 C   0  0  0  0  0  0  0  0  0  0  0  0
   26.5690   24.2250   17.9750 C   0  0  0  0  0  0  0  0  0  0  0  0
   25.4800   23.2740   17.4870 C   0  0  0  0  0  0  0  0  0  0  0  0
   24.9350   22.4860   18.6180 N   0  0  0  0  0  0  0  0  0  0  0  0
  1  4  1  0  0  0  0
  2 31  1  0  0  0  0
  2  1  1  0  0  0  0
  3  2  2  0  0  0  0
  5  1  1  0  0  0  0
  6  5  1  6  0  0  0
  6  7  1  0  0  0  0
  7 27  1  1  0  0  0
  8  7  1  6  0  0  0
  8 13  1  0  0  0  0
  9 16  1  6  0  0  0
  9 14  1  0  0  0  0
  9 10  1  0  0  0  0
 10 12  1  0  0  0  0
 11  9  1  0  0  0  0
 11  8  1  0  0  0  0
 12 20  1  6  0  0  0
 13 12  1  0  0  0  0
 13 22  1  1  0  0  0
 14 15  1  0  0  0  0
 16 17  2  0  0  0  0
 18 16  1  0  0  0  0
 19 18  1  0  0  0  0
 20 21  1  0  0  0  0
 22 24  1  0  0  0  0
 22 23  1  0  0  0  0
 23 26  2  0  0  0  0
 23 25  1  0  0  0  0
 27 28  1  0  0  0  0
 29  6  1  0  0  0  0
 30 29  1  0  0  0  0
 31 32  1  0  0  0  0
 32 33  1  0  0  0  0
 33 34  2  0  0  0  0
 33 35  1  0  0  0  0
 34 36  1  0  0  0  0
 35 37  2  0  0  0  0
 36 37  1  0  0  0  0
 36 38  1  0  0  0  0
 38 39  1  6  0  0  0
 39 40  1  0  0  0  0
 40 41  1  0  0  0  0
 42 38  1  0  0  0  0
 42 44  1  0  0  0  0
 43 42  2  0  0  0  0
 44 46  1  0  0  0  0
 45 44  1  0  0  0  0
 47 48  1  0  0  0  0
 49 48  1  0  0  0  0
 49 50  1  0  0  0  0
 51 50  1  0  0  0  0
 51 52  1  0  0  0  0
M  END
>  <REMARK>
 VINA RESULT:    -3.930      3.652      7.034
 INTER + INTRA:         -14.243
 INTER:                  -6.586
 INTRA:                  -7.657
 UNBOUND:                -6.753
 SMILES COCC(C(N)=O)n1cc(COC(=O)NC[C@@H](O)C(O)[C@@H]2O[C@@](O)(C(=O)O)C[C@H](O)[C@H]2NC(C)=O)nn1
 SMILES IDX 15 1 13 2 14 3 16 5 17 6 19 7 21 8 23 9 28 10 22 11 29 12
 SMILES IDX 31 13 24 14 25 16 26 17 27 18 30 20 32 22 33 23 34 25 35 26
 SMILES IDX 20 27 18 29 12 31 11 32 10 33 9 34 36 35 8 36 37 37 4 38
 SMILES IDX 3 39 2 40 1 41 5 42 7 43 6 44
 H PARENT 15 4 24 15 27 19 30 21 32 24 20 28 18 30 6 45 6 46
 Flexibility Score: inf
  4 active torsions:
  status: ('A' for Active; 'I' for Inactive)
    1  A    between atoms: CA   and  CB  
    2  A    between atoms: CB   and  CG  
    3  A    between atoms: CG   and  CD  
    4  A    between atoms: CD   and  CE  

>  <TORSDO>
F 18

>  <BEGIN_>
RES LYS A 131

$$$$
ligand_62_pose_13_2HRL.pdbqt
 OpenBabel07062320523D

  6  5  0  0  0  0  0  0  0  0999 V2000
   33.1930   34.6630    9.2900 C   0  0  0  0  0  0  0  0  0  0  0  0
   32.0600   35.3600   10.0340 C   0  0  0  0  0  0  0  0  0  0  0  0
   30.7060   35.1440    9.4090 C   0  0  0  0  0  0  0  0  0  0  0  0
   30.1270   36.4600    8.9130 C   0  0  0  0  0  0  0  0  0  0  0  0
   28.8280   36.2230    8.1680 C   0  0  0  0  0  0  0  0  0  0  0  0
   28.5880   34.7690    7.9550 N   0  0  0  0  0  0  0  0  0  0  0  0
  1  2  1  0  0  0  0
  3  2  1  0  0  0  0
  4  3  1  0  0  0  0
  5  4  1  0  0  0  0
  6  5  1  0  0  0  0
M  END
>  <EGIN_R>
ES LYS A 135

>  <REMARK>
  4 active torsions:
  status: ('A' for Active; 'I' for Inactive)
    5  A    between atoms: CA   and  CB  
    6  A    between atoms: CB   and  CG  
    7  A    between atoms: CG   and  CD  
    8  A    between atoms: CD   and  CE  

$$$$
