ligand_32_pose_10_2HRL.pdbqt
 OpenBabel07062320523D

 49 49  0  0  1  0  0  0  0  0999 V2000
   26.3700   38.3500   13.0130 N   0  0  0  0  0  0  0  0  0  0  0  0
   25.0900   38.9610   12.9920 C   0  0  0  0  0  0  0  0  0  0  0  0
   24.7870   39.8220   12.1130 O   0  0  0  0  0  0  0  0  0  0  0  0
   26.5790   37.6480   13.7480 H   0  0  0  0  0  0  0  0  0  0  0  0
   27.3850   38.6810   12.0430 C   0  0  0  0  0  0  0  0  0  0  0  0
   27.6080   37.6120   11.0080 C   0  0  2  0  0  0  0  0  0  0  0  0
   26.8160   37.9100    9.7350 C   0  0  1  0  0  0  0  0  0  0  0  0
   27.2040   36.9270    8.6440 C   0  0  2  0  0  0  0  0  0  0  0  0
   29.1920   35.9070    7.9640 C   0  0  2  0  0  0  0  0  0  0  0  0
   28.5780   35.6090    6.6250 C   0  0  0  0  0  0  0  0  0  0  0  0
   28.2740   36.1560    8.9610 O   0  0  0  0  0  0  0  0  0  0  0  0
   27.3750   36.4160    6.2900 C   0  0  1  0  0  0  0  0  0  0  0  0
   27.3090   37.5800    7.2910 C   0  0  1  0  0  0  0  0  0  0  0  0
   30.1090   36.9400    7.8070 O   0  0  0  0  0  0  0  0  0  0  0  0
   29.5670   37.7710    7.7060 H   0  0  0  0  0  0  0  0  0  0  0  0
   29.9430   34.6950    8.3640 C   0  0  0  0  0  0  0  0  0  0  0  0
   31.1150   34.4550    8.0020 O   0  0  0  0  0  0  0  0  0  0  0  0
   29.3310   33.7630    9.1830 O   0  0  0  0  0  0  0  0  0  0  0  0
   29.7780   32.9070    9.4870 H   0  0  0  0  0  0  0  0  0  0  0  0
   27.3820   36.8970    4.9840 O   0  0  0  0  0  0  0  0  0  0  0  0
   26.5070   37.2980    4.7250 H   0  0  0  0  0  0  0  0  0  0  0  0
   26.1640   38.4230    7.0090 N   0  0  0  0  0  0  0  0  0  0  0  0
   26.3460   39.7620    6.5630 C   0  0  0  0  0  0  0  0  0  0  0  0
   25.1790   38.0850    7.1230 H   0  0  0  0  0  0  0  0  0  0  0  0
   25.1900   40.6710    6.2600 C   0  0  0  0  0  0  0  0  0  0  0  0
   27.5200   40.2280    6.4080 O   0  0  0  0  0  0  0  0  0  0  0  0
   25.4630   37.7560   10.0250 O   0  0  0  0  0  0  0  0  0  0  0  0
   24.9300   37.4940    9.2250 H   0  0  0  0  0  0  0  0  0  0  0  0
   27.1890   36.4040   11.5690 O   0  0  0  0  0  0  0  0  0  0  0  0
   26.7050   36.5960   12.4110 H   0  0  0  0  0  0  0  0  0  0  0  0
   24.1620   38.6070   13.9450 O   0  0  0  0  0  0  0  0  0  0  0  0
   23.7180   37.2760   14.1450 C   0  0  0  0  0  0  0  0  0  0  0  0
   23.6580   36.5480   12.8330 C   0  0  0  0  0  0  0  0  0  0  0  0
   22.6580   36.6100   11.8990 C   0  0  0  0  0  0  0  0  0  0  0  0
   24.5980   35.6980   12.3740 N   0  0  0  0  0  0  0  0  0  0  0  0
   23.0140   35.7900   10.8800 N   0  0  0  0  0  0  0  0  0  0  0  0
   24.1860   35.2560   11.1960 N   0  0  0  0  0  0  0  0  0  0  0  0
   22.2180   35.5820    9.6900 C   0  0  0  0  0  0  0  0  0  0  0  0
   21.7400   36.9480    9.2060 C   0  0  0  0  0  0  0  0  0  0  0  0
   22.4160   37.1970    7.8970 C   0  0  0  0  0  0  0  0  0  0  0  0
   23.4670   37.8410    7.7890 O   0  0  0  0  0  0  0  0  0  0  0  0
   21.7990   36.6590    6.7670 O   0  0  0  0  0  0  0  0  0  0  0  0
   22.3660   36.2100    6.0490 H   0  0  0  0  0  0  0  0  0  0  0  0
   29.8670   25.5550   16.9770 C   0  0  0  0  0  0  0  0  0  0  0  0
   28.3450   25.7220   17.0260 C   0  0  0  0  0  0  0  0  0  0  0  0
   27.6020   24.3970   16.9450 C   0  0  0  0  0  0  0  0  0  0  0  0
   26.1440   24.5440   17.2800 C   0  0  0  0  0  0  0  0  0  0  0  0
   25.9660   24.5280   18.7950 C   0  0  0  0  0  0  0  0  0  0  0  0
   25.5240   23.1890   19.2520 N   0  0  0  0  0  0  0  0  0  0  0  0
  1  4  1  0  0  0  0
  2  1  1  0  0  0  0
  2 31  1  0  0  0  0
  3  2  2  0  0  0  0
  5  1  1  0  0  0  0
  6 29  1  0  0  0  0
  6  5  1  1  0  0  0
  7 27  1  1  0  0  0
  7  6  1  0  0  0  0
  8 11  1  0  0  0  0
  8  7  1  1  0  0  0
  9 14  1  6  0  0  0
  9 16  1  0  0  0  0
  9 11  1  0  0  0  0
 10  9  1  0  0  0  0
 12 20  1  6  0  0  0
 12 10  1  0  0  0  0
 12 13  1  0  0  0  0
 13 22  1  6  0  0  0
 13  8  1  0  0  0  0
 15 14  1  0  0  0  0
 16 18  1  0  0  0  0
 17 16  2  0  0  0  0
 18 19  1  0  0  0  0
 21 20  1  0  0  0  0
 22 24  1  0  0  0  0
 23 22  1  0  0  0  0
 25 23  1  0  0  0  0
 26 23  2  0  0  0  0
 28 27  1  0  0  0  0
 29 30  1  0  0  0  0
 31 32  1  0  0  0  0
 33 32  1  0  0  0  0
 34 33  2  0  0  0  0
 35 33  1  0  0  0  0
 36 37  1  0  0  0  0
 36 34  1  0  0  0  0
 37 35  2  0  0  0  0
 38 36  1  0  0  0  0
 39 38  1  0  0  0  0
 40 39  1  0  0  0  0
 41 40  2  0  0  0  0
 42 40  1  0  0  0  0
 43 42  1  0  0  0  0
 44 45  1  0  0  0  0
 46 45  1  0  0  0  0
 46 47  1  0  0  0  0
 47 48  1  0  0  0  0
 48 49  1  0  0  0  0
M  END
>  <REMARK>
 VINA RESULT:    -4.357      8.032     12.752
 INTER + INTRA:         -13.822
 INTER:                  -8.125
 INTRA:                  -5.697
 UNBOUND:                -5.644
 SMILES CC(=O)N[C@@H]1[C@@H](O)C[C@](O)(C(=O)O)O[C@H]1C(O)[C@H](O)CNC(=O)OCc1cn(CCC(=O)O)nn1
 SMILES IDX 21 1 22 2 23 3 20 5 18 6 16 7 15 8 9 9 8 10 14 11 6 12 5 13
 SMILES IDX 10 14 11 16 12 17 13 18 7 20 4 22 2 23 1 25 3 26 17 27 19 29
 SMILES IDX 24 31 25 32 26 33 27 34 35 35 28 36 34 37 29 38 30 39 31 40
 SMILES IDX 32 41 33 42
 H PARENT 21 4 10 15 13 19 7 21 4 24 17 28 19 30 33 43
 Flexibility Score: inf
  4 active torsions:
  status: ('A' for Active; 'I' for Inactive)
    1  A    between atoms: CA   and  CB  
    2  A    between atoms: CB   and  CG  
    3  A    between atoms: CG   and  CD  
    4  A    between atoms: CD   and  CE  

>  <TORSDO>
F 18

>  <BEGIN_>
RES LYS A 131

$$$$
ligand_32_pose_10_2HRL.pdbqt
 OpenBabel07062320523D

  6  5  0  0  0  0  0  0  0  0999 V2000
   33.1930   34.6630    9.2900 C   0  0  0  0  0  0  0  0  0  0  0  0
   32.0600   35.3600   10.0340 C   0  0  0  0  0  0  0  0  0  0  0  0
   32.5330   36.4220   10.9930 C   0  0  0  0  0  0  0  0  0  0  0  0
   31.6540   36.4530   12.2350 C   0  0  0  0  0  0  0  0  0  0  0  0
   32.1090   35.4060   13.2350 C   0  0  0  0  0  0  0  0  0  0  0  0
   32.5800   36.0400   14.4970 N   0  0  0  0  0  0  0  0  0  0  0  0
  1  2  1  0  0  0  0
  2  3  1  0  0  0  0
  3  4  1  0  0  0  0
  4  5  1  0  0  0  0
  5  6  1  0  0  0  0
M  END
>  <EGIN_R>
ES LYS A 135

>  <REMARK>
  4 active torsions:
  status: ('A' for Active; 'I' for Inactive)
    5  A    between atoms: CA   and  CB  
    6  A    between atoms: CB   and  CG  
    7  A    between atoms: CG   and  CD  
    8  A    between atoms: CD   and  CE  

$$$$
