ligand_62_pose_18_2HRL.pdbqt
 OpenBabel07062320523D

 52 52  0  0  1  0  0  0  0  0999 V2000
   25.0110   32.6490   13.1770 N   0  0  0  0  0  0  0  0  0  0  0  0
   24.5020   33.9020   12.7790 C   0  0  0  0  0  0  0  0  0  0  0  0
   23.2880   34.0780   12.5280 O   0  0  0  0  0  0  0  0  0  0  0  0
   26.0440   32.6030   13.3710 H   0  0  0  0  0  0  0  0  0  0  0  0
   24.2620   31.4510   13.3380 C   0  0  0  0  0  0  0  0  0  0  0  0
   24.3440   30.7580   14.6480 C   0  0  2  0  0  0  0  0  0  0  0  0
   25.7530   30.6810   15.1940 C   0  0  2  0  0  0  0  0  0  0  0  0
   25.9830   29.5950   16.1960 C   0  0  2  0  0  0  0  0  0  0  0  0
   24.9160   28.5940   17.9880 C   0  0  2  0  0  0  0  0  0  0  0  0
   26.0830   27.6680   17.7730 C   0  0  0  0  0  0  0  0  0  0  0  0
   24.8620   29.6130   17.0530 O   0  0  0  0  0  0  0  0  0  0  0  0
   27.3990   28.3590   17.7190 C   0  0  1  0  0  0  0  0  0  0  0  0
   27.1920   29.7290   17.0550 C   0  0  1  0  0  0  0  0  0  0  0  0
   24.9470   29.0560   19.2920 O   0  0  0  0  0  0  0  0  0  0  0  0
   25.1670   30.0180   19.3650 H   0  0  0  0  0  0  0  0  0  0  0  0
   23.6770   27.7850   17.8300 C   0  0  0  0  0  0  0  0  0  0  0  0
   23.2950   26.9730   18.7180 O   0  0  0  0  0  0  0  0  0  0  0  0
   22.8710   27.8780   16.6910 O   0  0  0  0  0  0  0  0  0  0  0  0
   23.2630   28.0480   15.7750 H   0  0  0  0  0  0  0  0  0  0  0  0
   27.9930   28.5100   18.9700 O   0  0  0  0  0  0  0  0  0  0  0  0
   27.8430   27.6550   19.4600 H   0  0  0  0  0  0  0  0  0  0  0  0
   28.4230   30.0420   16.4140 N   0  0  0  0  0  0  0  0  0  0  0  0
   29.1620   31.2530   16.6900 C   0  0  0  0  0  0  0  0  0  0  0  0
   28.8760   29.4140   15.7150 H   0  0  0  0  0  0  0  0  0  0  0  0
   30.4410   31.5360   15.9980 C   0  0  0  0  0  0  0  0  0  0  0  0
   28.7240   32.0640   17.5140 O   0  0  0  0  0  0  0  0  0  0  0  0
   25.8920   31.8960   15.9360 O   0  0  0  0  0  0  0  0  0  0  0  0
   25.0970   32.0750   16.4630 H   0  0  0  0  0  0  0  0  0  0  0  0
   23.9090   29.4410   14.5230 O   0  0  0  0  0  0  0  0  0  0  0  0
   24.4820   28.8440   15.0590 H   0  0  0  0  0  0  0  0  0  0  0  0
   25.3380   35.0070   12.6480 O   0  0  0  0  0  0  0  0  0  0  0  0
   26.6600   34.8830   12.1940 C   0  0  0  0  0  0  0  0  0  0  0  0
   27.6060   34.8650   13.3250 C   0  0  0  0  0  0  0  0  0  0  0  0
   28.8980   35.3550   13.3510 C   0  0  0  0  0  0  0  0  0  0  0  0
   27.3430   34.3470   14.5440 N   0  0  0  0  0  0  0  0  0  0  0  0
   29.3670   35.1210   14.5720 N   0  0  0  0  0  0  0  0  0  0  0  0
   28.4470   34.5260   15.2740 N   0  0  0  0  0  0  0  0  0  0  0  0
   30.6980   35.4700   15.0620 C   0  0  1  0  0  0  0  0  0  0  0  0
   31.7180   34.9080   14.1120 C   0  0  0  0  0  0  0  0  0  0  0  0
   32.8750   34.5690   14.7760 O   0  0  0  0  0  0  0  0  0  0  0  0
   34.0200   34.6390   14.0130 C   0  0  0  0  0  0  0  0  0  0  0  0
   30.8310   36.9640   15.0730 C   0  0  0  0  0  0  0  0  0  0  0  0
   30.0970   37.6600   15.7900 O   0  0  0  0  0  0  0  0  0  0  0  0
   31.8210   37.5440   14.2370 N   0  0  0  0  0  0  0  0  0  0  0  0
   32.1980   38.4850   14.4900 H   0  0  0  0  0  0  0  0  0  0  0  0
   32.1620   37.0530   13.4020 H   0  0  0  0  0  0  0  0  0  0  0  0
   29.8670   25.5550   16.9770 C   0  0  0  0  0  0  0  0  0  0  0  0
   28.3450   25.7220   17.0260 C   0  0  0  0  0  0  0  0  0  0  0  0
   27.5990   24.4340   16.7150 C   0  0  0  0  0  0  0  0  0  0  0  0
   26.9740   23.8300   17.9420 C   0  0  0  0  0  0  0  0  0  0  0  0
   25.5840   23.3050   17.6000 C   0  0  0  0  0  0  0  0  0  0  0  0
   24.7940   24.3460   16.9010 N   0  0  0  0  0  0  0  0  0  0  0  0
  1  5  1  0  0  0  0
  1  4  1  0  0  0  0
  2  1  1  0  0  0  0
  3  2  2  0  0  0  0
  6  5  1  6  0  0  0
  6  7  1  0  0  0  0
  7 27  1  1  0  0  0
  8  7  1  6  0  0  0
  8 11  1  0  0  0  0
  8 13  1  0  0  0  0
  9 16  1  6  0  0  0
  9 14  1  0  0  0  0
 10  9  1  0  0  0  0
 11  9  1  0  0  0  0
 12 10  1  0  0  0  0
 12 20  1  1  0  0  0
 13 22  1  6  0  0  0
 13 12  1  0  0  0  0
 14 15  1  0  0  0  0
 16 17  2  0  0  0  0
 18 16  1  0  0  0  0
 19 18  1  0  0  0  0
 20 21  1  0  0  0  0
 22 23  1  0  0  0  0
 23 26  2  0  0  0  0
 24 22  1  0  0  0  0
 25 23  1  0  0  0  0
 27 28  1  0  0  0  0
 29  6  1  0  0  0  0
 29 30  1  0  0  0  0
 31  2  1  0  0  0  0
 32 31  1  0  0  0  0
 32 33  1  0  0  0  0
 33 34  2  0  0  0  0
 33 35  1  0  0  0  0
 34 36  1  0  0  0  0
 35 37  2  0  0  0  0
 36 38  1  0  0  0  0
 36 37  1  0  0  0  0
 38 39  1  6  0  0  0
 38 42  1  0  0  0  0
 39 40  1  0  0  0  0
 41 40  1  0  0  0  0
 42 43  2  0  0  0  0
 44 45  1  0  0  0  0
 44 42  1  0  0  0  0
 46 44  1  0  0  0  0
 47 48  1  0  0  0  0
 49 48  1  0  0  0  0
 49 50  1  0  0  0  0
 51 50  1  0  0  0  0
 52 51  1  0  0  0  0
M  END
>  <REMARK>
 VINA RESULT:    -3.818      2.962      5.165
 INTER + INTRA:         -14.031
 INTER:                  -7.278
 INTRA:                  -6.753
 UNBOUND:                -6.753
 SMILES COCC(C(N)=O)n1cc(COC(=O)NC[C@@H](O)C(O)[C@@H]2O[C@@](O)(C(=O)O)C[C@H](O)[C@H]2NC(C)=O)nn1
 SMILES IDX 15 1 13 2 14 3 16 5 17 6 19 7 21 8 23 9 28 10 22 11 29 12
 SMILES IDX 31 13 24 14 25 16 26 17 27 18 30 20 32 22 33 23 34 25 35 26
 SMILES IDX 20 27 18 29 12 31 11 32 10 33 9 34 36 35 8 36 37 37 4 38
 SMILES IDX 3 39 2 40 1 41 5 42 7 43 6 44
 H PARENT 15 4 24 15 27 19 30 21 32 24 20 28 18 30 6 45 6 46
 Flexibility Score: inf
  4 active torsions:
  status: ('A' for Active; 'I' for Inactive)
    1  A    between atoms: CA   and  CB  
    2  A    between atoms: CB   and  CG  
    3  A    between atoms: CG   and  CD  
    4  A    between atoms: CD   and  CE  

>  <TORSDO>
F 18

>  <BEGIN_>
RES LYS A 131

$$$$
ligand_62_pose_18_2HRL.pdbqt
 OpenBabel07062320523D

  6  5  0  0  0  0  0  0  0  0999 V2000
   33.1930   34.6630    9.2900 C   0  0  0  0  0  0  0  0  0  0  0  0
   32.0600   35.3600   10.0340 C   0  0  0  0  0  0  0  0  0  0  0  0
   30.7100   34.7330    9.7990 C   0  0  0  0  0  0  0  0  0  0  0  0
   30.4670   34.5230    8.3130 C   0  0  0  0  0  0  0  0  0  0  0  0
   29.0190   34.8130    7.9640 C   0  0  0  0  0  0  0  0  0  0  0  0
   28.9140   35.5160    6.6550 N   0  0  0  0  0  0  0  0  0  0  0  0
  1  2  1  0  0  0  0
  3  2  1  0  0  0  0
  4  3  1  0  0  0  0
  5  4  1  0  0  0  0
  6  5  1  0  0  0  0
M  END
>  <EGIN_R>
ES LYS A 135

>  <REMARK>
  4 active torsions:
  status: ('A' for Active; 'I' for Inactive)
    5  A    between atoms: CA   and  CB  
    6  A    between atoms: CB   and  CG  
    7  A    between atoms: CG   and  CD  
    8  A    between atoms: CD   and  CE  

$$$$
