ligand_25_pose_11_2HRL.pdbqt
 OpenBabel07062320523D

 56 59  0  0  1  0  0  0  0  0999 V2000
   34.1160   41.9360    8.9100 C   0  0  0  0  0  0  0  0  0  0  0  0
   34.7110   42.1120    7.5630 C   0  0  2  0  0  0  0  0  0  0  0  0
   36.0520   41.4680    7.4110 C   0  0  1  0  0  0  0  0  0  0  0  0
   36.3240   40.8160    6.0840 C   0  0  2  0  0  0  0  0  0  0  0  0
   34.4600   39.6240    5.3160 C   0  0  2  0  0  0  0  0  0  0  0  0
   35.2510   38.7000    4.4130 C   0  0  0  0  0  0  0  0  0  0  0  0
   35.1040   40.8170    5.4050 O   0  0  0  0  0  0  0  0  0  0  0  0
   36.6680   38.6810    4.8580 C   0  0  1  0  0  0  0  0  0  0  0  0
   36.9030   39.4310    6.1800 C   0  0  1  0  0  0  0  0  0  0  0  0
   34.2200   38.9480    6.4820 O   0  0  0  0  0  0  0  0  0  0  0  0
   33.6200   39.4410    7.0830 H   0  0  0  0  0  0  0  0  0  0  0  0
   33.1620   39.8680    4.6160 C   0  0  0  0  0  0  0  0  0  0  0  0
   32.0900   39.7600    5.2560 O   0  0  0  0  0  0  0  0  0  0  0  0
   33.0880   40.2130    3.2750 O   0  0  0  0  0  0  0  0  0  0  0  0
   32.8860   41.1830    2.9960 H   0  0  0  0  0  0  0  0  0  0  0  0
   37.1920   37.4080    5.0160 O   0  0  0  0  0  0  0  0  0  0  0  0
   37.4280   36.9710    4.1670 H   0  0  0  0  0  0  0  0  0  0  0  0
   38.3430   39.5080    6.2830 N   0  0  0  0  0  0  0  0  0  0  0  0
   39.0650   39.5970    7.5020 C   0  0  0  0  0  0  0  0  0  0  0  0
   38.8920   39.4950    5.3990 H   0  0  0  0  0  0  0  0  0  0  0  0
   40.5610   39.6740    7.5260 C   0  0  0  0  0  0  0  0  0  0  0  0
   38.4020   39.6090    8.5710 O   0  0  0  0  0  0  0  0  0  0  0  0
   37.1240   42.2630    7.7980 O   0  0  0  0  0  0  0  0  0  0  0  0
   37.0150   43.2130    7.6320 H   0  0  0  0  0  0  0  0  0  0  0  0
   34.8850   43.4700    7.3040 O   0  0  0  0  0  0  0  0  0  0  0  0
   34.3940   43.7780    6.5180 H   0  0  0  0  0  0  0  0  0  0  0  0
   32.7060   41.8320    8.9600 N   0  0  0  0  0  0  0  0  0  0  0  0
   31.9980   40.6200    8.8700 C   0  0  0  0  0  0  0  0  0  0  0  0
   32.1190   42.7210    9.0730 H   0  0  0  0  0  0  0  0  0  0  0  0
   32.5610   39.5370    8.7490 O   0  0  0  0  0  0  0  0  0  0  0  0
   30.5930   40.5930    8.9140 O   0  0  0  0  0  0  0  0  0  0  0  0
   29.7850   40.8880    7.8160 C   0  0  0  0  0  0  0  0  0  0  0  0
   29.1230   39.7000    7.2240 C   0  0  0  0  0  0  0  0  0  0  0  0
   28.8110   38.4950    7.8040 C   0  0  0  0  0  0  0  0  0  0  0  0
   28.7150   39.6440    5.9540 N   0  0  0  0  0  0  0  0  0  0  0  0
   28.2270   37.7530    6.8690 N   0  0  0  0  0  0  0  0  0  0  0  0
   28.1770   38.4620    5.7600 N   0  0  0  0  0  0  0  0  0  0  0  0
   27.7190   36.3970    7.0080 C   0  0  0  0  0  0  0  0  0  0  0  0
   26.4680   36.3580    7.7860 C   0  0  0  0  0  0  0  0  0  0  0  0
   28.6470   35.5150    7.6980 C   0  0  0  0  0  0  0  0  0  0  0  0
   25.2470   37.0210    7.5720 C   0  0  0  0  0  0  0  0  0  0  0  0
   26.6620   35.5180    8.8450 C   0  0  0  0  0  0  0  0  0  0  0  0
   28.0230   34.9870    8.7960 C   0  0  0  0  0  0  0  0  0  0  0  0
   29.9820   35.1380    7.4480 C   0  0  0  0  0  0  0  0  0  0  0  0
   24.2270   36.8040    8.4650 C   0  0  0  0  0  0  0  0  0  0  0  0
   25.6020   35.3250    9.7310 C   0  0  0  0  0  0  0  0  0  0  0  0
   28.6460   34.0950    9.6760 C   0  0  0  0  0  0  0  0  0  0  0  0
   30.6130   34.2660    8.2960 C   0  0  0  0  0  0  0  0  0  0  0  0
   24.3950   35.9600    9.5440 C   0  0  0  0  0  0  0  0  0  0  0  0
   29.9490   33.7520    9.3980 C   0  0  0  0  0  0  0  0  0  0  0  0
   29.8670   25.5550   16.9770 C   0  0  0  0  0  0  0  0  0  0  0  0
   28.3450   25.7220   17.0260 C   0  0  0  0  0  0  0  0  0  0  0  0
   27.6020   24.3990   16.9200 C   0  0  0  0  0  0  0  0  0  0  0  0
   26.1520   24.5320   17.2980 C   0  0  0  0  0  0  0  0  0  0  0  0
   26.0180   24.5120   18.8170 C   0  0  0  0  0  0  0  0  0  0  0  0
   25.4290   23.2290   19.2690 N   0  0  0  0  0  0  0  0  0  0  0  0
  1 27  1  0  0  0  0
  2  1  1  1  0  0  0
  3  2  1  0  0  0  0
  3 23  1  6  0  0  0
  4  9  1  0  0  0  0
  4  3  1  1  0  0  0
  5 12  1  6  0  0  0
  5  7  1  0  0  0  0
  5 10  1  0  0  0  0
  6  8  1  0  0  0  0
  6  5  1  0  0  0  0
  7  4  1  0  0  0  0
  8 16  1  1  0  0  0
  8  9  1  0  0  0  0
  9 18  1  6  0  0  0
 10 11  1  0  0  0  0
 12 13  2  0  0  0  0
 14 12  1  0  0  0  0
 15 14  1  0  0  0  0
 17 16  1  0  0  0  0
 18 19  1  0  0  0  0
 19 21  1  0  0  0  0
 19 22  2  0  0  0  0
 20 18  1  0  0  0  0
 24 23  1  0  0  0  0
 25  2  1  0  0  0  0
 26 25  1  0  0  0  0
 27 29  1  0  0  0  0
 28 31  1  0  0  0  0
 28 27  1  0  0  0  0
 30 28  2  0  0  0  0
 32 31  1  0  0  0  0
 33 34  2  0  0  0  0
 33 32  1  0  0  0  0
 35 33  1  0  0  0  0
 36 38  1  0  0  0  0
 36 34  1  0  0  0  0
 37 35  2  0  0  0  0
 37 36  1  0  0  0  0
 38 40  1  0  0  0  0
 38 39  1  0  0  0  0
 39 42  1  0  0  0  0
 40 43  1  0  0  0  0
 41 39  2  0  0  0  0
 41 45  1  0  0  0  0
 42 46  2  0  0  0  0
 43 42  1  0  0  0  0
 43 47  2  0  0  0  0
 44 40  2  0  0  0  0
 44 48  1  0  0  0  0
 45 49  2  0  0  0  0
 48 50  2  0  0  0  0
 49 46  1  0  0  0  0
 50 47  1  0  0  0  0
 51 52  1  0  0  0  0
 53 52  1  0  0  0  0
 53 54  1  0  0  0  0
 54 55  1  0  0  0  0
 55 56  1  0  0  0  0
M  END
>  <REMARK>
 VINA RESULT:    -6.397      6.068     10.400
 INTER + INTRA:         -15.650
 INTER:                 -11.720
 INTRA:                  -3.930
 UNBOUND:                -4.578
 SMILES CC(=O)N[C@@H]1[C@@H](O)C[C@](O)(C(=O)O)O[C@H]1C(O)[C@H](O)CNC(=O)OCc1cn(C2c3ccccc3-c3ccccc32)nn1
 SMILES IDX 20 1 18 2 16 3 15 4 9 5 8 6 14 7 6 8 5 9 10 10 11 12 12 13
 SMILES IDX 13 14 7 16 4 18 2 19 1 21 3 22 17 23 19 25 21 27 22 28 23 30
 SMILES IDX 24 31 25 32 26 33 27 34 43 35 28 36 42 37 29 38 30 39 41 40
 SMILES IDX 31 41 35 42 36 43 40 44 32 45 34 46 37 47 39 48 33 49 38 50
 H PARENT 10 11 13 15 7 17 4 20 17 24 19 26 21 29
 Flexibility Score: inf
  4 active torsions:
  status: ('A' for Active; 'I' for Inactive)
    1  A    between atoms: CA   and  CB  
    2  A    between atoms: CB   and  CG  
    3  A    between atoms: CG   and  CD  
    4  A    between atoms: CD   and  CE  

>  <TORSDO>
F 15

>  <BEGIN_>
RES LYS A 131

$$$$
ligand_25_pose_11_2HRL.pdbqt
 OpenBabel07062320523D

  6  5  0  0  0  0  0  0  0  0999 V2000
   33.1930   34.6630    9.2900 C   0  0  0  0  0  0  0  0  0  0  0  0
   32.0600   35.3600   10.0340 C   0  0  0  0  0  0  0  0  0  0  0  0
   32.5000   36.0340   11.3080 C   0  0  0  0  0  0  0  0  0  0  0  0
   31.7580   35.4580   12.5040 C   0  0  0  0  0  0  0  0  0  0  0  0
   31.5740   36.5140   13.5760 C   0  0  0  0  0  0  0  0  0  0  0  0
   31.4530   37.8720   12.9760 N   0  0  0  0  0  0  0  0  0  0  0  0
  1  2  1  0  0  0  0
  2  3  1  0  0  0  0
  3  4  1  0  0  0  0
  4  5  1  0  0  0  0
  6  5  1  0  0  0  0
M  END
>  <EGIN_R>
ES LYS A 135

>  <REMARK>
  4 active torsions:
  status: ('A' for Active; 'I' for Inactive)
    5  A    between atoms: CA   and  CB  
    6  A    between atoms: CB   and  CG  
    7  A    between atoms: CG   and  CD  
    8  A    between atoms: CD   and  CE  

$$$$
