ligand_39_pose_4_2HRL.pdbqt
 OpenBabel07062320523D

 51 52  0  0  1  0  0  0  0  0999 V2000
   23.4950   38.9110    7.1350 N   0  0  0  0  0  0  0  0  0  0  0  0
   22.5540   38.1550    7.8420 C   0  0  0  0  0  0  0  0  0  0  0  0
   21.7030   38.7480    8.5600 O   0  0  0  0  0  0  0  0  0  0  0  0
   24.1910   38.3760    6.5430 H   0  0  0  0  0  0  0  0  0  0  0  0
   23.5850   40.3540    7.1570 C   0  0  0  0  0  0  0  0  0  0  0  0
   25.0140   40.7750    6.8880 C   0  0  2  0  0  0  0  0  0  0  0  0
   25.9040   40.4970    8.0800 C   0  0  2  0  0  0  0  0  0  0  0  0
   26.9380   39.4290    7.7830 C   0  0  2  0  0  0  0  0  0  0  0  0
   27.7590   38.2020    5.9770 C   0  0  2  0  0  0  0  0  0  0  0  0
   27.5370   36.9120    6.6700 C   0  0  0  0  0  0  0  0  0  0  0  0
   26.8730   39.1570    6.4500 O   0  0  0  0  0  0  0  0  0  0  0  0
   26.7490   36.9320    7.9220 C   0  0  1  0  0  0  0  0  0  0  0  0
   26.7590   38.2320    8.6730 C   0  0  1  0  0  0  0  0  0  0  0  0
   27.4240   38.0420    4.6070 O   0  0  0  0  0  0  0  0  0  0  0  0
   28.0800   37.4550    4.1460 H   0  0  0  0  0  0  0  0  0  0  0  0
   29.1600   38.6220    6.0410 C   0  0  0  0  0  0  0  0  0  0  0  0
   29.6230   39.5920    5.3810 O   0  0  0  0  0  0  0  0  0  0  0  0
   30.0390   37.9300    6.8620 O   0  0  0  0  0  0  0  0  0  0  0  0
   31.0060   37.7560    6.6130 H   0  0  0  0  0  0  0  0  0  0  0  0
   25.4300   36.5070    7.6770 O   0  0  0  0  0  0  0  0  0  0  0  0
   25.0550   37.2070    7.0530 H   0  0  0  0  0  0  0  0  0  0  0  0
   27.7090   38.2080    9.7630 N   0  0  0  0  0  0  0  0  0  0  0  0
   27.3130   38.2030   11.1240 C   0  0  0  0  0  0  0  0  0  0  0  0
   28.7270   38.1930    9.5540 H   0  0  0  0  0  0  0  0  0  0  0  0
   28.2800   38.1780   12.2590 C   0  0  0  0  0  0  0  0  0  0  0  0
   26.0570   38.2210   11.3540 O   0  0  0  0  0  0  0  0  0  0  0  0
   25.1240   40.1780    9.1870 O   0  0  0  0  0  0  0  0  0  0  0  0
   24.8990   41.0300    9.6740 H   0  0  0  0  0  0  0  0  0  0  0  0
   24.9510   42.1670    6.6390 O   0  0  0  0  0  0  0  0  0  0  0  0
   25.6800   42.4700    6.0750 H   0  0  0  0  0  0  0  0  0  0  0  0
   22.4780   36.7700    7.8150 O   0  0  0  0  0  0  0  0  0  0  0  0
   21.6050   36.0870    8.6980 C   0  0  0  0  0  0  0  0  0  0  0  0
   22.3320   35.5340    9.8600 C   0  0  0  0  0  0  0  0  0  0  0  0
   21.7890   34.7860   10.9150 C   0  0  0  0  0  0  0  0  0  0  0  0
   23.6320   35.6180   10.1650 N   0  0  0  0  0  0  0  0  0  0  0  0
   22.7230   34.4530   11.7890 N   0  0  0  0  0  0  0  0  0  0  0  0
   23.8670   34.9860   11.2950 N   0  0  0  0  0  0  0  0  0  0  0  0
   22.7290   33.7200   13.0330 C   0  0  0  0  0  0  0  0  0  0  0  0
   22.9340   32.2820   12.9210 C   0  0  0  0  0  0  0  0  0  0  0  0
   24.2050   31.7220   13.0740 C   0  0  0  0  0  0  0  0  0  0  0  0
   21.9040   31.4150   12.6960 C   0  0  0  0  0  0  0  0  0  0  0  0
   24.3730   30.3670   12.9990 C   0  0  0  0  0  0  0  0  0  0  0  0
   22.0780   30.0460   12.6200 C   0  0  0  0  0  0  0  0  0  0  0  0
   20.1050   32.0580   12.4160 Br  0  0  0  0  0  0  0  0  0  0  0  0
   23.3300   29.5040   12.7730 C   0  0  0  0  0  0  0  0  0  0  0  0
   29.8670   25.5550   16.9770 C   0  0  0  0  0  0  0  0  0  0  0  0
   28.3450   25.7220   17.0260 C   0  0  0  0  0  0  0  0  0  0  0  0
   27.5990   24.4750   16.5770 C   0  0  0  0  0  0  0  0  0  0  0  0
   27.0010   23.7250   17.7340 C   0  0  0  0  0  0  0  0  0  0  0  0
   25.6080   24.2700   18.0290 C   0  0  0  0  0  0  0  0  0  0  0  0
   25.4970   24.6680   19.4530 N   0  0  0  0  0  0  0  0  0  0  0  0
  1  5  1  0  0  0  0
  1  2  1  0  0  0  0
  2  3  2  0  0  0  0
  4  1  1  0  0  0  0
  6  5  1  1  0  0  0
  6  7  1  0  0  0  0
  7 27  1  1  0  0  0
  8  7  1  1  0  0  0
  8 13  1  0  0  0  0
  9 14  1  6  0  0  0
  9 16  1  0  0  0  0
  9 11  1  0  0  0  0
  9 10  1  0  0  0  0
 10 12  1  0  0  0  0
 11  8  1  0  0  0  0
 12 20  1  6  0  0  0
 12 13  1  0  0  0  0
 13 22  1  1  0  0  0
 15 14  1  0  0  0  0
 16 18  1  0  0  0  0
 17 16  2  0  0  0  0
 19 18  1  0  0  0  0
 21 20  1  0  0  0  0
 22 23  1  0  0  0  0
 23 26  2  0  0  0  0
 23 25  1  0  0  0  0
 24 22  1  0  0  0  0
 27 28  1  0  0  0  0
 29  6  1  0  0  0  0
 30 29  1  0  0  0  0
 31  2  1  0  0  0  0
 31 32  1  0  0  0  0
 32 33  1  0  0  0  0
 33 35  1  0  0  0  0
 33 34  2  0  0  0  0
 34 36  1  0  0  0  0
 35 37  2  0  0  0  0
 36 38  1  0  0  0  0
 37 36  1  0  0  0  0
 39 38  1  0  0  0  0
 39 40  2  0  0  0  0
 41 39  1  0  0  0  0
 42 40  1  0  0  0  0
 43 41  2  0  0  0  0
 43 45  1  0  0  0  0
 44 41  1  0  0  0  0
 45 42  2  0  0  0  0
 46 47  1  0  0  0  0
 48 47  1  0  0  0  0
 48 49  1  0  0  0  0
 49 50  1  0  0  0  0
 50 51  1  0  0  0  0
M  END
>  <REMARK>
 VINA RESULT:    -4.201      7.906     12.509
 INTER + INTRA:         -14.943
 INTER:                  -9.236
 INTRA:                  -5.707
 UNBOUND:                -7.426
 SMILES CC(=O)N[C@@H]1[C@@H](O)C[C@](O)(C(=O)O)O[C@H]1C(O)[C@H](O)CNC(=O)OCc1cn(Cc2ccccc2Br)nn1
 SMILES IDX 21 1 22 2 23 3 20 5 18 6 16 7 15 8 9 9 8 10 14 11 6 12 5 13
 SMILES IDX 10 14 11 16 12 17 13 18 7 20 4 22 2 23 1 25 3 26 17 27 19 29
 SMILES IDX 24 31 25 32 26 33 27 34 38 35 28 36 37 37 29 38 30 39 31 40
 SMILES IDX 35 41 32 42 34 43 36 44 33 45
 H PARENT 21 4 10 15 13 19 7 21 4 24 17 28 19 30
 Flexibility Score: inf
  4 active torsions:
  status: ('A' for Active; 'I' for Inactive)
    1  A    between atoms: CA   and  CB  
    2  A    between atoms: CB   and  CG  
    3  A    between atoms: CG   and  CD  
    4  A    between atoms: CD   and  CE  

>  <TORSDO>
F 16

>  <BEGIN_>
RES LYS A 131

$$$$
ligand_39_pose_4_2HRL.pdbqt
 OpenBabel07062320523D

  6  5  0  0  0  0  0  0  0  0999 V2000
   33.1930   34.6630    9.2900 C   0  0  0  0  0  0  0  0  0  0  0  0
   32.0600   35.3600   10.0340 C   0  0  0  0  0  0  0  0  0  0  0  0
   30.7760   34.5720   10.0510 C   0  0  0  0  0  0  0  0  0  0  0  0
   29.9760   34.8210    8.7820 C   0  0  0  0  0  0  0  0  0  0  0  0
   28.6550   34.0780    8.8310 C   0  0  0  0  0  0  0  0  0  0  0  0
   28.0230   34.1930   10.1750 N   0  0  0  0  0  0  0  0  0  0  0  0
  1  2  1  0  0  0  0
  2  3  1  0  0  0  0
  4  5  1  0  0  0  0
  4  3  1  0  0  0  0
  5  6  1  0  0  0  0
M  END
>  <EGIN_R>
ES LYS A 135

>  <REMARK>
  4 active torsions:
  status: ('A' for Active; 'I' for Inactive)
    5  A    between atoms: CA   and  CB  
    6  A    between atoms: CB   and  CG  
    7  A    between atoms: CG   and  CD  
    8  A    between atoms: CD   and  CE  

$$$$
