ligand_70_pose_18_2HRL.pdbqt
 OpenBabel07062320523D

 53 55  0  0  1  0  0  0  0  0999 V2000
   24.9880   31.6060   14.8490 C   0  0  0  0  0  0  0  0  0  0  0  0
   25.6830   32.4540   15.8760 C   0  0  2  0  0  0  0  0  0  0  0  0
   26.1550   31.6870   17.0810 C   0  0  1  0  0  0  0  0  0  0  0  0
   27.6290   31.7910   17.3460 C   0  0  2  0  0  0  0  0  0  0  0  0
   29.5940   31.6140   16.1270 C   0  0  2  0  0  0  0  0  0  0  0  0
   30.3720   31.6860   17.4170 C   0  0  0  0  0  0  0  0  0  0  0  0
   28.3430   32.1710   16.2190 O   0  0  0  0  0  0  0  0  0  0  0  0
   29.6070   31.0510   18.5290 C   0  0  1  0  0  0  0  0  0  0  0  0
   28.1970   30.6180   18.0690 C   0  0  1  0  0  0  0  0  0  0  0  0
   29.5960   30.2890   15.7010 O   0  0  0  0  0  0  0  0  0  0  0  0
   29.0280   29.7080   16.2420 H   0  0  0  0  0  0  0  0  0  0  0  0
   30.3590   32.3960   15.1100 C   0  0  0  0  0  0  0  0  0  0  0  0
   29.7450   33.2850   14.4670 O   0  0  0  0  0  0  0  0  0  0  0  0
   31.7000   32.1760   14.8540 O   0  0  0  0  0  0  0  0  0  0  0  0
   32.0190   31.2400   14.5850 H   0  0  0  0  0  0  0  0  0  0  0  0
   30.2920   29.9290   19.0300 O   0  0  0  0  0  0  0  0  0  0  0  0
   31.2290   29.9450   18.7210 H   0  0  0  0  0  0  0  0  0  0  0  0
   27.3860   30.3900   19.2680 N   0  0  0  0  0  0  0  0  0  0  0  0
   26.8890   29.1140   19.6380 C   0  0  0  0  0  0  0  0  0  0  0  0
   27.1520   31.1860   19.8890 H   0  0  0  0  0  0  0  0  0  0  0  0
   26.0640   28.9030   20.8580 C   0  0  0  0  0  0  0  0  0  0  0  0
   27.1380   28.1050   18.9320 O   0  0  0  0  0  0  0  0  0  0  0  0
   25.4080   32.1580   18.1800 O   0  0  0  0  0  0  0  0  0  0  0  0
   24.9340   31.3730   18.5510 H   0  0  0  0  0  0  0  0  0  0  0  0
   24.8710   33.5420   16.2580 O   0  0  0  0  0  0  0  0  0  0  0  0
   24.4930   33.2620   17.1510 H   0  0  0  0  0  0  0  0  0  0  0  0
   24.0320   32.4110   14.1270 N   0  0  0  0  0  0  0  0  0  0  0  0
   23.1960   31.8980   13.1150 C   0  0  0  0  0  0  0  0  0  0  0  0
   23.9150   33.4420   14.3310 H   0  0  0  0  0  0  0  0  0  0  0  0
   23.2340   30.6970   12.7770 O   0  0  0  0  0  0  0  0  0  0  0  0
   22.2720   32.6970   12.4260 O   0  0  0  0  0  0  0  0  0  0  0  0
   22.2540   34.1160   12.6400 C   0  0  0  0  0  0  0  0  0  0  0  0
   22.8760   34.8150   11.4960 C   0  0  0  0  0  0  0  0  0  0  0  0
   24.1550   35.2590   11.3750 C   0  0  0  0  0  0  0  0  0  0  0  0
   22.2370   35.1250   10.3630 N   0  0  0  0  0  0  0  0  0  0  0  0
   24.2420   35.8360   10.1420 N   0  0  0  0  0  0  0  0  0  0  0  0
   23.0750   35.7440    9.5490 N   0  0  0  0  0  0  0  0  0  0  0  0
   25.3940   36.4370    9.5830 C   0  0  0  0  0  0  0  0  0  0  0  0
   26.0860   37.3810   10.3220 C   0  0  0  0  0  0  0  0  0  0  0  0
   25.8010   36.0720    8.3200 C   0  0  0  0  0  0  0  0  0  0  0  0
   27.1790   37.9520    9.7910 N   0  0  0  0  0  0  0  0  0  0  0  0
   26.9370   36.6750    7.7880 C   0  0  0  0  0  0  0  0  0  0  0  0
   27.6090   37.6120    8.5440 C   0  0  0  0  0  0  0  0  0  0  0  0
   27.3620   36.3320    6.5410 C   0  0  0  0  0  0  0  0  0  0  0  0
   28.7360   38.2120    8.0180 C   0  0  0  0  0  0  0  0  0  0  0  0
   28.4990   36.9330    6.0030 C   0  0  0  0  0  0  0  0  0  0  0  0
   29.1780   37.8690    6.7450 C   0  0  0  0  0  0  0  0  0  0  0  0
   29.8670   25.5550   16.9770 C   0  0  0  0  0  0  0  0  0  0  0  0
   28.3450   25.7220   17.0260 C   0  0  0  0  0  0  0  0  0  0  0  0
   27.5990   24.4500   16.6530 C   0  0  0  0  0  0  0  0  0  0  0  0
   27.0060   23.7680   17.8540 C   0  0  0  0  0  0  0  0  0  0  0  0
   25.6830   24.4340   18.2170 C   0  0  0  0  0  0  0  0  0  0  0  0
   24.7410   24.3740   17.0750 N   0  0  0  0  0  0  0  0  0  0  0  0
  2  1  1  6  0  0  0
  2 25  1  0  0  0  0
  2  3  1  0  0  0  0
  3 23  1  1  0  0  0
  4  3  1  6  0  0  0
  4  9  1  0  0  0  0
  5 12  1  6  0  0  0
  5  7  1  0  0  0  0
  5  6  1  0  0  0  0
  6  8  1  0  0  0  0
  7  4  1  0  0  0  0
  8 16  1  6  0  0  0
  9  8  1  0  0  0  0
  9 18  1  1  0  0  0
 10  5  1  0  0  0  0
 10 11  1  0  0  0  0
 13 12  2  0  0  0  0
 14 12  1  0  0  0  0
 15 14  1  0  0  0  0
 17 16  1  0  0  0  0
 18 19  1  0  0  0  0
 18 20  1  0  0  0  0
 19 21  1  0  0  0  0
 22 19  2  0  0  0  0
 23 24  1  0  0  0  0
 25 26  1  0  0  0  0
 27 29  1  0  0  0  0
 27  1  1  0  0  0  0
 28 27  1  0  0  0  0
 30 28  2  0  0  0  0
 31 32  1  0  0  0  0
 31 28  1  0  0  0  0
 33 32  1  0  0  0  0
 34 33  2  0  0  0  0
 35 33  1  0  0  0  0
 36 34  1  0  0  0  0
 37 36  1  0  0  0  0
 37 35  2  0  0  0  0
 38 36  1  0  0  0  0
 38 39  2  0  0  0  0
 40 38  1  0  0  0  0
 41 39  1  0  0  0  0
 42 40  2  0  0  0  0
 42 43  1  0  0  0  0
 43 41  2  0  0  0  0
 44 42  1  0  0  0  0
 45 43  1  0  0  0  0
 46 44  2  0  0  0  0
 46 47  1  0  0  0  0
 47 45  2  0  0  0  0
 48 49  1  0  0  0  0
 50 49  1  0  0  0  0
 50 51  1  0  0  0  0
 51 52  1  0  0  0  0
 53 52  1  0  0  0  0
M  END
>  <REMARK>
 VINA RESULT:    -5.782      4.232      8.312
 INTER + INTRA:         -14.540
 INTER:                 -10.007
 INTRA:                  -4.533
 UNBOUND:                -4.533
 SMILES CC(=O)N[C@@H]1[C@@H](O)C[C@](O)(C(=O)O)O[C@H]1C(O)[C@H](O)CNC(=O)OCc1cn(-c2cnc3ccccc3c2)nn1
 SMILES IDX 20 1 18 2 16 3 15 4 9 5 8 6 14 7 6 8 5 9 10 10 11 12 12 13
 SMILES IDX 13 14 7 16 4 18 2 19 1 21 3 22 17 23 19 25 21 27 22 28 23 30
 SMILES IDX 24 31 25 32 26 33 27 34 40 35 28 36 39 37 29 38 30 39 38 40
 SMILES IDX 31 41 37 42 32 43 36 44 33 45 35 46 34 47
 H PARENT 10 11 13 15 7 17 4 20 17 24 19 26 21 29
 Flexibility Score: inf
  4 active torsions:
  status: ('A' for Active; 'I' for Inactive)
    1  A    between atoms: CA   and  CB  
    2  A    between atoms: CB   and  CG  
    3  A    between atoms: CG   and  CD  
    4  A    between atoms: CD   and  CE  

>  <TORSDO>
F 15

>  <BEGIN_>
RES LYS A 131

$$$$
ligand_70_pose_18_2HRL.pdbqt
 OpenBabel07062320523D

  6  5  0  0  0  0  0  0  0  0999 V2000
   33.1930   34.6630    9.2900 C   0  0  0  0  0  0  0  0  0  0  0  0
   32.0600   35.3600   10.0340 C   0  0  0  0  0  0  0  0  0  0  0  0
   30.7810   35.4450    9.2410 C   0  0  0  0  0  0  0  0  0  0  0  0
   30.1930   34.0600    9.0210 C   0  0  0  0  0  0  0  0  0  0  0  0
   28.7200   34.0430    9.3810 C   0  0  0  0  0  0  0  0  0  0  0  0
   28.5060   34.4880   10.7870 N   0  0  0  0  0  0  0  0  0  0  0  0
  1  2  1  0  0  0  0
  3  2  1  0  0  0  0
  4  3  1  0  0  0  0
  4  5  1  0  0  0  0
  5  6  1  0  0  0  0
M  END
>  <EGIN_R>
ES LYS A 135

>  <REMARK>
  4 active torsions:
  status: ('A' for Active; 'I' for Inactive)
    5  A    between atoms: CA   and  CB  
    6  A    between atoms: CB   and  CG  
    7  A    between atoms: CG   and  CD  
    8  A    between atoms: CD   and  CE  

$$$$
