ligand_30_pose_10_2HRL.pdbqt
 OpenBabel07062320523D

 57 57  0  0  1  0  0  0  0  0999 V2000
   34.2770   36.0020   16.1930 C   0  0  0  0  0  0  0  0  0  0  0  0
   33.1250   35.5210   15.4790 N   0  0  0  0  0  0  0  0  0  0  0  0
   31.3790   35.2820   14.1720 C   0  0  0  0  0  0  0  0  0  0  0  0
   32.3530   36.1640   14.5570 C   0  0  0  0  0  0  0  0  0  0  0  0
   31.5780   34.1360   14.8590 N   0  0  0  0  0  0  0  0  0  0  0  0
   32.6210   34.3130   15.6240 N   0  0  0  0  0  0  0  0  0  0  0  0
   30.3190   35.5650   13.1830 C   0  0  0  0  0  0  0  0  0  0  0  0
   29.1920   34.7470   13.4130 O   0  0  0  0  0  0  0  0  0  0  0  0
   28.2210   35.1190   14.3330 C   0  0  0  0  0  0  0  0  0  0  0  0
   28.5350   35.3320   15.7020 N   0  0  0  0  0  0  0  0  0  0  0  0
   29.5110   35.2100   16.0450 H   0  0  0  0  0  0  0  0  0  0  0  0
   27.0220   35.2700   13.9160 O   0  0  0  0  0  0  0  0  0  0  0  0
   27.5050   35.7160   16.6160 C   0  0  0  0  0  0  0  0  0  0  0  0
   27.4640   34.8400   17.8500 C   0  0  2  0  0  0  0  0  0  0  0  0
   26.6560   33.6080   17.5780 C   0  0  2  0  0  0  0  0  0  0  0  0
   27.5690   32.4050   17.4680 C   0  0  2  0  0  0  0  0  0  0  0  0
   29.7910   31.8010   17.7260 C   0  0  2  0  0  0  0  0  0  0  0  0
   29.4060   30.6720   16.7970 C   0  0  0  0  0  0  0  0  0  0  0  0
   28.8450   32.8130   17.7500 O   0  0  0  0  0  0  0  0  0  0  0  0
   28.7290   31.2650   15.5910 C   0  0  1  0  0  0  0  0  0  0  0  0
   27.3890   31.8270   16.0870 C   0  0  1  0  0  0  0  0  0  0  0  0
   30.9640   32.3530   17.2180 O   0  0  0  0  0  0  0  0  0  0  0  0
   31.3210   33.0490   17.8150 H   0  0  0  0  0  0  0  0  0  0  0  0
   30.0640   31.2250   19.0430 C   0  0  0  0  0  0  0  0  0  0  0  0
   29.6780   31.8320   20.0710 O   0  0  0  0  0  0  0  0  0  0  0  0
   30.7340   30.0260   19.2440 O   0  0  0  0  0  0  0  0  0  0  0  0
   31.7420   30.0580   19.4630 H   0  0  0  0  0  0  0  0  0  0  0  0
   29.5120   32.2380   15.0070 O   0  0  0  0  0  0  0  0  0  0  0  0
   29.1900   33.1200   15.3200 H   0  0  0  0  0  0  0  0  0  0  0  0
   26.4790   30.7020   16.1040 N   0  0  0  0  0  0  0  0  0  0  0  0
   25.3520   30.7320   15.2480 C   0  0  0  0  0  0  0  0  0  0  0  0
   26.6310   29.8700   16.7270 H   0  0  0  0  0  0  0  0  0  0  0  0
   24.3880   29.5890   15.2360 C   0  0  0  0  0  0  0  0  0  0  0  0
   25.1590   31.7110   14.5020 O   0  0  0  0  0  0  0  0  0  0  0  0
   25.9250   33.8220   16.4060 O   0  0  0  0  0  0  0  0  0  0  0  0
   25.2580   33.1350   16.2340 H   0  0  0  0  0  0  0  0  0  0  0  0
   26.8860   35.5070   18.9300 O   0  0  0  0  0  0  0  0  0  0  0  0
   25.9140   35.4260   18.9210 H   0  0  0  0  0  0  0  0  0  0  0  0
   33.8460   37.0790   17.1520 C   0  0  0  0  0  0  0  0  0  0  0  0
   35.0020   37.7510   17.8360 C   0  0  0  0  0  0  0  0  0  0  0  0
   36.2470   37.7640   16.9850 C   0  0  0  0  0  0  0  0  0  0  0  0
   37.4270   37.2350   17.7960 C   0  0  0  0  0  0  0  0  0  0  0  0
   38.3670   36.5110   16.8700 C   0  0  0  0  0  0  0  0  0  0  0  0
   37.8380   35.1580   16.4900 C   0  0  0  0  0  0  0  0  0  0  0  0
   38.8380   34.4130   15.6700 C   0  0  0  0  0  0  0  0  0  0  0  0
   38.5840   34.6130   14.1790 C   0  0  0  0  0  0  0  0  0  0  0  0
   37.3750   33.8540   13.7030 C   0  0  0  0  0  0  0  0  0  0  0  0
   37.7680   33.1910   12.4200 C   0  0  0  0  0  0  0  0  0  0  0  0
   38.5970   32.2600   12.3530 O   0  0  0  0  0  0  0  0  0  0  0  0
   37.1840   33.6230   11.2280 O   0  0  0  0  0  0  0  0  0  0  0  0
   37.4970   34.4860   10.8180 H   0  0  0  0  0  0  0  0  0  0  0  0
   29.8670   25.5550   16.9770 C   0  0  0  0  0  0  0  0  0  0  0  0
   28.3450   25.7220   17.0260 C   0  0  0  0  0  0  0  0  0  0  0  0
   27.6010   24.4010   16.9010 C   0  0  0  0  0  0  0  0  0  0  0  0
   26.2730   24.4300   17.6050 C   0  0  0  0  0  0  0  0  0  0  0  0
   26.0730   25.7940   18.2580 C   0  0  0  0  0  0  0  0  0  0  0  0
   24.8530   26.4480   17.7280 N   0  0  0  0  0  0  0  0  0  0  0  0
  1 39  1  0  0  0  0
  2  6  1  0  0  0  0
  2  1  1  0  0  0  0
  3  4  2  0  0  0  0
  3  5  1  0  0  0  0
  4  2  1  0  0  0  0
  5  6  2  0  0  0  0
  7  8  1  0  0  0  0
  7  3  1  0  0  0  0
  8  9  1  0  0  0  0
  9 10  1  0  0  0  0
 10 11  1  0  0  0  0
 10 13  1  0  0  0  0
 12  9  2  0  0  0  0
 14 13  1  6  0  0  0
 14 37  1  0  0  0  0
 15 35  1  6  0  0  0
 15 14  1  0  0  0  0
 16 15  1  6  0  0  0
 16 19  1  0  0  0  0
 17 22  1  6  0  0  0
 17 19  1  0  0  0  0
 17 24  1  0  0  0  0
 18 17  1  0  0  0  0
 20 28  1  1  0  0  0
 20 21  1  0  0  0  0
 20 18  1  0  0  0  0
 21 30  1  1  0  0  0
 21 16  1  0  0  0  0
 22 23  1  0  0  0  0
 24 26  1  0  0  0  0
 24 25  2  0  0  0  0
 26 27  1  0  0  0  0
 28 29  1  0  0  0  0
 30 32  1  0  0  0  0
 31 30  1  0  0  0  0
 33 31  1  0  0  0  0
 34 31  2  0  0  0  0
 36 35  1  0  0  0  0
 38 37  1  0  0  0  0
 39 40  1  0  0  0  0
 41 42  1  0  0  0  0
 41 40  1  0  0  0  0
 43 42  1  0  0  0  0
 44 43  1  0  0  0  0
 45 44  1  0  0  0  0
 46 45  1  0  0  0  0
 47 46  1  0  0  0  0
 48 47  1  0  0  0  0
 49 48  2  0  0  0  0
 50 48  1  0  0  0  0
 51 50  1  0  0  0  0
 52 53  1  0  0  0  0
 54 53  1  0  0  0  0
 54 55  1  0  0  0  0
 55 56  1  0  0  0  0
 57 56  1  0  0  0  0
M  END
>  <REMARK>
 VINA RESULT:    -3.731      3.781      5.856
 INTER + INTRA:         -17.046
 INTER:                  -9.592
 INTRA:                  -7.454
 UNBOUND:                -8.298
 SMILES CC(=O)N[C@@H]1[C@@H](O)C[C@](O)(C(=O)O)O[C@H]1C(O)[C@H](O)CNC(=O)OCc1cn(CCCCCCCCCCC(=O)O)nn1
 SMILES IDX 29 1 28 2 26 3 27 4 43 5 42 6 25 7 24 8 22 9 21 10 23 12
 SMILES IDX 20 13 18 14 16 15 15 16 9 17 8 18 14 19 6 20 5 21 10 22
 SMILES IDX 11 24 12 25 13 26 7 28 4 30 2 31 1 33 3 34 17 35 19 37 30 39
 SMILES IDX 31 40 32 41 33 42 34 43 35 44 36 45 37 46 38 47 39 48 40 49
 SMILES IDX 41 50
 H PARENT 21 11 10 23 13 27 7 29 4 32 17 36 19 38 41 51
 Flexibility Score: inf
  4 active torsions:
  status: ('A' for Active; 'I' for Inactive)
    1  A    between atoms: CA   and  CB  
    2  A    between atoms: CB   and  CG  
    3  A    between atoms: CG   and  CD  
    4  A    between atoms: CD   and  CE  

>  <TORSDO>
F 26

>  <BEGIN_>
RES LYS A 131

$$$$
ligand_30_pose_10_2HRL.pdbqt
 OpenBabel07062320523D

  6  5  0  0  0  0  0  0  0  0999 V2000
   33.1930   34.6630    9.2900 C   0  0  0  0  0  0  0  0  0  0  0  0
   32.0600   35.3600   10.0340 C   0  0  0  0  0  0  0  0  0  0  0  0
   30.7050   34.7570    9.7690 C   0  0  0  0  0  0  0  0  0  0  0  0
   30.4760   34.5880    8.2750 C   0  0  0  0  0  0  0  0  0  0  0  0
   29.0210   34.8380    7.9270 C   0  0  0  0  0  0  0  0  0  0  0  0
   28.8950   35.5600    6.6310 N   0  0  0  0  0  0  0  0  0  0  0  0
  1  2  1  0  0  0  0
  3  2  1  0  0  0  0
  4  3  1  0  0  0  0
  5  4  1  0  0  0  0
  6  5  1  0  0  0  0
M  END
>  <EGIN_R>
ES LYS A 135

>  <REMARK>
  4 active torsions:
  status: ('A' for Active; 'I' for Inactive)
    5  A    between atoms: CA   and  CB  
    6  A    between atoms: CB   and  CG  
    7  A    between atoms: CG   and  CD  
    8  A    between atoms: CD   and  CE  

$$$$
