ligand_5_pose_19_2HRL.pdbqt
 OpenBabel07062320523D

 51 52  0  0  1  0  0  0  0  0999 V2000
   19.4610   36.8820    8.8030 N   0  0  0  0  0  0  0  0  0  0  0  0
   18.8430   35.6470    8.5070 C   0  0  0  0  0  0  0  0  0  0  0  0
   19.3270   34.8390    7.7010 O   0  0  0  0  0  0  0  0  0  0  0  0
   18.9190   37.4920    9.4960 H   0  0  0  0  0  0  0  0  0  0  0  0
   20.6730   37.4040    8.3160 C   0  0  0  0  0  0  0  0  0  0  0  0
   21.9120   37.2060    9.0640 C   0  0  2  0  0  0  0  0  0  0  0  0
   22.6670   35.9830    8.9110 C   0  0  1  0  0  0  0  0  0  0  0  0
   24.0450   35.9390    9.6060 C   0  0  2  0  0  0  0  0  0  0  0  0
   24.5570   35.9870   11.9080 C   0  0  2  0  0  0  0  0  0  0  0  0
   24.9010   37.4830   11.8270 C   0  0  0  0  0  0  0  0  0  0  0  0
   23.6870   35.7320   10.9270 O   0  0  0  0  0  0  0  0  0  0  0  0
   25.6350   37.6630   10.5550 C   0  0  1  0  0  0  0  0  0  0  0  0
   24.9070   37.0810    9.3300 C   0  0  1  0  0  0  0  0  0  0  0  0
   23.8070   35.9010   13.1130 O   0  0  0  0  0  0  0  0  0  0  0  0
   23.7150   34.9620   13.4060 H   0  0  0  0  0  0  0  0  0  0  0  0
   25.7160   35.1270   12.0470 C   0  0  0  0  0  0  0  0  0  0  0  0
   25.6580   33.9220   11.6950 O   0  0  0  0  0  0  0  0  0  0  0  0
   26.9560   35.5130   12.5560 O   0  0  0  0  0  0  0  0  0  0  0  0
   27.0520   36.0140   13.4430 H   0  0  0  0  0  0  0  0  0  0  0  0
   25.9090   39.0050   10.2460 O   0  0  0  0  0  0  0  0  0  0  0  0
   25.0010   39.4380   10.1690 H   0  0  0  0  0  0  0  0  0  0  0  0
   25.9840   36.8960    8.4060 N   0  0  0  0  0  0  0  0  0  0  0  0
   26.3410   37.7150    7.3350 C   0  0  0  0  0  0  0  0  0  0  0  0
   26.5710   36.0240    8.5720 H   0  0  0  0  0  0  0  0  0  0  0  0
   27.4990   37.3860    6.4470 C   0  0  0  0  0  0  0  0  0  0  0  0
   25.6590   38.7290    7.1470 O   0  0  0  0  0  0  0  0  0  0  0  0
   21.8960   34.8890    9.2900 O   0  0  0  0  0  0  0  0  0  0  0  0
   22.4260   34.0530    9.3350 H   0  0  0  0  0  0  0  0  0  0  0  0
   21.7100   37.5740   10.4250 O   0  0  0  0  0  0  0  0  0  0  0  0
   20.7440   37.5240   10.6480 H   0  0  0  0  0  0  0  0  0  0  0  0
   17.6320   35.2740    9.1250 O   0  0  0  0  0  0  0  0  0  0  0  0
   17.5180   35.3380   10.5250 C   0  0  0  0  0  0  0  0  0  0  0  0
   18.7970   34.9610   11.1460 C   0  0  0  0  0  0  0  0  0  0  0  0
   19.1900   33.6350   11.3640 C   0  0  0  0  0  0  0  0  0  0  0  0
   19.8030   35.6970   11.6110 N   0  0  0  0  0  0  0  0  0  0  0  0
   20.4050   33.6420   11.9440 N   0  0  0  0  0  0  0  0  0  0  0  0
   20.7440   34.9220   12.0770 N   0  0  0  0  0  0  0  0  0  0  0  0
   21.1780   32.5170   12.3370 C   0  0  0  0  0  0  0  0  0  0  0  0
   20.6770   31.2360   12.3670 C   0  0  0  0  0  0  0  0  0  0  0  0
   22.5130   32.6750   12.7160 C   0  0  0  0  0  0  0  0  0  0  0  0
   21.4500   30.1470   12.7520 C   0  0  0  0  0  0  0  0  0  0  0  0
   23.2790   31.5920   13.0990 C   0  0  0  0  0  0  0  0  0  0  0  0
   22.7630   30.3170   13.1230 C   0  0  0  0  0  0  0  0  0  0  0  0
   23.5160   29.2470   13.5000 O   0  0  0  0  0  0  0  0  0  0  0  0
   23.2950   28.6350   14.7530 C   0  0  0  0  0  0  0  0  0  0  0  0
   29.8670   25.5550   16.9770 C   0  0  0  0  0  0  0  0  0  0  0  0
   28.3450   25.7220   17.0260 C   0  0  0  0  0  0  0  0  0  0  0  0
   27.6010   24.4040   16.8780 C   0  0  0  0  0  0  0  0  0  0  0  0
   26.1510   24.5260   17.2580 C   0  0  0  0  0  0  0  0  0  0  0  0
   26.0370   24.7540   18.7620 C   0  0  0  0  0  0  0  0  0  0  0  0
   25.5160   23.5400   19.4330 N   0  0  0  0  0  0  0  0  0  0  0  0
  1  4  1  0  0  0  0
  2  1  1  0  0  0  0
  2 31  1  0  0  0  0
  3  2  2  0  0  0  0
  5  1  1  0  0  0  0
  6  5  1  1  0  0  0
  6 29  1  0  0  0  0
  7  6  1  0  0  0  0
  7 27  1  1  0  0  0
  8  7  1  6  0  0  0
  8 11  1  0  0  0  0
  9 16  1  6  0  0  0
  9 14  1  0  0  0  0
 10  9  1  0  0  0  0
 11  9  1  0  0  0  0
 12 20  1  6  0  0  0
 12 10  1  0  0  0  0
 13 22  1  6  0  0  0
 13  8  1  0  0  0  0
 13 12  1  0  0  0  0
 14 15  1  0  0  0  0
 16 18  1  0  0  0  0
 17 16  2  0  0  0  0
 18 19  1  0  0  0  0
 21 20  1  0  0  0  0
 22 24  1  0  0  0  0
 23 22  1  0  0  0  0
 25 23  1  0  0  0  0
 26 23  2  0  0  0  0
 27 28  1  0  0  0  0
 29 30  1  0  0  0  0
 31 32  1  0  0  0  0
 32 33  1  0  0  0  0
 33 34  2  0  0  0  0
 33 35  1  0  0  0  0
 34 36  1  0  0  0  0
 35 37  2  0  0  0  0
 36 37  1  0  0  0  0
 36 38  1  0  0  0  0
 38 39  2  0  0  0  0
 38 40  1  0  0  0  0
 39 41  1  0  0  0  0
 40 42  2  0  0  0  0
 41 43  2  0  0  0  0
 42 43  1  0  0  0  0
 43 44  1  0  0  0  0
 44 45  1  0  0  0  0
 46 47  1  0  0  0  0
 48 47  1  0  0  0  0
 48 49  1  0  0  0  0
 49 50  1  0  0  0  0
 50 51  1  0  0  0  0
M  END
>  <REMARK>
 VINA RESULT:    -4.732      8.866     14.287
 INTER + INTRA:         -13.693
 INTER:                  -7.018
 INTRA:                  -6.675
 UNBOUND:                -5.226
 SMILES COc1ccc(-n2cc(COC(=O)NC[C@@H](O)C(O)[C@@H]3O[C@@](O)(C(=O)O)C[C@H](O)[C@H]3NC(C)=O)nn2)cc1
 SMILES IDX 14 1 12 2 13 3 15 5 16 6 18 7 20 8 22 9 27 10 21 11 28 12
 SMILES IDX 30 13 23 14 24 16 25 17 26 18 29 20 31 22 32 23 33 25 34 26
 SMILES IDX 19 27 17 29 11 31 10 32 9 33 8 34 35 35 7 36 36 37 6 38 5 39
 SMILES IDX 37 40 4 41 38 42 3 43 2 44 1 45
 H PARENT 14 4 23 15 26 19 29 21 31 24 19 28 17 30
 Flexibility Score: inf
  4 active torsions:
  status: ('A' for Active; 'I' for Inactive)
    1  A    between atoms: CA   and  CB  
    2  A    between atoms: CB   and  CG  
    3  A    between atoms: CG   and  CD  
    4  A    between atoms: CD   and  CE  

>  <TORSDO>
F 16

>  <BEGIN_>
RES LYS A 131

$$$$
ligand_5_pose_19_2HRL.pdbqt
 OpenBabel07062320523D

  6  5  0  0  0  0  0  0  0  0999 V2000
   33.1930   34.6630    9.2900 C   0  0  0  0  0  0  0  0  0  0  0  0
   32.0600   35.3600   10.0340 C   0  0  0  0  0  0  0  0  0  0  0  0
   30.7200   34.6950    9.8510 C   0  0  0  0  0  0  0  0  0  0  0  0
   30.2910   34.7460    8.3930 C   0  0  0  0  0  0  0  0  0  0  0  0
   28.8020   34.4840    8.2660 C   0  0  0  0  0  0  0  0  0  0  0  0
   28.2630   33.8460    9.4990 N   0  0  0  0  0  0  0  0  0  0  0  0
  1  2  1  0  0  0  0
  3  2  1  0  0  0  0
  4  3  1  0  0  0  0
  5  4  1  0  0  0  0
  5  6  1  0  0  0  0
M  END
>  <EGIN_R>
ES LYS A 135

>  <REMARK>
  4 active torsions:
  status: ('A' for Active; 'I' for Inactive)
    5  A    between atoms: CA   and  CB  
    6  A    between atoms: CB   and  CG  
    7  A    between atoms: CG   and  CD  
    8  A    between atoms: CD   and  CE  

$$$$
