ligand_78_pose_9_2HRL.pdbqt
 OpenBabel07062320523D

 53 54  0  0  1  0  0  0  0  0999 V2000
   30.1150   32.4810   17.6840 N   0  0  0  0  0  0  0  0  0  0  0  0
   29.1690   33.4010   18.2650 C   0  0  0  0  0  0  0  0  0  0  0  0
   29.2880   34.6110   18.0270 O   0  0  0  0  0  0  0  0  0  0  0  0
   29.9420   31.4870   17.9260 H   0  0  0  0  0  0  0  0  0  0  0  0
   31.1890   32.9670   16.8360 C   0  0  0  0  0  0  0  0  0  0  0  0
   30.9460   32.7010   15.3890 C   0  0  2  0  0  0  0  0  0  0  0  0
   30.5450   33.9000   14.5990 C   0  0  2  0  0  0  0  0  0  0  0  0
   31.1200   35.2050   15.0150 C   0  0  2  0  0  0  0  0  0  0  0  0
   30.7480   36.2530   12.9570 C   0  0  2  0  0  0  0  0  0  0  0  0
   32.0740   35.7520   12.4870 C   0  0  0  0  0  0  0  0  0  0  0  0
   30.5280   36.2510   14.3110 O   0  0  0  0  0  0  0  0  0  0  0  0
   33.0980   35.4930   13.5210 C   0  0  1  0  0  0  0  0  0  0  0  0
   32.5780   35.4230   14.9290 C   0  0  1  0  0  0  0  0  0  0  0  0
   29.6990   35.5390   12.3770 O   0  0  0  0  0  0  0  0  0  0  0  0
   29.0120   35.2590   13.0040 H   0  0  0  0  0  0  0  0  0  0  0  0
   30.5920   37.6660   12.5190 C   0  0  0  0  0  0  0  0  0  0  0  0
   29.5050   38.0360   12.0260 O   0  0  0  0  0  0  0  0  0  0  0  0
   31.6040   38.6110   12.6290 O   0  0  0  0  0  0  0  0  0  0  0  0
   32.2730   38.7590   11.8610 H   0  0  0  0  0  0  0  0  0  0  0  0
   33.8040   34.3380   13.1880 O   0  0  0  0  0  0  0  0  0  0  0  0
   34.5600   34.1700   13.7800 H   0  0  0  0  0  0  0  0  0  0  0  0
   32.9020   36.6420   15.6770 N   0  0  0  0  0  0  0  0  0  0  0  0
   33.3770   36.5980   17.0060 C   0  0  0  0  0  0  0  0  0  0  0  0
   32.7820   37.5710   15.2290 H   0  0  0  0  0  0  0  0  0  0  0  0
   33.7110   37.8300   17.7820 C   0  0  0  0  0  0  0  0  0  0  0  0
   33.5140   35.4650   17.5300 O   0  0  0  0  0  0  0  0  0  0  0  0
   29.1390   34.0600   14.9760 O   0  0  0  0  0  0  0  0  0  0  0  0
   28.8410   34.8710   14.5280 H   0  0  0  0  0  0  0  0  0  0  0  0
   30.1970   31.5770   15.1020 O   0  0  0  0  0  0  0  0  0  0  0  0
   30.1990   31.3560   14.1390 H   0  0  0  0  0  0  0  0  0  0  0  0
   28.1410   32.9570   19.0740 O   0  0  0  0  0  0  0  0  0  0  0  0
   26.7780   33.0520   18.7000 C   0  0  0  0  0  0  0  0  0  0  0  0
   26.5910   32.8450   17.2570 C   0  0  0  0  0  0  0  0  0  0  0  0
   25.6910   33.3960   16.3890 C   0  0  0  0  0  0  0  0  0  0  0  0
   27.3430   32.0090   16.5100 N   0  0  0  0  0  0  0  0  0  0  0  0
   25.9190   32.8830   15.1540 N   0  0  0  0  0  0  0  0  0  0  0  0
   26.9330   32.0400   15.2600 N   0  0  0  0  0  0  0  0  0  0  0  0
   25.1700   33.2250   13.9740 C   0  0  0  0  0  0  0  0  0  0  0  0
   25.7690   34.7580   13.2780 S   0  0  0  0  0  0  0  0  0  0  0  0
   27.2550   34.6190   13.0670 O   0  0  0  0  0  0  0  0  0  0  0  0
   25.4940   35.8370   14.2580 O   0  0  0  0  0  0  0  0  0  0  0  0
   24.9500   35.0360   11.7520 C   0  0  0  0  0  0  0  0  0  0  0  0
   25.7320   35.2820   10.6290 C   0  0  0  0  0  0  0  0  0  0  0  0
   23.5780   35.0090   11.6860 C   0  0  0  0  0  0  0  0  0  0  0  0
   25.0880   35.4990    9.4340 C   0  0  0  0  0  0  0  0  0  0  0  0
   22.9810   35.2330   10.4640 C   0  0  0  0  0  0  0  0  0  0  0  0
   23.7010   35.4810    9.3200 C   0  0  0  0  0  0  0  0  0  0  0  0
   29.8670   25.5550   16.9770 C   0  0  0  0  0  0  0  0  0  0  0  0
   28.3450   25.7220   17.0260 C   0  0  0  0  0  0  0  0  0  0  0  0
   27.6010   24.4020   16.8890 C   0  0  0  0  0  0  0  0  0  0  0  0
   26.1800   24.5010   17.3700 C   0  0  0  0  0  0  0  0  0  0  0  0
   26.1050   25.4770   18.5400 C   0  0  0  0  0  0  0  0  0  0  0  0
   24.8970   26.3280   18.4280 N   0  0  0  0  0  0  0  0  0  0  0  0
  1  4  1  0  0  0  0
  1  2  1  0  0  0  0
  2 31  1  0  0  0  0
  3  2  2  0  0  0  0
  5  1  1  0  0  0  0
  6  5  1  1  0  0  0
  7 27  1  1  0  0  0
  7  6  1  0  0  0  0
  8  7  1  6  0  0  0
  9 14  1  6  0  0  0
  9 11  1  0  0  0  0
 10  9  1  0  0  0  0
 10 12  1  0  0  0  0
 11  8  1  0  0  0  0
 12 20  1  6  0  0  0
 12 13  1  0  0  0  0
 13  8  1  0  0  0  0
 13 22  1  6  0  0  0
 14 15  1  0  0  0  0
 16 18  1  0  0  0  0
 16  9  1  0  0  0  0
 17 16  2  0  0  0  0
 19 18  1  0  0  0  0
 20 21  1  0  0  0  0
 22 23  1  0  0  0  0
 23 26  2  0  0  0  0
 23 25  1  0  0  0  0
 24 22  1  0  0  0  0
 28 27  1  0  0  0  0
 29  6  1  0  0  0  0
 30 29  1  0  0  0  0
 32 31  1  0  0  0  0
 33 32  1  0  0  0  0
 34 33  2  0  0  0  0
 35 33  1  0  0  0  0
 36 37  1  0  0  0  0
 36 34  1  0  0  0  0
 37 35  2  0  0  0  0
 38 36  1  0  0  0  0
 39 38  1  0  0  0  0
 39 41  2  0  0  0  0
 40 39  2  0  0  0  0
 42 39  1  0  0  0  0
 43 42  2  0  0  0  0
 44 42  1  0  0  0  0
 45 43  1  0  0  0  0
 46 44  2  0  0  0  0
 47 45  2  0  0  0  0
 47 46  1  0  0  0  0
 48 49  1  0  0  0  0
 50 49  1  0  0  0  0
 50 51  1  0  0  0  0
 51 52  1  0  0  0  0
 53 52  1  0  0  0  0
M  END
>  <REMARK>
 VINA RESULT:    -5.336      3.679      7.981
 INTER + INTRA:         -14.871
 INTER:                  -8.384
 INTRA:                  -6.487
 UNBOUND:                -5.011
 SMILES CC(=O)N[C@@H]1[C@@H](O)C[C@](O)(C(=O)O)O[C@H]1C(O)[C@H](O)CNC(=O)OCc1cn(CS(=O)(=O)c2ccccc2)nn1
 SMILES IDX 21 1 22 2 23 3 20 5 18 6 16 7 15 8 9 9 8 10 14 11 6 12 5 13
 SMILES IDX 10 14 11 16 12 17 13 18 7 20 4 22 2 23 1 25 3 26 17 27 19 29
 SMILES IDX 24 31 25 32 26 33 27 34 40 35 28 36 39 37 29 38 30 39 31 40
 SMILES IDX 32 41 33 42 34 43 38 44 35 45 37 46 36 47
 H PARENT 21 4 10 15 13 19 7 21 4 24 17 28 19 30
 Flexibility Score: inf
  4 active torsions:
  status: ('A' for Active; 'I' for Inactive)
    1  A    between atoms: CA   and  CB  
    2  A    between atoms: CB   and  CG  
    3  A    between atoms: CG   and  CD  
    4  A    between atoms: CD   and  CE  

>  <TORSDO>
F 17

>  <BEGIN_>
RES LYS A 131

$$$$
ligand_78_pose_9_2HRL.pdbqt
 OpenBabel07062320523D

  6  5  0  0  0  0  0  0  0  0999 V2000
   33.1930   34.6630    9.2900 C   0  0  0  0  0  0  0  0  0  0  0  0
   32.0600   35.3600   10.0340 C   0  0  0  0  0  0  0  0  0  0  0  0
   30.8130   35.5340    9.2060 C   0  0  0  0  0  0  0  0  0  0  0  0
   30.1000   34.2030    9.0240 C   0  0  0  0  0  0  0  0  0  0  0  0
   28.6980   34.4180    8.4860 C   0  0  0  0  0  0  0  0  0  0  0  0
   28.5480   35.7850    7.9140 N   0  0  0  0  0  0  0  0  0  0  0  0
  1  2  1  0  0  0  0
  3  2  1  0  0  0  0
  4  3  1  0  0  0  0
  5  4  1  0  0  0  0
  6  5  1  0  0  0  0
M  END
>  <EGIN_R>
ES LYS A 135

>  <REMARK>
  4 active torsions:
  status: ('A' for Active; 'I' for Inactive)
    5  A    between atoms: CA   and  CB  
    6  A    between atoms: CB   and  CG  
    7  A    between atoms: CG   and  CD  
    8  A    between atoms: CD   and  CE  

$$$$
