ligand_86_pose_9_2HRL.pdbqt
 OpenBabel07062320523D

 52 54  0  0  1  0  0  0  0  0999 V2000
   25.7630   28.2570   19.4480 C   0  0  0  0  0  0  0  0  0  0  0  0
   27.2400   28.3340   19.6340 C   0  0  2  0  0  0  0  0  0  0  0  0
   27.7330   29.6870   20.0400 C   0  0  2  0  0  0  0  0  0  0  0  0
   29.2370   29.7450   20.1790 C   0  0  2  0  0  0  0  0  0  0  0  0
   30.9810   28.8380   21.3970 C   0  0  2  0  0  0  0  0  0  0  0  0
   31.7240   29.8750   20.5990 C   0  0  0  0  0  0  0  0  0  0  0  0
   29.6430   28.7400   21.0460 O   0  0  0  0  0  0  0  0  0  0  0  0
   31.0940   31.2330   20.6450 C   0  0  1  0  0  0  0  0  0  0  0  0
   29.6100   31.0650   20.8230 C   0  0  1  0  0  0  0  0  0  0  0  0
   31.1200   29.0200   22.7720 O   0  0  0  0  0  0  0  0  0  0  0  0
   31.9570   28.6090   23.0910 H   0  0  0  0  0  0  0  0  0  0  0  0
   31.6040   27.5140   21.0790 C   0  0  0  0  0  0  0  0  0  0  0  0
   31.8370   26.6660   22.0040 O   0  0  0  0  0  0  0  0  0  0  0  0
   31.9530   27.1380   19.8030 O   0  0  0  0  0  0  0  0  0  0  0  0
   31.8240   26.1520   19.5430 H   0  0  0  0  0  0  0  0  0  0  0  0
   31.6730   32.0850   21.5550 O   0  0  0  0  0  0  0  0  0  0  0  0
   32.6590   32.0060   21.4610 H   0  0  0  0  0  0  0  0  0  0  0  0
   28.8440   32.1670   20.2990 N   0  0  0  0  0  0  0  0  0  0  0  0
   28.5120   33.3120   21.0860 C   0  0  0  0  0  0  0  0  0  0  0  0
   28.5020   32.1620   19.3120 H   0  0  0  0  0  0  0  0  0  0  0  0
   27.7240   34.4090   20.4900 C   0  0  0  0  0  0  0  0  0  0  0  0
   28.9120   33.3380   22.2730 O   0  0  0  0  0  0  0  0  0  0  0  0
   27.1760   30.0230   21.2730 O   0  0  0  0  0  0  0  0  0  0  0  0
   26.2050   30.0790   21.2370 H   0  0  0  0  0  0  0  0  0  0  0  0
   27.9190   27.9610   18.4510 O   0  0  0  0  0  0  0  0  0  0  0  0
   28.1210   28.8220   17.9880 H   0  0  0  0  0  0  0  0  0  0  0  0
   25.3610   28.5750   18.0990 N   0  0  0  0  0  0  0  0  0  0  0  0
   24.8140   29.8520   17.8090 C   0  0  0  0  0  0  0  0  0  0  0  0
   25.4530   27.8990   17.3030 H   0  0  0  0  0  0  0  0  0  0  0  0
   24.6530   30.7480   18.6820 O   0  0  0  0  0  0  0  0  0  0  0  0
   24.4100   30.2120   16.5230 O   0  0  0  0  0  0  0  0  0  0  0  0
   25.1150   31.1530   15.7380 C   0  0  0  0  0  0  0  0  0  0  0  0
   26.5750   30.8730   15.7980 C   0  0  0  0  0  0  0  0  0  0  0  0
   27.5690   31.8220   15.6910 C   0  0  0  0  0  0  0  0  0  0  0  0
   27.2170   29.7030   15.9610 N   0  0  0  0  0  0  0  0  0  0  0  0
   28.7830   31.2110   15.7910 N   0  0  0  0  0  0  0  0  0  0  0  0
   28.5100   29.9280   15.9530 N   0  0  0  0  0  0  0  0  0  0  0  0
   30.0960   31.8460   15.7300 C   0  0  2  0  0  0  0  0  0  0  0  0
   30.5010   32.2000   17.1120 C   0  0  0  0  0  0  0  0  0  0  0  0
   30.0070   32.9840   14.7760 C   0  0  0  0  0  0  0  0  0  0  0  0
   31.3290   33.4280   17.2450 C   0  0  1  0  0  0  0  0  0  0  0  0
   30.6550   34.2520   15.2660 C   0  0  2  0  0  0  0  0  0  0  0  0
   31.8630   33.8700   15.9770 N   0  0  0  0  0  0  0  0  0  0  0  0
   30.4090   34.5780   17.6210 C   0  0  0  0  0  0  0  0  0  0  0  0
   29.7440   34.8780   16.2920 C   0  0  0  0  0  0  0  0  0  0  0  0
   32.7540   34.9860   16.1740 C   0  0  0  0  0  0  0  0  0  0  0  0
   29.8670   25.5550   16.9770 C   0  0  0  0  0  0  0  0  0  0  0  0
   28.3450   25.7220   17.0260 C   0  0  0  0  0  0  0  0  0  0  0  0
   27.6020   24.3980   16.9340 C   0  0  0  0  0  0  0  0  0  0  0  0
   26.5680   24.2520   18.0150 C   0  0  0  0  0  0  0  0  0  0  0  0
   25.2260   24.7740   17.5110 C   0  0  0  0  0  0  0  0  0  0  0  0
   24.4070   23.6630   16.9720 N   0  0  0  0  0  0  0  0  0  0  0  0
  2  1  1  6  0  0  0
  2  3  1  0  0  0  0
  3 23  1  1  0  0  0
  4  3  1  1  0  0  0
  4  9  1  0  0  0  0
  4  7  1  0  0  0  0
  5 12  1  6  0  0  0
  5 10  1  0  0  0  0
  6  8  1  0  0  0  0
  6  5  1  0  0  0  0
  7  5  1  0  0  0  0
  8  9  1  0  0  0  0
  8 16  1  1  0  0  0
  9 18  1  6  0  0  0
 10 11  1  0  0  0  0
 12 13  2  0  0  0  0
 14 12  1  0  0  0  0
 15 14  1  0  0  0  0
 17 16  1  0  0  0  0
 18 19  1  0  0  0  0
 19 22  2  0  0  0  0
 20 18  1  0  0  0  0
 21 19  1  0  0  0  0
 24 23  1  0  0  0  0
 25  2  1  0  0  0  0
 26 25  1  0  0  0  0
 27  1  1  0  0  0  0
 28 27  1  0  0  0  0
 28 30  2  0  0  0  0
 29 27  1  0  0  0  0
 31 28  1  0  0  0  0
 32 33  1  0  0  0  0
 32 31  1  0  0  0  0
 33 35  1  0  0  0  0
 34 36  1  0  0  0  0
 34 33  2  0  0  0  0
 36 37  1  0  0  0  0
 37 35  2  0  0  0  0
 38 40  1  6  0  0  0
 38 36  1  0  0  0  0
 38 39  1  0  0  0  0
 41 39  1  6  0  0  0
 41 44  1  0  0  0  0
 42 40  1  1  0  0  0
 42 43  1  0  0  0  0
 42 45  1  0  0  0  0
 43 46  1  0  0  0  0
 43 41  1  0  0  0  0
 45 44  1  0  0  0  0
 47 48  1  0  0  0  0
 49 48  1  0  0  0  0
 49 50  1  0  0  0  0
 51 50  1  0  0  0  0
 52 51  1  0  0  0  0
M  END
>  <REMARK>
 VINA RESULT:    -4.476      1.570      3.139
 INTER + INTRA:         -14.302
 INTER:                  -7.900
 INTRA:                  -6.402
 UNBOUND:                -6.555
 SMILES CC(=O)N[C@@H]1[C@@H](O)C[C@](O)(C(=O)O)O[C@H]1C(O)[C@H](O)CNC(=O)OCc1cn([C@H]2C[C@H]3CC[C@@H](C2)N3C)nn1
 SMILES IDX 20 1 18 2 16 3 15 4 9 5 8 6 14 7 6 8 5 9 10 10 11 12 12 13
 SMILES IDX 13 14 7 16 4 18 2 19 1 21 3 22 17 23 19 25 21 27 22 28 23 30
 SMILES IDX 24 31 25 32 26 33 27 34 39 35 28 36 38 37 29 38 35 39 30 40
 SMILES IDX 34 41 31 42 36 43 33 44 32 45 37 46
 H PARENT 10 11 13 15 7 17 4 20 17 24 19 26 21 29
 Flexibility Score: inf
  4 active torsions:
  status: ('A' for Active; 'I' for Inactive)
    1  A    between atoms: CA   and  CB  
    2  A    between atoms: CB   and  CG  
    3  A    between atoms: CG   and  CD  
    4  A    between atoms: CD   and  CE  

>  <TORSDO>
F 15

>  <BEGIN_>
RES LYS A 131

$$$$
ligand_86_pose_9_2HRL.pdbqt
 OpenBabel07062320523D

  6  5  0  0  0  0  0  0  0  0999 V2000
   33.1930   34.6630    9.2900 C   0  0  0  0  0  0  0  0  0  0  0  0
   32.0600   35.3600   10.0340 C   0  0  0  0  0  0  0  0  0  0  0  0
   30.8100   35.5260    9.2090 C   0  0  0  0  0  0  0  0  0  0  0  0
   30.0150   34.2300    9.1720 C   0  0  0  0  0  0  0  0  0  0  0  0
   28.8010   34.3230   10.0760 C   0  0  0  0  0  0  0  0  0  0  0  0
   27.6080   33.7020    9.4370 N   0  0  0  0  0  0  0  0  0  0  0  0
  1  2  1  0  0  0  0
  3  2  1  0  0  0  0
  4  3  1  0  0  0  0
  4  5  1  0  0  0  0
  6  5  1  0  0  0  0
M  END
>  <EGIN_R>
ES LYS A 135

>  <REMARK>
  4 active torsions:
  status: ('A' for Active; 'I' for Inactive)
    5  A    between atoms: CA   and  CB  
    6  A    between atoms: CB   and  CG  
    7  A    between atoms: CG   and  CD  
    8  A    between atoms: CD   and  CE  

$$$$
