ligand_22_pose_14_2HRL.pdbqt
 OpenBabel07062320523D

 50 50  0  0  1  0  0  0  0  0999 V2000
   32.1970   40.4010    8.8580 N   0  0  0  0  0  0  0  0  0  0  0  0
   32.5750   41.7630    8.9140 C   0  0  0  0  0  0  0  0  0  0  0  0
   32.3530   42.4580    9.9650 O   0  0  0  0  0  0  0  0  0  0  0  0
   32.3830   39.8450    8.0020 H   0  0  0  0  0  0  0  0  0  0  0  0
   31.5600   39.8280   10.0160 C   0  0  0  0  0  0  0  0  0  0  0  0
   30.1900   39.2950    9.7910 C   0  0  2  0  0  0  0  0  0  0  0  0
   30.1220   38.2390    8.7160 C   0  0  1  0  0  0  0  0  0  0  0  0
   29.2160   38.7670    7.5980 C   0  0  2  0  0  0  0  0  0  0  0  0
   27.0700   38.3910    6.7820 C   0  0  2  0  0  0  0  0  0  0  0  0
   27.5890   38.3280    5.3620 C   0  0  0  0  0  0  0  0  0  0  0  0
   28.0160   38.0770    7.7280 O   0  0  0  0  0  0  0  0  0  0  0  0
   28.9600   37.7180    5.3430 C   0  0  1  0  0  0  0  0  0  0  0  0
   29.8690   38.5170    6.2560 C   0  0  1  0  0  0  0  0  0  0  0  0
   26.0750   37.4050    6.8760 O   0  0  0  0  0  0  0  0  0  0  0  0
   25.6190   37.4720    7.7340 H   0  0  0  0  0  0  0  0  0  0  0  0
   26.4370   39.7020    7.0480 C   0  0  0  0  0  0  0  0  0  0  0  0
   25.9660   40.3700    6.1060 O   0  0  0  0  0  0  0  0  0  0  0  0
   26.3450   40.2280    8.3280 O   0  0  0  0  0  0  0  0  0  0  0  0
   26.8670   39.8520    9.1060 H   0  0  0  0  0  0  0  0  0  0  0  0
   28.9640   36.3760    5.6400 O   0  0  0  0  0  0  0  0  0  0  0  0
   29.1920   35.7880    4.8880 H   0  0  0  0  0  0  0  0  0  0  0  0
   30.1450   39.7770    5.5680 N   0  0  0  0  0  0  0  0  0  0  0  0
   31.4690   40.2820    5.4520 C   0  0  0  0  0  0  0  0  0  0  0  0
   29.3640   40.3260    5.1510 H   0  0  0  0  0  0  0  0  0  0  0  0
   31.7680   41.5670    4.7540 C   0  0  0  0  0  0  0  0  0  0  0  0
   32.3860   39.5750    5.9790 O   0  0  0  0  0  0  0  0  0  0  0  0
   31.3290   37.8250    8.2300 O   0  0  0  0  0  0  0  0  0  0  0  0
   31.2160   37.2680    7.4360 H   0  0  0  0  0  0  0  0  0  0  0  0
   29.4020   40.4040    9.3880 O   0  0  0  0  0  0  0  0  0  0  0  0
   28.6510   40.5060   10.0400 H   0  0  0  0  0  0  0  0  0  0  0  0
   33.1910   42.4320    7.8770 O   0  0  0  0  0  0  0  0  0  0  0  0
   34.6240   42.5310    7.7940 C   0  0  0  0  0  0  0  0  0  0  0  0
   35.1190   41.3060    7.1130 C   0  0  0  0  0  0  0  0  0  0  0  0
   35.4620   41.2140    5.7740 C   0  0  0  0  0  0  0  0  0  0  0  0
   35.3350   40.0730    7.6090 N   0  0  0  0  0  0  0  0  0  0  0  0
   35.8700   39.9530    5.4990 N   0  0  0  0  0  0  0  0  0  0  0  0
   35.7790   39.2900    6.6360 N   0  0  0  0  0  0  0  0  0  0  0  0
   36.3100   39.4690    4.2070 C   0  0  0  0  0  0  0  0  0  0  0  0
   35.1470   38.8600    3.4520 C   0  0  0  0  0  0  0  0  0  0  0  0
   36.8900   40.6200    3.4100 C   0  0  0  0  0  0  0  0  0  0  0  0
   37.3360   38.3960    4.3600 C   0  0  0  0  0  0  0  0  0  0  0  0
   38.5130   38.6690    4.0120 O   0  0  0  0  0  0  0  0  0  0  0  0
   37.0300   37.1470    4.8630 O   0  0  0  0  0  0  0  0  0  0  0  0
   37.5970   36.8030    5.6320 H   0  0  0  0  0  0  0  0  0  0  0  0
   29.8670   25.5550   16.9770 C   0  0  0  0  0  0  0  0  0  0  0  0
   28.3450   25.7220   17.0260 C   0  0  0  0  0  0  0  0  0  0  0  0
   27.6010   24.4010   16.9020 C   0  0  0  0  0  0  0  0  0  0  0  0
   26.5580   24.2350   17.9720 C   0  0  0  0  0  0  0  0  0  0  0  0
   25.2100   24.7180   17.4480 C   0  0  0  0  0  0  0  0  0  0  0  0
   24.3600   23.5660   17.0640 N   0  0  0  0  0  0  0  0  0  0  0  0
  1  2  1  0  0  0  0
  1  5  1  0  0  0  0
  2  3  2  0  0  0  0
  4  1  1  0  0  0  0
  6  5  1  6  0  0  0
  7 27  1  6  0  0  0
  7  6  1  0  0  0  0
  8 11  1  0  0  0  0
  8  7  1  1  0  0  0
  9 14  1  1  0  0  0
  9 16  1  0  0  0  0
  9 11  1  0  0  0  0
 10  9  1  0  0  0  0
 12 10  1  0  0  0  0
 12 20  1  1  0  0  0
 12 13  1  0  0  0  0
 13 22  1  6  0  0  0
 13  8  1  0  0  0  0
 14 15  1  0  0  0  0
 16 18  1  0  0  0  0
 17 16  2  0  0  0  0
 18 19  1  0  0  0  0
 21 20  1  0  0  0  0
 23 22  1  0  0  0  0
 23 26  2  0  0  0  0
 24 22  1  0  0  0  0
 25 23  1  0  0  0  0
 28 27  1  0  0  0  0
 29  6  1  0  0  0  0
 29 30  1  0  0  0  0
 31  2  1  0  0  0  0
 32 31  1  0  0  0  0
 33 35  1  0  0  0  0
 33 32  1  0  0  0  0
 34 33  2  0  0  0  0
 36 34  1  0  0  0  0
 36 37  1  0  0  0  0
 37 35  2  0  0  0  0
 38 41  1  0  0  0  0
 38 36  1  0  0  0  0
 39 38  1  0  0  0  0
 40 38  1  0  0  0  0
 41 43  1  0  0  0  0
 42 41  2  0  0  0  0
 43 44  1  0  0  0  0
 45 46  1  0  0  0  0
 47 46  1  0  0  0  0
 47 48  1  0  0  0  0
 49 48  1  0  0  0  0
 50 49  1  0  0  0  0
M  END
>  <REMARK>
 VINA RESULT:    -4.814      5.333      9.868
 INTER + INTRA:         -14.331
 INTER:                  -7.691
 INTRA:                  -6.640
 UNBOUND:                -5.578
 SMILES CC(=O)N[C@@H]1[C@@H](O)C[C@](O)(C(=O)O)O[C@H]1C(O)[C@H](O)CNC(=O)OCc1cn(C(C)(C)C(=O)O)nn1
 SMILES IDX 21 1 22 2 23 3 20 5 18 6 16 7 15 8 9 9 8 10 14 11 6 12 5 13
 SMILES IDX 10 14 11 16 12 17 13 18 7 20 4 22 2 23 1 25 3 26 17 27 19 29
 SMILES IDX 24 31 25 32 26 33 27 34 36 35 28 36 35 37 29 38 30 39 31 40
 SMILES IDX 32 41 33 42 34 43
 H PARENT 21 4 10 15 13 19 7 21 4 24 17 28 19 30 34 44
 Flexibility Score: inf
  4 active torsions:
  status: ('A' for Active; 'I' for Inactive)
    1  A    between atoms: CA   and  CB  
    2  A    between atoms: CB   and  CG  
    3  A    between atoms: CG   and  CD  
    4  A    between atoms: CD   and  CE  

>  <TORSDO>
F 17

>  <BEGIN_>
RES LYS A 131

$$$$
ligand_22_pose_14_2HRL.pdbqt
 OpenBabel07062320523D

  6  5  0  0  0  0  0  0  0  0999 V2000
   33.1930   34.6630    9.2900 C   0  0  0  0  0  0  0  0  0  0  0  0
   32.0600   35.3600   10.0340 C   0  0  0  0  0  0  0  0  0  0  0  0
   30.7510   34.6160    9.9720 C   0  0  0  0  0  0  0  0  0  0  0  0
   30.3030   34.4370    8.5290 C   0  0  0  0  0  0  0  0  0  0  0  0
   28.7910   34.5000    8.4290 C   0  0  0  0  0  0  0  0  0  0  0  0
   28.1480   33.7960    9.5730 N   0  0  0  0  0  0  0  0  0  0  0  0
  1  2  1  0  0  0  0
  3  2  1  0  0  0  0
  4  3  1  0  0  0  0
  5  4  1  0  0  0  0
  5  6  1  0  0  0  0
M  END
>  <EGIN_R>
ES LYS A 135

>  <REMARK>
  4 active torsions:
  status: ('A' for Active; 'I' for Inactive)
    5  A    between atoms: CA   and  CB  
    6  A    between atoms: CB   and  CG  
    7  A    between atoms: CG   and  CD  
    8  A    between atoms: CD   and  CE  

$$$$
