ligand_35_pose_11_2HRL.pdbqt
 OpenBabel07062320523D

 49 49  0  0  1  0  0  0  0  0999 V2000
   28.8200   31.1610   18.5960 N   0  0  0  0  0  0  0  0  0  0  0  0
   28.7300   32.3190   17.7900 C   0  0  0  0  0  0  0  0  0  0  0  0
   29.0090   33.4600   18.2370 O   0  0  0  0  0  0  0  0  0  0  0  0
   28.5780   30.2430   18.1800 H   0  0  0  0  0  0  0  0  0  0  0  0
   29.2360   31.2210   19.9670 C   0  0  0  0  0  0  0  0  0  0  0  0
   30.7520   31.0710   20.1380 C   0  0  2  0  0  0  0  0  0  0  0  0
   30.9810   30.2790   21.3780 C   0  0  2  0  0  0  0  0  0  0  0  0
   30.0500   29.1410   21.6250 C   0  0  2  0  0  0  0  0  0  0  0  0
   31.2940   28.0030   23.2400 C   0  0  2  0  0  0  0  0  0  0  0  0
   32.0360   27.3950   22.1180 C   0  0  0  0  0  0  0  0  0  0  0  0
   30.1950   28.7670   22.9530 O   0  0  0  0  0  0  0  0  0  0  0  0
   31.2730   27.0910   20.8770 C   0  0  1  0  0  0  0  0  0  0  0  0
   30.0930   28.0000   20.6830 C   0  0  1  0  0  0  0  0  0  0  0  0
   32.2030   28.8860   23.8810 O   0  0  0  0  0  0  0  0  0  0  0  0
   33.0730   28.4330   23.9060 H   0  0  0  0  0  0  0  0  0  0  0  0
   30.9690   26.9520   24.2430 C   0  0  0  0  0  0  0  0  0  0  0  0
   29.7810   26.7000   24.5850 O   0  0  0  0  0  0  0  0  0  0  0  0
   31.9700   26.2060   24.8400 O   0  0  0  0  0  0  0  0  0  0  0  0
   31.7920   25.3970   25.4260 H   0  0  0  0  0  0  0  0  0  0  0  0
   32.1750   27.1780   19.8000 O   0  0  0  0  0  0  0  0  0  0  0  0
   32.6060   28.0640   19.8760 H   0  0  0  0  0  0  0  0  0  0  0  0
   28.8620   27.2190   20.9220 N   0  0  0  0  0  0  0  0  0  0  0  0
   27.7340   27.3550   20.0830 C   0  0  0  0  0  0  0  0  0  0  0  0
   28.7810   26.5480   21.7080 H   0  0  0  0  0  0  0  0  0  0  0  0
   26.4850   26.5970   20.2840 C   0  0  0  0  0  0  0  0  0  0  0  0
   27.7720   28.1650   19.0990 O   0  0  0  0  0  0  0  0  0  0  0  0
   30.7230   31.1930   22.4510 O   0  0  0  0  0  0  0  0  0  0  0  0
   30.9060   30.6650   23.2680 H   0  0  0  0  0  0  0  0  0  0  0  0
   31.2330   32.3680   20.2550 O   0  0  0  0  0  0  0  0  0  0  0  0
   30.4630   32.9790   20.1260 H   0  0  0  0  0  0  0  0  0  0  0  0
   28.3200   32.2330   16.4450 O   0  0  0  0  0  0  0  0  0  0  0  0
   29.2060   31.7530   15.4500 C   0  0  0  0  0  0  0  0  0  0  0  0
   30.3120   32.7120   15.2080 C   0  0  0  0  0  0  0  0  0  0  0  0
   30.2220   33.9180   14.5090 C   0  0  0  0  0  0  0  0  0  0  0  0
   31.6060   32.6410   15.5950 N   0  0  0  0  0  0  0  0  0  0  0  0
   31.4220   34.5050   14.5010 N   0  0  0  0  0  0  0  0  0  0  0  0
   32.2500   33.7310   15.1560 N   0  0  0  0  0  0  0  0  0  0  0  0
   31.7720   35.7860   13.8770 C   0  0  1  0  0  0  0  0  0  0  0  0
   32.2920   36.7470   14.9330 C   0  0  0  0  0  0  0  0  0  0  0  0
   32.7520   35.6230   12.8060 C   0  0  0  0  0  0  0  0  0  0  0  0
   32.7620   36.4190   11.8400 O   0  0  0  0  0  0  0  0  0  0  0  0
   33.7090   34.6100   12.7790 O   0  0  0  0  0  0  0  0  0  0  0  0
   33.7110   33.8730   13.4760 H   0  0  0  0  0  0  0  0  0  0  0  0
   29.8670   25.5550   16.9770 C   0  0  0  0  0  0  0  0  0  0  0  0
   28.3450   25.7220   17.0260 C   0  0  0  0  0  0  0  0  0  0  0  0
   27.5990   24.4240   16.7560 C   0  0  0  0  0  0  0  0  0  0  0  0
   26.2120   24.4370   17.3360 C   0  0  0  0  0  0  0  0  0  0  0  0
   26.1450   23.4740   18.5170 C   0  0  0  0  0  0  0  0  0  0  0  0
   24.8980   22.6750   18.4640 N   0  0  0  0  0  0  0  0  0  0  0  0
  1  5  1  0  0  0  0
  2  3  2  0  0  0  0
  2  1  1  0  0  0  0
  4  1  1  0  0  0  0
  6  5  1  1  0  0  0
  6 29  1  0  0  0  0
  6  7  1  0  0  0  0
  7 27  1  1  0  0  0
  8  7  1  6  0  0  0
  8 11  1  0  0  0  0
  9 14  1  1  0  0  0
  9 16  1  0  0  0  0
 10  9  1  0  0  0  0
 11  9  1  0  0  0  0
 12 20  1  6  0  0  0
 12 10  1  0  0  0  0
 13 12  1  0  0  0  0
 13 22  1  1  0  0  0
 13  8  1  0  0  0  0
 14 15  1  0  0  0  0
 16 17  2  0  0  0  0
 16 18  1  0  0  0  0
 18 19  1  0  0  0  0
 20 21  1  0  0  0  0
 22 24  1  0  0  0  0
 23 25  1  0  0  0  0
 23 22  1  0  0  0  0
 26 23  2  0  0  0  0
 27 28  1  0  0  0  0
 30 29  1  0  0  0  0
 31  2  1  0  0  0  0
 32 31  1  0  0  0  0
 33 32  1  0  0  0  0
 33 35  1  0  0  0  0
 34 33  2  0  0  0  0
 36 34  1  0  0  0  0
 36 37  1  0  0  0  0
 37 35  2  0  0  0  0
 38 36  1  0  0  0  0
 38 39  1  1  0  0  0
 40 38  1  0  0  0  0
 41 40  2  0  0  0  0
 42 40  1  0  0  0  0
 42 43  1  0  0  0  0
 44 45  1  0  0  0  0
 46 45  1  0  0  0  0
 46 47  1  0  0  0  0
 47 48  1  0  0  0  0
 49 48  1  0  0  0  0
M  END
>  <REMARK>
 VINA RESULT:    -4.988      3.130      7.708
 INTER + INTRA:         -13.795
 INTER:                  -8.757
 INTRA:                  -5.038
 UNBOUND:                -4.724
 SMILES CC(=O)N[C@@H]1[C@@H](O)C[C@](O)(C(=O)O)O[C@H]1C(O)[C@H](O)CNC(=O)OCc1cn([C@@H](C)C(=O)O)nn1
 SMILES IDX 21 1 22 2 23 3 20 5 18 6 16 7 15 8 9 9 8 10 14 11 6 12 5 13
 SMILES IDX 10 14 11 16 12 17 13 18 7 20 4 22 2 23 1 25 3 26 17 27 19 29
 SMILES IDX 24 31 25 32 26 33 27 34 35 35 28 36 34 37 29 38 30 39 31 40
 SMILES IDX 32 41 33 42
 H PARENT 21 4 10 15 13 19 7 21 4 24 17 28 19 30 33 43
 Flexibility Score: inf
  4 active torsions:
  status: ('A' for Active; 'I' for Inactive)
    1  A    between atoms: CA   and  CB  
    2  A    between atoms: CB   and  CG  
    3  A    between atoms: CG   and  CD  
    4  A    between atoms: CD   and  CE  

>  <TORSDO>
F 17

>  <BEGIN_>
RES LYS A 131

$$$$
ligand_35_pose_11_2HRL.pdbqt
 OpenBabel07062320523D

  6  5  0  0  0  0  0  0  0  0999 V2000
   33.1930   34.6630    9.2900 C   0  0  0  0  0  0  0  0  0  0  0  0
   32.0600   35.3600   10.0340 C   0  0  0  0  0  0  0  0  0  0  0  0
   30.7930   35.4800    9.2270 C   0  0  0  0  0  0  0  0  0  0  0  0
   30.2540   34.1050    8.8670 C   0  0  0  0  0  0  0  0  0  0  0  0
   28.8070   33.9700    9.3010 C   0  0  0  0  0  0  0  0  0  0  0  0
   27.8900   34.6160    8.3220 N   0  0  0  0  0  0  0  0  0  0  0  0
  1  2  1  0  0  0  0
  3  2  1  0  0  0  0
  4  3  1  0  0  0  0
  4  5  1  0  0  0  0
  6  5  1  0  0  0  0
M  END
>  <EGIN_R>
ES LYS A 135

>  <REMARK>
  4 active torsions:
  status: ('A' for Active; 'I' for Inactive)
    5  A    between atoms: CA   and  CB  
    6  A    between atoms: CB   and  CG  
    7  A    between atoms: CG   and  CD  
    8  A    between atoms: CD   and  CE  

$$$$
