ligand_31_pose_2_2HRL.pdbqt
 OpenBabel07062320523D

 57 58  0  0  1  0  0  0  0  0999 V2000
   31.3000   34.6940   19.7130 O   0  0  0  0  0  0  0  0  0  0  0  0
   31.2550   34.6550   18.3240 C   0  0  0  0  0  0  0  0  0  0  0  0
   31.6470   33.5550   17.5470 N   0  0  0  0  0  0  0  0  0  0  0  0
   31.9950   32.7010   18.0050 H   0  0  0  0  0  0  0  0  0  0  0  0
   30.8330   35.6830   17.7310 O   0  0  0  0  0  0  0  0  0  0  0  0
   31.5580   33.6220   16.0850 C   0  0  0  0  0  0  0  0  0  0  0  0
   30.9790   32.3300   15.5740 C   0  0  2  0  0  0  0  0  0  0  0  0
   29.6220   32.5130   14.9530 C   0  0  1  0  0  0  0  0  0  0  0  0
   28.5030   32.3180   15.9340 C   0  0  2  0  0  0  0  0  0  0  0  0
   26.7140   30.8570   16.2850 C   0  0  2  0  0  0  0  0  0  0  0  0
   25.9680   31.8930   17.0610 C   0  0  0  0  0  0  0  0  0  0  0  0
   27.6470   31.3290   15.4180 O   0  0  0  0  0  0  0  0  0  0  0  0
   26.6640   33.1800   17.2470 C   0  0  1  0  0  0  0  0  0  0  0  0
   27.6110   33.5220   16.1110 C   0  0  1  0  0  0  0  0  0  0  0  0
   25.7330   30.2060   15.4920 O   0  0  0  0  0  0  0  0  0  0  0  0
   25.8540   29.2250   15.5220 H   0  0  0  0  0  0  0  0  0  0  0  0
   27.3150   29.8100   17.1470 C   0  0  0  0  0  0  0  0  0  0  0  0
   27.6570   28.6860   16.6810 O   0  0  0  0  0  0  0  0  0  0  0  0
   27.5380   29.9940   18.5060 O   0  0  0  0  0  0  0  0  0  0  0  0
   28.0580   29.3000   19.0330 H   0  0  0  0  0  0  0  0  0  0  0  0
   25.7190   34.2160   17.4020 O   0  0  0  0  0  0  0  0  0  0  0  0
   25.4230   34.5690   16.5390 H   0  0  0  0  0  0  0  0  0  0  0  0
   28.2750   34.7550   16.3620 N   0  0  0  0  0  0  0  0  0  0  0  0
   27.7780   35.9430   15.7430 C   0  0  0  0  0  0  0  0  0  0  0  0
   29.1070   34.8640   16.9800 H   0  0  0  0  0  0  0  0  0  0  0  0
   28.3970   37.2720   15.9410 C   0  0  0  0  0  0  0  0  0  0  0  0
   26.7640   35.8800   14.9890 O   0  0  0  0  0  0  0  0  0  0  0  0
   29.5120   33.6600   14.1880 O   0  0  0  0  0  0  0  0  0  0  0  0
   30.2870   34.2700   14.2660 H   0  0  0  0  0  0  0  0  0  0  0  0
   30.7550   31.5330   16.7300 O   0  0  0  0  0  0  0  0  0  0  0  0
   31.4780   31.8270   17.3650 H   0  0  0  0  0  0  0  0  0  0  0  0
   30.3490   34.0080   20.5000 C   0  0  0  0  0  0  0  0  0  0  0  0
   30.4730   32.5610   20.2190 C   0  0  0  0  0  0  0  0  0  0  0  0
   31.3640   31.6850   20.7770 C   0  0  0  0  0  0  0  0  0  0  0  0
   29.7240   31.8540   19.3590 N   0  0  0  0  0  0  0  0  0  0  0  0
   31.1320   30.4730   20.2430 N   0  0  0  0  0  0  0  0  0  0  0  0
   30.1340   30.5790   19.3810 N   0  0  0  0  0  0  0  0  0  0  0  0
   31.8430   29.2260   20.5410 C   0  0  0  0  0  0  0  0  0  0  0  0
   30.8610   28.2910   21.1950 C   0  0  0  0  0  0  0  0  0  0  0  0
   29.9360   27.7990   20.2060 N   0  0  0  0  0  0  0  0  0  0  0  0
   28.6290   27.3400   20.4940 C   0  0  0  0  0  0  0  0  0  0  0  0
   30.2260   27.7680   19.1880 H   0  0  0  0  0  0  0  0  0  0  0  0
   28.2390   27.3620   21.7000 O   0  0  0  0  0  0  0  0  0  0  0  0
   27.7940   26.8710   19.4480 N   0  0  0  0  0  0  0  0  0  0  0  0
   28.0870   26.8420   18.4550 H   0  0  0  0  0  0  0  0  0  0  0  0
   26.4640   26.4100   19.7820 C   0  0  0  0  0  0  0  0  0  0  0  0
   25.4830   27.3580   19.2110 C   0  0  0  0  0  0  0  0  0  0  0  0
   24.7820   27.1320   18.0320 C   0  0  0  0  0  0  0  0  0  0  0  0
   25.1290   28.5070   19.6930 O   0  0  0  0  0  0  0  0  0  0  0  0
   23.9860   28.2430   17.8600 C   0  0  0  0  0  0  0  0  0  0  0  0
   24.2440   29.0730   18.9310 C   0  0  0  0  0  0  0  0  0  0  0  0
   29.8670   25.5550   16.9770 C   0  0  0  0  0  0  0  0  0  0  0  0
   28.3450   25.7220   17.0260 C   0  0  0  0  0  0  0  0  0  0  0  0
   27.5990   24.4890   16.5400 C   0  0  0  0  0  0  0  0  0  0  0  0
   27.0220   23.6920   17.6770 C   0  0  0  0  0  0  0  0  0  0  0  0
   25.5150   23.5490   17.4850 C   0  0  0  0  0  0  0  0  0  0  0  0
   25.1150   22.1240   17.5560 N   0  0  0  0  0  0  0  0  0  0  0  0
  1 32  1  0  0  0  0
  2  1  1  0  0  0  0
  3  4  1  0  0  0  0
  3  2  1  0  0  0  0
  5  2  2  0  0  0  0
  6  3  1  0  0  0  0
  7  6  1  1  0  0  0
  7 30  1  0  0  0  0
  8 28  1  1  0  0  0
  8  7  1  0  0  0  0
  9  8  1  6  0  0  0
  9 14  1  0  0  0  0
 10 15  1  6  0  0  0
 10 11  1  0  0  0  0
 10 17  1  0  0  0  0
 11 13  1  0  0  0  0
 12  9  1  0  0  0  0
 12 10  1  0  0  0  0
 13 21  1  6  0  0  0
 14 23  1  1  0  0  0
 14 13  1  0  0  0  0
 15 16  1  0  0  0  0
 17 19  1  0  0  0  0
 18 17  2  0  0  0  0
 19 20  1  0  0  0  0
 22 21  1  0  0  0  0
 23 25  1  0  0  0  0
 24 26  1  0  0  0  0
 24 23  1  0  0  0  0
 27 24  2  0  0  0  0
 28 29  1  0  0  0  0
 30 31  1  0  0  0  0
 33 32  1  0  0  0  0
 33 34  2  0  0  0  0
 35 37  2  0  0  0  0
 35 33  1  0  0  0  0
 36 38  1  0  0  0  0
 36 34  1  0  0  0  0
 37 36  1  0  0  0  0
 38 39  1  0  0  0  0
 40 41  1  0  0  0  0
 40 39  1  0  0  0  0
 41 43  2  0  0  0  0
 42 40  1  0  0  0  0
 44 46  1  0  0  0  0
 44 41  1  0  0  0  0
 45 44  1  0  0  0  0
 47 49  1  0  0  0  0
 47 46  1  0  0  0  0
 48 47  2  0  0  0  0
 50 48  1  0  0  0  0
 50 51  2  0  0  0  0
 51 49  1  0  0  0  0
 52 53  1  0  0  0  0
 54 53  1  0  0  0  0
 54 55  1  0  0  0  0
 56 57  1  0  0  0  0
 56 55  1  0  0  0  0
M  END
>  <REMARK>
 VINA RESULT:    -5.230      2.586      6.161
 INTER + INTRA:         -16.183
 INTER:                  -7.632
 INTRA:                  -8.551
 UNBOUND:                -5.909
 SMILES CC(=O)N[C@@H]1[C@@H](O)C[C@](O)(C(=O)O)O[C@H]1C(O)[C@H](O)CNC(=O)OCc1cn(CCNC(=O)NCc2ccco2)nn1
 SMILES IDX 24 1 22 2 21 3 23 5 20 6 18 7 16 8 15 9 9 10 8 11 14 12 6 13
 SMILES IDX 5 14 10 15 11 17 12 18 13 19 7 21 4 23 2 24 1 26 3 27 17 28
 SMILES IDX 19 30 25 32 26 33 27 34 42 35 28 36 41 37 29 38 30 39 31 40
 SMILES IDX 32 41 33 43 34 44 35 46 36 47 37 48 40 49 38 50 39 51
 H PARENT 21 4 10 16 13 20 7 22 4 25 17 29 19 31 31 42 34 45
 Flexibility Score: inf
  4 active torsions:
  status: ('A' for Active; 'I' for Inactive)
    1  A    between atoms: CA   and  CB  
    2  A    between atoms: CB   and  CG  
    3  A    between atoms: CG   and  CD  
    4  A    between atoms: CD   and  CE  

>  <TORSDO>
F 19

>  <BEGIN_>
RES LYS A 131

$$$$
ligand_31_pose_2_2HRL.pdbqt
 OpenBabel07062320523D

  6  5  0  0  0  0  0  0  0  0999 V2000
   33.1930   34.6630    9.2900 C   0  0  0  0  0  0  0  0  0  0  0  0
   32.0600   35.3600   10.0340 C   0  0  0  0  0  0  0  0  0  0  0  0
   30.7470   34.6230    9.9600 C   0  0  0  0  0  0  0  0  0  0  0  0
   30.3030   34.4630    8.5140 C   0  0  0  0  0  0  0  0  0  0  0  0
   28.7980   34.6130    8.3990 C   0  0  0  0  0  0  0  0  0  0  0  0
   28.0970   33.7830    9.4180 N   0  0  0  0  0  0  0  0  0  0  0  0
  1  2  1  0  0  0  0
  3  2  1  0  0  0  0
  4  3  1  0  0  0  0
  5  4  1  0  0  0  0
  5  6  1  0  0  0  0
M  END
>  <EGIN_R>
ES LYS A 135

>  <REMARK>
  4 active torsions:
  status: ('A' for Active; 'I' for Inactive)
    5  A    between atoms: CA   and  CB  
    6  A    between atoms: CB   and  CG  
    7  A    between atoms: CG   and  CD  
    8  A    between atoms: CD   and  CE  

$$$$
