ligand_32_pose_1_2HRL.pdbqt
 OpenBabel07062320523D

 49 49  0  0  1  0  0  0  0  0999 V2000
   32.3460   34.7300   15.9290 N   0  0  0  0  0  0  0  0  0  0  0  0
   32.1510   36.1190   15.7220 C   0  0  0  0  0  0  0  0  0  0  0  0
   31.5720   36.8380   16.5910 O   0  0  0  0  0  0  0  0  0  0  0  0
   32.8260   34.1750   15.1940 H   0  0  0  0  0  0  0  0  0  0  0  0
   31.8930   34.0690   17.1290 C   0  0  0  0  0  0  0  0  0  0  0  0
   30.5510   33.4040   16.9860 C   0  0  2  0  0  0  0  0  0  0  0  0
   30.6900   32.0270   16.3390 C   0  0  1  0  0  0  0  0  0  0  0  0
   29.3560   31.3010   16.3790 C   0  0  2  0  0  0  0  0  0  0  0  0
   27.1160   31.9440   16.2380 C   0  0  2  0  0  0  0  0  0  0  0  0
   26.7060   30.6450   16.8730 C   0  0  0  0  0  0  0  0  0  0  0  0
   28.3750   31.9250   15.6800 O   0  0  0  0  0  0  0  0  0  0  0  0
   27.7880   29.9300   17.6010 C   0  0  1  0  0  0  0  0  0  0  0  0
   28.9510   30.9180   17.7790 C   0  0  1  0  0  0  0  0  0  0  0  0
   26.9570   32.9600   17.1740 O   0  0  0  0  0  0  0  0  0  0  0  0
   27.5020   32.6880   17.9640 H   0  0  0  0  0  0  0  0  0  0  0  0
   26.1600   32.1950   15.1340 C   0  0  0  0  0  0  0  0  0  0  0  0
   26.0540   33.2930   14.5470 O   0  0  0  0  0  0  0  0  0  0  0  0
   25.3300   31.1710   14.7160 O   0  0  0  0  0  0  0  0  0  0  0  0
   25.6690   30.2900   14.3490 H   0  0  0  0  0  0  0  0  0  0  0  0
   27.3820   29.4280   18.8340 O   0  0  0  0  0  0  0  0  0  0  0  0
   28.0820   28.8580   19.2570 H   0  0  0  0  0  0  0  0  0  0  0  0
   30.0390   30.2890   18.5010 N   0  0  0  0  0  0  0  0  0  0  0  0
   30.4010   30.7450   19.7990 C   0  0  0  0  0  0  0  0  0  0  0  0
   30.5900   29.4930   18.1010 H   0  0  0  0  0  0  0  0  0  0  0  0
   31.5210   30.1240   20.5840 C   0  0  0  0  0  0  0  0  0  0  0  0
   29.7690   31.7100   20.3360 O   0  0  0  0  0  0  0  0  0  0  0  0
   31.0660   32.2120   15.0110 O   0  0  0  0  0  0  0  0  0  0  0  0
   31.9760   31.8540   14.8210 H   0  0  0  0  0  0  0  0  0  0  0  0
   29.7620   34.2380   16.1910 O   0  0  0  0  0  0  0  0  0  0  0  0
   29.4560   35.0030   16.7390 H   0  0  0  0  0  0  0  0  0  0  0  0
   32.6020   36.6940   14.5560 O   0  0  0  0  0  0  0  0  0  0  0  0
   32.3570   36.1490   13.2710 C   0  0  0  0  0  0  0  0  0  0  0  0
   30.9370   35.6690   13.1760 C   0  0  0  0  0  0  0  0  0  0  0  0
   29.8240   36.4270   12.9250 C   0  0  0  0  0  0  0  0  0  0  0  0
   30.5370   34.3920   13.3360 N   0  0  0  0  0  0  0  0  0  0  0  0
   28.7600   35.5880   12.9360 N   0  0  0  0  0  0  0  0  0  0  0  0
   29.2230   34.3700   13.1860 N   0  0  0  0  0  0  0  0  0  0  0  0
   27.3940   36.0060   12.7060 C   0  0  0  0  0  0  0  0  0  0  0  0
   27.1320   35.9310   11.2040 C   0  0  0  0  0  0  0  0  0  0  0  0
   26.6950   34.5310   10.9170 C   0  0  0  0  0  0  0  0  0  0  0  0
   27.1850   33.8410   10.0140 O   0  0  0  0  0  0  0  0  0  0  0  0
   25.6840   34.0170   11.7290 O   0  0  0  0  0  0  0  0  0  0  0  0
   24.7220   34.3230   11.5900 H   0  0  0  0  0  0  0  0  0  0  0  0
   29.8670   25.5550   16.9770 C   0  0  0  0  0  0  0  0  0  0  0  0
   28.3450   25.7220   17.0260 C   0  0  0  0  0  0  0  0  0  0  0  0
   27.6020   24.4000   16.9160 C   0  0  0  0  0  0  0  0  0  0  0  0
   26.5270   24.2660   17.9590 C   0  0  0  0  0  0  0  0  0  0  0  0
   25.2300   23.8100   17.2980 C   0  0  0  0  0  0  0  0  0  0  0  0
   24.1470   24.7900   17.5490 N   0  0  0  0  0  0  0  0  0  0  0  0
  1  5  1  0  0  0  0
  2  1  1  0  0  0  0
  2  3  2  0  0  0  0
  4  1  1  0  0  0  0
  6  5  1  6  0  0  0
  7 27  1  6  0  0  0
  7  6  1  0  0  0  0
  8  7  1  1  0  0  0
  8 13  1  0  0  0  0
  9 16  1  6  0  0  0
  9 10  1  0  0  0  0
  9 14  1  0  0  0  0
 10 12  1  0  0  0  0
 11  9  1  0  0  0  0
 11  8  1  0  0  0  0
 12 13  1  0  0  0  0
 12 20  1  1  0  0  0
 13 22  1  6  0  0  0
 14 15  1  0  0  0  0
 17 16  2  0  0  0  0
 18 16  1  0  0  0  0
 19 18  1  0  0  0  0
 20 21  1  0  0  0  0
 22 23  1  0  0  0  0
 23 26  2  0  0  0  0
 23 25  1  0  0  0  0
 24 22  1  0  0  0  0
 28 27  1  0  0  0  0
 29 30  1  0  0  0  0
 29  6  1  0  0  0  0
 31  2  1  0  0  0  0
 32 31  1  0  0  0  0
 33 32  1  0  0  0  0
 33 35  1  0  0  0  0
 34 36  1  0  0  0  0
 34 33  2  0  0  0  0
 36 37  1  0  0  0  0
 37 35  2  0  0  0  0
 38 36  1  0  0  0  0
 39 38  1  0  0  0  0
 40 39  1  0  0  0  0
 40 42  1  0  0  0  0
 41 40  2  0  0  0  0
 43 42  1  0  0  0  0
 44 45  1  0  0  0  0
 46 45  1  0  0  0  0
 46 47  1  0  0  0  0
 48 49  1  0  0  0  0
 48 47  1  0  0  0  0
M  END
>  <REMARK>
 VINA RESULT:    -4.523      3.292      5.468
 INTER + INTRA:         -14.132
 INTER:                  -7.937
 INTRA:                  -6.195
 UNBOUND:                -5.644
 SMILES CC(=O)N[C@@H]1[C@@H](O)C[C@](O)(C(=O)O)O[C@H]1C(O)[C@H](O)CNC(=O)OCc1cn(CCC(=O)O)nn1
 SMILES IDX 21 1 22 2 23 3 20 5 18 6 16 7 15 8 9 9 8 10 14 11 6 12 5 13
 SMILES IDX 10 14 11 16 12 17 13 18 7 20 4 22 2 23 1 25 3 26 17 27 19 29
 SMILES IDX 24 31 25 32 26 33 27 34 35 35 28 36 34 37 29 38 30 39 31 40
 SMILES IDX 32 41 33 42
 H PARENT 21 4 10 15 13 19 7 21 4 24 17 28 19 30 33 43
 Flexibility Score: inf
  4 active torsions:
  status: ('A' for Active; 'I' for Inactive)
    1  A    between atoms: CA   and  CB  
    2  A    between atoms: CB   and  CG  
    3  A    between atoms: CG   and  CD  
    4  A    between atoms: CD   and  CE  

>  <TORSDO>
F 18

>  <BEGIN_>
RES LYS A 131

$$$$
ligand_32_pose_1_2HRL.pdbqt
 OpenBabel07062320523D

  6  5  0  0  0  0  0  0  0  0999 V2000
   33.1930   34.6630    9.2900 C   0  0  0  0  0  0  0  0  0  0  0  0
   32.0600   35.3600   10.0340 C   0  0  0  0  0  0  0  0  0  0  0  0
   30.6930   34.8350    9.6780 C   0  0  0  0  0  0  0  0  0  0  0  0
   29.9910   35.7780    8.7120 C   0  0  0  0  0  0  0  0  0  0  0  0
   29.4000   35.0040    7.5490 C   0  0  0  0  0  0  0  0  0  0  0  0
   28.0790   35.5630    7.1500 N   0  0  0  0  0  0  0  0  0  0  0  0
  1  2  1  0  0  0  0
  3  2  1  0  0  0  0
  4  3  1  0  0  0  0
  5  4  1  0  0  0  0
  6  5  1  0  0  0  0
M  END
>  <EGIN_R>
ES LYS A 135

>  <REMARK>
  4 active torsions:
  status: ('A' for Active; 'I' for Inactive)
    5  A    between atoms: CA   and  CB  
    6  A    between atoms: CB   and  CG  
    7  A    between atoms: CG   and  CD  
    8  A    between atoms: CD   and  CE  

$$$$
