ligand_91_pose_3_2HRL.pdbqt
 OpenBabel07062320523D

 57 60  0  0  1  0  0  0  0  0999 V2000
   21.6460   36.1320    9.3040 C   0  0  0  0  0  0  0  0  0  0  0  0
   22.3980   36.8160    8.1950 C   0  0  2  0  0  0  0  0  0  0  0  0
   22.6160   38.2340    8.6220 C   0  0  2  0  0  0  0  0  0  0  0  0
   24.0670   38.6860    8.5480 C   0  0  2  0  0  0  0  0  0  0  0  0
   25.9370   38.2590    7.3430 C   0  0  2  0  0  0  0  0  0  0  0  0
   26.8400   38.0020    8.5210 C   0  0  0  0  0  0  0  0  0  0  0  0
   24.6470   37.9140    7.5800 O   0  0  0  0  0  0  0  0  0  0  0  0
   26.0860   37.8310    9.8070 C   0  0  1  0  0  0  0  0  0  0  0  0
   24.7730   38.5380    9.8450 C   0  0  1  0  0  0  0  0  0  0  0  0
   26.3580   37.3990    6.2740 O   0  0  0  0  0  0  0  0  0  0  0  0
   27.0800   37.8400    5.7660 H   0  0  0  0  0  0  0  0  0  0  0  0
   26.1600   39.6250    6.8110 C   0  0  0  0  0  0  0  0  0  0  0  0
   26.9300   40.4450    7.3780 O   0  0  0  0  0  0  0  0  0  0  0  0
   25.5300   40.0930    5.6460 O   0  0  0  0  0  0  0  0  0  0  0  0
   25.6270   41.0630    5.3900 H   0  0  0  0  0  0  0  0  0  0  0  0
   25.9280   36.4630   10.0520 O   0  0  0  0  0  0  0  0  0  0  0  0
   25.7340   36.2880   11.0070 H   0  0  0  0  0  0  0  0  0  0  0  0
   24.9410   39.8000   10.5750 N   0  0  0  0  0  0  0  0  0  0  0  0
   24.7530   39.9040   11.9800 C   0  0  0  0  0  0  0  0  0  0  0  0
   25.2100   40.6830   10.0860 H   0  0  0  0  0  0  0  0  0  0  0  0
   24.9330   41.1980   12.7070 C   0  0  0  0  0  0  0  0  0  0  0  0
   24.4270   38.8880   12.6470 O   0  0  0  0  0  0  0  0  0  0  0  0
   22.1870   38.3860    9.9320 O   0  0  0  0  0  0  0  0  0  0  0  0
   22.8840   38.8890   10.4200 H   0  0  0  0  0  0  0  0  0  0  0  0
   21.7130   36.7000    7.0090 O   0  0  0  0  0  0  0  0  0  0  0  0
   21.5440   35.7240    6.8480 H   0  0  0  0  0  0  0  0  0  0  0  0
   22.3580   35.1420   10.0350 N   0  0  0  0  0  0  0  0  0  0  0  0
   22.7640   35.2690   11.3790 C   0  0  0  0  0  0  0  0  0  0  0  0
   22.6370   34.2010    9.5800 H   0  0  0  0  0  0  0  0  0  0  0  0
   22.5280   36.3000   12.0420 O   0  0  0  0  0  0  0  0  0  0  0  0
   23.4530   34.2440   12.0470 O   0  0  0  0  0  0  0  0  0  0  0  0
   24.2630   34.5410   13.1850 C   0  0  0  0  0  0  0  0  0  0  0  0
   25.6760   34.5470   12.7400 C   0  0  0  0  0  0  0  0  0  0  0  0
   26.7590   35.0310   13.4450 C   0  0  0  0  0  0  0  0  0  0  0  0
   26.2090   34.0940   11.5790 N   0  0  0  0  0  0  0  0  0  0  0  0
   27.8820   34.8680   12.7270 N   0  0  0  0  0  0  0  0  0  0  0  0
   27.5270   34.2970   11.5960 N   0  0  0  0  0  0  0  0  0  0  0  0
   29.1980   35.2280   13.0910 C   0  0  0  0  0  0  0  0  0  0  0  0
   29.7600   36.4180   12.6200 C   0  0  0  0  0  0  0  0  0  0  0  0
   29.9730   34.4350   13.9210 C   0  0  0  0  0  0  0  0  0  0  0  0
   29.0390   37.2510   11.7900 C   0  0  0  0  0  0  0  0  0  0  0  0
   31.0220   36.7940   12.9580 C   0  0  0  0  0  0  0  0  0  0  0  0
   31.2490   34.8350   14.2510 C   0  0  0  0  0  0  0  0  0  0  0  0
   29.4210   33.2670   14.3820 C   0  0  0  0  0  0  0  0  0  0  0  0
   29.5480   38.4330   11.2980 C   0  0  0  0  0  0  0  0  0  0  0  0
   31.5490   37.9850   12.4690 C   0  0  0  0  0  0  0  0  0  0  0  0
   31.7440   35.9940   13.7670 N   0  0  0  0  0  0  0  0  0  0  0  0
   31.9820   34.0150   15.0760 C   0  0  0  0  0  0  0  0  0  0  0  0
   30.1910   32.4560   15.2180 C   0  0  0  0  0  0  0  0  0  0  0  0
   30.8460   38.8300   11.6400 C   0  0  0  0  0  0  0  0  0  0  0  0
   31.4720   32.8160   15.5730 C   0  0  0  0  0  0  0  0  0  0  0  0
   29.8670   25.5550   16.9770 C   0  0  0  0  0  0  0  0  0  0  0  0
   28.3450   25.7220   17.0260 C   0  0  0  0  0  0  0  0  0  0  0  0
   27.6020   24.3980   16.9290 C   0  0  0  0  0  0  0  0  0  0  0  0
   26.1470   24.5380   17.2830 C   0  0  0  0  0  0  0  0  0  0  0  0
   25.9300   24.0940   18.7260 C   0  0  0  0  0  0  0  0  0  0  0  0
   25.7610   25.2700   19.6110 N   0  0  0  0  0  0  0  0  0  0  0  0
  1 27  1  0  0  0  0
  2  3  1  0  0  0  0
  2  1  1  1  0  0  0
  3 23  1  1  0  0  0
  4  3  1  1  0  0  0
  4  9  1  0  0  0  0
  5 10  1  6  0  0  0
  5  7  1  0  0  0  0
  5  6  1  0  0  0  0
  6  8  1  0  0  0  0
  7  4  1  0  0  0  0
  8  9  1  0  0  0  0
  8 16  1  6  0  0  0
  9 18  1  6  0  0  0
 11 10  1  0  0  0  0
 12  5  1  0  0  0  0
 12 13  2  0  0  0  0
 14 12  1  0  0  0  0
 15 14  1  0  0  0  0
 16 17  1  0  0  0  0
 18 19  1  0  0  0  0
 19 22  2  0  0  0  0
 19 21  1  0  0  0  0
 20 18  1  0  0  0  0
 23 24  1  0  0  0  0
 25  2  1  0  0  0  0
 26 25  1  0  0  0  0
 27 28  1  0  0  0  0
 28 30  2  0  0  0  0
 28 31  1  0  0  0  0
 29 27  1  0  0  0  0
 31 32  1  0  0  0  0
 33 32  1  0  0  0  0
 33 34  2  0  0  0  0
 35 37  2  0  0  0  0
 35 33  1  0  0  0  0
 36 38  1  0  0  0  0
 36 34  1  0  0  0  0
 37 36  1  0  0  0  0
 38 40  2  0  0  0  0
 39 42  1  0  0  0  0
 39 38  1  0  0  0  0
 40 43  1  0  0  0  0
 40 44  1  0  0  0  0
 41 39  2  0  0  0  0
 42 47  1  0  0  0  0
 43 48  1  0  0  0  0
 44 49  2  0  0  0  0
 45 50  2  0  0  0  0
 45 41  1  0  0  0  0
 46 42  2  0  0  0  0
 47 43  2  0  0  0  0
 48 51  2  0  0  0  0
 49 51  1  0  0  0  0
 50 46  1  0  0  0  0
 52 53  1  0  0  0  0
 54 53  1  0  0  0  0
 54 55  1  0  0  0  0
 55 56  1  0  0  0  0
 56 57  1  0  0  0  0
M  END
>  <REMARK>
 VINA RESULT:    -5.861      1.939      3.613
 INTER + INTRA:         -16.227
 INTER:                  -9.510
 INTRA:                  -6.716
 UNBOUND:                -6.084
 SMILES CC(=O)N[C@@H]1[C@@H](O)C[C@](O)(C(=O)O)O[C@H]1C(O)[C@H](O)CNC(=O)OCc1cn(-c2c3ccccc3nc3ccccc23)nn1
 SMILES IDX 20 1 18 2 16 3 15 4 9 5 8 6 14 7 6 8 5 9 10 10 11 12 12 13
 SMILES IDX 13 14 7 16 4 18 2 19 1 21 3 22 17 23 19 25 21 27 22 28 23 30
 SMILES IDX 24 31 25 32 26 33 27 34 44 35 28 36 43 37 29 38 30 39 42 40
 SMILES IDX 31 41 35 42 37 43 41 44 32 45 34 46 36 47 38 48 40 49 33 50
 SMILES IDX 39 51
 H PARENT 10 11 13 15 7 17 4 20 17 24 19 26 21 29
 Flexibility Score: inf
  4 active torsions:
  status: ('A' for Active; 'I' for Inactive)
    1  A    between atoms: CA   and  CB  
    2  A    between atoms: CB   and  CG  
    3  A    between atoms: CG   and  CD  
    4  A    between atoms: CD   and  CE  

>  <TORSDO>
F 15

>  <BEGIN_>
RES LYS A 131

$$$$
ligand_91_pose_3_2HRL.pdbqt
 OpenBabel07062320523D

  6  5  0  0  0  0  0  0  0  0999 V2000
   33.1930   34.6630    9.2900 C   0  0  0  0  0  0  0  0  0  0  0  0
   32.0600   35.3600   10.0340 C   0  0  0  0  0  0  0  0  0  0  0  0
   30.8360   35.5940    9.1860 C   0  0  0  0  0  0  0  0  0  0  0  0
   30.1390   34.2780    8.8760 C   0  0  0  0  0  0  0  0  0  0  0  0
   28.7530   34.5290    8.3140 C   0  0  0  0  0  0  0  0  0  0  0  0
   28.8220   35.2790    7.0290 N   0  0  0  0  0  0  0  0  0  0  0  0
  1  2  1  0  0  0  0
  3  2  1  0  0  0  0
  4  3  1  0  0  0  0
  5  4  1  0  0  0  0
  6  5  1  0  0  0  0
M  END
>  <EGIN_R>
ES LYS A 135

>  <REMARK>
  4 active torsions:
  status: ('A' for Active; 'I' for Inactive)
    5  A    between atoms: CA   and  CB  
    6  A    between atoms: CB   and  CG  
    7  A    between atoms: CG   and  CD  
    8  A    between atoms: CD   and  CE  

$$$$
