ligand_81_pose_15_2HRL.pdbqt
 OpenBabel07062320523D

 63 65  0  0  1  0  0  0  0  0999 V2000
   31.9550   31.6090   23.6620 O   0  0  0  0  0  0  0  0  0  0  0  0
   31.6610   30.2990   23.3550 C   0  0  0  0  0  0  0  0  0  0  0  0
   32.4080   29.5690   22.3580 N   0  0  0  0  0  0  0  0  0  0  0  0
   33.1670   30.1150   21.9040 H   0  0  0  0  0  0  0  0  0  0  0  0
   30.7160   29.7430   23.9690 O   0  0  0  0  0  0  0  0  0  0  0  0
   32.0570   28.1970   22.0760 C   0  0  0  0  0  0  0  0  0  0  0  0
   31.3530   28.1680   20.7260 C   0  0  2  0  0  0  0  0  0  0  0  0
   30.0470   27.4420   20.9400 C   0  0  2  0  0  0  0  0  0  0  0  0
   28.9250   28.2950   21.4470 C   0  0  2  0  0  0  0  0  0  0  0  0
   27.2790   27.3430   20.0780 C   0  0  2  0  0  0  0  0  0  0  0  0
   27.4860   28.5240   19.1440 C   0  0  0  0  0  0  0  0  0  0  0  0
   27.7610   27.5720   21.3340 O   0  0  0  0  0  0  0  0  0  0  0  0
   27.6040   29.7780   19.9870 C   0  0  1  0  0  0  0  0  0  0  0  0
   28.8400   29.6730   20.9020 C   0  0  1  0  0  0  0  0  0  0  0  0
   27.8880   26.2520   19.4470 O   0  0  0  0  0  0  0  0  0  0  0  0
   27.4900   26.0600   18.5690 H   0  0  0  0  0  0  0  0  0  0  0  0
   25.8410   27.0300   20.2030 C   0  0  0  0  0  0  0  0  0  0  0  0
   25.2880   26.3300   19.3340 O   0  0  0  0  0  0  0  0  0  0  0  0
   25.1180   27.5040   21.2660 O   0  0  0  0  0  0  0  0  0  0  0  0
   24.8720   28.4760   21.4110 H   0  0  0  0  0  0  0  0  0  0  0  0
   27.6590   30.9030   19.1980 O   0  0  0  0  0  0  0  0  0  0  0  0
   26.7730   31.1510   18.8590 H   0  0  0  0  0  0  0  0  0  0  0  0
   28.6030   30.6780   21.9480 N   0  0  0  0  0  0  0  0  0  0  0  0
   27.2960   30.8590   22.4600 C   0  0  0  0  0  0  0  0  0  0  0  0
   29.3820   31.2620   22.3220 H   0  0  0  0  0  0  0  0  0  0  0  0
   26.9830   31.8630   23.5240 C   0  0  0  0  0  0  0  0  0  0  0  0
   26.3790   30.1340   21.9840 O   0  0  0  0  0  0  0  0  0  0  0  0
   30.3470   26.5670   22.0360 O   0  0  0  0  0  0  0  0  0  0  0  0
   29.6570   26.6490   22.7230 H   0  0  0  0  0  0  0  0  0  0  0  0
   32.2200   27.5330   19.8510 O   0  0  0  0  0  0  0  0  0  0  0  0
   32.5980   28.1530   19.1910 H   0  0  0  0  0  0  0  0  0  0  0  0
   32.4550   32.5720   22.7610 C   0  0  0  0  0  0  0  0  0  0  0  0
   31.5370   32.6820   21.5830 C   0  0  0  0  0  0  0  0  0  0  0  0
   31.7920   32.3430   20.2770 C   0  0  0  0  0  0  0  0  0  0  0  0
   30.2690   33.1470   21.5900 N   0  0  0  0  0  0  0  0  0  0  0  0
   30.6890   32.6010   19.5100 N   0  0  0  0  0  0  0  0  0  0  0  0
   29.7940   33.0870   20.3610 N   0  0  0  0  0  0  0  0  0  0  0  0
   30.5650   32.4030   18.1130 C   0  0  0  0  0  0  0  0  0  0  0  0
   29.9530   31.3200   17.6140 N   0  0  0  0  0  0  0  0  0  0  0  0
   31.1050   33.3270   17.2100 C   0  0  0  0  0  0  0  0  0  0  0  0
   29.8550   31.1130   16.2770 C   0  0  0  0  0  0  0  0  0  0  0  0
   31.0110   33.1190   15.8630 C   0  0  0  0  0  0  0  0  0  0  0  0
   30.3690   31.9850   15.4030 N   0  0  0  0  0  0  0  0  0  0  0  0
   31.8090   34.5070   17.7510 C   0  0  0  0  0  0  0  0  0  0  0  0
   31.0260   35.7890   17.7070 C   0  0  0  0  0  0  0  0  0  0  0  0
   29.6910   35.6030   17.9380 O   0  0  0  0  0  0  0  0  0  0  0  0
   28.8740   36.0400   16.9210 C   0  0  0  0  0  0  0  0  0  0  0  0
   27.8230   35.0110   16.5630 C   0  0  0  0  0  0  0  0  0  0  0  0
   29.2000   29.9560   15.7960 N   0  0  0  0  0  0  0  0  0  0  0  0
   29.6590   29.0300   15.8670 H   0  0  0  0  0  0  0  0  0  0  0  0
   28.2580   29.9980   15.3650 H   0  0  0  0  0  0  0  0  0  0  0  0
   31.6480   33.9770   14.8830 C   0  0  0  0  0  0  0  0  0  0  0  0
   32.9540   34.2740   14.7470 C   0  0  0  0  0  0  0  0  0  0  0  0
   30.7720   34.5560   13.9360 C   0  0  0  0  0  0  0  0  0  0  0  0
   33.4050   35.1150   13.7110 C   0  0  0  0  0  0  0  0  0  0  0  0
   31.1970   35.3740   12.9270 C   0  0  0  0  0  0  0  0  0  0  0  0
   32.5430   35.6710   12.7970 C   0  0  0  0  0  0  0  0  0  0  0  0
   29.8670   25.5550   16.9770 C   0  0  0  0  0  0  0  0  0  0  0  0
   28.3450   25.7220   17.0260 C   0  0  0  0  0  0  0  0  0  0  0  0
   27.5990   24.4920   16.5300 C   0  0  0  0  0  0  0  0  0  0  0  0
   27.0020   23.6990   17.6590 C   0  0  0  0  0  0  0  0  0  0  0  0
   25.5040   23.5310   17.4260 C   0  0  0  0  0  0  0  0  0  0  0  0
   25.1060   22.1160   17.6140 N   0  0  0  0  0  0  0  0  0  0  0  0
  2  1  1  0  0  0  0
  2  5  2  0  0  0  0
  3  2  1  0  0  0  0
  4  3  1  0  0  0  0
  6  3  1  0  0  0  0
  7  8  1  0  0  0  0
  7  6  1  1  0  0  0
  8 28  1  1  0  0  0
  9  8  1  6  0  0  0
 10 15  1  6  0  0  0
 10 17  1  0  0  0  0
 10 12  1  0  0  0  0
 11 13  1  0  0  0  0
 11 10  1  0  0  0  0
 12  9  1  0  0  0  0
 13 21  1  6  0  0  0
 13 14  1  0  0  0  0
 14  9  1  0  0  0  0
 14 23  1  1  0  0  0
 16 15  1  0  0  0  0
 17 19  1  0  0  0  0
 18 17  2  0  0  0  0
 19 20  1  0  0  0  0
 22 21  1  0  0  0  0
 23 25  1  0  0  0  0
 23 24  1  0  0  0  0
 24 26  1  0  0  0  0
 27 24  2  0  0  0  0
 28 29  1  0  0  0  0
 30  7  1  0  0  0  0
 31 30  1  0  0  0  0
 32  1  1  0  0  0  0
 33 35  1  0  0  0  0
 33 32  1  0  0  0  0
 34 33  2  0  0  0  0
 36 34  1  0  0  0  0
 36 37  1  0  0  0  0
 37 35  2  0  0  0  0
 38 36  1  0  0  0  0
 39 38  1  0  0  0  0
 40 44  1  0  0  0  0
 40 38  2  0  0  0  0
 41 39  2  0  0  0  0
 42 40  1  0  0  0  0
 43 42  2  0  0  0  0
 43 41  1  0  0  0  0
 45 44  1  0  0  0  0
 45 46  1  0  0  0  0
 47 46  1  0  0  0  0
 48 47  1  0  0  0  0
 49 50  1  0  0  0  0
 49 41  1  0  0  0  0
 51 49  1  0  0  0  0
 52 42  1  0  0  0  0
 53 52  1  0  0  0  0
 54 52  2  0  0  0  0
 55 53  2  0  0  0  0
 56 54  1  0  0  0  0
 57 56  2  0  0  0  0
 57 55  1  0  0  0  0
 58 59  1  0  0  0  0
 60 59  1  0  0  0  0
 60 61  1  0  0  0  0
 62 63  1  0  0  0  0
 62 61  1  0  0  0  0
M  END
>  <REMARK>
 VINA RESULT:    -4.627      6.859     11.453
 INTER + INTRA:         -16.668
 INTER:                  -9.997
 INTRA:                  -6.672
 UNBOUND:                -7.171
 SMILES CCOCCc1c(-c2ccccc2)nc(N)nc1-n1cc(COC(=O)NC[C@@H](O)C(O)[C@@H]2O[C@@](O)(C(=O)O)C[C@H](O)[C@H]2NC(C)=O)nn1
 SMILES IDX 23 1 24 2 26 3 25 5 27 6 28 7 30 8 32 9 34 10 39 11 33 12
 SMILES IDX 40 13 42 14 35 15 36 17 37 18 38 19 41 21 43 23 44 24 45 26
 SMILES IDX 46 27 31 28 29 30 22 32 21 33 20 34 47 35 19 36 48 37 18 38
 SMILES IDX 17 39 6 40 15 41 7 42 14 43 5 44 4 45 3 46 2 47 1 48 16 49
 SMILES IDX 8 52 9 53 13 54 10 55 12 56 11 57
 H PARENT 26 4 35 16 38 20 41 22 43 25 31 29 29 31 16 50 16 51
 Flexibility Score: inf
  4 active torsions:
  status: ('A' for Active; 'I' for Inactive)
    1  A    between atoms: CA   and  CB  
    2  A    between atoms: CB   and  CG  
    3  A    between atoms: CG   and  CD  
    4  A    between atoms: CD   and  CE  

>  <TORSDO>
F 21

>  <BEGIN_>
RES LYS A 131

$$$$
ligand_81_pose_15_2HRL.pdbqt
 OpenBabel07062320523D

  6  5  0  0  0  0  0  0  0  0999 V2000
   33.1930   34.6630    9.2900 C   0  0  0  0  0  0  0  0  0  0  0  0
   32.0600   35.3600   10.0340 C   0  0  0  0  0  0  0  0  0  0  0  0
   30.7830   35.4490    9.2400 C   0  0  0  0  0  0  0  0  0  0  0  0
   30.2190   34.0620    8.9730 C   0  0  0  0  0  0  0  0  0  0  0  0
   28.7320   34.0240    9.2730 C   0  0  0  0  0  0  0  0  0  0  0  0
   28.4600   34.4130   10.6850 N   0  0  0  0  0  0  0  0  0  0  0  0
  1  2  1  0  0  0  0
  3  2  1  0  0  0  0
  4  3  1  0  0  0  0
  4  5  1  0  0  0  0
  5  6  1  0  0  0  0
M  END
>  <EGIN_R>
ES LYS A 135

>  <REMARK>
  4 active torsions:
  status: ('A' for Active; 'I' for Inactive)
    5  A    between atoms: CA   and  CB  
    6  A    between atoms: CB   and  CG  
    7  A    between atoms: CG   and  CD  
    8  A    between atoms: CD   and  CE  

$$$$
