ligand_91_pose_14_2HRL.pdbqt
 OpenBabel07062320523D

 57 60  0  0  1  0  0  0  0  0999 V2000
   33.0210   39.7630    7.7180 C   0  0  0  0  0  0  0  0  0  0  0  0
   34.1810   40.7190    7.6390 C   0  0  2  0  0  0  0  0  0  0  0  0
   35.3740   39.9250    7.2090 C   0  0  2  0  0  0  0  0  0  0  0  0
   36.3540   40.7040    6.3440 C   0  0  2  0  0  0  0  0  0  0  0  0
   36.7730   42.8430    5.7260 C   0  0  2  0  0  0  0  0  0  0  0  0
   36.7950   42.5880    4.2430 C   0  0  0  0  0  0  0  0  0  0  0  0
   35.9410   42.0060    6.3950 O   0  0  0  0  0  0  0  0  0  0  0  0
   36.2500   41.2390    3.8750 C   0  0  1  0  0  0  0  0  0  0  0  0
   36.3920   40.2090    4.9450 C   0  0  1  0  0  0  0  0  0  0  0  0
   36.2260   44.1520    5.9360 O   0  0  0  0  0  0  0  0  0  0  0  0
   36.0430   44.5740    5.0620 H   0  0  0  0  0  0  0  0  0  0  0  0
   38.1560   42.9460    6.2530 C   0  0  0  0  0  0  0  0  0  0  0  0
   38.4030   43.4330    7.3880 O   0  0  0  0  0  0  0  0  0  0  0  0
   39.2750   42.5100    5.5260 O   0  0  0  0  0  0  0  0  0  0  0  0
   39.1940   42.3790    4.5290 H   0  0  0  0  0  0  0  0  0  0  0  0
   34.9130   41.3880    3.4940 O   0  0  0  0  0  0  0  0  0  0  0  0
   34.7000   42.3320    3.2870 H   0  0  0  0  0  0  0  0  0  0  0  0
   37.5630   39.3770    4.6430 N   0  0  0  0  0  0  0  0  0  0  0  0
   37.4510   38.0370    4.1800 C   0  0  0  0  0  0  0  0  0  0  0  0
   38.5350   39.7390    4.7570 H   0  0  0  0  0  0  0  0  0  0  0  0
   38.6560   37.2060    3.8740 C   0  0  0  0  0  0  0  0  0  0  0  0
   36.3150   37.5210    4.0160 O   0  0  0  0  0  0  0  0  0  0  0  0
   34.9500   38.8210    6.4870 O   0  0  0  0  0  0  0  0  0  0  0  0
   34.3730   39.1440    5.7530 H   0  0  0  0  0  0  0  0  0  0  0  0
   34.3540   41.3610    8.8430 O   0  0  0  0  0  0  0  0  0  0  0  0
   35.0450   42.0770    8.7090 H   0  0  0  0  0  0  0  0  0  0  0  0
   31.8480   40.1300    7.0020 N   0  0  0  0  0  0  0  0  0  0  0  0
   31.7360   40.1540    5.5970 C   0  0  0  0  0  0  0  0  0  0  0  0
   30.9440   40.4230    7.5200 H   0  0  0  0  0  0  0  0  0  0  0  0
   32.6950   39.8540    4.8560 O   0  0  0  0  0  0  0  0  0  0  0  0
   30.5410   40.5140    4.9530 O   0  0  0  0  0  0  0  0  0  0  0  0
   29.3440   40.7080    5.7070 C   0  0  0  0  0  0  0  0  0  0  0  0
   28.6760   39.3910    5.8340 C   0  0  0  0  0  0  0  0  0  0  0  0
   28.4140   38.7110    7.0050 C   0  0  0  0  0  0  0  0  0  0  0  0
   28.1880   38.5830    4.8620 N   0  0  0  0  0  0  0  0  0  0  0  0
   27.7950   37.5510    6.7310 N   0  0  0  0  0  0  0  0  0  0  0  0
   27.6680   37.4910    5.4240 N   0  0  0  0  0  0  0  0  0  0  0  0
   27.3560   36.5710    7.6480 C   0  0  0  0  0  0  0  0  0  0  0  0
   28.2540   35.6280    8.1570 C   0  0  0  0  0  0  0  0  0  0  0  0
   26.0410   36.5050    8.0790 C   0  0  0  0  0  0  0  0  0  0  0  0
   29.5760   35.6410    7.7680 C   0  0  0  0  0  0  0  0  0  0  0  0
   27.8610   34.6770    9.0450 C   0  0  0  0  0  0  0  0  0  0  0  0
   25.6650   35.5330    8.9790 C   0  0  0  0  0  0  0  0  0  0  0  0
   25.1600   37.4290    7.5760 C   0  0  0  0  0  0  0  0  0  0  0  0
   30.5000   34.7340    8.2400 C   0  0  0  0  0  0  0  0  0  0  0  0
   28.7830   33.7550    9.5310 C   0  0  0  0  0  0  0  0  0  0  0  0
   26.5730   34.6460    9.4400 N   0  0  0  0  0  0  0  0  0  0  0  0
   24.3490   35.5050    9.3770 C   0  0  0  0  0  0  0  0  0  0  0  0
   23.8310   37.3750    8.0000 C   0  0  0  0  0  0  0  0  0  0  0  0
   30.1070   33.7510    9.1540 C   0  0  0  0  0  0  0  0  0  0  0  0
   23.4110   36.4190    8.8980 C   0  0  0  0  0  0  0  0  0  0  0  0
   29.8670   25.5550   16.9770 C   0  0  0  0  0  0  0  0  0  0  0  0
   28.3450   25.7220   17.0260 C   0  0  0  0  0  0  0  0  0  0  0  0
   27.6050   24.3930   17.0490 C   0  0  0  0  0  0  0  0  0  0  0  0
   26.1260   24.5720   17.2470 C   0  0  0  0  0  0  0  0  0  0  0  0
   25.6120   23.5190   18.2240 C   0  0  0  0  0  0  0  0  0  0  0  0
   25.0990   22.3370   17.4900 N   0  0  0  0  0  0  0  0  0  0  0  0
  2  1  1  1  0  0  0
  2 25  1  0  0  0  0
  3 23  1  6  0  0  0
  3  2  1  0  0  0  0
  4  7  1  0  0  0  0
  4  3  1  1  0  0  0
  5 10  1  1  0  0  0
  5 12  1  0  0  0  0
  5  7  1  0  0  0  0
  6  5  1  0  0  0  0
  8 16  1  1  0  0  0
  8  6  1  0  0  0  0
  8  9  1  0  0  0  0
  9 18  1  6  0  0  0
  9  4  1  0  0  0  0
 11 10  1  0  0  0  0
 12 13  2  0  0  0  0
 14 12  1  0  0  0  0
 15 14  1  0  0  0  0
 17 16  1  0  0  0  0
 18 20  1  0  0  0  0
 19 18  1  0  0  0  0
 21 19  1  0  0  0  0
 22 19  2  0  0  0  0
 24 23  1  0  0  0  0
 26 25  1  0  0  0  0
 27 29  1  0  0  0  0
 27  1  1  0  0  0  0
 28 27  1  0  0  0  0
 30 28  2  0  0  0  0
 31 28  1  0  0  0  0
 31 32  1  0  0  0  0
 32 33  1  0  0  0  0
 33 34  2  0  0  0  0
 35 37  2  0  0  0  0
 35 33  1  0  0  0  0
 36 34  1  0  0  0  0
 36 38  1  0  0  0  0
 37 36  1  0  0  0  0
 38 40  2  0  0  0  0
 38 39  1  0  0  0  0
 39 42  1  0  0  0  0
 40 43  1  0  0  0  0
 41 39  2  0  0  0  0
 41 45  1  0  0  0  0
 42 47  1  0  0  0  0
 42 46  2  0  0  0  0
 43 48  1  0  0  0  0
 43 47  2  0  0  0  0
 44 49  2  0  0  0  0
 44 40  1  0  0  0  0
 45 50  2  0  0  0  0
 49 51  1  0  0  0  0
 50 46  1  0  0  0  0
 51 48  2  0  0  0  0
 52 53  1  0  0  0  0
 53 54  1  0  0  0  0
 54 55  1  0  0  0  0
 55 56  1  0  0  0  0
 57 56  1  0  0  0  0
M  END
>  <REMARK>
 VINA RESULT:    -5.180      4.472      8.132
 INTER + INTRA:         -15.049
 INTER:                 -11.042
 INTRA:                  -4.006
 UNBOUND:                -6.084
 SMILES CC(=O)N[C@@H]1[C@@H](O)C[C@](O)(C(=O)O)O[C@H]1C(O)[C@H](O)CNC(=O)OCc1cn(-c2c3ccccc3nc3ccccc23)nn1
 SMILES IDX 20 1 18 2 16 3 15 4 9 5 8 6 14 7 6 8 5 9 10 10 11 12 12 13
 SMILES IDX 13 14 7 16 4 18 2 19 1 21 3 22 17 23 19 25 21 27 22 28 23 30
 SMILES IDX 24 31 25 32 26 33 27 34 44 35 28 36 43 37 29 38 30 39 42 40
 SMILES IDX 31 41 35 42 37 43 41 44 32 45 34 46 36 47 38 48 40 49 33 50
 SMILES IDX 39 51
 H PARENT 10 11 13 15 7 17 4 20 17 24 19 26 21 29
 Flexibility Score: inf
  4 active torsions:
  status: ('A' for Active; 'I' for Inactive)
    1  A    between atoms: CA   and  CB  
    2  A    between atoms: CB   and  CG  
    3  A    between atoms: CG   and  CD  
    4  A    between atoms: CD   and  CE  

>  <TORSDO>
F 15

>  <BEGIN_>
RES LYS A 131

$$$$
ligand_91_pose_14_2HRL.pdbqt
 OpenBabel07062320523D

  6  5  0  0  0  0  0  0  0  0999 V2000
   33.1930   34.6630    9.2900 C   0  0  0  0  0  0  0  0  0  0  0  0
   32.0600   35.3600   10.0340 C   0  0  0  0  0  0  0  0  0  0  0  0
   32.5180   36.1230   11.2500 C   0  0  0  0  0  0  0  0  0  0  0  0
   31.3910   36.9850   11.7980 C   0  0  0  0  0  0  0  0  0  0  0  0
   31.4810   38.3940   11.2440 C   0  0  0  0  0  0  0  0  0  0  0  0
   30.5400   38.5840   10.1060 N   0  0  0  0  0  0  0  0  0  0  0  0
  1  2  1  0  0  0  0
  2  3  1  0  0  0  0
  3  4  1  0  0  0  0
  5  4  1  0  0  0  0
  6  5  1  0  0  0  0
M  END
>  <EGIN_R>
ES LYS A 135

>  <REMARK>
  4 active torsions:
  status: ('A' for Active; 'I' for Inactive)
    5  A    between atoms: CA   and  CB  
    6  A    between atoms: CB   and  CG  
    7  A    between atoms: CG   and  CD  
    8  A    between atoms: CD   and  CE  

$$$$
