ligand_68_pose_14_2HRL.pdbqt
 OpenBabel07062320523D

 53 54  0  0  1  0  0  0  0  0999 V2000
   24.5920   29.0190   20.1730 N   0  0  0  0  0  0  0  0  0  0  0  0
   23.7110   28.7510   19.0960 C   0  0  0  0  0  0  0  0  0  0  0  0
   23.1180   27.6490   19.0630 O   0  0  0  0  0  0  0  0  0  0  0  0
   25.0540   29.9800   20.1280 H   0  0  0  0  0  0  0  0  0  0  0  0
   24.8720   28.1090   21.2590 C   0  0  0  0  0  0  0  0  0  0  0  0
   26.0640   28.5500   22.0820 C   0  0  2  0  0  0  0  0  0  0  0  0
   27.3630   28.0850   21.4230 C   0  0  2  0  0  0  0  0  0  0  0  0
   28.2430   29.2120   20.9520 C   0  0  2  0  0  0  0  0  0  0  0  0
   30.2370   27.9890   21.0310 C   0  0  2  0  0  0  0  0  0  0  0  0
   30.2660   28.2040   22.4900 C   0  0  0  0  0  0  0  0  0  0  0  0
   29.3300   28.6530   20.2760 O   0  0  0  0  0  0  0  0  0  0  0  0
   29.6020   29.4360   23.0200 C   0  0  1  0  0  0  0  0  0  0  0  0
   28.6630   30.1020   22.0430 C   0  0  1  0  0  0  0  0  0  0  0  0
   29.9540   26.6030   20.8420 O   0  0  0  0  0  0  0  0  0  0  0  0
   29.4580   26.3310   21.6450 H   0  0  0  0  0  0  0  0  0  0  0  0
   31.6420   28.1460   20.4970 C   0  0  0  0  0  0  0  0  0  0  0  0
   32.3450   29.1510   20.7520 O   0  0  0  0  0  0  0  0  0  0  0  0
   32.1900   27.1500   19.6930 O   0  0  0  0  0  0  0  0  0  0  0  0
   31.6370   26.4830   19.1770 H   0  0  0  0  0  0  0  0  0  0  0  0
   28.9130   29.1210   24.2250 O   0  0  0  0  0  0  0  0  0  0  0  0
   28.2180   28.4780   23.9870 H   0  0  0  0  0  0  0  0  0  0  0  0
   29.3440   31.3070   21.5970 N   0  0  0  0  0  0  0  0  0  0  0  0
   28.7270   32.5790   21.5100 C   0  0  0  0  0  0  0  0  0  0  0  0
   30.3460   31.1820   21.3360 H   0  0  0  0  0  0  0  0  0  0  0  0
   29.4510   33.7890   21.0510 C   0  0  0  0  0  0  0  0  0  0  0  0
   27.5150   32.6260   21.8470 O   0  0  0  0  0  0  0  0  0  0  0  0
   26.8640   27.4510   20.2200 O   0  0  0  0  0  0  0  0  0  0  0  0
   25.9760   27.0890   20.3590 H   0  0  0  0  0  0  0  0  0  0  0  0
   25.9130   28.0900   23.3700 O   0  0  0  0  0  0  0  0  0  0  0  0
   25.0900   28.4890   23.7380 H   0  0  0  0  0  0  0  0  0  0  0  0
   23.4730   29.6540   18.0710 O   0  0  0  0  0  0  0  0  0  0  0  0
   23.9720   29.4680   16.7610 C   0  0  0  0  0  0  0  0  0  0  0  0
   25.4400   29.3170   16.8280 C   0  0  0  0  0  0  0  0  0  0  0  0
   26.3810   30.1920   16.3090 C   0  0  0  0  0  0  0  0  0  0  0  0
   26.1750   28.3300   17.3910 N   0  0  0  0  0  0  0  0  0  0  0  0
   27.6160   29.7250   16.5620 N   0  0  0  0  0  0  0  0  0  0  0  0
   27.4590   28.6010   17.2170 N   0  0  0  0  0  0  0  0  0  0  0  0
   28.8700   30.3820   16.1670 C   0  0  0  0  0  0  0  0  0  0  0  0
   29.3680   31.2150   17.3220 C   0  0  1  0  0  0  0  0  0  0  0  0
   30.0470   30.3380   18.1980 O   0  0  0  0  0  0  0  0  0  0  0  0
   30.9470   30.1360   17.8200 H   0  0  0  0  0  0  0  0  0  0  0  0
   30.3460   32.2100   16.8360 C   0  0  0  0  0  0  0  0  0  0  0  0
   30.8630   32.1820   15.5570 C   0  0  0  0  0  0  0  0  0  0  0  0
   30.7660   33.2250   17.7060 C   0  0  0  0  0  0  0  0  0  0  0  0
   31.7700   33.1170   15.1240 C   0  0  0  0  0  0  0  0  0  0  0  0
   31.6670   34.1560   17.2780 C   0  0  0  0  0  0  0  0  0  0  0  0
   32.1670   34.1030   15.9960 C   0  0  0  0  0  0  0  0  0  0  0  0
   29.8670   25.5550   16.9770 C   0  0  0  0  0  0  0  0  0  0  0  0
   28.3450   25.7220   17.0260 C   0  0  0  0  0  0  0  0  0  0  0  0
   27.6020   24.3970   16.9470 C   0  0  0  0  0  0  0  0  0  0  0  0
   26.1590   24.5320   17.3450 C   0  0  0  0  0  0  0  0  0  0  0  0
   25.9610   23.9610   18.7460 C   0  0  0  0  0  0  0  0  0  0  0  0
   24.8830   24.6890   19.4560 N   0  0  0  0  0  0  0  0  0  0  0  0
  1  5  1  0  0  0  0
  2  1  1  0  0  0  0
  3  2  2  0  0  0  0
  4  1  1  0  0  0  0
  6  5  1  6  0  0  0
  6 29  1  0  0  0  0
  7 27  1  6  0  0  0
  7  6  1  0  0  0  0
  8  7  1  1  0  0  0
  8 13  1  0  0  0  0
  9 16  1  6  0  0  0
  9 10  1  0  0  0  0
 10 12  1  0  0  0  0
 11  8  1  0  0  0  0
 11  9  1  0  0  0  0
 12 20  1  1  0  0  0
 13 22  1  6  0  0  0
 13 12  1  0  0  0  0
 14  9  1  0  0  0  0
 14 15  1  0  0  0  0
 16 17  2  0  0  0  0
 18 16  1  0  0  0  0
 19 18  1  0  0  0  0
 21 20  1  0  0  0  0
 23 22  1  0  0  0  0
 23 26  2  0  0  0  0
 24 22  1  0  0  0  0
 25 23  1  0  0  0  0
 27 28  1  0  0  0  0
 29 30  1  0  0  0  0
 31  2  1  0  0  0  0
 32 33  1  0  0  0  0
 32 31  1  0  0  0  0
 33 35  1  0  0  0  0
 34 36  1  0  0  0  0
 34 33  2  0  0  0  0
 36 37  1  0  0  0  0
 37 35  2  0  0  0  0
 38 36  1  0  0  0  0
 39 38  1  6  0  0  0
 39 40  1  0  0  0  0
 41 40  1  0  0  0  0
 42 39  1  0  0  0  0
 42 44  2  0  0  0  0
 43 42  1  0  0  0  0
 45 43  2  0  0  0  0
 45 47  1  0  0  0  0
 46 44  1  0  0  0  0
 47 46  2  0  0  0  0
 48 49  1  0  0  0  0
 50 49  1  0  0  0  0
 50 51  1  0  0  0  0
 51 52  1  0  0  0  0
 52 53  1  0  0  0  0
M  END
>  <REMARK>
 VINA RESULT:    -5.400      1.813      3.142
 INTER + INTRA:         -15.147
 INTER:                  -8.980
 INTRA:                  -6.167
 UNBOUND:                -5.012
 SMILES CC(=O)N[C@@H]1[C@@H](O)C[C@](O)(C(=O)O)O[C@H]1C(O)[C@H](O)CNC(=O)OCc1cn(CC(O)c2ccccc2)nn1
 SMILES IDX 21 1 22 2 23 3 20 5 18 6 16 7 15 8 9 9 8 10 14 11 6 12 5 13
 SMILES IDX 10 14 11 16 12 17 13 18 7 20 4 22 2 23 1 25 3 26 17 27 19 29
 SMILES IDX 24 31 25 32 26 33 27 34 39 35 28 36 38 37 29 38 30 39 31 40
 SMILES IDX 32 42 33 43 37 44 34 45 36 46 35 47
 H PARENT 21 4 10 15 13 19 7 21 4 24 17 28 19 30 31 41
 Flexibility Score: inf
  4 active torsions:
  status: ('A' for Active; 'I' for Inactive)
    1  A    between atoms: CA   and  CB  
    2  A    between atoms: CB   and  CG  
    3  A    between atoms: CG   and  CD  
    4  A    between atoms: CD   and  CE  

>  <TORSDO>
F 18

>  <BEGIN_>
RES LYS A 131

$$$$
ligand_68_pose_14_2HRL.pdbqt
 OpenBabel07062320523D

  6  5  0  0  0  0  0  0  0  0999 V2000
   33.1930   34.6630    9.2900 C   0  0  0  0  0  0  0  0  0  0  0  0
   32.0600   35.3600   10.0340 C   0  0  0  0  0  0  0  0  0  0  0  0
   30.6880   34.9590    9.5550 C   0  0  0  0  0  0  0  0  0  0  0  0
   30.0890   36.0440    8.6750 C   0  0  0  0  0  0  0  0  0  0  0  0
   28.7910   35.5670    8.0500 C   0  0  0  0  0  0  0  0  0  0  0  0
   28.8790   35.5670    6.5640 N   0  0  0  0  0  0  0  0  0  0  0  0
  1  2  1  0  0  0  0
  3  2  1  0  0  0  0
  4  3  1  0  0  0  0
  5  4  1  0  0  0  0
  6  5  1  0  0  0  0
M  END
>  <EGIN_R>
ES LYS A 135

>  <REMARK>
  4 active torsions:
  status: ('A' for Active; 'I' for Inactive)
    5  A    between atoms: CA   and  CB  
    6  A    between atoms: CB   and  CG  
    7  A    between atoms: CG   and  CD  
    8  A    between atoms: CD   and  CE  

$$$$
