ligand_85_pose_4_2HRL.pdbqt
 OpenBabel07062320523D

 55 56  0  0  1  0  0  0  0  0999 V2000
   29.8370   30.7640   17.5960 N   0  0  0  0  0  0  0  0  0  0  0  0
   28.6990   30.8690   18.4110 C   0  0  0  0  0  0  0  0  0  0  0  0
   28.2250   31.9900   18.6870 O   0  0  0  0  0  0  0  0  0  0  0  0
   30.2230   29.8200   17.3670 H   0  0  0  0  0  0  0  0  0  0  0  0
   30.5080   31.9140   17.0500 C   0  0  0  0  0  0  0  0  0  0  0  0
   30.2830   31.9780   15.5610 C   0  0  2  0  0  0  0  0  0  0  0  0
   29.4530   33.1670   15.1490 C   0  0  2  0  0  0  0  0  0  0  0  0
   30.2600   34.1310   14.3660 C   0  0  2  0  0  0  0  0  0  0  0  0
   32.0750   35.5300   14.2800 C   0  0  2  0  0  0  0  0  0  0  0  0
   31.7400   35.4770   12.8100 C   0  0  0  0  0  0  0  0  0  0  0  0
   31.1810   34.8720   15.0870 O   0  0  0  0  0  0  0  0  0  0  0  0
   30.2940   35.7160   12.5250 C   0  0  1  0  0  0  0  0  0  0  0  0
   29.3920   35.1390   13.6120 C   0  0  1  0  0  0  0  0  0  0  0  0
   32.0460   36.8800   14.6720 O   0  0  0  0  0  0  0  0  0  0  0  0
   31.1220   37.0280   15.0400 H   0  0  0  0  0  0  0  0  0  0  0  0
   33.4160   34.9960   14.5450 C   0  0  0  0  0  0  0  0  0  0  0  0
   34.0180   35.3230   15.5960 O   0  0  0  0  0  0  0  0  0  0  0  0
   34.0880   34.1310   13.6960 O   0  0  0  0  0  0  0  0  0  0  0  0
   33.7610   34.0970   12.7180 H   0  0  0  0  0  0  0  0  0  0  0  0
   30.0910   37.1060   12.4030 O   0  0  0  0  0  0  0  0  0  0  0  0
   30.8500   37.4370   11.8510 H   0  0  0  0  0  0  0  0  0  0  0  0
   28.2120   34.5470   13.0820 N   0  0  0  0  0  0  0  0  0  0  0  0
   27.1320   35.3590   12.6550 C   0  0  0  0  0  0  0  0  0  0  0  0
   28.1140   33.5170   12.9950 H   0  0  0  0  0  0  0  0  0  0  0  0
   25.9070   34.6870   12.1020 C   0  0  0  0  0  0  0  0  0  0  0  0
   27.1320   36.6020   12.7090 O   0  0  0  0  0  0  0  0  0  0  0  0
   28.8000   33.6790   16.2420 O   0  0  0  0  0  0  0  0  0  0  0  0
   27.8110   33.5470   16.0870 H   0  0  0  0  0  0  0  0  0  0  0  0
   29.5430   30.8260   15.1470 O   0  0  0  0  0  0  0  0  0  0  0  0
   28.6160   31.0620   14.9440 H   0  0  0  0  0  0  0  0  0  0  0  0
   28.0400   29.7700   18.9520 O   0  0  0  0  0  0  0  0  0  0  0  0
   27.4570   28.8140   18.0880 C   0  0  0  0  0  0  0  0  0  0  0  0
   26.2260   29.3350   17.4760 C   0  0  0  0  0  0  0  0  0  0  0  0
   25.9590   29.6480   16.1600 C   0  0  0  0  0  0  0  0  0  0  0  0
   25.0910   29.6070   18.1410 N   0  0  0  0  0  0  0  0  0  0  0  0
   24.6800   30.0980   16.0570 N   0  0  0  0  0  0  0  0  0  0  0  0
   24.1960   30.0570   17.2750 N   0  0  0  0  0  0  0  0  0  0  0  0
   23.9950   30.5280   14.8890 C   0  0  0  0  0  0  0  0  0  0  0  0
   23.2200   29.6420   14.1550 C   0  0  0  0  0  0  0  0  0  0  0  0
   24.1070   31.8380   14.4870 C   0  0  0  0  0  0  0  0  0  0  0  0
   22.5500   30.0360   13.0240 C   0  0  0  0  0  0  0  0  0  0  0  0
   23.4440   32.2710   13.3500 C   0  0  0  0  0  0  0  0  0  0  0  0
   21.5640   28.9190   12.0840 Cl  0  0  0  0  0  0  0  0  0  0  0  0
   22.6740   31.3540   12.6360 C   0  0  0  0  0  0  0  0  0  0  0  0
   24.9160   32.7500   15.2610 C   0  0  0  0  0  0  0  0  0  0  0  0
   26.1530   32.9130   15.0630 O   0  0  0  0  0  0  0  0  0  0  0  0
   24.3250   33.5090   16.2970 N   0  0  0  0  0  0  0  0  0  0  0  0
   22.9150   33.3560   16.5590 C   0  0  0  0  0  0  0  0  0  0  0  0
   25.0930   34.4420   17.1080 C   0  0  0  0  0  0  0  0  0  0  0  0
   29.8670   25.5550   16.9770 C   0  0  0  0  0  0  0  0  0  0  0  0
   28.3450   25.7220   17.0260 C   0  0  0  0  0  0  0  0  0  0  0  0
   27.5990   24.4300   16.7290 C   0  0  0  0  0  0  0  0  0  0  0  0
   27.0000   23.8240   17.9680 C   0  0  0  0  0  0  0  0  0  0  0  0
   25.5570   23.4170   17.6890 C   0  0  0  0  0  0  0  0  0  0  0  0
   24.8760   24.4470   16.8700 N   0  0  0  0  0  0  0  0  0  0  0  0
  1  2  1  0  0  0  0
  2  3  2  0  0  0  0
  2 31  1  0  0  0  0
  4  1  1  0  0  0  0
  5  1  1  0  0  0  0
  6  5  1  1  0  0  0
  7  6  1  0  0  0  0
  7 27  1  1  0  0  0
  8 11  1  0  0  0  0
  8  7  1  1  0  0  0
  9 16  1  1  0  0  0
  9 14  1  0  0  0  0
  9 11  1  0  0  0  0
 10  9  1  0  0  0  0
 12 20  1  1  0  0  0
 12 10  1  0  0  0  0
 12 13  1  0  0  0  0
 13 22  1  6  0  0  0
 13  8  1  0  0  0  0
 14 15  1  0  0  0  0
 16 17  2  0  0  0  0
 18 16  1  0  0  0  0
 19 18  1  0  0  0  0
 21 20  1  0  0  0  0
 23 26  2  0  0  0  0
 23 22  1  0  0  0  0
 24 22  1  0  0  0  0
 25 23  1  0  0  0  0
 28 27  1  0  0  0  0
 29  6  1  0  0  0  0
 30 29  1  0  0  0  0
 32 31  1  0  0  0  0
 33 32  1  0  0  0  0
 33 35  1  0  0  0  0
 34 33  2  0  0  0  0
 36 34  1  0  0  0  0
 36 37  1  0  0  0  0
 37 35  2  0  0  0  0
 38 36  1  0  0  0  0
 39 38  2  0  0  0  0
 40 38  1  0  0  0  0
 40 45  1  0  0  0  0
 41 39  1  0  0  0  0
 42 40  2  0  0  0  0
 43 41  1  0  0  0  0
 44 41  2  0  0  0  0
 44 42  1  0  0  0  0
 45 47  1  0  0  0  0
 46 45  2  0  0  0  0
 47 48  1  0  0  0  0
 47 49  1  0  0  0  0
 50 51  1  0  0  0  0
 52 51  1  0  0  0  0
 52 53  1  0  0  0  0
 54 53  1  0  0  0  0
 55 54  1  0  0  0  0
M  END
>  <REMARK>
 VINA RESULT:    -4.996      4.358      8.327
 INTER + INTRA:         -15.126
 INTER:                  -8.921
 INTRA:                  -6.205
 UNBOUND:                -6.187
 SMILES CC(=O)N[C@@H]1[C@@H](O)C[C@](O)(C(=O)O)O[C@H]1C(O)[C@H](O)CNC(=O)OCc1cn(-c2cc(Cl)ccc2C(=O)N(C)C)nn1
 SMILES IDX 21 1 22 2 23 3 20 5 18 6 16 7 15 8 9 9 8 10 14 11 6 12 5 13
 SMILES IDX 10 14 11 16 12 17 13 18 7 20 4 22 2 23 1 25 3 26 17 27 19 29
 SMILES IDX 24 31 25 32 26 33 27 34 42 35 28 36 41 37 29 38 30 39 35 40
 SMILES IDX 31 41 34 42 32 43 33 44 36 45 37 46 38 47 39 48 40 49
 H PARENT 21 4 10 15 13 19 7 21 4 24 17 28 19 30
 Flexibility Score: inf
  4 active torsions:
  status: ('A' for Active; 'I' for Inactive)
    1  A    between atoms: CA   and  CB  
    2  A    between atoms: CB   and  CG  
    3  A    between atoms: CG   and  CD  
    4  A    between atoms: CD   and  CE  

>  <TORSDO>
F 16

>  <BEGIN_>
RES LYS A 131

$$$$
ligand_85_pose_4_2HRL.pdbqt
 OpenBabel07062320523D

  6  5  0  0  0  0  0  0  0  0999 V2000
   33.1930   34.6630    9.2900 C   0  0  0  0  0  0  0  0  0  0  0  0
   32.0600   35.3600   10.0340 C   0  0  0  0  0  0  0  0  0  0  0  0
   30.8770   35.6880    9.1600 C   0  0  0  0  0  0  0  0  0  0  0  0
   30.2450   34.4180    8.6120 C   0  0  0  0  0  0  0  0  0  0  0  0
   28.8760   34.7120    8.0300 C   0  0  0  0  0  0  0  0  0  0  0  0
   28.3400   36.0020    8.5460 N   0  0  0  0  0  0  0  0  0  0  0  0
  1  2  1  0  0  0  0
  3  2  1  0  0  0  0
  4  3  1  0  0  0  0
  5  6  1  0  0  0  0
  5  4  1  0  0  0  0
M  END
>  <EGIN_R>
ES LYS A 135

>  <REMARK>
  4 active torsions:
  status: ('A' for Active; 'I' for Inactive)
    5  A    between atoms: CA   and  CB  
    6  A    between atoms: CB   and  CG  
    7  A    between atoms: CG   and  CD  
    8  A    between atoms: CD   and  CE  

$$$$
