ligand_63_pose_5_2HRL.pdbqt
 OpenBabel07062320523D

 51 52  0  0  1  0  0  0  0  0999 V2000
   20.7570   39.9020    8.4520 N   0  0  0  0  0  0  0  0  0  0  0  0
   21.4070   40.3830    9.6390 C   0  0  0  0  0  0  0  0  0  0  0  0
   20.7630   40.7170   10.6390 O   0  0  0  0  0  0  0  0  0  0  0  0
   21.4540   39.6300    7.6810 H   0  0  0  0  0  0  0  0  0  0  0  0
   19.3920   39.7440    8.2970 C   0  0  0  0  0  0  0  0  0  0  0  0
   18.8290   38.3020    8.2160 C   0  0  2  0  0  0  0  0  0  0  0  0
   19.9820   37.4470    8.5770 C   0  0  1  0  0  0  0  0  0  0  0  0
   19.9670   36.6850    9.8530 C   0  0  2  0  0  0  0  0  0  0  0  0
   21.9960   35.8280   10.6780 C   0  0  2  0  0  0  0  0  0  0  0  0
   21.3350   34.7820   11.5420 C   0  0  0  0  0  0  0  0  0  0  0  0
   21.1940   36.9600   10.5180 O   0  0  0  0  0  0  0  0  0  0  0  0
   19.8110   34.7830   11.3050 C   0  0  1  0  0  0  0  0  0  0  0  0
   19.6850   35.2520    9.8350 C   0  0  1  0  0  0  0  0  0  0  0  0
   22.4300   35.2700    9.4860 O   0  0  0  0  0  0  0  0  0  0  0  0
   23.3550   34.9830    9.4820 H   0  0  0  0  0  0  0  0  0  0  0  0
   23.1540   36.3180   11.4540 C   0  0  0  0  0  0  0  0  0  0  0  0
   23.5880   37.3910   11.6240 O   0  0  0  0  0  0  0  0  0  0  0  0
   23.8680   35.2130   12.1300 O   0  0  0  0  0  0  0  0  0  0  0  0
   23.5240   34.9770   13.0630 H   0  0  0  0  0  0  0  0  0  0  0  0
   19.2800   33.5320   11.4850 O   0  0  0  0  0  0  0  0  0  0  0  0
   19.1170   33.3380   12.4250 H   0  0  0  0  0  0  0  0  0  0  0  0
   18.3200   34.9160    9.4040 N   0  0  0  0  0  0  0  0  0  0  0  0
   18.1460   34.2950    8.1580 C   0  0  0  0  0  0  0  0  0  0  0  0
   17.5450   35.1150   10.0070 H   0  0  0  0  0  0  0  0  0  0  0  0
   17.0440   33.7980    7.4190 C   0  0  0  0  0  0  0  0  0  0  0  0
   19.3670   34.1470    7.5690 O   0  0  0  0  0  0  0  0  0  0  0  0
   20.5150   36.8300    7.4820 O   0  0  0  0  0  0  0  0  0  0  0  0
   20.2340   35.8800    7.4010 H   0  0  0  0  0  0  0  0  0  0  0  0
   18.3010   38.1940    6.9610 O   0  0  0  0  0  0  0  0  0  0  0  0
   17.5700   38.8510    6.8510 H   0  0  0  0  0  0  0  0  0  0  0  0
   22.8010   40.4650    9.6540 O   0  0  0  0  0  0  0  0  0  0  0  0
   23.5510   40.5660    8.4240 C   0  0  0  0  0  0  0  0  0  0  0  0
   23.9410   39.1340    8.1540 C   0  0  0  0  0  0  0  0  0  0  0  0
   25.0440   38.4880    8.6300 C   0  0  0  0  0  0  0  0  0  0  0  0
   23.2010   38.2610    7.4720 N   0  0  0  0  0  0  0  0  0  0  0  0
   24.9230   37.1930    8.2060 N   0  0  0  0  0  0  0  0  0  0  0  0
   23.7850   37.0980    7.5040 N   0  0  0  0  0  0  0  0  0  0  0  0
   25.7930   36.1390    8.4640 C   0  0  0  0  0  0  0  0  0  0  0  0
   25.6460   35.3680    9.6210 N   0  0  0  0  0  0  0  0  0  0  0  0
   26.9020   35.8060    7.7160 C   0  0  0  0  0  0  0  0  0  0  0  0
   26.4910   34.4670    9.9000 C   0  0  0  0  0  0  0  0  0  0  0  0
   27.7780   34.8640    8.0220 C   0  0  0  0  0  0  0  0  0  0  0  0
   27.6540   34.0640    9.1950 C   0  0  0  0  0  0  0  0  0  0  0  0
   27.1860   36.6340    6.4800 C   0  0  0  0  0  0  0  0  0  0  0  0
   27.3920   37.1900    5.6620 N   0  0  0  0  0  0  0  0  0  0  0  0
   29.8670   25.5550   16.9770 C   0  0  0  0  0  0  0  0  0  0  0  0
   28.3450   25.7220   17.0260 C   0  0  0  0  0  0  0  0  0  0  0  0
   27.6010   24.4010   16.9010 C   0  0  0  0  0  0  0  0  0  0  0  0
   26.1630   24.5190   17.3220 C   0  0  0  0  0  0  0  0  0  0  0  0
   25.9590   23.7900   18.6460 C   0  0  0  0  0  0  0  0  0  0  0  0
   24.5980   24.0450   19.1750 N   0  0  0  0  0  0  0  0  0  0  0  0
  1  2  1  0  0  0  0
  2 31  1  0  0  0  0
  2  3  2  0  0  0  0
  4  1  1  0  0  0  0
  5  1  1  0  0  0  0
  6  5  1  6  0  0  0
  6  7  1  0  0  0  0
  7 27  1  6  0  0  0
  8  7  1  6  0  0  0
  8 11  1  0  0  0  0
  9 14  1  6  0  0  0
  9 16  1  0  0  0  0
  9 10  1  0  0  0  0
 11  9  1  0  0  0  0
 12 20  1  6  0  0  0
 12 10  1  0  0  0  0
 13 22  1  1  0  0  0
 13  8  1  0  0  0  0
 13 12  1  0  0  0  0
 15 14  1  0  0  0  0
 16 17  2  0  0  0  0
 16 18  1  0  0  0  0
 18 19  1  0  0  0  0
 20 21  1  0  0  0  0
 22 24  1  0  0  0  0
 23 22  1  0  0  0  0
 25 23  1  0  0  0  0
 26 23  2  0  0  0  0
 28 27  1  0  0  0  0
 29  6  1  0  0  0  0
 30 29  1  0  0  0  0
 32 31  1  0  0  0  0
 33 32  1  0  0  0  0
 33 34  2  0  0  0  0
 35 37  2  0  0  0  0
 35 33  1  0  0  0  0
 36 38  1  0  0  0  0
 36 34  1  0  0  0  0
 37 36  1  0  0  0  0
 38 39  2  0  0  0  0
 39 41  1  0  0  0  0
 40 42  2  0  0  0  0
 40 38  1  0  0  0  0
 42 43  1  0  0  0  0
 43 41  2  0  0  0  0
 44 40  1  0  0  0  0
 45 44  3  0  0  0  0
 46 47  1  0  0  0  0
 48 47  1  0  0  0  0
 48 49  1  0  0  0  0
 49 50  1  0  0  0  0
 50 51  1  0  0  0  0
M  END
>  <REMARK>
 VINA RESULT:    -4.254      3.807      6.931
 INTER + INTRA:         -14.652
 INTER:                  -8.459
 INTRA:                  -6.194
 UNBOUND:                -7.042
 SMILES CC(=O)N[C@@H]1[C@@H](O)C[C@](O)(C(=O)O)O[C@H]1C(O)[C@H](O)CNC(=O)OCc1cn(-c2ncccc2C#N)nn1
 SMILES IDX 21 1 22 2 23 3 20 5 18 6 16 7 15 8 9 9 8 10 14 11 6 12 5 13
 SMILES IDX 10 14 11 16 12 17 13 18 7 20 4 22 2 23 1 25 3 26 17 27 19 29
 SMILES IDX 24 31 25 32 26 33 27 34 38 35 28 36 37 37 29 38 30 39 34 40
 SMILES IDX 31 41 33 42 32 43 35 44 36 45
 H PARENT 21 4 10 15 13 19 7 21 4 24 17 28 19 30
 Flexibility Score: inf
  4 active torsions:
  status: ('A' for Active; 'I' for Inactive)
    1  A    between atoms: CA   and  CB  
    2  A    between atoms: CB   and  CG  
    3  A    between atoms: CG   and  CD  
    4  A    between atoms: CD   and  CE  

>  <TORSDO>
F 16

>  <BEGIN_>
RES LYS A 131

$$$$
ligand_63_pose_5_2HRL.pdbqt
 OpenBabel07062320523D

  6  5  0  0  0  0  0  0  0  0999 V2000
   33.1930   34.6630    9.2900 C   0  0  0  0  0  0  0  0  0  0  0  0
   32.0600   35.3600   10.0340 C   0  0  0  0  0  0  0  0  0  0  0  0
   30.8640   35.6590    9.1670 C   0  0  0  0  0  0  0  0  0  0  0  0
   30.5700   37.1510    9.1560 C   0  0  0  0  0  0  0  0  0  0  0  0
   29.3990   37.4700   10.0660 C   0  0  0  0  0  0  0  0  0  0  0  0
   28.5090   38.4960    9.4570 N   0  0  0  0  0  0  0  0  0  0  0  0
  1  2  1  0  0  0  0
  3  2  1  0  0  0  0
  4  3  1  0  0  0  0
  4  5  1  0  0  0  0
  6  5  1  0  0  0  0
M  END
>  <EGIN_R>
ES LYS A 135

>  <REMARK>
  4 active torsions:
  status: ('A' for Active; 'I' for Inactive)
    5  A    between atoms: CA   and  CB  
    6  A    between atoms: CB   and  CG  
    7  A    between atoms: CG   and  CD  
    8  A    between atoms: CD   and  CE  

$$$$
