ligand_64_pose_10_2HRL.pdbqt
 OpenBabel07062320523D

 59 61  0  0  1  0  0  0  0  0999 V2000
   24.8300   36.2750   12.0980 N   0  0  0  0  0  0  0  0  0  0  0  0
   23.8560   35.2300   12.0180 C   0  0  0  0  0  0  0  0  0  0  0  0
   23.1710   35.1340   10.9660 O   0  0  0  0  0  0  0  0  0  0  0  0
   25.3710   36.3010   13.0100 H   0  0  0  0  0  0  0  0  0  0  0  0
   25.0690   37.2200   11.0420 C   0  0  0  0  0  0  0  0  0  0  0  0
   26.3300   36.8970   10.3000 C   0  0  2  0  0  0  0  0  0  0  0  0
   25.9750   35.9660    9.1470 C   0  0  2  0  0  0  0  0  0  0  0  0
   27.0660   35.9660    8.1350 C   0  0  2  0  0  0  0  0  0  0  0  0
   29.3710   35.6990    7.9730 C   0  0  2  0  0  0  0  0  0  0  0  0
   29.0140   35.6670    6.4920 C   0  0  0  0  0  0  0  0  0  0  0  0
   28.2730   35.6450    8.7930 O   0  0  0  0  0  0  0  0  0  0  0  0
   28.1980   36.8740    6.1960 C   0  0  1  0  0  0  0  0  0  0  0  0
   27.3240   37.2460    7.4150 C   0  0  1  0  0  0  0  0  0  0  0  0
   30.0870   36.9090    8.1380 O   0  0  0  0  0  0  0  0  0  0  0  0
   30.2790   36.9640    9.1100 H   0  0  0  0  0  0  0  0  0  0  0  0
   30.2650   34.5830    8.3330 C   0  0  0  0  0  0  0  0  0  0  0  0
   29.8700   33.6890    9.1040 O   0  0  0  0  0  0  0  0  0  0  0  0
   31.5430   34.5170    7.8200 O   0  0  0  0  0  0  0  0  0  0  0  0
   31.7360   34.4530    6.8240 H   0  0  0  0  0  0  0  0  0  0  0  0
   28.9300   37.9600    5.7690 O   0  0  0  0  0  0  0  0  0  0  0  0
   29.4360   38.3560    6.5120 H   0  0  0  0  0  0  0  0  0  0  0  0
   26.1650   37.9520    6.9410 N   0  0  0  0  0  0  0  0  0  0  0  0
   26.0740   39.3890    7.0290 C   0  0  0  0  0  0  0  0  0  0  0  0
   25.3860   37.4380    6.5220 H   0  0  0  0  0  0  0  0  0  0  0  0
   24.9080   40.1500    6.5560 C   0  0  0  0  0  0  0  0  0  0  0  0
   27.0770   39.9630    7.5480 O   0  0  0  0  0  0  0  0  0  0  0  0
   24.7290   36.1850    8.6250 O   0  0  0  0  0  0  0  0  0  0  0  0
   24.2800   37.0010    8.9120 H   0  0  0  0  0  0  0  0  0  0  0  0
   27.1390   36.1960   11.2180 O   0  0  0  0  0  0  0  0  0  0  0  0
   27.9010   36.7860   11.3980 H   0  0  0  0  0  0  0  0  0  0  0  0
   23.6770   34.3500   13.0750 O   0  0  0  0  0  0  0  0  0  0  0  0
   23.0230   33.1250   12.8130 C   0  0  0  0  0  0  0  0  0  0  0  0
   23.8070   32.0590   13.4880 C   0  0  0  0  0  0  0  0  0  0  0  0
   24.8660   32.2350   14.3880 C   0  0  0  0  0  0  0  0  0  0  0  0
   23.6900   30.7140   13.4000 N   0  0  0  0  0  0  0  0  0  0  0  0
   25.3260   31.0360   14.7900 N   0  0  0  0  0  0  0  0  0  0  0  0
   24.5970   30.1340   14.1760 N   0  0  0  0  0  0  0  0  0  0  0  0
   26.4150   30.8660   15.7190 C   0  0  0  0  0  0  0  0  0  0  0  0
   26.4010   29.8800   16.6730 C   0  0  0  0  0  0  0  0  0  0  0  0
   27.5180   31.7100   15.6710 C   0  0  0  0  0  0  0  0  0  0  0  0
   27.4250   29.6910   17.5770 C   0  0  0  0  0  0  0  0  0  0  0  0
   28.5430   31.5330   16.5640 C   0  0  0  0  0  0  0  0  0  0  0  0
   28.4600   30.5390   17.4770 N   0  0  0  0  0  0  0  0  0  0  0  0
   27.3890   28.6380   18.5790 C   0  0  0  0  0  0  0  0  0  0  0  0
   27.2930   27.4520   18.2070 O   0  0  0  0  0  0  0  0  0  0  0  0
   27.4590   28.9210   19.9270 O   0  0  0  0  0  0  0  0  0  0  0  0
   28.0900   29.6310   20.3140 H   0  0  0  0  0  0  0  0  0  0  0  0
   29.7250   32.4150   16.5370 C   0  0  0  0  0  0  0  0  0  0  0  0
   30.6350   32.2470   15.5160 C   0  0  0  0  0  0  0  0  0  0  0  0
   29.9010   33.3660   17.5000 C   0  0  0  0  0  0  0  0  0  0  0  0
   31.7390   33.0670   15.4870 C   0  0  0  0  0  0  0  0  0  0  0  0
   31.0240   34.1690   17.4340 C   0  0  0  0  0  0  0  0  0  0  0  0
   31.9630   34.0430   16.4350 C   0  0  0  0  0  0  0  0  0  0  0  0
   29.8670   25.5550   16.9770 C   0  0  0  0  0  0  0  0  0  0  0  0
   28.3450   25.7220   17.0260 C   0  0  0  0  0  0  0  0  0  0  0  0
   27.5990   24.4340   16.7130 C   0  0  0  0  0  0  0  0  0  0  0  0
   27.0030   23.8110   17.9450 C   0  0  0  0  0  0  0  0  0  0  0  0
   25.6010   24.3680   18.1700 C   0  0  0  0  0  0  0  0  0  0  0  0
   24.8570   24.4310   16.8910 N   0  0  0  0  0  0  0  0  0  0  0  0
  1  4  1  0  0  0  0
  2  1  1  0  0  0  0
  2 31  1  0  0  0  0
  3  2  2  0  0  0  0
  5  1  1  0  0  0  0
  6  5  1  1  0  0  0
  6 29  1  0  0  0  0
  7 27  1  6  0  0  0
  7  6  1  0  0  0  0
  8 11  1  0  0  0  0
  8  7  1  1  0  0  0
  9 14  1  1  0  0  0
  9 16  1  0  0  0  0
  9 11  1  0  0  0  0
 10  9  1  0  0  0  0
 12 20  1  1  0  0  0
 12 10  1  0  0  0  0
 12 13  1  0  0  0  0
 13 22  1  6  0  0  0
 13  8  1  0  0  0  0
 14 15  1  0  0  0  0
 16 17  2  0  0  0  0
 18 16  1  0  0  0  0
 19 18  1  0  0  0  0
 20 21  1  0  0  0  0
 22 23  1  0  0  0  0
 23 26  2  0  0  0  0
 24 22  1  0  0  0  0
 25 23  1  0  0  0  0
 27 28  1  0  0  0  0
 29 30  1  0  0  0  0
 32 31  1  0  0  0  0
 32 33  1  0  0  0  0
 33 34  2  0  0  0  0
 34 36  1  0  0  0  0
 35 33  1  0  0  0  0
 35 37  2  0  0  0  0
 36 38  1  0  0  0  0
 37 36  1  0  0  0  0
 38 39  1  0  0  0  0
 39 41  2  0  0  0  0
 40 38  2  0  0  0  0
 40 42  1  0  0  0  0
 41 44  1  0  0  0  0
 42 43  2  0  0  0  0
 43 41  1  0  0  0  0
 44 46  1  0  0  0  0
 45 44  2  0  0  0  0
 46 47  1  0  0  0  0
 48 42  1  0  0  0  0
 48 50  2  0  0  0  0
 49 48  1  0  0  0  0
 51 49  2  0  0  0  0
 51 53  1  0  0  0  0
 52 50  1  0  0  0  0
 53 52  2  0  0  0  0
 54 55  1  0  0  0  0
 56 55  1  0  0  0  0
 56 57  1  0  0  0  0
 57 58  1  0  0  0  0
 59 58  1  0  0  0  0
M  END
>  <REMARK>
 VINA RESULT:    -5.968      2.978      8.169
 INTER + INTRA:         -16.418
 INTER:                 -11.967
 INTRA:                  -4.452
 UNBOUND:                -5.216
 SMILES CC(=O)N[C@@H]1[C@@H](O)C[C@](O)(C(=O)O)O[C@H]1C(O)[C@H](O)CNC(=O)OCc1cn(-c2cc(C(=O)O)nc(-c3ccccc3)c2)nn1
 SMILES IDX 21 1 22 2 23 3 20 5 18 6 16 7 15 8 9 9 8 10 14 11 6 12 5 13
 SMILES IDX 10 14 11 16 12 17 13 18 7 20 4 22 2 23 1 25 3 26 17 27 19 29
 SMILES IDX 24 31 25 32 26 33 27 34 45 35 28 36 44 37 29 38 30 39 43 40
 SMILES IDX 31 41 36 42 35 43 32 44 33 45 34 46 37 48 38 49 42 50 39 51
 SMILES IDX 41 52 40 53
 H PARENT 21 4 10 15 13 19 7 21 4 24 17 28 19 30 34 47
 Flexibility Score: inf
  4 active torsions:
  status: ('A' for Active; 'I' for Inactive)
    1  A    between atoms: CA   and  CB  
    2  A    between atoms: CB   and  CG  
    3  A    between atoms: CG   and  CD  
    4  A    between atoms: CD   and  CE  

>  <TORSDO>
F 18

>  <BEGIN_>
RES LYS A 131

$$$$
ligand_64_pose_10_2HRL.pdbqt
 OpenBabel07062320523D

  6  5  0  0  0  0  0  0  0  0999 V2000
   33.1930   34.6630    9.2900 C   0  0  0  0  0  0  0  0  0  0  0  0
   32.0600   35.3600   10.0340 C   0  0  0  0  0  0  0  0  0  0  0  0
   32.5060   36.0590   11.2920 C   0  0  0  0  0  0  0  0  0  0  0  0
   31.9120   37.4570   11.3680 C   0  0  0  0  0  0  0  0  0  0  0  0
   31.3900   37.7390   12.7640 C   0  0  0  0  0  0  0  0  0  0  0  0
   31.9910   36.8080   13.7600 N   0  0  0  0  0  0  0  0  0  0  0  0
  1  2  1  0  0  0  0
  2  3  1  0  0  0  0
  3  4  1  0  0  0  0
  4  5  1  0  0  0  0
  5  6  1  0  0  0  0
M  END
>  <EGIN_R>
ES LYS A 135

>  <REMARK>
  4 active torsions:
  status: ('A' for Active; 'I' for Inactive)
    5  A    between atoms: CA   and  CB  
    6  A    between atoms: CB   and  CG  
    7  A    between atoms: CG   and  CD  
    8  A    between atoms: CD   and  CE  

$$$$
