ligand_44_pose_7_2HRL.pdbqt
 OpenBabel07062320523D

 51 52  0  0  1  0  0  0  0  0999 V2000
   25.9820   30.3720   18.7170 N   0  0  0  0  0  0  0  0  0  0  0  0
   24.9340   30.5850   17.7880 C   0  0  0  0  0  0  0  0  0  0  0  0
   24.0200   29.7820   17.5220 O   0  0  0  0  0  0  0  0  0  0  0  0
   26.7130   31.1360   18.8700 H   0  0  0  0  0  0  0  0  0  0  0  0
   26.0600   29.1440   19.4430 C   0  0  0  0  0  0  0  0  0  0  0  0
   27.0990   28.1720   18.9420 C   0  0  2  0  0  0  0  0  0  0  0  0
   27.6950   27.3350   20.0150 C   0  0  1  0  0  0  0  0  0  0  0  0
   28.2850   28.0010   21.1950 C   0  0  2  0  0  0  0  0  0  0  0  0
   30.5770   27.7500   21.2290 C   0  0  2  0  0  0  0  0  0  0  0  0
   30.7260   28.1650   22.6740 C   0  0  0  0  0  0  0  0  0  0  0  0
   29.5180   28.5040   20.7490 O   0  0  0  0  0  0  0  0  0  0  0  0
   29.4920   27.7100   23.3760 C   0  0  1  0  0  0  0  0  0  0  0  0
   28.3480   27.2920   22.4720 C   0  0  1  0  0  0  0  0  0  0  0  0
   30.3770   26.3880   21.2030 O   0  0  0  0  0  0  0  0  0  0  0  0
   31.1910   25.8540   21.2650 H   0  0  0  0  0  0  0  0  0  0  0  0
   31.8110   28.1610   20.5170 C   0  0  0  0  0  0  0  0  0  0  0  0
   32.4200   29.2260   20.7590 O   0  0  0  0  0  0  0  0  0  0  0  0
   32.2910   27.3000   19.5340 O   0  0  0  0  0  0  0  0  0  0  0  0
   31.7530   27.0300   18.7260 H   0  0  0  0  0  0  0  0  0  0  0  0
   29.8460   26.5630   24.1240 O   0  0  0  0  0  0  0  0  0  0  0  0
   30.2840   26.7980   24.9660 H   0  0  0  0  0  0  0  0  0  0  0  0
   27.1680   27.5860   23.3160 N   0  0  0  0  0  0  0  0  0  0  0  0
   26.4610   26.6020   24.0170 C   0  0  0  0  0  0  0  0  0  0  0  0
   26.9030   28.6000   23.3430 H   0  0  0  0  0  0  0  0  0  0  0  0
   25.2780   27.0010   24.8340 C   0  0  0  0  0  0  0  0  0  0  0  0
   26.8090   25.4130   23.9650 O   0  0  0  0  0  0  0  0  0  0  0  0
   26.8700   26.2480   20.2620 O   0  0  0  0  0  0  0  0  0  0  0  0
   27.3870   25.4020   20.1310 H   0  0  0  0  0  0  0  0  0  0  0  0
   28.0170   28.7110   18.0570 O   0  0  0  0  0  0  0  0  0  0  0  0
   28.5420   29.4460   18.4340 H   0  0  0  0  0  0  0  0  0  0  0  0
   24.9050   31.7980   17.1020 O   0  0  0  0  0  0  0  0  0  0  0  0
   25.4560   31.9260   15.8140 C   0  0  0  0  0  0  0  0  0  0  0  0
   26.8740   31.5260   15.7790 C   0  0  0  0  0  0  0  0  0  0  0  0
   28.0250   32.2720   15.8860 C   0  0  0  0  0  0  0  0  0  0  0  0
   27.2520   30.2370   15.6170 N   0  0  0  0  0  0  0  0  0  0  0  0
   29.0650   31.4130   15.7850 N   0  0  0  0  0  0  0  0  0  0  0  0
   28.5580   30.2050   15.6260 N   0  0  0  0  0  0  0  0  0  0  0  0
   30.4610   31.7920   15.8470 C   0  0  0  0  0  0  0  0  0  0  0  0
   30.7260   32.3020   17.2330 C   0  0  0  0  0  0  0  0  0  0  0  0
   30.4430   31.4860   18.3180 C   0  0  0  0  0  0  0  0  0  0  0  0
   31.2450   33.5670   17.4070 C   0  0  0  0  0  0  0  0  0  0  0  0
   30.6920   31.9730   19.5750 C   0  0  0  0  0  0  0  0  0  0  0  0
   31.4990   34.0630   18.6850 C   0  0  0  0  0  0  0  0  0  0  0  0
   31.2110   33.2360   19.7420 C   0  0  0  0  0  0  0  0  0  0  0  0
   31.5490   33.8880   21.5070 Br  0  0  0  0  0  0  0  0  0  0  0  0
   29.8670   25.5550   16.9770 C   0  0  0  0  0  0  0  0  0  0  0  0
   28.3450   25.7220   17.0260 C   0  0  0  0  0  0  0  0  0  0  0  0
   27.6010   24.4040   16.8740 C   0  0  0  0  0  0  0  0  0  0  0  0
   26.1650   24.5110   17.3080 C   0  0  0  0  0  0  0  0  0  0  0  0
   25.8300   23.3570   18.2470 C   0  0  0  0  0  0  0  0  0  0  0  0
   24.9910   22.3510   17.5540 N   0  0  0  0  0  0  0  0  0  0  0  0
  1  4  1  0  0  0  0
  1  5  1  0  0  0  0
  2  1  1  0  0  0  0
  3  2  2  0  0  0  0
  6  5  1  1  0  0  0
  6  7  1  0  0  0  0
  7 27  1  1  0  0  0
  8  7  1  6  0  0  0
  8 13  1  0  0  0  0
  9 16  1  6  0  0  0
  9 10  1  0  0  0  0
 10 12  1  0  0  0  0
 11  8  1  0  0  0  0
 11  9  1  0  0  0  0
 12 20  1  6  0  0  0
 13 22  1  1  0  0  0
 13 12  1  0  0  0  0
 14  9  1  0  0  0  0
 14 15  1  0  0  0  0
 16 17  2  0  0  0  0
 18 16  1  0  0  0  0
 19 18  1  0  0  0  0
 20 21  1  0  0  0  0
 22 24  1  0  0  0  0
 22 23  1  0  0  0  0
 23 25  1  0  0  0  0
 26 23  2  0  0  0  0
 28 27  1  0  0  0  0
 29 30  1  0  0  0  0
 29  6  1  0  0  0  0
 31  2  1  0  0  0  0
 32 31  1  0  0  0  0
 33 32  1  0  0  0  0
 33 34  2  0  0  0  0
 35 37  2  0  0  0  0
 35 33  1  0  0  0  0
 36 38  1  0  0  0  0
 36 34  1  0  0  0  0
 37 36  1  0  0  0  0
 38 39  1  0  0  0  0
 39 41  2  0  0  0  0
 39 40  1  0  0  0  0
 40 42  2  0  0  0  0
 41 43  1  0  0  0  0
 42 44  1  0  0  0  0
 43 44  2  0  0  0  0
 44 45  1  0  0  0  0
 46 47  1  0  0  0  0
 48 47  1  0  0  0  0
 48 49  1  0  0  0  0
 49 50  1  0  0  0  0
 51 50  1  0  0  0  0
M  END
>  <REMARK>
 VINA RESULT:    -4.680      4.741      9.057
 INTER + INTRA:         -14.771
 INTER:                  -8.878
 INTRA:                  -5.893
 UNBOUND:                -6.398
 SMILES CC(=O)N[C@@H]1[C@@H](O)C[C@](O)(C(=O)O)O[C@H]1C(O)[C@H](O)CNC(=O)OCc1cn(Cc2ccc(Br)cc2)nn1
 SMILES IDX 21 1 22 2 23 3 20 5 18 6 16 7 15 8 9 9 8 10 14 11 6 12 5 13
 SMILES IDX 10 14 11 16 12 17 13 18 7 20 4 22 2 23 1 25 3 26 17 27 19 29
 SMILES IDX 24 31 25 32 26 33 27 34 38 35 28 36 37 37 29 38 30 39 31 40
 SMILES IDX 36 41 32 42 35 43 33 44 34 45
 H PARENT 21 4 10 15 13 19 7 21 4 24 17 28 19 30
 Flexibility Score: inf
  4 active torsions:
  status: ('A' for Active; 'I' for Inactive)
    1  A    between atoms: CA   and  CB  
    2  A    between atoms: CB   and  CG  
    3  A    between atoms: CG   and  CD  
    4  A    between atoms: CD   and  CE  

>  <TORSDO>
F 16

>  <BEGIN_>
RES LYS A 131

$$$$
ligand_44_pose_7_2HRL.pdbqt
 OpenBabel07062320523D

  6  5  0  0  0  0  0  0  0  0999 V2000
   33.1930   34.6630    9.2900 C   0  0  0  0  0  0  0  0  0  0  0  0
   32.0600   35.3600   10.0340 C   0  0  0  0  0  0  0  0  0  0  0  0
   30.7440   34.6320    9.9460 C   0  0  0  0  0  0  0  0  0  0  0  0
   30.4740   34.1820    8.5190 C   0  0  0  0  0  0  0  0  0  0  0  0
   29.4410   35.0790    7.8630 C   0  0  0  0  0  0  0  0  0  0  0  0
   28.0920   34.8670    8.4570 N   0  0  0  0  0  0  0  0  0  0  0  0
  1  2  1  0  0  0  0
  3  2  1  0  0  0  0
  4  3  1  0  0  0  0
  5  6  1  0  0  0  0
  5  4  1  0  0  0  0
M  END
>  <EGIN_R>
ES LYS A 135

>  <REMARK>
  4 active torsions:
  status: ('A' for Active; 'I' for Inactive)
    5  A    between atoms: CA   and  CB  
    6  A    between atoms: CB   and  CG  
    7  A    between atoms: CG   and  CD  
    8  A    between atoms: CD   and  CE  

$$$$
