ligand_2_pose_1_2HRL.pdbqt
 OpenBabel07062320523D

 50 51  0  0  1  0  0  0  0  0999 V2000
   30.0470   27.1710   21.2150 C   0  0  0  0  0  0  0  0  0  0  0  0
   31.5380   27.1560   21.0990 C   0  0  2  0  0  0  0  0  0  0  0  0
   32.0940   28.2400   22.0370 C   0  0  2  0  0  0  0  0  0  0  0  0
   32.3740   29.5330   21.2730 C   0  0  2  0  0  0  0  0  0  0  0  0
   33.9930   30.8780   22.3130 C   0  0  2  0  0  0  0  0  0  0  0  0
   33.3660   32.2000   21.9260 C   0  0  0  0  0  0  0  0  0  0  0  0
   33.7010   29.8360   21.5030 O   0  0  0  0  0  0  0  0  0  0  0  0
   32.1080   31.9400   21.1780 C   0  0  1  0  0  0  0  0  0  0  0  0
   31.5030   30.6460   21.6880 C   0  0  1  0  0  0  0  0  0  0  0  0
   33.6780   30.6770   23.6550 O   0  0  0  0  0  0  0  0  0  0  0  0
   33.8360   29.7160   23.8340 H   0  0  0  0  0  0  0  0  0  0  0  0
   35.4610   31.0950   22.2430 C   0  0  0  0  0  0  0  0  0  0  0  0
   36.1810   30.5230   23.0920 O   0  0  0  0  0  0  0  0  0  0  0  0
   36.0340   31.8920   21.2900 O   0  0  0  0  0  0  0  0  0  0  0  0
   36.3120   31.4860   20.3930 H   0  0  0  0  0  0  0  0  0  0  0  0
   31.2050   32.9940   21.2280 O   0  0  0  0  0  0  0  0  0  0  0  0
   30.8050   33.0700   22.1180 H   0  0  0  0  0  0  0  0  0  0  0  0
   30.1430   30.6170   21.2720 N   0  0  0  0  0  0  0  0  0  0  0  0
   29.0550   30.5060   22.1720 C   0  0  0  0  0  0  0  0  0  0  0  0
   29.9820   30.6830   20.2320 H   0  0  0  0  0  0  0  0  0  0  0  0
   27.6550   30.4790   21.7030 C   0  0  0  0  0  0  0  0  0  0  0  0
   29.3850   30.4340   23.3870 O   0  0  0  0  0  0  0  0  0  0  0  0
   33.2680   27.7820   22.6430 O   0  0  0  0  0  0  0  0  0  0  0  0
   33.1250   27.5760   23.6090 H   0  0  0  0  0  0  0  0  0  0  0  0
   31.9870   27.3370   19.8110 O   0  0  0  0  0  0  0  0  0  0  0  0
   32.2460   26.5370   19.3210 H   0  0  0  0  0  0  0  0  0  0  0  0
   29.3200   27.4020   20.0120 N   0  0  0  0  0  0  0  0  0  0  0  0
   27.9120   27.3090   19.8800 C   0  0  0  0  0  0  0  0  0  0  0  0
   29.8520   27.6650   19.1360 H   0  0  0  0  0  0  0  0  0  0  0  0
   27.1830   27.0160   20.8420 O   0  0  0  0  0  0  0  0  0  0  0  0
   27.3020   27.5500   18.6340 O   0  0  0  0  0  0  0  0  0  0  0  0
   26.7140   28.8160   18.3460 C   0  0  0  0  0  0  0  0  0  0  0  0
   27.6520   29.5290   17.4450 C   0  0  0  0  0  0  0  0  0  0  0  0
   28.4720   30.5620   17.7940 C   0  0  0  0  0  0  0  0  0  0  0  0
   27.8530   29.2870   16.1580 N   0  0  0  0  0  0  0  0  0  0  0  0
   29.1540   30.9170   16.6850 N   0  0  0  0  0  0  0  0  0  0  0  0
   28.7650   30.1320   15.6970 N   0  0  0  0  0  0  0  0  0  0  0  0
   30.1160   31.9760   16.6650 C   0  0  0  0  0  0  0  0  0  0  0  0
   30.3250   32.7200   17.8010 C   0  0  0  0  0  0  0  0  0  0  0  0
   30.7950   32.2010   15.4950 C   0  0  0  0  0  0  0  0  0  0  0  0
   31.2640   33.7330   17.7370 C   0  0  0  0  0  0  0  0  0  0  0  0
   31.7270   33.2210   15.4650 C   0  0  0  0  0  0  0  0  0  0  0  0
   31.9720   33.9930   16.5740 C   0  0  0  0  0  0  0  0  0  0  0  0
   33.1590   35.2640   16.4710 Cl  0  0  0  0  0  0  0  0  0  0  0  0
   29.8670   25.5550   16.9770 C   0  0  0  0  0  0  0  0  0  0  0  0
   28.3450   25.7220   17.0260 C   0  0  0  0  0  0  0  0  0  0  0  0
   27.5990   24.4280   16.7380 C   0  0  0  0  0  0  0  0  0  0  0  0
   26.9800   23.8440   17.9770 C   0  0  0  0  0  0  0  0  0  0  0  0
   25.6110   24.4760   18.2090 C   0  0  0  0  0  0  0  0  0  0  0  0
   24.7630   24.3340   17.0020 N   0  0  0  0  0  0  0  0  0  0  0  0
  2  1  1  6  0  0  0
  2  3  1  0  0  0  0
  3 23  1  6  0  0  0
  4  7  1  0  0  0  0
  4  9  1  0  0  0  0
  4  3  1  1  0  0  0
  5 12  1  6  0  0  0
  5 10  1  0  0  0  0
  6  5  1  0  0  0  0
  7  5  1  0  0  0  0
  8 16  1  1  0  0  0
  8  9  1  0  0  0  0
  8  6  1  0  0  0  0
  9 18  1  6  0  0  0
 10 11  1  0  0  0  0
 12 13  2  0  0  0  0
 14 12  1  0  0  0  0
 15 14  1  0  0  0  0
 16 17  1  0  0  0  0
 18 19  1  0  0  0  0
 19 22  2  0  0  0  0
 20 18  1  0  0  0  0
 21 19  1  0  0  0  0
 23 24  1  0  0  0  0
 25  2  1  0  0  0  0
 26 25  1  0  0  0  0
 27  1  1  0  0  0  0
 28 27  1  0  0  0  0
 28 30  2  0  0  0  0
 29 27  1  0  0  0  0
 31 28  1  0  0  0  0
 32 31  1  0  0  0  0
 33 34  2  0  0  0  0
 33 32  1  0  0  0  0
 35 33  1  0  0  0  0
 36 34  1  0  0  0  0
 37 35  2  0  0  0  0
 37 36  1  0  0  0  0
 38 36  1  0  0  0  0
 38 39  2  0  0  0  0
 40 38  1  0  0  0  0
 41 39  1  0  0  0  0
 42 40  2  0  0  0  0
 42 43  1  0  0  0  0
 43 41  2  0  0  0  0
 44 43  1  0  0  0  0
 45 46  1  0  0  0  0
 47 46  1  0  0  0  0
 47 48  1  0  0  0  0
 48 49  1  0  0  0  0
 50 49  1  0  0  0  0
M  END
>  <REMARK>
 VINA RESULT:    -4.712      1.655      2.811
 INTER + INTRA:         -15.163
 INTER:                  -9.975
 INTRA:                  -5.188
 UNBOUND:                -7.007
 SMILES CC(=O)N[C@@H]1[C@@H](O)C[C@](O)(C(=O)O)O[C@H]1C(O)[C@H](O)CNC(=O)OCc1cn(-c2ccc(Cl)cc2)nn1
 SMILES IDX 20 1 18 2 16 3 15 4 9 5 8 6 14 7 6 8 5 9 10 10 11 12 12 13
 SMILES IDX 13 14 7 16 4 18 2 19 1 21 3 22 17 23 19 25 21 27 22 28 23 30
 SMILES IDX 24 31 25 32 26 33 27 34 37 35 28 36 36 37 29 38 30 39 35 40
 SMILES IDX 31 41 34 42 32 43 33 44
 H PARENT 10 11 13 15 7 17 4 20 17 24 19 26 21 29
 Flexibility Score: inf
  4 active torsions:
  status: ('A' for Active; 'I' for Inactive)
    1  A    between atoms: CA   and  CB  
    2  A    between atoms: CB   and  CG  
    3  A    between atoms: CG   and  CD  
    4  A    between atoms: CD   and  CE  

>  <TORSDO>
F 15

>  <BEGIN_>
RES LYS A 131

$$$$
ligand_2_pose_1_2HRL.pdbqt
 OpenBabel07062320523D

  6  5  0  0  0  0  0  0  0  0999 V2000
   33.1930   34.6630    9.2900 C   0  0  0  0  0  0  0  0  0  0  0  0
   32.0600   35.3600   10.0340 C   0  0  0  0  0  0  0  0  0  0  0  0
   30.7210   34.6920    9.8560 C   0  0  0  0  0  0  0  0  0  0  0  0
   29.8130   35.5370    8.9760 C   0  0  0  0  0  0  0  0  0  0  0  0
   29.6130   34.8750    7.6260 C   0  0  0  0  0  0  0  0  0  0  0  0
   28.7990   35.7350    6.7220 N   0  0  0  0  0  0  0  0  0  0  0  0
  1  2  1  0  0  0  0
  3  2  1  0  0  0  0
  4  3  1  0  0  0  0
  5  4  1  0  0  0  0
  6  5  1  0  0  0  0
M  END
>  <EGIN_R>
ES LYS A 135

>  <REMARK>
  4 active torsions:
  status: ('A' for Active; 'I' for Inactive)
    5  A    between atoms: CA   and  CB  
    6  A    between atoms: CB   and  CG  
    7  A    between atoms: CG   and  CD  
    8  A    between atoms: CD   and  CE  

$$$$
