ligand_60_pose_4_2HRL.pdbqt
 OpenBabel07062320523D

 55 56  0  0  1  0  0  0  0  0999 V2000
   27.5230   38.6470   10.7370 N   0  0  0  0  0  0  0  0  0  0  0  0
   28.6570   39.0530   11.4550 C   0  0  0  0  0  0  0  0  0  0  0  0
   28.8910   38.5990   12.5870 O   0  0  0  0  0  0  0  0  0  0  0  0
   27.3820   39.0680    9.7790 H   0  0  0  0  0  0  0  0  0  0  0  0
   26.5890   37.7090   11.2530 C   0  0  0  0  0  0  0  0  0  0  0  0
   26.9020   36.2720   10.8570 C   0  0  2  0  0  0  0  0  0  0  0  0
   26.2450   35.9900    9.5360 C   0  0  1  0  0  0  0  0  0  0  0  0
   27.1640   35.9820    8.3750 C   0  0  2  0  0  0  0  0  0  0  0  0
   29.4460   35.8520    7.9260 C   0  0  2  0  0  0  0  0  0  0  0  0
   28.8720   35.6270    6.5490 C   0  0  0  0  0  0  0  0  0  0  0  0
   28.4890   36.0490    8.8820 O   0  0  0  0  0  0  0  0  0  0  0  0
   27.8490   36.6500    6.1600 C   0  0  1  0  0  0  0  0  0  0  0  0
   27.0640   37.0740    7.3770 C   0  0  1  0  0  0  0  0  0  0  0  0
   30.4040   36.8950    7.9120 O   0  0  0  0  0  0  0  0  0  0  0  0
   31.3200   36.5300    7.9960 H   0  0  0  0  0  0  0  0  0  0  0  0
   30.2060   34.6250    8.2840 C   0  0  0  0  0  0  0  0  0  0  0  0
   29.6210   33.7450    8.9640 O   0  0  0  0  0  0  0  0  0  0  0  0
   31.5170   34.3900    7.9150 O   0  0  0  0  0  0  0  0  0  0  0  0
   32.1370   35.1580    7.6690 H   0  0  0  0  0  0  0  0  0  0  0  0
   28.5020   37.7080    5.5420 O   0  0  0  0  0  0  0  0  0  0  0  0
   28.7580   38.3390    6.2620 H   0  0  0  0  0  0  0  0  0  0  0  0
   25.7850   37.5980    7.0790 N   0  0  0  0  0  0  0  0  0  0  0  0
   25.3600   38.8690    7.5250 C   0  0  0  0  0  0  0  0  0  0  0  0
   25.1190   37.0550    6.4940 H   0  0  0  0  0  0  0  0  0  0  0  0
   23.9950   39.4120    7.2000 C   0  0  0  0  0  0  0  0  0  0  0  0
   26.1550   39.5420    8.2060 O   0  0  0  0  0  0  0  0  0  0  0  0
   25.2370   35.0640    9.5540 O   0  0  0  0  0  0  0  0  0  0  0  0
   24.7140   35.1710   10.3800 H   0  0  0  0  0  0  0  0  0  0  0  0
   26.5480   35.4400   11.8860 O   0  0  0  0  0  0  0  0  0  0  0  0
   27.3160   35.3150   12.5090 H   0  0  0  0  0  0  0  0  0  0  0  0
   29.5770   39.9830   10.9460 O   0  0  0  0  0  0  0  0  0  0  0  0
   29.2930   40.7220    9.8000 C   0  0  0  0  0  0  0  0  0  0  0  0
   30.1350   40.3190    8.6530 C   0  0  0  0  0  0  0  0  0  0  0  0
   31.4890   40.4510    8.4580 C   0  0  0  0  0  0  0  0  0  0  0  0
   29.6660   39.7100    7.5340 N   0  0  0  0  0  0  0  0  0  0  0  0
   31.8210   39.9360    7.2590 N   0  0  0  0  0  0  0  0  0  0  0  0
   30.6950   39.4990    6.7310 N   0  0  0  0  0  0  0  0  0  0  0  0
   33.1040   39.8590    6.6470 C   0  0  0  0  0  0  0  0  0  0  0  0
   34.2650   39.8720    7.3900 C   0  0  0  0  0  0  0  0  0  0  0  0
   33.2390   39.7680    5.2740 C   0  0  0  0  0  0  0  0  0  0  0  0
   35.5130   39.7980    6.8130 C   0  0  0  0  0  0  0  0  0  0  0  0
   34.4870   39.6940    4.6920 C   0  0  0  0  0  0  0  0  0  0  0  0
   35.6550   39.7070    5.4250 C   0  0  0  0  0  0  0  0  0  0  0  0
   37.2420   39.6150    4.6970 S   0  0  0  0  0  0  0  0  0  0  0  0
   37.0720   39.0000    3.3360 O   0  0  0  0  0  0  0  0  0  0  0  0
   37.7510   41.0210    4.4760 O   0  0  0  0  0  0  0  0  0  0  0  0
   38.3510   38.7040    5.6320 N   0  0  0  0  0  0  0  0  0  0  0  0
   37.9280   38.0050    6.2520 H   0  0  0  0  0  0  0  0  0  0  0  0
   39.1260   38.3100    5.0540 H   0  0  0  0  0  0  0  0  0  0  0  0
   29.8670   25.5550   16.9770 C   0  0  0  0  0  0  0  0  0  0  0  0
   28.3450   25.7220   17.0260 C   0  0  0  0  0  0  0  0  0  0  0  0
   27.6000   24.4130   16.8130 C   0  0  0  0  0  0  0  0  0  0  0  0
   26.3690   24.3160   17.6720 C   0  0  0  0  0  0  0  0  0  0  0  0
   25.7630   22.9230   17.5370 C   0  0  0  0  0  0  0  0  0  0  0  0
   24.2830   22.9950   17.5780 N   0  0  0  0  0  0  0  0  0  0  0  0
  1  5  1  0  0  0  0
  1  2  1  0  0  0  0
  2  3  2  0  0  0  0
  4  1  1  0  0  0  0
  6  5  1  1  0  0  0
  6 29  1  0  0  0  0
  7 27  1  1  0  0  0
  7  6  1  0  0  0  0
  8 11  1  0  0  0  0
  8  7  1  1  0  0  0
  9 14  1  6  0  0  0
  9 16  1  0  0  0  0
  9 11  1  0  0  0  0
 10  9  1  0  0  0  0
 12 20  1  1  0  0  0
 12 10  1  0  0  0  0
 12 13  1  0  0  0  0
 13 22  1  6  0  0  0
 13  8  1  0  0  0  0
 14 15  1  0  0  0  0
 16 17  2  0  0  0  0
 18 16  1  0  0  0  0
 19 18  1  0  0  0  0
 20 21  1  0  0  0  0
 22 23  1  0  0  0  0
 23 26  2  0  0  0  0
 24 22  1  0  0  0  0
 25 23  1  0  0  0  0
 27 28  1  0  0  0  0
 29 30  1  0  0  0  0
 31  2  1  0  0  0  0
 32 31  1  0  0  0  0
 33 32  1  0  0  0  0
 34 33  2  0  0  0  0
 35 33  1  0  0  0  0
 36 34  1  0  0  0  0
 37 36  1  0  0  0  0
 37 35  2  0  0  0  0
 38 36  1  0  0  0  0
 38 39  2  0  0  0  0
 40 38  1  0  0  0  0
 41 39  1  0  0  0  0
 42 40  2  0  0  0  0
 42 43  1  0  0  0  0
 43 41  2  0  0  0  0
 44 43  1  0  0  0  0
 44 47  1  0  0  0  0
 45 44  2  0  0  0  0
 46 44  2  0  0  0  0
 47 48  1  0  0  0  0
 49 47  1  0  0  0  0
 50 51  1  0  0  0  0
 52 51  1  0  0  0  0
 52 53  1  0  0  0  0
 54 55  1  0  0  0  0
 54 53  1  0  0  0  0
M  END
>  <REMARK>
 VINA RESULT:    -5.086      8.375     13.438
 INTER + INTRA:         -15.213
 INTER:                  -9.985
 INTRA:                  -5.228
 UNBOUND:                -5.964
 SMILES CC(=O)N[C@@H]1[C@@H](O)C[C@](O)(C(=O)O)O[C@H]1C(O)[C@H](O)CNC(=O)OCc1cn(-c2ccc(S(N)(=O)=O)cc2)nn1
 SMILES IDX 21 1 22 2 23 3 20 5 18 6 16 7 15 8 9 9 8 10 14 11 6 12 5 13
 SMILES IDX 10 14 11 16 12 17 13 18 7 20 4 22 2 23 1 25 3 26 17 27 19 29
 SMILES IDX 24 31 25 32 26 33 27 34 40 35 28 36 39 37 29 38 30 39 38 40
 SMILES IDX 31 41 37 42 32 43 33 44 35 45 36 46 34 47
 H PARENT 21 4 10 15 13 19 7 21 4 24 17 28 19 30 34 48 34 49
 Flexibility Score: inf
  4 active torsions:
  status: ('A' for Active; 'I' for Inactive)
    1  A    between atoms: CA   and  CB  
    2  A    between atoms: CB   and  CG  
    3  A    between atoms: CG   and  CD  
    4  A    between atoms: CD   and  CE  

>  <TORSDO>
F 17

>  <BEGIN_>
RES LYS A 131

$$$$
ligand_60_pose_4_2HRL.pdbqt
 OpenBabel07062320523D

  6  5  0  0  0  0  0  0  0  0999 V2000
   33.1930   34.6630    9.2900 C   0  0  0  0  0  0  0  0  0  0  0  0
   32.0600   35.3600   10.0340 C   0  0  0  0  0  0  0  0  0  0  0  0
   32.5020   36.0410   11.3040 C   0  0  0  0  0  0  0  0  0  0  0  0
   31.3420   36.1630   12.2790 C   0  0  0  0  0  0  0  0  0  0  0  0
   30.3100   35.0830   12.0170 C   0  0  0  0  0  0  0  0  0  0  0  0
   29.7670   34.5380   13.2930 N   0  0  0  0  0  0  0  0  0  0  0  0
  1  2  1  0  0  0  0
  2  3  1  0  0  0  0
  3  4  1  0  0  0  0
  5  4  1  0  0  0  0
  5  6  1  0  0  0  0
M  END
>  <EGIN_R>
ES LYS A 135

>  <REMARK>
  4 active torsions:
  status: ('A' for Active; 'I' for Inactive)
    5  A    between atoms: CA   and  CB  
    6  A    between atoms: CB   and  CG  
    7  A    between atoms: CG   and  CD  
    8  A    between atoms: CD   and  CE  

$$$$
