ligand_63_pose_12_2HRL.pdbqt
 OpenBabel07062320523D

 51 52  0  0  1  0  0  0  0  0999 V2000
   27.3000   37.2250    5.8520 N   0  0  0  0  0  0  0  0  0  0  0  0
   27.7430   36.0980    6.6250 C   0  0  0  0  0  0  0  0  0  0  0  0
   28.8790   35.6310    6.4950 O   0  0  0  0  0  0  0  0  0  0  0  0
   26.2990   37.5260    6.0970 H   0  0  0  0  0  0  0  0  0  0  0  0
   28.0650   37.9060    4.9220 C   0  0  0  0  0  0  0  0  0  0  0  0
   28.5300   39.3420    5.2720 C   0  0  2  0  0  0  0  0  0  0  0  0
   29.9200   39.1630    5.7480 C   0  0  1  0  0  0  0  0  0  0  0  0
   30.8960   40.2760    5.6190 C   0  0  2  0  0  0  0  0  0  0  0  0
   33.1710   39.8340    6.0190 C   0  0  2  0  0  0  0  0  0  0  0  0
   33.5200   41.2750    6.2990 C   0  0  0  0  0  0  0  0  0  0  0  0
   32.1060   39.7160    5.1240 O   0  0  0  0  0  0  0  0  0  0  0  0
   32.2440   42.1410    6.2930 C   0  0  1  0  0  0  0  0  0  0  0  0
   31.1470   41.1530    6.7590 C   0  0  1  0  0  0  0  0  0  0  0  0
   32.9920   39.1380    7.2050 O   0  0  0  0  0  0  0  0  0  0  0  0
   32.1890   38.5970    7.2440 H   0  0  0  0  0  0  0  0  0  0  0  0
   34.3220   39.2770    5.2800 C   0  0  0  0  0  0  0  0  0  0  0  0
   34.6510   39.3600    4.1600 O   0  0  0  0  0  0  0  0  0  0  0  0
   35.2020   38.4740    6.1570 O   0  0  0  0  0  0  0  0  0  0  0  0
   35.5170   37.5850    5.7630 H   0  0  0  0  0  0  0  0  0  0  0  0
   32.3630   43.2050    7.1490 O   0  0  0  0  0  0  0  0  0  0  0  0
   33.2660   43.2900    7.5010 H   0  0  0  0  0  0  0  0  0  0  0  0
   29.9890   41.9680    7.1540 N   0  0  0  0  0  0  0  0  0  0  0  0
   29.7240   42.1360    8.5220 C   0  0  0  0  0  0  0  0  0  0  0  0
   29.4230   42.4020    6.4510 H   0  0  0  0  0  0  0  0  0  0  0  0
   28.7670   42.8440    9.2880 C   0  0  0  0  0  0  0  0  0  0  0  0
   30.6550   41.4400    9.2360 O   0  0  0  0  0  0  0  0  0  0  0  0
   29.9710   38.4120    6.8870 O   0  0  0  0  0  0  0  0  0  0  0  0
   29.4220   37.5850    6.8270 H   0  0  0  0  0  0  0  0  0  0  0  0
   27.5950   39.8180    6.1460 O   0  0  0  0  0  0  0  0  0  0  0  0
   27.8960   39.6560    7.0750 H   0  0  0  0  0  0  0  0  0  0  0  0
   26.8610   35.5290    7.5460 O   0  0  0  0  0  0  0  0  0  0  0  0
   25.9070   36.3440    8.2610 C   0  0  0  0  0  0  0  0  0  0  0  0
   26.7930   37.2970    9.0250 C   0  0  0  0  0  0  0  0  0  0  0  0
   27.3890   37.0650   10.2290 C   0  0  0  0  0  0  0  0  0  0  0  0
   27.1920   38.4880    8.5780 N   0  0  0  0  0  0  0  0  0  0  0  0
   28.1640   38.1660   10.4730 N   0  0  0  0  0  0  0  0  0  0  0  0
   28.0150   39.0080    9.4410 N   0  0  0  0  0  0  0  0  0  0  0  0
   28.9890   38.3860   11.5720 C   0  0  0  0  0  0  0  0  0  0  0  0
   28.4380   38.6670   12.8250 N   0  0  0  0  0  0  0  0  0  0  0  0
   30.3670   38.4550   11.5460 C   0  0  0  0  0  0  0  0  0  0  0  0
   29.1890   38.9560   13.8030 C   0  0  0  0  0  0  0  0  0  0  0  0
   31.1380   38.7610   12.5760 C   0  0  0  0  0  0  0  0  0  0  0  0
   30.6020   39.0530   13.8640 C   0  0  0  0  0  0  0  0  0  0  0  0
   31.0520   38.2370   10.2140 C   0  0  0  0  0  0  0  0  0  0  0  0
   31.4960   38.0810    9.3200 N   0  0  0  0  0  0  0  0  0  0  0  0
   29.8670   25.5550   16.9770 C   0  0  0  0  0  0  0  0  0  0  0  0
   28.3450   25.7220   17.0260 C   0  0  0  0  0  0  0  0  0  0  0  0
   27.6020   24.4000   16.9140 C   0  0  0  0  0  0  0  0  0  0  0  0
   26.4980   24.2830   17.9290 C   0  0  0  0  0  0  0  0  0  0  0  0
   25.1680   24.6480   17.2780 C   0  0  0  0  0  0  0  0  0  0  0  0
   24.5110   25.7490   18.0230 N   0  0  0  0  0  0  0  0  0  0  0  0
  1  4  1  0  0  0  0
  1  2  1  0  0  0  0
  2 31  1  0  0  0  0
  3  2  2  0  0  0  0
  5  1  1  0  0  0  0
  6  5  1  1  0  0  0
  6  7  1  0  0  0  0
  6 29  1  0  0  0  0
  7 27  1  1  0  0  0
  8  7  1  1  0  0  0
  8 13  1  0  0  0  0
  9 16  1  6  0  0  0
  9 10  1  0  0  0  0
  9 14  1  0  0  0  0
 11  8  1  0  0  0  0
 11  9  1  0  0  0  0
 12 10  1  0  0  0  0
 12 13  1  0  0  0  0
 12 20  1  1  0  0  0
 13 22  1  6  0  0  0
 14 15  1  0  0  0  0
 16 18  1  0  0  0  0
 17 16  2  0  0  0  0
 19 18  1  0  0  0  0
 20 21  1  0  0  0  0
 22 23  1  0  0  0  0
 23 26  2  0  0  0  0
 23 25  1  0  0  0  0
 24 22  1  0  0  0  0
 28 27  1  0  0  0  0
 29 30  1  0  0  0  0
 31 32  1  0  0  0  0
 32 33  1  0  0  0  0
 33 34  2  0  0  0  0
 34 36  1  0  0  0  0
 35 33  1  0  0  0  0
 35 37  2  0  0  0  0
 36 38  1  0  0  0  0
 37 36  1  0  0  0  0
 38 39  1  0  0  0  0
 39 41  2  0  0  0  0
 40 38  2  0  0  0  0
 40 42  1  0  0  0  0
 41 43  1  0  0  0  0
 42 43  2  0  0  0  0
 44 40  1  0  0  0  0
 45 44  3  0  0  0  0
 46 47  1  0  0  0  0
 48 47  1  0  0  0  0
 48 49  1  0  0  0  0
 50 49  1  0  0  0  0
 50 51  1  0  0  0  0
M  END
>  <REMARK>
 VINA RESULT:    -4.089      3.325      5.373
 INTER + INTRA:         -14.358
 INTER:                  -8.326
 INTRA:                  -6.031
 UNBOUND:                -7.042
 SMILES CC(=O)N[C@@H]1[C@@H](O)C[C@](O)(C(=O)O)O[C@H]1C(O)[C@H](O)CNC(=O)OCc1cn(-c2ncccc2C#N)nn1
 SMILES IDX 21 1 22 2 23 3 20 5 18 6 16 7 15 8 9 9 8 10 14 11 6 12 5 13
 SMILES IDX 10 14 11 16 12 17 13 18 7 20 4 22 2 23 1 25 3 26 17 27 19 29
 SMILES IDX 24 31 25 32 26 33 27 34 38 35 28 36 37 37 29 38 30 39 34 40
 SMILES IDX 31 41 33 42 32 43 35 44 36 45
 H PARENT 21 4 10 15 13 19 7 21 4 24 17 28 19 30
 Flexibility Score: inf
  4 active torsions:
  status: ('A' for Active; 'I' for Inactive)
    1  A    between atoms: CA   and  CB  
    2  A    between atoms: CB   and  CG  
    3  A    between atoms: CG   and  CD  
    4  A    between atoms: CD   and  CE  

>  <TORSDO>
F 16

>  <BEGIN_>
RES LYS A 131

$$$$
ligand_63_pose_12_2HRL.pdbqt
 OpenBabel07062320523D

  6  5  0  0  0  0  0  0  0  0999 V2000
   33.1930   34.6630    9.2900 C   0  0  0  0  0  0  0  0  0  0  0  0
   32.0600   35.3600   10.0340 C   0  0  0  0  0  0  0  0  0  0  0  0
   30.7390   34.6430    9.9270 C   0  0  0  0  0  0  0  0  0  0  0  0
   29.9480   34.7800   11.2200 C   0  0  0  0  0  0  0  0  0  0  0  0
   30.8850   34.9280   12.4030 C   0  0  0  0  0  0  0  0  0  0  0  0
   30.1510   35.3950   13.6120 N   0  0  0  0  0  0  0  0  0  0  0  0
  1  2  1  0  0  0  0
  3  2  1  0  0  0  0
  3  4  1  0  0  0  0
  4  5  1  0  0  0  0
  5  6  1  0  0  0  0
M  END
>  <EGIN_R>
ES LYS A 135

>  <REMARK>
  4 active torsions:
  status: ('A' for Active; 'I' for Inactive)
    5  A    between atoms: CA   and  CB  
    6  A    between atoms: CB   and  CG  
    7  A    between atoms: CG   and  CD  
    8  A    between atoms: CD   and  CE  

$$$$
