ligand_66_pose_12_2HRL.pdbqt
 OpenBabel07062320523D

 52 53  0  0  1  0  0  0  0  0999 V2000
   27.1210   28.3730   18.2780 N   0  0  0  0  0  0  0  0  0  0  0  0
   27.2080   29.6410   17.6930 C   0  0  0  0  0  0  0  0  0  0  0  0
   26.8650   30.6620   18.3240 O   0  0  0  0  0  0  0  0  0  0  0  0
   27.4370   27.5520   17.6800 H   0  0  0  0  0  0  0  0  0  0  0  0
   26.6390   28.1360   19.6130 C   0  0  0  0  0  0  0  0  0  0  0  0
   27.5370   27.2330   20.4110 C   0  0  2  0  0  0  0  0  0  0  0  0
   27.9990   27.7660   21.7110 C   0  0  2  0  0  0  0  0  0  0  0  0
   29.2160   28.7020   21.6360 C   0  0  2  0  0  0  0  0  0  0  0  0
   30.4320   29.9330   20.1550 C   0  0  2  0  0  0  0  0  0  0  0  0
   31.6630   29.0830   20.3970 C   0  0  0  0  0  0  0  0  0  0  0  0
   29.3350   29.1430   20.3790 O   0  0  0  0  0  0  0  0  0  0  0  0
   31.7220   28.6040   21.8220 C   0  0  1  0  0  0  0  0  0  0  0  0
   30.3920   28.1320   22.3340 C   0  0  1  0  0  0  0  0  0  0  0  0
   30.4500   30.3280   18.7930 O   0  0  0  0  0  0  0  0  0  0  0  0
   30.1890   31.2930   18.8170 H   0  0  0  0  0  0  0  0  0  0  0  0
   30.5250   31.1650   20.9430 C   0  0  0  0  0  0  0  0  0  0  0  0
   31.6240   31.7010   21.2150 O   0  0  0  0  0  0  0  0  0  0  0  0
   29.3990   31.8420   21.4550 O   0  0  0  0  0  0  0  0  0  0  0  0
   28.6350   31.9720   20.7870 H   0  0  0  0  0  0  0  0  0  0  0  0
   32.6570   27.5700   21.8810 O   0  0  0  0  0  0  0  0  0  0  0  0
   32.7610   27.1090   21.0230 H   0  0  0  0  0  0  0  0  0  0  0  0
   30.3250   28.3850   23.7600 N   0  0  0  0  0  0  0  0  0  0  0  0
   30.6770   27.3870   24.7400 C   0  0  0  0  0  0  0  0  0  0  0  0
   30.0170   29.2970   24.1840 H   0  0  0  0  0  0  0  0  0  0  0  0
   30.5890   27.6940   26.2030 C   0  0  0  0  0  0  0  0  0  0  0  0
   31.0590   26.2580   24.3730 O   0  0  0  0  0  0  0  0  0  0  0  0
   28.3280   26.7690   22.6310 O   0  0  0  0  0  0  0  0  0  0  0  0
   29.1220   26.9940   23.1750 H   0  0  0  0  0  0  0  0  0  0  0  0
   28.5390   26.7650   19.5620 O   0  0  0  0  0  0  0  0  0  0  0  0
   29.3340   26.5630   20.1140 H   0  0  0  0  0  0  0  0  0  0  0  0
   27.6720   29.8410   16.3930 O   0  0  0  0  0  0  0  0  0  0  0  0
   27.6280   31.1380   15.8560 C   0  0  0  0  0  0  0  0  0  0  0  0
   28.9600   31.7600   15.9960 C   0  0  0  0  0  0  0  0  0  0  0  0
   29.2660   33.0930   16.1630 C   0  0  0  0  0  0  0  0  0  0  0  0
   30.1380   31.1100   15.9860 N   0  0  0  0  0  0  0  0  0  0  0  0
   30.6030   33.2130   16.2500 N   0  0  0  0  0  0  0  0  0  0  0  0
   31.0930   31.9840   16.1370 N   0  0  0  0  0  0  0  0  0  0  0  0
   31.4280   34.3770   16.4360 C   0  0  0  0  0  0  0  0  0  0  0  0
   31.8170   34.9680   15.1130 C   0  0  0  0  0  0  0  0  0  0  0  0
   33.0140   34.6160   14.5310 C   0  0  0  0  0  0  0  0  0  0  0  0
   31.0070   35.8530   14.4530 C   0  0  0  0  0  0  0  0  0  0  0  0
   33.3800   35.1580   13.2930 C   0  0  0  0  0  0  0  0  0  0  0  0
   31.3350   36.4070   13.2330 C   0  0  0  0  0  0  0  0  0  0  0  0
   32.5310   36.0540   12.6510 C   0  0  0  0  0  0  0  0  0  0  0  0
   30.5040   37.3340   12.5230 C   0  0  0  0  0  0  0  0  0  0  0  0
   29.8330   38.1030   11.9570 N   0  0  0  0  0  0  0  0  0  0  0  0
   29.8670   25.5550   16.9770 C   0  0  0  0  0  0  0  0  0  0  0  0
   28.3450   25.7220   17.0260 C   0  0  0  0  0  0  0  0  0  0  0  0
   27.6010   24.4020   16.8910 C   0  0  0  0  0  0  0  0  0  0  0  0
   26.4940   24.2700   17.9000 C   0  0  0  0  0  0  0  0  0  0  0  0
   25.6540   23.0390   17.5750 C   0  0  0  0  0  0  0  0  0  0  0  0
   24.3210   23.4400   17.0660 N   0  0  0  0  0  0  0  0  0  0  0  0
  1  5  1  0  0  0  0
  2  1  1  0  0  0  0
  2  3  2  0  0  0  0
  4  1  1  0  0  0  0
  6  5  1  6  0  0  0
  6  7  1  0  0  0  0
  7 27  1  1  0  0  0
  8  7  1  6  0  0  0
  8 13  1  0  0  0  0
  9 14  1  6  0  0  0
  9 11  1  0  0  0  0
  9 10  1  0  0  0  0
  9 16  1  0  0  0  0
 10 12  1  0  0  0  0
 11  8  1  0  0  0  0
 12 20  1  6  0  0  0
 12 13  1  0  0  0  0
 13 22  1  1  0  0  0
 14 15  1  0  0  0  0
 16 17  2  0  0  0  0
 16 18  1  0  0  0  0
 19 18  1  0  0  0  0
 21 20  1  0  0  0  0
 22 24  1  0  0  0  0
 22 23  1  0  0  0  0
 23 25  1  0  0  0  0
 26 23  2  0  0  0  0
 27 28  1  0  0  0  0
 29 30  1  0  0  0  0
 29  6  1  0  0  0  0
 31  2  1  0  0  0  0
 32 33  1  0  0  0  0
 32 31  1  0  0  0  0
 33 34  2  0  0  0  0
 34 36  1  0  0  0  0
 35 33  1  0  0  0  0
 35 37  2  0  0  0  0
 36 38  1  0  0  0  0
 37 36  1  0  0  0  0
 39 38  1  0  0  0  0
 40 39  1  0  0  0  0
 41 39  2  0  0  0  0
 42 40  2  0  0  0  0
 43 41  1  0  0  0  0
 44 43  2  0  0  0  0
 44 42  1  0  0  0  0
 45 43  1  0  0  0  0
 46 45  3  0  0  0  0
 47 48  1  0  0  0  0
 49 48  1  0  0  0  0
 49 50  1  0  0  0  0
 51 50  1  0  0  0  0
 52 51  1  0  0  0  0
M  END
>  <REMARK>
 VINA RESULT:    -4.990      4.354      8.210
 INTER + INTRA:         -14.431
 INTER:                  -9.014
 INTRA:                  -5.417
 UNBOUND:                -5.212
 SMILES CC(=O)N[C@@H]1[C@@H](O)C[C@](O)(C(=O)O)O[C@H]1C(O)[C@H](O)CNC(=O)OCc1cn(Cc2cccc(C#N)c2)nn1
 SMILES IDX 21 1 22 2 23 3 20 5 18 6 16 7 15 8 9 9 8 10 14 11 6 12 5 13
 SMILES IDX 10 14 11 16 12 17 13 18 7 20 4 22 2 23 1 25 3 26 17 27 19 29
 SMILES IDX 24 31 25 32 26 33 27 34 39 35 28 36 38 37 29 38 30 39 31 40
 SMILES IDX 37 41 32 42 34 43 33 44 35 45 36 46
 H PARENT 21 4 10 15 13 19 7 21 4 24 17 28 19 30
 Flexibility Score: inf
  4 active torsions:
  status: ('A' for Active; 'I' for Inactive)
    1  A    between atoms: CA   and  CB  
    2  A    between atoms: CB   and  CG  
    3  A    between atoms: CG   and  CD  
    4  A    between atoms: CD   and  CE  

>  <TORSDO>
F 17

>  <BEGIN_>
RES LYS A 131

$$$$
ligand_66_pose_12_2HRL.pdbqt
 OpenBabel07062320523D

  6  5  0  0  0  0  0  0  0  0999 V2000
   33.1930   34.6630    9.2900 C   0  0  0  0  0  0  0  0  0  0  0  0
   32.0600   35.3600   10.0340 C   0  0  0  0  0  0  0  0  0  0  0  0
   30.8210   35.5560    9.1990 C   0  0  0  0  0  0  0  0  0  0  0  0
   30.0570   34.2480    9.0570 C   0  0  0  0  0  0  0  0  0  0  0  0
   28.7240   34.4820    8.3730 C   0  0  0  0  0  0  0  0  0  0  0  0
   28.8870   35.3200    7.1530 N   0  0  0  0  0  0  0  0  0  0  0  0
  1  2  1  0  0  0  0
  3  2  1  0  0  0  0
  4  3  1  0  0  0  0
  5  4  1  0  0  0  0
  6  5  1  0  0  0  0
M  END
>  <EGIN_R>
ES LYS A 135

>  <REMARK>
  4 active torsions:
  status: ('A' for Active; 'I' for Inactive)
    5  A    between atoms: CA   and  CB  
    6  A    between atoms: CB   and  CG  
    7  A    between atoms: CG   and  CD  
    8  A    between atoms: CD   and  CE  

$$$$
