ligand_64_pose_11_2HRL.pdbqt
 OpenBabel07062320523D

 59 61  0  0  1  0  0  0  0  0999 V2000
   28.8190   38.1540   17.2080 N   0  0  0  0  0  0  0  0  0  0  0  0
   28.2870   38.3990   15.9030 C   0  0  0  0  0  0  0  0  0  0  0  0
   29.0840   38.7310   14.9880 O   0  0  0  0  0  0  0  0  0  0  0  0
   28.0940   37.8790   17.9330 H   0  0  0  0  0  0  0  0  0  0  0  0
   30.2150   38.2670   17.5300 C   0  0  0  0  0  0  0  0  0  0  0  0
   30.7920   36.9380   17.9140 C   0  0  2  0  0  0  0  0  0  0  0  0
   31.6480   36.4420   16.7560 C   0  0  2  0  0  0  0  0  0  0  0  0
   30.9290   35.3740   16.0080 C   0  0  2  0  0  0  0  0  0  0  0  0
   30.8940   33.0620   15.7630 C   0  0  2  0  0  0  0  0  0  0  0  0
   29.6160   33.4090   15.0100 C   0  0  0  0  0  0  0  0  0  0  0  0
   31.4230   34.1260   16.4460 O   0  0  0  0  0  0  0  0  0  0  0  0
   29.9550   34.4440   13.9960 C   0  0  1  0  0  0  0  0  0  0  0  0
   31.0730   35.3690   14.5250 C   0  0  1  0  0  0  0  0  0  0  0  0
   31.7780   32.5910   14.7630 O   0  0  0  0  0  0  0  0  0  0  0  0
   32.5950   32.3130   15.2520 H   0  0  0  0  0  0  0  0  0  0  0  0
   30.6670   31.9680   16.7270 C   0  0  0  0  0  0  0  0  0  0  0  0
   30.6840   32.1980   17.9490 O   0  0  0  0  0  0  0  0  0  0  0  0
   30.4330   30.6840   16.2840 O   0  0  0  0  0  0  0  0  0  0  0  0
   29.5370   30.3820   15.9110 H   0  0  0  0  0  0  0  0  0  0  0  0
   30.2840   33.9350   12.7590 O   0  0  0  0  0  0  0  0  0  0  0  0
   29.8550   33.0630   12.6130 H   0  0  0  0  0  0  0  0  0  0  0  0
   30.9500   36.6440   13.8720 N   0  0  0  0  0  0  0  0  0  0  0  0
   31.7260   36.9640   12.6980 C   0  0  0  0  0  0  0  0  0  0  0  0
   30.2970   37.3440   14.2310 H   0  0  0  0  0  0  0  0  0  0  0  0
   31.6310   38.2540   11.9990 C   0  0  0  0  0  0  0  0  0  0  0  0
   32.5080   36.0480   12.3010 O   0  0  0  0  0  0  0  0  0  0  0  0
   32.9250   36.1090   17.1160 O   0  0  0  0  0  0  0  0  0  0  0  0
   33.5600   36.8450   17.1790 H   0  0  0  0  0  0  0  0  0  0  0  0
   29.6860   36.0760   18.0650 O   0  0  0  0  0  0  0  0  0  0  0  0
   29.2490   36.0550   17.1880 H   0  0  0  0  0  0  0  0  0  0  0  0
   26.9270   38.2710   15.6600 O   0  0  0  0  0  0  0  0  0  0  0  0
   26.4850   38.3400   14.3200 C   0  0  0  0  0  0  0  0  0  0  0  0
   26.4370   36.9470   13.8050 C   0  0  0  0  0  0  0  0  0  0  0  0
   26.0160   35.8060   14.4990 C   0  0  0  0  0  0  0  0  0  0  0  0
   26.7760   36.4660   12.5850 N   0  0  0  0  0  0  0  0  0  0  0  0
   26.1140   34.7270   13.7030 N   0  0  0  0  0  0  0  0  0  0  0  0
   26.5760   35.1540   12.5520 N   0  0  0  0  0  0  0  0  0  0  0  0
   25.7570   33.3920   14.1150 C   0  0  0  0  0  0  0  0  0  0  0  0
   26.4270   32.7440   15.1210 C   0  0  0  0  0  0  0  0  0  0  0  0
   24.7110   32.7200   13.4920 C   0  0  0  0  0  0  0  0  0  0  0  0
   26.1130   31.4680   15.5380 C   0  0  0  0  0  0  0  0  0  0  0  0
   24.3880   31.4510   13.8970 C   0  0  0  0  0  0  0  0  0  0  0  0
   25.0940   30.8750   14.8970 N   0  0  0  0  0  0  0  0  0  0  0  0
   26.8370   30.8020   16.6080 C   0  0  0  0  0  0  0  0  0  0  0  0
   26.6500   31.1680   17.7850 O   0  0  0  0  0  0  0  0  0  0  0  0
   27.7230   29.7770   16.3510 O   0  0  0  0  0  0  0  0  0  0  0  0
   27.7250   28.8980   16.8800 H   0  0  0  0  0  0  0  0  0  0  0  0
   23.2840   30.7150   13.2530 C   0  0  0  0  0  0  0  0  0  0  0  0
   22.1190   31.3990   12.9810 C   0  0  0  0  0  0  0  0  0  0  0  0
   23.4240   29.3930   12.9390 C   0  0  0  0  0  0  0  0  0  0  0  0
   21.0880   30.7150   12.3800 C   0  0  0  0  0  0  0  0  0  0  0  0
   22.3630   28.7440   12.3370 C   0  0  0  0  0  0  0  0  0  0  0  0
   21.1790   29.3820   12.0440 C   0  0  0  0  0  0  0  0  0  0  0  0
   29.8670   25.5550   16.9770 C   0  0  0  0  0  0  0  0  0  0  0  0
   28.3450   25.7220   17.0260 C   0  0  0  0  0  0  0  0  0  0  0  0
   27.6010   24.4010   16.9020 C   0  0  0  0  0  0  0  0  0  0  0  0
   26.3100   24.4030   17.6720 C   0  0  0  0  0  0  0  0  0  0  0  0
   26.0340   25.8080   18.1980 C   0  0  0  0  0  0  0  0  0  0  0  0
   25.8620   25.7860   19.6700 N   0  0  0  0  0  0  0  0  0  0  0  0
  1  5  1  0  0  0  0
  1  4  1  0  0  0  0
  2  1  1  0  0  0  0
  3  2  2  0  0  0  0
  6  5  1  6  0  0  0
  6 29  1  0  0  0  0
  7 27  1  1  0  0  0
  7  6  1  0  0  0  0
  8 11  1  0  0  0  0
  8  7  1  1  0  0  0
  9 14  1  6  0  0  0
  9 11  1  0  0  0  0
  9 16  1  0  0  0  0
 10  9  1  0  0  0  0
 12 20  1  6  0  0  0
 12 13  1  0  0  0  0
 12 10  1  0  0  0  0
 13 22  1  6  0  0  0
 13  8  1  0  0  0  0
 14 15  1  0  0  0  0
 16 17  2  0  0  0  0
 18 16  1  0  0  0  0
 19 18  1  0  0  0  0
 21 20  1  0  0  0  0
 22 24  1  0  0  0  0
 23 22  1  0  0  0  0
 25 23  1  0  0  0  0
 26 23  2  0  0  0  0
 27 28  1  0  0  0  0
 30 29  1  0  0  0  0
 31  2  1  0  0  0  0
 32 31  1  0  0  0  0
 33 32  1  0  0  0  0
 33 34  2  0  0  0  0
 35 33  1  0  0  0  0
 36 38  1  0  0  0  0
 36 34  1  0  0  0  0
 37 35  2  0  0  0  0
 37 36  1  0  0  0  0
 38 39  2  0  0  0  0
 39 41  1  0  0  0  0
 40 42  2  0  0  0  0
 40 38  1  0  0  0  0
 41 44  1  0  0  0  0
 42 43  1  0  0  0  0
 43 41  2  0  0  0  0
 44 45  2  0  0  0  0
 46 44  1  0  0  0  0
 46 47  1  0  0  0  0
 48 42  1  0  0  0  0
 49 48  1  0  0  0  0
 50 48  2  0  0  0  0
 51 49  2  0  0  0  0
 52 50  1  0  0  0  0
 53 52  2  0  0  0  0
 53 51  1  0  0  0  0
 54 55  1  0  0  0  0
 56 55  1  0  0  0  0
 56 57  1  0  0  0  0
 57 58  1  0  0  0  0
 58 59  1  0  0  0  0
M  END
>  <REMARK>
 VINA RESULT:    -5.961      3.078      6.237
 INTER + INTRA:         -16.404
 INTER:                  -9.574
 INTRA:                  -6.831
 UNBOUND:                -5.216
 SMILES CC(=O)N[C@@H]1[C@@H](O)C[C@](O)(C(=O)O)O[C@H]1C(O)[C@H](O)CNC(=O)OCc1cn(-c2cc(C(=O)O)nc(-c3ccccc3)c2)nn1
 SMILES IDX 21 1 22 2 23 3 20 5 18 6 16 7 15 8 9 9 8 10 14 11 6 12 5 13
 SMILES IDX 10 14 11 16 12 17 13 18 7 20 4 22 2 23 1 25 3 26 17 27 19 29
 SMILES IDX 24 31 25 32 26 33 27 34 45 35 28 36 44 37 29 38 30 39 43 40
 SMILES IDX 31 41 36 42 35 43 32 44 33 45 34 46 37 48 38 49 42 50 39 51
 SMILES IDX 41 52 40 53
 H PARENT 21 4 10 15 13 19 7 21 4 24 17 28 19 30 34 47
 Flexibility Score: inf
  4 active torsions:
  status: ('A' for Active; 'I' for Inactive)
    1  A    between atoms: CA   and  CB  
    2  A    between atoms: CB   and  CG  
    3  A    between atoms: CG   and  CD  
    4  A    between atoms: CD   and  CE  

>  <TORSDO>
F 18

>  <BEGIN_>
RES LYS A 131

$$$$
ligand_64_pose_11_2HRL.pdbqt
 OpenBabel07062320523D

  6  5  0  0  0  0  0  0  0  0999 V2000
   33.1930   34.6630    9.2900 C   0  0  0  0  0  0  0  0  0  0  0  0
   32.0600   35.3600   10.0340 C   0  0  0  0  0  0  0  0  0  0  0  0
   30.8010   35.5030    9.2180 C   0  0  0  0  0  0  0  0  0  0  0  0
   30.1690   34.1430    8.9650 C   0  0  0  0  0  0  0  0  0  0  0  0
   28.7030   34.2960    8.6070 C   0  0  0  0  0  0  0  0  0  0  0  0
   27.8300   33.6680    9.6370 N   0  0  0  0  0  0  0  0  0  0  0  0
  1  2  1  0  0  0  0
  3  2  1  0  0  0  0
  4  3  1  0  0  0  0
  5  4  1  0  0  0  0
  5  6  1  0  0  0  0
M  END
>  <EGIN_R>
ES LYS A 135

>  <REMARK>
  4 active torsions:
  status: ('A' for Active; 'I' for Inactive)
    5  A    between atoms: CA   and  CB  
    6  A    between atoms: CB   and  CG  
    7  A    between atoms: CG   and  CD  
    8  A    between atoms: CD   and  CE  

$$$$
