ligand_83_pose_10_2HRL.pdbqt
 OpenBabel07062320523D

 56 57  0  0  1  0  0  0  0  0999 V2000
   21.3160   36.6700   11.6110 O   0  0  0  0  0  0  0  0  0  0  0  0
   21.9200   37.8980   11.2920 C   0  0  0  0  0  0  0  0  0  0  0  0
   22.0910   38.3450    9.9780 N   0  0  0  0  0  0  0  0  0  0  0  0
   21.7430   37.7090    9.1980 H   0  0  0  0  0  0  0  0  0  0  0  0
   22.3010   38.5840   12.2510 O   0  0  0  0  0  0  0  0  0  0  0  0
   22.7020   39.5990    9.6090 C   0  0  0  0  0  0  0  0  0  0  0  0
   24.1450   39.3400    9.2680 C   0  0  2  0  0  0  0  0  0  0  0  0
   24.1920   38.6330    7.9340 C   0  0  2  0  0  0  0  0  0  0  0  0
   25.4790   38.9600    7.1880 C   0  0  2  0  0  0  0  0  0  0  0  0
   27.6580   38.1530    7.0230 C   0  0  2  0  0  0  0  0  0  0  0  0
   28.0450   39.6120    6.8760 C   0  0  0  0  0  0  0  0  0  0  0  0
   26.4190   38.0600    7.6090 O   0  0  0  0  0  0  0  0  0  0  0  0
   27.2990   40.4360    7.9020 C   0  0  1  0  0  0  0  0  0  0  0  0
   25.8320   40.4060    7.4890 C   0  0  1  0  0  0  0  0  0  0  0  0
   28.5630   37.4930    7.8780 O   0  0  0  0  0  0  0  0  0  0  0  0
   28.1150   36.6700    8.1820 H   0  0  0  0  0  0  0  0  0  0  0  0
   27.6400   37.4460    5.7360 C   0  0  0  0  0  0  0  0  0  0  0  0
   27.7530   36.2110    5.6910 O   0  0  0  0  0  0  0  0  0  0  0  0
   27.4980   38.1520    4.5550 O   0  0  0  0  0  0  0  0  0  0  0  0
   28.1020   38.9230    4.3400 H   0  0  0  0  0  0  0  0  0  0  0  0
   27.3590   39.9020    9.1790 O   0  0  0  0  0  0  0  0  0  0  0  0
   27.5270   38.9400    9.1410 H   0  0  0  0  0  0  0  0  0  0  0  0
   25.6530   41.2540    6.3460 N   0  0  0  0  0  0  0  0  0  0  0  0
   24.5050   42.0620    6.2200 C   0  0  0  0  0  0  0  0  0  0  0  0
   26.3510   41.3170    5.5570 H   0  0  0  0  0  0  0  0  0  0  0  0
   24.3250   42.9440    5.0260 C   0  0  0  0  0  0  0  0  0  0  0  0
   23.6130   42.0590    7.1070 O   0  0  0  0  0  0  0  0  0  0  0  0
   23.1530   39.1020    7.1560 O   0  0  0  0  0  0  0  0  0  0  0  0
   22.4070   39.4660    7.6880 H   0  0  0  0  0  0  0  0  0  0  0  0
   24.8010   38.6210   10.2620 O   0  0  0  0  0  0  0  0  0  0  0  0
   25.6080   38.2290    9.8430 H   0  0  0  0  0  0  0  0  0  0  0  0
   21.7680   35.4730   10.9590 C   0  0  0  0  0  0  0  0  0  0  0  0
   23.2130   35.4850   10.7550 C   0  0  0  0  0  0  0  0  0  0  0  0
   24.1690   35.3970   11.7360 C   0  0  0  0  0  0  0  0  0  0  0  0
   23.8360   35.5860    9.5710 N   0  0  0  0  0  0  0  0  0  0  0  0
   25.3550   35.4480   11.1140 N   0  0  0  0  0  0  0  0  0  0  0  0
   25.1340   35.5590    9.8260 N   0  0  0  0  0  0  0  0  0  0  0  0
   26.6540   35.3830   11.8060 C   0  0  0  0  0  0  0  0  0  0  0  0
   27.3090   36.7460   11.8000 C   0  0  2  0  0  0  0  0  0  0  0  0
   27.3790   37.1190   10.4390 O   0  0  0  0  0  0  0  0  0  0  0  0
   26.8730   37.9310   10.2490 H   0  0  0  0  0  0  0  0  0  0  0  0
   28.6730   36.6420   12.4020 C   0  0  0  0  0  0  0  0  0  0  0  0
   29.0760   37.9760   12.8550 N   0  0  0  0  0  0  0  0  0  0  0  0
   28.6430   38.6070   13.9710 C   0  0  0  0  0  0  0  0  0  0  0  0
   29.9420   38.7480   12.2220 C   0  0  0  0  0  0  0  0  0  0  0  0
   29.2670   39.8110   14.0260 C   0  0  0  0  0  0  0  0  0  0  0  0
   30.0580   39.8900   12.9570 N   0  0  0  0  0  0  0  0  0  0  0  0
   30.6470   38.4830   10.9980 N   0  0  0  0  0  0  0  0  0  0  0  0
   31.8120   38.0540   10.9650 O   0  0  0  0  0  0  0  0  0  0  0  0
   30.0080   38.7120    9.7970 O   0  0  0  0  0  0  0  0  0  0  0  0
   29.8670   25.5550   16.9770 C   0  0  0  0  0  0  0  0  0  0  0  0
   28.3450   25.7220   17.0260 C   0  0  0  0  0  0  0  0  0  0  0  0
   27.6010   24.4010   16.9030 C   0  0  0  0  0  0  0  0  0  0  0  0
   26.5290   24.2550   17.9460 C   0  0  0  0  0  0  0  0  0  0  0  0
   25.1590   24.3080   17.2790 C   0  0  0  0  0  0  0  0  0  0  0  0
   24.5390   22.9620   17.2560 N   0  0  0  0  0  0  0  0  0  0  0  0
  2  1  1  0  0  0  0
  2  5  2  0  0  0  0
  3  2  1  0  0  0  0
  4  3  1  0  0  0  0
  6  3  1  0  0  0  0
  7  6  1  1  0  0  0
  7 30  1  0  0  0  0
  8 28  1  6  0  0  0
  8  7  1  0  0  0  0
  9 14  1  0  0  0  0
  9 12  1  0  0  0  0
  9  8  1  1  0  0  0
 10 17  1  6  0  0  0
 10 12  1  0  0  0  0
 10 15  1  0  0  0  0
 11 10  1  0  0  0  0
 11 13  1  0  0  0  0
 13 21  1  1  0  0  0
 14 23  1  6  0  0  0
 14 13  1  0  0  0  0
 15 16  1  0  0  0  0
 18 17  2  0  0  0  0
 19 17  1  0  0  0  0
 20 19  1  0  0  0  0
 22 21  1  0  0  0  0
 24 23  1  0  0  0  0
 24 27  2  0  0  0  0
 25 23  1  0  0  0  0
 26 24  1  0  0  0  0
 28 29  1  0  0  0  0
 31 30  1  0  0  0  0
 32  1  1  0  0  0  0
 33 32  1  0  0  0  0
 33 34  2  0  0  0  0
 35 37  2  0  0  0  0
 35 33  1  0  0  0  0
 36 34  1  0  0  0  0
 36 38  1  0  0  0  0
 37 36  1  0  0  0  0
 39 38  1  6  0  0  0
 39 42  1  0  0  0  0
 40 39  1  0  0  0  0
 41 40  1  0  0  0  0
 42 43  1  0  0  0  0
 43 44  1  0  0  0  0
 44 46  2  0  0  0  0
 45 43  1  0  0  0  0
 45 47  2  0  0  0  0
 47 46  1  0  0  0  0
 48 45  1  0  0  0  0
 49 48  2  0  0  0  0
 50 48  2  0  0  0  0
 51 52  1  0  0  0  0
 53 52  1  0  0  0  0
 53 54  1  0  0  0  0
 55 54  1  0  0  0  0
 56 55  1  0  0  0  0
M  END
>  <REMARK>
 VINA RESULT:    -3.645      8.617     14.304
 INTER + INTRA:         -15.714
 INTER:                  -6.693
 INTRA:                  -9.020
 UNBOUND:                -8.446
 SMILES CC(=O)N[C@@H]1[C@@H](O)C[C@](O)(C(=O)O)O[C@H]1C(O)[C@H](O)CNC(=O)OCc1cn(CC(O)Cn2ccnc2[N+](=O)[O-])nn1
 SMILES IDX 24 1 22 2 21 3 23 5 20 6 18 7 16 8 15 9 9 10 8 11 14 12 6 13
 SMILES IDX 5 14 10 15 11 17 12 18 13 19 7 21 4 23 2 24 1 26 3 27 17 28
 SMILES IDX 19 30 25 32 26 33 27 34 42 35 28 36 41 37 29 38 30 39 31 40
 SMILES IDX 32 42 33 43 34 44 37 45 35 46 36 47 38 48 39 49 40 50
 H PARENT 21 4 10 16 13 20 7 22 4 25 17 29 19 31 31 41
 Flexibility Score: inf
  4 active torsions:
  status: ('A' for Active; 'I' for Inactive)
    1  A    between atoms: CA   and  CB  
    2  A    between atoms: CB   and  CG  
    3  A    between atoms: CG   and  CD  
    4  A    between atoms: CD   and  CE  

>  <TORSDO>
F 20

>  <BEGIN_>
RES LYS A 131

$$$$
ligand_83_pose_10_2HRL.pdbqt
 OpenBabel07062320523D

  6  5  0  0  0  0  0  0  0  0999 V2000
   33.1930   34.6630    9.2900 C   0  0  0  0  0  0  0  0  0  0  0  0
   32.0600   35.3600   10.0340 C   0  0  0  0  0  0  0  0  0  0  0  0
   30.7460   34.6260    9.9560 C   0  0  0  0  0  0  0  0  0  0  0  0
   30.3260   34.4310    8.5070 C   0  0  0  0  0  0  0  0  0  0  0  0
   28.8150   34.3540    8.3960 C   0  0  0  0  0  0  0  0  0  0  0  0
   28.2300   33.6180    9.5520 N   0  0  0  0  0  0  0  0  0  0  0  0
  1  2  1  0  0  0  0
  3  2  1  0  0  0  0
  4  3  1  0  0  0  0
  5  4  1  0  0  0  0
  5  6  1  0  0  0  0
M  END
>  <EGIN_R>
ES LYS A 135

>  <REMARK>
  4 active torsions:
  status: ('A' for Active; 'I' for Inactive)
    5  A    between atoms: CA   and  CB  
    6  A    between atoms: CB   and  CG  
    7  A    between atoms: CG   and  CD  
    8  A    between atoms: CD   and  CE  

$$$$
