ligand_21_pose_10_2HRL.pdbqt
 OpenBabel07062320523D

 54 55  0  0  1  0  0  0  0  0999 V2000
   25.9340   42.0300    8.2530 N   0  0  0  0  0  0  0  0  0  0  0  0
   24.5220   41.9130    8.4250 C   0  0  0  0  0  0  0  0  0  0  0  0
   23.9530   42.7160    9.1950 O   0  0  0  0  0  0  0  0  0  0  0  0
   26.3960   41.3560    7.6120 H   0  0  0  0  0  0  0  0  0  0  0  0
   26.6830   43.0420    8.9480 C   0  0  0  0  0  0  0  0  0  0  0  0
   27.7500   42.3450    9.7990 C   0  0  2  0  0  0  0  0  0  0  0  0
   28.7500   41.6900    8.8870 C   0  0  2  0  0  0  0  0  0  0  0  0
   29.0430   40.3030    9.3930 C   0  0  2  0  0  0  0  0  0  0  0  0
   30.1500   39.1970   11.1130 C   0  0  2  0  0  0  0  0  0  0  0  0
   31.2020   38.6670   10.1670 C   0  0  0  0  0  0  0  0  0  0  0  0
   29.7040   40.3930   10.5780 O   0  0  0  0  0  0  0  0  0  0  0  0
   30.5530   38.3710    8.8590 C   0  0  1  0  0  0  0  0  0  0  0  0
   29.7030   39.4940    8.3340 C   0  0  1  0  0  0  0  0  0  0  0  0
   30.8440   39.5340   12.2950 O   0  0  0  0  0  0  0  0  0  0  0  0
   31.8100   39.3620   12.2110 H   0  0  0  0  0  0  0  0  0  0  0  0
   29.0760   38.2290   11.4090 C   0  0  0  0  0  0  0  0  0  0  0  0
   29.2690   37.0070   11.6190 O   0  0  0  0  0  0  0  0  0  0  0  0
   27.7680   38.6720   11.4640 O   0  0  0  0  0  0  0  0  0  0  0  0
   26.9600   38.0890   11.2360 H   0  0  0  0  0  0  0  0  0  0  0  0
   31.5880   38.0750    7.9430 O   0  0  0  0  0  0  0  0  0  0  0  0
   32.4190   38.5440    8.2500 H   0  0  0  0  0  0  0  0  0  0  0  0
   28.6790   38.9230    7.4810 N   0  0  0  0  0  0  0  0  0  0  0  0
   28.8590   38.7780    6.0720 C   0  0  0  0  0  0  0  0  0  0  0  0
   27.7730   38.6000    7.8830 H   0  0  0  0  0  0  0  0  0  0  0  0
   27.7790   38.1880    5.2500 C   0  0  0  0  0  0  0  0  0  0  0  0
   29.9280   39.1500    5.5440 O   0  0  0  0  0  0  0  0  0  0  0  0
   29.9340   42.4310    8.7970 O   0  0  0  0  0  0  0  0  0  0  0  0
   29.9080   42.9650    7.9690 H   0  0  0  0  0  0  0  0  0  0  0  0
   27.0950   41.4720   10.6380 O   0  0  0  0  0  0  0  0  0  0  0  0
   26.2030   41.2110   10.3280 H   0  0  0  0  0  0  0  0  0  0  0  0
   23.8210   40.9300    7.7470 O   0  0  0  0  0  0  0  0  0  0  0  0
   24.4620   40.0140    6.8890 C   0  0  0  0  0  0  0  0  0  0  0  0
   25.0240   38.9200    7.6960 C   0  0  0  0  0  0  0  0  0  0  0  0
   24.7450   37.5570    7.5600 C   0  0  0  0  0  0  0  0  0  0  0  0
   25.9110   38.9910    8.7220 N   0  0  0  0  0  0  0  0  0  0  0  0
   25.4530   36.9100    8.4780 N   0  0  0  0  0  0  0  0  0  0  0  0
   26.1580   37.7800    9.1800 N   0  0  0  0  0  0  0  0  0  0  0  0
   25.4660   35.4770    8.6860 C   0  0  0  0  0  0  0  0  0  0  0  0
   26.9120   35.0720    8.7130 C   0  0  0  0  0  0  0  0  0  0  0  0
   27.3920   34.4410    9.8300 C   0  0  0  0  0  0  0  0  0  0  0  0
   27.7140   35.3400    7.6340 C   0  0  0  0  0  0  0  0  0  0  0  0
   28.7050   34.0530    9.9040 C   0  0  0  0  0  0  0  0  0  0  0  0
   29.0560   34.9500    7.6940 C   0  0  0  0  0  0  0  0  0  0  0  0
   29.5150   34.3210    8.8200 C   0  0  0  0  0  0  0  0  0  0  0  0
   26.5480   34.1880   10.9010 O   0  0  0  0  0  0  0  0  0  0  0  0
   26.6530   35.0220   12.0130 C   0  0  0  0  0  0  0  0  0  0  0  0
   26.1030   36.1480   11.9940 O   0  0  0  0  0  0  0  0  0  0  0  0
   27.4050   34.5940   13.2170 C   0  0  0  0  0  0  0  0  0  0  0  0
   29.8670   25.5550   16.9770 C   0  0  0  0  0  0  0  0  0  0  0  0
   28.3450   25.7220   17.0260 C   0  0  0  0  0  0  0  0  0  0  0  0
   27.6020   24.3970   16.9490 C   0  0  0  0  0  0  0  0  0  0  0  0
   26.1230   24.5630   17.1620 C   0  0  0  0  0  0  0  0  0  0  0  0
   25.5420   23.2720   17.7280 C   0  0  0  0  0  0  0  0  0  0  0  0
   25.6510   23.2580   19.2060 N   0  0  0  0  0  0  0  0  0  0  0  0
  1  2  1  0  0  0  0
  1  5  1  0  0  0  0
  2  3  2  0  0  0  0
  4  1  1  0  0  0  0
  6  5  1  6  0  0  0
  6 29  1  0  0  0  0
  7 27  1  1  0  0  0
  7  6  1  0  0  0  0
  8  7  1  6  0  0  0
  8 11  1  0  0  0  0
  9 16  1  1  0  0  0
  9 14  1  0  0  0  0
 10  9  1  0  0  0  0
 11  9  1  0  0  0  0
 12 20  1  6  0  0  0
 12 10  1  0  0  0  0
 13 22  1  6  0  0  0
 13 12  1  0  0  0  0
 13  8  1  0  0  0  0
 15 14  1  0  0  0  0
 16 18  1  0  0  0  0
 16 17  2  0  0  0  0
 19 18  1  0  0  0  0
 20 21  1  0  0  0  0
 22 24  1  0  0  0  0
 23 22  1  0  0  0  0
 25 23  1  0  0  0  0
 26 23  2  0  0  0  0
 28 27  1  0  0  0  0
 30 29  1  0  0  0  0
 31  2  1  0  0  0  0
 32 33  1  0  0  0  0
 32 31  1  0  0  0  0
 33 35  1  0  0  0  0
 34 33  2  0  0  0  0
 34 36  1  0  0  0  0
 35 37  2  0  0  0  0
 36 38  1  0  0  0  0
 36 37  1  0  0  0  0
 38 39  1  0  0  0  0
 39 40  2  0  0  0  0
 40 42  1  0  0  0  0
 40 45  1  0  0  0  0
 41 43  2  0  0  0  0
 41 39  1  0  0  0  0
 43 44  1  0  0  0  0
 44 42  2  0  0  0  0
 45 46  1  0  0  0  0
 46 48  1  0  0  0  0
 47 46  2  0  0  0  0
 49 50  1  0  0  0  0
 51 50  1  0  0  0  0
 51 52  1  0  0  0  0
 52 53  1  0  0  0  0
 53 54  1  0  0  0  0
M  END
>  <REMARK>
 VINA RESULT:    -4.675      2.780      5.357
 INTER + INTRA:         -15.185
 INTER:                  -8.731
 INTRA:                  -6.455
 UNBOUND:                -6.275
 SMILES CC(=O)N[C@@H]1[C@@H](O)C[C@](O)(C(=O)O)O[C@H]1C(O)[C@H](O)CNC(=O)OCc1cn(Cc2ccccc2OC(C)=O)nn1
 SMILES IDX 21 1 22 2 23 3 20 5 18 6 16 7 15 8 9 9 8 10 14 11 6 12 5 13
 SMILES IDX 10 14 11 16 12 17 13 18 7 20 4 22 2 23 1 25 3 26 17 27 19 29
 SMILES IDX 24 31 25 32 26 33 27 34 41 35 28 36 40 37 29 38 30 39 35 40
 SMILES IDX 31 41 34 42 32 43 33 44 36 45 37 46 39 47 38 48
 H PARENT 21 4 10 15 13 19 7 21 4 24 17 28 19 30
 Flexibility Score: inf
  4 active torsions:
  status: ('A' for Active; 'I' for Inactive)
    1  A    between atoms: CA   and  CB  
    2  A    between atoms: CB   and  CG  
    3  A    between atoms: CG   and  CD  
    4  A    between atoms: CD   and  CE  

>  <TORSDO>
F 18

>  <BEGIN_>
RES LYS A 131

$$$$
ligand_21_pose_10_2HRL.pdbqt
 OpenBabel07062320523D

  6  5  0  0  0  0  0  0  0  0999 V2000
   33.1930   34.6630    9.2900 C   0  0  0  0  0  0  0  0  0  0  0  0
   32.0600   35.3600   10.0340 C   0  0  0  0  0  0  0  0  0  0  0  0
   32.0460   35.0750   11.5140 C   0  0  0  0  0  0  0  0  0  0  0  0
   32.6430   36.2380   12.2900 C   0  0  0  0  0  0  0  0  0  0  0  0
   32.0680   36.2940   13.6930 C   0  0  0  0  0  0  0  0  0  0  0  0
   31.2050   35.1120   13.9660 N   0  0  0  0  0  0  0  0  0  0  0  0
  1  2  1  0  0  0  0
  2  3  1  0  0  0  0
  3  4  1  0  0  0  0
  4  5  1  0  0  0  0
  5  6  1  0  0  0  0
M  END
>  <EGIN_R>
ES LYS A 135

>  <REMARK>
  4 active torsions:
  status: ('A' for Active; 'I' for Inactive)
    5  A    between atoms: CA   and  CB  
    6  A    between atoms: CB   and  CG  
    7  A    between atoms: CG   and  CD  
    8  A    between atoms: CD   and  CE  

$$$$
