ligand_37_pose_11_2HRL.pdbqt
 OpenBabel07062320523D

 55 56  0  0  1  0  0  0  0  0999 V2000
   30.6870   40.5720    9.5150 O   0  0  0  0  0  0  0  0  0  0  0  0
   29.7650   40.2140    8.5040 C   0  0  0  0  0  0  0  0  0  0  0  0
   29.2560   38.9000    8.4340 N   0  0  0  0  0  0  0  0  0  0  0  0
   29.6280   38.2250    9.1740 H   0  0  0  0  0  0  0  0  0  0  0  0
   29.4530   41.1250    7.7140 O   0  0  0  0  0  0  0  0  0  0  0  0
   28.3090   38.4720    7.4530 C   0  0  0  0  0  0  0  0  0  0  0  0
   26.9040   38.7770    7.8530 C   0  0  2  0  0  0  0  0  0  0  0  0
   25.9510   37.7640    7.2230 C   0  0  2  0  0  0  0  0  0  0  0  0
   25.2030   36.9440    8.2280 C   0  0  2  0  0  0  0  0  0  0  0  0
   23.1160   37.9930    8.0380 C   0  0  2  0  0  0  0  0  0  0  0  0
   23.4030   38.7330    9.3050 C   0  0  0  0  0  0  0  0  0  0  0  0
   23.8450   36.8400    7.8810 O   0  0  0  0  0  0  0  0  0  0  0  0
   24.0600   37.7870   10.2890 C   0  0  1  0  0  0  0  0  0  0  0  0
   25.3710   37.3470    9.6560 C   0  0  1  0  0  0  0  0  0  0  0  0
   23.2550   38.8280    6.9540 O   0  0  0  0  0  0  0  0  0  0  0  0
   23.9310   39.5470    7.0980 H   0  0  0  0  0  0  0  0  0  0  0  0
   21.6740   37.5550    8.0740 C   0  0  0  0  0  0  0  0  0  0  0  0
   20.8620   38.0870    8.8740 O   0  0  0  0  0  0  0  0  0  0  0  0
   21.1850   36.5620    7.2380 O   0  0  0  0  0  0  0  0  0  0  0  0
   21.7040   36.2510    6.4020 H   0  0  0  0  0  0  0  0  0  0  0  0
   24.2570   38.4050   11.5080 O   0  0  0  0  0  0  0  0  0  0  0  0
   24.8580   39.1900   11.4550 H   0  0  0  0  0  0  0  0  0  0  0  0
   25.9690   36.2910   10.4790 N   0  0  0  0  0  0  0  0  0  0  0  0
   27.2600   36.4160   11.0720 C   0  0  0  0  0  0  0  0  0  0  0  0
   25.4530   35.3900   10.6590 H   0  0  0  0  0  0  0  0  0  0  0  0
   27.8160   35.3030   11.9010 C   0  0  0  0  0  0  0  0  0  0  0  0
   27.9230   37.4650   10.8940 O   0  0  0  0  0  0  0  0  0  0  0  0
   26.6910   36.8960    6.4110 O   0  0  0  0  0  0  0  0  0  0  0  0
   26.6580   35.9810    6.8020 H   0  0  0  0  0  0  0  0  0  0  0  0
   26.5630   40.0610    7.4310 O   0  0  0  0  0  0  0  0  0  0  0  0
   26.2060   40.0710    6.4950 H   0  0  0  0  0  0  0  0  0  0  0  0
   30.2770   40.4940   10.8640 C   0  0  0  0  0  0  0  0  0  0  0  0
   30.8510   39.3230   11.5530 C   0  0  0  0  0  0  0  0  0  0  0  0
   30.8520   39.0250   12.8950 C   0  0  0  0  0  0  0  0  0  0  0  0
   31.4960   38.3070   10.9570 N   0  0  0  0  0  0  0  0  0  0  0  0
   31.4920   37.8460   13.0840 N   0  0  0  0  0  0  0  0  0  0  0  0
   31.8680   37.4380   11.9030 N   0  0  0  0  0  0  0  0  0  0  0  0
   31.7000   37.1970   14.3510 C   0  0  1  0  0  0  0  0  0  0  0  0
   31.4810   38.1770   15.4820 C   0  0  0  0  0  0  0  0  0  0  0  0
   30.8310   36.0160   14.4430 C   0  0  0  0  0  0  0  0  0  0  0  0
   29.6030   36.1650   14.7180 O   0  0  0  0  0  0  0  0  0  0  0  0
   31.2940   34.7330   14.2430 O   0  0  0  0  0  0  0  0  0  0  0  0
   32.2330   34.0560   15.0170 C   0  0  0  0  0  0  0  0  0  0  0  0
   31.5240   33.2020   16.0100 C   0  0  0  0  0  0  0  0  0  0  0  0
   31.0020   31.9840   15.6340 C   0  0  0  0  0  0  0  0  0  0  0  0
   31.3900   33.6240   17.3050 C   0  0  0  0  0  0  0  0  0  0  0  0
   30.3500   31.1920   16.5470 C   0  0  0  0  0  0  0  0  0  0  0  0
   30.7460   32.8570   18.2350 C   0  0  0  0  0  0  0  0  0  0  0  0
   30.2270   31.6430   17.8550 C   0  0  0  0  0  0  0  0  0  0  0  0
   29.8670   25.5550   16.9770 C   0  0  0  0  0  0  0  0  0  0  0  0
   28.3450   25.7220   17.0260 C   0  0  0  0  0  0  0  0  0  0  0  0
   27.5990   24.4200   16.7760 C   0  0  0  0  0  0  0  0  0  0  0  0
   26.8880   23.9290   18.0060 C   0  0  0  0  0  0  0  0  0  0  0  0
   25.6880   24.8260   18.2920 C   0  0  0  0  0  0  0  0  0  0  0  0
   25.9010   25.5950   19.5410 N   0  0  0  0  0  0  0  0  0  0  0  0
  1 32  1  0  0  0  0
  2  1  1  0  0  0  0
  3  2  1  0  0  0  0
  3  4  1  0  0  0  0
  5  2  2  0  0  0  0
  6  3  1  0  0  0  0
  7  6  1  6  0  0  0
  8 28  1  6  0  0  0
  8  7  1  0  0  0  0
  9  8  1  6  0  0  0
  9 14  1  0  0  0  0
 10 15  1  6  0  0  0
 10 17  1  0  0  0  0
 10 11  1  0  0  0  0
 11 13  1  0  0  0  0
 12 10  1  0  0  0  0
 12  9  1  0  0  0  0
 13 21  1  1  0  0  0
 14 13  1  0  0  0  0
 14 23  1  1  0  0  0
 15 16  1  0  0  0  0
 17 18  2  0  0  0  0
 19 17  1  0  0  0  0
 20 19  1  0  0  0  0
 22 21  1  0  0  0  0
 23 25  1  0  0  0  0
 23 24  1  0  0  0  0
 24 26  1  0  0  0  0
 27 24  2  0  0  0  0
 28 29  1  0  0  0  0
 30  7  1  0  0  0  0
 31 30  1  0  0  0  0
 32 33  1  0  0  0  0
 33 34  2  0  0  0  0
 34 36  1  0  0  0  0
 35 33  1  0  0  0  0
 35 37  2  0  0  0  0
 36 38  1  0  0  0  0
 37 36  1  0  0  0  0
 38 40  1  0  0  0  0
 38 39  1  1  0  0  0
 40 41  2  0  0  0  0
 42 40  1  0  0  0  0
 42 43  1  0  0  0  0
 43 44  1  0  0  0  0
 44 46  1  0  0  0  0
 45 44  2  0  0  0  0
 45 47  1  0  0  0  0
 46 48  2  0  0  0  0
 47 49  2  0  0  0  0
 49 48  1  0  0  0  0
 50 51  1  0  0  0  0
 52 51  1  0  0  0  0
 52 53  1  0  0  0  0
 53 54  1  0  0  0  0
 54 55  1  0  0  0  0
M  END
>  <REMARK>
 VINA RESULT:    -5.594      3.182      6.203
 INTER + INTRA:         -16.100
 INTER:                 -10.136
 INTRA:                  -5.964
 UNBOUND:                -5.110
 SMILES CC(=O)N[C@@H]1[C@@H](O)C[C@](O)(C(=O)O)O[C@H]1C(O)[C@H](O)CNC(=O)OCc1cn([C@@H](C)C(=O)OCc2ccccc2)nn1
 SMILES IDX 24 1 22 2 21 3 23 5 20 6 18 7 16 8 15 9 9 10 8 11 14 12 6 13
 SMILES IDX 5 14 10 15 11 17 12 18 13 19 7 21 4 23 2 24 1 26 3 27 17 28
 SMILES IDX 19 30 25 32 26 33 27 34 42 35 28 36 41 37 29 38 30 39 31 40
 SMILES IDX 32 41 33 42 34 43 35 44 36 45 40 46 37 47 39 48 38 49
 H PARENT 21 4 10 16 13 20 7 22 4 25 17 29 19 31
 Flexibility Score: inf
  4 active torsions:
  status: ('A' for Active; 'I' for Inactive)
    1  A    between atoms: CA   and  CB  
    2  A    between atoms: CB   and  CG  
    3  A    between atoms: CG   and  CD  
    4  A    between atoms: CD   and  CE  

>  <TORSDO>
F 19

>  <BEGIN_>
RES LYS A 131

$$$$
ligand_37_pose_11_2HRL.pdbqt
 OpenBabel07062320523D

  6  5  0  0  0  0  0  0  0  0999 V2000
   33.1930   34.6630    9.2900 C   0  0  0  0  0  0  0  0  0  0  0  0
   32.0600   35.3600   10.0340 C   0  0  0  0  0  0  0  0  0  0  0  0
   30.6900   34.8660    9.6450 C   0  0  0  0  0  0  0  0  0  0  0  0
   30.6510   34.4980    8.1700 C   0  0  0  0  0  0  0  0  0  0  0  0
   29.3640   34.9860    7.5340 C   0  0  0  0  0  0  0  0  0  0  0  0
   28.1760   34.5310    8.3090 N   0  0  0  0  0  0  0  0  0  0  0  0
  1  2  1  0  0  0  0
  3  2  1  0  0  0  0
  4  3  1  0  0  0  0
  5  4  1  0  0  0  0
  5  6  1  0  0  0  0
M  END
>  <EGIN_R>
ES LYS A 135

>  <REMARK>
  4 active torsions:
  status: ('A' for Active; 'I' for Inactive)
    5  A    between atoms: CA   and  CB  
    6  A    between atoms: CB   and  CG  
    7  A    between atoms: CG   and  CD  
    8  A    between atoms: CD   and  CE  

$$$$
