ligand_43_pose_5_2HRL.pdbqt
 OpenBabel07062320523D

 49 49  0  0  1  0  0  0  0  0999 V2000
   29.0620   31.7030   18.0430 O   0  0  0  0  0  0  0  0  0  0  0  0
   29.1580   30.9910   19.2230 C   0  0  0  0  0  0  0  0  0  0  0  0
   30.2380   30.0540   19.3360 N   0  0  0  0  0  0  0  0  0  0  0  0
   30.8920   29.9550   18.5370 H   0  0  0  0  0  0  0  0  0  0  0  0
   28.3280   31.1520   20.1740 O   0  0  0  0  0  0  0  0  0  0  0  0
   30.4300   29.2680   20.5080 C   0  0  0  0  0  0  0  0  0  0  0  0
   30.1670   27.7750   20.2980 C   0  0  2  0  0  0  0  0  0  0  0  0
   28.8100   27.5100   20.8990 C   0  0  2  0  0  0  0  0  0  0  0  0
   27.7460   27.2120   19.8940 C   0  0  2  0  0  0  0  0  0  0  0  0
   26.4990   28.4930   18.4130 C   0  0  2  0  0  0  0  0  0  0  0  0
   25.6210   27.2610   18.3390 C   0  0  0  0  0  0  0  0  0  0  0  0
   27.7490   28.1580   18.9050 O   0  0  0  0  0  0  0  0  0  0  0  0
   25.2580   26.8800   19.7560 C   0  0  1  0  0  0  0  0  0  0  0  0
   26.4200   27.2020   20.6670 C   0  0  1  0  0  0  0  0  0  0  0  0
   25.8900   29.5010   19.1540 O   0  0  0  0  0  0  0  0  0  0  0  0
   26.3120   29.5750   20.0390 H   0  0  0  0  0  0  0  0  0  0  0  0
   26.6460   29.0010   17.0260 C   0  0  0  0  0  0  0  0  0  0  0  0
   27.7640   29.0890   16.4560 O   0  0  0  0  0  0  0  0  0  0  0  0
   25.5410   29.4140   16.2630 O   0  0  0  0  0  0  0  0  0  0  0  0
   25.7100   30.0970   15.5280 H   0  0  0  0  0  0  0  0  0  0  0  0
   24.1800   27.6420   20.1640 O   0  0  0  0  0  0  0  0  0  0  0  0
   24.1750   28.5020   19.6770 H   0  0  0  0  0  0  0  0  0  0  0  0
   26.5450   26.2340   21.7420 N   0  0  0  0  0  0  0  0  0  0  0  0
   26.2880   26.5450   23.1070 C   0  0  0  0  0  0  0  0  0  0  0  0
   26.8390   25.2330   21.5580 H   0  0  0  0  0  0  0  0  0  0  0  0
   26.4210   25.5400   24.2030 C   0  0  0  0  0  0  0  0  0  0  0  0
   25.9360   27.7310   23.3600 O   0  0  0  0  0  0  0  0  0  0  0  0
   28.5080   28.6340   21.6860 O   0  0  0  0  0  0  0  0  0  0  0  0
   27.7260   28.4730   22.2720 H   0  0  0  0  0  0  0  0  0  0  0  0
   31.1760   27.0000   20.8280 O   0  0  0  0  0  0  0  0  0  0  0  0
   31.8810   26.7470   20.2100 H   0  0  0  0  0  0  0  0  0  0  0  0
   28.4120   32.9460   18.0150 C   0  0  0  0  0  0  0  0  0  0  0  0
   27.0890   32.7250   17.3430 C   0  0  0  0  0  0  0  0  0  0  0  0
   26.8470   32.9990   16.0070 C   0  0  0  0  0  0  0  0  0  0  0  0
   25.9410   32.2570   17.8320 N   0  0  0  0  0  0  0  0  0  0  0  0
   25.5730   32.6900   15.7350 N   0  0  0  0  0  0  0  0  0  0  0  0
   25.0470   32.2430   16.8590 N   0  0  0  0  0  0  0  0  0  0  0  0
   24.8410   32.7970   14.4810 C   0  0  0  0  0  0  0  0  0  0  0  0
   24.9600   31.5120   13.7070 C   0  0  0  0  0  0  0  0  0  0  0  0
   23.6210   31.0570   13.1830 C   0  0  0  0  0  0  0  0  0  0  0  0
   23.6130   29.5940   12.8230 C   0  0  0  0  0  0  0  0  0  0  0  0
   22.2550   29.1810   12.4050 C   0  0  0  0  0  0  0  0  0  0  0  0
   21.2410   30.0160   12.3460 C   0  0  0  0  0  0  0  0  0  0  0  0
   29.8670   25.5550   16.9770 C   0  0  0  0  0  0  0  0  0  0  0  0
   28.3450   25.7220   17.0260 C   0  0  0  0  0  0  0  0  0  0  0  0
   27.5990   24.4430   16.6800 C   0  0  0  0  0  0  0  0  0  0  0  0
   26.8670   23.8760   17.8650 C   0  0  0  0  0  0  0  0  0  0  0  0
   25.4040   23.6470   17.4980 C   0  0  0  0  0  0  0  0  0  0  0  0
   25.0570   22.2110   17.6210 N   0  0  0  0  0  0  0  0  0  0  0  0
  1  2  1  0  0  0  0
  2  3  1  0  0  0  0
  2  5  2  0  0  0  0
  3  6  1  0  0  0  0
  4  3  1  0  0  0  0
  7  6  1  1  0  0  0
  7 30  1  0  0  0  0
  7  8  1  0  0  0  0
  8 28  1  6  0  0  0
  9 14  1  0  0  0  0
  9  8  1  1  0  0  0
 10 17  1  6  0  0  0
 10 12  1  0  0  0  0
 10 15  1  0  0  0  0
 11 10  1  0  0  0  0
 11 13  1  0  0  0  0
 12  9  1  0  0  0  0
 13 21  1  1  0  0  0
 13 14  1  0  0  0  0
 14 23  1  1  0  0  0
 15 16  1  0  0  0  0
 18 17  2  0  0  0  0
 19 17  1  0  0  0  0
 20 19  1  0  0  0  0
 22 21  1  0  0  0  0
 23 24  1  0  0  0  0
 24 27  2  0  0  0  0
 24 26  1  0  0  0  0
 25 23  1  0  0  0  0
 28 29  1  0  0  0  0
 31 30  1  0  0  0  0
 32  1  1  0  0  0  0
 33 35  1  0  0  0  0
 33 32  1  0  0  0  0
 34 33  2  0  0  0  0
 36 34  1  0  0  0  0
 36 37  1  0  0  0  0
 37 35  2  0  0  0  0
 38 36  1  0  0  0  0
 39 38  1  0  0  0  0
 40 39  1  0  0  0  0
 41 40  1  0  0  0  0
 42 41  1  0  0  0  0
 43 42  2  0  0  0  0
 44 45  1  0  0  0  0
 46 45  1  0  0  0  0
 46 47  1  0  0  0  0
 48 49  1  0  0  0  0
 48 47  1  0  0  0  0
M  END
>  <REMARK>
 VINA RESULT:    -5.039      5.325      9.305
 INTER + INTRA:         -14.685
 INTER:                  -7.561
 INTRA:                  -7.124
 UNBOUND:                -4.785
 SMILES C=CCCCCn1cc(COC(=O)NC[C@@H](O)C(O)[C@@H]2O[C@@](O)(C(=O)O)C[C@H](O)[C@H]2NC(C)=O)nn1
 SMILES IDX 11 1 12 2 14 3 13 5 15 6 16 7 18 8 20 9 22 10 27 11 21 12
 SMILES IDX 28 13 30 14 23 15 24 17 25 18 26 19 29 21 31 23 32 24 33 26
 SMILES IDX 34 27 19 28 17 30 10 32 9 33 8 34 35 35 7 36 36 37 6 38 5 39
 SMILES IDX 4 40 3 41 2 42 1 43
 H PARENT 14 4 23 16 26 20 29 22 31 25 19 29 17 31
 Flexibility Score: inf
  4 active torsions:
  status: ('A' for Active; 'I' for Inactive)
    1  A    between atoms: CA   and  CB  
    2  A    between atoms: CB   and  CG  
    3  A    between atoms: CG   and  CD  
    4  A    between atoms: CD   and  CE  

>  <TORSDO>
F 19

>  <BEGIN_>
RES LYS A 131

$$$$
ligand_43_pose_5_2HRL.pdbqt
 OpenBabel07062320523D

  6  5  0  0  0  0  0  0  0  0999 V2000
   33.1930   34.6630    9.2900 C   0  0  0  0  0  0  0  0  0  0  0  0
   32.0600   35.3600   10.0340 C   0  0  0  0  0  0  0  0  0  0  0  0
   30.7130   34.7190    9.8190 C   0  0  0  0  0  0  0  0  0  0  0  0
   30.4260   34.5590    8.3340 C   0  0  0  0  0  0  0  0  0  0  0  0
   28.9950   34.9550    8.0230 C   0  0  0  0  0  0  0  0  0  0  0  0
   28.8720   35.4730    6.6320 N   0  0  0  0  0  0  0  0  0  0  0  0
  1  2  1  0  0  0  0
  3  2  1  0  0  0  0
  4  3  1  0  0  0  0
  5  4  1  0  0  0  0
  6  5  1  0  0  0  0
M  END
>  <EGIN_R>
ES LYS A 135

>  <REMARK>
  4 active torsions:
  status: ('A' for Active; 'I' for Inactive)
    5  A    between atoms: CA   and  CB  
    6  A    between atoms: CB   and  CG  
    7  A    between atoms: CG   and  CD  
    8  A    between atoms: CD   and  CE  

$$$$
