ligand_91_pose_4_2HRL.pdbqt
 OpenBabel07062320523D

 57 60  0  0  1  0  0  0  0  0999 V2000
   23.5120   38.6140    9.3480 C   0  0  0  0  0  0  0  0  0  0  0  0
   23.9200   38.9420    7.9380 C   0  0  2  0  0  0  0  0  0  0  0  0
   24.9870   39.9880    8.0220 C   0  0  2  0  0  0  0  0  0  0  0  0
   26.3630   39.5030    7.5860 C   0  0  2  0  0  0  0  0  0  0  0  0
   27.2850   37.8410    6.3540 C   0  0  2  0  0  0  0  0  0  0  0  0
   28.2580   37.3740    7.4050 C   0  0  0  0  0  0  0  0  0  0  0  0
   26.1440   38.3530    6.8800 O   0  0  0  0  0  0  0  0  0  0  0  0
   27.9670   37.9430    8.7630 C   0  0  1  0  0  0  0  0  0  0  0  0
   27.2680   39.2610    8.7370 C   0  0  1  0  0  0  0  0  0  0  0  0
   26.8620   36.6900    5.6090 O   0  0  0  0  0  0  0  0  0  0  0  0
   25.8950   36.7590    5.4230 H   0  0  0  0  0  0  0  0  0  0  0  0
   27.9760   38.6840    5.3490 C   0  0  0  0  0  0  0  0  0  0  0  0
   29.1180   39.1730    5.5590 O   0  0  0  0  0  0  0  0  0  0  0  0
   27.4060   38.9920    4.1030 O   0  0  0  0  0  0  0  0  0  0  0  0
   27.5580   39.9070    3.7050 H   0  0  0  0  0  0  0  0  0  0  0  0
   27.2380   37.0010    9.4940 O   0  0  0  0  0  0  0  0  0  0  0  0
   27.7810   36.6130   10.2250 H   0  0  0  0  0  0  0  0  0  0  0  0
   28.2610   40.3220    8.9430 N   0  0  0  0  0  0  0  0  0  0  0  0
   28.3750   41.0370   10.1670 C   0  0  0  0  0  0  0  0  0  0  0  0
   28.9310   40.5990    8.1910 H   0  0  0  0  0  0  0  0  0  0  0  0
   29.3950   42.1140   10.3590 C   0  0  0  0  0  0  0  0  0  0  0  0
   27.6050   40.7700   11.1250 O   0  0  0  0  0  0  0  0  0  0  0  0
   25.0860   40.4340    9.3310 O   0  0  0  0  0  0  0  0  0  0  0  0
   25.8730   39.9970    9.7390 H   0  0  0  0  0  0  0  0  0  0  0  0
   22.8270   39.3330    7.2020 O   0  0  0  0  0  0  0  0  0  0  0  0
   22.0090   39.1700    7.7620 H   0  0  0  0  0  0  0  0  0  0  0  0
   24.2700   37.6080   10.0090 N   0  0  0  0  0  0  0  0  0  0  0  0
   23.9850   36.2280    9.9690 C   0  0  0  0  0  0  0  0  0  0  0  0
   25.1400   37.8600   10.6020 H   0  0  0  0  0  0  0  0  0  0  0  0
   23.0080   35.7770    9.3380 O   0  0  0  0  0  0  0  0  0  0  0  0
   24.7850   35.2850   10.6350 O   0  0  0  0  0  0  0  0  0  0  0  0
   24.4640   34.8760   11.9650 C   0  0  0  0  0  0  0  0  0  0  0  0
   25.6350   35.1780   12.8220 C   0  0  0  0  0  0  0  0  0  0  0  0
   26.9530   34.8800   12.5480 C   0  0  0  0  0  0  0  0  0  0  0  0
   25.6750   35.7950   14.0280 N   0  0  0  0  0  0  0  0  0  0  0  0
   27.7360   35.3060   13.5530 N   0  0  0  0  0  0  0  0  0  0  0  0
   26.9410   35.8580   14.4430 N   0  0  0  0  0  0  0  0  0  0  0  0
   29.1400   35.1950   13.6580 C   0  0  0  0  0  0  0  0  0  0  0  0
   29.9700   36.1400   13.0460 C   0  0  0  0  0  0  0  0  0  0  0  0
   29.7450   34.1690   14.3630 C   0  0  0  0  0  0  0  0  0  0  0  0
   29.4280   37.1860   12.3290 C   0  0  0  0  0  0  0  0  0  0  0  0
   31.3240   36.0630   13.1340 C   0  0  0  0  0  0  0  0  0  0  0  0
   31.1200   34.1100   14.4400 C   0  0  0  0  0  0  0  0  0  0  0  0
   28.9310   33.2410   14.9610 C   0  0  0  0  0  0  0  0  0  0  0  0
   30.2020   38.1420   11.7070 C   0  0  0  0  0  0  0  0  0  0  0  0
   32.1180   37.0210   12.5110 C   0  0  0  0  0  0  0  0  0  0  0  0
   31.8740   35.0490   13.8290 N   0  0  0  0  0  0  0  0  0  0  0  0
   31.6760   33.0730   15.1490 C   0  0  0  0  0  0  0  0  0  0  0  0
   29.5270   32.1990   15.6750 C   0  0  0  0  0  0  0  0  0  0  0  0
   31.5970   38.0720   11.7910 C   0  0  0  0  0  0  0  0  0  0  0  0
   30.8970   32.1020   15.7760 C   0  0  0  0  0  0  0  0  0  0  0  0
   29.8670   25.5550   16.9770 C   0  0  0  0  0  0  0  0  0  0  0  0
   28.3450   25.7220   17.0260 C   0  0  0  0  0  0  0  0  0  0  0  0
   27.6000   24.4100   16.8350 C   0  0  0  0  0  0  0  0  0  0  0  0
   26.2070   24.4620   17.3980 C   0  0  0  0  0  0  0  0  0  0  0  0
   26.1930   25.3460   18.6410 C   0  0  0  0  0  0  0  0  0  0  0  0
   25.4670   24.6750   19.7460 N   0  0  0  0  0  0  0  0  0  0  0  0
  1 27  1  0  0  0  0
  2  3  1  0  0  0  0
  2  1  1  1  0  0  0
  3 23  1  1  0  0  0
  4  3  1  1  0  0  0
  4  9  1  0  0  0  0
  5 12  1  6  0  0  0
  5  7  1  0  0  0  0
  5  6  1  0  0  0  0
  6  8  1  0  0  0  0
  7  4  1  0  0  0  0
  8 16  1  1  0  0  0
  9  8  1  0  0  0  0
  9 18  1  6  0  0  0
 10  5  1  0  0  0  0
 11 10  1  0  0  0  0
 12 13  2  0  0  0  0
 14 12  1  0  0  0  0
 15 14  1  0  0  0  0
 16 17  1  0  0  0  0
 18 19  1  0  0  0  0
 19 21  1  0  0  0  0
 19 22  2  0  0  0  0
 20 18  1  0  0  0  0
 23 24  1  0  0  0  0
 25 26  1  0  0  0  0
 25  2  1  0  0  0  0
 27 29  1  0  0  0  0
 28 27  1  0  0  0  0
 28 31  1  0  0  0  0
 30 28  2  0  0  0  0
 31 32  1  0  0  0  0
 32 33  1  0  0  0  0
 33 35  1  0  0  0  0
 34 33  2  0  0  0  0
 34 36  1  0  0  0  0
 35 37  2  0  0  0  0
 36 38  1  0  0  0  0
 36 37  1  0  0  0  0
 38 40  2  0  0  0  0
 39 42  1  0  0  0  0
 39 38  1  0  0  0  0
 40 43  1  0  0  0  0
 40 44  1  0  0  0  0
 41 39  2  0  0  0  0
 42 47  1  0  0  0  0
 43 48  1  0  0  0  0
 44 49  2  0  0  0  0
 45 50  2  0  0  0  0
 45 41  1  0  0  0  0
 46 42  2  0  0  0  0
 47 43  2  0  0  0  0
 48 51  2  0  0  0  0
 49 51  1  0  0  0  0
 50 46  1  0  0  0  0
 52 53  1  0  0  0  0
 54 53  1  0  0  0  0
 54 55  1  0  0  0  0
 55 56  1  0  0  0  0
 56 57  1  0  0  0  0
M  END
>  <REMARK>
 VINA RESULT:    -5.825      1.820      3.185
 INTER + INTRA:         -16.166
 INTER:                 -10.074
 INTRA:                  -6.092
 UNBOUND:                -6.084
 SMILES CC(=O)N[C@@H]1[C@@H](O)C[C@](O)(C(=O)O)O[C@H]1C(O)[C@H](O)CNC(=O)OCc1cn(-c2c3ccccc3nc3ccccc23)nn1
 SMILES IDX 20 1 18 2 16 3 15 4 9 5 8 6 14 7 6 8 5 9 10 10 11 12 12 13
 SMILES IDX 13 14 7 16 4 18 2 19 1 21 3 22 17 23 19 25 21 27 22 28 23 30
 SMILES IDX 24 31 25 32 26 33 27 34 44 35 28 36 43 37 29 38 30 39 42 40
 SMILES IDX 31 41 35 42 37 43 41 44 32 45 34 46 36 47 38 48 40 49 33 50
 SMILES IDX 39 51
 H PARENT 10 11 13 15 7 17 4 20 17 24 19 26 21 29
 Flexibility Score: inf
  4 active torsions:
  status: ('A' for Active; 'I' for Inactive)
    1  A    between atoms: CA   and  CB  
    2  A    between atoms: CB   and  CG  
    3  A    between atoms: CG   and  CD  
    4  A    between atoms: CD   and  CE  

>  <TORSDO>
F 15

>  <BEGIN_>
RES LYS A 131

$$$$
ligand_91_pose_4_2HRL.pdbqt
 OpenBabel07062320523D

  6  5  0  0  0  0  0  0  0  0999 V2000
   33.1930   34.6630    9.2900 C   0  0  0  0  0  0  0  0  0  0  0  0
   32.0600   35.3600   10.0340 C   0  0  0  0  0  0  0  0  0  0  0  0
   30.7730   35.4200    9.2520 C   0  0  0  0  0  0  0  0  0  0  0  0
   29.7500   34.4530    9.8280 C   0  0  0  0  0  0  0  0  0  0  0  0
   28.7430   34.0500    8.7680 C   0  0  0  0  0  0  0  0  0  0  0  0
   27.4510   33.6390    9.3840 N   0  0  0  0  0  0  0  0  0  0  0  0
  1  2  1  0  0  0  0
  3  4  1  0  0  0  0
  3  2  1  0  0  0  0
  5  6  1  0  0  0  0
  5  4  1  0  0  0  0
M  END
>  <EGIN_R>
ES LYS A 135

>  <REMARK>
  4 active torsions:
  status: ('A' for Active; 'I' for Inactive)
    5  A    between atoms: CA   and  CB  
    6  A    between atoms: CB   and  CG  
    7  A    between atoms: CG   and  CD  
    8  A    between atoms: CD   and  CE  

$$$$
