ligand_17_pose_14_2HRL.pdbqt
 OpenBabel07062320523D

 50 50  0  0  1  0  0  0  0  0999 V2000
   27.6220   29.8950   18.4890 N   0  0  0  0  0  0  0  0  0  0  0  0
   27.3630   28.4940   18.5840 C   0  0  0  0  0  0  0  0  0  0  0  0
   27.2310   27.8120   17.5530 O   0  0  0  0  0  0  0  0  0  0  0  0
   27.7190   30.3990   19.3870 H   0  0  0  0  0  0  0  0  0  0  0  0
   27.7450   30.6000   17.2500 C   0  0  0  0  0  0  0  0  0  0  0  0
   29.0340   30.3380   16.5250 C   0  0  2  0  0  0  0  0  0  0  0  0
   30.1500   31.1720   17.1160 C   0  0  1  0  0  0  0  0  0  0  0  0
   29.7600   32.6180   17.2270 C   0  0  2  0  0  0  0  0  0  0  0  0
   30.8730   33.3540   15.2900 C   0  0  2  0  0  0  0  0  0  0  0  0
   32.0040   33.8660   16.1720 C   0  0  0  0  0  0  0  0  0  0  0  0
   29.7060   33.1650   15.9700 O   0  0  0  0  0  0  0  0  0  0  0  0
   31.3390   34.4860   17.4060 C   0  0  1  0  0  0  0  0  0  0  0  0
   30.6540   33.3870   18.1350 C   0  0  1  0  0  0  0  0  0  0  0  0
   31.3540   32.2390   14.6080 O   0  0  0  0  0  0  0  0  0  0  0  0
   32.1650   31.8680   15.0590 H   0  0  0  0  0  0  0  0  0  0  0  0
   30.6010   34.4140   14.2670 C   0  0  0  0  0  0  0  0  0  0  0  0
   29.8180   35.3640   14.4800 O   0  0  0  0  0  0  0  0  0  0  0  0
   31.2380   34.3370   13.0470 O   0  0  0  0  0  0  0  0  0  0  0  0
   30.8070   33.9530   12.2110 H   0  0  0  0  0  0  0  0  0  0  0  0
   32.3380   35.1080   18.1540 O   0  0  0  0  0  0  0  0  0  0  0  0
   33.1580   35.1150   17.5650 H   0  0  0  0  0  0  0  0  0  0  0  0
   29.9860   33.8330   19.3430 N   0  0  0  0  0  0  0  0  0  0  0  0
   30.5920   33.7910   20.6300 C   0  0  0  0  0  0  0  0  0  0  0  0
   28.9990   34.2180   19.3170 H   0  0  0  0  0  0  0  0  0  0  0  0
   29.8550   34.2650   21.8440 C   0  0  0  0  0  0  0  0  0  0  0  0
   31.7510   33.3550   20.7630 O   0  0  0  0  0  0  0  0  0  0  0  0
   30.3920   30.5960   18.3760 O   0  0  0  0  0  0  0  0  0  0  0  0
   29.4930   30.4060   18.7570 H   0  0  0  0  0  0  0  0  0  0  0  0
   28.8660   30.4730   15.1770 O   0  0  0  0  0  0  0  0  0  0  0  0
   29.7460   30.5760   14.7360 H   0  0  0  0  0  0  0  0  0  0  0  0
   27.2520   27.8400   19.8000 O   0  0  0  0  0  0  0  0  0  0  0  0
   27.5920   28.4660   21.0300 C   0  0  0  0  0  0  0  0  0  0  0  0
   29.0720   28.4610   21.1500 C   0  0  0  0  0  0  0  0  0  0  0  0
   29.8130   29.5460   21.6170 C   0  0  0  0  0  0  0  0  0  0  0  0
   29.9730   27.5100   20.8700 N   0  0  0  0  0  0  0  0  0  0  0  0
   31.0980   29.2040   21.5970 N   0  0  0  0  0  0  0  0  0  0  0  0
   31.1820   27.9720   21.1440 N   0  0  0  0  0  0  0  0  0  0  0  0
   32.2060   30.0300   21.9960 C   0  0  0  0  0  0  0  0  0  0  0  0
   33.3930   29.1370   22.3050 C   0  0  0  0  0  0  0  0  0  0  0  0
   34.5450   29.8510   22.7530 N   0  0  0  0  0  0  0  0  0  0  0  0
   34.8360   31.0430   22.0290 C   0  0  0  0  0  0  0  0  0  0  0  0
   35.9120   31.7970   22.8240 C   0  0  0  0  0  0  0  0  0  0  0  0
   35.6500   29.0120   23.0760 C   0  0  0  0  0  0  0  0  0  0  0  0
   35.2810   27.7740   23.8330 C   0  0  0  0  0  0  0  0  0  0  0  0
   29.8670   25.5550   16.9770 C   0  0  0  0  0  0  0  0  0  0  0  0
   28.3450   25.7220   17.0260 C   0  0  0  0  0  0  0  0  0  0  0  0
   27.6010   24.4050   16.8650 C   0  0  0  0  0  0  0  0  0  0  0  0
   26.1650   24.5100   17.2980 C   0  0  0  0  0  0  0  0  0  0  0  0
   25.7370   23.2050   17.9620 C   0  0  0  0  0  0  0  0  0  0  0  0
   25.5510   23.4010   19.4200 N   0  0  0  0  0  0  0  0  0  0  0  0
  1  2  1  0  0  0  0
  1  4  1  0  0  0  0
  2 31  1  0  0  0  0
  3  2  2  0  0  0  0
  5  1  1  0  0  0  0
  6  7  1  0  0  0  0
  6  5  1  1  0  0  0
  7 27  1  1  0  0  0
  8  7  1  6  0  0  0
  8 13  1  0  0  0  0
  9 16  1  6  0  0  0
  9 11  1  0  0  0  0
  9 10  1  0  0  0  0
 10 12  1  0  0  0  0
 11  8  1  0  0  0  0
 12 13  1  0  0  0  0
 12 20  1  1  0  0  0
 13 22  1  1  0  0  0
 14 15  1  0  0  0  0
 14  9  1  0  0  0  0
 16 17  2  0  0  0  0
 18 16  1  0  0  0  0
 19 18  1  0  0  0  0
 21 20  1  0  0  0  0
 22 23  1  0  0  0  0
 23 26  2  0  0  0  0
 23 25  1  0  0  0  0
 24 22  1  0  0  0  0
 27 28  1  0  0  0  0
 29  6  1  0  0  0  0
 30 29  1  0  0  0  0
 31 32  1  0  0  0  0
 32 33  1  0  0  0  0
 33 34  2  0  0  0  0
 35 37  2  0  0  0  0
 35 33  1  0  0  0  0
 36 34  1  0  0  0  0
 36 38  1  0  0  0  0
 37 36  1  0  0  0  0
 38 39  1  0  0  0  0
 39 40  1  0  0  0  0
 40 43  1  0  0  0  0
 41 40  1  0  0  0  0
 41 42  1  0  0  0  0
 43 44  1  0  0  0  0
 45 46  1  0  0  0  0
 47 46  1  0  0  0  0
 47 48  1  0  0  0  0
 48 49  1  0  0  0  0
 49 50  1  0  0  0  0
M  END
>  <REMARK>
 VINA RESULT:    -3.500      2.820      6.829
 INTER + INTRA:         -14.034
 INTER:                  -8.159
 INTRA:                  -5.874
 UNBOUND:                -7.158
 SMILES CCN(CC)CCn1cc(COC(=O)NC[C@@H](O)C(O)[C@@H]2O[C@@](O)(C(=O)O)C[C@H](O)[C@H]2NC(C)=O)nn1
 SMILES IDX 15 1 13 2 14 3 16 5 17 6 19 7 21 8 23 9 28 10 22 11 29 12
 SMILES IDX 31 13 24 14 25 16 26 17 27 18 30 20 32 22 33 23 34 25 35 26
 SMILES IDX 20 27 18 29 12 31 11 32 10 33 9 34 36 35 8 36 37 37 7 38
 SMILES IDX 6 39 3 40 2 41 1 42 4 43 5 44
 H PARENT 15 4 24 15 27 19 30 21 32 24 20 28 18 30
 Flexibility Score: inf
  4 active torsions:
  status: ('A' for Active; 'I' for Inactive)
    1  A    between atoms: CA   and  CB  
    2  A    between atoms: CB   and  CG  
    3  A    between atoms: CG   and  CD  
    4  A    between atoms: CD   and  CE  

>  <TORSDO>
F 19

>  <BEGIN_>
RES LYS A 131

$$$$
ligand_17_pose_14_2HRL.pdbqt
 OpenBabel07062320523D

  6  5  0  0  0  0  0  0  0  0999 V2000
   33.1930   34.6630    9.2900 C   0  0  0  0  0  0  0  0  0  0  0  0
   32.0600   35.3600   10.0340 C   0  0  0  0  0  0  0  0  0  0  0  0
   30.8030   35.5080    9.2160 C   0  0  0  0  0  0  0  0  0  0  0  0
   30.2520   34.1450    8.8270 C   0  0  0  0  0  0  0  0  0  0  0  0
   28.7700   34.0610    9.1400 C   0  0  0  0  0  0  0  0  0  0  0  0
   27.9630   34.7650    8.1050 N   0  0  0  0  0  0  0  0  0  0  0  0
  1  2  1  0  0  0  0
  3  2  1  0  0  0  0
  4  5  1  0  0  0  0
  4  3  1  0  0  0  0
  6  5  1  0  0  0  0
M  END
>  <EGIN_R>
ES LYS A 135

>  <REMARK>
  4 active torsions:
  status: ('A' for Active; 'I' for Inactive)
    5  A    between atoms: CA   and  CB  
    6  A    between atoms: CB   and  CG  
    7  A    between atoms: CG   and  CD  
    8  A    between atoms: CD   and  CE  

$$$$
