ligand_61_pose_0_2HRL.pdbqt
 OpenBabel07062320523D

 49 50  0  0  1  0  0  0  0  0999 V2000
   26.1370   36.4690   11.1050 N   0  0  0  0  0  0  0  0  0  0  0  0
   27.2450   37.3050   11.3710 C   0  0  0  0  0  0  0  0  0  0  0  0
   27.1740   38.5220   11.0840 O   0  0  0  0  0  0  0  0  0  0  0  0
   26.2540   35.4420   11.3740 H   0  0  0  0  0  0  0  0  0  0  0  0
   24.8960   36.9130   10.5090 C   0  0  0  0  0  0  0  0  0  0  0  0
   24.7710   36.3190    9.1440 C   0  0  2  0  0  0  0  0  0  0  0  0
   25.3460   37.1800    8.0400 C   0  0  2  0  0  0  0  0  0  0  0  0
   26.5960   36.5460    7.5290 C   0  0  2  0  0  0  0  0  0  0  0  0
   28.6740   35.7360    8.1380 C   0  0  2  0  0  0  0  0  0  0  0  0
   28.8290   35.5560    6.6470 C   0  0  0  0  0  0  0  0  0  0  0  0
   27.3650   35.9620    8.5160 O   0  0  0  0  0  0  0  0  0  0  0  0
   28.3460   36.7280    5.8590 C   0  0  1  0  0  0  0  0  0  0  0  0
   27.4360   37.5590    6.7380 C   0  0  1  0  0  0  0  0  0  0  0  0
   29.5610   36.6880    8.6430 O   0  0  0  0  0  0  0  0  0  0  0  0
   29.0680   37.3530    9.1750 H   0  0  0  0  0  0  0  0  0  0  0  0
   29.0730   34.4210    8.7580 C   0  0  0  0  0  0  0  0  0  0  0  0
   30.2250   33.9700    8.7050 O   0  0  0  0  0  0  0  0  0  0  0  0
   28.1050   33.6710    9.4240 O   0  0  0  0  0  0  0  0  0  0  0  0
   27.8740   32.7180    9.1720 H   0  0  0  0  0  0  0  0  0  0  0  0
   29.3520   37.4720    5.2820 O   0  0  0  0  0  0  0  0  0  0  0  0
   30.2430   37.0060    5.3430 H   0  0  0  0  0  0  0  0  0  0  0  0
   26.5730   38.4290    5.9820 N   0  0  0  0  0  0  0  0  0  0  0  0
   26.9550   39.7810    5.7030 C   0  0  0  0  0  0  0  0  0  0  0  0
   25.6490   38.1140    5.6140 H   0  0  0  0  0  0  0  0  0  0  0  0
   26.1340   40.7260    4.9430 C   0  0  0  0  0  0  0  0  0  0  0  0
   28.0820   40.1870    6.1430 O   0  0  0  0  0  0  0  0  0  0  0  0
   25.6380   38.4170    8.6190 O   0  0  0  0  0  0  0  0  0  0  0  0
   26.2600   38.9160    8.0340 H   0  0  0  0  0  0  0  0  0  0  0  0
   23.4000   36.1880    8.8680 O   0  0  0  0  0  0  0  0  0  0  0  0
   23.2050   36.1850    7.9060 H   0  0  0  0  0  0  0  0  0  0  0  0
   28.4060   36.7570   11.9540 O   0  0  0  0  0  0  0  0  0  0  0  0
   28.2540   35.4480   12.4850 C   0  0  0  0  0  0  0  0  0  0  0  0
   29.2900   35.2480   13.5080 C   0  0  0  0  0  0  0  0  0  0  0  0
   30.0120   34.0950   13.7750 C   0  0  0  0  0  0  0  0  0  0  0  0
   29.7260   36.1770   14.3850 N   0  0  0  0  0  0  0  0  0  0  0  0
   30.8360   34.3910   14.7890 N   0  0  0  0  0  0  0  0  0  0  0  0
   30.6690   35.6450   15.1610 N   0  0  0  0  0  0  0  0  0  0  0  0
   31.7680   33.4770   15.3870 C   0  0  0  0  0  0  0  0  0  0  0  0
   31.1360   32.7740   16.5880 C   0  0  0  0  0  0  0  0  0  0  0  0
   30.5240   31.6010   16.4740 C   0  0  0  0  0  0  0  0  0  0  0  0
   31.2160   33.3970   17.8130 C   0  0  0  0  0  0  0  0  0  0  0  0
   29.9720   31.0080   17.5770 C   0  0  0  0  0  0  0  0  0  0  0  0
   30.3430   32.1970   18.8830 S   0  0  0  0  0  0  0  0  0  0  0  0
   29.8670   25.5550   16.9770 C   0  0  0  0  0  0  0  0  0  0  0  0
   28.3450   25.7220   17.0260 C   0  0  0  0  0  0  0  0  0  0  0  0
   27.6000   24.4120   16.8210 C   0  0  0  0  0  0  0  0  0  0  0  0
   26.6630   24.1090   17.9580 C   0  0  0  0  0  0  0  0  0  0  0  0
   25.7650   22.9360   17.5790 C   0  0  0  0  0  0  0  0  0  0  0  0
   24.4280   23.4200   17.1620 N   0  0  0  0  0  0  0  0  0  0  0  0
  1  2  1  0  0  0  0
  1  4  1  0  0  0  0
  2 31  1  0  0  0  0
  3  2  2  0  0  0  0
  5  1  1  0  0  0  0
  6  5  1  1  0  0  0
  7 27  1  1  0  0  0
  7  6  1  0  0  0  0
  8  7  1  1  0  0  0
  8 11  1  0  0  0  0
  9 11  1  0  0  0  0
  9 14  1  1  0  0  0
  9 16  1  0  0  0  0
 10  9  1  0  0  0  0
 12 20  1  1  0  0  0
 12 10  1  0  0  0  0
 12 13  1  0  0  0  0
 13 22  1  6  0  0  0
 13  8  1  0  0  0  0
 14 15  1  0  0  0  0
 16 18  1  0  0  0  0
 17 16  2  0  0  0  0
 19 18  1  0  0  0  0
 20 21  1  0  0  0  0
 23 22  1  0  0  0  0
 23 26  2  0  0  0  0
 24 22  1  0  0  0  0
 25 23  1  0  0  0  0
 28 27  1  0  0  0  0
 29  6  1  0  0  0  0
 30 29  1  0  0  0  0
 31 32  1  0  0  0  0
 32 33  1  0  0  0  0
 33 34  2  0  0  0  0
 33 35  1  0  0  0  0
 34 36  1  0  0  0  0
 35 37  2  0  0  0  0
 36 37  1  0  0  0  0
 36 38  1  0  0  0  0
 38 39  1  0  0  0  0
 39 41  2  0  0  0  0
 40 39  1  0  0  0  0
 40 42  2  0  0  0  0
 41 43  1  0  0  0  0
 42 43  1  0  0  0  0
 44 45  1  0  0  0  0
 46 45  1  0  0  0  0
 46 47  1  0  0  0  0
 48 47  1  0  0  0  0
 49 48  1  0  0  0  0
M  END
>  <REMARK>
 VINA RESULT:    -4.689      0.000      0.000
 INTER + INTRA:         -14.526
 INTER:                 -10.258
 INTRA:                  -4.269
 UNBOUND:                -6.136
 SMILES CC(=O)N[C@@H]1[C@@H](O)C[C@](O)(C(=O)O)O[C@H]1C(O)[C@H](O)CNC(=O)OCc1cn(Cc2ccsc2)nn1
 SMILES IDX 21 1 22 2 23 3 20 5 18 6 16 7 15 8 9 9 8 10 14 11 6 12 5 13
 SMILES IDX 10 14 11 16 12 17 13 18 7 20 4 22 2 23 1 25 3 26 17 27 19 29
 SMILES IDX 24 31 25 32 26 33 27 34 36 35 28 36 35 37 29 38 30 39 31 40
 SMILES IDX 34 41 32 42 33 43
 H PARENT 21 4 10 15 13 19 7 21 4 24 17 28 19 30
 Flexibility Score: inf
  4 active torsions:
  status: ('A' for Active; 'I' for Inactive)
    1  A    between atoms: CA   and  CB  
    2  A    between atoms: CB   and  CG  
    3  A    between atoms: CG   and  CD  
    4  A    between atoms: CD   and  CE  

>  <TORSDO>
F 16

>  <BEGIN_>
RES LYS A 131

$$$$
ligand_61_pose_0_2HRL.pdbqt
 OpenBabel07062320523D

  6  5  0  0  0  0  0  0  0  0999 V2000
   33.1930   34.6630    9.2900 C   0  0  0  0  0  0  0  0  0  0  0  0
   32.0600   35.3600   10.0340 C   0  0  0  0  0  0  0  0  0  0  0  0
   32.4010   35.7100   11.4590 C   0  0  0  0  0  0  0  0  0  0  0  0
   31.9550   37.1280   11.7850 C   0  0  0  0  0  0  0  0  0  0  0  0
   31.9950   37.9970   10.5430 C   0  0  0  0  0  0  0  0  0  0  0  0
   31.0930   39.1740   10.6830 N   0  0  0  0  0  0  0  0  0  0  0  0
  1  2  1  0  0  0  0
  2  3  1  0  0  0  0
  3  4  1  0  0  0  0
  5  6  1  0  0  0  0
  5  4  1  0  0  0  0
M  END
>  <EGIN_R>
ES LYS A 135

>  <REMARK>
  4 active torsions:
  status: ('A' for Active; 'I' for Inactive)
    5  A    between atoms: CA   and  CB  
    6  A    between atoms: CB   and  CG  
    7  A    between atoms: CG   and  CD  
    8  A    between atoms: CD   and  CE  

$$$$
