ligand_44_pose_17_2HRL.pdbqt
 OpenBabel07062320523D

 51 52  0  0  1  0  0  0  0  0999 V2000
   23.1610   41.4770    6.7540 N   0  0  0  0  0  0  0  0  0  0  0  0
   23.7230   42.7580    6.5290 C   0  0  0  0  0  0  0  0  0  0  0  0
   23.3130   43.8300    7.0120 O   0  0  0  0  0  0  0  0  0  0  0  0
   23.6000   40.6210    6.2900 H   0  0  0  0  0  0  0  0  0  0  0  0
   22.0140   41.3340    7.5950 C   0  0  0  0  0  0  0  0  0  0  0  0
   21.9090   40.0100    8.3080 C   0  0  2  0  0  0  0  0  0  0  0  0
   23.1630   39.2150    8.2740 C   0  0  1  0  0  0  0  0  0  0  0  0
   23.4720   38.3210    9.4080 C   0  0  2  0  0  0  0  0  0  0  0  0
   25.7470   38.1890    9.7640 C   0  0  2  0  0  0  0  0  0  0  0  0
   25.6630   36.9640   10.6450 C   0  0  0  0  0  0  0  0  0  0  0  0
   24.5880   38.9000   10.0330 O   0  0  0  0  0  0  0  0  0  0  0  0
   24.5120   36.1590   10.1470 C   0  0  1  0  0  0  0  0  0  0  0  0
   23.5840   36.8800    9.1880 C   0  0  1  0  0  0  0  0  0  0  0  0
   25.8730   37.7590    8.4620 O   0  0  0  0  0  0  0  0  0  0  0  0
   25.0330   37.6840    7.9730 H   0  0  0  0  0  0  0  0  0  0  0  0
   26.9100   38.9880   10.2190 C   0  0  0  0  0  0  0  0  0  0  0  0
   27.4230   38.8670   11.3530 O   0  0  0  0  0  0  0  0  0  0  0  0
   27.4340   39.9110    9.3180 O   0  0  0  0  0  0  0  0  0  0  0  0
   27.8530   39.6480    8.4410 H   0  0  0  0  0  0  0  0  0  0  0  0
   25.0540   35.0680    9.4290 O   0  0  0  0  0  0  0  0  0  0  0  0
   24.3930   34.3630    9.2830 H   0  0  0  0  0  0  0  0  0  0  0  0
   22.2970   36.1910    9.4330 N   0  0  0  0  0  0  0  0  0  0  0  0
   21.3340   35.9850    8.4370 C   0  0  0  0  0  0  0  0  0  0  0  0
   22.1640   35.8700   10.4220 H   0  0  0  0  0  0  0  0  0  0  0  0
   20.0630   35.2870    8.7890 C   0  0  0  0  0  0  0  0  0  0  0  0
   21.5300   36.3750    7.2770 O   0  0  0  0  0  0  0  0  0  0  0  0
   23.3400   38.6900    7.0020 O   0  0  0  0  0  0  0  0  0  0  0  0
   22.4700   38.3300    6.6660 H   0  0  0  0  0  0  0  0  0  0  0  0
   20.7630   39.2880    8.0220 O   0  0  0  0  0  0  0  0  0  0  0  0
   20.4020   38.8030    8.7910 H   0  0  0  0  0  0  0  0  0  0  0  0
   24.8390   42.8450    5.6980 O   0  0  0  0  0  0  0  0  0  0  0  0
   25.0970   41.8740    4.7130 C   0  0  0  0  0  0  0  0  0  0  0  0
   26.0210   40.8320    5.1950 C   0  0  0  0  0  0  0  0  0  0  0  0
   26.9880   40.1090    4.5370 C   0  0  0  0  0  0  0  0  0  0  0  0
   26.0230   40.4160    6.4830 N   0  0  0  0  0  0  0  0  0  0  0  0
   27.5480   39.2780    5.4450 N   0  0  0  0  0  0  0  0  0  0  0  0
   26.9420   39.4940    6.5970 N   0  0  0  0  0  0  0  0  0  0  0  0
   28.6140   38.3390    5.1620 C   0  0  0  0  0  0  0  0  0  0  0  0
   28.5920   37.2970    6.2420 C   0  0  0  0  0  0  0  0  0  0  0  0
   29.2970   37.5260    7.4140 C   0  0  0  0  0  0  0  0  0  0  0  0
   27.8750   36.1360    6.0550 C   0  0  0  0  0  0  0  0  0  0  0  0
   29.2630   36.5610    8.3870 C   0  0  0  0  0  0  0  0  0  0  0  0
   27.8390   35.1530    7.0440 C   0  0  0  0  0  0  0  0  0  0  0  0
   28.5450   35.4030    8.1940 C   0  0  0  0  0  0  0  0  0  0  0  0
   28.5150   34.0750    9.5700 Br  0  0  0  0  0  0  0  0  0  0  0  0
   29.8670   25.5550   16.9770 C   0  0  0  0  0  0  0  0  0  0  0  0
   28.3450   25.7220   17.0260 C   0  0  0  0  0  0  0  0  0  0  0  0
   27.6020   24.3980   16.9380 C   0  0  0  0  0  0  0  0  0  0  0  0
   26.1460   24.5410   17.2850 C   0  0  0  0  0  0  0  0  0  0  0  0
   25.9600   24.3490   18.7870 C   0  0  0  0  0  0  0  0  0  0  0  0
   25.3330   23.0350   19.0680 N   0  0  0  0  0  0  0  0  0  0  0  0
  1  5  1  0  0  0  0
  2  1  1  0  0  0  0
  2  3  2  0  0  0  0
  4  1  1  0  0  0  0
  6  5  1  6  0  0  0
  7 27  1  6  0  0  0
  7  6  1  0  0  0  0
  8  7  1  6  0  0  0
  8 11  1  0  0  0  0
  9 14  1  6  0  0  0
  9 11  1  0  0  0  0
  9 16  1  0  0  0  0
  9 10  1  0  0  0  0
 12 20  1  6  0  0  0
 12 10  1  0  0  0  0
 13  8  1  0  0  0  0
 13 22  1  1  0  0  0
 13 12  1  0  0  0  0
 15 14  1  0  0  0  0
 16 17  2  0  0  0  0
 18 16  1  0  0  0  0
 19 18  1  0  0  0  0
 21 20  1  0  0  0  0
 22 24  1  0  0  0  0
 23 25  1  0  0  0  0
 23 22  1  0  0  0  0
 26 23  2  0  0  0  0
 28 27  1  0  0  0  0
 29  6  1  0  0  0  0
 29 30  1  0  0  0  0
 31  2  1  0  0  0  0
 32 33  1  0  0  0  0
 32 31  1  0  0  0  0
 33 35  1  0  0  0  0
 34 33  2  0  0  0  0
 34 36  1  0  0  0  0
 35 37  2  0  0  0  0
 36 37  1  0  0  0  0
 38 36  1  0  0  0  0
 38 39  1  0  0  0  0
 39 40  1  0  0  0  0
 40 42  2  0  0  0  0
 41 39  2  0  0  0  0
 41 43  1  0  0  0  0
 43 44  2  0  0  0  0
 44 42  1  0  0  0  0
 44 45  1  0  0  0  0
 46 47  1  0  0  0  0
 48 47  1  0  0  0  0
 48 49  1  0  0  0  0
 49 50  1  0  0  0  0
 50 51  1  0  0  0  0
M  END
>  <REMARK>
 VINA RESULT:    -4.419      6.028     11.238
 INTER + INTRA:         -14.305
 INTER:                  -8.296
 INTRA:                  -6.009
 UNBOUND:                -6.398
 SMILES CC(=O)N[C@@H]1[C@@H](O)C[C@](O)(C(=O)O)O[C@H]1C(O)[C@H](O)CNC(=O)OCc1cn(Cc2ccc(Br)cc2)nn1
 SMILES IDX 21 1 22 2 23 3 20 5 18 6 16 7 15 8 9 9 8 10 14 11 6 12 5 13
 SMILES IDX 10 14 11 16 12 17 13 18 7 20 4 22 2 23 1 25 3 26 17 27 19 29
 SMILES IDX 24 31 25 32 26 33 27 34 38 35 28 36 37 37 29 38 30 39 31 40
 SMILES IDX 36 41 32 42 35 43 33 44 34 45
 H PARENT 21 4 10 15 13 19 7 21 4 24 17 28 19 30
 Flexibility Score: inf
  4 active torsions:
  status: ('A' for Active; 'I' for Inactive)
    1  A    between atoms: CA   and  CB  
    2  A    between atoms: CB   and  CG  
    3  A    between atoms: CG   and  CD  
    4  A    between atoms: CD   and  CE  

>  <TORSDO>
F 16

>  <BEGIN_>
RES LYS A 131

$$$$
ligand_44_pose_17_2HRL.pdbqt
 OpenBabel07062320523D

  6  5  0  0  0  0  0  0  0  0999 V2000
   33.1930   34.6630    9.2900 C   0  0  0  0  0  0  0  0  0  0  0  0
   32.0600   35.3600   10.0340 C   0  0  0  0  0  0  0  0  0  0  0  0
   32.5070   36.0640   11.2890 C   0  0  0  0  0  0  0  0  0  0  0  0
   31.9000   37.4570   11.3680 C   0  0  0  0  0  0  0  0  0  0  0  0
   30.8510   37.5190   12.4620 C   0  0  0  0  0  0  0  0  0  0  0  0
   31.4830   37.5270   13.8110 N   0  0  0  0  0  0  0  0  0  0  0  0
  1  2  1  0  0  0  0
  2  3  1  0  0  0  0
  3  4  1  0  0  0  0
  4  5  1  0  0  0  0
  5  6  1  0  0  0  0
M  END
>  <EGIN_R>
ES LYS A 135

>  <REMARK>
  4 active torsions:
  status: ('A' for Active; 'I' for Inactive)
    5  A    between atoms: CA   and  CB  
    6  A    between atoms: CB   and  CG  
    7  A    between atoms: CG   and  CD  
    8  A    between atoms: CD   and  CE  

$$$$
