ligand_20_pose_10_2HRL.pdbqt
 OpenBabel07062320523D

 53 55  0  0  1  0  0  0  0  0999 V2000
   30.3890   34.0050   14.6240 C   0  0  0  0  0  0  0  0  0  0  0  0
   30.2210   32.6070   15.0330 C   0  0  2  0  0  0  0  0  0  0  0  0
   29.9410   32.5090   16.5490 C   0  0  1  0  0  0  0  0  0  0  0  0
   29.7310   31.1370   17.0220 C   0  0  2  0  0  0  0  0  0  0  0  0
   27.4830   30.6280   16.6250 C   0  0  2  0  0  0  0  0  0  0  0  0
   27.1950   31.3310   17.9200 C   0  0  0  0  0  0  0  0  0  0  0  0
   28.8010   30.3640   16.3920 O   0  0  0  0  0  0  0  0  0  0  0  0
   28.1710   31.0270   19.0020 C   0  0  1  0  0  0  0  0  0  0  0  0
   29.5950   31.0720   18.5480 C   0  0  1  0  0  0  0  0  0  0  0  0
   26.9580   31.3740   15.5700 O   0  0  0  0  0  0  0  0  0  0  0  0
   26.8590   30.8380   14.7460 H   0  0  0  0  0  0  0  0  0  0  0  0
   26.7660   29.3330   16.6680 C   0  0  0  0  0  0  0  0  0  0  0  0
   25.5390   29.2940   16.4790 O   0  0  0  0  0  0  0  0  0  0  0  0
   27.4630   28.1700   16.9190 O   0  0  0  0  0  0  0  0  0  0  0  0
   28.3970   27.9780   16.5310 H   0  0  0  0  0  0  0  0  0  0  0  0
   27.9410   31.9290   20.0580 O   0  0  0  0  0  0  0  0  0  0  0  0
   28.5610   32.6800   19.9000 H   0  0  0  0  0  0  0  0  0  0  0  0
   30.4050   30.0280   19.1180 N   0  0  0  0  0  0  0  0  0  0  0  0
   31.2570   30.2480   20.2330 C   0  0  0  0  0  0  0  0  0  0  0  0
   30.3770   29.0490   18.7010 H   0  0  0  0  0  0  0  0  0  0  0  0
   32.0690   29.1440   20.7810 C   0  0  0  0  0  0  0  0  0  0  0  0
   31.3020   31.3990   20.7380 O   0  0  0  0  0  0  0  0  0  0  0  0
   31.2200   32.9140   17.0750 O   0  0  0  0  0  0  0  0  0  0  0  0
   31.1630   33.0290   18.0510 H   0  0  0  0  0  0  0  0  0  0  0  0
   31.5350   32.0160   14.8970 O   0  0  0  0  0  0  0  0  0  0  0  0
   32.2110   32.7480   14.8480 H   0  0  0  0  0  0  0  0  0  0  0  0
   29.4570   34.5070   13.6530 N   0  0  0  0  0  0  0  0  0  0  0  0
   28.2170   35.0870   14.0280 C   0  0  0  0  0  0  0  0  0  0  0  0
   29.6940   34.5040   12.6480 H   0  0  0  0  0  0  0  0  0  0  0  0
   27.9390   35.1540   15.2540 O   0  0  0  0  0  0  0  0  0  0  0  0
   27.2990   35.5770   13.1280 O   0  0  0  0  0  0  0  0  0  0  0  0
   26.3740   34.7850   12.4080 C   0  0  0  0  0  0  0  0  0  0  0  0
   26.7720   34.8230   10.9600 C   0  0  0  0  0  0  0  0  0  0  0  0
   26.7570   35.8970   10.0980 C   0  0  0  0  0  0  0  0  0  0  0  0
   27.2320   33.7800   10.2130 N   0  0  0  0  0  0  0  0  0  0  0  0
   27.2040   35.4470    8.8900 N   0  0  0  0  0  0  0  0  0  0  0  0
   27.4840   34.1600    8.9900 N   0  0  0  0  0  0  0  0  0  0  0  0
   27.3360   36.2530    7.7300 C   0  0  0  0  0  0  0  0  0  0  0  0
   27.9730   35.7400    6.6160 C   0  0  0  0  0  0  0  0  0  0  0  0
   26.8560   37.5430    7.6440 C   0  0  0  0  0  0  0  0  0  0  0  0
   28.1310   36.4760    5.4610 C   0  0  0  0  0  0  0  0  0  0  0  0
   27.0000   38.2890    6.5110 C   0  0  0  0  0  0  0  0  0  0  0  0
   27.6430   37.7700    5.3880 C   0  0  0  0  0  0  0  0  0  0  0  0
   26.6310   39.5650    6.1550 C   0  0  0  0  0  0  0  0  0  0  0  0
   27.6440   38.7080    4.4290 N   0  0  0  0  0  0  0  0  0  0  0  0
   27.0420   39.7870    4.8730 N   0  0  0  0  0  0  0  0  0  0  0  0
   28.0580   38.5900    3.4850 H   0  0  0  0  0  0  0  0  0  0  0  0
   29.8670   25.5550   16.9770 C   0  0  0  0  0  0  0  0  0  0  0  0
   28.3450   25.7220   17.0260 C   0  0  0  0  0  0  0  0  0  0  0  0
   27.6010   24.4020   16.8950 C   0  0  0  0  0  0  0  0  0  0  0  0
   26.4200   24.3230   17.8220 C   0  0  0  0  0  0  0  0  0  0  0  0
   26.4510   25.5030   18.7880 C   0  0  0  0  0  0  0  0  0  0  0  0
   25.1480   26.2100   18.7860 N   0  0  0  0  0  0  0  0  0  0  0  0
  2  1  1  1  0  0  0
  2  3  1  0  0  0  0
  3 23  1  1  0  0  0
  4  3  1  6  0  0  0
  4  9  1  0  0  0  0
  5 10  1  6  0  0  0
  5 12  1  0  0  0  0
  5  6  1  0  0  0  0
  6  8  1  0  0  0  0
  7  5  1  0  0  0  0
  7  4  1  0  0  0  0
  8 16  1  1  0  0  0
  9  8  1  0  0  0  0
  9 18  1  6  0  0  0
 11 10  1  0  0  0  0
 12 14  1  0  0  0  0
 13 12  2  0  0  0  0
 15 14  1  0  0  0  0
 17 16  1  0  0  0  0
 18 19  1  0  0  0  0
 19 22  2  0  0  0  0
 19 21  1  0  0  0  0
 20 18  1  0  0  0  0
 23 24  1  0  0  0  0
 25  2  1  0  0  0  0
 26 25  1  0  0  0  0
 27 28  1  0  0  0  0
 27  1  1  0  0  0  0
 28 30  2  0  0  0  0
 29 27  1  0  0  0  0
 31 28  1  0  0  0  0
 32 31  1  0  0  0  0
 33 32  1  0  0  0  0
 34 33  2  0  0  0  0
 35 33  1  0  0  0  0
 36 37  1  0  0  0  0
 36 34  1  0  0  0  0
 37 35  2  0  0  0  0
 38 36  1  0  0  0  0
 39 38  2  0  0  0  0
 40 38  1  0  0  0  0
 41 39  1  0  0  0  0
 42 40  2  0  0  0  0
 43 41  2  0  0  0  0
 43 42  1  0  0  0  0
 44 42  1  0  0  0  0
 45 46  1  0  0  0  0
 45 43  1  0  0  0  0
 46 44  2  0  0  0  0
 47 45  1  0  0  0  0
 48 49  1  0  0  0  0
 50 49  1  0  0  0  0
 50 51  1  0  0  0  0
 51 52  1  0  0  0  0
 53 52  1  0  0  0  0
M  END
>  <REMARK>
 VINA RESULT:    -4.647      2.913      5.289
 INTER + INTRA:         -14.533
 INTER:                 -11.178
 INTRA:                  -3.355
 UNBOUND:                -6.490
 SMILES CC(=O)N[C@@H]1[C@@H](O)C[C@](O)(C(=O)O)O[C@H]1C(O)[C@H](O)CNC(=O)OCc1cn(-c2ccc3[nH]ncc3c2)nn1
 SMILES IDX 20 1 18 2 16 3 15 4 9 5 8 6 14 7 6 8 5 9 10 10 11 12 12 13
 SMILES IDX 13 14 7 16 4 18 2 19 1 21 3 22 17 23 19 25 21 27 22 28 23 30
 SMILES IDX 24 31 25 32 26 33 27 34 39 35 28 36 38 37 29 38 30 39 37 40
 SMILES IDX 31 41 36 42 32 43 35 44 33 45 34 46
 H PARENT 10 11 13 15 7 17 4 20 17 24 19 26 21 29 33 47
 Flexibility Score: inf
  4 active torsions:
  status: ('A' for Active; 'I' for Inactive)
    1  A    between atoms: CA   and  CB  
    2  A    between atoms: CB   and  CG  
    3  A    between atoms: CG   and  CD  
    4  A    between atoms: CD   and  CE  

>  <TORSDO>
F 15

>  <BEGIN_>
RES LYS A 131

$$$$
ligand_20_pose_10_2HRL.pdbqt
 OpenBabel07062320523D

  6  5  0  0  0  0  0  0  0  0999 V2000
   33.1930   34.6630    9.2900 C   0  0  0  0  0  0  0  0  0  0  0  0
   32.0600   35.3600   10.0340 C   0  0  0  0  0  0  0  0  0  0  0  0
   30.8210   35.5560    9.1980 C   0  0  0  0  0  0  0  0  0  0  0  0
   30.4740   37.0330    9.0910 C   0  0  0  0  0  0  0  0  0  0  0  0
   30.2160   37.6200   10.4660 C   0  0  0  0  0  0  0  0  0  0  0  0
   29.1350   38.6430   10.4180 N   0  0  0  0  0  0  0  0  0  0  0  0
  1  2  1  0  0  0  0
  3  2  1  0  0  0  0
  4  3  1  0  0  0  0
  4  5  1  0  0  0  0
  6  5  1  0  0  0  0
M  END
>  <EGIN_R>
ES LYS A 135

>  <REMARK>
  4 active torsions:
  status: ('A' for Active; 'I' for Inactive)
    5  A    between atoms: CA   and  CB  
    6  A    between atoms: CB   and  CG  
    7  A    between atoms: CG   and  CD  
    8  A    between atoms: CD   and  CE  

$$$$
