ligand_40_pose_17_2HRL.pdbqt
 OpenBabel07062320523D

 50 51  0  0  1  0  0  0  0  0999 V2000
   25.8620   34.3340   15.8920 C   0  0  0  0  0  0  0  0  0  0  0  0
   27.1460   33.6120   15.8820 C   0  0  2  0  0  0  0  0  0  0  0  0
   28.3550   34.2680   15.2970 C   0  0  2  0  0  0  0  0  0  0  0  0
   29.5760   34.3250   16.1590 C   0  0  2  0  0  0  0  0  0  0  0  0
   31.2860   34.1980   14.5630 C   0  0  2  0  0  0  0  0  0  0  0  0
   31.8950   32.9530   15.1840 C   0  0  0  0  0  0  0  0  0  0  0  0
   30.5910   34.9710   15.4370 O   0  0  0  0  0  0  0  0  0  0  0  0
   30.8200   32.2140   15.9630 C   0  0  1  0  0  0  0  0  0  0  0  0
   30.0510   33.1230   16.8660 C   0  0  1  0  0  0  0  0  0  0  0  0
   30.5850   33.7870   13.4540 O   0  0  0  0  0  0  0  0  0  0  0  0
   29.6020   33.8980   13.5240 H   0  0  0  0  0  0  0  0  0  0  0  0
   32.4530   35.0120   14.0970 C   0  0  0  0  0  0  0  0  0  0  0  0
   33.0860   35.7830   14.8770 O   0  0  0  0  0  0  0  0  0  0  0  0
   32.8660   34.9360   12.7820 O   0  0  0  0  0  0  0  0  0  0  0  0
   33.8670   34.9340   12.5740 H   0  0  0  0  0  0  0  0  0  0  0  0
   29.9420   31.7500   14.9810 O   0  0  0  0  0  0  0  0  0  0  0  0
   30.2700   30.9140   14.5620 H   0  0  0  0  0  0  0  0  0  0  0  0
   30.8100   33.5860   18.0120 N   0  0  0  0  0  0  0  0  0  0  0  0
   30.8680   32.8950   19.2340 C   0  0  0  0  0  0  0  0  0  0  0  0
   31.3240   34.4810   17.8750 H   0  0  0  0  0  0  0  0  0  0  0  0
   31.6300   33.3390   20.4160 C   0  0  0  0  0  0  0  0  0  0  0  0
   30.2170   31.8340   19.2940 O   0  0  0  0  0  0  0  0  0  0  0  0
   27.9940   35.6940   15.2770 O   0  0  0  0  0  0  0  0  0  0  0  0
   27.5870   35.8640   14.3860 H   0  0  0  0  0  0  0  0  0  0  0  0
   27.0000   32.2810   15.5230 O   0  0  0  0  0  0  0  0  0  0  0  0
   27.8370   31.9180   15.0990 H   0  0  0  0  0  0  0  0  0  0  0  0
   25.4190   34.8240   14.5850 N   0  0  0  0  0  0  0  0  0  0  0  0
   24.6910   34.0080   13.6910 C   0  0  0  0  0  0  0  0  0  0  0  0
   25.6320   35.8010   14.2510 H   0  0  0  0  0  0  0  0  0  0  0  0
   24.4140   32.8460   14.0060 O   0  0  0  0  0  0  0  0  0  0  0  0
   24.2580   34.4550   12.4410 O   0  0  0  0  0  0  0  0  0  0  0  0
   24.2160   35.8380   12.1790 C   0  0  0  0  0  0  0  0  0  0  0  0
   25.1550   36.2560   11.1320 C   0  0  0  0  0  0  0  0  0  0  0  0
   26.4060   36.7770   11.3900 C   0  0  0  0  0  0  0  0  0  0  0  0
   25.0550   36.2430    9.7880 N   0  0  0  0  0  0  0  0  0  0  0  0
   27.0290   37.0660   10.2280 N   0  0  0  0  0  0  0  0  0  0  0  0
   26.1810   36.7290    9.2800 N   0  0  0  0  0  0  0  0  0  0  0  0
   28.3270   37.6180   10.0150 C   0  0  0  0  0  0  0  0  0  0  0  0
   28.7330   38.0150    8.7570 C   0  0  0  0  0  0  0  0  0  0  0  0
   29.2320   37.7810   11.0430 C   0  0  0  0  0  0  0  0  0  0  0  0
   29.9860   38.5510    8.5350 C   0  0  0  0  0  0  0  0  0  0  0  0
   30.4860   38.3150   10.8280 C   0  0  0  0  0  0  0  0  0  0  0  0
   30.8840   38.7100    9.5690 C   0  0  0  0  0  0  0  0  0  0  0  0
   32.2440   39.2800    9.3800 C   0  0  0  0  0  0  0  0  0  0  0  0
   29.8670   25.5550   16.9770 C   0  0  0  0  0  0  0  0  0  0  0  0
   28.3450   25.7220   17.0260 C   0  0  0  0  0  0  0  0  0  0  0  0
   27.6010   24.4030   16.8870 C   0  0  0  0  0  0  0  0  0  0  0  0
   26.6790   24.1470   18.0470 C   0  0  0  0  0  0  0  0  0  0  0  0
   25.5350   23.2440   17.5980 C   0  0  0  0  0  0  0  0  0  0  0  0
   24.5020   24.0310   16.8840 N   0  0  0  0  0  0  0  0  0  0  0  0
  2  1  1  6  0  0  0
  3 23  1  1  0  0  0
  3  2  1  0  0  0  0
  4  3  1  6  0  0  0
  4  9  1  0  0  0  0
  5 10  1  6  0  0  0
  5  6  1  0  0  0  0
  5  7  1  0  0  0  0
  6  8  1  0  0  0  0
  7  4  1  0  0  0  0
  8 16  1  6  0  0  0
  8  9  1  0  0  0  0
  9 18  1  1  0  0  0
 10 11  1  0  0  0  0
 12  5  1  0  0  0  0
 12 13  2  0  0  0  0
 14 12  1  0  0  0  0
 15 14  1  0  0  0  0
 17 16  1  0  0  0  0
 18 19  1  0  0  0  0
 19 22  2  0  0  0  0
 19 21  1  0  0  0  0
 20 18  1  0  0  0  0
 24 23  1  0  0  0  0
 25  2  1  0  0  0  0
 26 25  1  0  0  0  0
 27  1  1  0  0  0  0
 28 30  2  0  0  0  0
 28 27  1  0  0  0  0
 29 27  1  0  0  0  0
 31 28  1  0  0  0  0
 32 31  1  0  0  0  0
 33 34  2  0  0  0  0
 33 32  1  0  0  0  0
 35 33  1  0  0  0  0
 36 34  1  0  0  0  0
 37 35  2  0  0  0  0
 37 36  1  0  0  0  0
 38 36  1  0  0  0  0
 38 40  2  0  0  0  0
 39 38  1  0  0  0  0
 41 39  2  0  0  0  0
 41 43  1  0  0  0  0
 42 40  1  0  0  0  0
 43 42  2  0  0  0  0
 44 43  1  0  0  0  0
 45 46  1  0  0  0  0
 47 46  1  0  0  0  0
 47 48  1  0  0  0  0
 49 48  1  0  0  0  0
 50 49  1  0  0  0  0
M  END
>  <REMARK>
 VINA RESULT:    -5.050      2.892      6.426
 INTER + INTRA:         -13.752
 INTER:                  -8.298
 INTRA:                  -5.455
 UNBOUND:                -5.012
 SMILES CC(=O)N[C@@H]1[C@@H](O)C[C@](O)(C(=O)O)O[C@H]1C(O)[C@H](O)CNC(=O)OCc1cn(-c2ccc(C)cc2)nn1
 SMILES IDX 20 1 18 2 16 3 15 4 9 5 8 6 14 7 6 8 5 9 10 10 11 12 12 13
 SMILES IDX 13 14 7 16 4 18 2 19 1 21 3 22 17 23 19 25 21 27 22 28 23 30
 SMILES IDX 24 31 25 32 26 33 27 34 37 35 28 36 36 37 29 38 30 39 35 40
 SMILES IDX 31 41 34 42 32 43 33 44
 H PARENT 10 11 13 15 7 17 4 20 17 24 19 26 21 29
 Flexibility Score: inf
  4 active torsions:
  status: ('A' for Active; 'I' for Inactive)
    1  A    between atoms: CA   and  CB  
    2  A    between atoms: CB   and  CG  
    3  A    between atoms: CG   and  CD  
    4  A    between atoms: CD   and  CE  

>  <TORSDO>
F 15

>  <BEGIN_>
RES LYS A 131

$$$$
ligand_40_pose_17_2HRL.pdbqt
 OpenBabel07062320523D

  6  5  0  0  0  0  0  0  0  0999 V2000
   33.1930   34.6630    9.2900 C   0  0  0  0  0  0  0  0  0  0  0  0
   32.0600   35.3600   10.0340 C   0  0  0  0  0  0  0  0  0  0  0  0
   30.7320   34.6600    9.9030 C   0  0  0  0  0  0  0  0  0  0  0  0
   30.3330   34.5360    8.4400 C   0  0  0  0  0  0  0  0  0  0  0  0
   28.8250   34.4400    8.3060 C   0  0  0  0  0  0  0  0  0  0  0  0
   28.2210   33.7900    9.5020 N   0  0  0  0  0  0  0  0  0  0  0  0
  1  2  1  0  0  0  0
  3  2  1  0  0  0  0
  4  3  1  0  0  0  0
  5  4  1  0  0  0  0
  5  6  1  0  0  0  0
M  END
>  <EGIN_R>
ES LYS A 135

>  <REMARK>
  4 active torsions:
  status: ('A' for Active; 'I' for Inactive)
    5  A    between atoms: CA   and  CB  
    6  A    between atoms: CB   and  CG  
    7  A    between atoms: CG   and  CD  
    8  A    between atoms: CD   and  CE  

$$$$
