ligand_44_pose_1_2HRL.pdbqt
 OpenBabel07062320523D

 51 52  0  0  1  0  0  0  0  0999 V2000
   28.3130   29.5780   17.8390 N   0  0  0  0  0  0  0  0  0  0  0  0
   28.0160   29.9150   16.4960 C   0  0  0  0  0  0  0  0  0  0  0  0
   26.9610   29.6440   15.8910 O   0  0  0  0  0  0  0  0  0  0  0  0
   29.2520   29.8680   18.2590 H   0  0  0  0  0  0  0  0  0  0  0  0
   27.3640   28.8550   18.6250 C   0  0  0  0  0  0  0  0  0  0  0  0
   27.9510   28.0700   19.7710 C   0  0  2  0  0  0  0  0  0  0  0  0
   28.8610   28.8670   20.6330 C   0  0  1  0  0  0  0  0  0  0  0  0
   28.9540   28.5360   22.0690 C   0  0  2  0  0  0  0  0  0  0  0  0
   30.8750   27.3420   22.5210 C   0  0  2  0  0  0  0  0  0  0  0  0
   30.4160   26.8800   23.8850 C   0  0  0  0  0  0  0  0  0  0  0  0
   30.3250   28.6050   22.3690 O   0  0  0  0  0  0  0  0  0  0  0  0
   28.9360   26.7220   23.8040 C   0  0  1  0  0  0  0  0  0  0  0  0
   28.2830   27.3430   22.5850 C   0  0  1  0  0  0  0  0  0  0  0  0
   30.4510   26.4100   21.6000 O   0  0  0  0  0  0  0  0  0  0  0  0
   29.4920   26.2330   21.6090 H   0  0  0  0  0  0  0  0  0  0  0  0
   32.3510   27.4710   22.5660 C   0  0  0  0  0  0  0  0  0  0  0  0
   33.0640   26.8890   23.4140 O   0  0  0  0  0  0  0  0  0  0  0  0
   32.9450   28.2870   21.6090 O   0  0  0  0  0  0  0  0  0  0  0  0
   32.4340   28.7090   20.8500 H   0  0  0  0  0  0  0  0  0  0  0  0
   28.6760   25.3340   23.7290 O   0  0  0  0  0  0  0  0  0  0  0  0
   29.2000   24.8290   24.3820 H   0  0  0  0  0  0  0  0  0  0  0  0
   26.9280   27.6590   23.0910 N   0  0  0  0  0  0  0  0  0  0  0  0
   25.8100   26.8520   22.8480 C   0  0  0  0  0  0  0  0  0  0  0  0
   26.8750   28.5450   23.6490 H   0  0  0  0  0  0  0  0  0  0  0  0
   24.4840   27.2640   23.3960 C   0  0  0  0  0  0  0  0  0  0  0  0
   25.9140   25.8080   22.1880 O   0  0  0  0  0  0  0  0  0  0  0  0
   30.0570   29.0820   19.9650 O   0  0  0  0  0  0  0  0  0  0  0  0
   30.7820   29.2600   20.6300 H   0  0  0  0  0  0  0  0  0  0  0  0
   28.4340   26.8190   19.4280 O   0  0  0  0  0  0  0  0  0  0  0  0
   27.7500   26.1210   19.4250 H   0  0  0  0  0  0  0  0  0  0  0  0
   28.9770   30.6180   15.7700 O   0  0  0  0  0  0  0  0  0  0  0  0
   30.1420   31.1130   16.3830 C   0  0  0  0  0  0  0  0  0  0  0  0
   30.6400   32.3310   15.7190 C   0  0  0  0  0  0  0  0  0  0  0  0
   31.7800   33.0700   15.9280 C   0  0  0  0  0  0  0  0  0  0  0  0
   29.9540   32.9330   14.7200 N   0  0  0  0  0  0  0  0  0  0  0  0
   31.7520   34.0980   15.0480 N   0  0  0  0  0  0  0  0  0  0  0  0
   30.6430   33.9780   14.3440 N   0  0  0  0  0  0  0  0  0  0  0  0
   32.7740   35.1180   14.9340 C   0  0  0  0  0  0  0  0  0  0  0  0
   32.2900   36.1260   13.9330 C   0  0  0  0  0  0  0  0  0  0  0  0
   32.7160   36.0280   12.6170 C   0  0  0  0  0  0  0  0  0  0  0  0
   31.4330   37.1280   14.3330 C   0  0  0  0  0  0  0  0  0  0  0  0
   32.2620   36.9590   11.7200 C   0  0  0  0  0  0  0  0  0  0  0  0
   30.9700   38.0760   13.4220 C   0  0  0  0  0  0  0  0  0  0  0  0
   31.4060   37.9570   12.1260 C   0  0  0  0  0  0  0  0  0  0  0  0
   30.7880   39.2420   10.8510 Br  0  0  0  0  0  0  0  0  0  0  0  0
   29.8670   25.5550   16.9770 C   0  0  0  0  0  0  0  0  0  0  0  0
   28.3450   25.7220   17.0260 C   0  0  0  0  0  0  0  0  0  0  0  0
   27.6000   24.4070   16.8550 C   0  0  0  0  0  0  0  0  0  0  0  0
   26.1450   24.5300   17.2110 C   0  0  0  0  0  0  0  0  0  0  0  0
   25.9840   24.4600   18.7260 C   0  0  0  0  0  0  0  0  0  0  0  0
   25.4730   23.1290   19.1330 N   0  0  0  0  0  0  0  0  0  0  0  0
  1  4  1  0  0  0  0
  1  5  1  0  0  0  0
  2  1  1  0  0  0  0
  3  2  2  0  0  0  0
  6  5  1  6  0  0  0
  6  7  1  0  0  0  0
  7 27  1  6  0  0  0
  8  7  1  6  0  0  0
  8 11  1  0  0  0  0
  8 13  1  0  0  0  0
  9 14  1  6  0  0  0
  9 16  1  0  0  0  0
  9 10  1  0  0  0  0
 11  9  1  0  0  0  0
 12 20  1  6  0  0  0
 12 10  1  0  0  0  0
 13 22  1  1  0  0  0
 13 12  1  0  0  0  0
 14 15  1  0  0  0  0
 16 17  2  0  0  0  0
 18 16  1  0  0  0  0
 19 18  1  0  0  0  0
 20 21  1  0  0  0  0
 22 24  1  0  0  0  0
 23 22  1  0  0  0  0
 23 25  1  0  0  0  0
 26 23  2  0  0  0  0
 27 28  1  0  0  0  0
 29  6  1  0  0  0  0
 30 29  1  0  0  0  0
 31 32  1  0  0  0  0
 31  2  1  0  0  0  0
 33 34  2  0  0  0  0
 33 32  1  0  0  0  0
 35 33  1  0  0  0  0
 36 34  1  0  0  0  0
 37 35  2  0  0  0  0
 37 36  1  0  0  0  0
 38 36  1  0  0  0  0
 39 41  1  0  0  0  0
 39 38  1  0  0  0  0
 40 39  2  0  0  0  0
 42 44  2  0  0  0  0
 42 40  1  0  0  0  0
 43 41  2  0  0  0  0
 44 43  1  0  0  0  0
 45 44  1  0  0  0  0
 46 47  1  0  0  0  0
 48 47  1  0  0  0  0
 48 49  1  0  0  0  0
 49 50  1  0  0  0  0
 50 51  1  0  0  0  0
M  END
>  <REMARK>
 VINA RESULT:    -4.799      4.602      9.593
 INTER + INTRA:         -14.984
 INTER:                 -10.389
 INTRA:                  -4.596
 UNBOUND:                -6.398
 SMILES CC(=O)N[C@@H]1[C@@H](O)C[C@](O)(C(=O)O)O[C@H]1C(O)[C@H](O)CNC(=O)OCc1cn(Cc2ccc(Br)cc2)nn1
 SMILES IDX 21 1 22 2 23 3 20 5 18 6 16 7 15 8 9 9 8 10 14 11 6 12 5 13
 SMILES IDX 10 14 11 16 12 17 13 18 7 20 4 22 2 23 1 25 3 26 17 27 19 29
 SMILES IDX 24 31 25 32 26 33 27 34 38 35 28 36 37 37 29 38 30 39 31 40
 SMILES IDX 36 41 32 42 35 43 33 44 34 45
 H PARENT 21 4 10 15 13 19 7 21 4 24 17 28 19 30
 Flexibility Score: inf
  4 active torsions:
  status: ('A' for Active; 'I' for Inactive)
    1  A    between atoms: CA   and  CB  
    2  A    between atoms: CB   and  CG  
    3  A    between atoms: CG   and  CD  
    4  A    between atoms: CD   and  CE  

>  <TORSDO>
F 16

>  <BEGIN_>
RES LYS A 131

$$$$
ligand_44_pose_1_2HRL.pdbqt
 OpenBabel07062320523D

  6  5  0  0  0  0  0  0  0  0999 V2000
   33.1930   34.6630    9.2900 C   0  0  0  0  0  0  0  0  0  0  0  0
   32.0600   35.3600   10.0340 C   0  0  0  0  0  0  0  0  0  0  0  0
   30.7950   35.4860    9.2240 C   0  0  0  0  0  0  0  0  0  0  0  0
   30.1860   34.1170    8.9650 C   0  0  0  0  0  0  0  0  0  0  0  0
   28.7100   34.2430    8.6410 C   0  0  0  0  0  0  0  0  0  0  0  0
   27.8690   33.8200    9.7960 N   0  0  0  0  0  0  0  0  0  0  0  0
  1  2  1  0  0  0  0
  3  2  1  0  0  0  0
  4  3  1  0  0  0  0
  5  4  1  0  0  0  0
  5  6  1  0  0  0  0
M  END
>  <EGIN_R>
ES LYS A 135

>  <REMARK>
  4 active torsions:
  status: ('A' for Active; 'I' for Inactive)
    5  A    between atoms: CA   and  CB  
    6  A    between atoms: CB   and  CG  
    7  A    between atoms: CG   and  CD  
    8  A    between atoms: CD   and  CE  

$$$$
