ligand_72_pose_9_2HRL.pdbqt
 OpenBabel07062320523D

 49 49  0  0  1  0  0  0  0  0999 V2000
   28.1350   28.8580   18.5820 N   0  0  0  0  0  0  0  0  0  0  0  0
   27.5800   28.4570   19.8400 C   0  0  0  0  0  0  0  0  0  0  0  0
   26.3610   28.6990   20.1360 O   0  0  0  0  0  0  0  0  0  0  0  0
   29.1260   28.6250   18.3870 H   0  0  0  0  0  0  0  0  0  0  0  0
   27.3010   29.5510   17.6230 C   0  0  0  0  0  0  0  0  0  0  0  0
   28.0020   29.8630   16.3600 C   0  0  2  0  0  0  0  0  0  0  0  0
   29.1930   30.7430   16.4150 C   0  0  1  0  0  0  0  0  0  0  0  0
   28.8140   32.1980   16.2930 C   0  0  2  0  0  0  0  0  0  0  0  0
   30.6050   33.1200   15.0520 C   0  0  2  0  0  0  0  0  0  0  0  0
   31.0460   33.9010   16.3040 C   0  0  0  0  0  0  0  0  0  0  0  0
   29.3090   32.7200   15.1160 O   0  0  0  0  0  0  0  0  0  0  0  0
   29.7810   34.3300   16.9690 C   0  0  1  0  0  0  0  0  0  0  0  0
   29.1120   33.0300   17.5030 C   0  0  1  0  0  0  0  0  0  0  0  0
   31.5370   32.1350   14.7970 O   0  0  0  0  0  0  0  0  0  0  0  0
   32.4340   32.5360   14.7090 H   0  0  0  0  0  0  0  0  0  0  0  0
   30.6730   34.0960   13.8950 C   0  0  0  0  0  0  0  0  0  0  0  0
   29.6270   34.5510   13.3760 O   0  0  0  0  0  0  0  0  0  0  0  0
   31.9180   34.4650   13.4340 O   0  0  0  0  0  0  0  0  0  0  0  0
   32.0290   35.1720   12.7150 H   0  0  0  0  0  0  0  0  0  0  0  0
   29.9700   35.2210   18.0070 O   0  0  0  0  0  0  0  0  0  0  0  0
   30.0190   36.1270   17.6040 H   0  0  0  0  0  0  0  0  0  0  0  0
   27.9010   33.5610   18.1490 N   0  0  0  0  0  0  0  0  0  0  0  0
   27.3090   32.9740   19.2720 C   0  0  0  0  0  0  0  0  0  0  0  0
   27.4860   34.4180   17.7300 H   0  0  0  0  0  0  0  0  0  0  0  0
   26.0840   33.4890   19.9370 C   0  0  0  0  0  0  0  0  0  0  0  0
   27.8390   31.9380   19.7610 O   0  0  0  0  0  0  0  0  0  0  0  0
   30.1870   30.4430   17.2860 O   0  0  0  0  0  0  0  0  0  0  0  0
   29.9250   29.8420   18.0310 H   0  0  0  0  0  0  0  0  0  0  0  0
   27.0830   30.4220   15.4420 O   0  0  0  0  0  0  0  0  0  0  0  0
   27.3780   31.3390   15.2480 H   0  0  0  0  0  0  0  0  0  0  0  0
   28.3930   27.8020   20.7280 O   0  0  0  0  0  0  0  0  0  0  0  0
   29.7870   27.8840   20.7020 C   0  0  0  0  0  0  0  0  0  0  0  0
   30.2480   29.2920   20.8120 C   0  0  0  0  0  0  0  0  0  0  0  0
   30.0020   30.1100   21.8860 C   0  0  0  0  0  0  0  0  0  0  0  0
   30.9540   30.0130   19.9410 N   0  0  0  0  0  0  0  0  0  0  0  0
   30.5610   31.3010   21.6480 N   0  0  0  0  0  0  0  0  0  0  0  0
   31.1380   31.2120   20.4480 N   0  0  0  0  0  0  0  0  0  0  0  0
   30.5260   32.4360   22.5340 C   0  0  0  0  0  0  0  0  0  0  0  0
   31.4420   32.2200   23.7200 C   0  0  0  0  0  0  0  0  0  0  0  0
   29.0920   32.6400   23.0060 C   0  0  0  0  0  0  0  0  0  0  0  0
   30.9180   33.6810   21.7810 C   0  0  0  0  0  0  0  0  0  0  0  0
   30.0220   33.9070   20.7310 O   0  0  0  0  0  0  0  0  0  0  0  0
   29.1690   34.2350   21.1130 H   0  0  0  0  0  0  0  0  0  0  0  0
   29.8670   25.5550   16.9770 C   0  0  0  0  0  0  0  0  0  0  0  0
   28.3450   25.7220   17.0260 C   0  0  0  0  0  0  0  0  0  0  0  0
   27.6010   24.4030   16.8860 C   0  0  0  0  0  0  0  0  0  0  0  0
   26.6410   24.1710   18.0200 C   0  0  0  0  0  0  0  0  0  0  0  0
   25.5360   23.2230   17.5650 C   0  0  0  0  0  0  0  0  0  0  0  0
   24.4610   23.9730   16.8740 N   0  0  0  0  0  0  0  0  0  0  0  0
  1  2  1  0  0  0  0
  2  3  2  0  0  0  0
  2 31  1  0  0  0  0
  4  1  1  0  0  0  0
  5  1  1  0  0  0  0
  6  7  1  0  0  0  0
  6  5  1  1  0  0  0
  7 27  1  1  0  0  0
  8  7  1  1  0  0  0
  8 13  1  0  0  0  0
  9 16  1  6  0  0  0
  9 11  1  0  0  0  0
  9 10  1  0  0  0  0
 10 12  1  0  0  0  0
 11  8  1  0  0  0  0
 12 13  1  0  0  0  0
 12 20  1  1  0  0  0
 13 22  1  6  0  0  0
 14  9  1  0  0  0  0
 15 14  1  0  0  0  0
 17 16  2  0  0  0  0
 18 16  1  0  0  0  0
 19 18  1  0  0  0  0
 21 20  1  0  0  0  0
 22 23  1  0  0  0  0
 23 26  2  0  0  0  0
 23 25  1  0  0  0  0
 24 22  1  0  0  0  0
 27 28  1  0  0  0  0
 29  6  1  0  0  0  0
 30 29  1  0  0  0  0
 32 31  1  0  0  0  0
 32 33  1  0  0  0  0
 33 34  2  0  0  0  0
 35 37  2  0  0  0  0
 35 33  1  0  0  0  0
 36 34  1  0  0  0  0
 36 38  1  0  0  0  0
 37 36  1  0  0  0  0
 38 40  1  0  0  0  0
 38 39  1  0  0  0  0
 41 38  1  0  0  0  0
 42 43  1  0  0  0  0
 42 41  1  0  0  0  0
 44 45  1  0  0  0  0
 46 45  1  0  0  0  0
 46 47  1  0  0  0  0
 48 47  1  0  0  0  0
 49 48  1  0  0  0  0
M  END
>  <REMARK>
 VINA RESULT:    -4.368      6.996     13.225
 INTER + INTRA:         -14.087
 INTER:                  -6.954
 INTRA:                  -7.133
 UNBOUND:                -6.145
 SMILES CC(=O)N[C@@H]1[C@@H](O)C[C@](O)(C(=O)O)O[C@H]1C(O)[C@H](O)CNC(=O)OCc1cn(C(C)(C)CO)nn1
 SMILES IDX 21 1 22 2 23 3 20 5 18 6 16 7 15 8 9 9 8 10 14 11 6 12 5 13
 SMILES IDX 10 14 11 16 12 17 13 18 7 20 4 22 2 23 1 25 3 26 17 27 19 29
 SMILES IDX 24 31 25 32 26 33 27 34 35 35 28 36 34 37 29 38 30 39 31 40
 SMILES IDX 32 41 33 42
 H PARENT 21 4 10 15 13 19 7 21 4 24 17 28 19 30 33 43
 Flexibility Score: inf
  4 active torsions:
  status: ('A' for Active; 'I' for Inactive)
    1  A    between atoms: CA   and  CB  
    2  A    between atoms: CB   and  CG  
    3  A    between atoms: CG   and  CD  
    4  A    between atoms: CD   and  CE  

>  <TORSDO>
F 17

>  <BEGIN_>
RES LYS A 131

$$$$
ligand_72_pose_9_2HRL.pdbqt
 OpenBabel07062320523D

  6  5  0  0  0  0  0  0  0  0999 V2000
   33.1930   34.6630    9.2900 C   0  0  0  0  0  0  0  0  0  0  0  0
   32.0600   35.3600   10.0340 C   0  0  0  0  0  0  0  0  0  0  0  0
   30.8410   35.6040    9.1830 C   0  0  0  0  0  0  0  0  0  0  0  0
   30.2430   34.2880    8.7110 C   0  0  0  0  0  0  0  0  0  0  0  0
   28.7410   34.4160    8.5400 C   0  0  0  0  0  0  0  0  0  0  0  0
   28.0150   33.6840    9.6150 N   0  0  0  0  0  0  0  0  0  0  0  0
  1  2  1  0  0  0  0
  3  2  1  0  0  0  0
  4  3  1  0  0  0  0
  5  4  1  0  0  0  0
  5  6  1  0  0  0  0
M  END
>  <EGIN_R>
ES LYS A 135

>  <REMARK>
  4 active torsions:
  status: ('A' for Active; 'I' for Inactive)
    5  A    between atoms: CA   and  CB  
    6  A    between atoms: CB   and  CG  
    7  A    between atoms: CG   and  CD  
    8  A    between atoms: CD   and  CE  

$$$$
