ligand_17_pose_4_2HRL.pdbqt
 OpenBabel07062320523D

 50 50  0  0  1  0  0  0  0  0999 V2000
   28.1060   28.9150   18.7900 N   0  0  0  0  0  0  0  0  0  0  0  0
   27.3510   28.9610   17.5780 C   0  0  0  0  0  0  0  0  0  0  0  0
   26.5420   28.0550   17.3120 O   0  0  0  0  0  0  0  0  0  0  0  0
   28.7610   29.7000   18.9450 H   0  0  0  0  0  0  0  0  0  0  0  0
   27.9950   27.8660   19.7570 C   0  0  0  0  0  0  0  0  0  0  0  0
   29.0940   27.8630   20.7810 C   0  0  2  0  0  0  0  0  0  0  0  0
   30.0050   29.0540   20.5810 C   0  0  1  0  0  0  0  0  0  0  0  0
   30.3280   29.7280   21.8840 C   0  0  2  0  0  0  0  0  0  0  0  0
   30.0450   31.9380   21.1300 C   0  0  2  0  0  0  0  0  0  0  0  0
   31.5580   32.0540   20.9990 C   0  0  0  0  0  0  0  0  0  0  0  0
   29.6550   30.9210   21.9500 O   0  0  0  0  0  0  0  0  0  0  0  0
   32.1500   31.3360   22.2170 C   0  0  1  0  0  0  0  0  0  0  0  0
   31.7920   29.8980   22.0960 C   0  0  1  0  0  0  0  0  0  0  0  0
   29.5220   31.8990   19.8390 O   0  0  0  0  0  0  0  0  0  0  0  0
   29.2880   30.9640   19.5770 H   0  0  0  0  0  0  0  0  0  0  0  0
   29.5610   33.2050   21.7640 C   0  0  0  0  0  0  0  0  0  0  0  0
   30.2810   33.8910   22.5210 O   0  0  0  0  0  0  0  0  0  0  0  0
   28.2760   33.6290   21.5030 O   0  0  0  0  0  0  0  0  0  0  0  0
   28.0200   34.6050   21.3810 H   0  0  0  0  0  0  0  0  0  0  0  0
   33.5260   31.5650   22.2120 O   0  0  0  0  0  0  0  0  0  0  0  0
   33.6770   32.3420   22.8380 H   0  0  0  0  0  0  0  0  0  0  0  0
   32.3040   29.0900   23.1870 N   0  0  0  0  0  0  0  0  0  0  0  0
   32.5830   27.6990   23.0610 C   0  0  0  0  0  0  0  0  0  0  0  0
   32.4950   29.5090   24.1410 H   0  0  0  0  0  0  0  0  0  0  0  0
   33.1110   26.9130   24.2210 C   0  0  0  0  0  0  0  0  0  0  0  0
   32.3900   27.1160   21.9770 O   0  0  0  0  0  0  0  0  0  0  0  0
   31.1540   28.5220   19.9670 O   0  0  0  0  0  0  0  0  0  0  0  0
   31.0010   28.6230   18.9900 H   0  0  0  0  0  0  0  0  0  0  0  0
   29.7260   26.6520   20.8070 O   0  0  0  0  0  0  0  0  0  0  0  0
   30.7050   26.7810   20.7310 H   0  0  0  0  0  0  0  0  0  0  0  0
   27.4800   29.9910   16.6620 O   0  0  0  0  0  0  0  0  0  0  0  0
   28.5040   30.0040   15.6760 C   0  0  0  0  0  0  0  0  0  0  0  0
   29.5040   31.0280   16.0700 C   0  0  0  0  0  0  0  0  0  0  0  0
   29.9220   32.0610   15.2310 C   0  0  0  0  0  0  0  0  0  0  0  0
   30.1860   31.1980   17.2100 N   0  0  0  0  0  0  0  0  0  0  0  0
   30.8160   32.7900   15.8940 N   0  0  0  0  0  0  0  0  0  0  0  0
   30.9670   32.2580   17.0880 N   0  0  0  0  0  0  0  0  0  0  0  0
   31.5020   33.9530   15.3990 C   0  0  0  0  0  0  0  0  0  0  0  0
   30.4710   34.9620   14.9270 C   0  0  0  0  0  0  0  0  0  0  0  0
   30.5540   35.2550   13.5320 N   0  0  0  0  0  0  0  0  0  0  0  0
   29.5290   34.6750   12.7310 C   0  0  0  0  0  0  0  0  0  0  0  0
   28.6170   35.8220   12.2710 C   0  0  0  0  0  0  0  0  0  0  0  0
   31.8790   35.2020   13.0130 C   0  0  0  0  0  0  0  0  0  0  0  0
   32.3400   36.4770   12.3760 C   0  0  0  0  0  0  0  0  0  0  0  0
   29.8670   25.5550   16.9770 C   0  0  0  0  0  0  0  0  0  0  0  0
   28.3450   25.7220   17.0260 C   0  0  0  0  0  0  0  0  0  0  0  0
   27.6010   24.4020   16.8950 C   0  0  0  0  0  0  0  0  0  0  0  0
   26.1840   24.4990   17.3870 C   0  0  0  0  0  0  0  0  0  0  0  0
   25.9170   23.3850   18.3940 C   0  0  0  0  0  0  0  0  0  0  0  0
   25.4070   23.9480   19.6670 N   0  0  0  0  0  0  0  0  0  0  0  0
  1  4  1  0  0  0  0
  1  5  1  0  0  0  0
  2  1  1  0  0  0  0
  3  2  2  0  0  0  0
  6  5  1  6  0  0  0
  6 29  1  0  0  0  0
  7 27  1  1  0  0  0
  7  6  1  0  0  0  0
  8  7  1  6  0  0  0
  8 11  1  0  0  0  0
  8 13  1  0  0  0  0
  9 14  1  6  0  0  0
  9 16  1  0  0  0  0
  9 11  1  0  0  0  0
 10  9  1  0  0  0  0
 10 12  1  0  0  0  0
 12 20  1  6  0  0  0
 13 12  1  0  0  0  0
 13 22  1  1  0  0  0
 15 14  1  0  0  0  0
 16 17  2  0  0  0  0
 18 16  1  0  0  0  0
 19 18  1  0  0  0  0
 20 21  1  0  0  0  0
 22 24  1  0  0  0  0
 23 22  1  0  0  0  0
 23 25  1  0  0  0  0
 26 23  2  0  0  0  0
 28 27  1  0  0  0  0
 30 29  1  0  0  0  0
 31  2  1  0  0  0  0
 32 33  1  0  0  0  0
 32 31  1  0  0  0  0
 33 35  1  0  0  0  0
 34 36  1  0  0  0  0
 34 33  2  0  0  0  0
 36 37  1  0  0  0  0
 37 35  2  0  0  0  0
 38 36  1  0  0  0  0
 39 38  1  0  0  0  0
 40 39  1  0  0  0  0
 41 40  1  0  0  0  0
 42 41  1  0  0  0  0
 43 40  1  0  0  0  0
 44 43  1  0  0  0  0
 45 46  1  0  0  0  0
 47 46  1  0  0  0  0
 47 48  1  0  0  0  0
 48 49  1  0  0  0  0
 49 50  1  0  0  0  0
M  END
>  <REMARK>
 VINA RESULT:    -3.786      1.903      4.184
 INTER + INTRA:         -14.596
 INTER:                  -8.489
 INTRA:                  -6.107
 UNBOUND:                -7.158
 SMILES CCN(CC)CCn1cc(COC(=O)NC[C@@H](O)C(O)[C@@H]2O[C@@](O)(C(=O)O)C[C@H](O)[C@H]2NC(C)=O)nn1
 SMILES IDX 15 1 13 2 14 3 16 5 17 6 19 7 21 8 23 9 28 10 22 11 29 12
 SMILES IDX 31 13 24 14 25 16 26 17 27 18 30 20 32 22 33 23 34 25 35 26
 SMILES IDX 20 27 18 29 12 31 11 32 10 33 9 34 36 35 8 36 37 37 7 38
 SMILES IDX 6 39 3 40 2 41 1 42 4 43 5 44
 H PARENT 15 4 24 15 27 19 30 21 32 24 20 28 18 30
 Flexibility Score: inf
  4 active torsions:
  status: ('A' for Active; 'I' for Inactive)
    1  A    between atoms: CA   and  CB  
    2  A    between atoms: CB   and  CG  
    3  A    between atoms: CG   and  CD  
    4  A    between atoms: CD   and  CE  

>  <TORSDO>
F 19

>  <BEGIN_>
RES LYS A 131

$$$$
ligand_17_pose_4_2HRL.pdbqt
 OpenBabel07062320523D

  6  5  0  0  0  0  0  0  0  0999 V2000
   33.1930   34.6630    9.2900 C   0  0  0  0  0  0  0  0  0  0  0  0
   32.0600   35.3600   10.0340 C   0  0  0  0  0  0  0  0  0  0  0  0
   30.7860   35.4590    9.2350 C   0  0  0  0  0  0  0  0  0  0  0  0
   30.1350   34.0920    9.0910 C   0  0  0  0  0  0  0  0  0  0  0  0
   28.6550   34.2350    8.7950 C   0  0  0  0  0  0  0  0  0  0  0  0
   28.4250   35.1310    7.6280 N   0  0  0  0  0  0  0  0  0  0  0  0
  1  2  1  0  0  0  0
  3  2  1  0  0  0  0
  4  3  1  0  0  0  0
  5  4  1  0  0  0  0
  6  5  1  0  0  0  0
M  END
>  <EGIN_R>
ES LYS A 135

>  <REMARK>
  4 active torsions:
  status: ('A' for Active; 'I' for Inactive)
    5  A    between atoms: CA   and  CB  
    6  A    between atoms: CB   and  CG  
    7  A    between atoms: CG   and  CD  
    8  A    between atoms: CD   and  CE  

$$$$
