ligand_9_pose_10_2HRL.pdbqt
 OpenBabel07062320523D

 54 55  0  0  1  0  0  0  0  0999 V2000
   26.7840   41.0590    7.5600 N   0  0  0  0  0  0  0  0  0  0  0  0
   27.3920   41.3960    6.3210 C   0  0  0  0  0  0  0  0  0  0  0  0
   26.6850   41.9400    5.4360 O   0  0  0  0  0  0  0  0  0  0  0  0
   27.3870   40.6100    8.2780 H   0  0  0  0  0  0  0  0  0  0  0  0
   25.3830   41.3260    7.8140 C   0  0  0  0  0  0  0  0  0  0  0  0
   24.4970   40.1810    7.4530 C   0  0  2  0  0  0  0  0  0  0  0  0
   24.9560   38.8690    8.0030 C   0  0  1  0  0  0  0  0  0  0  0  0
   23.7680   38.1070    8.6460 C   0  0  2  0  0  0  0  0  0  0  0  0
   21.9440   36.8740    8.1260 C   0  0  2  0  0  0  0  0  0  0  0  0
   20.9720   37.8760    8.7070 C   0  0  0  0  0  0  0  0  0  0  0  0
   23.0310   37.5320    7.6450 O   0  0  0  0  0  0  0  0  0  0  0  0
   21.5850   38.7180    9.7840 C   0  0  1  0  0  0  0  0  0  0  0  0
   23.0400   39.0170    9.5640 C   0  0  1  0  0  0  0  0  0  0  0  0
   21.2700   36.3270    6.9980 O   0  0  0  0  0  0  0  0  0  0  0  0
   21.7950   35.6350    6.5580 H   0  0  0  0  0  0  0  0  0  0  0  0
   22.1960   35.7760    9.0700 C   0  0  0  0  0  0  0  0  0  0  0  0
   21.4130   35.4910   10.0380 O   0  0  0  0  0  0  0  0  0  0  0  0
   23.3610   35.0040    8.8940 O   0  0  0  0  0  0  0  0  0  0  0  0
   23.6220   34.3710    9.6610 H   0  0  0  0  0  0  0  0  0  0  0  0
   20.8360   39.8850    9.9200 O   0  0  0  0  0  0  0  0  0  0  0  0
   20.3920   39.9530   10.8030 H   0  0  0  0  0  0  0  0  0  0  0  0
   23.7610   39.1180   10.8210 N   0  0  0  0  0  0  0  0  0  0  0  0
   23.9390   40.3590   11.4870 C   0  0  0  0  0  0  0  0  0  0  0  0
   24.1580   38.2250   11.2380 H   0  0  0  0  0  0  0  0  0  0  0  0
   24.6900   40.3830   12.7700 C   0  0  0  0  0  0  0  0  0  0  0  0
   23.4650   41.4430   11.0030 O   0  0  0  0  0  0  0  0  0  0  0  0
   25.5460   38.0280    7.0930 O   0  0  0  0  0  0  0  0  0  0  0  0
   26.4540   38.2620    6.8300 H   0  0  0  0  0  0  0  0  0  0  0  0
   24.2540   40.1500    6.0830 O   0  0  0  0  0  0  0  0  0  0  0  0
   23.2670   40.1850    5.9590 H   0  0  0  0  0  0  0  0  0  0  0  0
   28.7240   41.1610    6.0290 O   0  0  0  0  0  0  0  0  0  0  0  0
   29.1250   40.1670    5.1060 C   0  0  0  0  0  0  0  0  0  0  0  0
   28.7560   38.8250    5.5950 C   0  0  0  0  0  0  0  0  0  0  0  0
   29.1540   38.1850    6.7560 C   0  0  0  0  0  0  0  0  0  0  0  0
   27.9370   37.9400    4.9860 N   0  0  0  0  0  0  0  0  0  0  0  0
   28.5800   36.9660    6.8130 N   0  0  0  0  0  0  0  0  0  0  0  0
   27.8400   36.8550    5.7060 N   0  0  0  0  0  0  0  0  0  0  0  0
   28.6990   35.9710    7.8080 C   0  0  0  0  0  0  0  0  0  0  0  0
   27.7840   35.8660    8.8380 C   0  0  0  0  0  0  0  0  0  0  0  0
   29.7350   35.0640    7.7890 C   0  0  0  0  0  0  0  0  0  0  0  0
   27.8630   34.9090    9.8300 C   0  0  0  0  0  0  0  0  0  0  0  0
   29.8420   34.0860    8.7740 C   0  0  0  0  0  0  0  0  0  0  0  0
   28.9110   34.0180    9.7800 C   0  0  0  0  0  0  0  0  0  0  0  0
   26.8820   34.8210   10.9050 C   0  0  0  0  0  0  0  0  0  0  0  0
   25.6590   34.7940   10.6210 O   0  0  0  0  0  0  0  0  0  0  0  0
   27.2420   34.7640   12.2410 O   0  0  0  0  0  0  0  0  0  0  0  0
   28.0000   35.7770   12.8710 C   0  0  0  0  0  0  0  0  0  0  0  0
   27.2510   37.0730   12.7670 C   0  0  0  0  0  0  0  0  0  0  0  0
   29.8670   25.5550   16.9770 C   0  0  0  0  0  0  0  0  0  0  0  0
   28.3450   25.7220   17.0260 C   0  0  0  0  0  0  0  0  0  0  0  0
   27.6010   24.4030   16.8870 C   0  0  0  0  0  0  0  0  0  0  0  0
   26.7310   24.1140   18.0790 C   0  0  0  0  0  0  0  0  0  0  0  0
   25.8040   25.2990   18.3310 C   0  0  0  0  0  0  0  0  0  0  0  0
   25.9170   25.7570   19.7360 N   0  0  0  0  0  0  0  0  0  0  0  0
  1  5  1  0  0  0  0
  1  4  1  0  0  0  0
  2  1  1  0  0  0  0
  3  2  2  0  0  0  0
  6  5  1  6  0  0  0
  6  7  1  0  0  0  0
  7 27  1  6  0  0  0
  8  7  1  6  0  0  0
  8 13  1  0  0  0  0
  9 14  1  6  0  0  0
  9 10  1  0  0  0  0
  9 16  1  0  0  0  0
 10 12  1  0  0  0  0
 11  9  1  0  0  0  0
 11  8  1  0  0  0  0
 12 20  1  6  0  0  0
 13 12  1  0  0  0  0
 13 22  1  1  0  0  0
 15 14  1  0  0  0  0
 16 17  2  0  0  0  0
 18 16  1  0  0  0  0
 18 19  1  0  0  0  0
 20 21  1  0  0  0  0
 22 24  1  0  0  0  0
 22 23  1  0  0  0  0
 23 25  1  0  0  0  0
 26 23  2  0  0  0  0
 28 27  1  0  0  0  0
 29  6  1  0  0  0  0
 30 29  1  0  0  0  0
 31  2  1  0  0  0  0
 32 33  1  0  0  0  0
 32 31  1  0  0  0  0
 33 34  2  0  0  0  0
 34 36  1  0  0  0  0
 35 33  1  0  0  0  0
 35 37  2  0  0  0  0
 36 38  1  0  0  0  0
 37 36  1  0  0  0  0
 38 39  1  0  0  0  0
 39 41  2  0  0  0  0
 40 38  2  0  0  0  0
 40 42  1  0  0  0  0
 41 44  1  0  0  0  0
 42 43  2  0  0  0  0
 43 41  1  0  0  0  0
 44 46  1  0  0  0  0
 45 44  2  0  0  0  0
 46 47  1  0  0  0  0
 48 47  1  0  0  0  0
 49 50  1  0  0  0  0
 51 50  1  0  0  0  0
 51 52  1  0  0  0  0
 52 53  1  0  0  0  0
 53 54  1  0  0  0  0
M  END
>  <REMARK>
 VINA RESULT:    -4.915      6.551     13.074
 INTER + INTRA:         -15.041
 INTER:                  -9.538
 INTRA:                  -5.502
 UNBOUND:                -5.671
 SMILES CCOC(=O)c1cccc(-n2cc(COC(=O)NC[C@@H](O)C(O)[C@@H]3O[C@@](O)(C(=O)O)C[C@H](O)[C@H]3NC(C)=O)nn2)c1
 SMILES IDX 18 1 16 2 17 3 19 5 20 6 22 7 24 8 26 9 31 10 25 11 32 12
 SMILES IDX 34 13 27 14 28 16 29 17 30 18 33 20 35 22 36 23 37 25 38 26
 SMILES IDX 23 27 21 29 15 31 14 32 13 33 12 34 39 35 11 36 40 37 10 38
 SMILES IDX 41 39 9 40 6 41 8 42 7 43 4 44 5 45 3 46 2 47 1 48
 H PARENT 18 4 27 15 30 19 33 21 35 24 23 28 21 30
 Flexibility Score: inf
  4 active torsions:
  status: ('A' for Active; 'I' for Inactive)
    1  A    between atoms: CA   and  CB  
    2  A    between atoms: CB   and  CG  
    3  A    between atoms: CG   and  CD  
    4  A    between atoms: CD   and  CE  

>  <TORSDO>
F 18

>  <BEGIN_>
RES LYS A 131

$$$$
ligand_9_pose_10_2HRL.pdbqt
 OpenBabel07062320523D

  6  5  0  0  0  0  0  0  0  0999 V2000
   33.1930   34.6630    9.2900 C   0  0  0  0  0  0  0  0  0  0  0  0
   32.0600   35.3600   10.0340 C   0  0  0  0  0  0  0  0  0  0  0  0
   32.4880   35.9790   11.3400 C   0  0  0  0  0  0  0  0  0  0  0  0
   31.8700   37.3580   11.5080 C   0  0  0  0  0  0  0  0  0  0  0  0
   30.5740   37.4600   10.7260 C   0  0  0  0  0  0  0  0  0  0  0  0
   30.0180   38.8400   10.7870 N   0  0  0  0  0  0  0  0  0  0  0  0
  1  2  1  0  0  0  0
  2  3  1  0  0  0  0
  3  4  1  0  0  0  0
  5  6  1  0  0  0  0
  5  4  1  0  0  0  0
M  END
>  <EGIN_R>
ES LYS A 135

>  <REMARK>
  4 active torsions:
  status: ('A' for Active; 'I' for Inactive)
    5  A    between atoms: CA   and  CB  
    6  A    between atoms: CB   and  CG  
    7  A    between atoms: CG   and  CD  
    8  A    between atoms: CD   and  CE  

$$$$
