ligand_62_pose_1_2HRL.pdbqt
 OpenBabel07062320523D

 52 52  0  0  1  0  0  0  0  0999 V2000
   28.6500   30.9790   18.2180 N   0  0  0  0  0  0  0  0  0  0  0  0
   28.4280   29.9390   19.1430 C   0  0  0  0  0  0  0  0  0  0  0  0
   29.3260   29.5330   19.9150 O   0  0  0  0  0  0  0  0  0  0  0  0
   27.8320   31.2530   17.6160 H   0  0  0  0  0  0  0  0  0  0  0  0
   29.8690   31.6860   18.0240 C   0  0  0  0  0  0  0  0  0  0  0  0
   30.6500   31.3890   16.7980 C   0  0  2  0  0  0  0  0  0  0  0  0
   31.2130   32.6290   16.1370 C   0  0  2  0  0  0  0  0  0  0  0  0
   30.2330   33.7430   15.9490 C   0  0  2  0  0  0  0  0  0  0  0  0
   28.2930   34.2070   14.7760 C   0  0  2  0  0  0  0  0  0  0  0  0
   28.3740   35.3860   15.7100 C   0  0  0  0  0  0  0  0  0  0  0  0
   29.3070   33.2890   14.9860 O   0  0  0  0  0  0  0  0  0  0  0  0
   29.6860   36.0850   15.6850 C   0  0  1  0  0  0  0  0  0  0  0  0
   30.7830   35.0340   15.4510 C   0  0  1  0  0  0  0  0  0  0  0  0
   28.2420   34.6710   13.4740 O   0  0  0  0  0  0  0  0  0  0  0  0
   29.0750   35.1160   13.1800 H   0  0  0  0  0  0  0  0  0  0  0  0
   27.0060   33.5140   15.0540 C   0  0  0  0  0  0  0  0  0  0  0  0
   26.0110   33.6220   14.2840 O   0  0  0  0  0  0  0  0  0  0  0  0
   26.8270   32.7050   16.1820 O   0  0  0  0  0  0  0  0  0  0  0  0
   26.0710   32.8640   16.8340 H   0  0  0  0  0  0  0  0  0  0  0  0
   29.7580   37.0870   14.7190 O   0  0  0  0  0  0  0  0  0  0  0  0
   30.3490   36.7400   13.9950 H   0  0  0  0  0  0  0  0  0  0  0  0
   31.9500   35.5410   16.0880 N   0  0  0  0  0  0  0  0  0  0  0  0
   33.2740   35.3880   15.5280 C   0  0  0  0  0  0  0  0  0  0  0  0
   31.9240   36.0640   16.9890 H   0  0  0  0  0  0  0  0  0  0  0  0
   34.4610   35.9330   16.2280 C   0  0  0  0  0  0  0  0  0  0  0  0
   33.4200   34.7950   14.4530 O   0  0  0  0  0  0  0  0  0  0  0  0
   31.5230   32.1910   14.8120 O   0  0  0  0  0  0  0  0  0  0  0  0
   32.2410   31.5370   14.8200 H   0  0  0  0  0  0  0  0  0  0  0  0
   29.8360   30.7820   15.8450 O   0  0  0  0  0  0  0  0  0  0  0  0
   28.9470   31.2100   15.8390 H   0  0  0  0  0  0  0  0  0  0  0  0
   27.1880   29.3150   19.2360 O   0  0  0  0  0  0  0  0  0  0  0  0
   26.7650   28.3670   18.2910 C   0  0  0  0  0  0  0  0  0  0  0  0
   26.1690   29.0250   17.1140 C   0  0  0  0  0  0  0  0  0  0  0  0
   24.8330   29.0840   16.7670 C   0  0  0  0  0  0  0  0  0  0  0  0
   26.8640   29.6900   16.1660 N   0  0  0  0  0  0  0  0  0  0  0  0
   24.7650   29.7760   15.6360 N   0  0  0  0  0  0  0  0  0  0  0  0
   25.9660   30.1320   15.2820 N   0  0  0  0  0  0  0  0  0  0  0  0
   23.5460   30.0930   14.8950 C   0  0  1  0  0  0  0  0  0  0  0  0
   22.9760   31.3720   15.4390 C   0  0  0  0  0  0  0  0  0  0  0  0
   21.7670   31.1470   16.0570 O   0  0  0  0  0  0  0  0  0  0  0  0
   20.6660   31.3000   15.2430 C   0  0  0  0  0  0  0  0  0  0  0  0
   23.9020   30.3060   13.4540 C   0  0  0  0  0  0  0  0  0  0  0  0
   23.8780   29.3640   12.6480 O   0  0  0  0  0  0  0  0  0  0  0  0
   24.2650   31.6190   13.0520 N   0  0  0  0  0  0  0  0  0  0  0  0
   24.1420   31.8860   12.0480 H   0  0  0  0  0  0  0  0  0  0  0  0
   24.6390   32.2950   13.7280 H   0  0  0  0  0  0  0  0  0  0  0  0
   29.8670   25.5550   16.9770 C   0  0  0  0  0  0  0  0  0  0  0  0
   28.3450   25.7220   17.0260 C   0  0  0  0  0  0  0  0  0  0  0  0
   27.6010   24.4030   16.8860 C   0  0  0  0  0  0  0  0  0  0  0  0
   26.1510   24.5270   17.2640 C   0  0  0  0  0  0  0  0  0  0  0  0
   25.6380   23.1800   17.7640 C   0  0  0  0  0  0  0  0  0  0  0  0
   25.5270   23.1830   19.2420 N   0  0  0  0  0  0  0  0  0  0  0  0
  1  2  1  0  0  0  0
  2 31  1  0  0  0  0
  2  3  2  0  0  0  0
  4  1  1  0  0  0  0
  5  1  1  0  0  0  0
  6  5  1  1  0  0  0
  7 27  1  6  0  0  0
  7  6  1  0  0  0  0
  8  7  1  6  0  0  0
  9 14  1  6  0  0  0
  9 11  1  0  0  0  0
  9 16  1  0  0  0  0
  9 10  1  0  0  0  0
 11  8  1  0  0  0  0
 12 20  1  6  0  0  0
 12 10  1  0  0  0  0
 13 12  1  0  0  0  0
 13  8  1  0  0  0  0
 13 22  1  1  0  0  0
 15 14  1  0  0  0  0
 16 18  1  0  0  0  0
 17 16  2  0  0  0  0
 18 19  1  0  0  0  0
 21 20  1  0  0  0  0
 22 24  1  0  0  0  0
 23 22  1  0  0  0  0
 23 25  1  0  0  0  0
 26 23  2  0  0  0  0
 27 28  1  0  0  0  0
 29  6  1  0  0  0  0
 30 29  1  0  0  0  0
 32 31  1  0  0  0  0
 33 32  1  0  0  0  0
 34 33  2  0  0  0  0
 35 33  1  0  0  0  0
 36 34  1  0  0  0  0
 37 36  1  0  0  0  0
 37 35  2  0  0  0  0
 38 39  1  1  0  0  0
 38 36  1  0  0  0  0
 39 40  1  0  0  0  0
 41 40  1  0  0  0  0
 42 38  1  0  0  0  0
 43 42  2  0  0  0  0
 44 42  1  0  0  0  0
 44 46  1  0  0  0  0
 45 44  1  0  0  0  0
 47 48  1  0  0  0  0
 49 48  1  0  0  0  0
 49 50  1  0  0  0  0
 50 51  1  0  0  0  0
 51 52  1  0  0  0  0
M  END
>  <REMARK>
 VINA RESULT:    -4.376      2.971      6.950
 INTER + INTRA:         -15.094
 INTER:                  -8.105
 INTRA:                  -6.989
 UNBOUND:                -6.753
 SMILES COCC(C(N)=O)n1cc(COC(=O)NC[C@@H](O)C(O)[C@@H]2O[C@@](O)(C(=O)O)C[C@H](O)[C@H]2NC(C)=O)nn1
 SMILES IDX 15 1 13 2 14 3 16 5 17 6 19 7 21 8 23 9 28 10 22 11 29 12
 SMILES IDX 31 13 24 14 25 16 26 17 27 18 30 20 32 22 33 23 34 25 35 26
 SMILES IDX 20 27 18 29 12 31 11 32 10 33 9 34 36 35 8 36 37 37 4 38
 SMILES IDX 3 39 2 40 1 41 5 42 7 43 6 44
 H PARENT 15 4 24 15 27 19 30 21 32 24 20 28 18 30 6 45 6 46
 Flexibility Score: inf
  4 active torsions:
  status: ('A' for Active; 'I' for Inactive)
    1  A    between atoms: CA   and  CB  
    2  A    between atoms: CB   and  CG  
    3  A    between atoms: CG   and  CD  
    4  A    between atoms: CD   and  CE  

>  <TORSDO>
F 18

>  <BEGIN_>
RES LYS A 131

$$$$
ligand_62_pose_1_2HRL.pdbqt
 OpenBabel07062320523D

  6  5  0  0  0  0  0  0  0  0999 V2000
   33.1930   34.6630    9.2900 C   0  0  0  0  0  0  0  0  0  0  0  0
   32.0600   35.3600   10.0340 C   0  0  0  0  0  0  0  0  0  0  0  0
   30.8010   35.5010    9.2180 C   0  0  0  0  0  0  0  0  0  0  0  0
   30.1460   34.1460    9.0020 C   0  0  0  0  0  0  0  0  0  0  0  0
   28.6770   34.3120    8.6630 C   0  0  0  0  0  0  0  0  0  0  0  0
   27.8130   33.6700    9.6930 N   0  0  0  0  0  0  0  0  0  0  0  0
  1  2  1  0  0  0  0
  3  2  1  0  0  0  0
  4  3  1  0  0  0  0
  5  4  1  0  0  0  0
  5  6  1  0  0  0  0
M  END
>  <EGIN_R>
ES LYS A 135

>  <REMARK>
  4 active torsions:
  status: ('A' for Active; 'I' for Inactive)
    5  A    between atoms: CA   and  CB  
    6  A    between atoms: CB   and  CG  
    7  A    between atoms: CG   and  CD  
    8  A    between atoms: CD   and  CE  

$$$$
