ligand_56_pose_6_2HRL.pdbqt
 OpenBabel07062320523D

 49 50  0  0  1  0  0  0  0  0999 V2000
   27.8840   28.8590   20.2850 C   0  0  0  0  0  0  0  0  0  0  0  0
   28.5540   27.6040   20.7220 C   0  0  2  0  0  0  0  0  0  0  0  0
   30.0130   27.8170   21.0910 C   0  0  2  0  0  0  0  0  0  0  0  0
   30.2940   29.1630   21.6550 C   0  0  2  0  0  0  0  0  0  0  0  0
   31.5470   31.0850   21.4120 C   0  0  2  0  0  0  0  0  0  0  0  0
   30.8830   31.4890   22.7050 C   0  0  0  0  0  0  0  0  0  0  0  0
   30.9660   30.0010   20.8110 O   0  0  0  0  0  0  0  0  0  0  0  0
   30.8200   30.3640   23.7010 C   0  0  1  0  0  0  0  0  0  0  0  0
   31.0850   29.0740   22.9500 C   0  0  1  0  0  0  0  0  0  0  0  0
   32.9220   30.9120   21.5650 O   0  0  0  0  0  0  0  0  0  0  0  0
   33.1690   29.9510   21.6260 H   0  0  0  0  0  0  0  0  0  0  0  0
   31.3780   32.2500   20.4720 C   0  0  0  0  0  0  0  0  0  0  0  0
   31.7820   33.3950   20.7260 O   0  0  0  0  0  0  0  0  0  0  0  0
   30.7290   31.9690   19.2730 O   0  0  0  0  0  0  0  0  0  0  0  0
   29.7620   31.6570   19.2740 H   0  0  0  0  0  0  0  0  0  0  0  0
   31.7470   30.5240   24.7300 O   0  0  0  0  0  0  0  0  0  0  0  0
   32.6610   30.4310   24.3670 H   0  0  0  0  0  0  0  0  0  0  0  0
   30.7220   27.9150   23.7310 N   0  0  0  0  0  0  0  0  0  0  0  0
   31.7030   27.1950   24.4650 C   0  0  0  0  0  0  0  0  0  0  0  0
   29.7440   27.5760   23.7790 H   0  0  0  0  0  0  0  0  0  0  0  0
   31.3610   25.9890   25.2850 C   0  0  0  0  0  0  0  0  0  0  0  0
   32.8970   27.5850   24.4250 O   0  0  0  0  0  0  0  0  0  0  0  0
   30.8460   27.3930   20.0880 O   0  0  0  0  0  0  0  0  0  0  0  0
   31.2130   28.1870   19.6120 H   0  0  0  0  0  0  0  0  0  0  0  0
   28.5520   26.6190   19.7510 O   0  0  0  0  0  0  0  0  0  0  0  0
   27.9670   26.8160   18.9850 H   0  0  0  0  0  0  0  0  0  0  0  0
   28.1280   29.1240   18.8970 N   0  0  0  0  0  0  0  0  0  0  0  0
   27.3910   28.6830   17.7910 C   0  0  0  0  0  0  0  0  0  0  0  0
   28.9790   29.7390   18.6530 H   0  0  0  0  0  0  0  0  0  0  0  0
   26.4000   27.9660   17.9350 O   0  0  0  0  0  0  0  0  0  0  0  0
   27.7310   29.0250   16.4680 O   0  0  0  0  0  0  0  0  0  0  0  0
   27.4920   30.3600   16.0090 C   0  0  0  0  0  0  0  0  0  0  0  0
   28.7460   31.1120   15.8970 C   0  0  0  0  0  0  0  0  0  0  0  0
   29.0440   32.2070   15.1180 C   0  0  0  0  0  0  0  0  0  0  0  0
   29.8740   30.8320   16.5820 N   0  0  0  0  0  0  0  0  0  0  0  0
   30.3320   32.5350   15.3690 N   0  0  0  0  0  0  0  0  0  0  0  0
   30.8220   31.7010   16.2510 N   0  0  0  0  0  0  0  0  0  0  0  0
   31.0680   33.6110   14.7830 C   0  0  0  0  0  0  0  0  0  0  0  0
   30.5230   34.2760   13.7120 C   0  0  0  0  0  0  0  0  0  0  0  0
   32.3100   33.9710   15.2910 C   0  0  0  0  0  0  0  0  0  0  0  0
   31.2460   35.3110   13.1590 C   0  0  0  0  0  0  0  0  0  0  0  0
   32.9870   35.0040   14.7090 C   0  0  0  0  0  0  0  0  0  0  0  0
   32.4420   35.6500   13.6580 N   0  0  0  0  0  0  0  0  0  0  0  0
   29.8670   25.5550   16.9770 C   0  0  0  0  0  0  0  0  0  0  0  0
   28.3450   25.7220   17.0260 C   0  0  0  0  0  0  0  0  0  0  0  0
   27.5990   24.4330   16.7190 C   0  0  0  0  0  0  0  0  0  0  0  0
   26.9730   23.8350   17.9480 C   0  0  0  0  0  0  0  0  0  0  0  0
   25.5890   23.2940   17.6030 C   0  0  0  0  0  0  0  0  0  0  0  0
   24.7890   24.3260   16.9020 N   0  0  0  0  0  0  0  0  0  0  0  0
  2  1  1  6  0  0  0
  2  3  1  0  0  0  0
  3 23  1  6  0  0  0
  4  3  1  6  0  0  0
  4  9  1  0  0  0  0
  5 12  1  6  0  0  0
  5 10  1  0  0  0  0
  5  6  1  0  0  0  0
  6  8  1  0  0  0  0
  7  5  1  0  0  0  0
  7  4  1  0  0  0  0
  8 16  1  1  0  0  0
  9  8  1  0  0  0  0
  9 18  1  1  0  0  0
 10 11  1  0  0  0  0
 12 13  2  0  0  0  0
 14 15  1  0  0  0  0
 14 12  1  0  0  0  0
 17 16  1  0  0  0  0
 18 20  1  0  0  0  0
 18 19  1  0  0  0  0
 19 21  1  0  0  0  0
 22 19  2  0  0  0  0
 24 23  1  0  0  0  0
 25  2  1  0  0  0  0
 26 25  1  0  0  0  0
 27  1  1  0  0  0  0
 28 30  2  0  0  0  0
 28 27  1  0  0  0  0
 29 27  1  0  0  0  0
 31 28  1  0  0  0  0
 32 31  1  0  0  0  0
 33 32  1  0  0  0  0
 33 35  1  0  0  0  0
 34 36  1  0  0  0  0
 34 33  2  0  0  0  0
 36 37  1  0  0  0  0
 37 35  2  0  0  0  0
 38 40  1  0  0  0  0
 38 36  1  0  0  0  0
 39 38  2  0  0  0  0
 41 43  2  0  0  0  0
 41 39  1  0  0  0  0
 42 40  2  0  0  0  0
 43 42  1  0  0  0  0
 44 45  1  0  0  0  0
 46 45  1  0  0  0  0
 46 47  1  0  0  0  0
 48 47  1  0  0  0  0
 49 48  1  0  0  0  0
M  END
>  <REMARK>
 VINA RESULT:    -5.023      2.286      3.773
 INTER + INTRA:         -13.966
 INTER:                  -8.346
 INTRA:                  -5.620
 UNBOUND:                -5.272
 SMILES CC(=O)N[C@@H]1[C@@H](O)C[C@](O)(C(=O)O)O[C@H]1C(O)[C@H](O)CNC(=O)OCc1cn(-c2ccncc2)nn1
 SMILES IDX 20 1 18 2 16 3 15 4 9 5 8 6 14 7 6 8 5 9 10 10 11 12 12 13
 SMILES IDX 13 14 7 16 4 18 2 19 1 21 3 22 17 23 19 25 21 27 22 28 23 30
 SMILES IDX 24 31 25 32 26 33 27 34 36 35 28 36 35 37 29 38 30 39 34 40
 SMILES IDX 31 41 33 42 32 43
 H PARENT 10 11 13 15 7 17 4 20 17 24 19 26 21 29
 Flexibility Score: inf
  4 active torsions:
  status: ('A' for Active; 'I' for Inactive)
    1  A    between atoms: CA   and  CB  
    2  A    between atoms: CB   and  CG  
    3  A    between atoms: CG   and  CD  
    4  A    between atoms: CD   and  CE  

>  <TORSDO>
F 15

>  <BEGIN_>
RES LYS A 131

$$$$
ligand_56_pose_6_2HRL.pdbqt
 OpenBabel07062320523D

  6  5  0  0  0  0  0  0  0  0999 V2000
   33.1930   34.6630    9.2900 C   0  0  0  0  0  0  0  0  0  0  0  0
   32.0600   35.3600   10.0340 C   0  0  0  0  0  0  0  0  0  0  0  0
   30.8010   35.5020    9.2180 C   0  0  0  0  0  0  0  0  0  0  0  0
   30.1310   34.1500    9.0260 C   0  0  0  0  0  0  0  0  0  0  0  0
   28.6770   34.3270    8.6340 C   0  0  0  0  0  0  0  0  0  0  0  0
   27.7700   33.7340    9.6560 N   0  0  0  0  0  0  0  0  0  0  0  0
  1  2  1  0  0  0  0
  3  2  1  0  0  0  0
  4  3  1  0  0  0  0
  5  4  1  0  0  0  0
  5  6  1  0  0  0  0
M  END
>  <EGIN_R>
ES LYS A 135

>  <REMARK>
  4 active torsions:
  status: ('A' for Active; 'I' for Inactive)
    5  A    between atoms: CA   and  CB  
    6  A    between atoms: CB   and  CG  
    7  A    between atoms: CG   and  CD  
    8  A    between atoms: CD   and  CE  

$$$$
