ligand_74_pose_18_2HRL.pdbqt
 OpenBabel07062320523D

 54 54  0  0  1  0  0  0  0  0999 V2000
   24.8390   37.4810   15.4080 O   0  0  0  0  0  0  0  0  0  0  0  0
   26.0150   37.1910   16.1210 C   0  0  0  0  0  0  0  0  0  0  0  0
   27.0040   38.1800   16.3430 N   0  0  0  0  0  0  0  0  0  0  0  0
   26.7960   39.1480   15.9400 H   0  0  0  0  0  0  0  0  0  0  0  0
   26.1630   36.0240   16.5560 O   0  0  0  0  0  0  0  0  0  0  0  0
   28.2320   37.9370   17.0640 C   0  0  0  0  0  0  0  0  0  0  0  0
   29.3900   38.0700   16.1370 C   0  0  2  0  0  0  0  0  0  0  0  0
   29.8580   36.7480   15.5510 C   0  0  2  0  0  0  0  0  0  0  0  0
   31.0910   36.9180   14.7200 C   0  0  2  0  0  0  0  0  0  0  0  0
   31.0420   37.9550   12.6420 C   0  0  2  0  0  0  0  0  0  0  0  0
   32.0830   37.0440   12.0400 C   0  0  0  0  0  0  0  0  0  0  0  0
   31.1750   38.0830   14.0160 O   0  0  0  0  0  0  0  0  0  0  0  0
   32.6000   36.0370   13.0460 C   0  0  1  0  0  0  0  0  0  0  0  0
   31.3800   35.6650   13.8990 C   0  0  1  0  0  0  0  0  0  0  0  0
   29.7540   37.5510   12.2770 O   0  0  0  0  0  0  0  0  0  0  0  0
   29.0790   37.7490   12.9530 H   0  0  0  0  0  0  0  0  0  0  0  0
   31.2500   39.3070   12.0600 C   0  0  0  0  0  0  0  0  0  0  0  0
   31.2120   39.4410   10.7990 O   0  0  0  0  0  0  0  0  0  0  0  0
   31.4830   40.4360   12.8150 O   0  0  0  0  0  0  0  0  0  0  0  0
   31.5870   40.3420   13.8380 H   0  0  0  0  0  0  0  0  0  0  0  0
   33.1850   34.9400   12.4660 O   0  0  0  0  0  0  0  0  0  0  0  0
   32.4670   34.2410   12.3790 H   0  0  0  0  0  0  0  0  0  0  0  0
   31.6940   34.5820   14.7980 N   0  0  0  0  0  0  0  0  0  0  0  0
   30.8730   33.4130   14.8460 C   0  0  0  0  0  0  0  0  0  0  0  0
   32.5180   34.5910   15.4470 H   0  0  0  0  0  0  0  0  0  0  0  0
   31.1660   32.2870   15.7530 C   0  0  0  0  0  0  0  0  0  0  0  0
   29.8680   33.3350   14.0960 O   0  0  0  0  0  0  0  0  0  0  0  0
   28.8250   36.1010   14.9140 O   0  0  0  0  0  0  0  0  0  0  0  0
   28.2920   35.6180   15.5790 H   0  0  0  0  0  0  0  0  0  0  0  0
   30.4800   38.6030   16.8660 O   0  0  0  0  0  0  0  0  0  0  0  0
   30.2140   39.4090   17.3620 H   0  0  0  0  0  0  0  0  0  0  0  0
   24.9380   38.3760   14.3280 C   0  0  0  0  0  0  0  0  0  0  0  0
   25.5220   37.7490   13.1290 C   0  0  0  0  0  0  0  0  0  0  0  0
   24.9320   37.4160   11.9190 C   0  0  0  0  0  0  0  0  0  0  0  0
   26.8010   37.3750   13.0030 N   0  0  0  0  0  0  0  0  0  0  0  0
   25.8580   36.8630   11.1180 N   0  0  0  0  0  0  0  0  0  0  0  0
   26.9780   36.8490   11.7950 N   0  0  0  0  0  0  0  0  0  0  0  0
   25.6040   36.3760    9.7340 C   0  0  0  0  0  0  0  0  0  0  0  0
   26.0260   37.4130    8.7530 C   0  0  2  0  0  0  0  0  0  0  0  0
   24.9160   37.5590    7.7260 C   0  0  0  0  0  0  0  0  0  0  0  0
   24.5370   38.9900    7.6170 C   0  0  0  0  0  0  0  0  0  0  0  0
   23.9930   39.5840    8.5650 O   0  0  0  0  0  0  0  0  0  0  0  0
   24.8140   39.6370    6.4090 O   0  0  0  0  0  0  0  0  0  0  0  0
   24.9600   40.6280    6.4020 H   0  0  0  0  0  0  0  0  0  0  0  0
   27.3630   37.1770    8.1830 C   0  0  0  0  0  0  0  0  0  0  0  0
   27.4690   36.8840    6.7350 C   0  0  0  0  0  0  0  0  0  0  0  0
   28.3350   38.0330    6.1430 C   0  0  0  0  0  0  0  0  0  0  0  0
   28.1250   35.6050    6.3420 C   0  0  0  0  0  0  0  0  0  0  0  0
   29.8670   25.5550   16.9770 C   0  0  0  0  0  0  0  0  0  0  0  0
   28.3450   25.7220   17.0260 C   0  0  0  0  0  0  0  0  0  0  0  0
   27.6010   24.4040   16.8800 C   0  0  0  0  0  0  0  0  0  0  0  0
   26.4920   24.2640   17.8860 C   0  0  0  0  0  0  0  0  0  0  0  0
   25.1590   24.5920   17.2220 C   0  0  0  0  0  0  0  0  0  0  0  0
   24.5860   25.8340   17.7930 N   0  0  0  0  0  0  0  0  0  0  0  0
  1  2  1  0  0  0  0
  2  3  1  0  0  0  0
  2  5  2  0  0  0  0
  3  6  1  0  0  0  0
  4  3  1  0  0  0  0
  7 30  1  0  0  0  0
  7  6  1  1  0  0  0
  8 28  1  6  0  0  0
  8  7  1  0  0  0  0
  9  8  1  6  0  0  0
 10 17  1  6  0  0  0
 10 12  1  0  0  0  0
 11 10  1  0  0  0  0
 11 13  1  0  0  0  0
 12  9  1  0  0  0  0
 13 21  1  6  0  0  0
 13 14  1  0  0  0  0
 14  9  1  0  0  0  0
 14 23  1  1  0  0  0
 15 10  1  0  0  0  0
 15 16  1  0  0  0  0
 17 19  1  0  0  0  0
 18 17  2  0  0  0  0
 19 20  1  0  0  0  0
 22 21  1  0  0  0  0
 23 24  1  0  0  0  0
 23 25  1  0  0  0  0
 24 26  1  0  0  0  0
 27 24  2  0  0  0  0
 28 29  1  0  0  0  0
 30 31  1  0  0  0  0
 32  1  1  0  0  0  0
 33 32  1  0  0  0  0
 34 33  2  0  0  0  0
 35 33  1  0  0  0  0
 36 37  1  0  0  0  0
 36 34  1  0  0  0  0
 37 35  2  0  0  0  0
 38 36  1  0  0  0  0
 39 40  1  6  0  0  0
 39 38  1  0  0  0  0
 41 40  1  0  0  0  0
 41 42  2  0  0  0  0
 43 41  1  0  0  0  0
 44 43  1  0  0  0  0
 45 39  1  0  0  0  0
 46 45  1  0  0  0  0
 47 46  1  0  0  0  0
 48 46  1  0  0  0  0
 49 50  1  0  0  0  0
 51 50  1  0  0  0  0
 51 52  1  0  0  0  0
 53 54  1  0  0  0  0
 53 52  1  0  0  0  0
M  END
>  <REMARK>
 VINA RESULT:    -3.912      5.253      9.212
 INTER + INTRA:         -15.146
 INTER:                  -8.524
 INTRA:                  -6.622
 UNBOUND:                -7.118
 SMILES CC(=O)N[C@@H]1[C@@H](O)C[C@](O)(C(=O)O)O[C@H]1C(O)[C@H](O)CNC(=O)OCc1cn(C[C@H](CC(=O)O)CC(C)C)nn1
 SMILES IDX 24 1 22 2 21 3 23 5 20 6 18 7 16 8 15 9 9 10 8 11 14 12 6 13
 SMILES IDX 5 14 10 15 11 17 12 18 13 19 7 21 4 23 2 24 1 26 3 27 17 28
 SMILES IDX 19 30 25 32 26 33 27 34 40 35 28 36 39 37 29 38 30 39 31 40
 SMILES IDX 32 41 33 42 34 43 35 45 36 46 37 47 38 48
 H PARENT 21 4 10 16 13 20 7 22 4 25 17 29 19 31 34 44
 Flexibility Score: inf
  4 active torsions:
  status: ('A' for Active; 'I' for Inactive)
    1  A    between atoms: CA   and  CB  
    2  A    between atoms: CB   and  CG  
    3  A    between atoms: CG   and  CD  
    4  A    between atoms: CD   and  CE  

>  <TORSDO>
F 21

>  <BEGIN_>
RES LYS A 131

$$$$
ligand_74_pose_18_2HRL.pdbqt
 OpenBabel07062320523D

  6  5  0  0  0  0  0  0  0  0999 V2000
   33.1930   34.6630    9.2900 C   0  0  0  0  0  0  0  0  0  0  0  0
   32.0600   35.3600   10.0340 C   0  0  0  0  0  0  0  0  0  0  0  0
   30.7670   35.4020    9.2610 C   0  0  0  0  0  0  0  0  0  0  0  0
   29.6260   34.8380   10.0920 C   0  0  0  0  0  0  0  0  0  0  0  0
   28.8870   33.7610    9.3220 C   0  0  0  0  0  0  0  0  0  0  0  0
   27.4500   33.7120    9.7110 N   0  0  0  0  0  0  0  0  0  0  0  0
  1  2  1  0  0  0  0
  3  2  1  0  0  0  0
  3  4  1  0  0  0  0
  5  6  1  0  0  0  0
  5  4  1  0  0  0  0
M  END
>  <EGIN_R>
ES LYS A 135

>  <REMARK>
  4 active torsions:
  status: ('A' for Active; 'I' for Inactive)
    5  A    between atoms: CA   and  CB  
    6  A    between atoms: CB   and  CG  
    7  A    between atoms: CG   and  CD  
    8  A    between atoms: CD   and  CE  

$$$$
