ligand_70_pose_16_2HRL.pdbqt
 OpenBabel07062320523D

 53 55  0  0  1  0  0  0  0  0999 V2000
   27.0130   28.0710   21.2130 C   0  0  0  0  0  0  0  0  0  0  0  0
   28.2030   27.2220   21.5610 C   0  0  2  0  0  0  0  0  0  0  0  0
   29.0250   27.7640   22.6990 C   0  0  1  0  0  0  0  0  0  0  0  0
   29.8800   28.9450   22.3400 C   0  0  2  0  0  0  0  0  0  0  0  0
   30.4610   30.1040   20.4170 C   0  0  2  0  0  0  0  0  0  0  0  0
   31.4660   30.8890   21.2230 C   0  0  0  0  0  0  0  0  0  0  0  0
   29.4520   29.5750   21.1810 O   0  0  0  0  0  0  0  0  0  0  0  0
   32.0340   30.0480   22.3170 C   0  0  1  0  0  0  0  0  0  0  0  0
   31.3430   28.6690   22.3860 C   0  0  1  0  0  0  0  0  0  0  0  0
   31.1590   29.1620   19.6670 O   0  0  0  0  0  0  0  0  0  0  0  0
   31.7360   28.5890   20.2060 H   0  0  0  0  0  0  0  0  0  0  0  0
   29.8390   31.0540   19.4470 C   0  0  0  0  0  0  0  0  0  0  0  0
   30.5850   31.5910   18.5890 O   0  0  0  0  0  0  0  0  0  0  0  0
   28.4910   31.3600   19.4630 O   0  0  0  0  0  0  0  0  0  0  0  0
   28.1920   32.3400   19.4450 H   0  0  0  0  0  0  0  0  0  0  0  0
   33.4170   29.8620   22.1380 O   0  0  0  0  0  0  0  0  0  0  0  0
   33.5870   29.4640   21.2510 H   0  0  0  0  0  0  0  0  0  0  0  0
   31.6510   28.0790   23.6920 N   0  0  0  0  0  0  0  0  0  0  0  0
   32.7340   27.1880   23.9060 C   0  0  0  0  0  0  0  0  0  0  0  0
   31.0610   28.3110   24.5120 H   0  0  0  0  0  0  0  0  0  0  0  0
   33.0290   26.5960   25.2390 C   0  0  0  0  0  0  0  0  0  0  0  0
   33.4900   26.8670   22.9550 O   0  0  0  0  0  0  0  0  0  0  0  0
   28.1240   28.0870   23.7330 O   0  0  0  0  0  0  0  0  0  0  0  0
   28.1780   27.3500   24.3900 H   0  0  0  0  0  0  0  0  0  0  0  0
   29.0050   26.9960   20.4240 O   0  0  0  0  0  0  0  0  0  0  0  0
   29.2680   26.0240   20.5000 H   0  0  0  0  0  0  0  0  0  0  0  0
   27.0470   28.3920   19.8060 N   0  0  0  0  0  0  0  0  0  0  0  0
   26.0300   28.0240   18.9020 C   0  0  0  0  0  0  0  0  0  0  0  0
   27.8550   28.9300   19.3840 H   0  0  0  0  0  0  0  0  0  0  0  0
   25.0220   27.3860   19.2720 O   0  0  0  0  0  0  0  0  0  0  0  0
   26.0810   28.3480   17.5390 O   0  0  0  0  0  0  0  0  0  0  0  0
   27.3510   28.5190   16.8920 C   0  0  0  0  0  0  0  0  0  0  0  0
   27.5920   29.9490   16.6070 C   0  0  0  0  0  0  0  0  0  0  0  0
   28.5570   30.5010   15.8230 C   0  0  0  0  0  0  0  0  0  0  0  0
   26.8600   30.9510   17.1050 N   0  0  0  0  0  0  0  0  0  0  0  0
   28.3660   31.8510   15.8800 N   0  0  0  0  0  0  0  0  0  0  0  0
   27.3390   32.1000   16.6580 N   0  0  0  0  0  0  0  0  0  0  0  0
   29.1410   32.8300   15.2140 C   0  0  0  0  0  0  0  0  0  0  0  0
   28.5140   33.7070   14.3460 C   0  0  0  0  0  0  0  0  0  0  0  0
   30.4960   32.8890   15.4440 C   0  0  0  0  0  0  0  0  0  0  0  0
   29.2500   34.6350   13.7150 N   0  0  0  0  0  0  0  0  0  0  0  0
   31.2410   33.8580   14.7790 C   0  0  0  0  0  0  0  0  0  0  0  0
   30.5940   34.7210   13.9190 C   0  0  0  0  0  0  0  0  0  0  0  0
   32.5840   33.9390   14.9880 C   0  0  0  0  0  0  0  0  0  0  0  0
   31.3300   35.6840   13.2590 C   0  0  0  0  0  0  0  0  0  0  0  0
   33.3350   34.9100   14.3250 C   0  0  0  0  0  0  0  0  0  0  0  0
   32.7020   35.7750   13.4650 C   0  0  0  0  0  0  0  0  0  0  0  0
   29.8670   25.5550   16.9770 C   0  0  0  0  0  0  0  0  0  0  0  0
   28.3450   25.7220   17.0260 C   0  0  0  0  0  0  0  0  0  0  0  0
   27.6010   24.4020   16.8960 C   0  0  0  0  0  0  0  0  0  0  0  0
   26.5140   24.2610   17.9250 C   0  0  0  0  0  0  0  0  0  0  0  0
   25.1550   24.4390   17.2570 C   0  0  0  0  0  0  0  0  0  0  0  0
   24.3010   23.2500   17.4910 N   0  0  0  0  0  0  0  0  0  0  0  0
  2  1  1  6  0  0  0
  2  3  1  0  0  0  0
  3 23  1  1  0  0  0
  4  9  1  0  0  0  0
  4  3  1  6  0  0  0
  5 12  1  6  0  0  0
  5  7  1  0  0  0  0
  5  6  1  0  0  0  0
  6  8  1  0  0  0  0
  7  4  1  0  0  0  0
  8 16  1  6  0  0  0
  8  9  1  0  0  0  0
  9 18  1  1  0  0  0
 10 11  1  0  0  0  0
 10  5  1  0  0  0  0
 12 14  1  0  0  0  0
 13 12  2  0  0  0  0
 15 14  1  0  0  0  0
 17 16  1  0  0  0  0
 18 19  1  0  0  0  0
 18 20  1  0  0  0  0
 19 21  1  0  0  0  0
 22 19  2  0  0  0  0
 23 24  1  0  0  0  0
 25 26  1  0  0  0  0
 25  2  1  0  0  0  0
 27  1  1  0  0  0  0
 28 30  2  0  0  0  0
 28 27  1  0  0  0  0
 29 27  1  0  0  0  0
 31 28  1  0  0  0  0
 32 31  1  0  0  0  0
 33 32  1  0  0  0  0
 33 35  1  0  0  0  0
 34 36  1  0  0  0  0
 34 33  2  0  0  0  0
 36 37  1  0  0  0  0
 37 35  2  0  0  0  0
 38 40  1  0  0  0  0
 38 36  1  0  0  0  0
 39 38  2  0  0  0  0
 41 43  2  0  0  0  0
 41 39  1  0  0  0  0
 42 44  1  0  0  0  0
 42 40  2  0  0  0  0
 43 42  1  0  0  0  0
 45 47  2  0  0  0  0
 45 43  1  0  0  0  0
 46 44  2  0  0  0  0
 47 46  1  0  0  0  0
 48 49  1  0  0  0  0
 50 49  1  0  0  0  0
 50 51  1  0  0  0  0
 52 53  1  0  0  0  0
 52 51  1  0  0  0  0
M  END
>  <REMARK>
 VINA RESULT:    -5.840      2.162      3.845
 INTER + INTRA:         -14.640
 INTER:                  -8.643
 INTRA:                  -5.997
 UNBOUND:                -4.533
 SMILES CC(=O)N[C@@H]1[C@@H](O)C[C@](O)(C(=O)O)O[C@H]1C(O)[C@H](O)CNC(=O)OCc1cn(-c2cnc3ccccc3c2)nn1
 SMILES IDX 20 1 18 2 16 3 15 4 9 5 8 6 14 7 6 8 5 9 10 10 11 12 12 13
 SMILES IDX 13 14 7 16 4 18 2 19 1 21 3 22 17 23 19 25 21 27 22 28 23 30
 SMILES IDX 24 31 25 32 26 33 27 34 40 35 28 36 39 37 29 38 30 39 38 40
 SMILES IDX 31 41 37 42 32 43 36 44 33 45 35 46 34 47
 H PARENT 10 11 13 15 7 17 4 20 17 24 19 26 21 29
 Flexibility Score: inf
  4 active torsions:
  status: ('A' for Active; 'I' for Inactive)
    1  A    between atoms: CA   and  CB  
    2  A    between atoms: CB   and  CG  
    3  A    between atoms: CG   and  CD  
    4  A    between atoms: CD   and  CE  

>  <TORSDO>
F 15

>  <BEGIN_>
RES LYS A 131

$$$$
ligand_70_pose_16_2HRL.pdbqt
 OpenBabel07062320523D

  6  5  0  0  0  0  0  0  0  0999 V2000
   33.1930   34.6630    9.2900 C   0  0  0  0  0  0  0  0  0  0  0  0
   32.0600   35.3600   10.0340 C   0  0  0  0  0  0  0  0  0  0  0  0
   30.8080   35.5210    9.2110 C   0  0  0  0  0  0  0  0  0  0  0  0
   30.0780   34.1930    9.0790 C   0  0  0  0  0  0  0  0  0  0  0  0
   28.6410   34.4160    8.6490 C   0  0  0  0  0  0  0  0  0  0  0  0
   27.6950   33.6880    9.5390 N   0  0  0  0  0  0  0  0  0  0  0  0
  1  2  1  0  0  0  0
  3  2  1  0  0  0  0
  4  3  1  0  0  0  0
  5  4  1  0  0  0  0
  5  6  1  0  0  0  0
M  END
>  <EGIN_R>
ES LYS A 135

>  <REMARK>
  4 active torsions:
  status: ('A' for Active; 'I' for Inactive)
    5  A    between atoms: CA   and  CB  
    6  A    between atoms: CB   and  CG  
    7  A    between atoms: CG   and  CD  
    8  A    between atoms: CD   and  CE  

$$$$
