ligand_49_pose_9_2HRL.pdbqt
 OpenBabel07062320523D

 48 49  0  0  1  0  0  0  0  0999 V2000
   21.2680   35.6960    8.0130 C   0  0  0  0  0  0  0  0  0  0  0  0
   19.8230   35.8440    7.6240 C   0  0  2  0  0  0  0  0  0  0  0  0
   19.0380   35.9240    8.9180 C   0  0  1  0  0  0  0  0  0  0  0  0
   18.5710   34.5840    9.3900 C   0  0  2  0  0  0  0  0  0  0  0  0
   16.8300   33.0820    9.1020 C   0  0  2  0  0  0  0  0  0  0  0  0
   17.6540   32.3280   10.1340 C   0  0  0  0  0  0  0  0  0  0  0  0
   17.2350   34.4180    9.1120 O   0  0  0  0  0  0  0  0  0  0  0  0
   17.8590   33.2670   11.3060 C   0  0  1  0  0  0  0  0  0  0  0  0
   18.8560   34.3220   10.8430 C   0  0  1  0  0  0  0  0  0  0  0  0
   15.5010   32.9630    9.4920 O   0  0  0  0  0  0  0  0  0  0  0  0
   15.0850   33.8740    9.3910 H   0  0  0  0  0  0  0  0  0  0  0  0
   16.9830   32.5180    7.7550 C   0  0  0  0  0  0  0  0  0  0  0  0
   17.1920   31.2930    7.5750 O   0  0  0  0  0  0  0  0  0  0  0  0
   16.9020   33.3290    6.6350 O   0  0  0  0  0  0  0  0  0  0  0  0
   16.2350   33.1490    5.8730 H   0  0  0  0  0  0  0  0  0  0  0  0
   16.6180   33.8760   11.5590 O   0  0  0  0  0  0  0  0  0  0  0  0
   15.9180   33.2160   11.3140 H   0  0  0  0  0  0  0  0  0  0  0  0
   20.1970   33.8170   11.0560 N   0  0  0  0  0  0  0  0  0  0  0  0
   20.9330   34.1760   12.2070 C   0  0  0  0  0  0  0  0  0  0  0  0
   20.6300   33.1840   10.3600 H   0  0  0  0  0  0  0  0  0  0  0  0
   22.3090   33.6960   12.4880 C   0  0  0  0  0  0  0  0  0  0  0  0
   20.3950   34.9420   13.0380 O   0  0  0  0  0  0  0  0  0  0  0  0
   19.9100   36.4380    9.8790 O   0  0  0  0  0  0  0  0  0  0  0  0
   19.7250   37.3660   10.1230 H   0  0  0  0  0  0  0  0  0  0  0  0
   19.3780   34.7810    6.8720 O   0  0  0  0  0  0  0  0  0  0  0  0
   19.8590   33.9570    7.1510 H   0  0  0  0  0  0  0  0  0  0  0  0
   22.1750   36.6170    7.4050 N   0  0  0  0  0  0  0  0  0  0  0  0
   22.5340   37.8750    7.9020 C   0  0  0  0  0  0  0  0  0  0  0  0
   22.6150   36.3030    6.4810 H   0  0  0  0  0  0  0  0  0  0  0  0
   22.0410   38.2920    8.9740 O   0  0  0  0  0  0  0  0  0  0  0  0
   23.4510   38.6810    7.2020 O   0  0  0  0  0  0  0  0  0  0  0  0
   24.5940   39.1260    7.9090 C   0  0  0  0  0  0  0  0  0  0  0  0
   25.3270   37.9390    8.4010 C   0  0  0  0  0  0  0  0  0  0  0  0
   25.9530   37.0210    7.5670 C   0  0  0  0  0  0  0  0  0  0  0  0
   25.5400   37.5100    9.6390 N   0  0  0  0  0  0  0  0  0  0  0  0
   26.5110   36.0890    8.3390 N   0  0  0  0  0  0  0  0  0  0  0  0
   26.2520   36.3960    9.5950 N   0  0  0  0  0  0  0  0  0  0  0  0
   27.2610   34.9510    7.8180 C   0  0  0  0  0  0  0  0  0  0  0  0
   28.5060   35.4860    7.1690 C   0  0  0  0  0  0  0  0  0  0  0  0
   27.7010   34.0850    8.9770 C   0  0  0  0  0  0  0  0  0  0  0  0
   29.6630   34.8120    7.8340 C   0  0  0  0  0  0  0  0  0  0  0  0
   29.1490   34.4790    9.2080 C   0  0  0  0  0  0  0  0  0  0  0  0
   29.8670   25.5550   16.9770 C   0  0  0  0  0  0  0  0  0  0  0  0
   28.3450   25.7220   17.0260 C   0  0  0  0  0  0  0  0  0  0  0  0
   27.6020   24.4000   16.9140 C   0  0  0  0  0  0  0  0  0  0  0  0
   26.5350   24.2590   17.9640 C   0  0  0  0  0  0  0  0  0  0  0  0
   25.1830   24.0470   17.2910 C   0  0  0  0  0  0  0  0  0  0  0  0
   24.7450   22.6390   17.4390 N   0  0  0  0  0  0  0  0  0  0  0  0
  2  1  1  1  0  0  0
  2  3  1  0  0  0  0
  3 23  1  1  0  0  0
  4  3  1  1  0  0  0
  4  9  1  0  0  0  0
  5 12  1  6  0  0  0
  5  7  1  0  0  0  0
  5 10  1  0  0  0  0
  5  6  1  0  0  0  0
  6  8  1  0  0  0  0
  7  4  1  0  0  0  0
  8 16  1  6  0  0  0
  9 18  1  6  0  0  0
  9  8  1  0  0  0  0
 11 10  1  0  0  0  0
 13 12  2  0  0  0  0
 14 12  1  0  0  0  0
 15 14  1  0  0  0  0
 17 16  1  0  0  0  0
 18 19  1  0  0  0  0
 19 21  1  0  0  0  0
 19 22  2  0  0  0  0
 20 18  1  0  0  0  0
 23 24  1  0  0  0  0
 25 26  1  0  0  0  0
 25  2  1  0  0  0  0
 27 28  1  0  0  0  0
 27  1  1  0  0  0  0
 28 30  2  0  0  0  0
 29 27  1  0  0  0  0
 31 28  1  0  0  0  0
 31 32  1  0  0  0  0
 32 33  1  0  0  0  0
 33 35  1  0  0  0  0
 34 36  1  0  0  0  0
 34 33  2  0  0  0  0
 36 37  1  0  0  0  0
 37 35  2  0  0  0  0
 38 36  1  0  0  0  0
 38 40  1  0  0  0  0
 39 38  1  0  0  0  0
 39 41  1  0  0  0  0
 40 42  1  0  0  0  0
 41 42  1  0  0  0  0
 43 44  1  0  0  0  0
 45 44  1  0  0  0  0
 45 46  1  0  0  0  0
 47 48  1  0  0  0  0
 47 46  1  0  0  0  0
M  END
>  <REMARK>
 VINA RESULT:    -4.992      6.877     11.817
 INTER + INTRA:         -13.666
 INTER:                  -9.522
 INTRA:                  -4.144
 UNBOUND:                -5.026
 SMILES CC(=O)N[C@@H]1[C@@H](O)C[C@](O)(C(=O)O)O[C@H]1C(O)[C@H](O)CNC(=O)OCc1cn(C2CCCC2)nn1
 SMILES IDX 20 1 18 2 16 3 15 4 9 5 8 6 14 7 6 8 5 9 10 10 11 12 12 13
 SMILES IDX 13 14 7 16 4 18 2 19 1 21 3 22 17 23 19 25 21 27 22 28 23 30
 SMILES IDX 24 31 25 32 26 33 27 34 35 35 28 36 34 37 29 38 30 39 33 40
 SMILES IDX 31 41 32 42
 H PARENT 10 11 13 15 7 17 4 20 17 24 19 26 21 29
 Flexibility Score: inf
  4 active torsions:
  status: ('A' for Active; 'I' for Inactive)
    1  A    between atoms: CA   and  CB  
    2  A    between atoms: CB   and  CG  
    3  A    between atoms: CG   and  CD  
    4  A    between atoms: CD   and  CE  

>  <TORSDO>
F 15

>  <BEGIN_>
RES LYS A 131

$$$$
ligand_49_pose_9_2HRL.pdbqt
 OpenBabel07062320523D

  6  5  0  0  0  0  0  0  0  0999 V2000
   33.1930   34.6630    9.2900 C   0  0  0  0  0  0  0  0  0  0  0  0
   32.0600   35.3600   10.0340 C   0  0  0  0  0  0  0  0  0  0  0  0
   32.4940   36.0030   11.3260 C   0  0  0  0  0  0  0  0  0  0  0  0
   31.5160   35.6740   12.4440 C   0  0  0  0  0  0  0  0  0  0  0  0
   32.2470   35.5310   13.7650 C   0  0  0  0  0  0  0  0  0  0  0  0
   33.5900   34.9170   13.5720 N   0  0  0  0  0  0  0  0  0  0  0  0
  1  2  1  0  0  0  0
  2  3  1  0  0  0  0
  3  4  1  0  0  0  0
  4  5  1  0  0  0  0
  6  5  1  0  0  0  0
M  END
>  <EGIN_R>
ES LYS A 135

>  <REMARK>
  4 active torsions:
  status: ('A' for Active; 'I' for Inactive)
    5  A    between atoms: CA   and  CB  
    6  A    between atoms: CB   and  CG  
    7  A    between atoms: CG   and  CD  
    8  A    between atoms: CD   and  CE  

$$$$
