ligand_45_pose_5_2HRL.pdbqt
 OpenBabel07062320523D

 52 52  0  0  1  0  0  0  0  0999 V2000
   27.5370   29.1870   18.5060 O   0  0  0  0  0  0  0  0  0  0  0  0
   28.4240   30.2430   18.5450 C   0  0  0  0  0  0  0  0  0  0  0  0
   29.5370   30.3360   17.6500 N   0  0  0  0  0  0  0  0  0  0  0  0
   29.6320   29.5750   16.9690 H   0  0  0  0  0  0  0  0  0  0  0  0
   28.2480   31.1470   19.3940 O   0  0  0  0  0  0  0  0  0  0  0  0
   30.4050   31.4510   17.7520 C   0  0  0  0  0  0  0  0  0  0  0  0
   30.3840   32.4260   16.6220 C   0  0  2  0  0  0  0  0  0  0  0  0
   29.5380   33.6430   16.8300 C   0  0  1  0  0  0  0  0  0  0  0  0
   29.5130   34.6030   15.6780 C   0  0  2  0  0  0  0  0  0  0  0  0
   28.6100   34.9070   13.5860 C   0  0  2  0  0  0  0  0  0  0  0  0
   29.1700   36.2910   13.8560 C   0  0  0  0  0  0  0  0  0  0  0  0
   28.7350   34.0780   14.6750 O   0  0  0  0  0  0  0  0  0  0  0  0
   30.6220   36.2130   14.2150 C   0  0  1  0  0  0  0  0  0  0  0  0
   30.8410   35.0230   15.1510 C   0  0  1  0  0  0  0  0  0  0  0  0
   29.3570   34.3610   12.5270 O   0  0  0  0  0  0  0  0  0  0  0  0
   29.4170   33.3880   12.7130 H   0  0  0  0  0  0  0  0  0  0  0  0
   27.2050   35.0120   13.1630 C   0  0  0  0  0  0  0  0  0  0  0  0
   26.9140   35.4830   12.0280 O   0  0  0  0  0  0  0  0  0  0  0  0
   26.1700   34.6040   13.9800 O   0  0  0  0  0  0  0  0  0  0  0  0
   26.1540   33.6840   14.3790 H   0  0  0  0  0  0  0  0  0  0  0  0
   31.3670   36.0510   13.0380 O   0  0  0  0  0  0  0  0  0  0  0  0
   31.9000   36.8590   12.8750 H   0  0  0  0  0  0  0  0  0  0  0  0
   31.7040   35.5540   16.2110 N   0  0  0  0  0  0  0  0  0  0  0  0
   33.1100   35.5770   16.0470 C   0  0  0  0  0  0  0  0  0  0  0  0
   31.2660   35.9140   17.0890 H   0  0  0  0  0  0  0  0  0  0  0  0
   33.9790   36.1190   17.1400 C   0  0  0  0  0  0  0  0  0  0  0  0
   33.6940   35.1560   15.0010 O   0  0  0  0  0  0  0  0  0  0  0  0
   28.2350   33.2390   17.1580 O   0  0  0  0  0  0  0  0  0  0  0  0
   28.0710   32.3740   16.6910 H   0  0  0  0  0  0  0  0  0  0  0  0
   29.9360   31.7170   15.4860 O   0  0  0  0  0  0  0  0  0  0  0  0
   29.7470   30.7780   15.6820 H   0  0  0  0  0  0  0  0  0  0  0  0
   26.9100   28.8600   17.2740 C   0  0  0  0  0  0  0  0  0  0  0  0
   26.3550   30.0840   16.6510 C   0  0  0  0  0  0  0  0  0  0  0  0
   25.1250   30.6810   16.8190 C   0  0  0  0  0  0  0  0  0  0  0  0
   26.9940   30.8680   15.7570 N   0  0  0  0  0  0  0  0  0  0  0  0
   25.0390   31.7840   16.0490 N   0  0  0  0  0  0  0  0  0  0  0  0
   26.1940   31.8600   15.4220 N   0  0  0  0  0  0  0  0  0  0  0  0
   23.9570   32.7010   15.9020 C   0  0  0  0  0  0  0  0  0  0  0  0
   23.2480   32.6040   14.6060 C   0  0  0  0  0  0  0  0  0  0  0  0
   22.0790   31.7160   14.5020 C   0  0  0  0  0  0  0  0  0  0  0  0
   22.2060   30.4050   14.0150 N   0  0  0  0  0  0  0  0  0  0  0  0
   22.0970   29.3380   14.9730 C   0  0  0  0  0  0  0  0  0  0  0  0
   21.0610   30.2010   13.1040 C   0  0  0  0  0  0  0  0  0  0  0  0
   20.5730   31.4350   12.4500 C   0  0  0  0  0  0  0  0  0  0  0  0
   23.3850   30.1850   13.2250 C   0  0  0  0  0  0  0  0  0  0  0  0
   23.4580   28.8610   12.5550 C   0  0  0  0  0  0  0  0  0  0  0  0
   29.8670   25.5550   16.9770 C   0  0  0  0  0  0  0  0  0  0  0  0
   28.3450   25.7220   17.0260 C   0  0  0  0  0  0  0  0  0  0  0  0
   27.6010   24.4020   16.8970 C   0  0  0  0  0  0  0  0  0  0  0  0
   26.1540   24.5260   17.2850 C   0  0  0  0  0  0  0  0  0  0  0  0
   25.6100   23.1550   17.6710 C   0  0  0  0  0  0  0  0  0  0  0  0
   25.3830   23.0790   19.1330 N   0  0  0  0  0  0  0  0  0  0  0  0
  1  2  1  0  0  0  0
  2  5  2  0  0  0  0
  3  6  1  0  0  0  0
  3  2  1  0  0  0  0
  4  3  1  0  0  0  0
  7  8  1  0  0  0  0
  7  6  1  1  0  0  0
  8 28  1  6  0  0  0
  9  8  1  1  0  0  0
 10 15  1  6  0  0  0
 10 11  1  0  0  0  0
 10 12  1  0  0  0  0
 11 13  1  0  0  0  0
 12  9  1  0  0  0  0
 13 21  1  6  0  0  0
 13 14  1  0  0  0  0
 14  9  1  0  0  0  0
 14 23  1  1  0  0  0
 15 16  1  0  0  0  0
 17 10  1  0  0  0  0
 17 19  1  0  0  0  0
 18 17  2  0  0  0  0
 19 20  1  0  0  0  0
 22 21  1  0  0  0  0
 23 25  1  0  0  0  0
 24 23  1  0  0  0  0
 24 26  1  0  0  0  0
 27 24  2  0  0  0  0
 29 28  1  0  0  0  0
 30 31  1  0  0  0  0
 30  7  1  0  0  0  0
 32  1  1  0  0  0  0
 33 34  2  0  0  0  0
 33 32  1  0  0  0  0
 35 33  1  0  0  0  0
 36 34  1  0  0  0  0
 37 35  2  0  0  0  0
 37 36  1  0  0  0  0
 38 36  1  0  0  0  0
 39 38  1  0  0  0  0
 40 39  1  0  0  0  0
 41 40  1  0  0  0  0
 41 42  1  0  0  0  0
 43 41  1  0  0  0  0
 44 43  1  0  0  0  0
 45 41  1  0  0  0  0
 46 45  1  0  0  0  0
 47 48  1  0  0  0  0
 49 48  1  0  0  0  0
 49 50  1  0  0  0  0
 50 51  1  0  0  0  0
 51 52  1  0  0  0  0
M  END
>  <REMARK>
 VINA RESULT:    -4.359      4.667      8.135
 INTER + INTRA:         -14.694
 INTER:                  -7.420
 INTRA:                  -7.274
 UNBOUND:                -5.875
 SMILES CC[N+](C)(CC)CCCn1cc(COC(=O)NC[C@@H](O)C(O)[C@@H]2O[C@@](O)(C(=O)O)C[C@H](O)[C@H]2NC(C)=O)nn1
 SMILES IDX 14 1 15 2 17 3 16 5 18 6 19 7 21 8 23 9 25 10 30 11 24 12
 SMILES IDX 31 13 33 14 26 15 27 17 28 18 29 19 32 21 34 23 35 24 36 26
 SMILES IDX 37 27 22 28 20 30 13 32 12 33 11 34 38 35 10 36 39 37 9 38
 SMILES IDX 8 39 7 40 3 41 4 42 2 43 1 44 5 45 6 46
 H PARENT 17 4 26 16 29 20 32 22 34 25 22 29 20 31
 Flexibility Score: inf
  4 active torsions:
  status: ('A' for Active; 'I' for Inactive)
    1  A    between atoms: CA   and  CB  
    2  A    between atoms: CB   and  CG  
    3  A    between atoms: CG   and  CD  
    4  A    between atoms: CD   and  CE  

>  <TORSDO>
F 20

>  <BEGIN_>
RES LYS A 131

$$$$
ligand_45_pose_5_2HRL.pdbqt
 OpenBabel07062320523D

  6  5  0  0  0  0  0  0  0  0999 V2000
   33.1930   34.6630    9.2900 C   0  0  0  0  0  0  0  0  0  0  0  0
   32.0600   35.3600   10.0340 C   0  0  0  0  0  0  0  0  0  0  0  0
   30.7000   34.7830    9.7380 C   0  0  0  0  0  0  0  0  0  0  0  0
   30.4980   34.6270    8.2390 C   0  0  0  0  0  0  0  0  0  0  0  0
   29.0500   34.8860    7.8670 C   0  0  0  0  0  0  0  0  0  0  0  0
   28.9510   35.6110    6.5700 N   0  0  0  0  0  0  0  0  0  0  0  0
  1  2  1  0  0  0  0
  3  2  1  0  0  0  0
  4  3  1  0  0  0  0
  5  4  1  0  0  0  0
  6  5  1  0  0  0  0
M  END
>  <EGIN_R>
ES LYS A 135

>  <REMARK>
  4 active torsions:
  status: ('A' for Active; 'I' for Inactive)
    5  A    between atoms: CA   and  CB  
    6  A    between atoms: CB   and  CG  
    7  A    between atoms: CG   and  CD  
    8  A    between atoms: CD   and  CE  

$$$$
