ligand_46_pose_1_2HRL.pdbqt
 OpenBabel07062320523D

 50 51  0  0  1  0  0  0  0  0999 V2000
   24.6870   39.7900    7.3430 N   0  0  0  0  0  0  0  0  0  0  0  0
   25.6070   40.4160    8.2100 C   0  0  0  0  0  0  0  0  0  0  0  0
   25.5350   40.3070    9.4440 O   0  0  0  0  0  0  0  0  0  0  0  0
   24.8520   39.9510    6.3150 H   0  0  0  0  0  0  0  0  0  0  0  0
   23.5960   38.9880    7.8050 C   0  0  0  0  0  0  0  0  0  0  0  0
   23.9120   37.5260    7.5920 C   0  0  2  0  0  0  0  0  0  0  0  0
   23.9360   36.7730    8.8910 C   0  0  2  0  0  0  0  0  0  0  0  0
   22.7260   35.8930    9.1010 C   0  0  2  0  0  0  0  0  0  0  0  0
   20.4340   36.2380    8.8090 C   0  0  2  0  0  0  0  0  0  0  0  0
   20.2650   34.9430    9.6190 C   0  0  0  0  0  0  0  0  0  0  0  0
   21.6870   36.2010    8.2770 O   0  0  0  0  0  0  0  0  0  0  0  0
   21.0750   35.2070   10.8860 C   0  0  1  0  0  0  0  0  0  0  0  0
   22.4380   35.7710   10.5560 C   0  0  1  0  0  0  0  0  0  0  0  0
   20.1460   37.3370    9.5920 O   0  0  0  0  0  0  0  0  0  0  0  0
   19.3370   37.1480   10.1120 H   0  0  0  0  0  0  0  0  0  0  0  0
   19.4620   36.1420    7.6620 C   0  0  0  0  0  0  0  0  0  0  0  0
   18.7270   37.1000    7.3440 O   0  0  0  0  0  0  0  0  0  0  0  0
   19.3650   34.9720    6.9330 O   0  0  0  0  0  0  0  0  0  0  0  0
   20.0480   34.7940    6.2150 H   0  0  0  0  0  0  0  0  0  0  0  0
   20.3150   36.1020   11.6400 O   0  0  0  0  0  0  0  0  0  0  0  0
   20.7900   36.3020   12.4760 H   0  0  0  0  0  0  0  0  0  0  0  0
   23.4790   34.8930   11.1200 N   0  0  0  0  0  0  0  0  0  0  0  0
   24.2710   35.2660   12.2340 C   0  0  0  0  0  0  0  0  0  0  0  0
   23.6490   33.9440   10.6790 H   0  0  0  0  0  0  0  0  0  0  0  0
   25.3280   34.4180   12.8360 C   0  0  0  0  0  0  0  0  0  0  0  0
   24.0640   36.3920   12.7520 O   0  0  0  0  0  0  0  0  0  0  0  0
   24.1370   37.6610    9.9300 O   0  0  0  0  0  0  0  0  0  0  0  0
   24.3910   37.1480   10.7330 H   0  0  0  0  0  0  0  0  0  0  0  0
   25.1430   37.4960    6.9370 O   0  0  0  0  0  0  0  0  0  0  0  0
   25.2480   38.2260    6.2860 H   0  0  0  0  0  0  0  0  0  0  0  0
   26.6470   41.1890    7.6970 O   0  0  0  0  0  0  0  0  0  0  0  0
   27.9480   40.6560    7.6430 C   0  0  0  0  0  0  0  0  0  0  0  0
   27.9960   39.4070    6.8430 C   0  0  0  0  0  0  0  0  0  0  0  0
   28.6140   38.2410    7.2040 C   0  0  0  0  0  0  0  0  0  0  0  0
   27.4470   39.2130    5.6410 N   0  0  0  0  0  0  0  0  0  0  0  0
   28.4250   37.3630    6.2040 N   0  0  0  0  0  0  0  0  0  0  0  0
   27.7080   37.9860    5.2630 N   0  0  0  0  0  0  0  0  0  0  0  0
   28.8770   35.9990    6.1010 C   0  0  0  0  0  0  0  0  0  0  0  0
   28.5660   35.2350    7.3390 C   0  0  0  0  0  0  0  0  0  0  0  0
   29.5760   34.7080    8.1350 C   0  0  0  0  0  0  0  0  0  0  0  0
   27.2750   35.0150    7.7530 C   0  0  0  0  0  0  0  0  0  0  0  0
   29.2820   34.0030    9.2760 C   0  0  0  0  0  0  0  0  0  0  0  0
   26.9680   34.3070    8.9010 C   0  0  0  0  0  0  0  0  0  0  0  0
   27.9800   33.7910    9.6780 C   0  0  0  0  0  0  0  0  0  0  0  0
   29.8670   25.5550   16.9770 C   0  0  0  0  0  0  0  0  0  0  0  0
   28.3450   25.7220   17.0260 C   0  0  0  0  0  0  0  0  0  0  0  0
   27.6010   24.4020   16.8910 C   0  0  0  0  0  0  0  0  0  0  0  0
   26.5220   24.2520   17.9270 C   0  0  0  0  0  0  0  0  0  0  0  0
   25.2590   23.7020   17.2710 C   0  0  0  0  0  0  0  0  0  0  0  0
   24.9730   22.3340   17.7630 N   0  0  0  0  0  0  0  0  0  0  0  0
  1  5  1  0  0  0  0
  1  2  1  0  0  0  0
  2  3  2  0  0  0  0
  4  1  1  0  0  0  0
  6  5  1  1  0  0  0
  6  7  1  0  0  0  0
  7 27  1  1  0  0  0
  8  7  1  1  0  0  0
  8 13  1  0  0  0  0
  9 16  1  6  0  0  0
  9 14  1  0  0  0  0
  9 10  1  0  0  0  0
 10 12  1  0  0  0  0
 11  9  1  0  0  0  0
 11  8  1  0  0  0  0
 12 20  1  1  0  0  0
 13 12  1  0  0  0  0
 13 22  1  6  0  0  0
 14 15  1  0  0  0  0
 17 16  2  0  0  0  0
 18 16  1  0  0  0  0
 19 18  1  0  0  0  0
 20 21  1  0  0  0  0
 22 23  1  0  0  0  0
 23 26  2  0  0  0  0
 23 25  1  0  0  0  0
 24 22  1  0  0  0  0
 27 28  1  0  0  0  0
 29  6  1  0  0  0  0
 30 29  1  0  0  0  0
 31  2  1  0  0  0  0
 32 31  1  0  0  0  0
 33 34  2  0  0  0  0
 33 32  1  0  0  0  0
 35 33  1  0  0  0  0
 36 34  1  0  0  0  0
 37 35  2  0  0  0  0
 37 36  1  0  0  0  0
 38 36  1  0  0  0  0
 38 39  1  0  0  0  0
 39 41  2  0  0  0  0
 39 40  1  0  0  0  0
 40 42  2  0  0  0  0
 41 43  1  0  0  0  0
 42 44  1  0  0  0  0
 43 44  2  0  0  0  0
 45 46  1  0  0  0  0
 47 46  1  0  0  0  0
 47 48  1  0  0  0  0
 49 50  1  0  0  0  0
 49 48  1  0  0  0  0
M  END
>  <REMARK>
 VINA RESULT:    -5.750      1.673      2.056
 INTER + INTRA:         -15.577
 INTER:                 -10.793
 INTRA:                  -4.785
 UNBOUND:                -5.290
 SMILES CC(=O)N[C@@H]1[C@@H](O)C[C@](O)(C(=O)O)O[C@H]1C(O)[C@H](O)CNC(=O)OCc1cn(Cc2ccccc2)nn1
 SMILES IDX 21 1 22 2 23 3 20 5 18 6 16 7 15 8 9 9 8 10 14 11 6 12 5 13
 SMILES IDX 10 14 11 16 12 17 13 18 7 20 4 22 2 23 1 25 3 26 17 27 19 29
 SMILES IDX 24 31 25 32 26 33 27 34 37 35 28 36 36 37 29 38 30 39 31 40
 SMILES IDX 35 41 32 42 34 43 33 44
 H PARENT 21 4 10 15 13 19 7 21 4 24 17 28 19 30
 Flexibility Score: inf
  4 active torsions:
  status: ('A' for Active; 'I' for Inactive)
    1  A    between atoms: CA   and  CB  
    2  A    between atoms: CB   and  CG  
    3  A    between atoms: CG   and  CD  
    4  A    between atoms: CD   and  CE  

>  <TORSDO>
F 16

>  <BEGIN_>
RES LYS A 131

$$$$
ligand_46_pose_1_2HRL.pdbqt
 OpenBabel07062320523D

  6  5  0  0  0  0  0  0  0  0999 V2000
   33.1930   34.6630    9.2900 C   0  0  0  0  0  0  0  0  0  0  0  0
   32.0600   35.3600   10.0340 C   0  0  0  0  0  0  0  0  0  0  0  0
   32.5100   36.0780   11.2800 C   0  0  0  0  0  0  0  0  0  0  0  0
   31.4800   37.1140   11.7040 C   0  0  0  0  0  0  0  0  0  0  0  0
   30.5970   37.4980   10.5310 C   0  0  0  0  0  0  0  0  0  0  0  0
   29.1560   37.3260   10.8660 N   0  0  0  0  0  0  0  0  0  0  0  0
  1  2  1  0  0  0  0
  2  3  1  0  0  0  0
  3  4  1  0  0  0  0
  5  6  1  0  0  0  0
  5  4  1  0  0  0  0
M  END
>  <EGIN_R>
ES LYS A 135

>  <REMARK>
  4 active torsions:
  status: ('A' for Active; 'I' for Inactive)
    5  A    between atoms: CA   and  CB  
    6  A    between atoms: CB   and  CG  
    7  A    between atoms: CG   and  CD  
    8  A    between atoms: CD   and  CE  

$$$$
