ligand_1_pose_6_2HRL.pdbqt
 OpenBabel07062320523D

 47 47  0  0  1  0  0  0  0  0999 V2000
   30.7350   29.6510   20.0210 N   0  0  0  0  0  0  0  0  0  0  0  0
   31.7270   28.8880   20.6450 C   0  0  0  0  0  0  0  0  0  0  0  0
   32.8140   29.3920   20.9160 O   0  0  0  0  0  0  0  0  0  0  0  0
   29.8220   29.1190   19.8240 H   0  0  0  0  0  0  0  0  0  0  0  0
   30.7550   31.0030   19.6140 C   0  0  0  0  0  0  0  0  0  0  0  0
   29.9500   31.3810   18.4100 C   0  0  2  0  0  0  0  0  0  0  0  0
   28.5130   31.6460   18.7440 C   0  0  1  0  0  0  0  0  0  0  0  0
   27.5370   30.5560   18.6140 C   0  0  2  0  0  0  0  0  0  0  0  0
   27.1730   28.2810   18.6820 C   0  0  2  0  0  0  0  0  0  0  0  0
   25.7460   28.7320   18.9120 C   0  0  0  0  0  0  0  0  0  0  0  0
   28.1020   29.3160   18.7770 O   0  0  0  0  0  0  0  0  0  0  0  0
   25.3520   29.7860   17.8860 C   0  0  1  0  0  0  0  0  0  0  0  0
   26.6170   30.5490   17.4410 C   0  0  1  0  0  0  0  0  0  0  0  0
   27.3150   27.7370   17.4090 O   0  0  0  0  0  0  0  0  0  0  0  0
   28.1720   27.2710   17.2860 H   0  0  0  0  0  0  0  0  0  0  0  0
   27.5800   27.2690   19.6820 C   0  0  0  0  0  0  0  0  0  0  0  0
   26.7600   26.6770   20.4280 O   0  0  0  0  0  0  0  0  0  0  0  0
   28.9210   26.9510   19.8100 O   0  0  0  0  0  0  0  0  0  0  0  0
   29.2130   25.9630   19.8010 H   0  0  0  0  0  0  0  0  0  0  0  0
   24.7500   29.1630   16.8020 O   0  0  0  0  0  0  0  0  0  0  0  0
   23.8780   28.8110   17.1200 H   0  0  0  0  0  0  0  0  0  0  0  0
   26.2200   31.8640   16.9810 N   0  0  0  0  0  0  0  0  0  0  0  0
   25.8920   32.0350   15.6120 C   0  0  0  0  0  0  0  0  0  0  0  0
   26.1690   32.6870   17.6300 H   0  0  0  0  0  0  0  0  0  0  0  0
   25.4760   33.3480   15.0490 C   0  0  0  0  0  0  0  0  0  0  0  0
   25.9510   31.0530   14.8370 O   0  0  0  0  0  0  0  0  0  0  0  0
   28.5710   32.0870   20.1180 O   0  0  0  0  0  0  0  0  0  0  0  0
   28.1160   32.9450   20.1810 H   0  0  0  0  0  0  0  0  0  0  0  0
   30.1230   30.5080   17.3890 O   0  0  0  0  0  0  0  0  0  0  0  0
   30.5690   30.8560   16.5920 H   0  0  0  0  0  0  0  0  0  0  0  0
   31.5190   27.5510   20.9760 O   0  0  0  0  0  0  0  0  0  0  0  0
   31.4430   27.1190   22.3180 C   0  0  0  0  0  0  0  0  0  0  0  0
   30.0660   27.3230   22.8270 C   0  0  0  0  0  0  0  0  0  0  0  0
   29.3260   26.4630   23.6000 C   0  0  0  0  0  0  0  0  0  0  0  0
   29.3080   28.3900   22.6140 N   0  0  0  0  0  0  0  0  0  0  0  0
   28.1470   27.0750   23.8110 N   0  0  0  0  0  0  0  0  0  0  0  0
   28.1280   28.2540   23.2110 N   0  0  0  0  0  0  0  0  0  0  0  0
   27.0630   26.5080   24.5870 C   0  0  0  0  0  0  0  0  0  0  0  0
   26.8090   25.0840   24.1000 C   0  0  0  0  0  0  0  0  0  0  0  0
   26.2690   25.1450   22.7990 O   0  0  0  0  0  0  0  0  0  0  0  0
   25.2970   24.8870   22.8240 H   0  0  0  0  0  0  0  0  0  0  0  0
   29.8670   25.5550   16.9770 C   0  0  0  0  0  0  0  0  0  0  0  0
   28.3450   25.7220   17.0260 C   0  0  0  0  0  0  0  0  0  0  0  0
   27.6000   24.4090   16.8370 C   0  0  0  0  0  0  0  0  0  0  0  0
   26.6890   24.1030   17.9930 C   0  0  0  0  0  0  0  0  0  0  0  0
   25.5730   23.1720   17.5290 C   0  0  0  0  0  0  0  0  0  0  0  0
   24.4560   23.9520   16.9470 N   0  0  0  0  0  0  0  0  0  0  0  0
  1  2  1  0  0  0  0
  2  3  2  0  0  0  0
  2 31  1  0  0  0  0
  4  1  1  0  0  0  0
  5  1  1  0  0  0  0
  6  7  1  0  0  0  0
  6  5  1  1  0  0  0
  7 27  1  1  0  0  0
  8  7  1  6  0  0  0
  8 11  1  0  0  0  0
  9 14  1  6  0  0  0
  9 11  1  0  0  0  0
  9 10  1  0  0  0  0
  9 16  1  0  0  0  0
 12 20  1  6  0  0  0
 12 10  1  0  0  0  0
 13 22  1  1  0  0  0
 13 12  1  0  0  0  0
 13  8  1  0  0  0  0
 15 14  1  0  0  0  0
 16 18  1  0  0  0  0
 16 17  2  0  0  0  0
 19 18  1  0  0  0  0
 20 21  1  0  0  0  0
 22 24  1  0  0  0  0
 23 22  1  0  0  0  0
 25 23  1  0  0  0  0
 26 23  2  0  0  0  0
 27 28  1  0  0  0  0
 29  6  1  0  0  0  0
 30 29  1  0  0  0  0
 31 32  1  0  0  0  0
 32 33  1  0  0  0  0
 33 34  2  0  0  0  0
 34 36  1  0  0  0  0
 35 33  1  0  0  0  0
 35 37  2  0  0  0  0
 36 38  1  0  0  0  0
 37 36  1  0  0  0  0
 39 38  1  0  0  0  0
 40 41  1  0  0  0  0
 40 39  1  0  0  0  0
 42 43  1  0  0  0  0
 44 43  1  0  0  0  0
 44 45  1  0  0  0  0
 46 45  1  0  0  0  0
 47 46  1  0  0  0  0
M  END
>  <REMARK>
 VINA RESULT:    -3.239      8.160     15.371
 INTER + INTRA:         -13.462
 INTER:                  -7.014
 INTRA:                  -6.448
 UNBOUND:                -7.572
 SMILES CC(=O)N[C@@H]1[C@@H](O)C[C@](O)(C(=O)O)O[C@H]1C(O)[C@H](O)CNC(=O)OCc1cn(CCO)nn1
 SMILES IDX 21 1 22 2 23 3 20 5 18 6 16 7 15 8 9 9 8 10 14 11 6 12 5 13
 SMILES IDX 10 14 11 16 12 17 13 18 7 20 4 22 2 23 1 25 3 26 17 27 19 29
 SMILES IDX 24 31 25 32 26 33 27 34 33 35 28 36 32 37 29 38 30 39 31 40
 H PARENT 21 4 10 15 13 19 7 21 4 24 17 28 19 30 31 41
 Flexibility Score: inf
  4 active torsions:
  status: ('A' for Active; 'I' for Inactive)
    1  A    between atoms: CA   and  CB  
    2  A    between atoms: CB   and  CG  
    3  A    between atoms: CG   and  CD  
    4  A    between atoms: CD   and  CE  

>  <TORSDO>
F 17

>  <BEGIN_>
RES LYS A 131

$$$$
ligand_1_pose_6_2HRL.pdbqt
 OpenBabel07062320523D

  6  5  0  0  0  0  0  0  0  0999 V2000
   33.1930   34.6630    9.2900 C   0  0  0  0  0  0  0  0  0  0  0  0
   32.0600   35.3600   10.0340 C   0  0  0  0  0  0  0  0  0  0  0  0
   30.8040   35.5100    9.2150 C   0  0  0  0  0  0  0  0  0  0  0  0
   30.1160   34.1660    9.0360 C   0  0  0  0  0  0  0  0  0  0  0  0
   28.6590   34.3590    8.6600 C   0  0  0  0  0  0  0  0  0  0  0  0
   27.7610   33.6590    9.6190 N   0  0  0  0  0  0  0  0  0  0  0  0
  1  2  1  0  0  0  0
  3  2  1  0  0  0  0
  4  3  1  0  0  0  0
  5  4  1  0  0  0  0
  5  6  1  0  0  0  0
M  END
>  <EGIN_R>
ES LYS A 135

>  <REMARK>
  4 active torsions:
  status: ('A' for Active; 'I' for Inactive)
    5  A    between atoms: CA   and  CB  
    6  A    between atoms: CB   and  CG  
    7  A    between atoms: CG   and  CD  
    8  A    between atoms: CD   and  CE  

$$$$
