ligand_58_pose_4_2HRL.pdbqt
 OpenBabel07062320523D

 56 58  0  0  1  0  0  0  0  0999 V2000
   26.0890   35.1270   15.9620 N   0  0  0  0  0  0  0  0  0  0  0  0
   26.2310   36.5090   15.7110 C   0  0  0  0  0  0  0  0  0  0  0  0
   27.3140   37.0880   15.9650 O   0  0  0  0  0  0  0  0  0  0  0  0
   25.1780   34.6770   15.7430 H   0  0  0  0  0  0  0  0  0  0  0  0
   27.1590   34.3500   16.5030 C   0  0  0  0  0  0  0  0  0  0  0  0
   27.4880   33.2190   15.5270 C   0  0  2  0  0  0  0  0  0  0  0  0
   28.7720   33.6420   14.8310 C   0  0  2  0  0  0  0  0  0  0  0  0
   29.7010   34.4710   15.6720 C   0  0  2  0  0  0  0  0  0  0  0  0
   31.4520   34.8310   14.1400 C   0  0  2  0  0  0  0  0  0  0  0  0
   32.3610   33.9040   14.9160 C   0  0  0  0  0  0  0  0  0  0  0  0
   30.3800   35.3110   14.8120 O   0  0  0  0  0  0  0  0  0  0  0  0
   31.6090   32.9040   15.7420 C   0  0  1  0  0  0  0  0  0  0  0  0
   30.5830   33.6580   16.5340 C   0  0  1  0  0  0  0  0  0  0  0  0
   30.9950   34.0810   13.0530 O   0  0  0  0  0  0  0  0  0  0  0  0
   30.0020   34.0220   13.1470 H   0  0  0  0  0  0  0  0  0  0  0  0
   32.2940   35.9420   13.5650 C   0  0  0  0  0  0  0  0  0  0  0  0
   33.0650   35.7480   12.6210 O   0  0  0  0  0  0  0  0  0  0  0  0
   32.1820   37.1950   14.1210 O   0  0  0  0  0  0  0  0  0  0  0  0
   31.9440   37.9900   13.5160 H   0  0  0  0  0  0  0  0  0  0  0  0
   31.1000   31.9470   14.9120 O   0  0  0  0  0  0  0  0  0  0  0  0
   31.8120   31.3360   14.5770 H   0  0  0  0  0  0  0  0  0  0  0  0
   31.3220   34.5080   17.4890 N   0  0  0  0  0  0  0  0  0  0  0  0
   30.9350   34.6340   18.8350 C   0  0  0  0  0  0  0  0  0  0  0  0
   32.1540   35.0280   17.1370 H   0  0  0  0  0  0  0  0  0  0  0  0
   31.7070   35.5010   19.7630 C   0  0  0  0  0  0  0  0  0  0  0  0
   29.9290   34.0120   19.2720 O   0  0  0  0  0  0  0  0  0  0  0  0
   28.3220   34.4750   13.7410 O   0  0  0  0  0  0  0  0  0  0  0  0
   27.9330   35.2980   14.0740 H   0  0  0  0  0  0  0  0  0  0  0  0
   26.4090   33.1620   14.6570 O   0  0  0  0  0  0  0  0  0  0  0  0
   26.1220   34.0400   14.3380 H   0  0  0  0  0  0  0  0  0  0  0  0
   25.1950   37.2690   15.1810 O   0  0  0  0  0  0  0  0  0  0  0  0
   25.3660   37.8640   13.9240 C   0  0  0  0  0  0  0  0  0  0  0  0
   25.4740   36.7980   12.8960 C   0  0  0  0  0  0  0  0  0  0  0  0
   25.2020   36.9610   11.5340 C   0  0  0  0  0  0  0  0  0  0  0  0
   25.8300   35.5070   13.0100 N   0  0  0  0  0  0  0  0  0  0  0  0
   25.4000   35.7980   10.9100 N   0  0  0  0  0  0  0  0  0  0  0  0
   25.7780   34.9320   11.8140 N   0  0  0  0  0  0  0  0  0  0  0  0
   25.2380   35.5020    9.4940 C   0  0  0  0  0  0  0  0  0  0  0  0
   23.9200   35.9110    9.0070 C   0  0  0  0  0  0  0  0  0  0  0  0
   23.7610   36.9190    8.0490 C   0  0  0  0  0  0  0  0  0  0  0  0
   22.7840   35.2840    9.4780 C   0  0  0  0  0  0  0  0  0  0  0  0
   22.5090   37.2720    7.5950 C   0  0  0  0  0  0  0  0  0  0  0  0
   21.5410   35.6560    9.0080 C   0  0  0  0  0  0  0  0  0  0  0  0
   21.3710   36.6480    8.0640 C   0  0  0  0  0  0  0  0  0  0  0  0
   26.3860   35.9020    8.6770 C   0  0  0  0  0  0  0  0  0  0  0  0
   26.8620   37.2250    8.7170 C   0  0  0  0  0  0  0  0  0  0  0  0
   27.0210   34.9930    7.8670 C   0  0  0  0  0  0  0  0  0  0  0  0
   27.9410   37.6020    7.9610 C   0  0  0  0  0  0  0  0  0  0  0  0
   28.1210   35.3900    7.0980 C   0  0  0  0  0  0  0  0  0  0  0  0
   28.5740   36.6870    7.1490 C   0  0  0  0  0  0  0  0  0  0  0  0
   29.8670   25.5550   16.9770 C   0  0  0  0  0  0  0  0  0  0  0  0
   28.3450   25.7220   17.0260 C   0  0  0  0  0  0  0  0  0  0  0  0
   27.6010   24.4050   16.8670 C   0  0  0  0  0  0  0  0  0  0  0  0
   26.5370   24.2250   17.9140 C   0  0  0  0  0  0  0  0  0  0  0  0
   25.2080   23.9030   17.2390 C   0  0  0  0  0  0  0  0  0  0  0  0
   24.8370   22.4870   17.4740 N   0  0  0  0  0  0  0  0  0  0  0  0
  1  5  1  0  0  0  0
  2  1  1  0  0  0  0
  2  3  2  0  0  0  0
  4  1  1  0  0  0  0
  6  5  1  1  0  0  0
  7 27  1  6  0  0  0
  7  6  1  0  0  0  0
  8  7  1  6  0  0  0
  8 13  1  0  0  0  0
  9 14  1  6  0  0  0
  9 11  1  0  0  0  0
  9 10  1  0  0  0  0
 10 12  1  0  0  0  0
 11  8  1  0  0  0  0
 12 20  1  6  0  0  0
 12 13  1  0  0  0  0
 13 22  1  1  0  0  0
 14 15  1  0  0  0  0
 16 18  1  0  0  0  0
 16  9  1  0  0  0  0
 17 16  2  0  0  0  0
 19 18  1  0  0  0  0
 21 20  1  0  0  0  0
 22 23  1  0  0  0  0
 23 26  2  0  0  0  0
 23 25  1  0  0  0  0
 24 22  1  0  0  0  0
 27 28  1  0  0  0  0
 29  6  1  0  0  0  0
 30 29  1  0  0  0  0
 31  2  1  0  0  0  0
 32 31  1  0  0  0  0
 33 35  1  0  0  0  0
 33 32  1  0  0  0  0
 34 33  2  0  0  0  0
 36 34  1  0  0  0  0
 36 37  1  0  0  0  0
 37 35  2  0  0  0  0
 38 36  1  0  0  0  0
 39 41  2  0  0  0  0
 39 38  1  0  0  0  0
 40 39  1  0  0  0  0
 42 40  2  0  0  0  0
 42 44  1  0  0  0  0
 43 41  1  0  0  0  0
 44 43  2  0  0  0  0
 45 46  1  0  0  0  0
 45 38  1  0  0  0  0
 47 45  2  0  0  0  0
 48 46  2  0  0  0  0
 49 50  2  0  0  0  0
 49 47  1  0  0  0  0
 50 48  1  0  0  0  0
 51 52  1  0  0  0  0
 53 52  1  0  0  0  0
 53 54  1  0  0  0  0
 55 56  1  0  0  0  0
 55 54  1  0  0  0  0
M  END
>  <REMARK>
 VINA RESULT:    -5.936      2.346      4.828
 INTER + INTRA:         -16.459
 INTER:                 -11.397
 INTRA:                  -5.061
 UNBOUND:                -5.490
 SMILES CC(=O)N[C@@H]1[C@@H](O)C[C@](O)(C(=O)O)O[C@H]1C(O)[C@H](O)CNC(=O)OCc1cn(C(c2ccccc2)c2ccccc2)nn1
 SMILES IDX 21 1 22 2 23 3 20 5 18 6 16 7 15 8 9 9 8 10 14 11 6 12 5 13
 SMILES IDX 10 14 11 16 12 17 13 18 7 20 4 22 2 23 1 25 3 26 17 27 19 29
 SMILES IDX 24 31 25 32 26 33 27 34 43 35 28 36 42 37 29 38 30 39 31 40
 SMILES IDX 35 41 32 42 34 43 33 44 36 45 37 46 41 47 38 48 40 49 39 50
 H PARENT 21 4 10 15 13 19 7 21 4 24 17 28 19 30
 Flexibility Score: inf
  4 active torsions:
  status: ('A' for Active; 'I' for Inactive)
    1  A    between atoms: CA   and  CB  
    2  A    between atoms: CB   and  CG  
    3  A    between atoms: CG   and  CD  
    4  A    between atoms: CD   and  CE  

>  <TORSDO>
F 17

>  <BEGIN_>
RES LYS A 131

$$$$
ligand_58_pose_4_2HRL.pdbqt
 OpenBabel07062320523D

  6  5  0  0  0  0  0  0  0  0999 V2000
   33.1930   34.6630    9.2900 C   0  0  0  0  0  0  0  0  0  0  0  0
   32.0600   35.3600   10.0340 C   0  0  0  0  0  0  0  0  0  0  0  0
   30.6880   34.9390    9.5740 C   0  0  0  0  0  0  0  0  0  0  0  0
   29.6260   35.4040   10.5580 C   0  0  0  0  0  0  0  0  0  0  0  0
   29.8850   36.8370   10.9830 C   0  0  0  0  0  0  0  0  0  0  0  0
   28.8740   37.2920   11.9770 N   0  0  0  0  0  0  0  0  0  0  0  0
  1  2  1  0  0  0  0
  3  2  1  0  0  0  0
  3  4  1  0  0  0  0
  4  5  1  0  0  0  0
  5  6  1  0  0  0  0
M  END
>  <EGIN_R>
ES LYS A 135

>  <REMARK>
  4 active torsions:
  status: ('A' for Active; 'I' for Inactive)
    5  A    between atoms: CA   and  CB  
    6  A    between atoms: CB   and  CG  
    7  A    between atoms: CG   and  CD  
    8  A    between atoms: CD   and  CE  

$$$$
