ligand_43_pose_7_2HRL.pdbqt
 OpenBabel07062320523D

 49 49  0  0  1  0  0  0  0  0999 V2000
   30.9850   32.3380   19.7070 O   0  0  0  0  0  0  0  0  0  0  0  0
   31.0650   31.3510   20.6700 C   0  0  0  0  0  0  0  0  0  0  0  0
   30.4630   30.0860   20.3620 N   0  0  0  0  0  0  0  0  0  0  0  0
   30.0010   29.9700   19.4400 H   0  0  0  0  0  0  0  0  0  0  0  0
   31.6460   31.5460   21.7850 O   0  0  0  0  0  0  0  0  0  0  0  0
   30.4870   29.0000   21.2820 C   0  0  0  0  0  0  0  0  0  0  0  0
   30.1370   27.6500   20.6510 C   0  0  2  0  0  0  0  0  0  0  0  0
   28.6440   27.5020   20.8020 C   0  0  2  0  0  0  0  0  0  0  0  0
   27.8960   27.5270   19.5090 C   0  0  2  0  0  0  0  0  0  0  0  0
   27.0330   29.2070   18.1600 C   0  0  2  0  0  0  0  0  0  0  0  0
   26.2570   28.0740   17.5220 C   0  0  0  0  0  0  0  0  0  0  0  0
   28.1220   28.7080   18.8530 O   0  0  0  0  0  0  0  0  0  0  0  0
   25.5490   27.3310   18.6320 C   0  0  1  0  0  0  0  0  0  0  0  0
   26.4150   27.3510   19.8700 C   0  0  1  0  0  0  0  0  0  0  0  0
   26.2090   29.9930   18.9590 O   0  0  0  0  0  0  0  0  0  0  0  0
   26.5910   30.8940   19.0560 H   0  0  0  0  0  0  0  0  0  0  0  0
   27.5190   30.0710   17.0540 C   0  0  0  0  0  0  0  0  0  0  0  0
   27.0440   31.2150   16.8370 O   0  0  0  0  0  0  0  0  0  0  0  0
   28.5420   29.6610   16.1820 O   0  0  0  0  0  0  0  0  0  0  0  0
   29.4890   29.6400   16.5510 H   0  0  0  0  0  0  0  0  0  0  0  0
   24.3710   27.9880   18.9320 O   0  0  0  0  0  0  0  0  0  0  0  0
   24.3490   28.8630   18.4710 H   0  0  0  0  0  0  0  0  0  0  0  0
   26.2920   26.1210   20.6320 N   0  0  0  0  0  0  0  0  0  0  0  0
   25.5260   26.0170   21.8270 C   0  0  0  0  0  0  0  0  0  0  0  0
   26.7750   25.2280   20.3300 H   0  0  0  0  0  0  0  0  0  0  0  0
   25.4080   24.7460   22.6030 C   0  0  0  0  0  0  0  0  0  0  0  0
   24.9380   27.0650   22.2150 O   0  0  0  0  0  0  0  0  0  0  0  0
   28.2400   28.5210   21.6790 O   0  0  0  0  0  0  0  0  0  0  0  0
   27.9040   28.1550   22.5360 H   0  0  0  0  0  0  0  0  0  0  0  0
   30.8630   26.6220   21.2140 O   0  0  0  0  0  0  0  0  0  0  0  0
   30.9830   25.8360   20.6540 H   0  0  0  0  0  0  0  0  0  0  0  0
   29.9740   32.3020   18.7350 C   0  0  0  0  0  0  0  0  0  0  0  0
   30.6450   32.4900   17.4060 C   0  0  0  0  0  0  0  0  0  0  0  0
   31.3960   33.6060   17.0720 C   0  0  0  0  0  0  0  0  0  0  0  0
   30.6730   31.6990   16.3340 N   0  0  0  0  0  0  0  0  0  0  0  0
   31.8490   33.4530   15.8220 N   0  0  0  0  0  0  0  0  0  0  0  0
   31.3950   32.2890   15.3980 N   0  0  0  0  0  0  0  0  0  0  0  0
   32.6760   34.3430   15.0210 C   0  0  0  0  0  0  0  0  0  0  0  0
   32.1440   35.7500   15.1040 C   0  0  0  0  0  0  0  0  0  0  0  0
   31.5290   36.1850   13.7970 C   0  0  0  0  0  0  0  0  0  0  0  0
   32.4630   35.9910   12.6320 C   0  0  0  0  0  0  0  0  0  0  0  0
   32.3300   37.1180   11.6810 C   0  0  0  0  0  0  0  0  0  0  0  0
   31.4810   38.1060   11.8590 C   0  0  0  0  0  0  0  0  0  0  0  0
   29.8670   25.5550   16.9770 C   0  0  0  0  0  0  0  0  0  0  0  0
   28.3450   25.7220   17.0260 C   0  0  0  0  0  0  0  0  0  0  0  0
   27.5990   24.4430   16.6770 C   0  0  0  0  0  0  0  0  0  0  0  0
   26.8560   23.8810   17.8580 C   0  0  0  0  0  0  0  0  0  0  0  0
   25.3710   23.7790   17.5230 C   0  0  0  0  0  0  0  0  0  0  0  0
   24.5600   23.7580   18.7630 N   0  0  0  0  0  0  0  0  0  0  0  0
  1  2  1  0  0  0  0
  2  5  2  0  0  0  0
  3  2  1  0  0  0  0
  3  6  1  0  0  0  0
  4  3  1  0  0  0  0
  7  8  1  0  0  0  0
  7 30  1  0  0  0  0
  7  6  1  1  0  0  0
  8 28  1  1  0  0  0
  9 14  1  0  0  0  0
  9  8  1  1  0  0  0
 10 17  1  6  0  0  0
 10 12  1  0  0  0  0
 10 15  1  0  0  0  0
 11 10  1  0  0  0  0
 11 13  1  0  0  0  0
 12  9  1  0  0  0  0
 13 21  1  1  0  0  0
 13 14  1  0  0  0  0
 14 23  1  6  0  0  0
 15 16  1  0  0  0  0
 18 17  2  0  0  0  0
 19 20  1  0  0  0  0
 19 17  1  0  0  0  0
 22 21  1  0  0  0  0
 23 24  1  0  0  0  0
 24 27  2  0  0  0  0
 24 26  1  0  0  0  0
 25 23  1  0  0  0  0
 28 29  1  0  0  0  0
 31 30  1  0  0  0  0
 32  1  1  0  0  0  0
 33 32  1  0  0  0  0
 34 33  2  0  0  0  0
 35 33  1  0  0  0  0
 36 34  1  0  0  0  0
 37 36  1  0  0  0  0
 37 35  2  0  0  0  0
 38 39  1  0  0  0  0
 38 36  1  0  0  0  0
 40 39  1  0  0  0  0
 41 40  1  0  0  0  0
 42 43  2  0  0  0  0
 42 41  1  0  0  0  0
 44 45  1  0  0  0  0
 46 45  1  0  0  0  0
 46 47  1  0  0  0  0
 48 47  1  0  0  0  0
 48 49  1  0  0  0  0
M  END
>  <REMARK>
 VINA RESULT:    -5.019      4.017      6.946
 INTER + INTRA:         -14.646
 INTER:                  -9.023
 INTRA:                  -5.623
 UNBOUND:                -4.785
 SMILES C=CCCCCn1cc(COC(=O)NC[C@@H](O)C(O)[C@@H]2O[C@@](O)(C(=O)O)C[C@H](O)[C@H]2NC(C)=O)nn1
 SMILES IDX 11 1 12 2 14 3 13 5 15 6 16 7 18 8 20 9 22 10 27 11 21 12
 SMILES IDX 28 13 30 14 23 15 24 17 25 18 26 19 29 21 31 23 32 24 33 26
 SMILES IDX 34 27 19 28 17 30 10 32 9 33 8 34 35 35 7 36 36 37 6 38 5 39
 SMILES IDX 4 40 3 41 2 42 1 43
 H PARENT 14 4 23 16 26 20 29 22 31 25 19 29 17 31
 Flexibility Score: inf
  4 active torsions:
  status: ('A' for Active; 'I' for Inactive)
    1  A    between atoms: CA   and  CB  
    2  A    between atoms: CB   and  CG  
    3  A    between atoms: CG   and  CD  
    4  A    between atoms: CD   and  CE  

>  <TORSDO>
F 19

>  <BEGIN_>
RES LYS A 131

$$$$
ligand_43_pose_7_2HRL.pdbqt
 OpenBabel07062320523D

  6  5  0  0  0  0  0  0  0  0999 V2000
   33.1930   34.6630    9.2900 C   0  0  0  0  0  0  0  0  0  0  0  0
   32.0600   35.3600   10.0340 C   0  0  0  0  0  0  0  0  0  0  0  0
   30.7070   34.7430    9.7860 C   0  0  0  0  0  0  0  0  0  0  0  0
   30.3930   34.7180    8.2980 C   0  0  0  0  0  0  0  0  0  0  0  0
   28.8990   34.5950    8.0720 C   0  0  0  0  0  0  0  0  0  0  0  0
   28.2230   34.0020    9.2590 N   0  0  0  0  0  0  0  0  0  0  0  0
  1  2  1  0  0  0  0
  3  2  1  0  0  0  0
  4  3  1  0  0  0  0
  5  4  1  0  0  0  0
  5  6  1  0  0  0  0
M  END
>  <EGIN_R>
ES LYS A 135

>  <REMARK>
  4 active torsions:
  status: ('A' for Active; 'I' for Inactive)
    5  A    between atoms: CA   and  CB  
    6  A    between atoms: CB   and  CG  
    7  A    between atoms: CG   and  CD  
    8  A    between atoms: CD   and  CE  

$$$$
