ligand_92_pose_13_2HRL.pdbqt
 OpenBabel07062320523D

 59 61  0  0  1  0  0  0  0  0999 V2000
   25.2790   31.7620   19.0970 N   0  0  0  0  0  0  0  0  0  0  0  0
   24.4500   31.0790   18.1800 C   0  0  0  0  0  0  0  0  0  0  0  0
   23.4510   30.4220   18.6330 O   0  0  0  0  0  0  0  0  0  0  0  0
   26.0880   32.2970   18.7380 H   0  0  0  0  0  0  0  0  0  0  0  0
   25.0270   31.7360   20.5120 C   0  0  0  0  0  0  0  0  0  0  0  0
   26.1690   31.1400   21.2980 C   0  0  2  0  0  0  0  0  0  0  0  0
   26.6890   29.8790   20.6730 C   0  0  1  0  0  0  0  0  0  0  0  0
   27.7010   29.1870   21.6050 C   0  0  2  0  0  0  0  0  0  0  0  0
   29.7490   29.4310   20.4590 C   0  0  2  0  0  0  0  0  0  0  0  0
   29.9180   27.9240   20.4770 C   0  0  0  0  0  0  0  0  0  0  0  0
   28.8950   29.8160   21.4320 O   0  0  0  0  0  0  0  0  0  0  0  0
   28.5460   27.3540   20.2060 C   0  0  1  0  0  0  0  0  0  0  0  0
   27.6530   27.7290   21.3630 C   0  0  1  0  0  0  0  0  0  0  0  0
   29.1960   29.7330   19.2070 O   0  0  0  0  0  0  0  0  0  0  0  0
   28.4500   30.3590   19.2590 H   0  0  0  0  0  0  0  0  0  0  0  0
   31.0660   30.1140   20.5320 C   0  0  0  0  0  0  0  0  0  0  0  0
   31.1260   31.3440   20.3920 O   0  0  0  0  0  0  0  0  0  0  0  0
   32.2250   29.3950   20.7520 O   0  0  0  0  0  0  0  0  0  0  0  0
   32.6920   29.4370   21.6690 H   0  0  0  0  0  0  0  0  0  0  0  0
   28.0750   27.8130   18.9810 O   0  0  0  0  0  0  0  0  0  0  0  0
   28.8740   28.0080   18.4110 H   0  0  0  0  0  0  0  0  0  0  0  0
   28.0100   26.9010   22.4700 N   0  0  0  0  0  0  0  0  0  0  0  0
   27.0110   26.2990   23.2650 C   0  0  0  0  0  0  0  0  0  0  0  0
   29.0040   26.7360   22.7010 H   0  0  0  0  0  0  0  0  0  0  0  0
   27.2910   25.4260   24.4320 C   0  0  0  0  0  0  0  0  0  0  0  0
   25.8280   26.5150   22.9680 O   0  0  0  0  0  0  0  0  0  0  0  0
   25.6530   28.9700   20.3570 O   0  0  0  0  0  0  0  0  0  0  0  0
   25.6550   28.8520   19.3890 H   0  0  0  0  0  0  0  0  0  0  0  0
   25.6480   30.8970   22.5880 O   0  0  0  0  0  0  0  0  0  0  0  0
   24.8890   30.2760   22.4640 H   0  0  0  0  0  0  0  0  0  0  0  0
   24.6520   31.0750   16.8160 O   0  0  0  0  0  0  0  0  0  0  0  0
   25.2410   29.9550   16.1400 C   0  0  0  0  0  0  0  0  0  0  0  0
   26.7060   30.2330   16.0730 C   0  0  0  0  0  0  0  0  0  0  0  0
   27.3140   31.4260   15.6760 C   0  0  0  0  0  0  0  0  0  0  0  0
   27.7380   29.4170   16.3730 N   0  0  0  0  0  0  0  0  0  0  0  0
   28.6480   31.2910   15.7470 N   0  0  0  0  0  0  0  0  0  0  0  0
   28.8610   30.0620   16.1730 N   0  0  0  0  0  0  0  0  0  0  0  0
   29.5920   32.3010   15.4190 C   0  0  0  0  0  0  0  0  0  0  0  0
   30.9210   32.2140   15.7630 C   0  0  0  0  0  0  0  0  0  0  0  0
   29.1810   33.4210   14.7290 C   0  0  0  0  0  0  0  0  0  0  0  0
   31.8320   33.2180   15.4330 C   0  0  0  0  0  0  0  0  0  0  0  0
   30.0780   34.4130   14.4010 C   0  0  0  0  0  0  0  0  0  0  0  0
   31.4320   34.3390   14.7440 C   0  0  0  0  0  0  0  0  0  0  0  0
   32.5320   35.6100   14.2990 S   0  0  0  0  0  0  0  0  0  0  0  0
   33.3120   35.1130   13.0890 O   0  0  0  0  0  0  0  0  0  0  0  0
   33.5220   35.7640   15.4020 O   0  0  0  0  0  0  0  0  0  0  0  0
   31.7860   37.0870   13.9140 N   0  0  0  0  0  0  0  0  0  0  0  0
   31.5820   37.7520   14.7090 H   0  0  0  0  0  0  0  0  0  0  0  0
   31.4000   37.5370   12.6420 C   0  0  0  0  0  0  0  0  0  0  0  0
   31.8550   37.9170   11.5750 N   0  0  0  0  0  0  0  0  0  0  0  0
   29.5590   37.6640   12.2340 S   0  0  0  0  0  0  0  0  0  0  0  0
   31.2220   38.2870   10.5080 C   0  0  0  0  0  0  0  0  0  0  0  0
   29.8700   38.2760   10.5060 C   0  0  0  0  0  0  0  0  0  0  0  0
   29.8670   25.5550   16.9770 C   0  0  0  0  0  0  0  0  0  0  0  0
   28.3450   25.7220   17.0260 C   0  0  0  0  0  0  0  0  0  0  0  0
   27.6000   24.4100   16.8350 C   0  0  0  0  0  0  0  0  0  0  0  0
   26.1630   24.5060   17.2670 C   0  0  0  0  0  0  0  0  0  0  0  0
   26.1010   24.8720   18.7470 C   0  0  0  0  0  0  0  0  0  0  0  0
   25.4370   23.7960   19.5200 N   0  0  0  0  0  0  0  0  0  0  0  0
  1  5  1  0  0  0  0
  2  3  2  0  0  0  0
  2  1  1  0  0  0  0
  4  1  1  0  0  0  0
  6  5  1  6  0  0  0
  6 29  1  0  0  0  0
  7 27  1  1  0  0  0
  7  6  1  0  0  0  0
  8  7  1  6  0  0  0
  9 14  1  6  0  0  0
  9 10  1  0  0  0  0
  9 16  1  0  0  0  0
  9 11  1  0  0  0  0
 11  8  1  0  0  0  0
 12 20  1  6  0  0  0
 12 10  1  0  0  0  0
 12 13  1  0  0  0  0
 13  8  1  0  0  0  0
 13 22  1  1  0  0  0
 14 15  1  0  0  0  0
 16 18  1  0  0  0  0
 17 16  2  0  0  0  0
 18 19  1  0  0  0  0
 21 20  1  0  0  0  0
 22 24  1  0  0  0  0
 22 23  1  0  0  0  0
 23 25  1  0  0  0  0
 26 23  2  0  0  0  0
 28 27  1  0  0  0  0
 30 29  1  0  0  0  0
 31  2  1  0  0  0  0
 32 31  1  0  0  0  0
 33 32  1  0  0  0  0
 33 35  1  0  0  0  0
 34 36  1  0  0  0  0
 34 33  2  0  0  0  0
 36 37  1  0  0  0  0
 37 35  2  0  0  0  0
 38 36  1  0  0  0  0
 38 39  2  0  0  0  0
 40 38  1  0  0  0  0
 41 39  1  0  0  0  0
 42 40  2  0  0  0  0
 42 43  1  0  0  0  0
 43 41  2  0  0  0  0
 44 43  1  0  0  0  0
 44 46  2  0  0  0  0
 45 44  2  0  0  0  0
 47 44  1  0  0  0  0
 47 48  1  0  0  0  0
 49 47  1  0  0  0  0
 50 49  2  0  0  0  0
 51 49  1  0  0  0  0
 52 50  1  0  0  0  0
 53 52  2  0  0  0  0
 53 51  1  0  0  0  0
 54 55  1  0  0  0  0
 56 55  1  0  0  0  0
 56 57  1  0  0  0  0
 57 58  1  0  0  0  0
 58 59  1  0  0  0  0
M  END
>  <REMARK>
 VINA RESULT:    -4.921      2.997      5.032
 INTER + INTRA:         -15.788
 INTER:                  -9.317
 INTRA:                  -6.471
 UNBOUND:                -6.408
 SMILES CC(=O)N[C@@H]1[C@@H](O)C[C@](O)(C(=O)O)O[C@H]1C(O)[C@H](O)CNC(=O)OCc1cn(-c2ccc(S(=O)(=O)Nc3nccs3)cc2)nn1
 SMILES IDX 21 1 22 2 23 3 20 5 18 6 16 7 15 8 9 9 8 10 14 11 6 12 5 13
 SMILES IDX 10 14 11 16 12 17 13 18 7 20 4 22 2 23 1 25 3 26 17 27 19 29
 SMILES IDX 24 31 25 32 26 33 27 34 45 35 28 36 44 37 29 38 30 39 43 40
 SMILES IDX 31 41 42 42 32 43 33 44 34 45 35 46 36 47 37 49 38 50 41 51
 SMILES IDX 39 52 40 53
 H PARENT 21 4 10 15 13 19 7 21 4 24 17 28 19 30 36 48
 Flexibility Score: inf
  4 active torsions:
  status: ('A' for Active; 'I' for Inactive)
    1  A    between atoms: CA   and  CB  
    2  A    between atoms: CB   and  CG  
    3  A    between atoms: CG   and  CD  
    4  A    between atoms: CD   and  CE  

>  <TORSDO>
F 18

>  <BEGIN_>
RES LYS A 131

$$$$
ligand_92_pose_13_2HRL.pdbqt
 OpenBabel07062320523D

  6  5  0  0  0  0  0  0  0  0999 V2000
   33.1930   34.6630    9.2900 C   0  0  0  0  0  0  0  0  0  0  0  0
   32.0600   35.3600   10.0340 C   0  0  0  0  0  0  0  0  0  0  0  0
   30.7160   34.7100    9.8310 C   0  0  0  0  0  0  0  0  0  0  0  0
   30.4490   34.4800    8.3510 C   0  0  0  0  0  0  0  0  0  0  0  0
   29.0120   34.8220    8.0100 C   0  0  0  0  0  0  0  0  0  0  0  0
   28.9230   35.5160    6.6950 N   0  0  0  0  0  0  0  0  0  0  0  0
  1  2  1  0  0  0  0
  3  2  1  0  0  0  0
  4  3  1  0  0  0  0
  5  4  1  0  0  0  0
  6  5  1  0  0  0  0
M  END
>  <EGIN_R>
ES LYS A 135

>  <REMARK>
  4 active torsions:
  status: ('A' for Active; 'I' for Inactive)
    5  A    between atoms: CA   and  CB  
    6  A    between atoms: CB   and  CG  
    7  A    between atoms: CG   and  CD  
    8  A    between atoms: CD   and  CE  

$$$$
