ligand_61_pose_15_2HRL.pdbqt
 OpenBabel07062320523D

 49 50  0  0  1  0  0  0  0  0999 V2000
   27.1450   31.2090   17.1780 N   0  0  0  0  0  0  0  0  0  0  0  0
   28.4270   30.9140   16.6600 C   0  0  0  0  0  0  0  0  0  0  0  0
   28.5580   29.9560   15.8640 O   0  0  0  0  0  0  0  0  0  0  0  0
   27.0930   32.0380   17.8490 H   0  0  0  0  0  0  0  0  0  0  0  0
   25.9410   30.4730   16.8590 C   0  0  0  0  0  0  0  0  0  0  0  0
   25.3980   29.8620   18.1100 C   0  0  2  0  0  0  0  0  0  0  0  0
   25.8620   28.4420   18.3540 C   0  0  2  0  0  0  0  0  0  0  0  0
   26.6830   28.4050   19.5990 C   0  0  2  0  0  0  0  0  0  0  0  0
   28.8250   28.1360   20.4280 C   0  0  2  0  0  0  0  0  0  0  0  0
   28.1140   28.2140   21.7580 C   0  0  0  0  0  0  0  0  0  0  0  0
   28.0370   28.5590   19.3750 O   0  0  0  0  0  0  0  0  0  0  0  0
   26.8600   27.4060   21.8040 C   0  0  1  0  0  0  0  0  0  0  0  0
   26.4240   27.1110   20.3840 C   0  0  1  0  0  0  0  0  0  0  0  0
   29.3940   26.8800   20.2130 O   0  0  0  0  0  0  0  0  0  0  0  0
   29.1960   26.5760   19.2980 H   0  0  0  0  0  0  0  0  0  0  0  0
   29.9740   29.1070   20.5140 C   0  0  0  0  0  0  0  0  0  0  0  0
   30.5980   29.3260   21.5600 O   0  0  0  0  0  0  0  0  0  0  0  0
   30.3580   29.7970   19.3650 O   0  0  0  0  0  0  0  0  0  0  0  0
   31.1810   29.5580   18.8260 H   0  0  0  0  0  0  0  0  0  0  0  0
   26.9480   26.2710   22.5790 O   0  0  0  0  0  0  0  0  0  0  0  0
   27.6110   25.6130   22.2040 H   0  0  0  0  0  0  0  0  0  0  0  0
   25.0330   26.7500   20.2920 N   0  0  0  0  0  0  0  0  0  0  0  0
   24.6170   25.3870   20.4350 C   0  0  0  0  0  0  0  0  0  0  0  0
   24.2850   27.4560   20.1180 H   0  0  0  0  0  0  0  0  0  0  0  0
   23.2240   24.9410   20.3540 C   0  0  0  0  0  0  0  0  0  0  0  0
   25.5150   24.5070   20.6480 O   0  0  0  0  0  0  0  0  0  0  0  0
   26.6450   28.0890   17.2530 O   0  0  0  0  0  0  0  0  0  0  0  0
   27.5680   28.4150   17.3870 H   0  0  0  0  0  0  0  0  0  0  0  0
   24.0020   29.8030   17.9770 O   0  0  0  0  0  0  0  0  0  0  0  0
   23.5310   29.9750   18.8210 H   0  0  0  0  0  0  0  0  0  0  0  0
   29.5310   31.7010   17.0460 O   0  0  0  0  0  0  0  0  0  0  0  0
   30.7120   31.5000   16.2810 C   0  0  0  0  0  0  0  0  0  0  0  0
   30.8930   32.6670   15.4060 C   0  0  0  0  0  0  0  0  0  0  0  0
   31.9450   33.5680   15.3960 C   0  0  0  0  0  0  0  0  0  0  0  0
   30.0430   33.0690   14.4380 N   0  0  0  0  0  0  0  0  0  0  0  0
   31.6740   34.4570   14.4310 N   0  0  0  0  0  0  0  0  0  0  0  0
   30.5280   34.1610   13.8480 N   0  0  0  0  0  0  0  0  0  0  0  0
   32.5080   35.5720   14.0780 C   0  0  0  0  0  0  0  0  0  0  0  0
   31.9680   36.8610   14.6950 C   0  0  0  0  0  0  0  0  0  0  0  0
   32.2550   37.2170   15.9420 C   0  0  0  0  0  0  0  0  0  0  0  0
   31.1640   37.6600   13.9140 C   0  0  0  0  0  0  0  0  0  0  0  0
   31.7500   38.3820   16.4530 C   0  0  0  0  0  0  0  0  0  0  0  0
   30.7930   39.0310   15.0670 S   0  0  0  0  0  0  0  0  0  0  0  0
   29.8670   25.5550   16.9770 C   0  0  0  0  0  0  0  0  0  0  0  0
   28.3450   25.7220   17.0260 C   0  0  0  0  0  0  0  0  0  0  0  0
   27.6030   24.3950   16.9760 C   0  0  0  0  0  0  0  0  0  0  0  0
   26.1240   24.5650   17.1890 C   0  0  0  0  0  0  0  0  0  0  0  0
   25.4900   23.2050   17.4630 C   0  0  0  0  0  0  0  0  0  0  0  0
   24.0370   23.2420   17.1730 N   0  0  0  0  0  0  0  0  0  0  0  0
  1  4  1  0  0  0  0
  2 31  1  0  0  0  0
  2  1  1  0  0  0  0
  3  2  2  0  0  0  0
  5  1  1  0  0  0  0
  6  5  1  6  0  0  0
  6  7  1  0  0  0  0
  7 27  1  6  0  0  0
  8  7  1  6  0  0  0
  8 13  1  0  0  0  0
  9 14  1  6  0  0  0
  9 16  1  0  0  0  0
  9 10  1  0  0  0  0
 10 12  1  0  0  0  0
 11  8  1  0  0  0  0
 11  9  1  0  0  0  0
 12 20  1  1  0  0  0
 13 22  1  1  0  0  0
 13 12  1  0  0  0  0
 15 14  1  0  0  0  0
 16 17  2  0  0  0  0
 18 16  1  0  0  0  0
 19 18  1  0  0  0  0
 21 20  1  0  0  0  0
 22 23  1  0  0  0  0
 23 26  2  0  0  0  0
 24 22  1  0  0  0  0
 25 23  1  0  0  0  0
 27 28  1  0  0  0  0
 29  6  1  0  0  0  0
 29 30  1  0  0  0  0
 32 31  1  0  0  0  0
 33 32  1  0  0  0  0
 34 33  2  0  0  0  0
 35 33  1  0  0  0  0
 36 34  1  0  0  0  0
 37 36  1  0  0  0  0
 37 35  2  0  0  0  0
 38 36  1  0  0  0  0
 38 39  1  0  0  0  0
 39 40  1  0  0  0  0
 40 42  2  0  0  0  0
 41 39  2  0  0  0  0
 41 43  1  0  0  0  0
 43 42  1  0  0  0  0
 44 45  1  0  0  0  0
 46 45  1  0  0  0  0
 46 47  1  0  0  0  0
 47 48  1  0  0  0  0
 49 48  1  0  0  0  0
M  END
>  <REMARK>
 VINA RESULT:    -4.095      6.230     11.418
 INTER + INTRA:         -13.463
 INTER:                  -8.190
 INTRA:                  -5.274
 UNBOUND:                -6.136
 SMILES CC(=O)N[C@@H]1[C@@H](O)C[C@](O)(C(=O)O)O[C@H]1C(O)[C@H](O)CNC(=O)OCc1cn(Cc2ccsc2)nn1
 SMILES IDX 21 1 22 2 23 3 20 5 18 6 16 7 15 8 9 9 8 10 14 11 6 12 5 13
 SMILES IDX 10 14 11 16 12 17 13 18 7 20 4 22 2 23 1 25 3 26 17 27 19 29
 SMILES IDX 24 31 25 32 26 33 27 34 36 35 28 36 35 37 29 38 30 39 31 40
 SMILES IDX 34 41 32 42 33 43
 H PARENT 21 4 10 15 13 19 7 21 4 24 17 28 19 30
 Flexibility Score: inf
  4 active torsions:
  status: ('A' for Active; 'I' for Inactive)
    1  A    between atoms: CA   and  CB  
    2  A    between atoms: CB   and  CG  
    3  A    between atoms: CG   and  CD  
    4  A    between atoms: CD   and  CE  

>  <TORSDO>
F 16

>  <BEGIN_>
RES LYS A 131

$$$$
ligand_61_pose_15_2HRL.pdbqt
 OpenBabel07062320523D

  6  5  0  0  0  0  0  0  0  0999 V2000
   33.1930   34.6630    9.2900 C   0  0  0  0  0  0  0  0  0  0  0  0
   32.0600   35.3600   10.0340 C   0  0  0  0  0  0  0  0  0  0  0  0
   30.7070   34.7460    9.7830 C   0  0  0  0  0  0  0  0  0  0  0  0
   30.5080   34.4730    8.3000 C   0  0  0  0  0  0  0  0  0  0  0  0
   29.2950   35.2200    7.7800 C   0  0  0  0  0  0  0  0  0  0  0  0
   28.0330   34.6100    8.2820 N   0  0  0  0  0  0  0  0  0  0  0  0
  1  2  1  0  0  0  0
  3  2  1  0  0  0  0
  4  3  1  0  0  0  0
  5  6  1  0  0  0  0
  5  4  1  0  0  0  0
M  END
>  <EGIN_R>
ES LYS A 135

>  <REMARK>
  4 active torsions:
  status: ('A' for Active; 'I' for Inactive)
    5  A    between atoms: CA   and  CB  
    6  A    between atoms: CB   and  CG  
    7  A    between atoms: CG   and  CD  
    8  A    between atoms: CD   and  CE  

$$$$
