ligand_38_pose_11_2HRL.pdbqt
 OpenBabel07062320523D

 51 52  0  0  1  0  0  0  0  0999 V2000
   25.8810   30.6800   18.8190 N   0  0  0  0  0  0  0  0  0  0  0  0
   25.1540   31.8230   18.4080 C   0  0  0  0  0  0  0  0  0  0  0  0
   25.7570   32.8400   17.9340 O   0  0  0  0  0  0  0  0  0  0  0  0
   25.3470   29.8710   19.2010 H   0  0  0  0  0  0  0  0  0  0  0  0
   27.3110   30.7230   18.6760 C   0  0  0  0  0  0  0  0  0  0  0  0
   27.8060   29.6390   17.7080 C   0  0  2  0  0  0  0  0  0  0  0  0
   28.1860   30.3570   16.4610 C   0  0  2  0  0  0  0  0  0  0  0  0
   28.8950   31.6680   16.6400 C   0  0  2  0  0  0  0  0  0  0  0  0
   29.0760   33.6620   15.4390 C   0  0  2  0  0  0  0  0  0  0  0  0
   30.4660   33.8120   16.0280 C   0  0  0  0  0  0  0  0  0  0  0  0
   28.7190   32.3370   15.4230 O   0  0  0  0  0  0  0  0  0  0  0  0
   31.1530   32.4610   16.1460 C   0  0  1  0  0  0  0  0  0  0  0  0
   30.3010   31.6010   17.0980 C   0  0  1  0  0  0  0  0  0  0  0  0
   29.2080   34.0300   14.0820 O   0  0  0  0  0  0  0  0  0  0  0  0
   30.1370   34.2020   13.8370 H   0  0  0  0  0  0  0  0  0  0  0  0
   28.1030   34.5710   16.0490 C   0  0  0  0  0  0  0  0  0  0  0  0
   27.2490   35.1510   15.3390 O   0  0  0  0  0  0  0  0  0  0  0  0
   28.0690   34.8370   17.4100 O   0  0  0  0  0  0  0  0  0  0  0  0
   28.5790   35.6190   17.7700 H   0  0  0  0  0  0  0  0  0  0  0  0
   31.3200   31.8690   14.9210 O   0  0  0  0  0  0  0  0  0  0  0  0
   31.1710   30.8760   15.0200 H   0  0  0  0  0  0  0  0  0  0  0  0
   30.4760   32.2470   18.4050 N   0  0  0  0  0  0  0  0  0  0  0  0
   30.7210   31.4880   19.5810 C   0  0  0  0  0  0  0  0  0  0  0  0
   30.4270   33.2820   18.5300 H   0  0  0  0  0  0  0  0  0  0  0  0
   30.8950   32.1720   20.9120 C   0  0  0  0  0  0  0  0  0  0  0  0
   30.8000   30.2490   19.5560 O   0  0  0  0  0  0  0  0  0  0  0  0
   26.9630   30.6930   15.8220 O   0  0  0  0  0  0  0  0  0  0  0  0
   27.0240   31.6790   15.6710 H   0  0  0  0  0  0  0  0  0  0  0  0
   26.7420   28.7530   17.5610 O   0  0  0  0  0  0  0  0  0  0  0  0
   26.7250   28.1570   18.3410 H   0  0  0  0  0  0  0  0  0  0  0  0
   23.7730   31.9150   18.4910 O   0  0  0  0  0  0  0  0  0  0  0  0
   22.8890   30.9500   17.9480 C   0  0  0  0  0  0  0  0  0  0  0  0
   23.2860   30.5690   16.5660 C   0  0  0  0  0  0  0  0  0  0  0  0
   22.7820   31.1170   15.3810 C   0  0  0  0  0  0  0  0  0  0  0  0
   24.1820   29.6490   16.1660 N   0  0  0  0  0  0  0  0  0  0  0  0
   23.3830   30.5170   14.3490 N   0  0  0  0  0  0  0  0  0  0  0  0
   24.2260   29.6330   14.8490 N   0  0  0  0  0  0  0  0  0  0  0  0
   23.1900   30.7480   12.9340 C   0  0  0  0  0  0  0  0  0  0  0  0
   21.8140   30.3520   12.5340 C   0  0  0  0  0  0  0  0  0  0  0  0
   21.4960   29.0350   12.2860 C   0  0  0  0  0  0  0  0  0  0  0  0
   20.8370   31.3000   12.4080 C   0  0  0  0  0  0  0  0  0  0  0  0
   20.2030   28.6600   11.9090 C   0  0  0  0  0  0  0  0  0  0  0  0
   19.5440   30.9390   12.0330 C   0  0  0  0  0  0  0  0  0  0  0  0
   19.2290   29.6130   11.7840 C   0  0  0  0  0  0  0  0  0  0  0  0
   18.2140   32.2830   11.8670 Br  0  0  0  0  0  0  0  0  0  0  0  0
   29.8670   25.5550   16.9770 C   0  0  0  0  0  0  0  0  0  0  0  0
   28.3450   25.7220   17.0260 C   0  0  0  0  0  0  0  0  0  0  0  0
   27.6010   24.4020   16.8900 C   0  0  0  0  0  0  0  0  0  0  0  0
   26.1930   24.4900   17.4100 C   0  0  0  0  0  0  0  0  0  0  0  0
   25.6260   23.0850   17.5820 C   0  0  0  0  0  0  0  0  0  0  0  0
   24.2240   23.0290   17.1040 N   0  0  0  0  0  0  0  0  0  0  0  0
  1  4  1  0  0  0  0
  2 31  1  0  0  0  0
  2  1  1  0  0  0  0
  3  2  2  0  0  0  0
  5  1  1  0  0  0  0
  6  5  1  1  0  0  0
  7 27  1  1  0  0  0
  7  6  1  0  0  0  0
  8  7  1  6  0  0  0
  8 13  1  0  0  0  0
  9 14  1  6  0  0  0
  9 10  1  0  0  0  0
  9 16  1  0  0  0  0
 10 12  1  0  0  0  0
 11  9  1  0  0  0  0
 11  8  1  0  0  0  0
 12 20  1  6  0  0  0
 12 13  1  0  0  0  0
 13 22  1  1  0  0  0
 15 14  1  0  0  0  0
 16 18  1  0  0  0  0
 17 16  2  0  0  0  0
 18 19  1  0  0  0  0
 20 21  1  0  0  0  0
 22 24  1  0  0  0  0
 22 23  1  0  0  0  0
 23 25  1  0  0  0  0
 26 23  2  0  0  0  0
 28 27  1  0  0  0  0
 29  6  1  0  0  0  0
 29 30  1  0  0  0  0
 32 31  1  0  0  0  0
 33 32  1  0  0  0  0
 34 33  2  0  0  0  0
 35 33  1  0  0  0  0
 36 37  1  0  0  0  0
 36 34  1  0  0  0  0
 37 35  2  0  0  0  0
 38 36  1  0  0  0  0
 39 38  1  0  0  0  0
 40 39  2  0  0  0  0
 41 39  1  0  0  0  0
 42 40  1  0  0  0  0
 43 41  2  0  0  0  0
 44 42  2  0  0  0  0
 44 43  1  0  0  0  0
 45 43  1  0  0  0  0
 46 47  1  0  0  0  0
 48 47  1  0  0  0  0
 48 49  1  0  0  0  0
 49 50  1  0  0  0  0
 51 50  1  0  0  0  0
M  END
>  <REMARK>
 VINA RESULT:    -4.569      2.192      3.837
 INTER + INTRA:         -14.470
 INTER:                  -8.175
 INTRA:                  -6.295
 UNBOUND:                -6.295
 SMILES CC(=O)N[C@@H]1[C@@H](O)C[C@](O)(C(=O)O)O[C@H]1C(O)[C@H](O)CNC(=O)OCc1cn(Cc2cccc(Br)c2)nn1
 SMILES IDX 21 1 22 2 23 3 20 5 18 6 16 7 15 8 9 9 8 10 14 11 6 12 5 13
 SMILES IDX 10 14 11 16 12 17 13 18 7 20 4 22 2 23 1 25 3 26 17 27 19 29
 SMILES IDX 24 31 25 32 26 33 27 34 38 35 28 36 37 37 29 38 30 39 31 40
 SMILES IDX 36 41 32 42 34 43 33 44 35 45
 H PARENT 21 4 10 15 13 19 7 21 4 24 17 28 19 30
 Flexibility Score: inf
  4 active torsions:
  status: ('A' for Active; 'I' for Inactive)
    1  A    between atoms: CA   and  CB  
    2  A    between atoms: CB   and  CG  
    3  A    between atoms: CG   and  CD  
    4  A    between atoms: CD   and  CE  

>  <TORSDO>
F 16

>  <BEGIN_>
RES LYS A 131

$$$$
ligand_38_pose_11_2HRL.pdbqt
 OpenBabel07062320523D

  6  5  0  0  0  0  0  0  0  0999 V2000
   33.1930   34.6630    9.2900 C   0  0  0  0  0  0  0  0  0  0  0  0
   32.0600   35.3600   10.0340 C   0  0  0  0  0  0  0  0  0  0  0  0
   30.8500   35.6270    9.1760 C   0  0  0  0  0  0  0  0  0  0  0  0
   30.3310   34.3360    8.5630 C   0  0  0  0  0  0  0  0  0  0  0  0
   28.9760   33.9790    9.1430 C   0  0  0  0  0  0  0  0  0  0  0  0
   27.8920   34.7730    8.5010 N   0  0  0  0  0  0  0  0  0  0  0  0
  1  2  1  0  0  0  0
  3  2  1  0  0  0  0
  4  5  1  0  0  0  0
  4  3  1  0  0  0  0
  6  5  1  0  0  0  0
M  END
>  <EGIN_R>
ES LYS A 135

>  <REMARK>
  4 active torsions:
  status: ('A' for Active; 'I' for Inactive)
    5  A    between atoms: CA   and  CB  
    6  A    between atoms: CB   and  CG  
    7  A    between atoms: CG   and  CD  
    8  A    between atoms: CD   and  CE  

$$$$
