ligand_87_pose_11_2HRL.pdbqt
 OpenBabel07062320523D

 52 54  0  0  1  0  0  0  0  0999 V2000
   23.5950   39.5620    9.1720 C   0  0  0  0  0  0  0  0  0  0  0  0
   24.4930   39.3370    7.9920 C   0  0  2  0  0  0  0  0  0  0  0  0
   25.5210   40.4560    7.8750 C   0  0  2  0  0  0  0  0  0  0  0  0
   26.8850   39.8090    7.6400 C   0  0  2  0  0  0  0  0  0  0  0  0
   27.8200   38.3650    6.0540 C   0  0  2  0  0  0  0  0  0  0  0  0
   28.1670   37.3110    7.0580 C   0  0  0  0  0  0  0  0  0  0  0  0
   26.8600   39.2470    6.4260 O   0  0  0  0  0  0  0  0  0  0  0  0
   27.6070   37.5310    8.4230 C   0  0  1  0  0  0  0  0  0  0  0  0
   27.3200   38.9480    8.7920 C   0  0  1  0  0  0  0  0  0  0  0  0
   27.3410   37.7230    4.9080 O   0  0  0  0  0  0  0  0  0  0  0  0
   28.0670   37.3720    4.3380 H   0  0  0  0  0  0  0  0  0  0  0  0
   29.0020   39.1390    5.6210 C   0  0  0  0  0  0  0  0  0  0  0  0
   28.8560   40.1320    4.8780 O   0  0  0  0  0  0  0  0  0  0  0  0
   30.3080   38.8320    5.9920 O   0  0  0  0  0  0  0  0  0  0  0  0
   31.0200   39.5780    6.0440 H   0  0  0  0  0  0  0  0  0  0  0  0
   26.4520   36.7420    8.5280 O   0  0  0  0  0  0  0  0  0  0  0  0
   26.3710   36.1540    7.7400 H   0  0  0  0  0  0  0  0  0  0  0  0
   28.3380   39.5860    9.5810 N   0  0  0  0  0  0  0  0  0  0  0  0
   28.1240   40.1080   10.8780 C   0  0  0  0  0  0  0  0  0  0  0  0
   29.3140   39.6850    9.1940 H   0  0  0  0  0  0  0  0  0  0  0  0
   29.1550   40.7690   11.7070 C   0  0  0  0  0  0  0  0  0  0  0  0
   26.9580   39.9790   11.3230 O   0  0  0  0  0  0  0  0  0  0  0  0
   25.5440   41.2660    8.9980 O   0  0  0  0  0  0  0  0  0  0  0  0
   24.6210   41.3120    9.3590 H   0  0  0  0  0  0  0  0  0  0  0  0
   23.8180   39.2600    6.8070 O   0  0  0  0  0  0  0  0  0  0  0  0
   23.8060   38.3150    6.4760 H   0  0  0  0  0  0  0  0  0  0  0  0
   24.1190   39.0250   10.3810 N   0  0  0  0  0  0  0  0  0  0  0  0
   24.1630   37.6600   10.7120 C   0  0  0  0  0  0  0  0  0  0  0  0
   24.5150   39.6980   11.1100 H   0  0  0  0  0  0  0  0  0  0  0  0
   23.7270   36.7690    9.9590 O   0  0  0  0  0  0  0  0  0  0  0  0
   24.7210   37.2700   11.9450 O   0  0  0  0  0  0  0  0  0  0  0  0
   24.8280   35.8900   12.2300 C   0  0  0  0  0  0  0  0  0  0  0  0
   26.2000   35.5440   12.6010 C   0  0  0  0  0  0  0  0  0  0  0  0
   27.3400   36.2400   12.2180 C   0  0  0  0  0  0  0  0  0  0  0  0
   26.6050   34.5230   13.3550 N   0  0  0  0  0  0  0  0  0  0  0  0
   28.3940   35.6130   12.7540 N   0  0  0  0  0  0  0  0  0  0  0  0
   27.9220   34.5880   13.4300 N   0  0  0  0  0  0  0  0  0  0  0  0
   29.7870   35.9650   12.6380 C   0  0  1  0  0  0  0  0  0  0  0  0
   29.9580   37.4290   13.0420 C   0  0  0  0  0  0  0  0  0  0  0  0
   30.5420   35.1190   13.6410 C   0  0  0  0  0  0  0  0  0  0  0  0
   31.4280   37.7230   13.1630 C   0  0  1  0  0  0  0  0  0  0  0  0
   31.9290   35.6390   13.8330 C   0  0  2  0  0  0  0  0  0  0  0  0
   31.9880   36.9930   14.2840 N   0  0  0  0  0  0  0  0  0  0  0  0
   32.1800   37.1150   11.9930 C   0  0  0  0  0  0  0  0  0  0  0  0
   32.5660   35.7380   12.4410 C   0  0  0  0  0  0  0  0  0  0  0  0
   31.2900   37.2320   15.5140 C   0  0  0  0  0  0  0  0  0  0  0  0
   29.8670   25.5550   16.9770 C   0  0  0  0  0  0  0  0  0  0  0  0
   28.3450   25.7220   17.0260 C   0  0  0  0  0  0  0  0  0  0  0  0
   27.6000   24.4100   16.8330 C   0  0  0  0  0  0  0  0  0  0  0  0
   26.6520   24.1250   17.9640 C   0  0  0  0  0  0  0  0  0  0  0  0
   25.7330   22.9700   17.5800 C   0  0  0  0  0  0  0  0  0  0  0  0
   24.4270   23.4830   17.1030 N   0  0  0  0  0  0  0  0  0  0  0  0
  1 27  1  0  0  0  0
  2  1  1  1  0  0  0
  3  2  1  0  0  0  0
  3 23  1  1  0  0  0
  4  3  1  1  0  0  0
  4  9  1  0  0  0  0
  5 10  1  6  0  0  0
  5  7  1  0  0  0  0
  5  6  1  0  0  0  0
  6  8  1  0  0  0  0
  7  4  1  0  0  0  0
  8 16  1  6  0  0  0
  8  9  1  0  0  0  0
  9 18  1  6  0  0  0
 11 10  1  0  0  0  0
 12 14  1  0  0  0  0
 12  5  1  0  0  0  0
 13 12  2  0  0  0  0
 14 15  1  0  0  0  0
 17 16  1  0  0  0  0
 18 19  1  0  0  0  0
 19 22  2  0  0  0  0
 19 21  1  0  0  0  0
 20 18  1  0  0  0  0
 23 24  1  0  0  0  0
 25  2  1  0  0  0  0
 26 25  1  0  0  0  0
 27 28  1  0  0  0  0
 27 29  1  0  0  0  0
 28 31  1  0  0  0  0
 30 28  2  0  0  0  0
 31 32  1  0  0  0  0
 32 33  1  0  0  0  0
 33 35  1  0  0  0  0
 34 33  2  0  0  0  0
 34 36  1  0  0  0  0
 35 37  2  0  0  0  0
 36 37  1  0  0  0  0
 38 36  1  1  0  0  0
 38 39  1  0  0  0  0
 38 40  1  0  0  0  0
 39 41  1  0  0  0  0
 40 42  1  0  0  0  0
 41 44  1  6  0  0  0
 41 43  1  0  0  0  0
 42 45  1  6  0  0  0
 42 43  1  0  0  0  0
 43 46  1  0  0  0  0
 44 45  1  0  0  0  0
 47 48  1  0  0  0  0
 49 48  1  0  0  0  0
 49 50  1  0  0  0  0
 51 50  1  0  0  0  0
 52 51  1  0  0  0  0
M  END
>  <REMARK>
 VINA RESULT:    -5.221      7.298     12.000
 INTER + INTRA:         -14.538
 INTER:                  -7.998
 INTRA:                  -6.540
 UNBOUND:                -5.502
 SMILES CC(=O)N[C@@H]1[C@@H](O)C[C@](O)(C(=O)O)O[C@H]1C(O)[C@H](O)CNC(=O)OCc1cn([C@@H]2C[C@H]3CC[C@@H](C2)N3C)nn1
 SMILES IDX 20 1 18 2 16 3 15 4 9 5 8 6 14 7 6 8 5 9 10 10 11 12 12 13
 SMILES IDX 13 14 7 16 4 18 2 19 1 21 3 22 17 23 19 25 21 27 22 28 23 30
 SMILES IDX 24 31 25 32 26 33 27 34 39 35 28 36 38 37 29 38 35 39 30 40
 SMILES IDX 34 41 31 42 36 43 33 44 32 45 37 46
 H PARENT 10 11 13 15 7 17 4 20 17 24 19 26 21 29
 Flexibility Score: inf
  4 active torsions:
  status: ('A' for Active; 'I' for Inactive)
    1  A    between atoms: CA   and  CB  
    2  A    between atoms: CB   and  CG  
    3  A    between atoms: CG   and  CD  
    4  A    between atoms: CD   and  CE  

>  <TORSDO>
F 15

>  <BEGIN_>
RES LYS A 131

$$$$
ligand_87_pose_11_2HRL.pdbqt
 OpenBabel07062320523D

  6  5  0  0  0  0  0  0  0  0999 V2000
   33.1930   34.6630    9.2900 C   0  0  0  0  0  0  0  0  0  0  0  0
   32.0600   35.3600   10.0340 C   0  0  0  0  0  0  0  0  0  0  0  0
   30.7590   35.3760    9.2730 C   0  0  0  0  0  0  0  0  0  0  0  0
   30.0420   34.0420    9.4080 C   0  0  0  0  0  0  0  0  0  0  0  0
   28.6710   34.1060    8.7630 C   0  0  0  0  0  0  0  0  0  0  0  0
   27.6080   33.6890    9.7200 N   0  0  0  0  0  0  0  0  0  0  0  0
  1  2  1  0  0  0  0
  3  4  1  0  0  0  0
  3  2  1  0  0  0  0
  5  4  1  0  0  0  0
  5  6  1  0  0  0  0
M  END
>  <EGIN_R>
ES LYS A 135

>  <REMARK>
  4 active torsions:
  status: ('A' for Active; 'I' for Inactive)
    5  A    between atoms: CA   and  CB  
    6  A    between atoms: CB   and  CG  
    7  A    between atoms: CG   and  CD  
    8  A    between atoms: CD   and  CE  

$$$$
