ligand_35_pose_15_2HRL.pdbqt
 OpenBabel07062320523D

 49 49  0  0  1  0  0  0  0  0999 V2000
   25.3260   39.8860    6.0270 N   0  0  0  0  0  0  0  0  0  0  0  0
   25.5580   41.0790    5.3050 C   0  0  0  0  0  0  0  0  0  0  0  0
   25.4630   42.2090    5.8480 O   0  0  0  0  0  0  0  0  0  0  0  0
   25.4160   38.9780    5.5320 H   0  0  0  0  0  0  0  0  0  0  0  0
   24.9710   39.8940    7.4160 C   0  0  0  0  0  0  0  0  0  0  0  0
   25.3090   38.5780    8.1250 C   0  0  2  0  0  0  0  0  0  0  0  0
   26.7750   38.3610    7.9800 C   0  0  2  0  0  0  0  0  0  0  0  0
   27.4640   37.6760    9.1110 C   0  0  2  0  0  0  0  0  0  0  0  0
   28.6910   36.1100    7.8880 C   0  0  2  0  0  0  0  0  0  0  0  0
   27.4690   35.2810    7.8850 C   0  0  0  0  0  0  0  0  0  0  0  0
   28.7000   37.2510    8.6470 O   0  0  0  0  0  0  0  0  0  0  0  0
   26.6090   35.3250    9.0990 C   0  0  1  0  0  0  0  0  0  0  0  0
   26.7140   36.6280    9.8390 C   0  0  1  0  0  0  0  0  0  0  0  0
   28.8700   36.5530    6.5500 O   0  0  0  0  0  0  0  0  0  0  0  0
   29.3000   37.4330    6.5950 H   0  0  0  0  0  0  0  0  0  0  0  0
   29.8690   35.2530    8.1950 C   0  0  0  0  0  0  0  0  0  0  0  0
   29.7550   34.0150    8.4100 O   0  0  0  0  0  0  0  0  0  0  0  0
   31.1420   35.7910    8.2560 O   0  0  0  0  0  0  0  0  0  0  0  0
   31.6230   35.9970    9.1250 H   0  0  0  0  0  0  0  0  0  0  0  0
   25.2880   35.0710    8.6840 O   0  0  0  0  0  0  0  0  0  0  0  0
   24.7670   34.9250    9.5110 H   0  0  0  0  0  0  0  0  0  0  0  0
   27.4530   36.3880   11.0960 N   0  0  0  0  0  0  0  0  0  0  0  0
   27.0470   36.9890   12.3080 C   0  0  0  0  0  0  0  0  0  0  0  0
   28.2890   35.7780   11.1340 H   0  0  0  0  0  0  0  0  0  0  0  0
   27.7530   36.7790   13.5860 C   0  0  0  0  0  0  0  0  0  0  0  0
   26.0250   37.7510   12.3260 O   0  0  0  0  0  0  0  0  0  0  0  0
   27.3410   39.6770    7.9590 O   0  0  0  0  0  0  0  0  0  0  0  0
   28.0370   39.6520    8.6620 H   0  0  0  0  0  0  0  0  0  0  0  0
   24.5730   37.6070    7.4580 O   0  0  0  0  0  0  0  0  0  0  0  0
   24.2390   38.0180    6.6200 H   0  0  0  0  0  0  0  0  0  0  0  0
   25.9070   41.0430    3.9420 O   0  0  0  0  0  0  0  0  0  0  0  0
   27.2380   41.2960    3.5300 C   0  0  0  0  0  0  0  0  0  0  0  0
   28.2150   40.6990    4.4760 C   0  0  0  0  0  0  0  0  0  0  0  0
   29.2590   41.3710    5.1170 C   0  0  0  0  0  0  0  0  0  0  0  0
   28.3120   39.4250    4.9140 N   0  0  0  0  0  0  0  0  0  0  0  0
   29.9210   40.5050    5.8890 N   0  0  0  0  0  0  0  0  0  0  0  0
   29.3470   39.3360    5.7620 N   0  0  0  0  0  0  0  0  0  0  0  0
   31.0850   40.7910    6.7350 C   0  0  1  0  0  0  0  0  0  0  0  0
   30.6310   41.4470    8.0290 C   0  0  0  0  0  0  0  0  0  0  0  0
   31.8650   39.5870    7.0180 C   0  0  0  0  0  0  0  0  0  0  0  0
   33.0830   39.5500    6.7330 O   0  0  0  0  0  0  0  0  0  0  0  0
   31.3320   38.4380    7.5980 O   0  0  0  0  0  0  0  0  0  0  0  0
   31.4680   38.2370    8.5830 H   0  0  0  0  0  0  0  0  0  0  0  0
   29.8670   25.5550   16.9770 C   0  0  0  0  0  0  0  0  0  0  0  0
   28.3450   25.7220   17.0260 C   0  0  0  0  0  0  0  0  0  0  0  0
   27.6010   24.4030   16.8850 C   0  0  0  0  0  0  0  0  0  0  0  0
   26.1840   24.4970   17.3780 C   0  0  0  0  0  0  0  0  0  0  0  0
   25.8300   23.2320   18.1540 C   0  0  0  0  0  0  0  0  0  0  0  0
   25.4180   23.5690   19.5370 N   0  0  0  0  0  0  0  0  0  0  0  0
  1  5  1  0  0  0  0
  2  3  2  0  0  0  0
  2  1  1  0  0  0  0
  4  1  1  0  0  0  0
  6  5  1  6  0  0  0
  7 27  1  1  0  0  0
  7  6  1  0  0  0  0
  8  7  1  6  0  0  0
  8 13  1  0  0  0  0
  9 14  1  6  0  0  0
  9 16  1  0  0  0  0
  9 11  1  0  0  0  0
 10  9  1  0  0  0  0
 10 12  1  0  0  0  0
 11  8  1  0  0  0  0
 12 20  1  6  0  0  0
 12 13  1  0  0  0  0
 13 22  1  1  0  0  0
 14 15  1  0  0  0  0
 16 18  1  0  0  0  0
 16 17  2  0  0  0  0
 18 19  1  0  0  0  0
 20 21  1  0  0  0  0
 22 24  1  0  0  0  0
 22 23  1  0  0  0  0
 23 26  2  0  0  0  0
 23 25  1  0  0  0  0
 27 28  1  0  0  0  0
 29  6  1  0  0  0  0
 30 29  1  0  0  0  0
 31  2  1  0  0  0  0
 32 31  1  0  0  0  0
 32 33  1  0  0  0  0
 33 35  1  0  0  0  0
 33 34  2  0  0  0  0
 34 36  1  0  0  0  0
 35 37  2  0  0  0  0
 36 38  1  0  0  0  0
 37 36  1  0  0  0  0
 38 40  1  0  0  0  0
 38 39  1  1  0  0  0
 40 42  1  0  0  0  0
 41 40  2  0  0  0  0
 42 43  1  0  0  0  0
 44 45  1  0  0  0  0
 46 45  1  0  0  0  0
 46 47  1  0  0  0  0
 47 48  1  0  0  0  0
 48 49  1  0  0  0  0
M  END
>  <REMARK>
 VINA RESULT:    -4.897      5.796     11.744
 INTER + INTRA:         -13.629
 INTER:                  -7.945
 INTRA:                  -5.684
 UNBOUND:                -4.724
 SMILES CC(=O)N[C@@H]1[C@@H](O)C[C@](O)(C(=O)O)O[C@H]1C(O)[C@H](O)CNC(=O)OCc1cn([C@@H](C)C(=O)O)nn1
 SMILES IDX 21 1 22 2 23 3 20 5 18 6 16 7 15 8 9 9 8 10 14 11 6 12 5 13
 SMILES IDX 10 14 11 16 12 17 13 18 7 20 4 22 2 23 1 25 3 26 17 27 19 29
 SMILES IDX 24 31 25 32 26 33 27 34 35 35 28 36 34 37 29 38 30 39 31 40
 SMILES IDX 32 41 33 42
 H PARENT 21 4 10 15 13 19 7 21 4 24 17 28 19 30 33 43
 Flexibility Score: inf
  4 active torsions:
  status: ('A' for Active; 'I' for Inactive)
    1  A    between atoms: CA   and  CB  
    2  A    between atoms: CB   and  CG  
    3  A    between atoms: CG   and  CD  
    4  A    between atoms: CD   and  CE  

>  <TORSDO>
F 17

>  <BEGIN_>
RES LYS A 131

$$$$
ligand_35_pose_15_2HRL.pdbqt
 OpenBabel07062320523D

  6  5  0  0  0  0  0  0  0  0999 V2000
   33.1930   34.6630    9.2900 C   0  0  0  0  0  0  0  0  0  0  0  0
   32.0600   35.3600   10.0340 C   0  0  0  0  0  0  0  0  0  0  0  0
   32.3880   35.6770   11.4700 C   0  0  0  0  0  0  0  0  0  0  0  0
   32.1770   37.1560   11.7550 C   0  0  0  0  0  0  0  0  0  0  0  0
   31.5040   37.3490   13.1000 C   0  0  0  0  0  0  0  0  0  0  0  0
   31.3380   36.0490   13.8080 N   0  0  0  0  0  0  0  0  0  0  0  0
  1  2  1  0  0  0  0
  2  3  1  0  0  0  0
  3  4  1  0  0  0  0
  4  5  1  0  0  0  0
  5  6  1  0  0  0  0
M  END
>  <EGIN_R>
ES LYS A 135

>  <REMARK>
  4 active torsions:
  status: ('A' for Active; 'I' for Inactive)
    5  A    between atoms: CA   and  CB  
    6  A    between atoms: CB   and  CG  
    7  A    between atoms: CG   and  CD  
    8  A    between atoms: CD   and  CE  

$$$$
