ligand_34_pose_16_2HRL.pdbqt
 OpenBabel07062320523D

 69 73  0  0  1  0  0  0  0  0999 V2000
   28.5420   30.9590   18.0080 N   0  0  0  0  0  0  0  0  0  0  0  0
   28.1210   29.9060   18.8910 C   0  0  0  0  0  0  0  0  0  0  0  0
   29.0090   29.3910   19.6230 O   0  0  0  0  0  0  0  0  0  0  0  0
   27.8540   31.4180   17.3830 H   0  0  0  0  0  0  0  0  0  0  0  0
   29.9160   31.3970   17.9710 C   0  0  0  0  0  0  0  0  0  0  0  0
   30.4520   31.2150   16.5890 C   0  0  2  0  0  0  0  0  0  0  0  0
   31.1530   32.4730   16.0780 C   0  0  2  0  0  0  0  0  0  0  0  0
   30.3490   33.7120   16.4390 C   0  0  2  0  0  0  0  0  0  0  0  0
   28.3100   34.0660   15.3690 C   0  0  2  0  0  0  0  0  0  0  0  0
   28.3670   35.5560   15.6220 C   0  0  0  0  0  0  0  0  0  0  0  0
   29.0240   33.3970   16.3310 O   0  0  0  0  0  0  0  0  0  0  0  0
   29.7730   36.0300   15.6870 C   0  0  1  0  0  0  0  0  0  0  0  0
   30.7920   34.9170   15.6860 C   0  0  1  0  0  0  0  0  0  0  0  0
   28.7350   33.8430   14.0840 O   0  0  0  0  0  0  0  0  0  0  0  0
   28.4660   34.5250   13.4430 H   0  0  0  0  0  0  0  0  0  0  0  0
   26.8890   33.6630   15.4990 C   0  0  0  0  0  0  0  0  0  0  0  0
   26.3790   33.5200   16.6380 O   0  0  0  0  0  0  0  0  0  0  0  0
   26.0680   33.4280   14.4080 O   0  0  0  0  0  0  0  0  0  0  0  0
   25.4060   32.6380   14.3910 H   0  0  0  0  0  0  0  0  0  0  0  0
   30.0830   36.8950   14.6410 O   0  0  0  0  0  0  0  0  0  0  0  0
   30.5650   37.7030   14.9260 H   0  0  0  0  0  0  0  0  0  0  0  0
   32.0030   35.4810   16.3000 N   0  0  0  0  0  0  0  0  0  0  0  0
   33.2830   35.3840   15.7260 C   0  0  0  0  0  0  0  0  0  0  0  0
   31.8800   35.9770   17.2120 H   0  0  0  0  0  0  0  0  0  0  0  0
   34.4550   35.9790   16.4080 C   0  0  0  0  0  0  0  0  0  0  0  0
   33.3670   34.7690   14.6130 O   0  0  0  0  0  0  0  0  0  0  0  0
   31.2430   32.3210   14.6890 O   0  0  0  0  0  0  0  0  0  0  0  0
   31.5660   33.1920   14.3330 H   0  0  0  0  0  0  0  0  0  0  0  0
   29.4650   30.8030   15.6970 O   0  0  0  0  0  0  0  0  0  0  0  0
   29.1650   29.8790   15.8660 H   0  0  0  0  0  0  0  0  0  0  0  0
   26.8360   29.4590   18.9630 O   0  0  0  0  0  0  0  0  0  0  0  0
   26.3380   28.4890   18.0720 C   0  0  0  0  0  0  0  0  0  0  0  0
   25.7710   29.1710   16.8920 C   0  0  0  0  0  0  0  0  0  0  0  0
   24.4560   29.0910   16.4260 C   0  0  0  0  0  0  0  0  0  0  0  0
   26.3990   29.9870   16.0350 N   0  0  0  0  0  0  0  0  0  0  0  0
   24.3420   29.8530   15.3230 N   0  0  0  0  0  0  0  0  0  0  0  0
   25.5300   30.3790   15.1130 N   0  0  0  0  0  0  0  0  0  0  0  0
   23.1370   29.9970   14.5870 C   0  0  0  0  0  0  0  0  0  0  0  0
   21.8900   30.0530   15.1330 C   0  0  0  0  0  0  0  0  0  0  0  0
   23.2320   30.0870   13.1960 C   0  0  0  0  0  0  0  0  0  0  0  0
   20.7340   30.1930   14.3700 C   0  0  0  0  0  0  0  0  0  0  0  0
   22.1110   30.2260   12.4250 C   0  0  0  0  0  0  0  0  0  0  0  0
   20.8500   30.2790   13.0170 C   0  0  0  0  0  0  0  0  0  0  0  0
   19.4130   30.2490   14.9910 C   0  0  0  0  0  0  0  0  0  0  0  0
   18.9070   31.3550   15.3630 O   0  0  0  0  0  0  0  0  0  0  0  0
   18.6880   29.1040   15.1860 O   0  0  0  0  0  0  0  0  0  0  0  0
   19.7210   30.4270   12.1120 C   0  0  0  0  0  0  0  0  0  0  0  0
   19.0280   29.3750   11.5540 C   0  0  0  0  0  0  0  0  0  0  0  0
   19.3060   31.7070   11.7830 C   0  0  0  0  0  0  0  0  0  0  0  0
   19.4130   28.0830   11.8570 C   0  0  0  0  0  0  0  0  0  0  0  0
   17.9540   29.5810   10.6960 C   0  0  0  0  0  0  0  0  0  0  0  0
   18.1770   31.8700   10.8810 C   0  0  0  0  0  0  0  0  0  0  0  0
   19.9310   32.8260   12.2860 C   0  0  0  0  0  0  0  0  0  0  0  0
   18.7450   26.9920   11.3210 C   0  0  0  0  0  0  0  0  0  0  0  0
   17.2730   28.5190   10.1480 C   0  0  0  0  0  0  0  0  0  0  0  0
   17.5660   30.7950   10.3890 O   0  0  0  0  0  0  0  0  0  0  0  0
   17.7600   33.1260   10.5520 C   0  0  0  0  0  0  0  0  0  0  0  0
   19.4760   34.0630   11.9260 C   0  0  0  0  0  0  0  0  0  0  0  0
   17.6830   27.2280   10.4720 C   0  0  0  0  0  0  0  0  0  0  0  0
   18.4000   34.2320   11.0680 C   0  0  0  0  0  0  0  0  0  0  0  0
   18.0190   35.3940   10.7670 O   0  0  0  0  0  0  0  0  0  0  0  0
   17.0120   26.1450    9.9310 O   0  0  0  0  0  0  0  0  0  0  0  0
   16.3520   26.2090    9.1780 H   0  0  0  0  0  0  0  0  0  0  0  0
   29.8670   25.5550   16.9770 C   0  0  0  0  0  0  0  0  0  0  0  0
   28.3450   25.7220   17.0260 C   0  0  0  0  0  0  0  0  0  0  0  0
   27.6040   24.3940   17.0160 C   0  0  0  0  0  0  0  0  0  0  0  0
   26.1120   24.5770   17.0060 C   0  0  0  0  0  0  0  0  0  0  0  0
   25.5990   24.6480   18.4410 C   0  0  0  0  0  0  0  0  0  0  0  0
   25.8730   23.3780   19.1530 N   0  0  0  0  0  0  0  0  0  0  0  0
  1  2  1  0  0  0  0
  2 31  1  0  0  0  0
  2  3  2  0  0  0  0
  4  1  1  0  0  0  0
  5  1  1  0  0  0  0
  6  5  1  1  0  0  0
  7 27  1  6  0  0  0
  7  6  1  0  0  0  0
  8  7  1  6  0  0  0
  9 14  1  6  0  0  0
  9 16  1  0  0  0  0
  9 10  1  0  0  0  0
  9 11  1  0  0  0  0
 10 12  1  0  0  0  0
 11  8  1  0  0  0  0
 12 20  1  6  0  0  0
 13 12  1  0  0  0  0
 13 22  1  1  0  0  0
 13  8  1  0  0  0  0
 15 14  1  0  0  0  0
 16 17  2  0  0  0  0
 18 16  1  0  0  0  0
 19 18  1  0  0  0  0
 20 21  1  0  0  0  0
 22 24  1  0  0  0  0
 23 22  1  0  0  0  0
 23 25  1  0  0  0  0
 26 23  2  0  0  0  0
 28 27  1  0  0  0  0
 29 30  1  0  0  0  0
 29  6  1  0  0  0  0
 32 31  1  0  0  0  0
 33 32  1  0  0  0  0
 34 33  2  0  0  0  0
 35 33  1  0  0  0  0
 36 34  1  0  0  0  0
 37 36  1  0  0  0  0
 37 35  2  0  0  0  0
 38 39  1  0  0  0  0
 38 36  1  0  0  0  0
 40 38  2  0  0  0  0
 41 44  1  0  0  0  0
 41 39  2  0  0  0  0
 42 43  2  0  0  0  0
 42 40  1  0  0  0  0
 43 41  1  0  0  0  0
 44 46  2  0  0  0  0
 44 45  1  0  0  0  0
 47 43  1  0  0  0  0
 48 50  2  0  0  0  0
 48 47  1  0  0  0  0
 49 47  2  0  0  0  0
 49 53  1  0  0  0  0
 51 48  1  0  0  0  0
 52 49  1  0  0  0  0
 54 50  1  0  0  0  0
 55 59  1  0  0  0  0
 55 51  2  0  0  0  0
 56 51  1  0  0  0  0
 56 52  1  0  0  0  0
 57 52  2  0  0  0  0
 57 60  1  0  0  0  0
 58 53  2  0  0  0  0
 59 54  2  0  0  0  0
 60 58  1  0  0  0  0
 61 60  2  0  0  0  0
 62 59  1  0  0  0  0
 63 62  1  0  0  0  0
 64 65  1  0  0  0  0
 66 65  1  0  0  0  0
 67 66  1  0  0  0  0
 67 68  1  0  0  0  0
 68 69  1  0  0  0  0
M  END
>  <REMARK>
 VINA RESULT:    -5.341      2.813      6.344
 INTER + INTRA:         -17.742
 INTER:                 -11.238
 INTRA:                  -6.505
 UNBOUND:                -7.717
 SMILES CC(=O)N[C@@H]1[C@@H](O)C[C@](O)(C(=O)O)O[C@H]1C(O)[C@H](O)CNC(=O)OCc1cn(-c2ccc(-c3c4ccc(=O)cc-4oc4cc(O)ccc34)c(C(=O)[O-])c2)nn1
 SMILES IDX 21 1 22 2 23 3 20 5 18 6 16 7 15 8 9 9 8 10 14 11 6 12 5 13
 SMILES IDX 10 14 11 16 12 17 13 18 7 20 4 22 2 23 1 25 3 26 17 27 19 29
 SMILES IDX 24 31 25 32 26 33 27 34 55 35 28 36 54 37 29 38 53 39 30 40
 SMILES IDX 49 41 31 42 32 43 50 44 51 45 52 46 33 47 48 48 34 49 47 50
 SMILES IDX 42 51 40 52 35 53 46 54 43 55 41 56 39 57 36 58 44 59 37 60
 SMILES IDX 38 61 45 62
 H PARENT 21 4 10 15 13 19 7 21 4 24 17 28 19 30 45 63
 Flexibility Score: inf
  4 active torsions:
  status: ('A' for Active; 'I' for Inactive)
    1  A    between atoms: CA   and  CB  
    2  A    between atoms: CB   and  CG  
    3  A    between atoms: CG   and  CD  
    4  A    between atoms: CD   and  CE  

>  <TORSDO>
F 18

>  <BEGIN_>
RES LYS A 131

$$$$
ligand_34_pose_16_2HRL.pdbqt
 OpenBabel07062320523D

  6  5  0  0  0  0  0  0  0  0999 V2000
   33.1930   34.6630    9.2900 C   0  0  0  0  0  0  0  0  0  0  0  0
   32.0600   35.3600   10.0340 C   0  0  0  0  0  0  0  0  0  0  0  0
   30.7360   34.6500    9.9170 C   0  0  0  0  0  0  0  0  0  0  0  0
   30.3300   34.5080    8.4590 C   0  0  0  0  0  0  0  0  0  0  0  0
   28.8200   34.5290    8.3220 C   0  0  0  0  0  0  0  0  0  0  0  0
   28.1680   33.8050    9.4480 N   0  0  0  0  0  0  0  0  0  0  0  0
  1  2  1  0  0  0  0
  3  2  1  0  0  0  0
  4  3  1  0  0  0  0
  5  4  1  0  0  0  0
  5  6  1  0  0  0  0
M  END
>  <EGIN_R>
ES LYS A 135

>  <REMARK>
  4 active torsions:
  status: ('A' for Active; 'I' for Inactive)
    5  A    between atoms: CA   and  CB  
    6  A    between atoms: CB   and  CG  
    7  A    between atoms: CG   and  CD  
    8  A    between atoms: CD   and  CE  

$$$$
