ligand_11_pose_14_2HRL.pdbqt
 OpenBabel07062320523D

 54 54  0  0  1  0  0  0  0  0999 V2000
   25.7600   31.9160   18.1740 O   0  0  0  0  0  0  0  0  0  0  0  0
   26.8260   31.7350   19.0650 C   0  0  0  0  0  0  0  0  0  0  0  0
   27.8170   32.7060   19.2660 N   0  0  0  0  0  0  0  0  0  0  0  0
   27.7120   33.5990   18.6790 H   0  0  0  0  0  0  0  0  0  0  0  0
   26.8560   30.6580   19.6820 O   0  0  0  0  0  0  0  0  0  0  0  0
   28.9380   32.6280   20.1580 C   0  0  0  0  0  0  0  0  0  0  0  0
   30.1900   32.3060   19.4410 C   0  0  2  0  0  0  0  0  0  0  0  0
   30.4760   30.8170   19.3700 C   0  0  1  0  0  0  0  0  0  0  0  0
   30.1980   30.1580   20.7240 C   0  0  2  0  0  0  0  0  0  0  0  0
   32.1700   30.2760   21.9800 C   0  0  2  0  0  0  0  0  0  0  0  0
   32.6160   29.1140   21.1370 C   0  0  0  0  0  0  0  0  0  0  0  0
   30.9000   30.7050   21.7470 O   0  0  0  0  0  0  0  0  0  0  0  0
   31.5820   28.0810   20.8690 C   0  0  1  0  0  0  0  0  0  0  0  0
   30.2210   28.6620   20.6180 C   0  0  1  0  0  0  0  0  0  0  0  0
   33.0380   31.3260   21.6770 O   0  0  0  0  0  0  0  0  0  0  0  0
   32.8650   32.1160   22.2300 H   0  0  0  0  0  0  0  0  0  0  0  0
   32.3470   29.9510   23.4170 C   0  0  0  0  0  0  0  0  0  0  0  0
   33.4520   30.1530   23.9740 O   0  0  0  0  0  0  0  0  0  0  0  0
   31.3170   29.4190   24.1870 O   0  0  0  0  0  0  0  0  0  0  0  0
   31.0010   28.4840   23.9270 H   0  0  0  0  0  0  0  0  0  0  0  0
   31.9780   27.3590   19.7450 O   0  0  0  0  0  0  0  0  0  0  0  0
   32.7240   26.7380   19.9610 H   0  0  0  0  0  0  0  0  0  0  0  0
   29.2180   28.1360   21.4970 N   0  0  0  0  0  0  0  0  0  0  0  0
   28.0610   27.5230   20.9550 C   0  0  0  0  0  0  0  0  0  0  0  0
   29.3400   28.2050   22.5500 H   0  0  0  0  0  0  0  0  0  0  0  0
   27.0260   26.9800   21.8580 C   0  0  0  0  0  0  0  0  0  0  0  0
   27.8720   27.4190   19.7120 O   0  0  0  0  0  0  0  0  0  0  0  0
   29.6650   30.2450   18.4090 O   0  0  0  0  0  0  0  0  0  0  0  0
   29.9120   30.6170   17.5250 H   0  0  0  0  0  0  0  0  0  0  0  0
   31.2520   33.0390   19.8590 O   0  0  0  0  0  0  0  0  0  0  0  0
   31.0360   33.8480   20.3750 H   0  0  0  0  0  0  0  0  0  0  0  0
   25.8240   31.3350   16.8740 C   0  0  0  0  0  0  0  0  0  0  0  0
   27.1170   31.5510   16.2380 C   0  0  0  0  0  0  0  0  0  0  0  0
   27.6400   32.7140   15.7410 C   0  0  0  0  0  0  0  0  0  0  0  0
   28.0580   30.6200   16.0190 N   0  0  0  0  0  0  0  0  0  0  0  0
   28.8620   32.4860   15.2390 N   0  0  0  0  0  0  0  0  0  0  0  0
   29.0860   31.1990   15.4250 N   0  0  0  0  0  0  0  0  0  0  0  0
   29.8180   33.3760   14.6050 C   0  0  1  0  0  0  0  0  0  0  0  0
   29.2670   34.7520   14.5180 C   0  0  0  0  0  0  0  0  0  0  0  0
   29.5170   35.4810   13.2520 C   0  0  0  0  0  0  0  0  0  0  0  0
   30.5290   36.5300   13.3630 C   0  0  0  0  0  0  0  0  0  0  0  0
   30.8620   37.2470   12.3560 O   0  0  0  0  0  0  0  0  0  0  0  0
   31.1570   36.7650   14.5880 O   0  0  0  0  0  0  0  0  0  0  0  0
   31.8280   36.0790   14.9050 H   0  0  0  0  0  0  0  0  0  0  0  0
   31.1750   33.2260   15.0990 C   0  0  0  0  0  0  0  0  0  0  0  0
   31.8520   34.1000   15.6390 O   0  0  0  0  0  0  0  0  0  0  0  0
   31.7720   31.9610   14.9390 O   0  0  0  0  0  0  0  0  0  0  0  0
   32.0780   31.4650   15.7590 H   0  0  0  0  0  0  0  0  0  0  0  0
   29.8670   25.5550   16.9770 C   0  0  0  0  0  0  0  0  0  0  0  0
   28.3450   25.7220   17.0260 C   0  0  0  0  0  0  0  0  0  0  0  0
   27.6020   24.3980   16.9400 C   0  0  0  0  0  0  0  0  0  0  0  0
   26.6440   24.2100   18.0830 C   0  0  0  0  0  0  0  0  0  0  0  0
   25.3390   24.9390   17.7790 C   0  0  0  0  0  0  0  0  0  0  0  0
   24.9540   25.8090   18.9150 N   0  0  0  0  0  0  0  0  0  0  0  0
  1  2  1  0  0  0  0
  2  3  1  0  0  0  0
  2  5  2  0  0  0  0
  3  6  1  0  0  0  0
  4  3  1  0  0  0  0
  7 30  1  0  0  0  0
  7  6  1  1  0  0  0
  8 28  1  6  0  0  0
  8  7  1  0  0  0  0
  9  8  1  6  0  0  0
  9 12  1  0  0  0  0
 10 15  1  6  0  0  0
 10 17  1  0  0  0  0
 11 10  1  0  0  0  0
 12 10  1  0  0  0  0
 13 21  1  6  0  0  0
 13 11  1  0  0  0  0
 14  9  1  0  0  0  0
 14 13  1  0  0  0  0
 14 23  1  1  0  0  0
 15 16  1  0  0  0  0
 17 18  2  0  0  0  0
 17 19  1  0  0  0  0
 20 19  1  0  0  0  0
 21 22  1  0  0  0  0
 23 25  1  0  0  0  0
 24 23  1  0  0  0  0
 24 26  1  0  0  0  0
 27 24  2  0  0  0  0
 29 28  1  0  0  0  0
 30 31  1  0  0  0  0
 32  1  1  0  0  0  0
 33 32  1  0  0  0  0
 34 33  2  0  0  0  0
 35 33  1  0  0  0  0
 36 37  1  0  0  0  0
 36 34  1  0  0  0  0
 37 35  2  0  0  0  0
 38 39  1  1  0  0  0
 38 45  1  0  0  0  0
 38 36  1  0  0  0  0
 40 41  1  0  0  0  0
 40 39  1  0  0  0  0
 41 43  1  0  0  0  0
 42 41  2  0  0  0  0
 43 44  1  0  0  0  0
 45 46  2  0  0  0  0
 47 45  1  0  0  0  0
 47 48  1  0  0  0  0
 49 50  1  0  0  0  0
 51 50  1  0  0  0  0
 51 52  1  0  0  0  0
 53 52  1  0  0  0  0
 53 54  1  0  0  0  0
M  END
>  <REMARK>
 VINA RESULT:    -3.866      6.388     11.913
 INTER + INTRA:         -15.260
 INTER:                  -8.409
 INTRA:                  -6.851
 UNBOUND:                -7.438
 SMILES CC(=O)N[C@@H]1[C@@H](O)C[C@](O)(C(=O)O)O[C@H]1C(O)[C@H](O)CNC(=O)OCc1cn([C@@H](CCC(=O)O)C(=O)O)nn1
 SMILES IDX 24 1 22 2 21 3 23 5 20 6 18 7 16 8 15 9 9 10 8 11 14 12 6 13
 SMILES IDX 5 14 10 15 11 17 12 18 13 19 7 21 4 23 2 24 1 26 3 27 17 28
 SMILES IDX 19 30 25 32 26 33 27 34 39 35 28 36 38 37 29 38 30 39 31 40
 SMILES IDX 32 41 33 42 34 43 35 45 36 46 37 47
 H PARENT 21 4 10 16 13 20 7 22 4 25 17 29 19 31 34 44 37 48
 Flexibility Score: inf
  4 active torsions:
  status: ('A' for Active; 'I' for Inactive)
    1  A    between atoms: CA   and  CB  
    2  A    between atoms: CB   and  CG  
    3  A    between atoms: CG   and  CD  
    4  A    between atoms: CD   and  CE  

>  <TORSDO>
F 21

>  <BEGIN_>
RES LYS A 131

$$$$
ligand_11_pose_14_2HRL.pdbqt
 OpenBabel07062320523D

  6  5  0  0  0  0  0  0  0  0999 V2000
   33.1930   34.6630    9.2900 C   0  0  0  0  0  0  0  0  0  0  0  0
   32.0600   35.3600   10.0340 C   0  0  0  0  0  0  0  0  0  0  0  0
   30.8680   35.6670    9.1650 C   0  0  0  0  0  0  0  0  0  0  0  0
   30.3940   34.4150    8.4430 C   0  0  0  0  0  0  0  0  0  0  0  0
   28.8790   34.3780    8.3800 C   0  0  0  0  0  0  0  0  0  0  0  0
   28.3030   33.8390    9.6430 N   0  0  0  0  0  0  0  0  0  0  0  0
  1  2  1  0  0  0  0
  3  2  1  0  0  0  0
  4  3  1  0  0  0  0
  5  4  1  0  0  0  0
  5  6  1  0  0  0  0
M  END
>  <EGIN_R>
ES LYS A 135

>  <REMARK>
  4 active torsions:
  status: ('A' for Active; 'I' for Inactive)
    5  A    between atoms: CA   and  CB  
    6  A    between atoms: CB   and  CG  
    7  A    between atoms: CG   and  CD  
    8  A    between atoms: CD   and  CE  

$$$$
