ligand_58_pose_6_2HRL.pdbqt
 OpenBabel07062320523D

 56 58  0  0  1  0  0  0  0  0999 V2000
   28.7370   30.3120   18.4160 N   0  0  0  0  0  0  0  0  0  0  0  0
   27.9260   29.7830   17.3890 C   0  0  0  0  0  0  0  0  0  0  0  0
   28.3730   29.6830   16.2220 O   0  0  0  0  0  0  0  0  0  0  0  0
   28.3360   30.3840   19.3730 H   0  0  0  0  0  0  0  0  0  0  0  0
   30.0770   30.7430   18.1680 C   0  0  0  0  0  0  0  0  0  0  0  0
   30.0960   32.2700   18.0880 C   0  0  2  0  0  0  0  0  0  0  0  0
   30.4510   32.5970   16.6470 C   0  0  2  0  0  0  0  0  0  0  0  0
   29.3740   33.3110   15.8790 C   0  0  2  0  0  0  0  0  0  0  0  0
   30.6760   34.4370   14.2710 C   0  0  2  0  0  0  0  0  0  0  0  0
   30.4040   35.7670   14.9390 C   0  0  0  0  0  0  0  0  0  0  0  0
   29.8220   33.4320   14.5780 O   0  0  0  0  0  0  0  0  0  0  0  0
   30.0530   35.6310   16.3900 C   0  0  1  0  0  0  0  0  0  0  0  0
   28.9760   34.5930   16.4960 C   0  0  1  0  0  0  0  0  0  0  0  0
   31.9590   34.0680   14.6820 O   0  0  0  0  0  0  0  0  0  0  0  0
   31.9480   34.0660   15.6810 H   0  0  0  0  0  0  0  0  0  0  0  0
   30.7560   34.6650   12.7830 C   0  0  0  0  0  0  0  0  0  0  0  0
   29.7400   34.7950   12.0930 O   0  0  0  0  0  0  0  0  0  0  0  0
   32.0010   34.7290   12.2020 O   0  0  0  0  0  0  0  0  0  0  0  0
   32.0990   35.1710   11.2810 H   0  0  0  0  0  0  0  0  0  0  0  0
   31.1910   35.3470   17.0890 O   0  0  0  0  0  0  0  0  0  0  0  0
   31.8700   34.8950   16.5160 H   0  0  0  0  0  0  0  0  0  0  0  0
   27.7800   35.1510   15.8340 N   0  0  0  0  0  0  0  0  0  0  0  0
   26.8960   36.0220   16.4940 C   0  0  0  0  0  0  0  0  0  0  0  0
   27.5980   34.8780   14.8450 H   0  0  0  0  0  0  0  0  0  0  0  0
   25.7030   36.5610   15.7910 C   0  0  0  0  0  0  0  0  0  0  0  0
   27.1040   36.3580   17.6920 O   0  0  0  0  0  0  0  0  0  0  0  0
   30.6350   31.3060   16.0280 O   0  0  0  0  0  0  0  0  0  0  0  0
   31.0000   30.6690   16.6610 H   0  0  0  0  0  0  0  0  0  0  0  0
   31.0810   32.6690   18.9790 O   0  0  0  0  0  0  0  0  0  0  0  0
   30.8750   32.4510   19.9080 H   0  0  0  0  0  0  0  0  0  0  0  0
   26.6240   29.3590   17.6270 O   0  0  0  0  0  0  0  0  0  0  0  0
   25.6470   30.3140   17.9380 C   0  0  0  0  0  0  0  0  0  0  0  0
   25.5140   31.2570   16.7980 C   0  0  0  0  0  0  0  0  0  0  0  0
   25.0570   30.9170   15.5210 C   0  0  0  0  0  0  0  0  0  0  0  0
   25.7820   32.5710   16.7160 N   0  0  0  0  0  0  0  0  0  0  0  0
   25.0710   32.0080   14.7520 N   0  0  0  0  0  0  0  0  0  0  0  0
   25.5110   32.9960   15.4870 N   0  0  0  0  0  0  0  0  0  0  0  0
   24.6810   32.1230   13.3540 C   0  0  0  0  0  0  0  0  0  0  0  0
   23.6290   31.1660   13.0080 C   0  0  0  0  0  0  0  0  0  0  0  0
   22.2960   31.5570   12.8330 C   0  0  0  0  0  0  0  0  0  0  0  0
   23.9420   29.8340   12.8250 C   0  0  0  0  0  0  0  0  0  0  0  0
   21.3300   30.6360   12.4900 C   0  0  0  0  0  0  0  0  0  0  0  0
   22.9550   28.9320   12.4820 C   0  0  0  0  0  0  0  0  0  0  0  0
   21.6380   29.3030   12.3070 C   0  0  0  0  0  0  0  0  0  0  0  0
   24.4710   33.5060   12.9170 C   0  0  0  0  0  0  0  0  0  0  0  0
   23.3630   34.2380   13.3800 C   0  0  0  0  0  0  0  0  0  0  0  0
   25.3540   34.1110   12.0570 C   0  0  0  0  0  0  0  0  0  0  0  0
   23.1670   35.5350   12.9800 C   0  0  0  0  0  0  0  0  0  0  0  0
   25.1430   35.4340   11.6550 C   0  0  0  0  0  0  0  0  0  0  0  0
   24.0550   36.1380   12.1160 C   0  0  0  0  0  0  0  0  0  0  0  0
   29.8670   25.5550   16.9770 C   0  0  0  0  0  0  0  0  0  0  0  0
   28.3450   25.7220   17.0260 C   0  0  0  0  0  0  0  0  0  0  0  0
   27.6000   24.4100   16.8330 C   0  0  0  0  0  0  0  0  0  0  0  0
   26.2580   24.4150   17.5120 C   0  0  0  0  0  0  0  0  0  0  0  0
   26.1140   25.6850   18.3440 C   0  0  0  0  0  0  0  0  0  0  0  0
   24.9020   26.4370   17.9390 N   0  0  0  0  0  0  0  0  0  0  0  0
  1  4  1  0  0  0  0
  2 31  1  0  0  0  0
  2  1  1  0  0  0  0
  3  2  2  0  0  0  0
  5  1  1  0  0  0  0
  6  5  1  6  0  0  0
  6 29  1  0  0  0  0
  7 27  1  6  0  0  0
  7  6  1  0  0  0  0
  8 13  1  0  0  0  0
  8  7  1  1  0  0  0
  9 16  1  6  0  0  0
  9 11  1  0  0  0  0
  9 14  1  0  0  0  0
  9 10  1  0  0  0  0
 10 12  1  0  0  0  0
 11  8  1  0  0  0  0
 12 13  1  0  0  0  0
 12 20  1  1  0  0  0
 13 22  1  6  0  0  0
 14 15  1  0  0  0  0
 17 16  2  0  0  0  0
 18 16  1  0  0  0  0
 19 18  1  0  0  0  0
 21 20  1  0  0  0  0
 22 23  1  0  0  0  0
 23 26  2  0  0  0  0
 24 22  1  0  0  0  0
 25 23  1  0  0  0  0
 27 28  1  0  0  0  0
 29 30  1  0  0  0  0
 31 32  1  0  0  0  0
 33 32  1  0  0  0  0
 34 33  2  0  0  0  0
 35 33  1  0  0  0  0
 36 37  1  0  0  0  0
 36 34  1  0  0  0  0
 37 35  2  0  0  0  0
 38 36  1  0  0  0  0
 39 38  1  0  0  0  0
 40 39  1  0  0  0  0
 41 39  2  0  0  0  0
 42 40  2  0  0  0  0
 43 41  1  0  0  0  0
 44 43  2  0  0  0  0
 44 42  1  0  0  0  0
 45 38  1  0  0  0  0
 45 46  2  0  0  0  0
 47 45  1  0  0  0  0
 48 46  1  0  0  0  0
 49 47  2  0  0  0  0
 49 50  1  0  0  0  0
 50 48  2  0  0  0  0
 51 52  1  0  0  0  0
 53 52  1  0  0  0  0
 53 54  1  0  0  0  0
 54 55  1  0  0  0  0
 56 55  1  0  0  0  0
M  END
>  <REMARK>
 VINA RESULT:    -5.884      3.234      6.341
 INTER + INTRA:         -16.362
 INTER:                 -10.123
 INTRA:                  -6.239
 UNBOUND:                -5.490
 SMILES CC(=O)N[C@@H]1[C@@H](O)C[C@](O)(C(=O)O)O[C@H]1C(O)[C@H](O)CNC(=O)OCc1cn(C(c2ccccc2)c2ccccc2)nn1
 SMILES IDX 21 1 22 2 23 3 20 5 18 6 16 7 15 8 9 9 8 10 14 11 6 12 5 13
 SMILES IDX 10 14 11 16 12 17 13 18 7 20 4 22 2 23 1 25 3 26 17 27 19 29
 SMILES IDX 24 31 25 32 26 33 27 34 43 35 28 36 42 37 29 38 30 39 31 40
 SMILES IDX 35 41 32 42 34 43 33 44 36 45 37 46 41 47 38 48 40 49 39 50
 H PARENT 21 4 10 15 13 19 7 21 4 24 17 28 19 30
 Flexibility Score: inf
  4 active torsions:
  status: ('A' for Active; 'I' for Inactive)
    1  A    between atoms: CA   and  CB  
    2  A    between atoms: CB   and  CG  
    3  A    between atoms: CG   and  CD  
    4  A    between atoms: CD   and  CE  

>  <TORSDO>
F 17

>  <BEGIN_>
RES LYS A 131

$$$$
ligand_58_pose_6_2HRL.pdbqt
 OpenBabel07062320523D

  6  5  0  0  0  0  0  0  0  0999 V2000
   33.1930   34.6630    9.2900 C   0  0  0  0  0  0  0  0  0  0  0  0
   32.0600   35.3600   10.0340 C   0  0  0  0  0  0  0  0  0  0  0  0
   30.8860   35.7080    9.1550 C   0  0  0  0  0  0  0  0  0  0  0  0
   30.3290   34.4610    8.4860 C   0  0  0  0  0  0  0  0  0  0  0  0
   28.8330   34.5960    8.2720 C   0  0  0  0  0  0  0  0  0  0  0  0
   28.0730   33.8690    9.3260 N   0  0  0  0  0  0  0  0  0  0  0  0
  1  2  1  0  0  0  0
  3  2  1  0  0  0  0
  4  3  1  0  0  0  0
  5  4  1  0  0  0  0
  5  6  1  0  0  0  0
M  END
>  <EGIN_R>
ES LYS A 135

>  <REMARK>
  4 active torsions:
  status: ('A' for Active; 'I' for Inactive)
    5  A    between atoms: CA   and  CB  
    6  A    between atoms: CB   and  CG  
    7  A    between atoms: CG   and  CD  
    8  A    between atoms: CD   and  CE  

$$$$
