ligand_4_pose_8_2HRL.pdbqt
 OpenBabel07062320523D

 52 53  0  0  1  0  0  0  0  0999 V2000
   26.6990   30.7450   19.1550 N   0  0  0  0  0  0  0  0  0  0  0  0
   27.3090   29.7530   18.3640 C   0  0  0  0  0  0  0  0  0  0  0  0
   27.5410   28.6140   18.8180 O   0  0  0  0  0  0  0  0  0  0  0  0
   26.5160   31.6870   18.7130 H   0  0  0  0  0  0  0  0  0  0  0  0
   26.3230   30.5190   20.5070 C   0  0  0  0  0  0  0  0  0  0  0  0
   27.4740   30.6100   21.5080 C   0  0  2  0  0  0  0  0  0  0  0  0
   27.3380   29.3160   22.3140 C   0  0  2  0  0  0  0  0  0  0  0  0
   28.6560   28.6860   22.6350 C   0  0  2  0  0  0  0  0  0  0  0  0
   30.1380   27.5700   21.2450 C   0  0  2  0  0  0  0  0  0  0  0  0
   30.5480   26.6510   22.3400 C   0  0  0  0  0  0  0  0  0  0  0  0
   29.4940   28.7250   21.5730 O   0  0  0  0  0  0  0  0  0  0  0  0
   29.5870   26.5520   23.5050 C   0  0  1  0  0  0  0  0  0  0  0  0
   28.3380   27.2680   23.0850 C   0  0  1  0  0  0  0  0  0  0  0  0
   29.4280   26.8420   20.2550 O   0  0  0  0  0  0  0  0  0  0  0  0
   28.4610   26.9400   20.3210 H   0  0  0  0  0  0  0  0  0  0  0  0
   31.4120   28.0080   20.5660 C   0  0  0  0  0  0  0  0  0  0  0  0
   31.8340   29.1630   20.7910 O   0  0  0  0  0  0  0  0  0  0  0  0
   32.1360   27.1850   19.7140 O   0  0  0  0  0  0  0  0  0  0  0  0
   32.4830   26.2620   19.9640 H   0  0  0  0  0  0  0  0  0  0  0  0
   29.2820   25.1700   23.7060 O   0  0  0  0  0  0  0  0  0  0  0  0
   28.4980   25.0650   24.2940 H   0  0  0  0  0  0  0  0  0  0  0  0
   27.2250   27.2560   23.9520 N   0  0  0  0  0  0  0  0  0  0  0  0
   26.2170   26.2600   23.9750 C   0  0  0  0  0  0  0  0  0  0  0  0
   27.1070   28.0570   24.6610 H   0  0  0  0  0  0  0  0  0  0  0  0
   25.0660   26.2670   24.8860 C   0  0  0  0  0  0  0  0  0  0  0  0
   26.3650   25.3000   23.1050 O   0  0  0  0  0  0  0  0  0  0  0  0
   26.5090   28.4990   21.5390 O   0  0  0  0  0  0  0  0  0  0  0  0
   27.0380   28.2140   20.7480 H   0  0  0  0  0  0  0  0  0  0  0  0
   27.4100   31.6830   22.3360 O   0  0  0  0  0  0  0  0  0  0  0  0
   27.4210   32.5260   21.8880 H   0  0  0  0  0  0  0  0  0  0  0  0
   27.6740   30.0170   17.0420 O   0  0  0  0  0  0  0  0  0  0  0  0
   27.5990   31.3630   16.5960 C   0  0  0  0  0  0  0  0  0  0  0  0
   29.0070   31.8120   16.4530 C   0  0  0  0  0  0  0  0  0  0  0  0
   29.4590   33.0860   16.8210 C   0  0  0  0  0  0  0  0  0  0  0  0
   30.0860   31.1070   16.0790 N   0  0  0  0  0  0  0  0  0  0  0  0
   30.7930   33.0550   16.6480 N   0  0  0  0  0  0  0  0  0  0  0  0
   31.1130   31.9010   16.2230 N   0  0  0  0  0  0  0  0  0  0  0  0
   31.6580   34.1070   17.0330 C   0  0  0  0  0  0  0  0  0  0  0  0
   32.4390   34.7140   16.1260 C   0  0  0  0  0  0  0  0  0  0  0  0
   31.8120   34.3850   18.3990 C   0  0  0  0  0  0  0  0  0  0  0  0
   33.4040   35.6230   16.5610 C   0  0  0  0  0  0  0  0  0  0  0  0
   32.7370   35.2600   18.8360 C   0  0  0  0  0  0  0  0  0  0  0  0
   33.5620   35.9040   17.9250 C   0  0  0  0  0  0  0  0  0  0  0  0
   32.2120   34.5490   14.7040 C   0  0  0  0  0  0  0  0  0  0  0  0
   33.4430   34.8730   13.8720 C   0  0  0  0  0  0  0  0  0  0  0  0
   31.2920   35.7830   14.2920 C   0  0  0  0  0  0  0  0  0  0  0  0
   29.8670   25.5550   16.9770 C   0  0  0  0  0  0  0  0  0  0  0  0
   28.3450   25.7220   17.0260 C   0  0  0  0  0  0  0  0  0  0  0  0
   27.6010   24.4050   16.8670 C   0  0  0  0  0  0  0  0  0  0  0  0
   26.2190   24.4610   17.4560 C   0  0  0  0  0  0  0  0  0  0  0  0
   26.2500   25.2630   18.7540 C   0  0  0  0  0  0  0  0  0  0  0  0
   25.0380   26.1060   18.8720 N   0  0  0  0  0  0  0  0  0  0  0  0
  1  5  1  0  0  0  0
  2  3  2  0  0  0  0
  2  1  1  0  0  0  0
  4  1  1  0  0  0  0
  6  5  1  6  0  0  0
  6  7  1  0  0  0  0
  6 29  1  0  0  0  0
  7 27  1  6  0  0  0
  8  7  1  6  0  0  0
  8 13  1  0  0  0  0
  9 14  1  6  0  0  0
  9 11  1  0  0  0  0
  9 10  1  0  0  0  0
 10 12  1  0  0  0  0
 11  8  1  0  0  0  0
 12 20  1  6  0  0  0
 13 12  1  0  0  0  0
 13 22  1  1  0  0  0
 14 15  1  0  0  0  0
 16 17  2  0  0  0  0
 16  9  1  0  0  0  0
 18 19  1  0  0  0  0
 18 16  1  0  0  0  0
 20 21  1  0  0  0  0
 22 23  1  0  0  0  0
 22 24  1  0  0  0  0
 23 25  1  0  0  0  0
 26 23  2  0  0  0  0
 28 27  1  0  0  0  0
 30 29  1  0  0  0  0
 31  2  1  0  0  0  0
 32 31  1  0  0  0  0
 33 32  1  0  0  0  0
 33 34  2  0  0  0  0
 35 37  2  0  0  0  0
 35 33  1  0  0  0  0
 36 34  1  0  0  0  0
 36 38  1  0  0  0  0
 37 36  1  0  0  0  0
 38 40  2  0  0  0  0
 39 41  2  0  0  0  0
 39 38  1  0  0  0  0
 40 42  1  0  0  0  0
 41 43  1  0  0  0  0
 43 42  2  0  0  0  0
 44 39  1  0  0  0  0
 45 44  1  0  0  0  0
 46 44  1  0  0  0  0
 47 48  1  0  0  0  0
 49 48  1  0  0  0  0
 49 50  1  0  0  0  0
 50 51  1  0  0  0  0
 51 52  1  0  0  0  0
M  END
>  <REMARK>
 VINA RESULT:    -4.222      6.686     13.172
 INTER + INTRA:         -14.792
 INTER:                  -9.204
 INTRA:                  -5.588
 UNBOUND:                -7.237
 SMILES CC(=O)N[C@@H]1[C@@H](O)C[C@](O)(C(=O)O)O[C@H]1C(O)[C@H](O)CNC(=O)OCc1cn(-c2ccccc2C(C)C)nn1
 SMILES IDX 21 1 22 2 23 3 20 5 18 6 16 7 15 8 9 9 8 10 14 11 6 12 5 13
 SMILES IDX 10 14 11 16 12 17 13 18 7 20 4 22 2 23 1 25 3 26 17 27 19 29
 SMILES IDX 24 31 25 32 26 33 27 34 39 35 28 36 38 37 29 38 34 39 30 40
 SMILES IDX 33 41 31 42 32 43 35 44 36 45 37 46
 H PARENT 21 4 10 15 13 19 7 21 4 24 17 28 19 30
 Flexibility Score: inf
  4 active torsions:
  status: ('A' for Active; 'I' for Inactive)
    1  A    between atoms: CA   and  CB  
    2  A    between atoms: CB   and  CG  
    3  A    between atoms: CG   and  CD  
    4  A    between atoms: CD   and  CE  

>  <TORSDO>
F 16

>  <BEGIN_>
RES LYS A 131

$$$$
ligand_4_pose_8_2HRL.pdbqt
 OpenBabel07062320523D

  6  5  0  0  0  0  0  0  0  0999 V2000
   33.1930   34.6630    9.2900 C   0  0  0  0  0  0  0  0  0  0  0  0
   32.0600   35.3600   10.0340 C   0  0  0  0  0  0  0  0  0  0  0  0
   30.8660   35.6630    9.1660 C   0  0  0  0  0  0  0  0  0  0  0  0
   30.3060   34.3860    8.5580 C   0  0  0  0  0  0  0  0  0  0  0  0
   29.0230   33.9820    9.2570 C   0  0  0  0  0  0  0  0  0  0  0  0
   28.3080   35.1710    9.7960 N   0  0  0  0  0  0  0  0  0  0  0  0
  1  2  1  0  0  0  0
  3  2  1  0  0  0  0
  4  3  1  0  0  0  0
  4  5  1  0  0  0  0
  5  6  1  0  0  0  0
M  END
>  <EGIN_R>
ES LYS A 135

>  <REMARK>
  4 active torsions:
  status: ('A' for Active; 'I' for Inactive)
    5  A    between atoms: CA   and  CB  
    6  A    between atoms: CB   and  CG  
    7  A    between atoms: CG   and  CD  
    8  A    between atoms: CD   and  CE  

$$$$
