ligand_41_pose_6_2HRL.pdbqt
 OpenBabel07062320523D

 52 53  0  0  1  0  0  0  0  0999 V2000
   28.5630   31.2650   17.0300 N   0  0  0  0  0  0  0  0  0  0  0  0
   27.5570   30.2500   17.1850 C   0  0  0  0  0  0  0  0  0  0  0  0
   27.6400   29.2050   16.4960 O   0  0  0  0  0  0  0  0  0  0  0  0
   28.4630   32.1120   17.6240 H   0  0  0  0  0  0  0  0  0  0  0  0
   29.6270   31.0790   16.0880 C   0  0  0  0  0  0  0  0  0  0  0  0
   30.3840   32.3020   15.6860 C   0  0  2  0  0  0  0  0  0  0  0  0
   29.6610   33.1850   14.7130 C   0  0  2  0  0  0  0  0  0  0  0  0
   30.4680   34.3520   14.2080 C   0  0  2  0  0  0  0  0  0  0  0  0
   32.4650   35.4850   14.4600 C   0  0  2  0  0  0  0  0  0  0  0  0
   31.7940   36.8260   14.6890 C   0  0  0  0  0  0  0  0  0  0  0  0
   31.6520   34.4830   14.8490 O   0  0  0  0  0  0  0  0  0  0  0  0
   30.3550   36.6790   15.0570 C   0  0  1  0  0  0  0  0  0  0  0  0
   29.6480   35.6210   14.2950 C   0  0  1  0  0  0  0  0  0  0  0  0
   33.6090   35.5300   15.3280 O   0  0  0  0  0  0  0  0  0  0  0  0
   34.3720   35.0640   14.8650 H   0  0  0  0  0  0  0  0  0  0  0  0
   33.0210   35.4430   13.1030 C   0  0  0  0  0  0  0  0  0  0  0  0
   32.6770   36.2260   12.1900 O   0  0  0  0  0  0  0  0  0  0  0  0
   33.9920   34.5020   12.7510 O   0  0  0  0  0  0  0  0  0  0  0  0
   33.7650   33.5140   12.7270 H   0  0  0  0  0  0  0  0  0  0  0  0
   30.2850   36.3670   16.4250 O   0  0  0  0  0  0  0  0  0  0  0  0
   30.0200   35.4300   16.5880 H   0  0  0  0  0  0  0  0  0  0  0  0
   29.1750   36.0980   13.0340 N   0  0  0  0  0  0  0  0  0  0  0  0
   27.8150   36.0030   12.6300 C   0  0  0  0  0  0  0  0  0  0  0  0
   29.8420   36.5400   12.3740 H   0  0  0  0  0  0  0  0  0  0  0  0
   27.3740   36.5160   11.3070 C   0  0  0  0  0  0  0  0  0  0  0  0
   26.9450   35.4850   13.3760 O   0  0  0  0  0  0  0  0  0  0  0  0
   28.3650   33.4700   15.0580 O   0  0  0  0  0  0  0  0  0  0  0  0
   27.7830   32.7980   14.5940 H   0  0  0  0  0  0  0  0  0  0  0  0
   31.5400   31.8060   14.9530 O   0  0  0  0  0  0  0  0  0  0  0  0
   32.0400   31.2990   15.6460 H   0  0  0  0  0  0  0  0  0  0  0  0
   26.5010   30.3700   18.0570 O   0  0  0  0  0  0  0  0  0  0  0  0
   25.7260   31.5640   18.1370 C   0  0  0  0  0  0  0  0  0  0  0  0
   25.1710   31.9420   16.8140 C   0  0  0  0  0  0  0  0  0  0  0  0
   23.9260   31.6730   16.3080 C   0  0  0  0  0  0  0  0  0  0  0  0
   25.8150   32.6410   15.8390 N   0  0  0  0  0  0  0  0  0  0  0  0
   23.8560   32.2140   15.0470 N   0  0  0  0  0  0  0  0  0  0  0  0
   25.0200   32.7870   14.8110 N   0  0  0  0  0  0  0  0  0  0  0  0
   22.7830   32.1500   14.1220 C   0  0  0  0  0  0  0  0  0  0  0  0
   22.4920   31.0840   13.3420 C   0  0  0  0  0  0  0  0  0  0  0  0
   21.9930   33.3200   14.0730 C   0  0  0  0  0  0  0  0  0  0  0  0
   21.3920   31.1580   12.4830 C   0  0  0  0  0  0  0  0  0  0  0  0
   20.9150   33.3780   13.2250 C   0  0  0  0  0  0  0  0  0  0  0  0
   20.6340   32.2890   12.4420 C   0  0  0  0  0  0  0  0  0  0  0  0
   23.2550   29.8560   13.3260 C   0  0  2  0  0  0  0  0  0  0  0  0
   24.3950   29.8940   12.7070 O   0  0  0  0  0  0  0  0  0  0  0  0
   22.9000   28.5680   13.9230 C   0  0  0  0  0  0  0  0  0  0  0  0
   29.8670   25.5550   16.9770 C   0  0  0  0  0  0  0  0  0  0  0  0
   28.3450   25.7220   17.0260 C   0  0  0  0  0  0  0  0  0  0  0  0
   27.6000   24.4090   16.8370 C   0  0  0  0  0  0  0  0  0  0  0  0
   26.7960   24.0340   18.0510 C   0  0  0  0  0  0  0  0  0  0  0  0
   25.7240   25.0900   18.2980 C   0  0  0  0  0  0  0  0  0  0  0  0
   25.8300   25.6250   19.6760 N   0  0  0  0  0  0  0  0  0  0  0  0
  1  2  1  0  0  0  0
  1  4  1  0  0  0  0
  2 31  1  0  0  0  0
  3  2  2  0  0  0  0
  5  1  1  0  0  0  0
  6  5  1  6  0  0  0
  7 27  1  1  0  0  0
  7  6  1  0  0  0  0
  8 13  1  0  0  0  0
  8  7  1  1  0  0  0
  8 11  1  0  0  0  0
  9 16  1  6  0  0  0
  9 10  1  0  0  0  0
  9 11  1  0  0  0  0
  9 14  1  0  0  0  0
 10 12  1  0  0  0  0
 12 20  1  1  0  0  0
 13 22  1  6  0  0  0
 13 12  1  0  0  0  0
 15 14  1  0  0  0  0
 17 16  2  0  0  0  0
 18 16  1  0  0  0  0
 19 18  1  0  0  0  0
 20 21  1  0  0  0  0
 23 22  1  0  0  0  0
 23 26  2  0  0  0  0
 24 22  1  0  0  0  0
 25 23  1  0  0  0  0
 28 27  1  0  0  0  0
 29 30  1  0  0  0  0
 29  6  1  0  0  0  0
 31 32  1  0  0  0  0
 33 32  1  0  0  0  0
 34 33  2  0  0  0  0
 35 33  1  0  0  0  0
 36 34  1  0  0  0  0
 37 36  1  0  0  0  0
 37 35  2  0  0  0  0
 38 36  1  0  0  0  0
 39 38  2  0  0  0  0
 40 38  1  0  0  0  0
 41 39  1  0  0  0  0
 42 40  2  0  0  0  0
 43 41  2  0  0  0  0
 43 42  1  0  0  0  0
 44 39  1  0  0  0  0
 44 46  1  6  0  0  0
 45 44  1  0  0  0  0
 47 48  1  0  0  0  0
 49 48  1  0  0  0  0
 49 50  1  0  0  0  0
 50 51  1  0  0  0  0
 51 52  1  0  0  0  0
M  END
>  <REMARK>
 VINA RESULT:    -4.592      1.500      2.116
 INTER + INTRA:         -15.020
 INTER:                  -8.952
 INTRA:                  -6.068
 UNBOUND:                -6.804
 SMILES CC(=O)N[C@@H]1[C@@H](O)C[C@](O)(C(=O)O)O[C@H]1C(O)[C@H](O)CNC(=O)OCc1cn(-c2ccccc2C(C)=O)nn1
 SMILES IDX 21 1 22 2 23 3 20 5 18 6 16 7 15 8 9 9 8 10 14 11 6 12 5 13
 SMILES IDX 10 14 11 16 12 17 13 18 7 20 4 22 2 23 1 25 3 26 17 27 19 29
 SMILES IDX 24 31 25 32 26 33 27 34 39 35 28 36 38 37 29 38 34 39 30 40
 SMILES IDX 33 41 31 42 32 43 35 44 37 45 36 46
 H PARENT 21 4 10 15 13 19 7 21 4 24 17 28 19 30
 Flexibility Score: inf
  4 active torsions:
  status: ('A' for Active; 'I' for Inactive)
    1  A    between atoms: CA   and  CB  
    2  A    between atoms: CB   and  CG  
    3  A    between atoms: CG   and  CD  
    4  A    between atoms: CD   and  CE  

>  <TORSDO>
F 16

>  <BEGIN_>
RES LYS A 131

$$$$
ligand_41_pose_6_2HRL.pdbqt
 OpenBabel07062320523D

  6  5  0  0  0  0  0  0  0  0999 V2000
   33.1930   34.6630    9.2900 C   0  0  0  0  0  0  0  0  0  0  0  0
   32.0600   35.3600   10.0340 C   0  0  0  0  0  0  0  0  0  0  0  0
   30.7980   35.4940    9.2210 C   0  0  0  0  0  0  0  0  0  0  0  0
   30.2540   34.1250    8.8460 C   0  0  0  0  0  0  0  0  0  0  0  0
   28.7420   34.1020    8.9640 C   0  0  0  0  0  0  0  0  0  0  0  0
   28.1070   34.9070    7.8830 N   0  0  0  0  0  0  0  0  0  0  0  0
  1  2  1  0  0  0  0
  3  2  1  0  0  0  0
  4  5  1  0  0  0  0
  4  3  1  0  0  0  0
  6  5  1  0  0  0  0
M  END
>  <EGIN_R>
ES LYS A 135

>  <REMARK>
  4 active torsions:
  status: ('A' for Active; 'I' for Inactive)
    5  A    between atoms: CA   and  CB  
    6  A    between atoms: CB   and  CG  
    7  A    between atoms: CG   and  CD  
    8  A    between atoms: CD   and  CE  

$$$$
