ligand_82_pose_1_2HRL.pdbqt
 OpenBabel07062320523D

 53 55  0  0  1  0  0  0  0  0999 V2000
   28.0070   28.0120   18.7740 N   0  0  0  0  0  0  0  0  0  0  0  0
   26.8290   28.1840   17.9680 C   0  0  0  0  0  0  0  0  0  0  0  0
   25.7440   27.6960   18.3790 O   0  0  0  0  0  0  0  0  0  0  0  0
   28.9070   28.4140   18.4390 H   0  0  0  0  0  0  0  0  0  0  0  0
   27.9220   27.2880   20.0240 C   0  0  0  0  0  0  0  0  0  0  0  0
   29.0830   27.7010   20.8840 C   0  0  2  0  0  0  0  0  0  0  0  0
   29.8240   28.8910   20.3150 C   0  0  1  0  0  0  0  0  0  0  0  0
   29.6640   30.0290   21.2960 C   0  0  2  0  0  0  0  0  0  0  0  0
   30.2370   31.9480   20.1320 C   0  0  2  0  0  0  0  0  0  0  0  0
   31.3890   32.2860   21.0520 C   0  0  0  0  0  0  0  0  0  0  0  0
   29.2530   31.2020   20.7340 O   0  0  0  0  0  0  0  0  0  0  0  0
   31.1210   31.6410   22.3880 C   0  0  1  0  0  0  0  0  0  0  0  0
   30.9140   30.1620   22.1360 C   0  0  1  0  0  0  0  0  0  0  0  0
   30.7310   31.3530   18.9670 O   0  0  0  0  0  0  0  0  0  0  0  0
   31.4860   31.9310   18.6690 H   0  0  0  0  0  0  0  0  0  0  0  0
   29.6240   33.2450   19.7200 C   0  0  0  0  0  0  0  0  0  0  0  0
   29.7810   34.2710   20.4660 O   0  0  0  0  0  0  0  0  0  0  0  0
   28.8890   33.3920   18.5630 O   0  0  0  0  0  0  0  0  0  0  0  0
   28.5390   32.5900   18.0450 H   0  0  0  0  0  0  0  0  0  0  0  0
   32.1760   31.7910   23.2680 O   0  0  0  0  0  0  0  0  0  0  0  0
   32.2490   32.7550   23.4830 H   0  0  0  0  0  0  0  0  0  0  0  0
   30.8480   29.4150   23.3650 N   0  0  0  0  0  0  0  0  0  0  0  0
   31.5920   28.2220   23.5560 C   0  0  0  0  0  0  0  0  0  0  0  0
   30.2310   29.7750   24.1250 H   0  0  0  0  0  0  0  0  0  0  0  0
   31.4640   27.5130   24.8580 C   0  0  0  0  0  0  0  0  0  0  0  0
   32.3360   27.7820   22.6440 O   0  0  0  0  0  0  0  0  0  0  0  0
   31.1850   28.6180   20.2010 O   0  0  0  0  0  0  0  0  0  0  0  0
   31.4480   27.7790   20.6140 H   0  0  0  0  0  0  0  0  0  0  0  0
   29.9700   26.6040   20.9150 O   0  0  0  0  0  0  0  0  0  0  0  0
   30.8950   26.9020   20.6910 H   0  0  0  0  0  0  0  0  0  0  0  0
   26.8330   28.8560   16.7770 O   0  0  0  0  0  0  0  0  0  0  0  0
   26.6420   30.2540   16.6530 C   0  0  0  0  0  0  0  0  0  0  0  0
   27.9150   30.9130   16.2970 C   0  0  0  0  0  0  0  0  0  0  0  0
   28.1340   31.9450   15.4160 C   0  0  0  0  0  0  0  0  0  0  0  0
   29.1180   30.5990   16.7990 N   0  0  0  0  0  0  0  0  0  0  0  0
   29.4670   32.2400   15.3970 N   0  0  0  0  0  0  0  0  0  0  0  0
   30.0350   31.4000   16.2510 N   0  0  0  0  0  0  0  0  0  0  0  0
   30.0770   33.2680   14.5900 C   0  0  0  0  0  0  0  0  0  0  0  0
   30.6680   34.3530   15.4520 C   0  0  0  0  0  0  0  0  0  0  0  0
   29.9360   35.3870   15.8570 C   0  0  0  0  0  0  0  0  0  0  0  0
   32.0800   34.3070   15.8770 C   0  0  2  0  0  0  0  0  0  0  0  0
   30.4970   36.2900   16.8990 C   0  0  0  0  0  0  0  0  0  0  0  0
   32.0680   34.4590   17.4050 C   0  0  0  0  0  0  0  0  0  0  0  0
   32.6620   35.7060   15.8290 C   0  0  0  0  0  0  0  0  0  0  0  0
   31.9330   35.9530   17.1590 C   0  0  1  0  0  0  0  0  0  0  0  0
   34.1480   35.7560   16.0450 C   0  0  0  0  0  0  0  0  0  0  0  0
   32.2080   36.5640   14.6980 C   0  0  0  0  0  0  0  0  0  0  0  0
   29.8670   25.5550   16.9770 C   0  0  0  0  0  0  0  0  0  0  0  0
   28.3450   25.7220   17.0260 C   0  0  0  0  0  0  0  0  0  0  0  0
   27.6020   24.3970   16.9430 C   0  0  0  0  0  0  0  0  0  0  0  0
   26.5140   24.2920   17.9740 C   0  0  0  0  0  0  0  0  0  0  0  0
   25.2560   23.7170   17.3310 C   0  0  0  0  0  0  0  0  0  0  0  0
   24.2660   24.7900   17.0770 N   0  0  0  0  0  0  0  0  0  0  0  0
  1  5  1  0  0  0  0
  2  3  2  0  0  0  0
  2  1  1  0  0  0  0
  4  1  1  0  0  0  0
  6  5  1  6  0  0  0
  6 29  1  0  0  0  0
  7 27  1  1  0  0  0
  7  6  1  0  0  0  0
  8  7  1  6  0  0  0
  8 13  1  0  0  0  0
  9 14  1  6  0  0  0
  9 11  1  0  0  0  0
  9 10  1  0  0  0  0
 10 12  1  0  0  0  0
 11  8  1  0  0  0  0
 12 20  1  1  0  0  0
 13 12  1  0  0  0  0
 13 22  1  1  0  0  0
 15 14  1  0  0  0  0
 16  9  1  0  0  0  0
 16 17  2  0  0  0  0
 18 16  1  0  0  0  0
 19 18  1  0  0  0  0
 20 21  1  0  0  0  0
 22 23  1  0  0  0  0
 22 24  1  0  0  0  0
 23 25  1  0  0  0  0
 26 23  2  0  0  0  0
 27 28  1  0  0  0  0
 30 29  1  0  0  0  0
 31  2  1  0  0  0  0
 32 31  1  0  0  0  0
 33 32  1  0  0  0  0
 33 35  1  0  0  0  0
 34 33  2  0  0  0  0
 36 34  1  0  0  0  0
 36 37  1  0  0  0  0
 37 35  2  0  0  0  0
 38 36  1  0  0  0  0
 38 39  1  0  0  0  0
 39 40  2  0  0  0  0
 39 41  1  0  0  0  0
 40 42  1  0  0  0  0
 41 43  1  1  0  0  0
 44 41  1  0  0  0  0
 44 46  1  0  0  0  0
 44 45  1  0  0  0  0
 45 42  1  6  0  0  0
 45 43  1  0  0  0  0
 47 44  1  0  0  0  0
 48 49  1  0  0  0  0
 50 49  1  0  0  0  0
 50 51  1  0  0  0  0
 52 51  1  0  0  0  0
 53 52  1  0  0  0  0
M  END
>  <REMARK>
 VINA RESULT:    -5.835      1.669      2.223
 INTER + INTRA:         -15.778
 INTER:                  -8.383
 INTRA:                  -7.394
 UNBOUND:                -5.337
 SMILES CC(=O)N[C@@H]1[C@@H](O)C[C@](O)(C(=O)O)O[C@H]1C(O)[C@H](O)CNC(=O)OCc1cn(CC2=CC[C@H]3C[C@@H]2C3(C)C)nn1
 SMILES IDX 21 1 22 2 23 3 20 5 18 6 16 7 15 8 9 9 8 10 14 11 6 12 5 13
 SMILES IDX 10 14 11 16 12 17 13 18 7 20 4 22 2 23 1 25 3 26 17 27 19 29
 SMILES IDX 24 31 25 32 26 33 27 34 40 35 28 36 39 37 29 38 30 39 31 40
 SMILES IDX 35 41 32 42 34 43 36 44 33 45 37 46 38 47
 H PARENT 21 4 10 15 13 19 7 21 4 24 17 28 19 30
 Flexibility Score: inf
  4 active torsions:
  status: ('A' for Active; 'I' for Inactive)
    1  A    between atoms: CA   and  CB  
    2  A    between atoms: CB   and  CG  
    3  A    between atoms: CG   and  CD  
    4  A    between atoms: CD   and  CE  

>  <TORSDO>
F 16

>  <BEGIN_>
RES LYS A 131

$$$$
ligand_82_pose_1_2HRL.pdbqt
 OpenBabel07062320523D

  6  5  0  0  0  0  0  0  0  0999 V2000
   33.1930   34.6630    9.2900 C   0  0  0  0  0  0  0  0  0  0  0  0
   32.0600   35.3600   10.0340 C   0  0  0  0  0  0  0  0  0  0  0  0
   30.7790   35.4370    9.2450 C   0  0  0  0  0  0  0  0  0  0  0  0
   30.2210   34.0450    8.9890 C   0  0  0  0  0  0  0  0  0  0  0  0
   28.7240   34.0180    9.2290 C   0  0  0  0  0  0  0  0  0  0  0  0
   27.9930   34.7180    8.1370 N   0  0  0  0  0  0  0  0  0  0  0  0
  1  2  1  0  0  0  0
  3  2  1  0  0  0  0
  4  5  1  0  0  0  0
  4  3  1  0  0  0  0
  6  5  1  0  0  0  0
M  END
>  <EGIN_R>
ES LYS A 135

>  <REMARK>
  4 active torsions:
  status: ('A' for Active; 'I' for Inactive)
    5  A    between atoms: CA   and  CB  
    6  A    between atoms: CB   and  CG  
    7  A    between atoms: CG   and  CD  
    8  A    between atoms: CD   and  CE  

$$$$
