ligand_43_pose_13_2HRL.pdbqt
 OpenBabel07062320523D

 49 49  0  0  1  0  0  0  0  0999 V2000
   31.5880   35.2540   18.6320 O   0  0  0  0  0  0  0  0  0  0  0  0
   31.6660   34.3890   19.7070 C   0  0  0  0  0  0  0  0  0  0  0  0
   31.3540   33.0110   19.4610 N   0  0  0  0  0  0  0  0  0  0  0  0
   31.0880   32.7280   18.4980 H   0  0  0  0  0  0  0  0  0  0  0  0
   31.9990   34.7890   20.8680 O   0  0  0  0  0  0  0  0  0  0  0  0
   31.4020   32.0340   20.4960 C   0  0  0  0  0  0  0  0  0  0  0  0
   30.4800   30.8370   20.2570 C   0  0  2  0  0  0  0  0  0  0  0  0
   29.6440   31.1980   19.0550 C   0  0  2  0  0  0  0  0  0  0  0  0
   28.2550   30.6490   19.0920 C   0  0  2  0  0  0  0  0  0  0  0  0
   27.2900   28.6210   18.5100 C   0  0  2  0  0  0  0  0  0  0  0  0
   25.9930   29.3990   18.5880 C   0  0  0  0  0  0  0  0  0  0  0  0
   28.2870   29.2850   19.2020 O   0  0  0  0  0  0  0  0  0  0  0  0
   26.1500   30.6250   17.7190 C   0  0  1  0  0  0  0  0  0  0  0  0
   27.5840   31.0990   17.7870 C   0  0  1  0  0  0  0  0  0  0  0  0
   27.6420   28.3620   17.1890 O   0  0  0  0  0  0  0  0  0  0  0  0
   28.5360   27.9550   17.1500 H   0  0  0  0  0  0  0  0  0  0  0  0
   27.0430   27.3080   19.1590 C   0  0  0  0  0  0  0  0  0  0  0  0
   25.8830   26.8540   19.3380 O   0  0  0  0  0  0  0  0  0  0  0  0
   28.0920   26.4920   19.6140 O   0  0  0  0  0  0  0  0  0  0  0  0
   28.2870   26.4950   20.6120 H   0  0  0  0  0  0  0  0  0  0  0  0
   25.8830   30.2830   16.4060 O   0  0  0  0  0  0  0  0  0  0  0  0
   26.6110   30.6100   15.8210 H   0  0  0  0  0  0  0  0  0  0  0  0
   27.6750   32.5460   17.7230 N   0  0  0  0  0  0  0  0  0  0  0  0
   27.7530   33.2690   16.4990 C   0  0  0  0  0  0  0  0  0  0  0  0
   27.6890   33.1430   18.5970 H   0  0  0  0  0  0  0  0  0  0  0  0
   27.8480   34.7590   16.4450 C   0  0  0  0  0  0  0  0  0  0  0  0
   27.7400   32.5870   15.4370 O   0  0  0  0  0  0  0  0  0  0  0  0
   30.3670   30.7600   17.9330 O   0  0  0  0  0  0  0  0  0  0  0  0
   30.2330   31.3560   17.1540 H   0  0  0  0  0  0  0  0  0  0  0  0
   29.7420   30.5300   21.3800 O   0  0  0  0  0  0  0  0  0  0  0  0
   30.1790   30.7050   22.2310 H   0  0  0  0  0  0  0  0  0  0  0  0
   32.5600   35.2190   17.6210 C   0  0  0  0  0  0  0  0  0  0  0  0
   31.9390   34.5130   16.4510 C   0  0  0  0  0  0  0  0  0  0  0  0
   31.6270   35.1340   15.2520 C   0  0  0  0  0  0  0  0  0  0  0  0
   31.5740   33.2390   16.3070 N   0  0  0  0  0  0  0  0  0  0  0  0
   31.0910   34.2230   14.4310 N   0  0  0  0  0  0  0  0  0  0  0  0
   31.0700   33.0840   15.0950 N   0  0  0  0  0  0  0  0  0  0  0  0
   30.6030   34.3780   13.0680 C   0  0  0  0  0  0  0  0  0  0  0  0
   29.1490   34.7720   13.0870 C   0  0  0  0  0  0  0  0  0  0  0  0
   28.8910   35.9690   12.2060 C   0  0  0  0  0  0  0  0  0  0  0  0
   29.1530   37.2700   12.9180 C   0  0  0  0  0  0  0  0  0  0  0  0
   30.1850   38.0470   12.1940 C   0  0  0  0  0  0  0  0  0  0  0  0
   31.4700   37.7840   12.2840 C   0  0  0  0  0  0  0  0  0  0  0  0
   29.8670   25.5550   16.9770 C   0  0  0  0  0  0  0  0  0  0  0  0
   28.3450   25.7220   17.0260 C   0  0  0  0  0  0  0  0  0  0  0  0
   27.5990   24.4580   16.6270 C   0  0  0  0  0  0  0  0  0  0  0  0
   26.8580   23.8480   17.7840 C   0  0  0  0  0  0  0  0  0  0  0  0
   25.3600   23.8650   17.4950 C   0  0  0  0  0  0  0  0  0  0  0  0
   24.8120   22.4890   17.5200 N   0  0  0  0  0  0  0  0  0  0  0  0
  1  2  1  0  0  0  0
  2  5  2  0  0  0  0
  3  2  1  0  0  0  0
  3  6  1  0  0  0  0
  4  3  1  0  0  0  0
  7  6  1  1  0  0  0
  7 30  1  0  0  0  0
  8 28  1  6  0  0  0
  8  7  1  0  0  0  0
  9  8  1  6  0  0  0
  9 12  1  0  0  0  0
 10 15  1  6  0  0  0
 10 11  1  0  0  0  0
 10 17  1  0  0  0  0
 10 12  1  0  0  0  0
 13 21  1  6  0  0  0
 13 14  1  0  0  0  0
 13 11  1  0  0  0  0
 14 23  1  1  0  0  0
 14  9  1  0  0  0  0
 16 15  1  0  0  0  0
 17 18  2  0  0  0  0
 17 19  1  0  0  0  0
 19 20  1  0  0  0  0
 22 21  1  0  0  0  0
 23 25  1  0  0  0  0
 24 23  1  0  0  0  0
 26 24  1  0  0  0  0
 27 24  2  0  0  0  0
 29 28  1  0  0  0  0
 30 31  1  0  0  0  0
 32  1  1  0  0  0  0
 33 32  1  0  0  0  0
 34 33  2  0  0  0  0
 35 33  1  0  0  0  0
 36 37  1  0  0  0  0
 36 34  1  0  0  0  0
 37 35  2  0  0  0  0
 38 39  1  0  0  0  0
 38 36  1  0  0  0  0
 40 41  1  0  0  0  0
 40 39  1  0  0  0  0
 42 43  2  0  0  0  0
 42 41  1  0  0  0  0
 44 45  1  0  0  0  0
 46 45  1  0  0  0  0
 46 47  1  0  0  0  0
 48 49  1  0  0  0  0
 48 47  1  0  0  0  0
M  END
>  <REMARK>
 VINA RESULT:    -4.788      3.506      6.134
 INTER + INTRA:         -14.191
 INTER:                  -7.734
 INTRA:                  -6.457
 UNBOUND:                -4.785
 SMILES C=CCCCCn1cc(COC(=O)NC[C@@H](O)C(O)[C@@H]2O[C@@](O)(C(=O)O)C[C@H](O)[C@H]2NC(C)=O)nn1
 SMILES IDX 11 1 12 2 14 3 13 5 15 6 16 7 18 8 20 9 22 10 27 11 21 12
 SMILES IDX 28 13 30 14 23 15 24 17 25 18 26 19 29 21 31 23 32 24 33 26
 SMILES IDX 34 27 19 28 17 30 10 32 9 33 8 34 35 35 7 36 36 37 6 38 5 39
 SMILES IDX 4 40 3 41 2 42 1 43
 H PARENT 14 4 23 16 26 20 29 22 31 25 19 29 17 31
 Flexibility Score: inf
  4 active torsions:
  status: ('A' for Active; 'I' for Inactive)
    1  A    between atoms: CA   and  CB  
    2  A    between atoms: CB   and  CG  
    3  A    between atoms: CG   and  CD  
    4  A    between atoms: CD   and  CE  

>  <TORSDO>
F 19

>  <BEGIN_>
RES LYS A 131

$$$$
ligand_43_pose_13_2HRL.pdbqt
 OpenBabel07062320523D

  6  5  0  0  0  0  0  0  0  0999 V2000
   33.1930   34.6630    9.2900 C   0  0  0  0  0  0  0  0  0  0  0  0
   32.0600   35.3600   10.0340 C   0  0  0  0  0  0  0  0  0  0  0  0
   30.8270   35.5710    9.1930 C   0  0  0  0  0  0  0  0  0  0  0  0
   30.1330   34.2460    8.9170 C   0  0  0  0  0  0  0  0  0  0  0  0
   28.6930   34.4760    8.4990 C   0  0  0  0  0  0  0  0  0  0  0  0
   28.6210   35.2600    7.2350 N   0  0  0  0  0  0  0  0  0  0  0  0
  1  2  1  0  0  0  0
  3  2  1  0  0  0  0
  4  3  1  0  0  0  0
  5  4  1  0  0  0  0
  6  5  1  0  0  0  0
M  END
>  <EGIN_R>
ES LYS A 135

>  <REMARK>
  4 active torsions:
  status: ('A' for Active; 'I' for Inactive)
    5  A    between atoms: CA   and  CB  
    6  A    between atoms: CB   and  CG  
    7  A    between atoms: CG   and  CD  
    8  A    between atoms: CD   and  CE  

$$$$
