ligand_56_pose_13_2HRL.pdbqt
 OpenBabel07062320523D

 49 50  0  0  1  0  0  0  0  0999 V2000
   23.0810   36.6090    8.5470 C   0  0  0  0  0  0  0  0  0  0  0  0
   23.5140   37.5990    7.5230 C   0  0  2  0  0  0  0  0  0  0  0  0
   24.9610   38.0300    7.7010 C   0  0  2  0  0  0  0  0  0  0  0  0
   25.9310   36.9070    7.6240 C   0  0  2  0  0  0  0  0  0  0  0  0
   27.4210   35.6170    8.8240 C   0  0  2  0  0  0  0  0  0  0  0  0
   27.7280   35.0070    7.4790 C   0  0  0  0  0  0  0  0  0  0  0  0
   26.2870   36.3820    8.8350 O   0  0  0  0  0  0  0  0  0  0  0  0
   27.8300   36.0340    6.3850 C   0  0  1  0  0  0  0  0  0  0  0  0
   27.2040   37.3140    6.9020 C   0  0  1  0  0  0  0  0  0  0  0  0
   28.5150   36.3130    9.3410 O   0  0  0  0  0  0  0  0  0  0  0  0
   28.3410   37.2910    9.3910 H   0  0  0  0  0  0  0  0  0  0  0  0
   27.1820   34.4650    9.7620 C   0  0  0  0  0  0  0  0  0  0  0  0
   27.8410   33.4140    9.7350 O   0  0  0  0  0  0  0  0  0  0  0  0
   26.1570   34.6430   10.6880 O   0  0  0  0  0  0  0  0  0  0  0  0
   25.9060   33.8930   11.3260 H   0  0  0  0  0  0  0  0  0  0  0  0
   29.1520   36.2610    6.0030 O   0  0  0  0  0  0  0  0  0  0  0  0
   29.1790   36.9680    5.3130 H   0  0  0  0  0  0  0  0  0  0  0  0
   26.9470   38.2540    5.8350 N   0  0  0  0  0  0  0  0  0  0  0  0
   27.8920   39.2660    5.5120 C   0  0  0  0  0  0  0  0  0  0  0  0
   26.0740   38.2190    5.2780 H   0  0  0  0  0  0  0  0  0  0  0  0
   27.6580   40.2550    4.4130 C   0  0  0  0  0  0  0  0  0  0  0  0
   28.9600   39.3300    6.1720 O   0  0  0  0  0  0  0  0  0  0  0  0
   25.0980   38.8780    8.7700 O   0  0  0  0  0  0  0  0  0  0  0  0
   26.0080   39.2810    8.7510 H   0  0  0  0  0  0  0  0  0  0  0  0
   22.7690   38.7640    7.5430 O   0  0  0  0  0  0  0  0  0  0  0  0
   23.1330   39.4790    6.9740 H   0  0  0  0  0  0  0  0  0  0  0  0
   23.2950   37.1060    9.8760 N   0  0  0  0  0  0  0  0  0  0  0  0
   23.3720   36.3760   11.0690 C   0  0  0  0  0  0  0  0  0  0  0  0
   23.4150   38.1710    9.9920 H   0  0  0  0  0  0  0  0  0  0  0  0
   23.2420   35.1520   11.0720 O   0  0  0  0  0  0  0  0  0  0  0  0
   23.5980   36.9870   12.3170 O   0  0  0  0  0  0  0  0  0  0  0  0
   24.4340   38.1480   12.3860 C   0  0  0  0  0  0  0  0  0  0  0  0
   25.8530   37.7800   12.3650 C   0  0  0  0  0  0  0  0  0  0  0  0
   26.5550   36.9500   13.2090 C   0  0  0  0  0  0  0  0  0  0  0  0
   26.7480   38.2240   11.4580 N   0  0  0  0  0  0  0  0  0  0  0  0
   27.8360   36.9320   12.7730 N   0  0  0  0  0  0  0  0  0  0  0  0
   27.9420   37.7020   11.7200 N   0  0  0  0  0  0  0  0  0  0  0  0
   28.9220   36.2020   13.3480 C   0  0  0  0  0  0  0  0  0  0  0  0
   29.1690   34.9270   12.9000 C   0  0  0  0  0  0  0  0  0  0  0  0
   29.7070   36.7750   14.3410 C   0  0  0  0  0  0  0  0  0  0  0  0
   30.2200   34.2360   13.4650 C   0  0  0  0  0  0  0  0  0  0  0  0
   30.7370   36.0500   14.8680 C   0  0  0  0  0  0  0  0  0  0  0  0
   30.9710   34.7990   14.4200 N   0  0  0  0  0  0  0  0  0  0  0  0
   29.8670   25.5550   16.9770 C   0  0  0  0  0  0  0  0  0  0  0  0
   28.3450   25.7220   17.0260 C   0  0  0  0  0  0  0  0  0  0  0  0
   27.6020   24.3980   16.9330 C   0  0  0  0  0  0  0  0  0  0  0  0
   26.1320   24.5530   17.2080 C   0  0  0  0  0  0  0  0  0  0  0  0
   25.5740   23.2400   17.7480 C   0  0  0  0  0  0  0  0  0  0  0  0
   25.6100   23.2300   19.2300 N   0  0  0  0  0  0  0  0  0  0  0  0
  1 27  1  0  0  0  0
  2 25  1  0  0  0  0
  2  3  1  0  0  0  0
  2  1  1  1  0  0  0
  3 23  1  1  0  0  0
  4  3  1  1  0  0  0
  4  7  1  0  0  0  0
  5  7  1  0  0  0  0
  5 10  1  1  0  0  0
  5 12  1  0  0  0  0
  6  5  1  0  0  0  0
  8 16  1  1  0  0  0
  8  9  1  0  0  0  0
  8  6  1  0  0  0  0
  9 18  1  6  0  0  0
  9  4  1  0  0  0  0
 10 11  1  0  0  0  0
 12 14  1  0  0  0  0
 13 12  2  0  0  0  0
 14 15  1  0  0  0  0
 17 16  1  0  0  0  0
 19 18  1  0  0  0  0
 19 22  2  0  0  0  0
 20 18  1  0  0  0  0
 21 19  1  0  0  0  0
 24 23  1  0  0  0  0
 26 25  1  0  0  0  0
 27 29  1  0  0  0  0
 27 28  1  0  0  0  0
 28 30  2  0  0  0  0
 28 31  1  0  0  0  0
 31 32  1  0  0  0  0
 33 32  1  0  0  0  0
 33 34  2  0  0  0  0
 35 37  2  0  0  0  0
 35 33  1  0  0  0  0
 36 34  1  0  0  0  0
 36 38  1  0  0  0  0
 37 36  1  0  0  0  0
 38 40  1  0  0  0  0
 39 38  2  0  0  0  0
 39 41  1  0  0  0  0
 40 42  2  0  0  0  0
 41 43  2  0  0  0  0
 43 42  1  0  0  0  0
 44 45  1  0  0  0  0
 46 45  1  0  0  0  0
 46 47  1  0  0  0  0
 47 48  1  0  0  0  0
 48 49  1  0  0  0  0
M  END
>  <REMARK>
 VINA RESULT:    -4.800      8.635     13.194
 INTER + INTRA:         -13.580
 INTER:                  -8.491
 INTRA:                  -5.088
 UNBOUND:                -5.272
 SMILES CC(=O)N[C@@H]1[C@@H](O)C[C@](O)(C(=O)O)O[C@H]1C(O)[C@H](O)CNC(=O)OCc1cn(-c2ccncc2)nn1
 SMILES IDX 20 1 18 2 16 3 15 4 9 5 8 6 14 7 6 8 5 9 10 10 11 12 12 13
 SMILES IDX 13 14 7 16 4 18 2 19 1 21 3 22 17 23 19 25 21 27 22 28 23 30
 SMILES IDX 24 31 25 32 26 33 27 34 36 35 28 36 35 37 29 38 30 39 34 40
 SMILES IDX 31 41 33 42 32 43
 H PARENT 10 11 13 15 7 17 4 20 17 24 19 26 21 29
 Flexibility Score: inf
  4 active torsions:
  status: ('A' for Active; 'I' for Inactive)
    1  A    between atoms: CA   and  CB  
    2  A    between atoms: CB   and  CG  
    3  A    between atoms: CG   and  CD  
    4  A    between atoms: CD   and  CE  

>  <TORSDO>
F 15

>  <BEGIN_>
RES LYS A 131

$$$$
ligand_56_pose_13_2HRL.pdbqt
 OpenBabel07062320523D

  6  5  0  0  0  0  0  0  0  0999 V2000
   33.1930   34.6630    9.2900 C   0  0  0  0  0  0  0  0  0  0  0  0
   32.0600   35.3600   10.0340 C   0  0  0  0  0  0  0  0  0  0  0  0
   32.5290   36.2130   11.1840 C   0  0  0  0  0  0  0  0  0  0  0  0
   31.6890   37.4760   11.2940 C   0  0  0  0  0  0  0  0  0  0  0  0
   32.0220   38.4370   10.1700 C   0  0  0  0  0  0  0  0  0  0  0  0
   30.7970   38.8360    9.4240 N   0  0  0  0  0  0  0  0  0  0  0  0
  1  2  1  0  0  0  0
  2  3  1  0  0  0  0
  3  4  1  0  0  0  0
  5  4  1  0  0  0  0
  6  5  1  0  0  0  0
M  END
>  <EGIN_R>
ES LYS A 135

>  <REMARK>
  4 active torsions:
  status: ('A' for Active; 'I' for Inactive)
    5  A    between atoms: CA   and  CB  
    6  A    between atoms: CB   and  CG  
    7  A    between atoms: CG   and  CD  
    8  A    between atoms: CD   and  CE  

$$$$
