ligand_74_pose_9_2HRL.pdbqt
 OpenBabel07062320523D

 54 54  0  0  1  0  0  0  0  0999 V2000
   25.8090   39.6760    6.3750 O   0  0  0  0  0  0  0  0  0  0  0  0
   27.1450   39.8960    5.9940 C   0  0  0  0  0  0  0  0  0  0  0  0
   28.0850   40.4460    6.8970 N   0  0  0  0  0  0  0  0  0  0  0  0
   27.7170   40.6760    7.8730 H   0  0  0  0  0  0  0  0  0  0  0  0
   27.4770   39.5880    4.8240 O   0  0  0  0  0  0  0  0  0  0  0  0
   29.4680   40.6970    6.5580 C   0  0  0  0  0  0  0  0  0  0  0  0
   30.2640   39.4550    6.7630 C   0  0  2  0  0  0  0  0  0  0  0  0
   31.6540   39.7070    7.3250 C   0  0  2  0  0  0  0  0  0  0  0  0
   32.5760   40.2680    6.2880 C   0  0  2  0  0  0  0  0  0  0  0  0
   34.7090   39.4150    5.9460 C   0  0  2  0  0  0  0  0  0  0  0  0
   35.3200   40.7620    5.6460 C   0  0  0  0  0  0  0  0  0  0  0  0
   33.3590   39.3600    5.6380 O   0  0  0  0  0  0  0  0  0  0  0  0
   34.2870   41.8690    5.6840 C   0  0  1  0  0  0  0  0  0  0  0  0
   33.3300   41.4820    6.8200 C   0  0  1  0  0  0  0  0  0  0  0  0
   34.9590   39.0370    7.2690 O   0  0  0  0  0  0  0  0  0  0  0  0
   34.3090   38.4000    7.6200 H   0  0  0  0  0  0  0  0  0  0  0  0
   35.3920   38.4190    5.0780 C   0  0  0  0  0  0  0  0  0  0  0  0
   35.3920   38.6020    3.8220 O   0  0  0  0  0  0  0  0  0  0  0  0
   36.0320   37.2980    5.5600 O   0  0  0  0  0  0  0  0  0  0  0  0
   37.0230   37.1430    5.3160 H   0  0  0  0  0  0  0  0  0  0  0  0
   34.8310   43.1160    5.8620 O   0  0  0  0  0  0  0  0  0  0  0  0
   35.8250   42.9870    5.9550 H   0  0  0  0  0  0  0  0  0  0  0  0
   32.3860   42.5410    7.0780 N   0  0  0  0  0  0  0  0  0  0  0  0
   32.3070   43.1490    8.3690 C   0  0  0  0  0  0  0  0  0  0  0  0
   31.7240   42.9130    6.3540 H   0  0  0  0  0  0  0  0  0  0  0  0
   31.3530   44.2340    8.6660 C   0  0  0  0  0  0  0  0  0  0  0  0
   33.0700   42.7520    9.2850 O   0  0  0  0  0  0  0  0  0  0  0  0
   32.1310   38.5890    7.9690 O   0  0  0  0  0  0  0  0  0  0  0  0
   32.8000   38.8620    8.6300 H   0  0  0  0  0  0  0  0  0  0  0  0
   30.4390   38.8310    5.5040 O   0  0  0  0  0  0  0  0  0  0  0  0
   30.8430   39.4500    4.8550 H   0  0  0  0  0  0  0  0  0  0  0  0
   25.5490   39.4650    7.7400 C   0  0  0  0  0  0  0  0  0  0  0  0
   25.5490   38.0350    8.0980 C   0  0  0  0  0  0  0  0  0  0  0  0
   26.5580   37.0890    7.9940 C   0  0  0  0  0  0  0  0  0  0  0  0
   24.5080   37.3740    8.6190 N   0  0  0  0  0  0  0  0  0  0  0  0
   26.0990   35.9090    8.4480 N   0  0  0  0  0  0  0  0  0  0  0  0
   24.8600   36.1080    8.8190 N   0  0  0  0  0  0  0  0  0  0  0  0
   26.8920   34.6500    8.4960 C   0  0  0  0  0  0  0  0  0  0  0  0
   28.0950   34.8480    9.3500 C   0  0  2  0  0  0  0  0  0  0  0  0
   29.2440   34.0820    8.7190 C   0  0  0  0  0  0  0  0  0  0  0  0
   30.3230   35.0350    8.3510 C   0  0  0  0  0  0  0  0  0  0  0  0
   30.1420   36.2630    8.4140 O   0  0  0  0  0  0  0  0  0  0  0  0
   31.5420   34.4940    7.9330 O   0  0  0  0  0  0  0  0  0  0  0  0
   32.3870   34.7660    8.3960 H   0  0  0  0  0  0  0  0  0  0  0  0
   27.8630   34.5460   10.7730 C   0  0  0  0  0  0  0  0  0  0  0  0
   28.1710   35.5950   11.7740 C   0  0  0  0  0  0  0  0  0  0  0  0
   26.8290   36.3440   12.0150 C   0  0  0  0  0  0  0  0  0  0  0  0
   28.6590   35.1450   13.1080 C   0  0  0  0  0  0  0  0  0  0  0  0
   29.8670   25.5550   16.9770 C   0  0  0  0  0  0  0  0  0  0  0  0
   28.3450   25.7220   17.0260 C   0  0  0  0  0  0  0  0  0  0  0  0
   27.6010   24.4060   16.8600 C   0  0  0  0  0  0  0  0  0  0  0  0
   26.6570   24.1410   18.0000 C   0  0  0  0  0  0  0  0  0  0  0  0
   25.3820   23.4960   17.4660 C   0  0  0  0  0  0  0  0  0  0  0  0
   24.8240   22.5490   18.4610 N   0  0  0  0  0  0  0  0  0  0  0  0
  1 32  1  0  0  0  0
  2  1  1  0  0  0  0
  2  3  1  0  0  0  0
  3  4  1  0  0  0  0
  5  2  2  0  0  0  0
  6  3  1  0  0  0  0
  7  6  1  6  0  0  0
  7  8  1  0  0  0  0
  8 28  1  6  0  0  0
  9 14  1  0  0  0  0
  9  8  1  1  0  0  0
 10 17  1  6  0  0  0
 10 15  1  0  0  0  0
 11 13  1  0  0  0  0
 11 10  1  0  0  0  0
 12 10  1  0  0  0  0
 12  9  1  0  0  0  0
 13 21  1  1  0  0  0
 13 14  1  0  0  0  0
 14 23  1  6  0  0  0
 15 16  1  0  0  0  0
 17 19  1  0  0  0  0
 18 17  2  0  0  0  0
 20 19  1  0  0  0  0
 21 22  1  0  0  0  0
 23 24  1  0  0  0  0
 24 26  1  0  0  0  0
 24 27  2  0  0  0  0
 25 23  1  0  0  0  0
 28 29  1  0  0  0  0
 30  7  1  0  0  0  0
 31 30  1  0  0  0  0
 32 33  1  0  0  0  0
 33 35  1  0  0  0  0
 34 33  2  0  0  0  0
 34 36  1  0  0  0  0
 35 37  2  0  0  0  0
 36 38  1  0  0  0  0
 36 37  1  0  0  0  0
 39 38  1  6  0  0  0
 39 45  1  0  0  0  0
 40 39  1  0  0  0  0
 41 42  2  0  0  0  0
 41 40  1  0  0  0  0
 43 41  1  0  0  0  0
 43 44  1  0  0  0  0
 45 46  1  0  0  0  0
 46 47  1  0  0  0  0
 46 48  1  0  0  0  0
 49 50  1  0  0  0  0
 51 50  1  0  0  0  0
 51 52  1  0  0  0  0
 53 52  1  0  0  0  0
 53 54  1  0  0  0  0
M  END
>  <REMARK>
 VINA RESULT:    -4.241      8.108     14.256
 INTER + INTRA:         -15.821
 INTER:                 -11.139
 INTRA:                  -4.682
 UNBOUND:                -7.118
 SMILES CC(=O)N[C@@H]1[C@@H](O)C[C@](O)(C(=O)O)O[C@H]1C(O)[C@H](O)CNC(=O)OCc1cn(C[C@H](CC(=O)O)CC(C)C)nn1
 SMILES IDX 24 1 22 2 21 3 23 5 20 6 18 7 16 8 15 9 9 10 8 11 14 12 6 13
 SMILES IDX 5 14 10 15 11 17 12 18 13 19 7 21 4 23 2 24 1 26 3 27 17 28
 SMILES IDX 19 30 25 32 26 33 27 34 40 35 28 36 39 37 29 38 30 39 31 40
 SMILES IDX 32 41 33 42 34 43 35 45 36 46 37 47 38 48
 H PARENT 21 4 10 16 13 20 7 22 4 25 17 29 19 31 34 44
 Flexibility Score: inf
  4 active torsions:
  status: ('A' for Active; 'I' for Inactive)
    1  A    between atoms: CA   and  CB  
    2  A    between atoms: CB   and  CG  
    3  A    between atoms: CG   and  CD  
    4  A    between atoms: CD   and  CE  

>  <TORSDO>
F 21

>  <BEGIN_>
RES LYS A 131

$$$$
ligand_74_pose_9_2HRL.pdbqt
 OpenBabel07062320523D

  6  5  0  0  0  0  0  0  0  0999 V2000
   33.1930   34.6630    9.2900 C   0  0  0  0  0  0  0  0  0  0  0  0
   32.0600   35.3600   10.0340 C   0  0  0  0  0  0  0  0  0  0  0  0
   32.1630   35.2460   11.5330 C   0  0  0  0  0  0  0  0  0  0  0  0
   32.1940   36.6240   12.1760 C   0  0  0  0  0  0  0  0  0  0  0  0
   31.6830   37.6740   11.2080 C   0  0  0  0  0  0  0  0  0  0  0  0
   31.4400   38.9690   11.9020 N   0  0  0  0  0  0  0  0  0  0  0  0
  1  2  1  0  0  0  0
  2  3  1  0  0  0  0
  3  4  1  0  0  0  0
  5  6  1  0  0  0  0
  5  4  1  0  0  0  0
M  END
>  <EGIN_R>
ES LYS A 135

>  <REMARK>
  4 active torsions:
  status: ('A' for Active; 'I' for Inactive)
    5  A    between atoms: CA   and  CB  
    6  A    between atoms: CB   and  CG  
    7  A    between atoms: CG   and  CD  
    8  A    between atoms: CD   and  CE  

$$$$
