ligand_67_pose_7_2HRL.pdbqt
 OpenBabel07062320523D

 50 51  0  0  1  0  0  0  0  0999 V2000
   25.6900   28.1970   17.6120 N   0  0  0  0  0  0  0  0  0  0  0  0
   25.3500   29.3570   16.8740 C   0  0  0  0  0  0  0  0  0  0  0  0
   26.2850   30.1170   16.4450 O   0  0  0  0  0  0  0  0  0  0  0  0
   24.9420   27.5760   17.9620 H   0  0  0  0  0  0  0  0  0  0  0  0
   27.0600   27.8970   17.8630 C   0  0  0  0  0  0  0  0  0  0  0  0
   27.3770   27.6880   19.3190 C   0  0  2  0  0  0  0  0  0  0  0  0
   27.8300   28.9400   20.0070 C   0  0  1  0  0  0  0  0  0  0  0  0
   29.3410   29.0010   20.0560 C   0  0  2  0  0  0  0  0  0  0  0  0
   31.0910   28.6650   21.5500 C   0  0  2  0  0  0  0  0  0  0  0  0
   31.7620   29.8810   20.9780 C   0  0  0  0  0  0  0  0  0  0  0  0
   29.7490   28.5750   21.2930 O   0  0  0  0  0  0  0  0  0  0  0  0
   30.7010   30.9470   20.8030 C   0  0  1  0  0  0  0  0  0  0  0  0
   29.7360   30.4360   19.7420 C   0  0  1  0  0  0  0  0  0  0  0  0
   31.2290   28.7410   22.9550 O   0  0  0  0  0  0  0  0  0  0  0  0
   31.0570   27.8810   23.3840 H   0  0  0  0  0  0  0  0  0  0  0  0
   31.8400   27.4310   21.1530 C   0  0  0  0  0  0  0  0  0  0  0  0
   32.2140   26.5500   21.9590 O   0  0  0  0  0  0  0  0  0  0  0  0
   32.1280   27.2730   19.8050 O   0  0  0  0  0  0  0  0  0  0  0  0
   32.8250   27.8170   19.3060 H   0  0  0  0  0  0  0  0  0  0  0  0
   30.0020   31.0740   22.0120 O   0  0  0  0  0  0  0  0  0  0  0  0
   29.9060   32.0160   22.2890 H   0  0  0  0  0  0  0  0  0  0  0  0
   30.3930   30.5370   18.4480 N   0  0  0  0  0  0  0  0  0  0  0  0
   29.8570   31.4090   17.4670 C   0  0  0  0  0  0  0  0  0  0  0  0
   31.2620   29.9680   18.2320 H   0  0  0  0  0  0  0  0  0  0  0  0
   30.4530   31.5800   16.1180 C   0  0  0  0  0  0  0  0  0  0  0  0
   28.8210   32.0700   17.7670 O   0  0  0  0  0  0  0  0  0  0  0  0
   27.2680   30.0720   19.4190 O   0  0  0  0  0  0  0  0  0  0  0  0
   27.9080   30.6110   18.9050 H   0  0  0  0  0  0  0  0  0  0  0  0
   28.3570   26.7130   19.4320 O   0  0  0  0  0  0  0  0  0  0  0  0
   29.2040   27.0430   19.7830 H   0  0  0  0  0  0  0  0  0  0  0  0
   24.0740   29.7400   16.5750 O   0  0  0  0  0  0  0  0  0  0  0  0
   23.6960   30.7100   15.6170 C   0  0  0  0  0  0  0  0  0  0  0  0
   23.2150   30.0990   14.3550 C   0  0  0  0  0  0  0  0  0  0  0  0
   21.9050   29.8910   13.9910 C   0  0  0  0  0  0  0  0  0  0  0  0
   23.9590   29.6350   13.3390 N   0  0  0  0  0  0  0  0  0  0  0  0
   21.8910   29.3110   12.7720 N   0  0  0  0  0  0  0  0  0  0  0  0
   23.1500   29.1670   12.4010 N   0  0  0  0  0  0  0  0  0  0  0  0
   20.7440   28.9050   11.9710 C   0  0  0  0  0  0  0  0  0  0  0  0
   19.4550   29.3640   12.6180 C   0  0  0  0  0  0  0  0  0  0  0  0
   18.5800   28.2070   12.9650 C   0  0  0  0  0  0  0  0  0  0  0  0
   19.2710   27.0530   13.3090 O   0  0  0  0  0  0  0  0  0  0  0  0
   17.6830   27.8520   11.9680 O   0  0  0  0  0  0  0  0  0  0  0  0
   18.3940   25.9930   13.0960 C   0  0  0  0  0  0  0  0  0  0  0  0
   17.3790   26.5210   12.1250 C   0  0  0  0  0  0  0  0  0  0  0  0
   29.8670   25.5550   16.9770 C   0  0  0  0  0  0  0  0  0  0  0  0
   28.3450   25.7220   17.0260 C   0  0  0  0  0  0  0  0  0  0  0  0
   27.5990   24.4580   16.6280 C   0  0  0  0  0  0  0  0  0  0  0  0
   27.0670   23.7150   17.8220 C   0  0  0  0  0  0  0  0  0  0  0  0
   25.8240   24.4230   18.3500 C   0  0  0  0  0  0  0  0  0  0  0  0
   24.8430   24.6320   17.2590 N   0  0  0  0  0  0  0  0  0  0  0  0
  1  5  1  0  0  0  0
  1  4  1  0  0  0  0
  2  1  1  0  0  0  0
  3  2  2  0  0  0  0
  6  5  1  6  0  0  0
  6 29  1  0  0  0  0
  6  7  1  0  0  0  0
  7 27  1  6  0  0  0
  8  7  1  1  0  0  0
  8 11  1  0  0  0  0
  9 16  1  6  0  0  0
  9 14  1  0  0  0  0
 10  9  1  0  0  0  0
 11  9  1  0  0  0  0
 12 10  1  0  0  0  0
 12 20  1  1  0  0  0
 13 22  1  6  0  0  0
 13  8  1  0  0  0  0
 13 12  1  0  0  0  0
 14 15  1  0  0  0  0
 16 17  2  0  0  0  0
 18 16  1  0  0  0  0
 19 18  1  0  0  0  0
 20 21  1  0  0  0  0
 23 26  2  0  0  0  0
 23 22  1  0  0  0  0
 24 22  1  0  0  0  0
 25 23  1  0  0  0  0
 28 27  1  0  0  0  0
 29 30  1  0  0  0  0
 31  2  1  0  0  0  0
 32 31  1  0  0  0  0
 33 32  1  0  0  0  0
 34 33  2  0  0  0  0
 35 33  1  0  0  0  0
 36 34  1  0  0  0  0
 37 36  1  0  0  0  0
 37 35  2  0  0  0  0
 38 39  1  0  0  0  0
 38 36  1  0  0  0  0
 39 40  1  0  0  0  0
 40 41  1  0  0  0  0
 42 44  1  0  0  0  0
 42 40  1  0  0  0  0
 43 41  1  0  0  0  0
 44 43  1  0  0  0  0
 45 46  1  0  0  0  0
 47 46  1  0  0  0  0
 47 48  1  0  0  0  0
 48 49  1  0  0  0  0
 50 49  1  0  0  0  0
M  END
>  <REMARK>
 VINA RESULT:    -4.382      4.279      7.917
 INTER + INTRA:         -14.389
 INTER:                  -8.864
 INTRA:                  -5.525
 UNBOUND:                -6.292
 SMILES CC(=O)N[C@@H]1[C@@H](O)C[C@](O)(C(=O)O)O[C@H]1C(O)[C@H](O)CNC(=O)OCc1cn(CCC2OCCO2)nn1
 SMILES IDX 21 1 22 2 23 3 20 5 18 6 16 7 15 8 9 9 8 10 14 11 6 12 5 13
 SMILES IDX 10 14 11 16 12 17 13 18 7 20 4 22 2 23 1 25 3 26 17 27 19 29
 SMILES IDX 24 31 25 32 26 33 27 34 37 35 28 36 36 37 29 38 30 39 31 40
 SMILES IDX 32 41 35 42 33 43 34 44
 H PARENT 21 4 10 15 13 19 7 21 4 24 17 28 19 30
 Flexibility Score: inf
  4 active torsions:
  status: ('A' for Active; 'I' for Inactive)
    1  A    between atoms: CA   and  CB  
    2  A    between atoms: CB   and  CG  
    3  A    between atoms: CG   and  CD  
    4  A    between atoms: CD   and  CE  

>  <TORSDO>
F 17

>  <BEGIN_>
RES LYS A 131

$$$$
ligand_67_pose_7_2HRL.pdbqt
 OpenBabel07062320523D

  6  5  0  0  0  0  0  0  0  0999 V2000
   33.1930   34.6630    9.2900 C   0  0  0  0  0  0  0  0  0  0  0  0
   32.0600   35.3600   10.0340 C   0  0  0  0  0  0  0  0  0  0  0  0
   30.8030   35.5070    9.2160 C   0  0  0  0  0  0  0  0  0  0  0  0
   30.1320   34.1560    9.0170 C   0  0  0  0  0  0  0  0  0  0  0  0
   28.6750   34.3370    8.6350 C   0  0  0  0  0  0  0  0  0  0  0  0
   27.7770   33.6610    9.6120 N   0  0  0  0  0  0  0  0  0  0  0  0
  1  2  1  0  0  0  0
  3  2  1  0  0  0  0
  4  3  1  0  0  0  0
  5  4  1  0  0  0  0
  5  6  1  0  0  0  0
M  END
>  <EGIN_R>
ES LYS A 135

>  <REMARK>
  4 active torsions:
  status: ('A' for Active; 'I' for Inactive)
    5  A    between atoms: CA   and  CB  
    6  A    between atoms: CB   and  CG  
    7  A    between atoms: CG   and  CD  
    8  A    between atoms: CD   and  CE  

$$$$
