ligand_23_pose_1_2HRL.pdbqt
 OpenBabel07062320523D

 55 56  0  0  1  0  0  0  0  0999 V2000
   29.2980   26.9970   20.2240 N   0  0  0  0  0  0  0  0  0  0  0  0
   28.0330   27.6320   20.1260 C   0  0  0  0  0  0  0  0  0  0  0  0
   27.5960   28.2530   21.1100 O   0  0  0  0  0  0  0  0  0  0  0  0
   29.6070   26.4890   19.3520 H   0  0  0  0  0  0  0  0  0  0  0  0
   30.1030   27.0380   21.4180 C   0  0  0  0  0  0  0  0  0  0  0  0
   31.4500   27.6730   21.1420 C   0  0  2  0  0  0  0  0  0  0  0  0
   31.2860   29.1850   21.0770 C   0  0  1  0  0  0  0  0  0  0  0  0
   32.6530   29.8270   21.3030 C   0  0  2  0  0  0  0  0  0  0  0  0
   33.8620   29.3010   23.2090 C   0  0  2  0  0  0  0  0  0  0  0  0
   34.4890   30.6730   23.2940 C   0  0  0  0  0  0  0  0  0  0  0  0
   33.4950   28.9580   21.9240 O   0  0  0  0  0  0  0  0  0  0  0  0
   33.8560   31.6630   22.3770 C   0  0  1  0  0  0  0  0  0  0  0  0
   32.4700   31.1460   21.9910 C   0  0  1  0  0  0  0  0  0  0  0  0
   32.7680   29.1770   24.0620 O   0  0  0  0  0  0  0  0  0  0  0  0
   32.5960   30.0710   24.4940 H   0  0  0  0  0  0  0  0  0  0  0  0
   34.8920   28.3250   23.6530 C   0  0  0  0  0  0  0  0  0  0  0  0
   34.7670   27.6720   24.7230 O   0  0  0  0  0  0  0  0  0  0  0  0
   36.0480   28.0850   22.9080 O   0  0  0  0  0  0  0  0  0  0  0  0
   36.0810   28.3220   21.9230 H   0  0  0  0  0  0  0  0  0  0  0  0
   33.7730   32.9430   22.8960 O   0  0  0  0  0  0  0  0  0  0  0  0
   32.8400   33.2140   23.1290 H   0  0  0  0  0  0  0  0  0  0  0  0
   31.8740   32.0620   21.0340 N   0  0  0  0  0  0  0  0  0  0  0  0
   30.6810   32.7910   21.3140 C   0  0  0  0  0  0  0  0  0  0  0  0
   32.3440   32.1920   20.0950 H   0  0  0  0  0  0  0  0  0  0  0  0
   30.1620   33.7000   20.2600 C   0  0  0  0  0  0  0  0  0  0  0  0
   30.1420   32.6270   22.4210 O   0  0  0  0  0  0  0  0  0  0  0  0
   30.8610   29.5090   19.8010 O   0  0  0  0  0  0  0  0  0  0  0  0
   29.9580   29.1560   19.6220 H   0  0  0  0  0  0  0  0  0  0  0  0
   31.9120   27.1910   19.9040 O   0  0  0  0  0  0  0  0  0  0  0  0
   31.4840   27.6930   19.1420 H   0  0  0  0  0  0  0  0  0  0  0  0
   27.2750   27.5710   18.9530 O   0  0  0  0  0  0  0  0  0  0  0  0
   26.6000   28.7090   18.4570 C   0  0  0  0  0  0  0  0  0  0  0  0
   27.4560   29.4240   17.4780 C   0  0  0  0  0  0  0  0  0  0  0  0
   28.1380   30.5980   17.7310 C   0  0  0  0  0  0  0  0  0  0  0  0
   27.7310   29.0960   16.2100 N   0  0  0  0  0  0  0  0  0  0  0  0
   28.7800   30.8970   16.5910 N   0  0  0  0  0  0  0  0  0  0  0  0
   28.5390   29.9890   15.6580 N   0  0  0  0  0  0  0  0  0  0  0  0
   29.6140   32.0360   16.3890 C   0  0  0  0  0  0  0  0  0  0  0  0
   29.2400   33.3090   16.7570 C   0  0  0  0  0  0  0  0  0  0  0  0
   30.8600   31.8940   15.8000 C   0  0  0  0  0  0  0  0  0  0  0  0
   30.0610   34.4170   16.5560 C   0  0  0  0  0  0  0  0  0  0  0  0
   31.6850   32.9670   15.5930 C   0  0  0  0  0  0  0  0  0  0  0  0
   31.2830   34.2250   15.9710 C   0  0  0  0  0  0  0  0  0  0  0  0
   29.5840   36.0180   17.0210 S   0  0  0  0  0  0  0  0  0  0  0  0
   28.2130   35.9390   17.6450 O   0  0  0  0  0  0  0  0  0  0  0  0
   29.4410   36.8750   15.7860 O   0  0  0  0  0  0  0  0  0  0  0  0
   30.6780   36.7070   18.1500 N   0  0  0  0  0  0  0  0  0  0  0  0
   30.9160   36.0090   18.8780 H   0  0  0  0  0  0  0  0  0  0  0  0
   30.3160   37.5870   18.5710 H   0  0  0  0  0  0  0  0  0  0  0  0
   29.8670   25.5550   16.9770 C   0  0  0  0  0  0  0  0  0  0  0  0
   28.3450   25.7220   17.0260 C   0  0  0  0  0  0  0  0  0  0  0  0
   27.6010   24.4030   16.8860 C   0  0  0  0  0  0  0  0  0  0  0  0
   26.5970   24.1990   17.9860 C   0  0  0  0  0  0  0  0  0  0  0  0
   25.2370   23.8690   17.3800 C   0  0  0  0  0  0  0  0  0  0  0  0
   24.9480   22.4210   17.5130 N   0  0  0  0  0  0  0  0  0  0  0  0
  1  5  1  0  0  0  0
  2  1  1  0  0  0  0
  2  3  2  0  0  0  0
  4  1  1  0  0  0  0
  6  5  1  6  0  0  0
  7 27  1  6  0  0  0
  7  6  1  0  0  0  0
  8  7  1  1  0  0  0
  8 11  1  0  0  0  0
  8 13  1  0  0  0  0
  9 10  1  0  0  0  0
  9 16  1  1  0  0  0
  9 14  1  0  0  0  0
 11  9  1  0  0  0  0
 12 20  1  1  0  0  0
 12 10  1  0  0  0  0
 13 22  1  6  0  0  0
 13 12  1  0  0  0  0
 14 15  1  0  0  0  0
 16 17  2  0  0  0  0
 18 16  1  0  0  0  0
 19 18  1  0  0  0  0
 20 21  1  0  0  0  0
 22 23  1  0  0  0  0
 23 26  2  0  0  0  0
 24 22  1  0  0  0  0
 25 23  1  0  0  0  0
 28 27  1  0  0  0  0
 29  6  1  0  0  0  0
 30 29  1  0  0  0  0
 31  2  1  0  0  0  0
 32 31  1  0  0  0  0
 33 34  2  0  0  0  0
 33 32  1  0  0  0  0
 35 33  1  0  0  0  0
 36 34  1  0  0  0  0
 37 35  2  0  0  0  0
 37 36  1  0  0  0  0
 38 36  1  0  0  0  0
 38 39  2  0  0  0  0
 40 38  1  0  0  0  0
 41 39  1  0  0  0  0
 41 44  1  0  0  0  0
 42 40  2  0  0  0  0
 42 43  1  0  0  0  0
 43 41  2  0  0  0  0
 44 45  2  0  0  0  0
 44 47  1  0  0  0  0
 46 44  2  0  0  0  0
 47 49  1  0  0  0  0
 47 48  1  0  0  0  0
 50 51  1  0  0  0  0
 52 51  1  0  0  0  0
 52 53  1  0  0  0  0
 54 55  1  0  0  0  0
 54 53  1  0  0  0  0
M  END
>  <REMARK>
 VINA RESULT:    -4.844      5.273     12.378
 INTER + INTRA:         -15.433
 INTER:                  -9.345
 INTRA:                  -6.088
 UNBOUND:                -6.624
 SMILES CC(=O)N[C@@H]1[C@@H](O)C[C@](O)(C(=O)O)O[C@H]1C(O)[C@H](O)CNC(=O)OCc1cn(-c2cccc(S(N)(=O)=O)c2)nn1
 SMILES IDX 21 1 22 2 23 3 20 5 18 6 16 7 15 8 9 9 8 10 14 11 6 12 5 13
 SMILES IDX 10 14 11 16 12 17 13 18 7 20 4 22 2 23 1 25 3 26 17 27 19 29
 SMILES IDX 24 31 25 32 26 33 27 34 40 35 28 36 39 37 29 38 38 39 30 40
 SMILES IDX 33 41 31 42 32 43 34 44 36 45 37 46 35 47
 H PARENT 21 4 10 15 13 19 7 21 4 24 17 28 19 30 35 48 35 49
 Flexibility Score: inf
  4 active torsions:
  status: ('A' for Active; 'I' for Inactive)
    1  A    between atoms: CA   and  CB  
    2  A    between atoms: CB   and  CG  
    3  A    between atoms: CG   and  CD  
    4  A    between atoms: CD   and  CE  

>  <TORSDO>
F 17

>  <BEGIN_>
RES LYS A 131

$$$$
ligand_23_pose_1_2HRL.pdbqt
 OpenBabel07062320523D

  6  5  0  0  0  0  0  0  0  0999 V2000
   33.1930   34.6630    9.2900 C   0  0  0  0  0  0  0  0  0  0  0  0
   32.0600   35.3600   10.0340 C   0  0  0  0  0  0  0  0  0  0  0  0
   30.8500   35.6250    9.1760 C   0  0  0  0  0  0  0  0  0  0  0  0
   30.2420   34.3200    8.6870 C   0  0  0  0  0  0  0  0  0  0  0  0
   28.7570   34.4880    8.4260 C   0  0  0  0  0  0  0  0  0  0  0  0
   27.9480   33.7500    9.4350 N   0  0  0  0  0  0  0  0  0  0  0  0
  1  2  1  0  0  0  0
  3  2  1  0  0  0  0
  4  3  1  0  0  0  0
  5  4  1  0  0  0  0
  5  6  1  0  0  0  0
M  END
>  <EGIN_R>
ES LYS A 135

>  <REMARK>
  4 active torsions:
  status: ('A' for Active; 'I' for Inactive)
    5  A    between atoms: CA   and  CB  
    6  A    between atoms: CB   and  CG  
    7  A    between atoms: CG   and  CD  
    8  A    between atoms: CD   and  CE  

$$$$
