ligand_84_pose_5_2HRL.pdbqt
 OpenBabel07062320523D

 60 62  0  0  1  0  0  0  0  0999 V2000
   27.3870   30.2670   18.2130 O   0  0  0  0  0  0  0  0  0  0  0  0
   27.6160   29.3720   19.2470 C   0  0  0  0  0  0  0  0  0  0  0  0
   28.8780   28.7760   19.5220 N   0  0  0  0  0  0  0  0  0  0  0  0
   29.6600   29.0350   18.8910 H   0  0  0  0  0  0  0  0  0  0  0  0
   26.6190   29.0960   19.9670 O   0  0  0  0  0  0  0  0  0  0  0  0
   28.9450   27.8850   20.6340 C   0  0  0  0  0  0  0  0  0  0  0  0
   30.2710   27.6970   21.2550 C   0  0  2  0  0  0  0  0  0  0  0  0
   31.4530   28.1900   20.4400 C   0  0  1  0  0  0  0  0  0  0  0  0
   32.3670   28.8530   21.4730 C   0  0  2  0  0  0  0  0  0  0  0  0
   33.1110   28.4510   23.6480 C   0  0  2  0  0  0  0  0  0  0  0  0
   32.9900   29.9160   23.9580 C   0  0  0  0  0  0  0  0  0  0  0  0
   32.3680   28.0420   22.5730 O   0  0  0  0  0  0  0  0  0  0  0  0
   32.9170   30.8040   22.7680 C   0  0  1  0  0  0  0  0  0  0  0  0
   31.8520   30.2100   21.8200 C   0  0  1  0  0  0  0  0  0  0  0  0
   32.5660   27.7960   24.7820 O   0  0  0  0  0  0  0  0  0  0  0  0
   31.6140   27.6200   24.6660 H   0  0  0  0  0  0  0  0  0  0  0  0
   34.5280   27.9920   23.5560 C   0  0  0  0  0  0  0  0  0  0  0  0
   35.4640   28.7540   23.9090 O   0  0  0  0  0  0  0  0  0  0  0  0
   34.8850   26.7350   23.0900 O   0  0  0  0  0  0  0  0  0  0  0  0
   35.4490   26.5680   22.2650 H   0  0  0  0  0  0  0  0  0  0  0  0
   32.4790   32.0640   23.1750 O   0  0  0  0  0  0  0  0  0  0  0  0
   32.1880   32.6040   22.3930 H   0  0  0  0  0  0  0  0  0  0  0  0
   31.6830   31.0650   20.6750 N   0  0  0  0  0  0  0  0  0  0  0  0
   30.4430   31.6820   20.3960 C   0  0  0  0  0  0  0  0  0  0  0  0
   32.4870   31.2280   20.0460 H   0  0  0  0  0  0  0  0  0  0  0  0
   30.3780   32.5480   19.1810 C   0  0  0  0  0  0  0  0  0  0  0  0
   29.4280   31.5360   21.1080 O   0  0  0  0  0  0  0  0  0  0  0  0
   32.0860   27.0810   19.8550 O   0  0  0  0  0  0  0  0  0  0  0  0
   32.1330   26.3880   20.5620 H   0  0  0  0  0  0  0  0  0  0  0  0
   30.4840   26.2930   21.3360 O   0  0  0  0  0  0  0  0  0  0  0  0
   31.4430   26.2110   21.6050 H   0  0  0  0  0  0  0  0  0  0  0  0
   27.8440   29.9910   16.8990 C   0  0  0  0  0  0  0  0  0  0  0  0
   28.1220   31.2510   16.1730 C   0  0  0  0  0  0  0  0  0  0  0  0
   29.3770   31.5970   15.6650 C   0  0  0  0  0  0  0  0  0  0  0  0
   27.3350   32.2800   15.8300 N   0  0  0  0  0  0  0  0  0  0  0  0
   29.3190   32.7850   15.0480 N   0  0  0  0  0  0  0  0  0  0  0  0
   28.0340   33.1860   15.1700 N   0  0  0  0  0  0  0  0  0  0  0  0
   30.3610   33.5250   14.3600 C   0  0  0  0  0  0  0  0  0  0  0  0
   31.0840   34.4310   15.3650 C   0  0  1  0  0  0  0  0  0  0  0  0
   32.5460   34.1870   15.3810 C   0  0  0  0  0  0  0  0  0  0  0  0
   30.5810   35.8130   15.3180 C   0  0  0  0  0  0  0  0  0  0  0  0
   30.4460   36.3340   13.9940 N   0  0  0  0  0  0  0  0  0  0  0  0
   29.1350   37.0230   13.8560 C   0  0  0  0  0  0  0  0  0  0  0  0
   31.4130   37.4080   13.7860 C   0  0  0  0  0  0  0  0  0  0  0  0
   29.0200   37.7200   12.5460 C   0  0  0  0  0  0  0  0  0  0  0  0
   31.5190   37.5290   12.2580 C   0  0  0  0  0  0  0  0  0  0  0  0
   30.2010   37.7590   11.7410 N   0  0  0  0  0  0  0  0  0  0  0  0
   30.0800   38.0470   10.3530 C   0  0  0  0  0  0  0  0  0  0  0  0
   28.8420   37.9840    9.7540 C   0  0  0  0  0  0  0  0  0  0  0  0
   31.1930   38.3820    9.5940 C   0  0  0  0  0  0  0  0  0  0  0  0
   28.7330   38.2550    8.4100 C   0  0  0  0  0  0  0  0  0  0  0  0
   31.0730   38.6480    8.2560 C   0  0  0  0  0  0  0  0  0  0  0  0
   29.8220   38.5840    7.6610 C   0  0  0  0  0  0  0  0  0  0  0  0
   29.6870   38.9190    5.9560 Cl  0  0  0  0  0  0  0  0  0  0  0  0
   29.8670   25.5550   16.9770 C   0  0  0  0  0  0  0  0  0  0  0  0
   28.3450   25.7220   17.0260 C   0  0  0  0  0  0  0  0  0  0  0  0
   27.6020   24.4000   16.9110 C   0  0  0  0  0  0  0  0  0  0  0  0
   26.6340   24.1940   18.0430 C   0  0  0  0  0  0  0  0  0  0  0  0
   25.4260   25.1060   17.8520 C   0  0  0  0  0  0  0  0  0  0  0  0
   24.4740   24.5110   16.8850 N   0  0  0  0  0  0  0  0  0  0  0  0
  1  2  1  0  0  0  0
  2  3  1  0  0  0  0
  2  5  2  0  0  0  0
  3  6  1  0  0  0  0
  4  3  1  0  0  0  0
  7  6  1  6  0  0  0
  7 30  1  0  0  0  0
  8 28  1  1  0  0  0
  8  7  1  0  0  0  0
  9  8  1  6  0  0  0
  9 14  1  0  0  0  0
  9 12  1  0  0  0  0
 10 17  1  6  0  0  0
 10 11  1  0  0  0  0
 10 15  1  0  0  0  0
 12 10  1  0  0  0  0
 13 21  1  1  0  0  0
 13 11  1  0  0  0  0
 14 23  1  6  0  0  0
 14 13  1  0  0  0  0
 16 15  1  0  0  0  0
 17 18  2  0  0  0  0
 19 17  1  0  0  0  0
 20 19  1  0  0  0  0
 22 21  1  0  0  0  0
 24 23  1  0  0  0  0
 24 27  2  0  0  0  0
 25 23  1  0  0  0  0
 26 24  1  0  0  0  0
 28 29  1  0  0  0  0
 30 31  1  0  0  0  0
 32  1  1  0  0  0  0
 33 32  1  0  0  0  0
 34 33  2  0  0  0  0
 35 33  1  0  0  0  0
 36 37  1  0  0  0  0
 36 34  1  0  0  0  0
 37 35  2  0  0  0  0
 38 36  1  0  0  0  0
 38 39  1  0  0  0  0
 39 40  1  6  0  0  0
 41 39  1  0  0  0  0
 42 41  1  0  0  0  0
 43 42  1  0  0  0  0
 44 42  1  0  0  0  0
 45 43  1  0  0  0  0
 46 44  1  0  0  0  0
 47 46  1  0  0  0  0
 47 45  1  0  0  0  0
 48 47  1  0  0  0  0
 49 48  1  0  0  0  0
 50 48  2  0  0  0  0
 51 49  2  0  0  0  0
 52 50  1  0  0  0  0
 53 52  2  0  0  0  0
 53 51  1  0  0  0  0
 54 53  1  0  0  0  0
 55 56  1  0  0  0  0
 57 56  1  0  0  0  0
 57 58  1  0  0  0  0
 59 58  1  0  0  0  0
 60 59  1  0  0  0  0
M  END
>  <REMARK>
 VINA RESULT:    -5.216      7.822     12.685
 INTER + INTRA:         -16.369
 INTER:                 -10.515
 INTRA:                  -5.854
 UNBOUND:                -6.121
 SMILES CC(=O)N[C@@H]1[C@@H](O)C[C@](O)(C(=O)O)O[C@H]1C(O)[C@H](O)CNC(=O)OCc1cn(C[C@@H](C)CN2CCN(c3ccc(Cl)cc3)CC2)nn1
 SMILES IDX 24 1 22 2 21 3 23 5 20 6 18 7 16 8 15 9 9 10 8 11 14 12 6 13
 SMILES IDX 5 14 10 15 11 17 12 18 13 19 7 21 4 23 2 24 1 26 3 27 17 28
 SMILES IDX 19 30 25 32 26 33 27 34 47 35 28 36 46 37 29 38 30 39 31 40
 SMILES IDX 32 41 33 42 34 43 45 44 35 45 44 46 36 47 37 48 38 49 43 50
 SMILES IDX 39 51 42 52 40 53 41 54
 H PARENT 21 4 10 16 13 20 7 22 4 25 17 29 19 31
 Flexibility Score: inf
  4 active torsions:
  status: ('A' for Active; 'I' for Inactive)
    1  A    between atoms: CA   and  CB  
    2  A    between atoms: CB   and  CG  
    3  A    between atoms: CG   and  CD  
    4  A    between atoms: CD   and  CE  

>  <TORSDO>
F 19

>  <BEGIN_>
RES LYS A 131

$$$$
ligand_84_pose_5_2HRL.pdbqt
 OpenBabel07062320523D

  6  5  0  0  0  0  0  0  0  0999 V2000
   33.1930   34.6630    9.2900 C   0  0  0  0  0  0  0  0  0  0  0  0
   32.0600   35.3600   10.0340 C   0  0  0  0  0  0  0  0  0  0  0  0
   30.7330   34.6570    9.9070 C   0  0  0  0  0  0  0  0  0  0  0  0
   30.3180   34.5550    8.4470 C   0  0  0  0  0  0  0  0  0  0  0  0
   28.8060   34.5390    8.3240 C   0  0  0  0  0  0  0  0  0  0  0  0
   28.1830   33.7980    9.4550 N   0  0  0  0  0  0  0  0  0  0  0  0
  1  2  1  0  0  0  0
  3  2  1  0  0  0  0
  4  3  1  0  0  0  0
  5  4  1  0  0  0  0
  5  6  1  0  0  0  0
M  END
>  <EGIN_R>
ES LYS A 135

>  <REMARK>
  4 active torsions:
  status: ('A' for Active; 'I' for Inactive)
    5  A    between atoms: CA   and  CB  
    6  A    between atoms: CB   and  CG  
    7  A    between atoms: CG   and  CD  
    8  A    between atoms: CD   and  CE  

$$$$
