ligand_58_pose_14_2HRL.pdbqt
 OpenBabel07062320523D

 56 58  0  0  1  0  0  0  0  0999 V2000
   25.3140   39.3490    6.7810 N   0  0  0  0  0  0  0  0  0  0  0  0
   24.0830   39.9680    7.0870 C   0  0  0  0  0  0  0  0  0  0  0  0
   23.9030   41.1800    6.8220 O   0  0  0  0  0  0  0  0  0  0  0  0
   25.4330   38.3430    7.0160 H   0  0  0  0  0  0  0  0  0  0  0  0
   26.3820   40.0700    6.1630 C   0  0  0  0  0  0  0  0  0  0  0  0
   27.1770   39.1090    5.2780 C   0  0  2  0  0  0  0  0  0  0  0  0
   27.5390   37.9360    6.1740 C   0  0  2  0  0  0  0  0  0  0  0  0
   28.9680   37.9160    6.6400 C   0  0  2  0  0  0  0  0  0  0  0  0
   28.9330   36.0150    8.0300 C   0  0  2  0  0  0  0  0  0  0  0  0
   29.0530   36.8800    9.2660 C   0  0  0  0  0  0  0  0  0  0  0  0
   29.2990   36.5940    6.8630 O   0  0  0  0  0  0  0  0  0  0  0  0
   28.5600   38.2790    9.0500 C   0  0  1  0  0  0  0  0  0  0  0  0
   29.2110   38.7960    7.8020 C   0  0  1  0  0  0  0  0  0  0  0  0
   27.5830   35.6670    7.9480 O   0  0  0  0  0  0  0  0  0  0  0  0
   27.2830   35.4680    8.8800 H   0  0  0  0  0  0  0  0  0  0  0  0
   29.6880   34.7330    8.2780 C   0  0  0  0  0  0  0  0  0  0  0  0
   29.2090   33.8220    8.9600 O   0  0  0  0  0  0  0  0  0  0  0  0
   30.9380   34.5980    7.7210 O   0  0  0  0  0  0  0  0  0  0  0  0
   31.7120   34.2670    8.3080 H   0  0  0  0  0  0  0  0  0  0  0  0
   27.1950   38.2600    9.0170 O   0  0  0  0  0  0  0  0  0  0  0  0
   26.8370   38.8550    8.3020 H   0  0  0  0  0  0  0  0  0  0  0  0
   30.6550   38.9080    8.0890 N   0  0  0  0  0  0  0  0  0  0  0  0
   31.2970   40.1510    8.2230 C   0  0  0  0  0  0  0  0  0  0  0  0
   31.2020   38.0270    8.1890 H   0  0  0  0  0  0  0  0  0  0  0  0
   32.7540   40.2190    8.5120 C   0  0  0  0  0  0  0  0  0  0  0  0
   30.6470   41.2250    8.1010 O   0  0  0  0  0  0  0  0  0  0  0  0
   27.3460   36.7790    5.3330 O   0  0  0  0  0  0  0  0  0  0  0  0
   26.6490   36.2060    5.6890 H   0  0  0  0  0  0  0  0  0  0  0  0
   28.2920   39.8260    4.8700 O   0  0  0  0  0  0  0  0  0  0  0  0
   28.1240   40.7840    4.7760 H   0  0  0  0  0  0  0  0  0  0  0  0
   23.0400   39.2700    7.6840 O   0  0  0  0  0  0  0  0  0  0  0  0
   22.9700   37.8800    7.5150 C   0  0  0  0  0  0  0  0  0  0  0  0
   23.8220   37.2250    8.5410 C   0  0  0  0  0  0  0  0  0  0  0  0
   23.6630   37.3570    9.9230 C   0  0  0  0  0  0  0  0  0  0  0  0
   24.8800   36.4080    8.4060 N   0  0  0  0  0  0  0  0  0  0  0  0
   24.6030   36.6360   10.5380 N   0  0  0  0  0  0  0  0  0  0  0  0
   25.3280   36.0710    9.6100 N   0  0  0  0  0  0  0  0  0  0  0  0
   24.8180   36.4810   11.9700 C   0  0  0  0  0  0  0  0  0  0  0  0
   23.8890   35.5120   12.5520 C   0  0  0  0  0  0  0  0  0  0  0  0
   23.3980   34.4220   11.8240 C   0  0  0  0  0  0  0  0  0  0  0  0
   23.4850   35.6470   13.8660 C   0  0  0  0  0  0  0  0  0  0  0  0
   22.5370   33.5160   12.4040 C   0  0  0  0  0  0  0  0  0  0  0  0
   22.6220   34.7250   14.4230 C   0  0  0  0  0  0  0  0  0  0  0  0
   22.1300   33.6470   13.7160 C   0  0  0  0  0  0  0  0  0  0  0  0
   26.2290   36.3300   12.3360 C   0  0  0  0  0  0  0  0  0  0  0  0
   26.8030   35.0510   12.4480 C   0  0  0  0  0  0  0  0  0  0  0  0
   27.0150   37.4330   12.5680 C   0  0  0  0  0  0  0  0  0  0  0  0
   28.1240   34.9050   12.7820 C   0  0  0  0  0  0  0  0  0  0  0  0
   28.3620   37.2710   12.9100 C   0  0  0  0  0  0  0  0  0  0  0  0
   28.9080   36.0140   13.0150 C   0  0  0  0  0  0  0  0  0  0  0  0
   29.8670   25.5550   16.9770 C   0  0  0  0  0  0  0  0  0  0  0  0
   28.3450   25.7220   17.0260 C   0  0  0  0  0  0  0  0  0  0  0  0
   27.5990   24.4610   16.6180 C   0  0  0  0  0  0  0  0  0  0  0  0
   27.0210   23.7370   17.8030 C   0  0  0  0  0  0  0  0  0  0  0  0
   25.5700   23.3650   17.5140 C   0  0  0  0  0  0  0  0  0  0  0  0
   24.8050   24.5580   17.0810 N   0  0  0  0  0  0  0  0  0  0  0  0
  1  4  1  0  0  0  0
  1  2  1  0  0  0  0
  2 31  1  0  0  0  0
  3  2  2  0  0  0  0
  5  1  1  0  0  0  0
  6  5  1  1  0  0  0
  6  7  1  0  0  0  0
  7 27  1  6  0  0  0
  8  7  1  1  0  0  0
  8 11  1  0  0  0  0
  8 13  1  0  0  0  0
  9 14  1  6  0  0  0
  9 16  1  0  0  0  0
  9 10  1  0  0  0  0
 11  9  1  0  0  0  0
 12 20  1  6  0  0  0
 12 10  1  0  0  0  0
 13 22  1  1  0  0  0
 13 12  1  0  0  0  0
 14 15  1  0  0  0  0
 16 17  2  0  0  0  0
 18 16  1  0  0  0  0
 18 19  1  0  0  0  0
 21 20  1  0  0  0  0
 22 24  1  0  0  0  0
 22 23  1  0  0  0  0
 23 25  1  0  0  0  0
 26 23  2  0  0  0  0
 27 28  1  0  0  0  0
 29  6  1  0  0  0  0
 30 29  1  0  0  0  0
 32 31  1  0  0  0  0
 32 33  1  0  0  0  0
 33 34  2  0  0  0  0
 34 36  1  0  0  0  0
 35 33  1  0  0  0  0
 35 37  2  0  0  0  0
 36 38  1  0  0  0  0
 37 36  1  0  0  0  0
 38 45  1  0  0  0  0
 38 39  1  0  0  0  0
 39 41  2  0  0  0  0
 40 42  2  0  0  0  0
 40 39  1  0  0  0  0
 41 43  1  0  0  0  0
 42 44  1  0  0  0  0
 44 43  2  0  0  0  0
 45 46  2  0  0  0  0
 45 47  1  0  0  0  0
 46 48  1  0  0  0  0
 47 49  2  0  0  0  0
 48 50  2  0  0  0  0
 49 50  1  0  0  0  0
 51 52  1  0  0  0  0
 53 52  1  0  0  0  0
 53 54  1  0  0  0  0
 55 54  1  0  0  0  0
 56 55  1  0  0  0  0
M  END
>  <REMARK>
 VINA RESULT:    -5.592      4.919      9.221
 INTER + INTRA:         -15.822
 INTER:                  -9.648
 INTRA:                  -6.174
 UNBOUND:                -5.490
 SMILES CC(=O)N[C@@H]1[C@@H](O)C[C@](O)(C(=O)O)O[C@H]1C(O)[C@H](O)CNC(=O)OCc1cn(C(c2ccccc2)c2ccccc2)nn1
 SMILES IDX 21 1 22 2 23 3 20 5 18 6 16 7 15 8 9 9 8 10 14 11 6 12 5 13
 SMILES IDX 10 14 11 16 12 17 13 18 7 20 4 22 2 23 1 25 3 26 17 27 19 29
 SMILES IDX 24 31 25 32 26 33 27 34 43 35 28 36 42 37 29 38 30 39 31 40
 SMILES IDX 35 41 32 42 34 43 33 44 36 45 37 46 41 47 38 48 40 49 39 50
 H PARENT 21 4 10 15 13 19 7 21 4 24 17 28 19 30
 Flexibility Score: inf
  4 active torsions:
  status: ('A' for Active; 'I' for Inactive)
    1  A    between atoms: CA   and  CB  
    2  A    between atoms: CB   and  CG  
    3  A    between atoms: CG   and  CD  
    4  A    between atoms: CD   and  CE  

>  <TORSDO>
F 17

>  <BEGIN_>
RES LYS A 131

$$$$
ligand_58_pose_14_2HRL.pdbqt
 OpenBabel07062320523D

  6  5  0  0  0  0  0  0  0  0999 V2000
   33.1930   34.6630    9.2900 C   0  0  0  0  0  0  0  0  0  0  0  0
   32.0600   35.3600   10.0340 C   0  0  0  0  0  0  0  0  0  0  0  0
   32.1710   35.2570   11.5330 C   0  0  0  0  0  0  0  0  0  0  0  0
   32.3330   36.6350   12.1550 C   0  0  0  0  0  0  0  0  0  0  0  0
   32.0050   37.7180   11.1450 C   0  0  0  0  0  0  0  0  0  0  0  0
   31.4370   38.9210   11.8140 N   0  0  0  0  0  0  0  0  0  0  0  0
  1  2  1  0  0  0  0
  2  3  1  0  0  0  0
  3  4  1  0  0  0  0
  5  6  1  0  0  0  0
  5  4  1  0  0  0  0
M  END
>  <EGIN_R>
ES LYS A 135

>  <REMARK>
  4 active torsions:
  status: ('A' for Active; 'I' for Inactive)
    5  A    between atoms: CA   and  CB  
    6  A    between atoms: CB   and  CG  
    7  A    between atoms: CG   and  CD  
    8  A    between atoms: CD   and  CE  

$$$$
