ligand_2_pose_11_2HRL.pdbqt
 OpenBabel07062320523D

 50 51  0  0  1  0  0  0  0  0999 V2000
   20.9550   33.7020   12.0810 C   0  0  0  0  0  0  0  0  0  0  0  0
   20.7600   35.0950   11.5710 C   0  0  2  0  0  0  0  0  0  0  0  0
   22.1400   35.6520   11.1850 C   0  0  2  0  0  0  0  0  0  0  0  0
   22.0120   36.7400   10.1210 C   0  0  2  0  0  0  0  0  0  0  0  0
   20.9350   35.9930    8.1730 C   0  0  2  0  0  0  0  0  0  0  0  0
   21.7520   36.8310    7.2140 C   0  0  0  0  0  0  0  0  0  0  0  0
   20.8460   36.4720    9.4340 O   0  0  0  0  0  0  0  0  0  0  0  0
   22.7700   37.5940    7.9830 C   0  0  1  0  0  0  0  0  0  0  0  0
   23.1630   36.7820    9.2020 C   0  0  1  0  0  0  0  0  0  0  0  0
   21.4340   34.6950    8.0780 O   0  0  0  0  0  0  0  0  0  0  0  0
   22.4060   34.7590    8.2610 H   0  0  0  0  0  0  0  0  0  0  0  0
   19.5600   35.9670    7.6110 C   0  0  0  0  0  0  0  0  0  0  0  0
   18.8080   36.9380    7.8530 O   0  0  0  0  0  0  0  0  0  0  0  0
   19.1050   34.9270    6.8490 O   0  0  0  0  0  0  0  0  0  0  0  0
   18.3170   35.0720    6.2130 H   0  0  0  0  0  0  0  0  0  0  0  0
   23.8740   37.9670    7.2250 O   0  0  0  0  0  0  0  0  0  0  0  0
   24.5580   37.2670    7.2380 H   0  0  0  0  0  0  0  0  0  0  0  0
   24.3880   37.3120    9.6930 N   0  0  0  0  0  0  0  0  0  0  0  0
   25.5950   36.5750    9.7360 C   0  0  0  0  0  0  0  0  0  0  0  0
   24.3490   38.3100   10.0330 H   0  0  0  0  0  0  0  0  0  0  0  0
   26.8490   37.1600   10.2530 C   0  0  0  0  0  0  0  0  0  0  0  0
   25.5050   35.3940    9.3000 O   0  0  0  0  0  0  0  0  0  0  0  0
   22.9500   34.6150   10.7110 O   0  0  0  0  0  0  0  0  0  0  0  0
   23.8590   34.6430   11.1230 H   0  0  0  0  0  0  0  0  0  0  0  0
   20.1250   35.9210   12.4700 O   0  0  0  0  0  0  0  0  0  0  0  0
   19.2350   36.2290   12.2280 H   0  0  0  0  0  0  0  0  0  0  0  0
   21.9500   33.5280   13.0860 N   0  0  0  0  0  0  0  0  0  0  0  0
   22.6210   32.3110   13.3650 C   0  0  0  0  0  0  0  0  0  0  0  0
   22.2260   34.3580   13.6810 H   0  0  0  0  0  0  0  0  0  0  0  0
   22.3870   31.2730   12.7250 O   0  0  0  0  0  0  0  0  0  0  0  0
   23.5830   32.2560   14.3930 O   0  0  0  0  0  0  0  0  0  0  0  0
   24.0390   33.4490   15.0250 C   0  0  0  0  0  0  0  0  0  0  0  0
   25.2430   33.8940   14.2820 C   0  0  0  0  0  0  0  0  0  0  0  0
   26.5250   33.8810   14.7480 C   0  0  0  0  0  0  0  0  0  0  0  0
   25.2790   34.3760   13.0480 N   0  0  0  0  0  0  0  0  0  0  0  0
   27.3090   34.3660   13.7630 N   0  0  0  0  0  0  0  0  0  0  0  0
   26.5360   34.6630   12.7350 N   0  0  0  0  0  0  0  0  0  0  0  0
   28.7270   34.5030   13.8890 C   0  0  0  0  0  0  0  0  0  0  0  0
   29.3570   35.5720   13.2990 C   0  0  0  0  0  0  0  0  0  0  0  0
   29.4030   33.5480   14.6050 C   0  0  0  0  0  0  0  0  0  0  0  0
   30.7280   35.6670   13.4450 C   0  0  0  0  0  0  0  0  0  0  0  0
   30.7720   33.6720   14.7320 C   0  0  0  0  0  0  0  0  0  0  0  0
   31.4470   34.7210   14.1610 C   0  0  0  0  0  0  0  0  0  0  0  0
   33.1760   34.8200   14.3580 Cl  0  0  0  0  0  0  0  0  0  0  0  0
   29.8670   25.5550   16.9770 C   0  0  0  0  0  0  0  0  0  0  0  0
   28.3450   25.7220   17.0260 C   0  0  0  0  0  0  0  0  0  0  0  0
   27.6030   24.3950   16.9850 C   0  0  0  0  0  0  0  0  0  0  0  0
   26.6210   24.2600   18.1150 C   0  0  0  0  0  0  0  0  0  0  0  0
   25.2540   23.8760   17.5580 C   0  0  0  0  0  0  0  0  0  0  0  0
   25.1070   22.4020   17.5120 N   0  0  0  0  0  0  0  0  0  0  0  0
  1 27  1  0  0  0  0
  2  1  1  1  0  0  0
  2 25  1  0  0  0  0
  3 23  1  6  0  0  0
  3  2  1  0  0  0  0
  4  3  1  1  0  0  0
  5 12  1  6  0  0  0
  5  7  1  0  0  0  0
  6  8  1  0  0  0  0
  6  5  1  0  0  0  0
  7  4  1  0  0  0  0
  8 16  1  6  0  0  0
  8  9  1  0  0  0  0
  9 18  1  1  0  0  0
  9  4  1  0  0  0  0
 10  5  1  0  0  0  0
 10 11  1  0  0  0  0
 12 13  2  0  0  0  0
 14 12  1  0  0  0  0
 15 14  1  0  0  0  0
 16 17  1  0  0  0  0
 18 19  1  0  0  0  0
 18 20  1  0  0  0  0
 19 21  1  0  0  0  0
 22 19  2  0  0  0  0
 23 24  1  0  0  0  0
 26 25  1  0  0  0  0
 27 28  1  0  0  0  0
 27 29  1  0  0  0  0
 28 31  1  0  0  0  0
 30 28  2  0  0  0  0
 31 32  1  0  0  0  0
 33 34  2  0  0  0  0
 33 32  1  0  0  0  0
 35 33  1  0  0  0  0
 36 38  1  0  0  0  0
 36 34  1  0  0  0  0
 37 35  2  0  0  0  0
 37 36  1  0  0  0  0
 38 40  2  0  0  0  0
 39 41  2  0  0  0  0
 39 38  1  0  0  0  0
 40 42  1  0  0  0  0
 41 43  1  0  0  0  0
 43 44  1  0  0  0  0
 43 42  2  0  0  0  0
 45 46  1  0  0  0  0
 47 46  1  0  0  0  0
 47 48  1  0  0  0  0
 49 48  1  0  0  0  0
 50 49  1  0  0  0  0
M  END
>  <REMARK>
 VINA RESULT:    -4.102      7.828     13.169
 INTER + INTRA:         -14.107
 INTER:                  -8.159
 INTRA:                  -5.948
 UNBOUND:                -7.007
 SMILES CC(=O)N[C@@H]1[C@@H](O)C[C@](O)(C(=O)O)O[C@H]1C(O)[C@H](O)CNC(=O)OCc1cn(-c2ccc(Cl)cc2)nn1
 SMILES IDX 20 1 18 2 16 3 15 4 9 5 8 6 14 7 6 8 5 9 10 10 11 12 12 13
 SMILES IDX 13 14 7 16 4 18 2 19 1 21 3 22 17 23 19 25 21 27 22 28 23 30
 SMILES IDX 24 31 25 32 26 33 27 34 37 35 28 36 36 37 29 38 30 39 35 40
 SMILES IDX 31 41 34 42 32 43 33 44
 H PARENT 10 11 13 15 7 17 4 20 17 24 19 26 21 29
 Flexibility Score: inf
  4 active torsions:
  status: ('A' for Active; 'I' for Inactive)
    1  A    between atoms: CA   and  CB  
    2  A    between atoms: CB   and  CG  
    3  A    between atoms: CG   and  CD  
    4  A    between atoms: CD   and  CE  

>  <TORSDO>
F 15

>  <BEGIN_>
RES LYS A 131

$$$$
ligand_2_pose_11_2HRL.pdbqt
 OpenBabel07062320523D

  6  5  0  0  0  0  0  0  0  0999 V2000
   33.1930   34.6630    9.2900 C   0  0  0  0  0  0  0  0  0  0  0  0
   32.0600   35.3600   10.0340 C   0  0  0  0  0  0  0  0  0  0  0  0
   30.7340   34.6550    9.9100 C   0  0  0  0  0  0  0  0  0  0  0  0
   30.3300   34.5240    8.4490 C   0  0  0  0  0  0  0  0  0  0  0  0
   28.8200   34.5200    8.3130 C   0  0  0  0  0  0  0  0  0  0  0  0
   28.3800   35.3840    7.1830 N   0  0  0  0  0  0  0  0  0  0  0  0
  1  2  1  0  0  0  0
  3  2  1  0  0  0  0
  4  3  1  0  0  0  0
  5  4  1  0  0  0  0
  6  5  1  0  0  0  0
M  END
>  <EGIN_R>
ES LYS A 135

>  <REMARK>
  4 active torsions:
  status: ('A' for Active; 'I' for Inactive)
    5  A    between atoms: CA   and  CB  
    6  A    between atoms: CB   and  CG  
    7  A    between atoms: CG   and  CD  
    8  A    between atoms: CD   and  CE  

$$$$
