ligand_48_pose_5_2HRL.pdbqt
 OpenBabel07062320523D

 49 50  0  0  1  0  0  0  0  0999 V2000
   30.3890   31.1390   17.0270 C   0  0  0  0  0  0  0  0  0  0  0  0
   30.2460   32.6500   17.1330 C   0  0  2  0  0  0  0  0  0  0  0  0
   29.4260   33.0990   15.9630 C   0  0  1  0  0  0  0  0  0  0  0  0
   29.2910   34.5990   15.8160 C   0  0  2  0  0  0  0  0  0  0  0  0
   27.2800   35.1240   14.7110 C   0  0  2  0  0  0  0  0  0  0  0  0
   28.0070   36.0620   13.7630 C   0  0  0  0  0  0  0  0  0  0  0  0
   27.9900   35.0190   15.8590 O   0  0  0  0  0  0  0  0  0  0  0  0
   29.4050   35.5790   13.4840 C   0  0  1  0  0  0  0  0  0  0  0  0
   30.1410   35.2070   14.7550 C   0  0  1  0  0  0  0  0  0  0  0  0
   26.9750   33.9200   14.0790 O   0  0  0  0  0  0  0  0  0  0  0  0
   25.9840   33.7610   14.1840 H   0  0  0  0  0  0  0  0  0  0  0  0
   25.9970   35.8100   15.0330 C   0  0  0  0  0  0  0  0  0  0  0  0
   25.6520   36.8250   14.3890 O   0  0  0  0  0  0  0  0  0  0  0  0
   25.2010   35.3280   16.0310 O   0  0  0  0  0  0  0  0  0  0  0  0
   24.2360   35.0440   15.9120 H   0  0  0  0  0  0  0  0  0  0  0  0
   29.4010   34.5370   12.5660 O   0  0  0  0  0  0  0  0  0  0  0  0
   29.5530   34.8880   11.6550 H   0  0  0  0  0  0  0  0  0  0  0  0
   30.8500   36.3870   15.2560 N   0  0  0  0  0  0  0  0  0  0  0  0
   32.2040   36.2490   15.6270 C   0  0  0  0  0  0  0  0  0  0  0  0
   30.3840   37.3100   15.3410 H   0  0  0  0  0  0  0  0  0  0  0  0
   33.0130   37.3940   16.1490 C   0  0  0  0  0  0  0  0  0  0  0  0
   32.8280   35.1440   15.5430 O   0  0  0  0  0  0  0  0  0  0  0  0
   29.7080   32.4200   14.8070 O   0  0  0  0  0  0  0  0  0  0  0  0
   28.9120   31.9250   14.4320 H   0  0  0  0  0  0  0  0  0  0  0  0
   31.5080   33.1880   17.2150 O   0  0  0  0  0  0  0  0  0  0  0  0
   31.8170   33.4270   16.3270 H   0  0  0  0  0  0  0  0  0  0  0  0
   29.1510   30.5380   17.4650 N   0  0  0  0  0  0  0  0  0  0  0  0
   28.2500   29.8260   16.6360 C   0  0  0  0  0  0  0  0  0  0  0  0
   28.8480   30.6100   18.4860 H   0  0  0  0  0  0  0  0  0  0  0  0
   28.5130   29.6870   15.4170 O   0  0  0  0  0  0  0  0  0  0  0  0
   27.0760   29.2750   17.1420 O   0  0  0  0  0  0  0  0  0  0  0  0
   26.0820   30.1160   17.6680 C   0  0  0  0  0  0  0  0  0  0  0  0
   25.4680   30.8700   16.5440 C   0  0  0  0  0  0  0  0  0  0  0  0
   24.7650   30.3190   15.4640 C   0  0  0  0  0  0  0  0  0  0  0  0
   25.4420   32.1940   16.3010 N   0  0  0  0  0  0  0  0  0  0  0  0
   24.3590   31.3040   14.6440 N   0  0  0  0  0  0  0  0  0  0  0  0
   24.7870   32.4340   15.1790 N   0  0  0  0  0  0  0  0  0  0  0  0
   23.6000   31.1530   13.4100 C   0  0  0  0  0  0  0  0  0  0  0  0
   23.9360   29.8190   12.7810 C   0  0  0  0  0  0  0  0  0  0  0  0
   22.1180   31.1710   13.7110 C   0  0  0  0  0  0  0  0  0  0  0  0
   22.8230   28.8090   12.9870 C   0  0  0  0  0  0  0  0  0  0  0  0
   21.4060   30.7700   12.4310 C   0  0  0  0  0  0  0  0  0  0  0  0
   21.5760   29.2710   12.2830 C   0  0  0  0  0  0  0  0  0  0  0  0
   29.8670   25.5550   16.9770 C   0  0  0  0  0  0  0  0  0  0  0  0
   28.3450   25.7220   17.0260 C   0  0  0  0  0  0  0  0  0  0  0  0
   27.6020   24.3990   16.9240 C   0  0  0  0  0  0  0  0  0  0  0  0
   26.3310   24.4000   17.7270 C   0  0  0  0  0  0  0  0  0  0  0  0
   25.9470   25.8350   18.0710 C   0  0  0  0  0  0  0  0  0  0  0  0
   24.6330   25.8710   18.7560 N   0  0  0  0  0  0  0  0  0  0  0  0
  1 27  1  0  0  0  0
  2  1  1  6  0  0  0
  2 25  1  0  0  0  0
  3 23  1  6  0  0  0
  3  2  1  0  0  0  0
  4  7  1  0  0  0  0
  4  3  1  6  0  0  0
  5 10  1  6  0  0  0
  5 12  1  0  0  0  0
  5  7  1  0  0  0  0
  6  5  1  0  0  0  0
  8 16  1  6  0  0  0
  8  6  1  0  0  0  0
  8  9  1  0  0  0  0
  9 18  1  1  0  0  0
  9  4  1  0  0  0  0
 10 11  1  0  0  0  0
 12 14  1  0  0  0  0
 13 12  2  0  0  0  0
 15 14  1  0  0  0  0
 17 16  1  0  0  0  0
 18 20  1  0  0  0  0
 18 19  1  0  0  0  0
 19 21  1  0  0  0  0
 22 19  2  0  0  0  0
 24 23  1  0  0  0  0
 26 25  1  0  0  0  0
 27 29  1  0  0  0  0
 28 31  1  0  0  0  0
 28 27  1  0  0  0  0
 30 28  2  0  0  0  0
 31 32  1  0  0  0  0
 33 32  1  0  0  0  0
 34 33  2  0  0  0  0
 35 33  1  0  0  0  0
 36 37  1  0  0  0  0
 36 34  1  0  0  0  0
 37 35  2  0  0  0  0
 38 40  1  0  0  0  0
 38 36  1  0  0  0  0
 39 41  1  0  0  0  0
 39 38  1  0  0  0  0
 42 40  1  0  0  0  0
 43 42  1  0  0  0  0
 43 41  1  0  0  0  0
 44 45  1  0  0  0  0
 46 45  1  0  0  0  0
 46 47  1  0  0  0  0
 47 48  1  0  0  0  0
 48 49  1  0  0  0  0
M  END
>  <REMARK>
 VINA RESULT:    -4.903      4.081      7.865
 INTER + INTRA:         -14.282
 INTER:                  -7.712
 INTRA:                  -6.570
 UNBOUND:                -5.796
 SMILES CC(=O)N[C@@H]1[C@@H](O)C[C@](O)(C(=O)O)O[C@H]1C(O)[C@H](O)CNC(=O)OCc1cn(C2CCCCC2)nn1
 SMILES IDX 20 1 18 2 16 3 15 4 9 5 8 6 14 7 6 8 5 9 10 10 11 12 12 13
 SMILES IDX 13 14 7 16 4 18 2 19 1 21 3 22 17 23 19 25 21 27 22 28 23 30
 SMILES IDX 24 31 25 32 26 33 27 34 36 35 28 36 35 37 29 38 30 39 34 40
 SMILES IDX 31 41 33 42 32 43
 H PARENT 10 11 13 15 7 17 4 20 17 24 19 26 21 29
 Flexibility Score: inf
  4 active torsions:
  status: ('A' for Active; 'I' for Inactive)
    1  A    between atoms: CA   and  CB  
    2  A    between atoms: CB   and  CG  
    3  A    between atoms: CG   and  CD  
    4  A    between atoms: CD   and  CE  

>  <TORSDO>
F 15

>  <BEGIN_>
RES LYS A 131

$$$$
ligand_48_pose_5_2HRL.pdbqt
 OpenBabel07062320523D

  6  5  0  0  0  0  0  0  0  0999 V2000
   33.1930   34.6630    9.2900 C   0  0  0  0  0  0  0  0  0  0  0  0
   32.0600   35.3600   10.0340 C   0  0  0  0  0  0  0  0  0  0  0  0
   30.8000   35.4990    9.2190 C   0  0  0  0  0  0  0  0  0  0  0  0
   30.0600   34.1720    9.1440 C   0  0  0  0  0  0  0  0  0  0  0  0
   28.6140   34.3910    8.7430 C   0  0  0  0  0  0  0  0  0  0  0  0
   27.6920   33.6180    9.6210 N   0  0  0  0  0  0  0  0  0  0  0  0
  1  2  1  0  0  0  0
  3  2  1  0  0  0  0
  4  3  1  0  0  0  0
  5  4  1  0  0  0  0
  5  6  1  0  0  0  0
M  END
>  <EGIN_R>
ES LYS A 135

>  <REMARK>
  4 active torsions:
  status: ('A' for Active; 'I' for Inactive)
    5  A    between atoms: CA   and  CB  
    6  A    between atoms: CB   and  CG  
    7  A    between atoms: CG   and  CD  
    8  A    between atoms: CD   and  CE  

$$$$
