ligand_21_pose_18_2HRL.pdbqt
 OpenBabel07062320523D

 54 55  0  0  1  0  0  0  0  0999 V2000
   26.5850   29.2890   19.8150 N   0  0  0  0  0  0  0  0  0  0  0  0
   27.5580   28.5880   19.0420 C   0  0  0  0  0  0  0  0  0  0  0  0
   28.1450   27.6200   19.5690 O   0  0  0  0  0  0  0  0  0  0  0  0
   26.1040   30.0940   19.3670 H   0  0  0  0  0  0  0  0  0  0  0  0
   26.2900   28.8950   21.1670 C   0  0  0  0  0  0  0  0  0  0  0  0
   26.9050   29.9340   22.1110 C   0  0  2  0  0  0  0  0  0  0  0  0
   28.2000   29.3950   22.6530 C   0  0  2  0  0  0  0  0  0  0  0  0
   29.3460   30.1390   22.0220 C   0  0  2  0  0  0  0  0  0  0  0  0
   29.8150   31.6150   20.2870 C   0  0  2  0  0  0  0  0  0  0  0  0
   30.5730   30.5560   19.5210 C   0  0  0  0  0  0  0  0  0  0  0  0
   28.8650   30.9500   21.0440 O   0  0  0  0  0  0  0  0  0  0  0  0
   31.2880   29.6870   20.4980 C   0  0  1  0  0  0  0  0  0  0  0  0
   30.4190   29.1910   21.6190 C   0  0  1  0  0  0  0  0  0  0  0  0
   29.0990   32.3430   19.3130 O   0  0  0  0  0  0  0  0  0  0  0  0
   29.0150   33.2920   19.5590 H   0  0  0  0  0  0  0  0  0  0  0  0
   30.6840   32.5190   21.0670 C   0  0  0  0  0  0  0  0  0  0  0  0
   31.9260   32.6070   20.9110 O   0  0  0  0  0  0  0  0  0  0  0  0
   30.1170   33.3280   22.0320 O   0  0  0  0  0  0  0  0  0  0  0  0
   29.3760   33.0220   22.6680 H   0  0  0  0  0  0  0  0  0  0  0  0
   31.8150   28.5960   19.7710 O   0  0  0  0  0  0  0  0  0  0  0  0
   31.3180   28.5310   18.9030 H   0  0  0  0  0  0  0  0  0  0  0  0
   31.2670   28.9370   22.7680 N   0  0  0  0  0  0  0  0  0  0  0  0
   31.8330   27.6500   23.0230 C   0  0  0  0  0  0  0  0  0  0  0  0
   31.4890   29.6980   23.4440 H   0  0  0  0  0  0  0  0  0  0  0  0
   32.6920   27.4470   24.2100 C   0  0  0  0  0  0  0  0  0  0  0  0
   31.5970   26.7050   22.2400 O   0  0  0  0  0  0  0  0  0  0  0  0
   28.3290   28.0200   22.4180 O   0  0  0  0  0  0  0  0  0  0  0  0
   28.2890   27.5490   23.2820 H   0  0  0  0  0  0  0  0  0  0  0  0
   25.9640   30.2150   23.0750 O   0  0  0  0  0  0  0  0  0  0  0  0
   25.6180   31.1310   23.0430 H   0  0  0  0  0  0  0  0  0  0  0  0
   27.8270   28.9860   17.7430 O   0  0  0  0  0  0  0  0  0  0  0  0
   26.9220   29.7690   17.0000 C   0  0  0  0  0  0  0  0  0  0  0  0
   27.6520   30.8900   16.3880 C   0  0  0  0  0  0  0  0  0  0  0  0
   29.0040   30.9060   16.0310 C   0  0  0  0  0  0  0  0  0  0  0  0
   27.1910   32.1200   16.0490 N   0  0  0  0  0  0  0  0  0  0  0  0
   29.2670   32.1010   15.5160 N   0  0  0  0  0  0  0  0  0  0  0  0
   28.1680   32.8340   15.5280 N   0  0  0  0  0  0  0  0  0  0  0  0
   30.5510   32.5430   15.0120 C   0  0  0  0  0  0  0  0  0  0  0  0
   30.9800   33.6750   15.9010 C   0  0  0  0  0  0  0  0  0  0  0  0
   30.9300   34.9510   15.4050 C   0  0  0  0  0  0  0  0  0  0  0  0
   31.4100   33.4120   17.1770 C   0  0  0  0  0  0  0  0  0  0  0  0
   31.3130   36.0170   16.1770 C   0  0  0  0  0  0  0  0  0  0  0  0
   31.8030   34.4910   17.9780 C   0  0  0  0  0  0  0  0  0  0  0  0
   31.7460   35.7560   17.4610 C   0  0  0  0  0  0  0  0  0  0  0  0
   30.4900   35.1750   14.1090 O   0  0  0  0  0  0  0  0  0  0  0  0
   31.2860   35.9720   13.2880 C   0  0  0  0  0  0  0  0  0  0  0  0
   30.8320   37.0570   12.8540 O   0  0  0  0  0  0  0  0  0  0  0  0
   32.6600   35.5550   12.9240 C   0  0  0  0  0  0  0  0  0  0  0  0
   29.8670   25.5550   16.9770 C   0  0  0  0  0  0  0  0  0  0  0  0
   28.3450   25.7220   17.0260 C   0  0  0  0  0  0  0  0  0  0  0  0
   27.6030   24.3950   16.9700 C   0  0  0  0  0  0  0  0  0  0  0  0
   26.1150   24.5730   17.0920 C   0  0  0  0  0  0  0  0  0  0  0  0
   25.8160   25.7120   18.0620 C   0  0  0  0  0  0  0  0  0  0  0  0
   25.6040   25.1850   19.4310 N   0  0  0  0  0  0  0  0  0  0  0  0
  1  5  1  0  0  0  0
  2  3  2  0  0  0  0
  2  1  1  0  0  0  0
  4  1  1  0  0  0  0
  6  5  1  6  0  0  0
  6  7  1  0  0  0  0
  6 29  1  0  0  0  0
  7 27  1  6  0  0  0
  8  7  1  6  0  0  0
  9 14  1  6  0  0  0
  9 11  1  0  0  0  0
  9 16  1  0  0  0  0
 10  9  1  0  0  0  0
 10 12  1  0  0  0  0
 11  8  1  0  0  0  0
 12 20  1  6  0  0  0
 12 13  1  0  0  0  0
 13  8  1  0  0  0  0
 13 22  1  1  0  0  0
 14 15  1  0  0  0  0
 16 18  1  0  0  0  0
 17 16  2  0  0  0  0
 18 19  1  0  0  0  0
 21 20  1  0  0  0  0
 22 23  1  0  0  0  0
 22 24  1  0  0  0  0
 23 25  1  0  0  0  0
 26 23  2  0  0  0  0
 27 28  1  0  0  0  0
 30 29  1  0  0  0  0
 31  2  1  0  0  0  0
 32 31  1  0  0  0  0
 33 32  1  0  0  0  0
 34 33  2  0  0  0  0
 35 33  1  0  0  0  0
 36 37  1  0  0  0  0
 36 34  1  0  0  0  0
 37 35  2  0  0  0  0
 38 36  1  0  0  0  0
 38 39  1  0  0  0  0
 39 41  1  0  0  0  0
 40 39  2  0  0  0  0
 40 42  1  0  0  0  0
 41 43  2  0  0  0  0
 42 44  2  0  0  0  0
 44 43  1  0  0  0  0
 45 40  1  0  0  0  0
 46 45  1  0  0  0  0
 47 46  2  0  0  0  0
 48 46  1  0  0  0  0
 49 50  1  0  0  0  0
 51 50  1  0  0  0  0
 51 52  1  0  0  0  0
 52 53  1  0  0  0  0
 53 54  1  0  0  0  0
M  END
>  <REMARK>
 VINA RESULT:    -4.386      7.796     13.632
 INTER + INTRA:         -14.636
 INTER:                  -7.802
 INTRA:                  -6.833
 UNBOUND:                -6.275
 SMILES CC(=O)N[C@@H]1[C@@H](O)C[C@](O)(C(=O)O)O[C@H]1C(O)[C@H](O)CNC(=O)OCc1cn(Cc2ccccc2OC(C)=O)nn1
 SMILES IDX 21 1 22 2 23 3 20 5 18 6 16 7 15 8 9 9 8 10 14 11 6 12 5 13
 SMILES IDX 10 14 11 16 12 17 13 18 7 20 4 22 2 23 1 25 3 26 17 27 19 29
 SMILES IDX 24 31 25 32 26 33 27 34 41 35 28 36 40 37 29 38 30 39 35 40
 SMILES IDX 31 41 34 42 32 43 33 44 36 45 37 46 39 47 38 48
 H PARENT 21 4 10 15 13 19 7 21 4 24 17 28 19 30
 Flexibility Score: inf
  4 active torsions:
  status: ('A' for Active; 'I' for Inactive)
    1  A    between atoms: CA   and  CB  
    2  A    between atoms: CB   and  CG  
    3  A    between atoms: CG   and  CD  
    4  A    between atoms: CD   and  CE  

>  <TORSDO>
F 18

>  <BEGIN_>
RES LYS A 131

$$$$
ligand_21_pose_18_2HRL.pdbqt
 OpenBabel07062320523D

  6  5  0  0  0  0  0  0  0  0999 V2000
   33.1930   34.6630    9.2900 C   0  0  0  0  0  0  0  0  0  0  0  0
   32.0600   35.3600   10.0340 C   0  0  0  0  0  0  0  0  0  0  0  0
   30.7330   34.6570    9.9060 C   0  0  0  0  0  0  0  0  0  0  0  0
   30.3340   34.5250    8.4450 C   0  0  0  0  0  0  0  0  0  0  0  0
   28.8250   34.5480    8.3000 C   0  0  0  0  0  0  0  0  0  0  0  0
   28.1680   33.8020    9.4100 N   0  0  0  0  0  0  0  0  0  0  0  0
  1  2  1  0  0  0  0
  3  2  1  0  0  0  0
  4  3  1  0  0  0  0
  5  4  1  0  0  0  0
  5  6  1  0  0  0  0
M  END
>  <EGIN_R>
ES LYS A 135

>  <REMARK>
  4 active torsions:
  status: ('A' for Active; 'I' for Inactive)
    5  A    between atoms: CA   and  CB  
    6  A    between atoms: CB   and  CG  
    7  A    between atoms: CG   and  CD  
    8  A    between atoms: CD   and  CE  

$$$$
