ligand_57_pose_10_2HRL.pdbqt
 OpenBabel07062320523D

 50 51  0  0  1  0  0  0  0  0999 V2000
   23.3260   37.8780    7.7150 C   0  0  0  0  0  0  0  0  0  0  0  0
   21.9850   37.3250    8.0650 C   0  0  2  0  0  0  0  0  0  0  0  0
   22.0020   36.5260    9.3520 C   0  0  2  0  0  0  0  0  0  0  0  0
   20.7770   35.6390    9.4160 C   0  0  2  0  0  0  0  0  0  0  0  0
   18.4750   35.5690    9.0310 C   0  0  2  0  0  0  0  0  0  0  0  0
   18.2530   34.8730   10.3390 C   0  0  0  0  0  0  0  0  0  0  0  0
   19.6650   36.2210    8.8940 O   0  0  0  0  0  0  0  0  0  0  0  0
   19.4800   34.1220   10.7800 C   0  0  1  0  0  0  0  0  0  0  0  0
   20.6250   35.1300   10.8140 C   0  0  1  0  0  0  0  0  0  0  0  0
   17.3830   36.4610    8.8330 O   0  0  0  0  0  0  0  0  0  0  0  0
   17.2530   37.0430    9.6220 H   0  0  0  0  0  0  0  0  0  0  0  0
   18.3980   34.5560    7.9480 C   0  0  0  0  0  0  0  0  0  0  0  0
   17.6440   33.5590    8.0760 O   0  0  0  0  0  0  0  0  0  0  0  0
   19.1160   34.6210    6.7640 O   0  0  0  0  0  0  0  0  0  0  0  0
   18.7360   35.0340    5.9120 H   0  0  0  0  0  0  0  0  0  0  0  0
   19.3150   33.5660   12.0510 O   0  0  0  0  0  0  0  0  0  0  0  0
   18.4520   33.8030   12.4570 H   0  0  0  0  0  0  0  0  0  0  0  0
   21.8050   34.3380   11.1880 N   0  0  0  0  0  0  0  0  0  0  0  0
   22.6030   34.6600   12.3030 C   0  0  0  0  0  0  0  0  0  0  0  0
   22.0220   33.5290   10.5910 H   0  0  0  0  0  0  0  0  0  0  0  0
   23.8080   33.8380   12.6720 C   0  0  0  0  0  0  0  0  0  0  0  0
   22.2870   35.6620   12.9960 O   0  0  0  0  0  0  0  0  0  0  0  0
   22.0830   37.3980   10.4130 O   0  0  0  0  0  0  0  0  0  0  0  0
   21.4460   38.1480   10.3020 H   0  0  0  0  0  0  0  0  0  0  0  0
   21.5890   36.4490    7.0270 O   0  0  0  0  0  0  0  0  0  0  0  0
   22.1620   36.5710    6.2250 H   0  0  0  0  0  0  0  0  0  0  0  0
   24.3280   37.2020    8.5110 N   0  0  0  0  0  0  0  0  0  0  0  0
   25.6440   37.6910    8.7300 C   0  0  0  0  0  0  0  0  0  0  0  0
   24.1280   36.2730    8.9910 H   0  0  0  0  0  0  0  0  0  0  0  0
   25.9830   38.7680    8.2180 O   0  0  0  0  0  0  0  0  0  0  0  0
   26.5730   37.0040    9.5020 O   0  0  0  0  0  0  0  0  0  0  0  0
   26.4390   36.9480   10.9080 C   0  0  0  0  0  0  0  0  0  0  0  0
   27.7400   36.6250   11.5480 C   0  0  0  0  0  0  0  0  0  0  0  0
   28.1710   35.4240   12.0350 C   0  0  0  0  0  0  0  0  0  0  0  0
   28.7480   37.4900   11.7660 N   0  0  0  0  0  0  0  0  0  0  0  0
   29.4100   35.5720   12.5320 N   0  0  0  0  0  0  0  0  0  0  0  0
   29.7320   36.8560   12.3490 N   0  0  0  0  0  0  0  0  0  0  0  0
   30.2150   34.5360   13.1390 C   0  0  0  0  0  0  0  0  0  0  0  0
   29.4810   33.8560   14.2730 C   0  0  0  0  0  0  0  0  0  0  0  0
   31.5590   35.0560   13.5550 C   0  0  0  0  0  0  0  0  0  0  0  0
   29.6020   34.6110   15.5750 C   0  0  0  0  0  0  0  0  0  0  0  0
   31.5460   35.8170   14.8450 C   0  0  0  0  0  0  0  0  0  0  0  0
   30.9480   35.0100   15.8650 N   0  0  0  0  0  0  0  0  0  0  0  0
   31.8100   33.9090   16.1840 C   0  0  0  0  0  0  0  0  0  0  0  0
   29.8670   25.5550   16.9770 C   0  0  0  0  0  0  0  0  0  0  0  0
   28.3450   25.7220   17.0260 C   0  0  0  0  0  0  0  0  0  0  0  0
   27.5990   24.4620   16.6160 C   0  0  0  0  0  0  0  0  0  0  0  0
   27.0330   23.7280   17.8010 C   0  0  0  0  0  0  0  0  0  0  0  0
   25.6700   24.3130   18.1570 C   0  0  0  0  0  0  0  0  0  0  0  0
   24.7740   24.2980   16.9770 N   0  0  0  0  0  0  0  0  0  0  0  0
  1 27  1  0  0  0  0
  2  1  1  6  0  0  0
  2  3  1  0  0  0  0
  3 23  1  1  0  0  0
  4  3  1  1  0  0  0
  4  9  1  0  0  0  0
  5 12  1  6  0  0  0
  5  6  1  0  0  0  0
  6  8  1  0  0  0  0
  7  5  1  0  0  0  0
  7  4  1  0  0  0  0
  8  9  1  0  0  0  0
  8 16  1  1  0  0  0
  9 18  1  6  0  0  0
 10  5  1  0  0  0  0
 10 11  1  0  0  0  0
 12 13  2  0  0  0  0
 14 12  1  0  0  0  0
 15 14  1  0  0  0  0
 16 17  1  0  0  0  0
 18 19  1  0  0  0  0
 19 21  1  0  0  0  0
 19 22  2  0  0  0  0
 20 18  1  0  0  0  0
 24 23  1  0  0  0  0
 25  2  1  0  0  0  0
 26 25  1  0  0  0  0
 27 28  1  0  0  0  0
 27 29  1  0  0  0  0
 28 31  1  0  0  0  0
 30 28  2  0  0  0  0
 31 32  1  0  0  0  0
 32 33  1  0  0  0  0
 33 35  1  0  0  0  0
 33 34  2  0  0  0  0
 34 36  1  0  0  0  0
 35 37  2  0  0  0  0
 36 38  1  0  0  0  0
 37 36  1  0  0  0  0
 38 40  1  0  0  0  0
 38 39  1  0  0  0  0
 39 41  1  0  0  0  0
 40 42  1  0  0  0  0
 41 43  1  0  0  0  0
 42 43  1  0  0  0  0
 43 44  1  0  0  0  0
 45 46  1  0  0  0  0
 47 46  1  0  0  0  0
 47 48  1  0  0  0  0
 48 49  1  0  0  0  0
 50 49  1  0  0  0  0
M  END
>  <REMARK>
 VINA RESULT:    -4.442      7.412     12.578
 INTER + INTRA:         -13.474
 INTER:                  -8.396
 INTRA:                  -5.078
 UNBOUND:                -5.786
 SMILES CC(=O)N[C@@H]1[C@@H](O)C[C@](O)(C(=O)O)O[C@H]1C(O)[C@H](O)CNC(=O)OCc1cn(C2CCN(C)CC2)nn1
 SMILES IDX 20 1 18 2 16 3 15 4 9 5 8 6 14 7 6 8 5 9 10 10 11 12 12 13
 SMILES IDX 13 14 7 16 4 18 2 19 1 21 3 22 17 23 19 25 21 27 22 28 23 30
 SMILES IDX 24 31 25 32 26 33 27 34 37 35 28 36 36 37 29 38 30 39 35 40
 SMILES IDX 31 41 34 42 32 43 33 44
 H PARENT 10 11 13 15 7 17 4 20 17 24 19 26 21 29
 Flexibility Score: inf
  4 active torsions:
  status: ('A' for Active; 'I' for Inactive)
    1  A    between atoms: CA   and  CB  
    2  A    between atoms: CB   and  CG  
    3  A    between atoms: CG   and  CD  
    4  A    between atoms: CD   and  CE  

>  <TORSDO>
F 15

>  <BEGIN_>
RES LYS A 131

$$$$
ligand_57_pose_10_2HRL.pdbqt
 OpenBabel07062320523D

  6  5  0  0  0  0  0  0  0  0999 V2000
   33.1930   34.6630    9.2900 C   0  0  0  0  0  0  0  0  0  0  0  0
   32.0600   35.3600   10.0340 C   0  0  0  0  0  0  0  0  0  0  0  0
   30.8120   35.5310    9.2070 C   0  0  0  0  0  0  0  0  0  0  0  0
   30.0790   34.2060    9.0620 C   0  0  0  0  0  0  0  0  0  0  0  0
   28.6920   34.4240    8.4880 C   0  0  0  0  0  0  0  0  0  0  0  0
   27.6670   33.6700    9.2600 N   0  0  0  0  0  0  0  0  0  0  0  0
  1  2  1  0  0  0  0
  3  2  1  0  0  0  0
  4  3  1  0  0  0  0
  5  4  1  0  0  0  0
  5  6  1  0  0  0  0
M  END
>  <EGIN_R>
ES LYS A 135

>  <REMARK>
  4 active torsions:
  status: ('A' for Active; 'I' for Inactive)
    5  A    between atoms: CA   and  CB  
    6  A    between atoms: CB   and  CG  
    7  A    between atoms: CG   and  CD  
    8  A    between atoms: CD   and  CE  

$$$$
