ligand_51_pose_1_2HRL.pdbqt
 OpenBabel07062320523D

 53 56  0  0  1  0  0  0  0  0999 V2000
   30.1150   31.3300   17.9140 C   0  0  0  0  0  0  0  0  0  0  0  0
   30.1050   31.8150   16.4870 C   0  0  2  0  0  0  0  0  0  0  0  0
   29.1530   32.9730   16.2710 C   0  0  1  0  0  0  0  0  0  0  0  0
   29.3250   33.5400   14.8570 C   0  0  2  0  0  0  0  0  0  0  0  0
   31.4330   34.5040   14.5060 C   0  0  2  0  0  0  0  0  0  0  0  0
   30.9110   35.6940   15.2710 C   0  0  0  0  0  0  0  0  0  0  0  0
   30.5990   33.4470   14.3960 O   0  0  0  0  0  0  0  0  0  0  0  0
   29.5560   36.0540   14.7720 C   0  0  1  0  0  0  0  0  0  0  0  0
   28.6550   34.8520   14.6780 C   0  0  1  0  0  0  0  0  0  0  0  0
   32.5630   34.0700   15.2380 O   0  0  0  0  0  0  0  0  0  0  0  0
   33.0560   34.8880   15.5110 H   0  0  0  0  0  0  0  0  0  0  0  0
   31.9380   35.0110   13.2050 C   0  0  0  0  0  0  0  0  0  0  0  0
   32.7180   35.9990   13.1240 O   0  0  0  0  0  0  0  0  0  0  0  0
   31.5530   34.3960   12.0340 O   0  0  0  0  0  0  0  0  0  0  0  0
   32.2060   34.1980   11.2740 H   0  0  0  0  0  0  0  0  0  0  0  0
   29.0320   37.0390   15.6410 O   0  0  0  0  0  0  0  0  0  0  0  0
   29.4260   37.9120   15.4310 H   0  0  0  0  0  0  0  0  0  0  0  0
   27.9740   34.8530   13.3900 N   0  0  0  0  0  0  0  0  0  0  0  0
   26.6380   34.3980   13.2350 C   0  0  0  0  0  0  0  0  0  0  0  0
   28.4860   35.2030   12.5280 H   0  0  0  0  0  0  0  0  0  0  0  0
   26.0290   34.4350   11.8980 C   0  0  0  0  0  0  0  0  0  0  0  0
   26.0260   33.9790   14.2630 O   0  0  0  0  0  0  0  0  0  0  0  0
   27.8570   32.6730   16.5620 O   0  0  0  0  0  0  0  0  0  0  0  0
   27.4680   33.1000   17.3390 H   0  0  0  0  0  0  0  0  0  0  0  0
   29.7970   30.7270   15.6740 O   0  0  0  0  0  0  0  0  0  0  0  0
   28.7910   30.6530   15.6130 H   0  0  0  0  0  0  0  0  0  0  0  0
   29.1340   30.2640   18.0090 N   0  0  0  0  0  0  0  0  0  0  0  0
   28.0730   30.2920   18.9780 C   0  0  0  0  0  0  0  0  0  0  0  0
   29.1400   29.4220   17.3870 H   0  0  0  0  0  0  0  0  0  0  0  0
   28.0210   31.2820   19.7490 O   0  0  0  0  0  0  0  0  0  0  0  0
   27.1380   29.2910   19.0800 O   0  0  0  0  0  0  0  0  0  0  0  0
   26.9880   28.3770   18.0160 C   0  0  0  0  0  0  0  0  0  0  0  0
   26.3930   29.1290   16.8660 C   0  0  0  0  0  0  0  0  0  0  0  0
   25.0840   28.9910   16.4440 C   0  0  0  0  0  0  0  0  0  0  0  0
   26.9380   30.0250   16.0480 N   0  0  0  0  0  0  0  0  0  0  0  0
   24.8990   29.7960   15.4080 N   0  0  0  0  0  0  0  0  0  0  0  0
   26.0350   30.4200   15.1760 N   0  0  0  0  0  0  0  0  0  0  0  0
   23.6360   29.9340   14.6790 C   0  0  2  0  0  0  0  0  0  0  0  0
   23.0890   31.3110   15.0300 C   0  0  0  0  0  0  0  0  0  0  0  0
   22.6650   28.8690   15.0850 C   0  0  0  0  0  0  0  0  0  0  0  0
   23.8990   29.8220   13.1980 C   0  0  0  0  0  0  0  0  0  0  0  0
   21.7870   31.5340   14.2850 C   0  0  1  0  0  0  0  0  0  0  0  0
   21.3520   29.1300   14.3830 C   0  0  1  0  0  0  0  0  0  0  0  0
   22.6020   30.0590   12.4540 C   0  0  2  0  0  0  0  0  0  0  0  0
   22.0600   31.4310   12.8130 C   0  0  0  0  0  0  0  0  0  0  0  0
   20.8110   30.4810   14.7470 C   0  0  0  0  0  0  0  0  0  0  0  0
   21.6060   29.0150   12.8970 C   0  0  0  0  0  0  0  0  0  0  0  0
   29.8670   25.5550   16.9770 C   0  0  0  0  0  0  0  0  0  0  0  0
   28.3450   25.7220   17.0260 C   0  0  0  0  0  0  0  0  0  0  0  0
   27.6010   24.4040   16.8800 C   0  0  0  0  0  0  0  0  0  0  0  0
   26.1560   24.5210   17.2780 C   0  0  0  0  0  0  0  0  0  0  0  0
   25.7960   23.3850   18.2300 C   0  0  0  0  0  0  0  0  0  0  0  0
   24.9320   22.3920   17.5490 N   0  0  0  0  0  0  0  0  0  0  0  0
  1 27  1  0  0  0  0
  2  1  1  1  0  0  0
  3  2  1  0  0  0  0
  3 23  1  6  0  0  0
  4  3  1  1  0  0  0
  5 12  1  6  0  0  0
  5 10  1  0  0  0  0
  5  6  1  0  0  0  0
  7  5  1  0  0  0  0
  7  4  1  0  0  0  0
  8  6  1  0  0  0  0
  8 16  1  1  0  0  0
  9 18  1  6  0  0  0
  9  8  1  0  0  0  0
  9  4  1  0  0  0  0
 10 11  1  0  0  0  0
 13 12  2  0  0  0  0
 14 12  1  0  0  0  0
 15 14  1  0  0  0  0
 17 16  1  0  0  0  0
 19 18  1  0  0  0  0
 19 22  2  0  0  0  0
 20 18  1  0  0  0  0
 21 19  1  0  0  0  0
 23 24  1  0  0  0  0
 25  2  1  0  0  0  0
 26 25  1  0  0  0  0
 27 28  1  0  0  0  0
 28 31  1  0  0  0  0
 28 30  2  0  0  0  0
 29 27  1  0  0  0  0
 32 31  1  0  0  0  0
 33 32  1  0  0  0  0
 34 33  2  0  0  0  0
 35 33  1  0  0  0  0
 36 34  1  0  0  0  0
 37 36  1  0  0  0  0
 37 35  2  0  0  0  0
 38 41  1  6  0  0  0
 38 39  1  0  0  0  0
 38 40  1  0  0  0  0
 38 36  1  0  0  0  0
 42 45  1  6  0  0  0
 42 46  1  0  0  0  0
 42 39  1  0  0  0  0
 43 47  1  6  0  0  0
 43 46  1  0  0  0  0
 43 40  1  0  0  0  0
 44 45  1  1  0  0  0
 44 47  1  0  0  0  0
 44 41  1  0  0  0  0
 48 49  1  0  0  0  0
 50 49  1  0  0  0  0
 50 51  1  0  0  0  0
 51 52  1  0  0  0  0
 53 52  1  0  0  0  0
M  END
>  <REMARK>
 VINA RESULT:    -5.094      4.148      8.525
 INTER + INTRA:         -15.371
 INTER:                  -9.274
 INTRA:                  -6.098
 UNBOUND:                -6.554
 SMILES CC(=O)N[C@@H]1[C@@H](O)C[C@](O)(C(=O)O)O[C@H]1C(O)[C@H](O)CNC(=O)OCc1cn(C23CC4CC(CC(C4)C2)C3)nn1
 SMILES IDX 20 1 18 2 16 3 15 4 9 5 8 6 14 7 6 8 5 9 10 10 11 12 12 13
 SMILES IDX 13 14 7 16 4 18 2 19 1 21 3 22 17 23 19 25 21 27 22 28 23 30
 SMILES IDX 24 31 25 32 26 33 27 34 40 35 28 36 39 37 29 38 38 39 37 40
 SMILES IDX 30 41 33 42 35 43 31 44 32 45 34 46 36 47
 H PARENT 10 11 13 15 7 17 4 20 17 24 19 26 21 29
 Flexibility Score: inf
  4 active torsions:
  status: ('A' for Active; 'I' for Inactive)
    1  A    between atoms: CA   and  CB  
    2  A    between atoms: CB   and  CG  
    3  A    between atoms: CG   and  CD  
    4  A    between atoms: CD   and  CE  

>  <TORSDO>
F 15

>  <BEGIN_>
RES LYS A 131

$$$$
ligand_51_pose_1_2HRL.pdbqt
 OpenBabel07062320523D

  6  5  0  0  0  0  0  0  0  0999 V2000
   33.1930   34.6630    9.2900 C   0  0  0  0  0  0  0  0  0  0  0  0
   32.0600   35.3600   10.0340 C   0  0  0  0  0  0  0  0  0  0  0  0
   30.8600   35.6500    9.1700 C   0  0  0  0  0  0  0  0  0  0  0  0
   30.2530   34.3580    8.6440 C   0  0  0  0  0  0  0  0  0  0  0  0
   28.9280   34.0770    9.3260 C   0  0  0  0  0  0  0  0  0  0  0  0
   27.7840   34.4990    8.4720 N   0  0  0  0  0  0  0  0  0  0  0  0
  1  2  1  0  0  0  0
  3  2  1  0  0  0  0
  4  3  1  0  0  0  0
  4  5  1  0  0  0  0
  6  5  1  0  0  0  0
M  END
>  <EGIN_R>
ES LYS A 135

>  <REMARK>
  4 active torsions:
  status: ('A' for Active; 'I' for Inactive)
    5  A    between atoms: CA   and  CB  
    6  A    between atoms: CB   and  CG  
    7  A    between atoms: CG   and  CD  
    8  A    between atoms: CD   and  CE  

$$$$
