ligand_44_pose_13_2HRL.pdbqt
 OpenBabel07062320523D

 51 52  0  0  1  0  0  0  0  0999 V2000
   30.7520   31.3270   20.1700 N   0  0  0  0  0  0  0  0  0  0  0  0
   31.5280   32.3490   20.7700 C   0  0  0  0  0  0  0  0  0  0  0  0
   31.5090   33.5560   20.4630 O   0  0  0  0  0  0  0  0  0  0  0  0
   30.8460   30.3210   20.5180 H   0  0  0  0  0  0  0  0  0  0  0  0
   29.8500   31.6410   19.1070 C   0  0  0  0  0  0  0  0  0  0  0  0
   30.4070   31.4440   17.7200 C   0  0  2  0  0  0  0  0  0  0  0  0
   30.8180   32.7100   17.0590 C   0  0  1  0  0  0  0  0  0  0  0  0
   30.5540   32.8790   15.6160 C   0  0  2  0  0  0  0  0  0  0  0  0
   31.9110   34.5110   14.7110 C   0  0  2  0  0  0  0  0  0  0  0  0
   31.1020   34.6540   13.4420 C   0  0  0  0  0  0  0  0  0  0  0  0
   31.8070   33.1710   15.0500 O   0  0  0  0  0  0  0  0  0  0  0  0
   29.6830   34.3890   13.8100 C   0  0  1  0  0  0  0  0  0  0  0  0
   29.4730   33.7580   15.1730 C   0  0  1  0  0  0  0  0  0  0  0  0
   31.3900   35.3850   15.6390 O   0  0  0  0  0  0  0  0  0  0  0  0
   30.5770   35.0770   16.0810 H   0  0  0  0  0  0  0  0  0  0  0  0
   33.3240   34.8060   14.3770 C   0  0  0  0  0  0  0  0  0  0  0  0
   34.1350   35.2900   15.1970 O   0  0  0  0  0  0  0  0  0  0  0  0
   33.7400   34.5230   13.0790 O   0  0  0  0  0  0  0  0  0  0  0  0
   33.2040   33.9600   12.4390 H   0  0  0  0  0  0  0  0  0  0  0  0
   29.0290   35.6430   13.8490 O   0  0  0  0  0  0  0  0  0  0  0  0
   29.3180   36.1810   14.6120 H   0  0  0  0  0  0  0  0  0  0  0  0
   28.2120   33.0080   14.9720 N   0  0  0  0  0  0  0  0  0  0  0  0
   27.2390   32.8620   15.9670 C   0  0  0  0  0  0  0  0  0  0  0  0
   28.1100   32.5920   14.0150 H   0  0  0  0  0  0  0  0  0  0  0  0
   26.0040   32.0780   15.6660 C   0  0  0  0  0  0  0  0  0  0  0  0
   27.3930   33.3740   17.0850 O   0  0  0  0  0  0  0  0  0  0  0  0
   30.4980   33.7820   17.8790 O   0  0  0  0  0  0  0  0  0  0  0  0
   31.0200   33.7180   18.7300 H   0  0  0  0  0  0  0  0  0  0  0  0
   29.6720   30.5900   16.9160 O   0  0  0  0  0  0  0  0  0  0  0  0
   30.1460   29.7670   16.6810 H   0  0  0  0  0  0  0  0  0  0  0  0
   32.3960   31.9900   21.8010 O   0  0  0  0  0  0  0  0  0  0  0  0
   33.2190   32.9420   22.4300 C   0  0  0  0  0  0  0  0  0  0  0  0
   34.6260   32.8190   22.0080 C   0  0  0  0  0  0  0  0  0  0  0  0
   35.5950   33.7750   21.8100 C   0  0  0  0  0  0  0  0  0  0  0  0
   35.1890   31.6200   21.7310 N   0  0  0  0  0  0  0  0  0  0  0  0
   36.7160   33.1260   21.4200 N   0  0  0  0  0  0  0  0  0  0  0  0
   36.4300   31.8390   21.3860 N   0  0  0  0  0  0  0  0  0  0  0  0
   37.9770   33.7670   21.1080 C   0  0  0  0  0  0  0  0  0  0  0  0
   38.0480   33.9120   19.6160 C   0  0  0  0  0  0  0  0  0  0  0  0
   38.6610   32.9170   18.8690 C   0  0  0  0  0  0  0  0  0  0  0  0
   37.5040   35.0250   19.0120 C   0  0  0  0  0  0  0  0  0  0  0  0
   38.7140   33.0690   17.5080 C   0  0  0  0  0  0  0  0  0  0  0  0
   37.5580   35.1820   17.6270 C   0  0  0  0  0  0  0  0  0  0  0  0
   38.1700   34.1830   16.9110 C   0  0  0  0  0  0  0  0  0  0  0  0
   38.2580   34.3690   15.0100 Br  0  0  0  0  0  0  0  0  0  0  0  0
   29.8670   25.5550   16.9770 C   0  0  0  0  0  0  0  0  0  0  0  0
   28.3450   25.7220   17.0260 C   0  0  0  0  0  0  0  0  0  0  0  0
   27.6010   24.4030   16.8800 C   0  0  0  0  0  0  0  0  0  0  0  0
   26.1460   24.5310   17.2390 C   0  0  0  0  0  0  0  0  0  0  0  0
   25.6180   23.1810   17.7110 C   0  0  0  0  0  0  0  0  0  0  0  0
   24.2800   22.9150   17.1310 N   0  0  0  0  0  0  0  0  0  0  0  0
  1  4  1  0  0  0  0
  1  2  1  0  0  0  0
  2 31  1  0  0  0  0
  3  2  2  0  0  0  0
  5  1  1  0  0  0  0
  6  5  1  1  0  0  0
  7  6  1  0  0  0  0
  7 27  1  1  0  0  0
  8  7  1  1  0  0  0
  9 16  1  6  0  0  0
  9 11  1  0  0  0  0
  9 14  1  0  0  0  0
 10 12  1  0  0  0  0
 10  9  1  0  0  0  0
 11  8  1  0  0  0  0
 12 20  1  1  0  0  0
 12 13  1  0  0  0  0
 13 22  1  6  0  0  0
 13  8  1  0  0  0  0
 14 15  1  0  0  0  0
 16 17  2  0  0  0  0
 18 16  1  0  0  0  0
 19 18  1  0  0  0  0
 20 21  1  0  0  0  0
 22 23  1  0  0  0  0
 23 26  2  0  0  0  0
 24 22  1  0  0  0  0
 25 23  1  0  0  0  0
 27 28  1  0  0  0  0
 29  6  1  0  0  0  0
 30 29  1  0  0  0  0
 31 32  1  0  0  0  0
 33 32  1  0  0  0  0
 34 33  2  0  0  0  0
 35 33  1  0  0  0  0
 36 34  1  0  0  0  0
 37 36  1  0  0  0  0
 37 35  2  0  0  0  0
 38 36  1  0  0  0  0
 39 38  1  0  0  0  0
 40 39  2  0  0  0  0
 41 39  1  0  0  0  0
 42 40  1  0  0  0  0
 43 41  2  0  0  0  0
 44 42  2  0  0  0  0
 44 43  1  0  0  0  0
 45 44  1  0  0  0  0
 46 47  1  0  0  0  0
 48 47  1  0  0  0  0
 48 49  1  0  0  0  0
 49 50  1  0  0  0  0
 51 50  1  0  0  0  0
M  END
>  <REMARK>
 VINA RESULT:    -4.496      4.654      9.129
 INTER + INTRA:         -14.442
 INTER:                  -8.728
 INTRA:                  -5.714
 UNBOUND:                -6.398
 SMILES CC(=O)N[C@@H]1[C@@H](O)C[C@](O)(C(=O)O)O[C@H]1C(O)[C@H](O)CNC(=O)OCc1cn(Cc2ccc(Br)cc2)nn1
 SMILES IDX 21 1 22 2 23 3 20 5 18 6 16 7 15 8 9 9 8 10 14 11 6 12 5 13
 SMILES IDX 10 14 11 16 12 17 13 18 7 20 4 22 2 23 1 25 3 26 17 27 19 29
 SMILES IDX 24 31 25 32 26 33 27 34 38 35 28 36 37 37 29 38 30 39 31 40
 SMILES IDX 36 41 32 42 35 43 33 44 34 45
 H PARENT 21 4 10 15 13 19 7 21 4 24 17 28 19 30
 Flexibility Score: inf
  4 active torsions:
  status: ('A' for Active; 'I' for Inactive)
    1  A    between atoms: CA   and  CB  
    2  A    between atoms: CB   and  CG  
    3  A    between atoms: CG   and  CD  
    4  A    between atoms: CD   and  CE  

>  <TORSDO>
F 16

>  <BEGIN_>
RES LYS A 131

$$$$
ligand_44_pose_13_2HRL.pdbqt
 OpenBabel07062320523D

  6  5  0  0  0  0  0  0  0  0999 V2000
   33.1930   34.6630    9.2900 C   0  0  0  0  0  0  0  0  0  0  0  0
   32.0600   35.3600   10.0340 C   0  0  0  0  0  0  0  0  0  0  0  0
   30.7930   35.4790    9.2270 C   0  0  0  0  0  0  0  0  0  0  0  0
   30.1280   34.1200    9.0700 C   0  0  0  0  0  0  0  0  0  0  0  0
   28.6680   34.2820    8.6920 C   0  0  0  0  0  0  0  0  0  0  0  0
   28.5120   35.2140    7.5410 N   0  0  0  0  0  0  0  0  0  0  0  0
  1  2  1  0  0  0  0
  3  2  1  0  0  0  0
  4  3  1  0  0  0  0
  5  4  1  0  0  0  0
  6  5  1  0  0  0  0
M  END
>  <EGIN_R>
ES LYS A 135

>  <REMARK>
  4 active torsions:
  status: ('A' for Active; 'I' for Inactive)
    5  A    between atoms: CA   and  CB  
    6  A    between atoms: CB   and  CG  
    7  A    between atoms: CG   and  CD  
    8  A    between atoms: CD   and  CE  

$$$$
