ligand_82_pose_18_2HRL.pdbqt
 OpenBabel07062320523D

 53 55  0  0  1  0  0  0  0  0999 V2000
   31.8790   36.5520   13.7280 N   0  0  0  0  0  0  0  0  0  0  0  0
   32.0630   36.9150   12.3490 C   0  0  0  0  0  0  0  0  0  0  0  0
   33.0180   36.3980   11.7140 O   0  0  0  0  0  0  0  0  0  0  0  0
   31.0900   36.9770   14.2580 H   0  0  0  0  0  0  0  0  0  0  0  0
   32.7860   35.6110   14.3500 C   0  0  0  0  0  0  0  0  0  0  0  0
   32.1310   35.0820   15.5940 C   0  0  2  0  0  0  0  0  0  0  0  0
   31.3140   33.8370   15.3270 C   0  0  1  0  0  0  0  0  0  0  0  0
   30.0410   33.9570   16.1320 C   0  0  2  0  0  0  0  0  0  0  0  0
   29.3460   31.7840   16.5380 C   0  0  2  0  0  0  0  0  0  0  0  0
   28.0340   31.9580   15.8070 C   0  0  0  0  0  0  0  0  0  0  0  0
   29.8550   32.9570   17.0410 O   0  0  0  0  0  0  0  0  0  0  0  0
   27.6890   33.4260   15.8140 C   0  0  1  0  0  0  0  0  0  0  0  0
   28.8650   34.1630   15.2060 C   0  0  1  0  0  0  0  0  0  0  0  0
   30.2520   31.1120   15.7120 O   0  0  0  0  0  0  0  0  0  0  0  0
   29.7180   30.7780   14.9410 H   0  0  0  0  0  0  0  0  0  0  0  0
   29.0750   30.8820   17.6950 C   0  0  0  0  0  0  0  0  0  0  0  0
   29.3860   31.2720   18.8720 O   0  0  0  0  0  0  0  0  0  0  0  0
   28.5010   29.6370   17.5560 O   0  0  0  0  0  0  0  0  0  0  0  0
   27.5570   29.5190   17.1970 H   0  0  0  0  0  0  0  0  0  0  0  0
   26.5620   33.7080   15.0650 O   0  0  0  0  0  0  0  0  0  0  0  0
   26.8110   34.4030   14.4040 H   0  0  0  0  0  0  0  0  0  0  0  0
   28.5640   35.5530   14.9790 N   0  0  0  0  0  0  0  0  0  0  0  0
   28.6130   36.1260   13.6820 C   0  0  0  0  0  0  0  0  0  0  0  0
   28.3040   36.1390   15.8020 H   0  0  0  0  0  0  0  0  0  0  0  0
   28.2870   37.5710   13.5390 C   0  0  0  0  0  0  0  0  0  0  0  0
   28.9260   35.4260   12.6870 O   0  0  0  0  0  0  0  0  0  0  0  0
   30.9590   33.7570   13.9830 O   0  0  0  0  0  0  0  0  0  0  0  0
   30.0070   33.6230   13.8410 H   0  0  0  0  0  0  0  0  0  0  0  0
   31.2580   36.0930   16.0480 O   0  0  0  0  0  0  0  0  0  0  0  0
   30.9400   36.6450   15.2800 H   0  0  0  0  0  0  0  0  0  0  0  0
   31.2460   37.7970   11.6960 O   0  0  0  0  0  0  0  0  0  0  0  0
   31.5310   38.3510   10.4240 C   0  0  0  0  0  0  0  0  0  0  0  0
   30.3070   38.3840    9.5970 C   0  0  0  0  0  0  0  0  0  0  0  0
   29.0250   38.7160    9.9700 C   0  0  0  0  0  0  0  0  0  0  0  0
   30.2440   38.0840    8.2920 N   0  0  0  0  0  0  0  0  0  0  0  0
   28.2050   38.6110    8.8820 N   0  0  0  0  0  0  0  0  0  0  0  0
   28.9810   38.2240    7.8800 N   0  0  0  0  0  0  0  0  0  0  0  0
   26.7880   38.8790    8.8850 C   0  0  0  0  0  0  0  0  0  0  0  0
   26.0060   37.6480    9.2540 C   0  0  0  0  0  0  0  0  0  0  0  0
   25.7620   36.6910    8.3630 C   0  0  0  0  0  0  0  0  0  0  0  0
   25.4790   37.4570   10.6200 C   0  0  2  0  0  0  0  0  0  0  0  0
   25.2040   35.3970    8.8420 C   0  0  0  0  0  0  0  0  0  0  0  0
   25.9800   36.0800   11.0790 C   0  0  0  0  0  0  0  0  0  0  0  0
   24.1000   36.8330   10.5420 C   0  0  0  0  0  0  0  0  0  0  0  0
   24.8210   35.5010   10.2860 C   0  0  1  0  0  0  0  0  0  0  0  0
   23.3800   36.7780   11.8600 C   0  0  0  0  0  0  0  0  0  0  0  0
   23.2340   37.3020    9.4230 C   0  0  0  0  0  0  0  0  0  0  0  0
   29.8670   25.5550   16.9770 C   0  0  0  0  0  0  0  0  0  0  0  0
   28.3450   25.7220   17.0260 C   0  0  0  0  0  0  0  0  0  0  0  0
   27.6000   24.4110   16.8260 C   0  0  0  0  0  0  0  0  0  0  0  0
   26.1630   24.5050   17.2570 C   0  0  0  0  0  0  0  0  0  0  0  0
   25.9790   23.7710   18.5810 C   0  0  0  0  0  0  0  0  0  0  0  0
   24.5780   23.8900   19.0500 N   0  0  0  0  0  0  0  0  0  0  0  0
  1  4  1  0  0  0  0
  1  5  1  0  0  0  0
  2  1  1  0  0  0  0
  3  2  2  0  0  0  0
  6  5  1  6  0  0  0
  6 29  1  0  0  0  0
  7 27  1  6  0  0  0
  7  6  1  0  0  0  0
  8  7  1  6  0  0  0
  8 11  1  0  0  0  0
  9 14  1  6  0  0  0
  9 11  1  0  0  0  0
  9 16  1  0  0  0  0
 10 12  1  0  0  0  0
 10  9  1  0  0  0  0
 12 20  1  6  0  0  0
 13 22  1  1  0  0  0
 13 12  1  0  0  0  0
 13  8  1  0  0  0  0
 15 14  1  0  0  0  0
 16 17  2  0  0  0  0
 18 16  1  0  0  0  0
 19 18  1  0  0  0  0
 21 20  1  0  0  0  0
 22 24  1  0  0  0  0
 23 22  1  0  0  0  0
 25 23  1  0  0  0  0
 26 23  2  0  0  0  0
 28 27  1  0  0  0  0
 30 29  1  0  0  0  0
 31  2  1  0  0  0  0
 32 31  1  0  0  0  0
 33 34  2  0  0  0  0
 33 32  1  0  0  0  0
 35 33  1  0  0  0  0
 36 38  1  0  0  0  0
 36 34  1  0  0  0  0
 37 35  2  0  0  0  0
 37 36  1  0  0  0  0
 38 39  1  0  0  0  0
 39 41  1  0  0  0  0
 40 42  1  0  0  0  0
 40 39  2  0  0  0  0
 41 43  1  1  0  0  0
 44 41  1  0  0  0  0
 44 46  1  0  0  0  0
 45 42  1  6  0  0  0
 45 44  1  0  0  0  0
 45 43  1  0  0  0  0
 47 44  1  0  0  0  0
 48 49  1  0  0  0  0
 50 49  1  0  0  0  0
 50 51  1  0  0  0  0
 51 52  1  0  0  0  0
 52 53  1  0  0  0  0
M  END
>  <REMARK>
 VINA RESULT:    -5.254      4.116      9.207
 INTER + INTRA:         -14.737
 INTER:                  -8.375
 INTRA:                  -6.362
 UNBOUND:                -5.337
 SMILES CC(=O)N[C@@H]1[C@@H](O)C[C@](O)(C(=O)O)O[C@H]1C(O)[C@H](O)CNC(=O)OCc1cn(CC2=CC[C@H]3C[C@@H]2C3(C)C)nn1
 SMILES IDX 21 1 22 2 23 3 20 5 18 6 16 7 15 8 9 9 8 10 14 11 6 12 5 13
 SMILES IDX 10 14 11 16 12 17 13 18 7 20 4 22 2 23 1 25 3 26 17 27 19 29
 SMILES IDX 24 31 25 32 26 33 27 34 40 35 28 36 39 37 29 38 30 39 31 40
 SMILES IDX 35 41 32 42 34 43 36 44 33 45 37 46 38 47
 H PARENT 21 4 10 15 13 19 7 21 4 24 17 28 19 30
 Flexibility Score: inf
  4 active torsions:
  status: ('A' for Active; 'I' for Inactive)
    1  A    between atoms: CA   and  CB  
    2  A    between atoms: CB   and  CG  
    3  A    between atoms: CG   and  CD  
    4  A    between atoms: CD   and  CE  

>  <TORSDO>
F 16

>  <BEGIN_>
RES LYS A 131

$$$$
ligand_82_pose_18_2HRL.pdbqt
 OpenBabel07062320523D

  6  5  0  0  0  0  0  0  0  0999 V2000
   33.1930   34.6630    9.2900 C   0  0  0  0  0  0  0  0  0  0  0  0
   32.0600   35.3600   10.0340 C   0  0  0  0  0  0  0  0  0  0  0  0
   30.7370   34.6480    9.9210 C   0  0  0  0  0  0  0  0  0  0  0  0
   30.3180   34.5220    8.4640 C   0  0  0  0  0  0  0  0  0  0  0  0
   28.8060   34.4910    8.3460 C   0  0  0  0  0  0  0  0  0  0  0  0
   28.1960   33.7280    9.4700 N   0  0  0  0  0  0  0  0  0  0  0  0
  1  2  1  0  0  0  0
  3  2  1  0  0  0  0
  4  3  1  0  0  0  0
  5  4  1  0  0  0  0
  5  6  1  0  0  0  0
M  END
>  <EGIN_R>
ES LYS A 135

>  <REMARK>
  4 active torsions:
  status: ('A' for Active; 'I' for Inactive)
    5  A    between atoms: CA   and  CB  
    6  A    between atoms: CB   and  CG  
    7  A    between atoms: CG   and  CD  
    8  A    between atoms: CD   and  CE  

$$$$
