ligand_46_pose_18_2HRL.pdbqt
 OpenBabel07062320523D

 50 51  0  0  1  0  0  0  0  0999 V2000
   25.5030   34.6470   14.2670 N   0  0  0  0  0  0  0  0  0  0  0  0
   24.1680   34.3400   13.9340 C   0  0  0  0  0  0  0  0  0  0  0  0
   23.3840   33.8210   14.7440 O   0  0  0  0  0  0  0  0  0  0  0  0
   26.0710   35.0890   13.4970 H   0  0  0  0  0  0  0  0  0  0  0  0
   26.0700   34.3860   15.5540 C   0  0  0  0  0  0  0  0  0  0  0  0
   27.5420   34.0790   15.4110 C   0  0  2  0  0  0  0  0  0  0  0  0
   28.3850   35.0370   16.2020 C   0  0  2  0  0  0  0  0  0  0  0  0
   29.8690   34.7870   16.0690 C   0  0  2  0  0  0  0  0  0  0  0  0
   31.2980   34.6100   14.2290 C   0  0  2  0  0  0  0  0  0  0  0  0
   32.3110   34.0350   15.2330 C   0  0  0  0  0  0  0  0  0  0  0  0
   30.4130   35.3480   14.9550 O   0  0  0  0  0  0  0  0  0  0  0  0
   31.5410   32.9000   15.9050 C   0  0  1  0  0  0  0  0  0  0  0  0
   30.1630   33.3520   16.3300 C   0  0  1  0  0  0  0  0  0  0  0  0
   30.7530   33.6010   13.4630 O   0  0  0  0  0  0  0  0  0  0  0  0
   31.2580   33.5370   12.6250 H   0  0  0  0  0  0  0  0  0  0  0  0
   32.0710   35.5700   13.3620 C   0  0  0  0  0  0  0  0  0  0  0  0
   32.0470   36.8010   13.5680 O   0  0  0  0  0  0  0  0  0  0  0  0
   32.8280   35.0950   12.3090 O   0  0  0  0  0  0  0  0  0  0  0  0
   33.7370   34.7090   12.5030 H   0  0  0  0  0  0  0  0  0  0  0  0
   31.4790   31.8750   14.9600 O   0  0  0  0  0  0  0  0  0  0  0  0
   31.4840   32.2660   14.0600 H   0  0  0  0  0  0  0  0  0  0  0  0
   30.0090   33.1460   17.7820 N   0  0  0  0  0  0  0  0  0  0  0  0
   29.4640   31.9600   18.3320 C   0  0  0  0  0  0  0  0  0  0  0  0
   30.3140   33.9130   18.4470 H   0  0  0  0  0  0  0  0  0  0  0  0
   29.2900   31.7080   19.7830 C   0  0  0  0  0  0  0  0  0  0  0  0
   29.1040   31.0550   17.5380 O   0  0  0  0  0  0  0  0  0  0  0  0
   27.9600   35.0410   17.5160 O   0  0  0  0  0  0  0  0  0  0  0  0
   27.6060   34.1450   17.7310 H   0  0  0  0  0  0  0  0  0  0  0  0
   27.8100   34.1400   14.0430 O   0  0  0  0  0  0  0  0  0  0  0  0
   27.2620   33.5160   13.5170 H   0  0  0  0  0  0  0  0  0  0  0  0
   23.6770   34.6150   12.6590 O   0  0  0  0  0  0  0  0  0  0  0  0
   24.1720   35.7230   11.9470 C   0  0  0  0  0  0  0  0  0  0  0  0
   25.3070   35.3480   11.0690 C   0  0  0  0  0  0  0  0  0  0  0  0
   25.2740   35.2520    9.7040 C   0  0  0  0  0  0  0  0  0  0  0  0
   26.5460   35.0400   11.4610 N   0  0  0  0  0  0  0  0  0  0  0  0
   26.5020   34.8850    9.3000 N   0  0  0  0  0  0  0  0  0  0  0  0
   27.2580   34.7630   10.3970 N   0  0  0  0  0  0  0  0  0  0  0  0
   26.9810   34.6510    7.9620 C   0  0  0  0  0  0  0  0  0  0  0  0
   27.2590   35.9320    7.2600 C   0  0  0  0  0  0  0  0  0  0  0  0
   26.6900   37.1270    7.6860 C   0  0  0  0  0  0  0  0  0  0  0  0
   28.0850   35.9970    6.1650 C   0  0  0  0  0  0  0  0  0  0  0  0
   26.9510   38.3060    7.0330 C   0  0  0  0  0  0  0  0  0  0  0  0
   28.3530   37.1800    5.5000 C   0  0  0  0  0  0  0  0  0  0  0  0
   27.7830   38.3550    5.9340 C   0  0  0  0  0  0  0  0  0  0  0  0
   29.8670   25.5550   16.9770 C   0  0  0  0  0  0  0  0  0  0  0  0
   28.3450   25.7220   17.0260 C   0  0  0  0  0  0  0  0  0  0  0  0
   27.6000   24.4110   16.8260 C   0  0  0  0  0  0  0  0  0  0  0  0
   26.1550   24.5130   17.2300 C   0  0  0  0  0  0  0  0  0  0  0  0
   26.0510   24.5210   18.7510 C   0  0  0  0  0  0  0  0  0  0  0  0
   25.2620   23.3580   19.2230 N   0  0  0  0  0  0  0  0  0  0  0  0
  1  5  1  0  0  0  0
  2  1  1  0  0  0  0
  2  3  2  0  0  0  0
  4  1  1  0  0  0  0
  6  5  1  6  0  0  0
  6  7  1  0  0  0  0
  7 27  1  1  0  0  0
  8  7  1  6  0  0  0
  8 13  1  0  0  0  0
  9 16  1  6  0  0  0
  9 11  1  0  0  0  0
  9 10  1  0  0  0  0
 10 12  1  0  0  0  0
 11  8  1  0  0  0  0
 12 20  1  6  0  0  0
 12 13  1  0  0  0  0
 13 22  1  1  0  0  0
 14  9  1  0  0  0  0
 15 14  1  0  0  0  0
 16 17  2  0  0  0  0
 18 19  1  0  0  0  0
 18 16  1  0  0  0  0
 21 20  1  0  0  0  0
 22 23  1  0  0  0  0
 22 24  1  0  0  0  0
 23 25  1  0  0  0  0
 26 23  2  0  0  0  0
 27 28  1  0  0  0  0
 29  6  1  0  0  0  0
 30 29  1  0  0  0  0
 31  2  1  0  0  0  0
 32 31  1  0  0  0  0
 33 35  1  0  0  0  0
 33 32  1  0  0  0  0
 34 33  2  0  0  0  0
 36 34  1  0  0  0  0
 36 37  1  0  0  0  0
 37 35  2  0  0  0  0
 38 36  1  0  0  0  0
 39 40  1  0  0  0  0
 39 38  1  0  0  0  0
 41 39  2  0  0  0  0
 42 40  2  0  0  0  0
 43 44  2  0  0  0  0
 43 41  1  0  0  0  0
 44 42  1  0  0  0  0
 45 46  1  0  0  0  0
 47 46  1  0  0  0  0
 47 48  1  0  0  0  0
 48 49  1  0  0  0  0
 49 50  1  0  0  0  0
M  END
>  <REMARK>
 VINA RESULT:    -5.076      5.083      8.916
 INTER + INTRA:         -14.372
 INTER:                 -10.249
 INTRA:                  -4.123
 UNBOUND:                -5.290
 SMILES CC(=O)N[C@@H]1[C@@H](O)C[C@](O)(C(=O)O)O[C@H]1C(O)[C@H](O)CNC(=O)OCc1cn(Cc2ccccc2)nn1
 SMILES IDX 21 1 22 2 23 3 20 5 18 6 16 7 15 8 9 9 8 10 14 11 6 12 5 13
 SMILES IDX 10 14 11 16 12 17 13 18 7 20 4 22 2 23 1 25 3 26 17 27 19 29
 SMILES IDX 24 31 25 32 26 33 27 34 37 35 28 36 36 37 29 38 30 39 31 40
 SMILES IDX 35 41 32 42 34 43 33 44
 H PARENT 21 4 10 15 13 19 7 21 4 24 17 28 19 30
 Flexibility Score: inf
  4 active torsions:
  status: ('A' for Active; 'I' for Inactive)
    1  A    between atoms: CA   and  CB  
    2  A    between atoms: CB   and  CG  
    3  A    between atoms: CG   and  CD  
    4  A    between atoms: CD   and  CE  

>  <TORSDO>
F 16

>  <BEGIN_>
RES LYS A 131

$$$$
ligand_46_pose_18_2HRL.pdbqt
 OpenBabel07062320523D

  6  5  0  0  0  0  0  0  0  0999 V2000
   33.1930   34.6630    9.2900 C   0  0  0  0  0  0  0  0  0  0  0  0
   32.0600   35.3600   10.0340 C   0  0  0  0  0  0  0  0  0  0  0  0
   30.7590   35.3730    9.2740 C   0  0  0  0  0  0  0  0  0  0  0  0
   30.1980   36.7840    9.1940 C   0  0  0  0  0  0  0  0  0  0  0  0
   29.9500   37.3390   10.5830 C   0  0  0  0  0  0  0  0  0  0  0  0
   28.5970   37.9530   10.6820 N   0  0  0  0  0  0  0  0  0  0  0  0
  1  2  1  0  0  0  0
  3  2  1  0  0  0  0
  4  3  1  0  0  0  0
  4  5  1  0  0  0  0
  5  6  1  0  0  0  0
M  END
>  <EGIN_R>
ES LYS A 135

>  <REMARK>
  4 active torsions:
  status: ('A' for Active; 'I' for Inactive)
    5  A    between atoms: CA   and  CB  
    6  A    between atoms: CB   and  CG  
    7  A    between atoms: CG   and  CD  
    8  A    between atoms: CD   and  CE  

$$$$
