ligand_0_pose_4_2HRL.pdbqt
 OpenBabel07062320523D

 54 55  0  0  1  0  0  0  0  0999 V2000
   29.2420   27.4970   20.2590 N   0  0  0  0  0  0  0  0  0  0  0  0
   27.8770   27.5040   20.6470 C   0  0  0  0  0  0  0  0  0  0  0  0
   27.5670   27.0820   21.7750 O   0  0  0  0  0  0  0  0  0  0  0  0
   29.4370   27.8700   19.2850 H   0  0  0  0  0  0  0  0  0  0  0  0
   30.3300   27.0300   21.0820 C   0  0  0  0  0  0  0  0  0  0  0  0
   31.6510   27.6930   20.7310 C   0  0  2  0  0  0  0  0  0  0  0  0
   31.5400   29.1890   20.7140 C   0  0  1  0  0  0  0  0  0  0  0  0
   32.6950   29.9040   21.3030 C   0  0  2  0  0  0  0  0  0  0  0  0
   34.1610   29.6580   23.1100 C   0  0  2  0  0  0  0  0  0  0  0  0
   34.8510   30.7990   22.4220 C   0  0  0  0  0  0  0  0  0  0  0  0
   33.1050   29.1420   22.4280 O   0  0  0  0  0  0  0  0  0  0  0  0
   33.9340   31.8710   21.9430 C   0  0  1  0  0  0  0  0  0  0  0  0
   32.5340   31.2910   21.7780 C   0  0  1  0  0  0  0  0  0  0  0  0
   33.8180   30.0530   24.4250 O   0  0  0  0  0  0  0  0  0  0  0  0
   34.3840   29.5180   25.0540 H   0  0  0  0  0  0  0  0  0  0  0  0
   35.1760   28.5770   23.2720 C   0  0  0  0  0  0  0  0  0  0  0  0
   36.3280   28.9000   23.6940 O   0  0  0  0  0  0  0  0  0  0  0  0
   34.9340   27.2500   22.9900 O   0  0  0  0  0  0  0  0  0  0  0  0
   34.3060   26.9800   22.2490 H   0  0  0  0  0  0  0  0  0  0  0  0
   33.9450   32.9160   22.8540 O   0  0  0  0  0  0  0  0  0  0  0  0
   33.0960   33.4230   22.8860 H   0  0  0  0  0  0  0  0  0  0  0  0
   31.6550   32.1600   21.0940 N   0  0  0  0  0  0  0  0  0  0  0  0
   30.7610   33.0130   21.7740 C   0  0  0  0  0  0  0  0  0  0  0  0
   31.6550   32.2130   20.0560 H   0  0  0  0  0  0  0  0  0  0  0  0
   29.8210   33.9410   21.1110 C   0  0  0  0  0  0  0  0  0  0  0  0
   30.7640   32.9830   23.0240 O   0  0  0  0  0  0  0  0  0  0  0  0
   30.9690   29.7280   19.5860 O   0  0  0  0  0  0  0  0  0  0  0  0
   31.6880   30.0470   18.9590 H   0  0  0  0  0  0  0  0  0  0  0  0
   32.2510   27.1250   19.6430 O   0  0  0  0  0  0  0  0  0  0  0  0
   32.7440   26.2950   19.8940 H   0  0  0  0  0  0  0  0  0  0  0  0
   26.8690   27.9700   19.8100 O   0  0  0  0  0  0  0  0  0  0  0  0
   27.0880   28.2230   18.4330 C   0  0  0  0  0  0  0  0  0  0  0  0
   27.7710   29.5390   18.2510 C   0  0  0  0  0  0  0  0  0  0  0  0
   28.2400   30.0400   17.0510 C   0  0  0  0  0  0  0  0  0  0  0  0
   28.0550   30.4620   19.1820 N   0  0  0  0  0  0  0  0  0  0  0  0
   28.7960   31.2620   17.3080 N   0  0  0  0  0  0  0  0  0  0  0  0
   28.6690   31.4830   18.5840 N   0  0  0  0  0  0  0  0  0  0  0  0
   29.4050   32.1070   16.3250 C   0  0  0  0  0  0  0  0  0  0  0  0
   28.6860   33.0470   15.6240 C   0  0  0  0  0  0  0  0  0  0  0  0
   30.7670   31.9560   16.0900 C   0  0  0  0  0  0  0  0  0  0  0  0
   29.3530   33.8350   14.6810 C   0  0  0  0  0  0  0  0  0  0  0  0
   31.4040   32.7390   15.1580 C   0  0  0  0  0  0  0  0  0  0  0  0
   30.6870   33.6740   14.4590 C   0  0  0  0  0  0  0  0  0  0  0  0
   27.2600   33.2570   15.8230 C   0  0  0  0  0  0  0  0  0  0  0  0
   26.9120   34.1270   16.6850 O   0  0  0  0  0  0  0  0  0  0  0  0
   26.2660   32.5410   15.1040 N   0  0  0  0  0  0  0  0  0  0  0  0
   26.0760   32.7070   14.1030 H   0  0  0  0  0  0  0  0  0  0  0  0
   25.7120   31.8200   15.6570 H   0  0  0  0  0  0  0  0  0  0  0  0
   29.8670   25.5550   16.9770 C   0  0  0  0  0  0  0  0  0  0  0  0
   28.3450   25.7220   17.0260 C   0  0  0  0  0  0  0  0  0  0  0  0
   27.5990   24.4660   16.6020 C   0  0  0  0  0  0  0  0  0  0  0  0
   27.0390   23.7160   17.7790 C   0  0  0  0  0  0  0  0  0  0  0  0
   26.2190   24.6660   18.6450 C   0  0  0  0  0  0  0  0  0  0  0  0
   25.4980   23.9160   19.7000 N   0  0  0  0  0  0  0  0  0  0  0  0
  1  2  1  0  0  0  0
  1  5  1  0  0  0  0
  2  3  2  0  0  0  0
  4  1  1  0  0  0  0
  6  5  1  6  0  0  0
  7 27  1  6  0  0  0
  7  6  1  0  0  0  0
  8  7  1  1  0  0  0
  8 13  1  0  0  0  0
  8 11  1  0  0  0  0
  9 16  1  1  0  0  0
  9 14  1  0  0  0  0
 10  9  1  0  0  0  0
 11  9  1  0  0  0  0
 12 10  1  0  0  0  0
 12 20  1  1  0  0  0
 13 22  1  6  0  0  0
 13 12  1  0  0  0  0
 14 15  1  0  0  0  0
 16 17  2  0  0  0  0
 18 16  1  0  0  0  0
 19 18  1  0  0  0  0
 20 21  1  0  0  0  0
 22 23  1  0  0  0  0
 23 26  2  0  0  0  0
 24 22  1  0  0  0  0
 25 23  1  0  0  0  0
 28 27  1  0  0  0  0
 29 30  1  0  0  0  0
 29  6  1  0  0  0  0
 31  2  1  0  0  0  0
 32 31  1  0  0  0  0
 33 32  1  0  0  0  0
 33 35  1  0  0  0  0
 34 36  1  0  0  0  0
 34 33  2  0  0  0  0
 36 37  1  0  0  0  0
 37 35  2  0  0  0  0
 38 36  1  0  0  0  0
 39 44  1  0  0  0  0
 39 38  2  0  0  0  0
 40 38  1  0  0  0  0
 41 39  1  0  0  0  0
 42 40  2  0  0  0  0
 43 41  2  0  0  0  0
 43 42  1  0  0  0  0
 44 45  2  0  0  0  0
 46 48  1  0  0  0  0
 46 44  1  0  0  0  0
 47 46  1  0  0  0  0
 49 50  1  0  0  0  0
 51 50  1  0  0  0  0
 51 52  1  0  0  0  0
 52 53  1  0  0  0  0
 53 54  1  0  0  0  0
M  END
>  <REMARK>
 VINA RESULT:    -5.384      2.589      4.431
 INTER + INTRA:         -15.046
 INTER:                  -9.095
 INTRA:                  -5.951
 UNBOUND:                -5.414
 SMILES CC(=O)N[C@@H]1[C@@H](O)C[C@](O)(C(=O)O)O[C@H]1C(O)[C@H](O)CNC(=O)OCc1cn(-c2ccccc2C(N)=O)nn1
 SMILES IDX 21 1 22 2 23 3 20 5 18 6 16 7 15 8 9 9 8 10 14 11 6 12 5 13
 SMILES IDX 10 14 11 16 12 17 13 18 7 20 4 22 2 23 1 25 3 26 17 27 19 29
 SMILES IDX 24 31 25 32 26 33 27 34 39 35 28 36 38 37 29 38 34 39 30 40
 SMILES IDX 33 41 31 42 32 43 35 44 37 45 36 46
 H PARENT 21 4 10 15 13 19 7 21 4 24 17 28 19 30 36 47 36 48
 Flexibility Score: inf
  4 active torsions:
  status: ('A' for Active; 'I' for Inactive)
    1  A    between atoms: CA   and  CB  
    2  A    between atoms: CB   and  CG  
    3  A    between atoms: CG   and  CD  
    4  A    between atoms: CD   and  CE  

>  <TORSDO>
F 16

>  <BEGIN_>
RES LYS A 131

$$$$
ligand_0_pose_4_2HRL.pdbqt
 OpenBabel07062320523D

  6  5  0  0  0  0  0  0  0  0999 V2000
   33.1930   34.6630    9.2900 C   0  0  0  0  0  0  0  0  0  0  0  0
   32.0600   35.3600   10.0340 C   0  0  0  0  0  0  0  0  0  0  0  0
   30.7210   34.6930    9.8530 C   0  0  0  0  0  0  0  0  0  0  0  0
   30.4060   34.5120    8.3760 C   0  0  0  0  0  0  0  0  0  0  0  0
   29.3920   35.5420    7.9180 C   0  0  0  0  0  0  0  0  0  0  0  0
   28.0350   34.9410    7.7960 N   0  0  0  0  0  0  0  0  0  0  0  0
  1  2  1  0  0  0  0
  3  2  1  0  0  0  0
  4  3  1  0  0  0  0
  5  4  1  0  0  0  0
  6  5  1  0  0  0  0
M  END
>  <EGIN_R>
ES LYS A 135

>  <REMARK>
  4 active torsions:
  status: ('A' for Active; 'I' for Inactive)
    5  A    between atoms: CA   and  CB  
    6  A    between atoms: CB   and  CG  
    7  A    between atoms: CG   and  CD  
    8  A    between atoms: CD   and  CE  

$$$$
