ligand_64_pose_9_2HRL.pdbqt
 OpenBabel07062320523D

 59 61  0  0  1  0  0  0  0  0999 V2000
   28.8890   40.8330   10.5930 N   0  0  0  0  0  0  0  0  0  0  0  0
   27.7610   40.6320   11.4500 C   0  0  0  0  0  0  0  0  0  0  0  0
   27.8430   39.7520   12.3450 O   0  0  0  0  0  0  0  0  0  0  0  0
   28.7550   41.5890    9.8600 H   0  0  0  0  0  0  0  0  0  0  0  0
   30.1110   40.0840   10.7000 C   0  0  0  0  0  0  0  0  0  0  0  0
   30.0830   38.8740    9.8150 C   0  0  2  0  0  0  0  0  0  0  0  0
   29.2120   39.1920    8.6070 C   0  0  2  0  0  0  0  0  0  0  0  0
   28.5850   37.9470    8.0850 C   0  0  2  0  0  0  0  0  0  0  0  0
   29.1410   35.7740    7.4690 C   0  0  2  0  0  0  0  0  0  0  0  0
   27.6220   35.6550    7.4520 C   0  0  0  0  0  0  0  0  0  0  0  0
   29.5830   36.9500    8.0190 O   0  0  0  0  0  0  0  0  0  0  0  0
   27.0910   36.7530    6.6000 C   0  0  1  0  0  0  0  0  0  0  0  0
   27.9820   38.0090    6.7240 C   0  0  1  0  0  0  0  0  0  0  0  0
   29.5210   35.6580    6.1100 O   0  0  0  0  0  0  0  0  0  0  0  0
   29.2010   34.7610    5.8300 H   0  0  0  0  0  0  0  0  0  0  0  0
   29.7570   34.6610    8.2150 C   0  0  0  0  0  0  0  0  0  0  0  0
   29.0530   33.9150    8.9200 O   0  0  0  0  0  0  0  0  0  0  0  0
   31.1140   34.4340    8.1390 O   0  0  0  0  0  0  0  0  0  0  0  0
   31.5110   33.5590    7.8080 H   0  0  0  0  0  0  0  0  0  0  0  0
   26.9120   36.4070    5.2790 O   0  0  0  0  0  0  0  0  0  0  0  0
   26.1580   36.8990    4.8870 H   0  0  0  0  0  0  0  0  0  0  0  0
   27.1750   39.1640    6.4400 N   0  0  0  0  0  0  0  0  0  0  0  0
   27.0870   39.7080    5.1060 C   0  0  0  0  0  0  0  0  0  0  0  0
   26.6410   39.6140    7.1870 H   0  0  0  0  0  0  0  0  0  0  0  0
   26.2740   40.8870    4.7720 C   0  0  0  0  0  0  0  0  0  0  0  0
   27.7650   39.0970    4.2270 O   0  0  0  0  0  0  0  0  0  0  0  0
   29.8450   39.9410    7.6520 O   0  0  0  0  0  0  0  0  0  0  0  0
   30.0730   40.8540    7.9030 H   0  0  0  0  0  0  0  0  0  0  0  0
   29.4570   37.8650   10.5750 O   0  0  0  0  0  0  0  0  0  0  0  0
   28.6920   37.5690   10.0380 H   0  0  0  0  0  0  0  0  0  0  0  0
   26.6120   41.3920   11.2920 O   0  0  0  0  0  0  0  0  0  0  0  0
   26.3250   41.8970   10.0030 C   0  0  0  0  0  0  0  0  0  0  0  0
   25.5150   40.8670    9.3020 C   0  0  0  0  0  0  0  0  0  0  0  0
   24.9740   39.7000    9.8560 C   0  0  0  0  0  0  0  0  0  0  0  0
   25.1220   40.8120    8.0080 N   0  0  0  0  0  0  0  0  0  0  0  0
   24.3020   39.0170    8.9130 N   0  0  0  0  0  0  0  0  0  0  0  0
   24.4090   39.7110    7.8050 N   0  0  0  0  0  0  0  0  0  0  0  0
   23.6240   37.7680    9.1570 C   0  0  0  0  0  0  0  0  0  0  0  0
   22.5380   37.3800    8.4160 C   0  0  0  0  0  0  0  0  0  0  0  0
   24.0610   36.9180   10.1670 C   0  0  0  0  0  0  0  0  0  0  0  0
   21.8650   36.1940    8.6240 C   0  0  0  0  0  0  0  0  0  0  0  0
   23.4020   35.7350   10.3850 C   0  0  0  0  0  0  0  0  0  0  0  0
   22.3370   35.4190    9.6130 N   0  0  0  0  0  0  0  0  0  0  0  0
   20.7160   35.8040    7.8250 C   0  0  0  0  0  0  0  0  0  0  0  0
   19.9280   36.6850    7.4280 O   0  0  0  0  0  0  0  0  0  0  0  0
   20.4790   34.4860    7.4960 O   0  0  0  0  0  0  0  0  0  0  0  0
   20.1760   34.1920    6.5610 H   0  0  0  0  0  0  0  0  0  0  0  0
   23.8430   34.8140   11.4490 C   0  0  0  0  0  0  0  0  0  0  0  0
   25.1760   34.8170   11.7980 C   0  0  0  0  0  0  0  0  0  0  0  0
   22.9470   33.9870   12.0630 C   0  0  0  0  0  0  0  0  0  0  0  0
   25.5900   33.9590   12.7900 C   0  0  0  0  0  0  0  0  0  0  0  0
   23.4050   33.1410   13.0550 C   0  0  0  0  0  0  0  0  0  0  0  0
   24.7260   33.1050   13.4410 C   0  0  0  0  0  0  0  0  0  0  0  0
   29.8670   25.5550   16.9770 C   0  0  0  0  0  0  0  0  0  0  0  0
   28.3450   25.7220   17.0260 C   0  0  0  0  0  0  0  0  0  0  0  0
   27.6010   24.4060   16.8630 C   0  0  0  0  0  0  0  0  0  0  0  0
   26.1610   24.5130   17.2840 C   0  0  0  0  0  0  0  0  0  0  0  0
   25.9990   23.9490   18.6920 C   0  0  0  0  0  0  0  0  0  0  0  0
   25.1900   24.8670   19.5280 N   0  0  0  0  0  0  0  0  0  0  0  0
  1  5  1  0  0  0  0
  1  2  1  0  0  0  0
  2  3  2  0  0  0  0
  4  1  1  0  0  0  0
  6 29  1  0  0  0  0
  6  5  1  1  0  0  0
  7 27  1  6  0  0  0
  7  6  1  0  0  0  0
  8  7  1  6  0  0  0
  9 14  1  6  0  0  0
  9 11  1  0  0  0  0
  9 16  1  0  0  0  0
 10  9  1  0  0  0  0
 11  8  1  0  0  0  0
 12 20  1  6  0  0  0
 12 13  1  0  0  0  0
 12 10  1  0  0  0  0
 13 22  1  1  0  0  0
 13  8  1  0  0  0  0
 15 14  1  0  0  0  0
 16 17  2  0  0  0  0
 18 16  1  0  0  0  0
 19 18  1  0  0  0  0
 21 20  1  0  0  0  0
 22 24  1  0  0  0  0
 23 22  1  0  0  0  0
 25 23  1  0  0  0  0
 26 23  2  0  0  0  0
 27 28  1  0  0  0  0
 30 29  1  0  0  0  0
 31  2  1  0  0  0  0
 32 31  1  0  0  0  0
 33 34  2  0  0  0  0
 33 32  1  0  0  0  0
 35 33  1  0  0  0  0
 36 38  1  0  0  0  0
 36 34  1  0  0  0  0
 37 35  2  0  0  0  0
 37 36  1  0  0  0  0
 38 40  2  0  0  0  0
 39 41  2  0  0  0  0
 39 38  1  0  0  0  0
 40 42  1  0  0  0  0
 41 43  1  0  0  0  0
 42 48  1  0  0  0  0
 43 42  2  0  0  0  0
 44 41  1  0  0  0  0
 45 44  2  0  0  0  0
 46 44  1  0  0  0  0
 47 46  1  0  0  0  0
 48 49  2  0  0  0  0
 48 50  1  0  0  0  0
 49 51  1  0  0  0  0
 50 52  2  0  0  0  0
 51 53  2  0  0  0  0
 52 53  1  0  0  0  0
 54 55  1  0  0  0  0
 56 55  1  0  0  0  0
 56 57  1  0  0  0  0
 57 58  1  0  0  0  0
 58 59  1  0  0  0  0
M  END
>  <REMARK>
 VINA RESULT:    -6.007      3.813      7.444
 INTER + INTRA:         -16.491
 INTER:                 -10.589
 INTRA:                  -5.903
 UNBOUND:                -5.216
 SMILES CC(=O)N[C@@H]1[C@@H](O)C[C@](O)(C(=O)O)O[C@H]1C(O)[C@H](O)CNC(=O)OCc1cn(-c2cc(C(=O)O)nc(-c3ccccc3)c2)nn1
 SMILES IDX 21 1 22 2 23 3 20 5 18 6 16 7 15 8 9 9 8 10 14 11 6 12 5 13
 SMILES IDX 10 14 11 16 12 17 13 18 7 20 4 22 2 23 1 25 3 26 17 27 19 29
 SMILES IDX 24 31 25 32 26 33 27 34 45 35 28 36 44 37 29 38 30 39 43 40
 SMILES IDX 31 41 36 42 35 43 32 44 33 45 34 46 37 48 38 49 42 50 39 51
 SMILES IDX 41 52 40 53
 H PARENT 21 4 10 15 13 19 7 21 4 24 17 28 19 30 34 47
 Flexibility Score: inf
  4 active torsions:
  status: ('A' for Active; 'I' for Inactive)
    1  A    between atoms: CA   and  CB  
    2  A    between atoms: CB   and  CG  
    3  A    between atoms: CG   and  CD  
    4  A    between atoms: CD   and  CE  

>  <TORSDO>
F 18

>  <BEGIN_>
RES LYS A 131

$$$$
ligand_64_pose_9_2HRL.pdbqt
 OpenBabel07062320523D

  6  5  0  0  0  0  0  0  0  0999 V2000
   33.1930   34.6630    9.2900 C   0  0  0  0  0  0  0  0  0  0  0  0
   32.0600   35.3600   10.0340 C   0  0  0  0  0  0  0  0  0  0  0  0
   32.5340   36.2660   11.1410 C   0  0  0  0  0  0  0  0  0  0  0  0
   32.3500   35.5990   12.4960 C   0  0  0  0  0  0  0  0  0  0  0  0
   30.9380   35.8130   13.0070 C   0  0  0  0  0  0  0  0  0  0  0  0
   30.1770   34.5330   13.0340 N   0  0  0  0  0  0  0  0  0  0  0  0
  1  2  1  0  0  0  0
  2  3  1  0  0  0  0
  3  4  1  0  0  0  0
  4  5  1  0  0  0  0
  5  6  1  0  0  0  0
M  END
>  <EGIN_R>
ES LYS A 135

>  <REMARK>
  4 active torsions:
  status: ('A' for Active; 'I' for Inactive)
    5  A    between atoms: CA   and  CB  
    6  A    between atoms: CB   and  CG  
    7  A    between atoms: CG   and  CD  
    8  A    between atoms: CD   and  CE  

$$$$
