ligand_17_pose_3_2HRL.pdbqt
 OpenBabel07062320523D

 50 50  0  0  1  0  0  0  0  0999 V2000
   28.1150   27.4880   18.8580 N   0  0  0  0  0  0  0  0  0  0  0  0
   26.9750   28.1380   18.2940 C   0  0  0  0  0  0  0  0  0  0  0  0
   26.0740   28.5690   19.0330 O   0  0  0  0  0  0  0  0  0  0  0  0
   28.8250   27.1530   18.1830 H   0  0  0  0  0  0  0  0  0  0  0  0
   28.3050   27.2900   20.2610 C   0  0  0  0  0  0  0  0  0  0  0  0
   29.5020   28.0060   20.8220 C   0  0  2  0  0  0  0  0  0  0  0  0
   29.3760   29.4970   20.5990 C   0  0  1  0  0  0  0  0  0  0  0  0
   29.7730   30.2740   21.8220 C   0  0  2  0  0  0  0  0  0  0  0  0
   28.2950   32.0750   21.4960 C   0  0  2  0  0  0  0  0  0  0  0  0
   29.4550   32.8830   20.9300 C   0  0  0  0  0  0  0  0  0  0  0  0
   28.7000   31.0130   22.2500 O   0  0  0  0  0  0  0  0  0  0  0  0
   30.6720   32.5560   21.8020 C   0  0  1  0  0  0  0  0  0  0  0  0
   30.9810   31.1160   21.6020 C   0  0  1  0  0  0  0  0  0  0  0  0
   27.4510   31.7650   20.4320 O   0  0  0  0  0  0  0  0  0  0  0  0
   26.5040   31.6840   20.7390 H   0  0  0  0  0  0  0  0  0  0  0  0
   27.5340   32.9820   22.4130 C   0  0  0  0  0  0  0  0  0  0  0  0
   26.7460   33.8540   21.9880 O   0  0  0  0  0  0  0  0  0  0  0  0
   27.7090   32.8490   23.7740 O   0  0  0  0  0  0  0  0  0  0  0  0
   27.5530   31.9810   24.2780 H   0  0  0  0  0  0  0  0  0  0  0  0
   31.7090   33.4040   21.4110 O   0  0  0  0  0  0  0  0  0  0  0  0
   31.4720   34.3140   21.7790 H   0  0  0  0  0  0  0  0  0  0  0  0
   32.1300   30.6670   22.3650 N   0  0  0  0  0  0  0  0  0  0  0  0
   33.0460   29.6870   21.8910 C   0  0  0  0  0  0  0  0  0  0  0  0
   32.3390   31.0600   23.3270 H   0  0  0  0  0  0  0  0  0  0  0  0
   34.2160   29.2610   22.7220 C   0  0  0  0  0  0  0  0  0  0  0  0
   32.8840   29.1670   20.7700 O   0  0  0  0  0  0  0  0  0  0  0  0
   30.2250   29.7640   19.5100 O   0  0  0  0  0  0  0  0  0  0  0  0
   29.8370   29.2620   18.7440 H   0  0  0  0  0  0  0  0  0  0  0  0
   30.6590   27.4490   20.3570 O   0  0  0  0  0  0  0  0  0  0  0  0
   30.5800   27.2680   19.3880 H   0  0  0  0  0  0  0  0  0  0  0  0
   26.8210   28.3160   16.9290 O   0  0  0  0  0  0  0  0  0  0  0  0
   26.5810   29.5930   16.3550 C   0  0  0  0  0  0  0  0  0  0  0  0
   27.7440   30.4610   16.6690 C   0  0  0  0  0  0  0  0  0  0  0  0
   28.8340   30.6310   15.8160 C   0  0  0  0  0  0  0  0  0  0  0  0
   28.0100   31.2210   17.7400 N   0  0  0  0  0  0  0  0  0  0  0  0
   29.6860   31.4680   16.4010 N   0  0  0  0  0  0  0  0  0  0  0  0
   29.1770   31.8170   17.5630 N   0  0  0  0  0  0  0  0  0  0  0  0
   30.9440   31.9140   15.8660 C   0  0  0  0  0  0  0  0  0  0  0  0
   30.6750   32.9490   14.7880 C   0  0  0  0  0  0  0  0  0  0  0  0
   31.0350   34.2770   15.1680 N   0  0  0  0  0  0  0  0  0  0  0  0
   31.8910   34.3690   16.3030 C   0  0  0  0  0  0  0  0  0  0  0  0
   33.0640   35.2770   15.9060 C   0  0  0  0  0  0  0  0  0  0  0  0
   29.9570   35.2050   15.1020 C   0  0  0  0  0  0  0  0  0  0  0  0
   29.0300   35.1540   16.2760 C   0  0  0  0  0  0  0  0  0  0  0  0
   29.8670   25.5550   16.9770 C   0  0  0  0  0  0  0  0  0  0  0  0
   28.3450   25.7220   17.0260 C   0  0  0  0  0  0  0  0  0  0  0  0
   27.6020   24.4000   16.9130 C   0  0  0  0  0  0  0  0  0  0  0  0
   26.1500   24.5330   17.2810 C   0  0  0  0  0  0  0  0  0  0  0  0
   26.0010   24.4690   18.7980 C   0  0  0  0  0  0  0  0  0  0  0  0
   24.8660   25.3100   19.2440 N   0  0  0  0  0  0  0  0  0  0  0  0
  1  5  1  0  0  0  0
  2  1  1  0  0  0  0
  2  3  2  0  0  0  0
  4  1  1  0  0  0  0
  6  5  1  6  0  0  0
  7 27  1  6  0  0  0
  7  6  1  0  0  0  0
  8  7  1  6  0  0  0
  8 11  1  0  0  0  0
  9 14  1  6  0  0  0
  9 11  1  0  0  0  0
  9 16  1  0  0  0  0
 10  9  1  0  0  0  0
 10 12  1  0  0  0  0
 12 20  1  6  0  0  0
 13 12  1  0  0  0  0
 13  8  1  0  0  0  0
 13 22  1  1  0  0  0
 14 15  1  0  0  0  0
 16 18  1  0  0  0  0
 17 16  2  0  0  0  0
 18 19  1  0  0  0  0
 20 21  1  0  0  0  0
 22 24  1  0  0  0  0
 23 22  1  0  0  0  0
 23 25  1  0  0  0  0
 26 23  2  0  0  0  0
 28 27  1  0  0  0  0
 29  6  1  0  0  0  0
 30 29  1  0  0  0  0
 31  2  1  0  0  0  0
 32 33  1  0  0  0  0
 32 31  1  0  0  0  0
 33 35  1  0  0  0  0
 34 36  1  0  0  0  0
 34 33  2  0  0  0  0
 36 37  1  0  0  0  0
 37 35  2  0  0  0  0
 38 36  1  0  0  0  0
 39 40  1  0  0  0  0
 39 38  1  0  0  0  0
 40 41  1  0  0  0  0
 42 41  1  0  0  0  0
 43 40  1  0  0  0  0
 43 44  1  0  0  0  0
 45 46  1  0  0  0  0
 47 46  1  0  0  0  0
 47 48  1  0  0  0  0
 48 49  1  0  0  0  0
 49 50  1  0  0  0  0
M  END
>  <REMARK>
 VINA RESULT:    -3.847      1.825      4.222
 INTER + INTRA:         -14.715
 INTER:                  -7.666
 INTRA:                  -7.049
 UNBOUND:                -7.158
 SMILES CCN(CC)CCn1cc(COC(=O)NC[C@@H](O)C(O)[C@@H]2O[C@@](O)(C(=O)O)C[C@H](O)[C@H]2NC(C)=O)nn1
 SMILES IDX 15 1 13 2 14 3 16 5 17 6 19 7 21 8 23 9 28 10 22 11 29 12
 SMILES IDX 31 13 24 14 25 16 26 17 27 18 30 20 32 22 33 23 34 25 35 26
 SMILES IDX 20 27 18 29 12 31 11 32 10 33 9 34 36 35 8 36 37 37 7 38
 SMILES IDX 6 39 3 40 2 41 1 42 4 43 5 44
 H PARENT 15 4 24 15 27 19 30 21 32 24 20 28 18 30
 Flexibility Score: inf
  4 active torsions:
  status: ('A' for Active; 'I' for Inactive)
    1  A    between atoms: CA   and  CB  
    2  A    between atoms: CB   and  CG  
    3  A    between atoms: CG   and  CD  
    4  A    between atoms: CD   and  CE  

>  <TORSDO>
F 19

>  <BEGIN_>
RES LYS A 131

$$$$
ligand_17_pose_3_2HRL.pdbqt
 OpenBabel07062320523D

  6  5  0  0  0  0  0  0  0  0999 V2000
   33.1930   34.6630    9.2900 C   0  0  0  0  0  0  0  0  0  0  0  0
   32.0600   35.3600   10.0340 C   0  0  0  0  0  0  0  0  0  0  0  0
   30.7120   34.7240    9.8110 C   0  0  0  0  0  0  0  0  0  0  0  0
   30.4380   34.5540    8.3250 C   0  0  0  0  0  0  0  0  0  0  0  0
   28.9940   34.8900    8.0070 C   0  0  0  0  0  0  0  0  0  0  0  0
   28.8670   35.4780    6.6450 N   0  0  0  0  0  0  0  0  0  0  0  0
  1  2  1  0  0  0  0
  3  2  1  0  0  0  0
  4  3  1  0  0  0  0
  5  4  1  0  0  0  0
  6  5  1  0  0  0  0
M  END
>  <EGIN_R>
ES LYS A 135

>  <REMARK>
  4 active torsions:
  status: ('A' for Active; 'I' for Inactive)
    5  A    between atoms: CA   and  CB  
    6  A    between atoms: CB   and  CG  
    7  A    between atoms: CG   and  CD  
    8  A    between atoms: CD   and  CE  

$$$$
