ligand_19_pose_12_2HRL.pdbqt
 OpenBabel07062320523D

 49 49  0  0  1  0  0  0  0  0999 V2000
   27.8810   29.4370   18.3720 N   0  0  0  0  0  0  0  0  0  0  0  0
   27.0350   30.2530   17.5890 C   0  0  0  0  0  0  0  0  0  0  0  0
   25.9870   30.7140   18.0650 O   0  0  0  0  0  0  0  0  0  0  0  0
   28.7520   29.0820   17.8870 H   0  0  0  0  0  0  0  0  0  0  0  0
   27.6380   29.0730   19.7520 C   0  0  0  0  0  0  0  0  0  0  0  0
   28.5440   27.9940   20.2090 C   0  0  2  0  0  0  0  0  0  0  0  0
   29.9300   28.4220   20.6390 C   0  0  2  0  0  0  0  0  0  0  0  0
   30.0110   29.0310   22.0060 C   0  0  2  0  0  0  0  0  0  0  0  0
   32.2700   28.5140   22.2070 C   0  0  2  0  0  0  0  0  0  0  0  0
   31.9120   27.1650   22.6990 C   0  0  0  0  0  0  0  0  0  0  0  0
   31.2990   29.4760   22.2990 O   0  0  0  0  0  0  0  0  0  0  0  0
   30.5600   27.0030   23.2920 C   0  0  1  0  0  0  0  0  0  0  0  0
   29.6260   28.1550   23.1550 C   0  0  1  0  0  0  0  0  0  0  0  0
   32.6720   28.4890   20.8490 O   0  0  0  0  0  0  0  0  0  0  0  0
   32.0280   27.9910   20.2930 H   0  0  0  0  0  0  0  0  0  0  0  0
   33.4580   29.0390   22.9380 C   0  0  0  0  0  0  0  0  0  0  0  0
   33.3220   29.7720   23.9760 O   0  0  0  0  0  0  0  0  0  0  0  0
   34.7680   28.7820   22.5640 O   0  0  0  0  0  0  0  0  0  0  0  0
   34.9450   27.9140   22.0470 H   0  0  0  0  0  0  0  0  0  0  0  0
   29.9590   25.8870   22.7020 O   0  0  0  0  0  0  0  0  0  0  0  0
   29.6290   25.2470   23.4050 H   0  0  0  0  0  0  0  0  0  0  0  0
   29.5560   29.0030   24.3220 N   0  0  0  0  0  0  0  0  0  0  0  0
   28.5260   28.9270   25.2650 C   0  0  0  0  0  0  0  0  0  0  0  0
   30.3170   29.6970   24.4440 H   0  0  0  0  0  0  0  0  0  0  0  0
   28.4300   29.7850   26.4740 C   0  0  0  0  0  0  0  0  0  0  0  0
   27.6350   28.0800   25.0660 O   0  0  0  0  0  0  0  0  0  0  0  0
   30.1840   29.5510   19.7700 O   0  0  0  0  0  0  0  0  0  0  0  0
   30.5630   29.1050   18.9520 H   0  0  0  0  0  0  0  0  0  0  0  0
   28.5220   26.8050   19.5440 O   0  0  0  0  0  0  0  0  0  0  0  0
   27.7150   26.6640   19.0260 H   0  0  0  0  0  0  0  0  0  0  0  0
   27.3750   30.5550   16.2510 O   0  0  0  0  0  0  0  0  0  0  0  0
   28.6620   30.1950   15.7480 C   0  0  0  0  0  0  0  0  0  0  0  0
   29.4840   31.4200   15.6920 C   0  0  0  0  0  0  0  0  0  0  0  0
   29.0400   32.6810   15.3300 C   0  0  0  0  0  0  0  0  0  0  0  0
   30.7890   31.5500   15.9660 N   0  0  0  0  0  0  0  0  0  0  0  0
   30.0870   33.5160   15.3990 N   0  0  0  0  0  0  0  0  0  0  0  0
   31.1260   32.8110   15.7840 N   0  0  0  0  0  0  0  0  0  0  0  0
   30.0350   34.9290   15.0980 C   0  0  0  0  0  0  0  0  0  0  0  0
   29.8340   35.0920   13.6100 C   0  0  0  0  0  0  0  0  0  0  0  0
   31.0020   34.7300   12.9320 O   0  0  0  0  0  0  0  0  0  0  0  0
   32.1230   35.5050   12.9690 C   0  0  0  0  0  0  0  0  0  0  0  0
   33.1850   35.0890   13.4700 O   0  0  0  0  0  0  0  0  0  0  0  0
   32.1050   36.8970   12.3990 C   0  0  0  0  0  0  0  0  0  0  0  0
   29.8670   25.5550   16.9770 C   0  0  0  0  0  0  0  0  0  0  0  0
   28.3450   25.7220   17.0260 C   0  0  0  0  0  0  0  0  0  0  0  0
   27.6010   24.4020   16.8960 C   0  0  0  0  0  0  0  0  0  0  0  0
   26.1640   24.5160   17.3240 C   0  0  0  0  0  0  0  0  0  0  0  0
   25.9870   23.8670   18.6930 C   0  0  0  0  0  0  0  0  0  0  0  0
   25.6070   24.8830   19.7030 N   0  0  0  0  0  0  0  0  0  0  0  0
  1  5  1  0  0  0  0
  2  3  2  0  0  0  0
  2  1  1  0  0  0  0
  4  1  1  0  0  0  0
  6  5  1  6  0  0  0
  6  7  1  0  0  0  0
  7 27  1  6  0  0  0
  8  7  1  6  0  0  0
  8 11  1  0  0  0  0
  8 13  1  0  0  0  0
  9 14  1  6  0  0  0
  9 11  1  0  0  0  0
  9 10  1  0  0  0  0
  9 16  1  0  0  0  0
 10 12  1  0  0  0  0
 12 20  1  6  0  0  0
 13 12  1  0  0  0  0
 13 22  1  1  0  0  0
 15 14  1  0  0  0  0
 16 17  2  0  0  0  0
 18 16  1  0  0  0  0
 19 18  1  0  0  0  0
 20 21  1  0  0  0  0
 22 24  1  0  0  0  0
 22 23  1  0  0  0  0
 23 25  1  0  0  0  0
 26 23  2  0  0  0  0
 28 27  1  0  0  0  0
 29  6  1  0  0  0  0
 30 29  1  0  0  0  0
 31  2  1  0  0  0  0
 32 31  1  0  0  0  0
 33 32  1  0  0  0  0
 33 35  1  0  0  0  0
 34 36  1  0  0  0  0
 34 33  2  0  0  0  0
 36 37  1  0  0  0  0
 37 35  2  0  0  0  0
 38 36  1  0  0  0  0
 39 38  1  0  0  0  0
 40 41  1  0  0  0  0
 40 39  1  0  0  0  0
 41 42  2  0  0  0  0
 43 41  1  0  0  0  0
 44 45  1  0  0  0  0
 46 45  1  0  0  0  0
 46 47  1  0  0  0  0
 47 48  1  0  0  0  0
 48 49  1  0  0  0  0
M  END
>  <REMARK>
 VINA RESULT:    -4.042      2.915      6.360
 INTER + INTRA:         -13.764
 INTER:                  -9.047
 INTRA:                  -4.717
 UNBOUND:                -6.059
 SMILES CC(=O)N[C@@H]1[C@@H](O)C[C@](O)(C(=O)O)O[C@H]1C(O)[C@H](O)CNC(=O)OCc1cn(CCOC(C)=O)nn1
 SMILES IDX 21 1 22 2 23 3 20 5 18 6 16 7 15 8 9 9 8 10 14 11 6 12 5 13
 SMILES IDX 10 14 11 16 12 17 13 18 7 20 4 22 2 23 1 25 3 26 17 27 19 29
 SMILES IDX 24 31 25 32 26 33 27 34 36 35 28 36 35 37 29 38 30 39 31 40
 SMILES IDX 32 41 34 42 33 43
 H PARENT 21 4 10 15 13 19 7 21 4 24 17 28 19 30
 Flexibility Score: inf
  4 active torsions:
  status: ('A' for Active; 'I' for Inactive)
    1  A    between atoms: CA   and  CB  
    2  A    between atoms: CB   and  CG  
    3  A    between atoms: CG   and  CD  
    4  A    between atoms: CD   and  CE  

>  <TORSDO>
F 18

>  <BEGIN_>
RES LYS A 131

$$$$
ligand_19_pose_12_2HRL.pdbqt
 OpenBabel07062320523D

  6  5  0  0  0  0  0  0  0  0999 V2000
   33.1930   34.6630    9.2900 C   0  0  0  0  0  0  0  0  0  0  0  0
   32.0600   35.3600   10.0340 C   0  0  0  0  0  0  0  0  0  0  0  0
   30.7760   35.4300    9.2480 C   0  0  0  0  0  0  0  0  0  0  0  0
   30.2160   34.0370    9.0090 C   0  0  0  0  0  0  0  0  0  0  0  0
   28.7020   34.0490    9.1010 C   0  0  0  0  0  0  0  0  0  0  0  0
   28.2480   34.5900   10.4120 N   0  0  0  0  0  0  0  0  0  0  0  0
  1  2  1  0  0  0  0
  3  2  1  0  0  0  0
  4  5  1  0  0  0  0
  4  3  1  0  0  0  0
  5  6  1  0  0  0  0
M  END
>  <EGIN_R>
ES LYS A 135

>  <REMARK>
  4 active torsions:
  status: ('A' for Active; 'I' for Inactive)
    5  A    between atoms: CA   and  CB  
    6  A    between atoms: CB   and  CG  
    7  A    between atoms: CG   and  CD  
    8  A    between atoms: CD   and  CE  

$$$$
