ligand_39_pose_1_2HRL.pdbqt
 OpenBabel07062320523D

 51 52  0  0  1  0  0  0  0  0999 V2000
   27.9320   27.6110   18.7850 N   0  0  0  0  0  0  0  0  0  0  0  0
   27.0470   28.0940   17.8160 C   0  0  0  0  0  0  0  0  0  0  0  0
   25.8050   28.0130   18.0220 O   0  0  0  0  0  0  0  0  0  0  0  0
   28.9660   27.6990   18.5750 H   0  0  0  0  0  0  0  0  0  0  0  0
   27.5400   27.0060   20.0390 C   0  0  0  0  0  0  0  0  0  0  0  0
   27.3820   28.0830   21.0900 C   0  0  2  0  0  0  0  0  0  0  0  0
   28.3890   27.9140   22.2080 C   0  0  2  0  0  0  0  0  0  0  0  0
   29.6490   28.7210   21.9650 C   0  0  2  0  0  0  0  0  0  0  0  0
   30.6260   30.0390   20.3070 C   0  0  2  0  0  0  0  0  0  0  0  0
   31.8820   29.2530   20.3330 C   0  0  0  0  0  0  0  0  0  0  0  0
   29.5610   29.2500   20.7140 O   0  0  0  0  0  0  0  0  0  0  0  0
   31.8820   27.9840   21.0930 C   0  0  1  0  0  0  0  0  0  0  0  0
   30.8810   27.8970   22.2090 C   0  0  1  0  0  0  0  0  0  0  0  0
   30.3340   30.3780   18.9610 O   0  0  0  0  0  0  0  0  0  0  0  0
   30.1400   29.5660   18.4220 H   0  0  0  0  0  0  0  0  0  0  0  0
   30.7490   31.2890   21.0590 C   0  0  0  0  0  0  0  0  0  0  0  0
   29.8430   32.1660   21.0970 O   0  0  0  0  0  0  0  0  0  0  0  0
   31.9130   31.5410   21.7720 O   0  0  0  0  0  0  0  0  0  0  0  0
   32.3320   30.8660   22.4000 H   0  0  0  0  0  0  0  0  0  0  0  0
   31.7500   26.8890   20.2180 O   0  0  0  0  0  0  0  0  0  0  0  0
   32.6480   26.8250   19.7630 H   0  0  0  0  0  0  0  0  0  0  0  0
   31.4900   28.1800   23.4900 N   0  0  0  0  0  0  0  0  0  0  0  0
   31.4340   27.2750   24.5810 C   0  0  0  0  0  0  0  0  0  0  0  0
   31.9920   29.0780   23.6310 H   0  0  0  0  0  0  0  0  0  0  0  0
   32.0550   27.5510   25.9070 C   0  0  0  0  0  0  0  0  0  0  0  0
   30.8110   26.1780   24.3820 O   0  0  0  0  0  0  0  0  0  0  0  0
   28.6600   26.5630   22.3980 O   0  0  0  0  0  0  0  0  0  0  0  0
   28.6790   26.1120   21.4990 H   0  0  0  0  0  0  0  0  0  0  0  0
   26.0670   27.9240   21.5900 O   0  0  0  0  0  0  0  0  0  0  0  0
   25.7330   27.0220   21.4610 H   0  0  0  0  0  0  0  0  0  0  0  0
   27.4350   28.6720   16.6160 O   0  0  0  0  0  0  0  0  0  0  0  0
   26.7820   29.8380   16.1420 C   0  0  0  0  0  0  0  0  0  0  0  0
   27.7450   30.9260   15.8730 C   0  0  0  0  0  0  0  0  0  0  0  0
   29.1420   30.8200   15.8180 C   0  0  0  0  0  0  0  0  0  0  0  0
   27.5140   32.2220   15.6300 N   0  0  0  0  0  0  0  0  0  0  0  0
   29.6960   31.9920   15.5580 N   0  0  0  0  0  0  0  0  0  0  0  0
   28.6550   32.8510   15.4440 N   0  0  0  0  0  0  0  0  0  0  0  0
   31.0540   32.4570   15.4050 C   0  0  0  0  0  0  0  0  0  0  0  0
   31.5080   33.4280   16.3910 C   0  0  0  0  0  0  0  0  0  0  0  0
   31.1780   33.2900   17.7420 C   0  0  0  0  0  0  0  0  0  0  0  0
   32.2950   34.4920   16.0570 C   0  0  0  0  0  0  0  0  0  0  0  0
   31.6400   34.1930   18.6580 C   0  0  0  0  0  0  0  0  0  0  0  0
   32.7590   35.4040   16.9870 C   0  0  0  0  0  0  0  0  0  0  0  0
   32.7830   34.8310   14.2210 Br  0  0  0  0  0  0  0  0  0  0  0  0
   32.4320   35.2600   18.3120 C   0  0  0  0  0  0  0  0  0  0  0  0
   29.8670   25.5550   16.9770 C   0  0  0  0  0  0  0  0  0  0  0  0
   28.3450   25.7220   17.0260 C   0  0  0  0  0  0  0  0  0  0  0  0
   27.6020   24.3980   16.9300 C   0  0  0  0  0  0  0  0  0  0  0  0
   26.1540   24.5330   17.3130 C   0  0  0  0  0  0  0  0  0  0  0  0
   25.9350   23.9300   18.6960 C   0  0  0  0  0  0  0  0  0  0  0  0
   24.7040   24.4790   19.3120 N   0  0  0  0  0  0  0  0  0  0  0  0
  1  5  1  0  0  0  0
  2  3  2  0  0  0  0
  2  1  1  0  0  0  0
  4  1  1  0  0  0  0
  6  5  1  6  0  0  0
  6 29  1  0  0  0  0
  6  7  1  0  0  0  0
  7 27  1  6  0  0  0
  8  7  1  6  0  0  0
  8 13  1  0  0  0  0
  9 14  1  6  0  0  0
  9 10  1  0  0  0  0
  9 11  1  0  0  0  0
  9 16  1  0  0  0  0
 10 12  1  0  0  0  0
 11  8  1  0  0  0  0
 12 20  1  6  0  0  0
 12 13  1  0  0  0  0
 13 22  1  1  0  0  0
 15 14  1  0  0  0  0
 16 17  2  0  0  0  0
 16 18  1  0  0  0  0
 18 19  1  0  0  0  0
 21 20  1  0  0  0  0
 22 24  1  0  0  0  0
 22 23  1  0  0  0  0
 23 25  1  0  0  0  0
 26 23  2  0  0  0  0
 28 27  1  0  0  0  0
 30 29  1  0  0  0  0
 31  2  1  0  0  0  0
 32 31  1  0  0  0  0
 33 32  1  0  0  0  0
 34 33  2  0  0  0  0
 35 33  1  0  0  0  0
 36 34  1  0  0  0  0
 37 36  1  0  0  0  0
 37 35  2  0  0  0  0
 38 36  1  0  0  0  0
 38 39  1  0  0  0  0
 39 40  1  0  0  0  0
 40 42  2  0  0  0  0
 41 39  2  0  0  0  0
 41 43  1  0  0  0  0
 43 45  2  0  0  0  0
 44 41  1  0  0  0  0
 45 42  1  0  0  0  0
 46 47  1  0  0  0  0
 48 47  1  0  0  0  0
 48 49  1  0  0  0  0
 49 50  1  0  0  0  0
 50 51  1  0  0  0  0
M  END
>  <REMARK>
 VINA RESULT:    -4.506      2.211      3.015
 INTER + INTRA:         -15.488
 INTER:                  -9.868
 INTRA:                  -5.620
 UNBOUND:                -7.426
 SMILES CC(=O)N[C@@H]1[C@@H](O)C[C@](O)(C(=O)O)O[C@H]1C(O)[C@H](O)CNC(=O)OCc1cn(Cc2ccccc2Br)nn1
 SMILES IDX 21 1 22 2 23 3 20 5 18 6 16 7 15 8 9 9 8 10 14 11 6 12 5 13
 SMILES IDX 10 14 11 16 12 17 13 18 7 20 4 22 2 23 1 25 3 26 17 27 19 29
 SMILES IDX 24 31 25 32 26 33 27 34 38 35 28 36 37 37 29 38 30 39 31 40
 SMILES IDX 35 41 32 42 34 43 36 44 33 45
 H PARENT 21 4 10 15 13 19 7 21 4 24 17 28 19 30
 Flexibility Score: inf
  4 active torsions:
  status: ('A' for Active; 'I' for Inactive)
    1  A    between atoms: CA   and  CB  
    2  A    between atoms: CB   and  CG  
    3  A    between atoms: CG   and  CD  
    4  A    between atoms: CD   and  CE  

>  <TORSDO>
F 16

>  <BEGIN_>
RES LYS A 131

$$$$
ligand_39_pose_1_2HRL.pdbqt
 OpenBabel07062320523D

  6  5  0  0  0  0  0  0  0  0999 V2000
   33.1930   34.6630    9.2900 C   0  0  0  0  0  0  0  0  0  0  0  0
   32.0600   35.3600   10.0340 C   0  0  0  0  0  0  0  0  0  0  0  0
   30.7110   34.7270    9.8070 C   0  0  0  0  0  0  0  0  0  0  0  0
   30.4550   34.5280    8.3210 C   0  0  0  0  0  0  0  0  0  0  0  0
   29.0050   34.8180    7.9870 C   0  0  0  0  0  0  0  0  0  0  0  0
   28.8870   35.5340    6.6860 N   0  0  0  0  0  0  0  0  0  0  0  0
  1  2  1  0  0  0  0
  3  2  1  0  0  0  0
  4  3  1  0  0  0  0
  5  4  1  0  0  0  0
  6  5  1  0  0  0  0
M  END
>  <EGIN_R>
ES LYS A 135

>  <REMARK>
  4 active torsions:
  status: ('A' for Active; 'I' for Inactive)
    5  A    between atoms: CA   and  CB  
    6  A    between atoms: CB   and  CG  
    7  A    between atoms: CG   and  CD  
    8  A    between atoms: CD   and  CE  

$$$$
