ligand_53_pose_8_2HRL.pdbqt
 OpenBabel07062320523D

 48 48  0  0  1  0  0  0  0  0999 V2000
   27.5810   29.9430   19.9600 N   0  0  0  0  0  0  0  0  0  0  0  0
   27.5430   28.5640   19.6760 C   0  0  0  0  0  0  0  0  0  0  0  0
   28.5150   27.8300   19.8520 O   0  0  0  0  0  0  0  0  0  0  0  0
   26.6710   30.4640   19.7720 H   0  0  0  0  0  0  0  0  0  0  0  0
   28.7050   30.6880   20.4630 C   0  0  0  0  0  0  0  0  0  0  0  0
   29.5630   31.3490   19.4320 C   0  0  2  0  0  0  0  0  0  0  0  0
   28.9180   32.5030   18.7600 C   0  0  1  0  0  0  0  0  0  0  0  0
   29.7750   33.2280   17.7580 C   0  0  2  0  0  0  0  0  0  0  0  0
   30.8910   32.8610   15.7190 C   0  0  2  0  0  0  0  0  0  0  0  0
   32.0060   33.7780   16.0980 C   0  0  0  0  0  0  0  0  0  0  0  0
   30.1130   32.3640   16.7060 O   0  0  0  0  0  0  0  0  0  0  0  0
   31.5900   34.7020   17.1990 C   0  0  1  0  0  0  0  0  0  0  0  0
   31.0560   33.7870   18.3170 C   0  0  1  0  0  0  0  0  0  0  0  0
   31.4860   31.8030   14.9700 O   0  0  0  0  0  0  0  0  0  0  0  0
   31.5100   32.1340   14.0310 H   0  0  0  0  0  0  0  0  0  0  0  0
   30.0330   33.5660   14.7190 C   0  0  0  0  0  0  0  0  0  0  0  0
   30.4590   34.3530   13.8500 O   0  0  0  0  0  0  0  0  0  0  0  0
   28.6730   33.3390   14.7470 O   0  0  0  0  0  0  0  0  0  0  0  0
   28.1720   33.0790   15.5950 H   0  0  0  0  0  0  0  0  0  0  0  0
   32.6420   35.4790   17.6750 O   0  0  0  0  0  0  0  0  0  0  0  0
   33.2160   34.8830   18.2230 H   0  0  0  0  0  0  0  0  0  0  0  0
   30.9620   34.5420   19.5240 N   0  0  0  0  0  0  0  0  0  0  0  0
   31.6290   34.1530   20.7250 C   0  0  0  0  0  0  0  0  0  0  0  0
   30.4050   35.4150   19.5480 H   0  0  0  0  0  0  0  0  0  0  0  0
   31.5540   34.9090   21.9950 C   0  0  0  0  0  0  0  0  0  0  0  0
   32.3180   33.1060   20.6970 O   0  0  0  0  0  0  0  0  0  0  0  0
   27.6590   32.1810   18.2820 O   0  0  0  0  0  0  0  0  0  0  0  0
   26.9400   32.6610   18.7670 H   0  0  0  0  0  0  0  0  0  0  0  0
   29.9680   30.3740   18.5060 O   0  0  0  0  0  0  0  0  0  0  0  0
   29.2370   29.7550   18.2820 H   0  0  0  0  0  0  0  0  0  0  0  0
   26.3850   27.9690   19.1810 O   0  0  0  0  0  0  0  0  0  0  0  0
   26.1200   27.7300   17.8350 C   0  0  0  0  0  0  0  0  0  0  0  0
   26.2240   28.9260   16.9640 C   0  0  0  0  0  0  0  0  0  0  0  0
   25.2560   29.5990   16.2840 C   0  0  0  0  0  0  0  0  0  0  0  0
   27.3820   29.5910   16.6830 N   0  0  0  0  0  0  0  0  0  0  0  0
   25.8250   30.6250   15.6260 N   0  0  0  0  0  0  0  0  0  0  0  0
   27.1070   30.6080   15.8760 N   0  0  0  0  0  0  0  0  0  0  0  0
   25.1230   31.5750   14.7890 C   0  0  0  0  0  0  0  0  0  0  0  0
   25.6490   32.9340   15.0260 C   0  0  0  0  0  0  0  0  0  0  0  0
   25.7600   33.7310   14.0520 O   0  0  0  0  0  0  0  0  0  0  0  0
   26.0150   33.3340   16.2940 O   0  0  0  0  0  0  0  0  0  0  0  0
   25.8290   32.6750   17.0560 H   0  0  0  0  0  0  0  0  0  0  0  0
   29.8670   25.5550   16.9770 C   0  0  0  0  0  0  0  0  0  0  0  0
   28.3450   25.7220   17.0260 C   0  0  0  0  0  0  0  0  0  0  0  0
   27.6000   24.4140   16.8070 C   0  0  0  0  0  0  0  0  0  0  0  0
   26.8200   23.9960   18.0220 C   0  0  0  0  0  0  0  0  0  0  0  0
   25.4990   23.3680   17.5890 C   0  0  0  0  0  0  0  0  0  0  0  0
   24.6590   24.3630   16.8810 N   0  0  0  0  0  0  0  0  0  0  0  0
  1  5  1  0  0  0  0
  2  3  2  0  0  0  0
  2  1  1  0  0  0  0
  4  1  1  0  0  0  0
  6  5  1  1  0  0  0
  7 27  1  6  0  0  0
  7  6  1  0  0  0  0
  8 13  1  0  0  0  0
  8  7  1  1  0  0  0
  9 16  1  6  0  0  0
  9 10  1  0  0  0  0
  9 11  1  0  0  0  0
 10 12  1  0  0  0  0
 11  8  1  0  0  0  0
 12 20  1  1  0  0  0
 12 13  1  0  0  0  0
 13 22  1  1  0  0  0
 14  9  1  0  0  0  0
 15 14  1  0  0  0  0
 16 18  1  0  0  0  0
 17 16  2  0  0  0  0
 18 19  1  0  0  0  0
 20 21  1  0  0  0  0
 22 24  1  0  0  0  0
 22 23  1  0  0  0  0
 23 25  1  0  0  0  0
 26 23  2  0  0  0  0
 27 28  1  0  0  0  0
 29  6  1  0  0  0  0
 30 29  1  0  0  0  0
 31  2  1  0  0  0  0
 32 31  1  0  0  0  0
 33 32  1  0  0  0  0
 34 33  2  0  0  0  0
 35 33  1  0  0  0  0
 36 37  1  0  0  0  0
 36 34  1  0  0  0  0
 37 35  2  0  0  0  0
 38 39  1  0  0  0  0
 38 36  1  0  0  0  0
 39 41  1  0  0  0  0
 40 39  2  0  0  0  0
 41 42  1  0  0  0  0
 43 44  1  0  0  0  0
 45 44  1  0  0  0  0
 45 46  1  0  0  0  0
 47 46  1  0  0  0  0
 48 47  1  0  0  0  0
M  END
>  <REMARK>
 VINA RESULT:    -4.113      2.465      5.965
 INTER + INTRA:         -13.841
 INTER:                  -6.857
 INTRA:                  -6.983
 UNBOUND:                -6.362
 SMILES CC(=O)N[C@@H]1[C@@H](O)C[C@](O)(C(=O)O)O[C@H]1C(O)[C@H](O)CNC(=O)OCc1cn(CC(=O)O)nn1
 SMILES IDX 21 1 22 2 23 3 20 5 18 6 16 7 15 8 9 9 8 10 14 11 6 12 5 13
 SMILES IDX 10 14 11 16 12 17 13 18 7 20 4 22 2 23 1 25 3 26 17 27 19 29
 SMILES IDX 24 31 25 32 26 33 27 34 34 35 28 36 33 37 29 38 30 39 31 40
 SMILES IDX 32 41
 H PARENT 21 4 10 15 13 19 7 21 4 24 17 28 19 30 32 42
 Flexibility Score: inf
  4 active torsions:
  status: ('A' for Active; 'I' for Inactive)
    1  A    between atoms: CA   and  CB  
    2  A    between atoms: CB   and  CG  
    3  A    between atoms: CG   and  CD  
    4  A    between atoms: CD   and  CE  

>  <TORSDO>
F 17

>  <BEGIN_>
RES LYS A 131

$$$$
ligand_53_pose_8_2HRL.pdbqt
 OpenBabel07062320523D

  6  5  0  0  0  0  0  0  0  0999 V2000
   33.1930   34.6630    9.2900 C   0  0  0  0  0  0  0  0  0  0  0  0
   32.0600   35.3600   10.0340 C   0  0  0  0  0  0  0  0  0  0  0  0
   30.8290   35.5740    9.1920 C   0  0  0  0  0  0  0  0  0  0  0  0
   30.2940   34.2470    8.6760 C   0  0  0  0  0  0  0  0  0  0  0  0
   28.8330   34.0800    9.0480 C   0  0  0  0  0  0  0  0  0  0  0  0
   27.9490   34.7940    8.0850 N   0  0  0  0  0  0  0  0  0  0  0  0
  1  2  1  0  0  0  0
  3  2  1  0  0  0  0
  4  5  1  0  0  0  0
  4  3  1  0  0  0  0
  6  5  1  0  0  0  0
M  END
>  <EGIN_R>
ES LYS A 135

>  <REMARK>
  4 active torsions:
  status: ('A' for Active; 'I' for Inactive)
    5  A    between atoms: CA   and  CB  
    6  A    between atoms: CB   and  CG  
    7  A    between atoms: CG   and  CD  
    8  A    between atoms: CD   and  CE  

$$$$
