ligand_90_pose_2_2HRL.pdbqt
 OpenBabel07062320523D

 61 62  0  0  1  0  0  0  0  0999 V2000
   25.9040   33.5860   15.6370 C   0  0  0  0  0  0  0  0  0  0  0  0
   26.2960   34.0060   14.3440 O   0  0  0  0  0  0  0  0  0  0  0  0
   25.4300   33.9450   13.2670 C   0  0  0  0  0  0  0  0  0  0  0  0
   24.0090   34.0640   13.4460 N   0  0  0  0  0  0  0  0  0  0  0  0
   23.6790   34.1890   14.4240 H   0  0  0  0  0  0  0  0  0  0  0  0
   25.9070   33.7830   12.1310 O   0  0  0  0  0  0  0  0  0  0  0  0
   23.0780   34.0180   12.3700 C   0  0  0  0  0  0  0  0  0  0  0  0
   22.4320   35.3210   12.0510 C   0  0  2  0  0  0  0  0  0  0  0  0
   23.4050   36.1700   11.2480 C   0  0  1  0  0  0  0  0  0  0  0  0
   22.7180   37.0850   10.2860 C   0  0  2  0  0  0  0  0  0  0  0  0
   21.5550   35.8490    8.6900 C   0  0  2  0  0  0  0  0  0  0  0  0
   21.9260   36.7370    7.5110 C   0  0  0  0  0  0  0  0  0  0  0  0
   21.5290   36.5450    9.8660 O   0  0  0  0  0  0  0  0  0  0  0  0
   22.6520   37.9760    8.0140 C   0  0  1  0  0  0  0  0  0  0  0  0
   23.5790   37.4900    9.1360 C   0  0  1  0  0  0  0  0  0  0  0  0
   22.5270   34.8670    8.7500 O   0  0  0  0  0  0  0  0  0  0  0  0
   22.5590   34.4580    9.6520 H   0  0  0  0  0  0  0  0  0  0  0  0
   20.2440   35.1840    8.4760 C   0  0  0  0  0  0  0  0  0  0  0  0
   19.4450   34.9660    9.4300 O   0  0  0  0  0  0  0  0  0  0  0  0
   19.8460   34.7780    7.2140 O   0  0  0  0  0  0  0  0  0  0  0  0
   19.9280   33.8470    6.8460 H   0  0  0  0  0  0  0  0  0  0  0  0
   23.3770   38.4960    6.9570 O   0  0  0  0  0  0  0  0  0  0  0  0
   23.7120   37.8090    6.3380 H   0  0  0  0  0  0  0  0  0  0  0  0
   24.4990   38.5600    9.5010 N   0  0  0  0  0  0  0  0  0  0  0  0
   25.8880   38.3370    9.4170 C   0  0  0  0  0  0  0  0  0  0  0  0
   24.1290   39.4580    9.8190 H   0  0  0  0  0  0  0  0  0  0  0  0
   26.8760   39.4170    9.7840 C   0  0  0  0  0  0  0  0  0  0  0  0
   26.3930   37.2530    9.0410 O   0  0  0  0  0  0  0  0  0  0  0  0
   24.2310   36.9080   12.0790 O   0  0  0  0  0  0  0  0  0  0  0  0
   24.5670   37.7250   11.6680 H   0  0  0  0  0  0  0  0  0  0  0  0
   22.0060   36.0420   13.1530 O   0  0  0  0  0  0  0  0  0  0  0  0
   22.7420   36.2290   13.7960 H   0  0  0  0  0  0  0  0  0  0  0  0
   27.0980   32.9310   16.2240 C   0  0  0  0  0  0  0  0  0  0  0  0
   28.2690   32.6980   15.5370 C   0  0  0  0  0  0  0  0  0  0  0  0
   27.3250   32.4380   17.4510 N   0  0  0  0  0  0  0  0  0  0  0  0
   29.1740   32.0750   16.3530 N   0  0  0  0  0  0  0  0  0  0  0  0
   28.5710   31.9320   17.5080 N   0  0  0  0  0  0  0  0  0  0  0  0
   30.4920   31.7010   15.8900 C   0  0  0  0  0  0  0  0  0  0  0  0
   31.3430   32.9540   15.9840 C   0  0  0  0  0  0  0  0  0  0  0  0
   31.3510   33.6270   17.0360 O   0  0  0  0  0  0  0  0  0  0  0  0
   32.1360   33.3960   14.9210 N   0  0  0  0  0  0  0  0  0  0  0  0
   32.0840   32.7370   14.0550 H   0  0  0  0  0  0  0  0  0  0  0  0
   32.9640   34.5400   14.8100 C   0  0  0  0  0  0  0  0  0  0  0  0
   32.7820   35.4850   13.7120 C   0  0  1  0  0  0  0  0  0  0  0  0
   32.5920   34.8480   12.4560 O   0  0  0  0  0  0  0  0  0  0  0  0
   33.4490   34.8370   11.9640 H   0  0  0  0  0  0  0  0  0  0  0  0
   32.0210   36.7350   13.8750 C   0  0  0  0  0  0  0  0  0  0  0  0
   30.8830   36.6110   14.7660 N   0  0  0  0  0  0  0  0  0  0  0  0
   30.8340   37.0480   16.0500 C   0  0  0  0  0  0  0  0  0  0  0  0
   29.7070   36.0280   14.4700 C   0  0  0  0  0  0  0  0  0  0  0  0
   29.5830   36.7110   16.5330 C   0  0  0  0  0  0  0  0  0  0  0  0
   28.8990   36.0900   15.5700 N   0  0  0  0  0  0  0  0  0  0  0  0
   29.2860   35.4300   13.2570 N   0  0  0  0  0  0  0  0  0  0  0  0
   29.6860   34.2520   13.0140 O   0  0  0  0  0  0  0  0  0  0  0  0
   28.4930   35.9940   12.3160 O   0  0  0  0  0  0  0  0  0  0  0  0
   29.8670   25.5550   16.9770 C   0  0  0  0  0  0  0  0  0  0  0  0
   28.3450   25.7220   17.0260 C   0  0  0  0  0  0  0  0  0  0  0  0
   27.6000   24.4090   16.8410 C   0  0  0  0  0  0  0  0  0  0  0  0
   26.5510   24.1990   17.8970 C   0  0  0  0  0  0  0  0  0  0  0  0
   25.1660   24.2850   17.2640 C   0  0  0  0  0  0  0  0  0  0  0  0
   24.5040   22.9590   17.2820 N   0  0  0  0  0  0  0  0  0  0  0  0
  1 33  1  0  0  0  0
  2  1  1  0  0  0  0
  3  4  1  0  0  0  0
  3  2  1  0  0  0  0
  4  5  1  0  0  0  0
  6  3  2  0  0  0  0
  7  4  1  0  0  0  0
  8  7  1  1  0  0  0
  8 31  1  0  0  0  0
  9  8  1  0  0  0  0
  9 29  1  1  0  0  0
 10  9  1  6  0  0  0
 11 18  1  6  0  0  0
 11 16  1  0  0  0  0
 11 13  1  0  0  0  0
 12 14  1  0  0  0  0
 12 11  1  0  0  0  0
 13 10  1  0  0  0  0
 14 22  1  6  0  0  0
 14 15  1  0  0  0  0
 15 24  1  1  0  0  0
 15 10  1  0  0  0  0
 16 17  1  0  0  0  0
 18 19  2  0  0  0  0
 20 18  1  0  0  0  0
 21 20  1  0  0  0  0
 23 22  1  0  0  0  0
 24 26  1  0  0  0  0
 25 24  1  0  0  0  0
 25 27  1  0  0  0  0
 28 25  2  0  0  0  0
 30 29  1  0  0  0  0
 31 32  1  0  0  0  0
 33 35  1  0  0  0  0
 34 33  2  0  0  0  0
 34 36  1  0  0  0  0
 35 37  2  0  0  0  0
 36 37  1  0  0  0  0
 38 39  1  0  0  0  0
 38 36  1  0  0  0  0
 39 40  2  0  0  0  0
 41 39  1  0  0  0  0
 42 41  1  0  0  0  0
 43 41  1  0  0  0  0
 44 47  1  1  0  0  0
 44 43  1  0  0  0  0
 45 44  1  0  0  0  0
 46 45  1  0  0  0  0
 47 48  1  0  0  0  0
 48 49  1  0  0  0  0
 49 51  2  0  0  0  0
 50 48  1  0  0  0  0
 50 52  2  0  0  0  0
 52 51  1  0  0  0  0
 53 50  1  0  0  0  0
 54 53  2  0  0  0  0
 55 53  2  0  0  0  0
 56 57  1  0  0  0  0
 58 57  1  0  0  0  0
 58 59  1  0  0  0  0
 60 61  1  0  0  0  0
 60 59  1  0  0  0  0
M  END
>  <REMARK>
 VINA RESULT:    -5.372      3.026      6.780
 INTER + INTRA:         -17.097
 INTER:                 -10.015
 INTRA:                  -7.082
 UNBOUND:                -5.759
 SMILES CC(=O)N[C@@H]1[C@@H](O)C[C@](O)(C(=O)O)O[C@H]1C(O)[C@H](O)CNC(=O)OCc1cn(CC(=O)NCC(O)Cn2ccnc2[N+](=O)[O-])nn1
 SMILES IDX 25 1 24 2 22 3 21 4 23 6 20 7 18 8 16 9 15 10 9 11 8 12
 SMILES IDX 14 13 6 14 5 15 10 16 11 18 12 19 13 20 7 22 4 24 2 25 1 27
 SMILES IDX 3 28 17 29 19 31 26 33 27 34 46 35 28 36 45 37 29 38 30 39
 SMILES IDX 31 40 32 41 33 43 34 44 35 45 36 47 37 48 38 49 41 50 39 51
 SMILES IDX 40 52 42 53 43 54 44 55
 H PARENT 21 5 10 17 13 21 7 23 4 26 17 30 19 32 32 42 35 46
 Flexibility Score: inf
  4 active torsions:
  status: ('A' for Active; 'I' for Inactive)
    1  A    between atoms: CA   and  CB  
    2  A    between atoms: CB   and  CG  
    3  A    between atoms: CG   and  CD  
    4  A    between atoms: CD   and  CE  

>  <TORSDO>
F 22

>  <BEGIN_>
RES LYS A 131

$$$$
ligand_90_pose_2_2HRL.pdbqt
 OpenBabel07062320523D

  6  5  0  0  0  0  0  0  0  0999 V2000
   33.1930   34.6630    9.2900 C   0  0  0  0  0  0  0  0  0  0  0  0
   32.0600   35.3600   10.0340 C   0  0  0  0  0  0  0  0  0  0  0  0
   30.7030   34.7650    9.7590 C   0  0  0  0  0  0  0  0  0  0  0  0
   30.4720   34.6220    8.2630 C   0  0  0  0  0  0  0  0  0  0  0  0
   29.0170   34.8780    7.9220 C   0  0  0  0  0  0  0  0  0  0  0  0
   28.8900   35.6340    6.6450 N   0  0  0  0  0  0  0  0  0  0  0  0
  1  2  1  0  0  0  0
  3  2  1  0  0  0  0
  4  3  1  0  0  0  0
  5  4  1  0  0  0  0
  6  5  1  0  0  0  0
M  END
>  <EGIN_R>
ES LYS A 135

>  <REMARK>
  4 active torsions:
  status: ('A' for Active; 'I' for Inactive)
    5  A    between atoms: CA   and  CB  
    6  A    between atoms: CB   and  CG  
    7  A    between atoms: CG   and  CD  
    8  A    between atoms: CD   and  CE  

$$$$
