ligand_86_pose_6_2HRL.pdbqt
 OpenBabel07062320523D

 52 54  0  0  1  0  0  0  0  0999 V2000
   31.0640   32.1320   15.7970 C   0  0  0  0  0  0  0  0  0  0  0  0
   30.3240   31.0790   16.5490 C   0  0  2  0  0  0  0  0  0  0  0  0
   28.9070   30.8950   16.1030 C   0  0  2  0  0  0  0  0  0  0  0  0
   27.9740   30.5630   17.2440 C   0  0  2  0  0  0  0  0  0  0  0  0
   27.1490   28.7690   18.4480 C   0  0  2  0  0  0  0  0  0  0  0  0
   26.3250   29.8840   19.0330 C   0  0  0  0  0  0  0  0  0  0  0  0
   28.1080   29.2160   17.5520 O   0  0  0  0  0  0  0  0  0  0  0  0
   25.6780   30.7580   18.0020 C   0  0  1  0  0  0  0  0  0  0  0  0
   26.5480   30.7710   16.7750 C   0  0  1  0  0  0  0  0  0  0  0  0
   26.3650   27.7690   17.8750 O   0  0  0  0  0  0  0  0  0  0  0  0
   26.9160   26.9820   17.6540 H   0  0  0  0  0  0  0  0  0  0  0  0
   27.8880   28.1320   19.5830 C   0  0  0  0  0  0  0  0  0  0  0  0
   28.0160   28.7390   20.6990 O   0  0  0  0  0  0  0  0  0  0  0  0
   28.4600   26.8840   19.4980 O   0  0  0  0  0  0  0  0  0  0  0  0
   28.2770   26.3310   18.6520 H   0  0  0  0  0  0  0  0  0  0  0  0
   24.3630   30.4450   17.7520 O   0  0  0  0  0  0  0  0  0  0  0  0
   23.9570   31.2060   17.2600 H   0  0  0  0  0  0  0  0  0  0  0  0
   26.3990   31.9660   15.9830 N   0  0  0  0  0  0  0  0  0  0  0  0
   25.4780   32.0550   14.8960 C   0  0  0  0  0  0  0  0  0  0  0  0
   26.9710   32.8170   16.1850 H   0  0  0  0  0  0  0  0  0  0  0  0
   25.3730   33.3090   14.1240 C   0  0  0  0  0  0  0  0  0  0  0  0
   24.7830   31.0460   14.6380 O   0  0  0  0  0  0  0  0  0  0  0  0
   28.8520   29.8470   15.1860 O   0  0  0  0  0  0  0  0  0  0  0  0
   28.6840   30.1590   14.2790 H   0  0  0  0  0  0  0  0  0  0  0  0
   30.3100   31.3610   17.9340 O   0  0  0  0  0  0  0  0  0  0  0  0
   30.9920   32.0800   18.0580 H   0  0  0  0  0  0  0  0  0  0  0  0
   30.3200   32.6240   14.6630 N   0  0  0  0  0  0  0  0  0  0  0  0
   29.5240   33.7920   14.7950 C   0  0  0  0  0  0  0  0  0  0  0  0
   30.3360   32.1570   13.7250 H   0  0  0  0  0  0  0  0  0  0  0  0
   29.4250   34.4400   15.8720 O   0  0  0  0  0  0  0  0  0  0  0  0
   28.7870   34.3120   13.7310 O   0  0  0  0  0  0  0  0  0  0  0  0
   29.3910   34.9550   12.6270 C   0  0  0  0  0  0  0  0  0  0  0  0
   28.3460   35.5520   11.7510 C   0  0  0  0  0  0  0  0  0  0  0  0
   27.2720   34.8690   11.2200 C   0  0  0  0  0  0  0  0  0  0  0  0
   28.2170   36.8150   11.3080 N   0  0  0  0  0  0  0  0  0  0  0  0
   26.5230   35.7270   10.4730 N   0  0  0  0  0  0  0  0  0  0  0  0
   27.1420   36.8920   10.5610 N   0  0  0  0  0  0  0  0  0  0  0  0
   25.3010   35.4170    9.7360 C   0  0  2  0  0  0  0  0  0  0  0  0
   25.0860   36.4860    8.7300 C   0  0  0  0  0  0  0  0  0  0  0  0
   24.2060   35.2410   10.7270 C   0  0  0  0  0  0  0  0  0  0  0  0
   23.6670   36.8070    8.4260 C   0  0  1  0  0  0  0  0  0  0  0  0
   22.9210   35.9360   10.3590 C   0  0  2  0  0  0  0  0  0  0  0  0
   22.7570   35.8000    8.9220 N   0  0  0  0  0  0  0  0  0  0  0  0
   23.2730   38.0230    9.2500 C   0  0  0  0  0  0  0  0  0  0  0  0
   23.0930   37.4100   10.6240 C   0  0  0  0  0  0  0  0  0  0  0  0
   21.4110   36.0930    8.4980 C   0  0  0  0  0  0  0  0  0  0  0  0
   29.8670   25.5550   16.9770 C   0  0  0  0  0  0  0  0  0  0  0  0
   28.3450   25.7220   17.0260 C   0  0  0  0  0  0  0  0  0  0  0  0
   27.5990   24.4280   16.7410 C   0  0  0  0  0  0  0  0  0  0  0  0
   26.9420   23.8690   17.9720 C   0  0  0  0  0  0  0  0  0  0  0  0
   25.5610   23.3320   17.6140 C   0  0  0  0  0  0  0  0  0  0  0  0
   24.7720   24.3640   16.9000 N   0  0  0  0  0  0  0  0  0  0  0  0
  2  1  1  6  0  0  0
  2 25  1  0  0  0  0
  3 23  1  6  0  0  0
  3  2  1  0  0  0  0
  4  3  1  6  0  0  0
  4  7  1  0  0  0  0
  5 10  1  6  0  0  0
  5  6  1  0  0  0  0
  5 12  1  0  0  0  0
  7  5  1  0  0  0  0
  8 16  1  6  0  0  0
  8  6  1  0  0  0  0
  9 18  1  1  0  0  0
  9  4  1  0  0  0  0
  9  8  1  0  0  0  0
 11 10  1  0  0  0  0
 12 13  2  0  0  0  0
 14 12  1  0  0  0  0
 15 14  1  0  0  0  0
 17 16  1  0  0  0  0
 18 20  1  0  0  0  0
 19 18  1  0  0  0  0
 21 19  1  0  0  0  0
 22 19  2  0  0  0  0
 24 23  1  0  0  0  0
 25 26  1  0  0  0  0
 27 28  1  0  0  0  0
 27  1  1  0  0  0  0
 28 30  2  0  0  0  0
 29 27  1  0  0  0  0
 31 28  1  0  0  0  0
 32 31  1  0  0  0  0
 33 32  1  0  0  0  0
 34 33  2  0  0  0  0
 35 33  1  0  0  0  0
 36 37  1  0  0  0  0
 36 34  1  0  0  0  0
 37 35  2  0  0  0  0
 38 39  1  6  0  0  0
 38 36  1  0  0  0  0
 38 40  1  0  0  0  0
 41 39  1  1  0  0  0
 41 43  1  0  0  0  0
 41 44  1  0  0  0  0
 42 45  1  6  0  0  0
 42 40  1  0  0  0  0
 43 42  1  0  0  0  0
 44 45  1  0  0  0  0
 46 43  1  0  0  0  0
 47 48  1  0  0  0  0
 49 48  1  0  0  0  0
 49 50  1  0  0  0  0
 51 50  1  0  0  0  0
 52 51  1  0  0  0  0
M  END
>  <REMARK>
 VINA RESULT:    -4.549      3.322      6.452
 INTER + INTRA:         -14.429
 INTER:                  -9.177
 INTRA:                  -5.252
 UNBOUND:                -6.555
 SMILES CC(=O)N[C@@H]1[C@@H](O)C[C@](O)(C(=O)O)O[C@H]1C(O)[C@H](O)CNC(=O)OCc1cn([C@H]2C[C@H]3CC[C@@H](C2)N3C)nn1
 SMILES IDX 20 1 18 2 16 3 15 4 9 5 8 6 14 7 6 8 5 9 10 10 11 12 12 13
 SMILES IDX 13 14 7 16 4 18 2 19 1 21 3 22 17 23 19 25 21 27 22 28 23 30
 SMILES IDX 24 31 25 32 26 33 27 34 39 35 28 36 38 37 29 38 35 39 30 40
 SMILES IDX 34 41 31 42 36 43 33 44 32 45 37 46
 H PARENT 10 11 13 15 7 17 4 20 17 24 19 26 21 29
 Flexibility Score: inf
  4 active torsions:
  status: ('A' for Active; 'I' for Inactive)
    1  A    between atoms: CA   and  CB  
    2  A    between atoms: CB   and  CG  
    3  A    between atoms: CG   and  CD  
    4  A    between atoms: CD   and  CE  

>  <TORSDO>
F 15

>  <BEGIN_>
RES LYS A 131

$$$$
ligand_86_pose_6_2HRL.pdbqt
 OpenBabel07062320523D

  6  5  0  0  0  0  0  0  0  0999 V2000
   33.1930   34.6630    9.2900 C   0  0  0  0  0  0  0  0  0  0  0  0
   32.0600   35.3600   10.0340 C   0  0  0  0  0  0  0  0  0  0  0  0
   30.8940   35.7240    9.1520 C   0  0  0  0  0  0  0  0  0  0  0  0
   30.4580   34.5280    8.3180 C   0  0  0  0  0  0  0  0  0  0  0  0
   28.9560   34.5420    8.1120 C   0  0  0  0  0  0  0  0  0  0  0  0
   28.5470   35.6570    7.2140 N   0  0  0  0  0  0  0  0  0  0  0  0
  1  2  1  0  0  0  0
  3  2  1  0  0  0  0
  4  3  1  0  0  0  0
  5  4  1  0  0  0  0
  6  5  1  0  0  0  0
M  END
>  <EGIN_R>
ES LYS A 135

>  <REMARK>
  4 active torsions:
  status: ('A' for Active; 'I' for Inactive)
    5  A    between atoms: CA   and  CB  
    6  A    between atoms: CB   and  CG  
    7  A    between atoms: CG   and  CD  
    8  A    between atoms: CD   and  CE  

$$$$
