ligand_31_pose_10_2HRL.pdbqt
 OpenBabel07062320523D

 57 58  0  0  1  0  0  0  0  0999 V2000
   26.6570   30.9900   16.9630 O   0  0  0  0  0  0  0  0  0  0  0  0
   28.0370   31.0390   17.1320 C   0  0  0  0  0  0  0  0  0  0  0  0
   28.9690   30.9300   16.0910 N   0  0  0  0  0  0  0  0  0  0  0  0
   28.6450   30.8050   15.1210 H   0  0  0  0  0  0  0  0  0  0  0  0
   28.4690   31.1920   18.3050 O   0  0  0  0  0  0  0  0  0  0  0  0
   30.4050   30.9960   16.3820 C   0  0  0  0  0  0  0  0  0  0  0  0
   31.0050   32.1400   15.6100 C   0  0  2  0  0  0  0  0  0  0  0  0
   31.2610   33.3450   16.4720 C   0  0  1  0  0  0  0  0  0  0  0  0
   31.3900   34.6120   15.6770 C   0  0  2  0  0  0  0  0  0  0  0  0
   32.0760   35.2820   13.5470 C   0  0  2  0  0  0  0  0  0  0  0  0
   32.3860   36.6590   14.0370 C   0  0  0  0  0  0  0  0  0  0  0  0
   32.0800   34.3060   14.4910 O   0  0  0  0  0  0  0  0  0  0  0  0
   32.1000   36.9130   15.4610 C   0  0  1  0  0  0  0  0  0  0  0  0
   32.2340   35.6780   16.3320 C   0  0  1  0  0  0  0  0  0  0  0  0
   33.1220   34.9610   12.6430 O   0  0  0  0  0  0  0  0  0  0  0  0
   33.9980   34.9720   13.1030 H   0  0  0  0  0  0  0  0  0  0  0  0
   30.8160   35.2170   12.7660 C   0  0  0  0  0  0  0  0  0  0  0  0
   30.4120   34.1350   12.2530 O   0  0  0  0  0  0  0  0  0  0  0  0
   30.0090   36.3270   12.5490 O   0  0  0  0  0  0  0  0  0  0  0  0
   30.0810   37.1340   13.1600 H   0  0  0  0  0  0  0  0  0  0  0  0
   32.9530   37.9270   15.9460 O   0  0  0  0  0  0  0  0  0  0  0  0
   33.7240   38.0640   15.3600 H   0  0  0  0  0  0  0  0  0  0  0  0
   31.9140   35.9770   17.6850 N   0  0  0  0  0  0  0  0  0  0  0  0
   32.9780   36.1050   18.6320 C   0  0  0  0  0  0  0  0  0  0  0  0
   30.9490   36.1220   18.0480 H   0  0  0  0  0  0  0  0  0  0  0  0
   32.7510   36.4150   20.0590 C   0  0  0  0  0  0  0  0  0  0  0  0
   34.1760   35.9510   18.2520 O   0  0  0  0  0  0  0  0  0  0  0  0
   30.4090   33.4420   17.5570 O   0  0  0  0  0  0  0  0  0  0  0  0
   30.7620   33.0240   18.3830 H   0  0  0  0  0  0  0  0  0  0  0  0
   29.9990   32.5460   14.6920 O   0  0  0  0  0  0  0  0  0  0  0  0
   30.2950   33.4660   14.4080 H   0  0  0  0  0  0  0  0  0  0  0  0
   26.0530   30.0350   16.1160 C   0  0  0  0  0  0  0  0  0  0  0  0
   25.3450   30.7570   15.0360 C   0  0  0  0  0  0  0  0  0  0  0  0
   25.2840   32.1110   14.8500 C   0  0  0  0  0  0  0  0  0  0  0  0
   24.6360   30.1990   14.0420 N   0  0  0  0  0  0  0  0  0  0  0  0
   24.5410   32.3390   13.7520 N   0  0  0  0  0  0  0  0  0  0  0  0
   24.1490   31.1730   13.2640 N   0  0  0  0  0  0  0  0  0  0  0  0
   24.2050   33.6400   13.1690 C   0  0  0  0  0  0  0  0  0  0  0  0
   25.4800   34.2430   12.6430 C   0  0  0  0  0  0  0  0  0  0  0  0
   25.8120   35.4130   13.4160 N   0  0  0  0  0  0  0  0  0  0  0  0
   27.0120   35.5710   14.1490 C   0  0  0  0  0  0  0  0  0  0  0  0
   25.1310   36.2240   13.4570 H   0  0  0  0  0  0  0  0  0  0  0  0
   27.8570   34.6260   14.1250 O   0  0  0  0  0  0  0  0  0  0  0  0
   27.2450   36.7630   14.8830 N   0  0  0  0  0  0  0  0  0  0  0  0
   26.5720   37.5490   14.9190 H   0  0  0  0  0  0  0  0  0  0  0  0
   28.4830   36.8870   15.6190 C   0  0  0  0  0  0  0  0  0  0  0  0
   28.2010   36.6580   17.0520 C   0  0  0  0  0  0  0  0  0  0  0  0
   27.2320   37.3490   17.7720 C   0  0  0  0  0  0  0  0  0  0  0  0
   28.7830   35.8120   17.8430 O   0  0  0  0  0  0  0  0  0  0  0  0
   27.2930   36.8400   19.0510 C   0  0  0  0  0  0  0  0  0  0  0  0
   28.2820   35.8790   19.0380 C   0  0  0  0  0  0  0  0  0  0  0  0
   29.8670   25.5550   16.9770 C   0  0  0  0  0  0  0  0  0  0  0  0
   28.3450   25.7220   17.0260 C   0  0  0  0  0  0  0  0  0  0  0  0
   27.5990   24.4760   16.5730 C   0  0  0  0  0  0  0  0  0  0  0  0
   27.0460   23.6940   17.7310 C   0  0  0  0  0  0  0  0  0  0  0  0
   26.1430   24.5950   18.5680 C   0  0  0  0  0  0  0  0  0  0  0  0
   24.8230   24.7570   17.9150 N   0  0  0  0  0  0  0  0  0  0  0  0
  1  2  1  0  0  0  0
  2  5  2  0  0  0  0
  3  6  1  0  0  0  0
  3  2  1  0  0  0  0
  4  3  1  0  0  0  0
  7  6  1  1  0  0  0
  7  8  1  0  0  0  0
  8 28  1  1  0  0  0
  9 14  1  0  0  0  0
  9  8  1  1  0  0  0
 10 15  1  6  0  0  0
 10 11  1  0  0  0  0
 10 12  1  0  0  0  0
 11 13  1  0  0  0  0
 12  9  1  0  0  0  0
 13 21  1  1  0  0  0
 13 14  1  0  0  0  0
 14 23  1  1  0  0  0
 15 16  1  0  0  0  0
 17 10  1  0  0  0  0
 18 17  2  0  0  0  0
 19 17  1  0  0  0  0
 19 20  1  0  0  0  0
 22 21  1  0  0  0  0
 23 25  1  0  0  0  0
 23 24  1  0  0  0  0
 24 26  1  0  0  0  0
 27 24  2  0  0  0  0
 28 29  1  0  0  0  0
 30  7  1  0  0  0  0
 31 30  1  0  0  0  0
 32  1  1  0  0  0  0
 33 32  1  0  0  0  0
 34 33  2  0  0  0  0
 35 33  1  0  0  0  0
 36 34  1  0  0  0  0
 37 36  1  0  0  0  0
 37 35  2  0  0  0  0
 38 36  1  0  0  0  0
 39 38  1  0  0  0  0
 39 40  1  0  0  0  0
 40 42  1  0  0  0  0
 40 41  1  0  0  0  0
 41 44  1  0  0  0  0
 43 41  2  0  0  0  0
 44 45  1  0  0  0  0
 44 46  1  0  0  0  0
 46 47  1  0  0  0  0
 47 48  2  0  0  0  0
 47 49  1  0  0  0  0
 48 50  1  0  0  0  0
 49 51  1  0  0  0  0
 51 50  2  0  0  0  0
 52 53  1  0  0  0  0
 54 53  1  0  0  0  0
 54 55  1  0  0  0  0
 55 56  1  0  0  0  0
 57 56  1  0  0  0  0
M  END
>  <REMARK>
 VINA RESULT:    -4.994      3.988      7.759
 INTER + INTRA:         -15.719
 INTER:                  -7.659
 INTRA:                  -8.060
 UNBOUND:                -5.909
 SMILES CC(=O)N[C@@H]1[C@@H](O)C[C@](O)(C(=O)O)O[C@H]1C(O)[C@H](O)CNC(=O)OCc1cn(CCNC(=O)NCc2ccco2)nn1
 SMILES IDX 24 1 22 2 21 3 23 5 20 6 18 7 16 8 15 9 9 10 8 11 14 12 6 13
 SMILES IDX 5 14 10 15 11 17 12 18 13 19 7 21 4 23 2 24 1 26 3 27 17 28
 SMILES IDX 19 30 25 32 26 33 27 34 42 35 28 36 41 37 29 38 30 39 31 40
 SMILES IDX 32 41 33 43 34 44 35 46 36 47 37 48 40 49 38 50 39 51
 H PARENT 21 4 10 16 13 20 7 22 4 25 17 29 19 31 31 42 34 45
 Flexibility Score: inf
  4 active torsions:
  status: ('A' for Active; 'I' for Inactive)
    1  A    between atoms: CA   and  CB  
    2  A    between atoms: CB   and  CG  
    3  A    between atoms: CG   and  CD  
    4  A    between atoms: CD   and  CE  

>  <TORSDO>
F 19

>  <BEGIN_>
RES LYS A 131

$$$$
ligand_31_pose_10_2HRL.pdbqt
 OpenBabel07062320523D

  6  5  0  0  0  0  0  0  0  0999 V2000
   33.1930   34.6630    9.2900 C   0  0  0  0  0  0  0  0  0  0  0  0
   32.0600   35.3600   10.0340 C   0  0  0  0  0  0  0  0  0  0  0  0
   30.8310   35.5800    9.1900 C   0  0  0  0  0  0  0  0  0  0  0  0
   30.2600   34.2520    8.7170 C   0  0  0  0  0  0  0  0  0  0  0  0
   28.7610   34.2060    8.9400 C   0  0  0  0  0  0  0  0  0  0  0  0
   28.2970   35.3930    9.7100 N   0  0  0  0  0  0  0  0  0  0  0  0
  1  2  1  0  0  0  0
  3  2  1  0  0  0  0
  4  5  1  0  0  0  0
  4  3  1  0  0  0  0
  5  6  1  0  0  0  0
M  END
>  <EGIN_R>
ES LYS A 135

>  <REMARK>
  4 active torsions:
  status: ('A' for Active; 'I' for Inactive)
    5  A    between atoms: CA   and  CB  
    6  A    between atoms: CB   and  CG  
    7  A    between atoms: CG   and  CD  
    8  A    between atoms: CD   and  CE  

$$$$
