ligand_91_pose_2_2HRL.pdbqt
 OpenBabel07062320523D

 57 60  0  0  1  0  0  0  0  0999 V2000
   26.2790   27.4010   19.0570 C   0  0  0  0  0  0  0  0  0  0  0  0
   26.6010   27.9110   20.4360 C   0  0  2  0  0  0  0  0  0  0  0  0
   27.9030   27.2910   20.8380 C   0  0  2  0  0  0  0  0  0  0  0  0
   29.0060   28.2990   21.1220 C   0  0  2  0  0  0  0  0  0  0  0  0
   30.1930   29.8940   20.0350 C   0  0  2  0  0  0  0  0  0  0  0  0
   31.5550   29.3900   20.4340 C   0  0  0  0  0  0  0  0  0  0  0  0
   29.2730   28.9030   19.9250 O   0  0  0  0  0  0  0  0  0  0  0  0
   31.5160   28.0110   21.0240 C   0  0  1  0  0  0  0  0  0  0  0  0
   30.2230   27.6640   21.6850 C   0  0  1  0  0  0  0  0  0  0  0  0
   30.3010   30.4460   18.7160 O   0  0  0  0  0  0  0  0  0  0  0  0
   31.0740   30.0400   18.2540 H   0  0  0  0  0  0  0  0  0  0  0  0
   29.8050   31.0530   20.8770 C   0  0  0  0  0  0  0  0  0  0  0  0
   28.8250   31.7890   20.5870 O   0  0  0  0  0  0  0  0  0  0  0  0
   30.5020   31.4050   22.0440 O   0  0  0  0  0  0  0  0  0  0  0  0
   30.2960   32.2830   22.4940 H   0  0  0  0  0  0  0  0  0  0  0  0
   31.8330   27.0880   20.0220 O   0  0  0  0  0  0  0  0  0  0  0  0
   31.0360   26.8520   19.4850 H   0  0  0  0  0  0  0  0  0  0  0  0
   30.3720   27.8480   23.1330 N   0  0  0  0  0  0  0  0  0  0  0  0
   30.2370   26.7780   24.0590 C   0  0  0  0  0  0  0  0  0  0  0  0
   30.5860   28.7820   23.5470 H   0  0  0  0  0  0  0  0  0  0  0  0
   30.3960   26.9840   25.5310 C   0  0  0  0  0  0  0  0  0  0  0  0
   29.9780   25.6180   23.6460 O   0  0  0  0  0  0  0  0  0  0  0  0
   28.3400   26.4520   19.8250 O   0  0  0  0  0  0  0  0  0  0  0  0
   27.6290   26.4120   19.1390 H   0  0  0  0  0  0  0  0  0  0  0  0
   25.5710   27.6340   21.3020 O   0  0  0  0  0  0  0  0  0  0  0  0
   24.8840   27.1030   20.7980 H   0  0  0  0  0  0  0  0  0  0  0  0
   26.8090   28.1440   17.9670 N   0  0  0  0  0  0  0  0  0  0  0  0
   26.0670   29.0250   17.1540 C   0  0  0  0  0  0  0  0  0  0  0  0
   27.8530   28.0690   17.6920 H   0  0  0  0  0  0  0  0  0  0  0  0
   24.8460   29.2130   17.3340 O   0  0  0  0  0  0  0  0  0  0  0  0
   26.6580   29.7400   16.1000 O   0  0  0  0  0  0  0  0  0  0  0  0
   26.7440   31.1640   16.1510 C   0  0  0  0  0  0  0  0  0  0  0  0
   28.1800   31.5280   16.0940 C   0  0  0  0  0  0  0  0  0  0  0  0
   28.7080   32.8010   16.1520 C   0  0  0  0  0  0  0  0  0  0  0  0
   29.2620   30.7210   15.9770 N   0  0  0  0  0  0  0  0  0  0  0  0
   30.0480   32.7430   16.0720 N   0  0  0  0  0  0  0  0  0  0  0  0
   30.3650   31.4710   15.9660 N   0  0  0  0  0  0  0  0  0  0  0  0
   30.9600   33.8210   16.0970 C   0  0  0  0  0  0  0  0  0  0  0  0
   31.5800   34.1930   17.2930 C   0  0  0  0  0  0  0  0  0  0  0  0
   31.2780   34.5390   14.9570 C   0  0  0  0  0  0  0  0  0  0  0  0
   31.3050   33.5160   18.4630 C   0  0  0  0  0  0  0  0  0  0  0  0
   32.4660   35.2220   17.3480 C   0  0  0  0  0  0  0  0  0  0  0  0
   32.1790   35.5790   15.0340 C   0  0  0  0  0  0  0  0  0  0  0  0
   30.6670   34.1750   13.7840 C   0  0  0  0  0  0  0  0  0  0  0  0
   31.8890   33.8440   19.6680 C   0  0  0  0  0  0  0  0  0  0  0  0
   33.0640   35.5640   18.5560 C   0  0  0  0  0  0  0  0  0  0  0  0
   32.7490   35.8970   16.2160 N   0  0  0  0  0  0  0  0  0  0  0  0
   32.4630   36.2650   13.8780 C   0  0  0  0  0  0  0  0  0  0  0  0
   30.9770   34.8920   12.6260 C   0  0  0  0  0  0  0  0  0  0  0  0
   32.8030   34.9020   19.7340 C   0  0  0  0  0  0  0  0  0  0  0  0
   31.8720   35.9390   12.6580 C   0  0  0  0  0  0  0  0  0  0  0  0
   29.8670   25.5550   16.9770 C   0  0  0  0  0  0  0  0  0  0  0  0
   28.3450   25.7220   17.0260 C   0  0  0  0  0  0  0  0  0  0  0  0
   27.5990   24.4350   16.7090 C   0  0  0  0  0  0  0  0  0  0  0  0
   26.6690   24.0320   17.8200 C   0  0  0  0  0  0  0  0  0  0  0  0
   25.2250   24.2550   17.3810 C   0  0  0  0  0  0  0  0  0  0  0  0
   24.3140   24.2010   18.5480 N   0  0  0  0  0  0  0  0  0  0  0  0
  2  1  1  6  0  0  0
  2  3  1  0  0  0  0
  2 25  1  0  0  0  0
  3 23  1  6  0  0  0
  4  3  1  6  0  0  0
  4  9  1  0  0  0  0
  5 10  1  6  0  0  0
  5  6  1  0  0  0  0
  5 12  1  0  0  0  0
  6  8  1  0  0  0  0
  7  5  1  0  0  0  0
  7  4  1  0  0  0  0
  8 16  1  6  0  0  0
  8  9  1  0  0  0  0
  9 18  1  1  0  0  0
 11 10  1  0  0  0  0
 12 14  1  0  0  0  0
 13 12  2  0  0  0  0
 14 15  1  0  0  0  0
 17 16  1  0  0  0  0
 18 20  1  0  0  0  0
 18 19  1  0  0  0  0
 19 21  1  0  0  0  0
 22 19  2  0  0  0  0
 24 23  1  0  0  0  0
 26 25  1  0  0  0  0
 27  1  1  0  0  0  0
 28 30  2  0  0  0  0
 28 27  1  0  0  0  0
 29 27  1  0  0  0  0
 31 32  1  0  0  0  0
 31 28  1  0  0  0  0
 33 32  1  0  0  0  0
 33 34  2  0  0  0  0
 35 33  1  0  0  0  0
 36 38  1  0  0  0  0
 36 34  1  0  0  0  0
 37 35  2  0  0  0  0
 37 36  1  0  0  0  0
 38 39  2  0  0  0  0
 39 42  1  0  0  0  0
 39 41  1  0  0  0  0
 40 43  1  0  0  0  0
 40 38  1  0  0  0  0
 41 45  2  0  0  0  0
 42 46  1  0  0  0  0
 43 47  1  0  0  0  0
 44 40  2  0  0  0  0
 45 50  1  0  0  0  0
 46 50  2  0  0  0  0
 47 42  2  0  0  0  0
 48 43  2  0  0  0  0
 49 51  2  0  0  0  0
 49 44  1  0  0  0  0
 51 48  1  0  0  0  0
 52 53  1  0  0  0  0
 54 53  1  0  0  0  0
 54 55  1  0  0  0  0
 56 55  1  0  0  0  0
 56 57  1  0  0  0  0
M  END
>  <REMARK>
 VINA RESULT:    -5.987      6.219     11.290
 INTER + INTRA:         -16.445
 INTER:                 -10.583
 INTRA:                  -5.862
 UNBOUND:                -6.084
 SMILES CC(=O)N[C@@H]1[C@@H](O)C[C@](O)(C(=O)O)O[C@H]1C(O)[C@H](O)CNC(=O)OCc1cn(-c2c3ccccc3nc3ccccc23)nn1
 SMILES IDX 20 1 18 2 16 3 15 4 9 5 8 6 14 7 6 8 5 9 10 10 11 12 12 13
 SMILES IDX 13 14 7 16 4 18 2 19 1 21 3 22 17 23 19 25 21 27 22 28 23 30
 SMILES IDX 24 31 25 32 26 33 27 34 44 35 28 36 43 37 29 38 30 39 42 40
 SMILES IDX 31 41 35 42 37 43 41 44 32 45 34 46 36 47 38 48 40 49 33 50
 SMILES IDX 39 51
 H PARENT 10 11 13 15 7 17 4 20 17 24 19 26 21 29
 Flexibility Score: inf
  4 active torsions:
  status: ('A' for Active; 'I' for Inactive)
    1  A    between atoms: CA   and  CB  
    2  A    between atoms: CB   and  CG  
    3  A    between atoms: CG   and  CD  
    4  A    between atoms: CD   and  CE  

>  <TORSDO>
F 15

>  <BEGIN_>
RES LYS A 131

$$$$
ligand_91_pose_2_2HRL.pdbqt
 OpenBabel07062320523D

  6  5  0  0  0  0  0  0  0  0999 V2000
   33.1930   34.6630    9.2900 C   0  0  0  0  0  0  0  0  0  0  0  0
   32.0600   35.3600   10.0340 C   0  0  0  0  0  0  0  0  0  0  0  0
   30.7940   35.4820    9.2260 C   0  0  0  0  0  0  0  0  0  0  0  0
   30.2390   34.1070    8.8880 C   0  0  0  0  0  0  0  0  0  0  0  0
   28.7700   34.0200    9.2560 C   0  0  0  0  0  0  0  0  0  0  0  0
   28.3220   35.2490    9.9670 N   0  0  0  0  0  0  0  0  0  0  0  0
  1  2  1  0  0  0  0
  3  2  1  0  0  0  0
  4  3  1  0  0  0  0
  4  5  1  0  0  0  0
  5  6  1  0  0  0  0
M  END
>  <EGIN_R>
ES LYS A 135

>  <REMARK>
  4 active torsions:
  status: ('A' for Active; 'I' for Inactive)
    5  A    between atoms: CA   and  CB  
    6  A    between atoms: CB   and  CG  
    7  A    between atoms: CG   and  CD  
    8  A    between atoms: CD   and  CE  

$$$$
