ligand_61_pose_19_2HRL.pdbqt
 OpenBabel07062320523D

 49 50  0  0  1  0  0  0  0  0999 V2000
   22.0880   35.5020    8.5110 N   0  0  0  0  0  0  0  0  0  0  0  0
   22.9510   36.0790    9.4710 C   0  0  0  0  0  0  0  0  0  0  0  0
   23.0790   37.3240    9.5060 O   0  0  0  0  0  0  0  0  0  0  0  0
   22.0170   34.4370    8.5300 H   0  0  0  0  0  0  0  0  0  0  0  0
   21.3220   36.2510    7.5390 C   0  0  0  0  0  0  0  0  0  0  0  0
   19.9290   36.4270    8.0480 C   0  0  2  0  0  0  0  0  0  0  0  0
   19.0700   35.1840    7.9390 C   0  0  2  0  0  0  0  0  0  0  0  0
   18.6150   34.7860    9.3030 C   0  0  2  0  0  0  0  0  0  0  0  0
   19.3000   33.9100   11.3290 C   0  0  2  0  0  0  0  0  0  0  0  0
   17.8240   33.9710   11.6380 C   0  0  0  0  0  0  0  0  0  0  0  0
   19.6440   34.6460   10.2130 O   0  0  0  0  0  0  0  0  0  0  0  0
   16.9660   33.4840   10.5170 C   0  0  1  0  0  0  0  0  0  0  0  0
   17.7850   33.4950    9.2440 C   0  0  1  0  0  0  0  0  0  0  0  0
   19.7690   32.5960   11.2830 O   0  0  0  0  0  0  0  0  0  0  0  0
   19.4680   32.1070   12.0820 H   0  0  0  0  0  0  0  0  0  0  0  0
   19.9960   34.5620   12.4970 C   0  0  0  0  0  0  0  0  0  0  0  0
   20.0370   34.0590   13.6270 O   0  0  0  0  0  0  0  0  0  0  0  0
   20.6240   35.7910   12.3030 O   0  0  0  0  0  0  0  0  0  0  0  0
   21.2110   35.9910   11.5030 H   0  0  0  0  0  0  0  0  0  0  0  0
   16.3680   32.2660   10.7540 O   0  0  0  0  0  0  0  0  0  0  0  0
   15.3640   32.3340   10.7430 H   0  0  0  0  0  0  0  0  0  0  0  0
   16.9700   33.4890    8.0570 N   0  0  0  0  0  0  0  0  0  0  0  0
   16.8660   32.3140    7.2440 C   0  0  0  0  0  0  0  0  0  0  0  0
   16.4300   34.3260    7.7470 H   0  0  0  0  0  0  0  0  0  0  0  0
   16.0590   32.2280    6.0250 C   0  0  0  0  0  0  0  0  0  0  0  0
   17.5160   31.2770    7.6050 O   0  0  0  0  0  0  0  0  0  0  0  0
   19.8860   34.1890    7.3970 O   0  0  0  0  0  0  0  0  0  0  0  0
   20.7610   34.1940    7.8570 H   0  0  0  0  0  0  0  0  0  0  0  0
   19.3110   37.4030    7.2500 O   0  0  0  0  0  0  0  0  0  0  0  0
   19.7630   38.2730    7.2960 H   0  0  0  0  0  0  0  0  0  0  0  0
   23.6500   35.2460   10.3680 O   0  0  0  0  0  0  0  0  0  0  0  0
   24.1540   35.8970   11.5270 C   0  0  0  0  0  0  0  0  0  0  0  0
   23.9450   35.0070   12.6770 C   0  0  0  0  0  0  0  0  0  0  0  0
   24.3340   33.6840   12.8120 C   0  0  0  0  0  0  0  0  0  0  0  0
   23.3220   35.3360   13.8290 N   0  0  0  0  0  0  0  0  0  0  0  0
   23.9280   33.2910   14.0260 N   0  0  0  0  0  0  0  0  0  0  0  0
   23.3170   34.2830   14.6450 N   0  0  0  0  0  0  0  0  0  0  0  0
   24.1260   31.9800   14.5790 C   0  0  0  0  0  0  0  0  0  0  0  0
   23.3670   30.9340   13.7640 C   0  0  0  0  0  0  0  0  0  0  0  0
   23.9860   29.9160   13.1760 C   0  0  0  0  0  0  0  0  0  0  0  0
   22.0020   31.0730   13.6500 C   0  0  0  0  0  0  0  0  0  0  0  0
   23.2650   29.0020   12.4570 C   0  0  0  0  0  0  0  0  0  0  0  0
   21.5780   29.6240   12.6180 S   0  0  0  0  0  0  0  0  0  0  0  0
   29.8670   25.5550   16.9770 C   0  0  0  0  0  0  0  0  0  0  0  0
   28.3450   25.7220   17.0260 C   0  0  0  0  0  0  0  0  0  0  0  0
   27.6010   24.4010   16.9010 C   0  0  0  0  0  0  0  0  0  0  0  0
   26.1950   24.4910   17.4240 C   0  0  0  0  0  0  0  0  0  0  0  0
   26.0540   25.7360   18.2950 C   0  0  0  0  0  0  0  0  0  0  0  0
   24.8650   26.5210   17.8890 N   0  0  0  0  0  0  0  0  0  0  0  0
  1  4  1  0  0  0  0
  1  2  1  0  0  0  0
  2  3  2  0  0  0  0
  2 31  1  0  0  0  0
  5  1  1  0  0  0  0
  6  5  1  6  0  0  0
  7 27  1  1  0  0  0
  7  6  1  0  0  0  0
  8  7  1  6  0  0  0
  8 11  1  0  0  0  0
  9 14  1  6  0  0  0
  9 10  1  0  0  0  0
  9 16  1  0  0  0  0
 11  9  1  0  0  0  0
 12 20  1  1  0  0  0
 12 10  1  0  0  0  0
 13 22  1  6  0  0  0
 13  8  1  0  0  0  0
 13 12  1  0  0  0  0
 14 15  1  0  0  0  0
 16 17  2  0  0  0  0
 18 16  1  0  0  0  0
 19 18  1  0  0  0  0
 21 20  1  0  0  0  0
 23 26  2  0  0  0  0
 23 22  1  0  0  0  0
 24 22  1  0  0  0  0
 25 23  1  0  0  0  0
 27 28  1  0  0  0  0
 29 30  1  0  0  0  0
 29  6  1  0  0  0  0
 31 32  1  0  0  0  0
 32 33  1  0  0  0  0
 33 34  2  0  0  0  0
 33 35  1  0  0  0  0
 34 36  1  0  0  0  0
 35 37  2  0  0  0  0
 36 38  1  0  0  0  0
 36 37  1  0  0  0  0
 39 38  1  0  0  0  0
 40 39  1  0  0  0  0
 41 39  2  0  0  0  0
 42 43  1  0  0  0  0
 42 40  2  0  0  0  0
 43 41  1  0  0  0  0
 44 45  1  0  0  0  0
 46 45  1  0  0  0  0
 46 47  1  0  0  0  0
 47 48  1  0  0  0  0
 49 48  1  0  0  0  0
M  END
>  <REMARK>
 VINA RESULT:    -4.003      5.761      8.324
 INTER + INTRA:         -13.299
 INTER:                  -7.162
 INTRA:                  -6.136
 UNBOUND:                -6.136
 SMILES CC(=O)N[C@@H]1[C@@H](O)C[C@](O)(C(=O)O)O[C@H]1C(O)[C@H](O)CNC(=O)OCc1cn(Cc2ccsc2)nn1
 SMILES IDX 21 1 22 2 23 3 20 5 18 6 16 7 15 8 9 9 8 10 14 11 6 12 5 13
 SMILES IDX 10 14 11 16 12 17 13 18 7 20 4 22 2 23 1 25 3 26 17 27 19 29
 SMILES IDX 24 31 25 32 26 33 27 34 36 35 28 36 35 37 29 38 30 39 31 40
 SMILES IDX 34 41 32 42 33 43
 H PARENT 21 4 10 15 13 19 7 21 4 24 17 28 19 30
 Flexibility Score: inf
  4 active torsions:
  status: ('A' for Active; 'I' for Inactive)
    1  A    between atoms: CA   and  CB  
    2  A    between atoms: CB   and  CG  
    3  A    between atoms: CG   and  CD  
    4  A    between atoms: CD   and  CE  

>  <TORSDO>
F 16

>  <BEGIN_>
RES LYS A 131

$$$$
ligand_61_pose_19_2HRL.pdbqt
 OpenBabel07062320523D

  6  5  0  0  0  0  0  0  0  0999 V2000
   33.1930   34.6630    9.2900 C   0  0  0  0  0  0  0  0  0  0  0  0
   32.0600   35.3600   10.0340 C   0  0  0  0  0  0  0  0  0  0  0  0
   30.8030   35.5080    9.2160 C   0  0  0  0  0  0  0  0  0  0  0  0
   30.1170   34.1620    9.0380 C   0  0  0  0  0  0  0  0  0  0  0  0
   28.6620   34.3520    8.6560 C   0  0  0  0  0  0  0  0  0  0  0  0
   27.7600   33.6640    9.6200 N   0  0  0  0  0  0  0  0  0  0  0  0
  1  2  1  0  0  0  0
  3  2  1  0  0  0  0
  4  3  1  0  0  0  0
  5  4  1  0  0  0  0
  5  6  1  0  0  0  0
M  END
>  <EGIN_R>
ES LYS A 135

>  <REMARK>
  4 active torsions:
  status: ('A' for Active; 'I' for Inactive)
    5  A    between atoms: CA   and  CB  
    6  A    between atoms: CB   and  CG  
    7  A    between atoms: CG   and  CD  
    8  A    between atoms: CD   and  CE  

$$$$
