ligand_33_pose_10_2HRL.pdbqt
 OpenBabel07062320523D

 52 52  0  0  1  0  0  0  0  0999 V2000
   27.7320   31.3820   23.0320 C   0  0  0  0  0  0  0  0  0  0  0  0
   28.8670   32.2390   23.0800 O   0  0  0  0  0  0  0  0  0  0  0  0
   28.9140   33.3050   22.1740 C   0  0  0  0  0  0  0  0  0  0  0  0
   30.1220   33.5190   21.4510 N   0  0  0  0  0  0  0  0  0  0  0  0
   30.9230   32.8570   21.6310 H   0  0  0  0  0  0  0  0  0  0  0  0
   27.8900   34.0210   22.0470 O   0  0  0  0  0  0  0  0  0  0  0  0
   30.1960   34.6030   20.5250 C   0  0  0  0  0  0  0  0  0  0  0  0
   30.4370   34.1950   19.0910 C   0  0  2  0  0  0  0  0  0  0  0  0
   29.1680   33.5550   18.5630 C   0  0  2  0  0  0  0  0  0  0  0  0
   29.0330   33.5740   17.0770 C   0  0  2  0  0  0  0  0  0  0  0  0
   28.6710   31.2640   16.9370 C   0  0  2  0  0  0  0  0  0  0  0  0
   30.1510   31.1440   16.5360 C   0  0  0  0  0  0  0  0  0  0  0  0
   28.2170   32.5290   16.6950 O   0  0  0  0  0  0  0  0  0  0  0  0
   30.3720   32.2370   15.5190 C   0  0  1  0  0  0  0  0  0  0  0  0
   30.2900   33.5710   16.2830 C   0  0  1  0  0  0  0  0  0  0  0  0
   28.4940   30.8070   18.2400 O   0  0  0  0  0  0  0  0  0  0  0  0
   27.5170   30.6650   18.4500 H   0  0  0  0  0  0  0  0  0  0  0  0
   27.9320   30.3440   16.0350 C   0  0  0  0  0  0  0  0  0  0  0  0
   26.7940   30.6780   15.5880 O   0  0  0  0  0  0  0  0  0  0  0  0
   28.5070   29.1330   15.6980 O   0  0  0  0  0  0  0  0  0  0  0  0
   28.7890   28.5340   16.4880 H   0  0  0  0  0  0  0  0  0  0  0  0
   31.6090   32.1190   14.8840 O   0  0  0  0  0  0  0  0  0  0  0  0
   31.4330   31.7200   13.9920 H   0  0  0  0  0  0  0  0  0  0  0  0
   30.3430   34.6690   15.3280 N   0  0  0  0  0  0  0  0  0  0  0  0
   31.4000   35.5980   15.2830 C   0  0  0  0  0  0  0  0  0  0  0  0
   29.5470   34.7670   14.6350 H   0  0  0  0  0  0  0  0  0  0  0  0
   31.4240   36.7260   14.2830 C   0  0  0  0  0  0  0  0  0  0  0  0
   32.3510   35.4720   16.1140 O   0  0  0  0  0  0  0  0  0  0  0  0
   28.1350   34.4110   19.0420 O   0  0  0  0  0  0  0  0  0  0  0  0
   27.5980   34.6430   18.2490 H   0  0  0  0  0  0  0  0  0  0  0  0
   31.5290   33.3550   19.0620 O   0  0  0  0  0  0  0  0  0  0  0  0
   31.4580   32.6450   19.7460 H   0  0  0  0  0  0  0  0  0  0  0  0
   28.2020   30.1090   22.4400 C   0  0  0  0  0  0  0  0  0  0  0  0
   28.8390   29.1190   23.1600 C   0  0  0  0  0  0  0  0  0  0  0  0
   28.1070   29.6920   21.1780 N   0  0  0  0  0  0  0  0  0  0  0  0
   29.1010   28.1370   22.2700 N   0  0  0  0  0  0  0  0  0  0  0  0
   28.6590   28.4890   21.0830 N   0  0  0  0  0  0  0  0  0  0  0  0
   29.7840   26.9030   22.6650 C   0  0  0  0  0  0  0  0  0  0  0  0
   31.0170   27.2890   23.4400 C   0  0  0  0  0  0  0  0  0  0  0  0
   32.2670   27.3090   22.5860 C   0  0  0  0  0  0  0  0  0  0  0  0
   32.6990   28.6890   22.2290 C   0  0  0  0  0  0  0  0  0  0  0  0
   32.2850   29.1220   20.8490 C   0  0  0  0  0  0  0  0  0  0  0  0
   31.6970   30.4690   20.7970 C   0  0  0  0  0  0  0  0  0  0  0  0
   32.1940   31.4130   21.4310 O   0  0  0  0  0  0  0  0  0  0  0  0
   30.5510   30.7210   20.0240 O   0  0  0  0  0  0  0  0  0  0  0  0
   30.0890   31.6350   20.0710 H   0  0  0  0  0  0  0  0  0  0  0  0
   29.8670   25.5550   16.9770 C   0  0  0  0  0  0  0  0  0  0  0  0
   28.3450   25.7220   17.0260 C   0  0  0  0  0  0  0  0  0  0  0  0
   27.6020   24.4000   16.9140 C   0  0  0  0  0  0  0  0  0  0  0  0
   26.1410   24.5420   17.2420 C   0  0  0  0  0  0  0  0  0  0  0  0
   25.6030   23.2100   17.7540 C   0  0  0  0  0  0  0  0  0  0  0  0
   25.5370   23.2110   19.2350 N   0  0  0  0  0  0  0  0  0  0  0  0
  1  2  1  0  0  0  0
  3  2  1  0  0  0  0
  4  5  1  0  0  0  0
  4  3  1  0  0  0  0
  6  3  2  0  0  0  0
  7  4  1  0  0  0  0
  8  7  1  1  0  0  0
  9 29  1  1  0  0  0
  9  8  1  0  0  0  0
 10  9  1  1  0  0  0
 11 18  1  6  0  0  0
 11 16  1  0  0  0  0
 12 11  1  0  0  0  0
 13 11  1  0  0  0  0
 13 10  1  0  0  0  0
 14 22  1  1  0  0  0
 14 15  1  0  0  0  0
 14 12  1  0  0  0  0
 15 24  1  6  0  0  0
 15 10  1  0  0  0  0
 16 17  1  0  0  0  0
 19 18  2  0  0  0  0
 20 18  1  0  0  0  0
 20 21  1  0  0  0  0
 23 22  1  0  0  0  0
 25 24  1  0  0  0  0
 25 28  2  0  0  0  0
 26 24  1  0  0  0  0
 27 25  1  0  0  0  0
 30 29  1  0  0  0  0
 31  8  1  0  0  0  0
 31 32  1  0  0  0  0
 33  1  1  0  0  0  0
 33 34  2  0  0  0  0
 35 33  1  0  0  0  0
 36 38  1  0  0  0  0
 36 34  1  0  0  0  0
 37 35  2  0  0  0  0
 37 36  1  0  0  0  0
 38 39  1  0  0  0  0
 40 39  1  0  0  0  0
 41 40  1  0  0  0  0
 42 41  1  0  0  0  0
 43 42  1  0  0  0  0
 43 44  2  0  0  0  0
 45 46  1  0  0  0  0
 45 43  1  0  0  0  0
 47 48  1  0  0  0  0
 49 48  1  0  0  0  0
 49 50  1  0  0  0  0
 50 51  1  0  0  0  0
 51 52  1  0  0  0  0
M  END
>  <REMARK>
 VINA RESULT:    -4.382      7.559     12.873
 INTER + INTRA:         -14.912
 INTER:                  -6.919
 INTRA:                  -7.993
 UNBOUND:                -5.918
 SMILES CC(=O)N[C@@H]1[C@@H](O)C[C@](O)(C(=O)O)O[C@H]1C(O)[C@H](O)CNC(=O)OCc1cn(CCCCCC(=O)O)nn1
 SMILES IDX 25 1 24 2 22 3 21 4 23 6 20 7 18 8 16 9 15 10 9 11 8 12
 SMILES IDX 14 13 6 14 5 15 10 16 11 18 12 19 13 20 7 22 4 24 2 25 1 27
 SMILES IDX 3 28 17 29 19 31 26 33 27 34 38 35 28 36 37 37 29 38 30 39
 SMILES IDX 31 40 32 41 33 42 34 43 35 44 36 45
 H PARENT 21 5 10 17 13 21 7 23 4 26 17 30 19 32 36 46
 Flexibility Score: inf
  4 active torsions:
  status: ('A' for Active; 'I' for Inactive)
    1  A    between atoms: CA   and  CB  
    2  A    between atoms: CB   and  CG  
    3  A    between atoms: CG   and  CD  
    4  A    between atoms: CD   and  CE  

>  <TORSDO>
F 21

>  <BEGIN_>
RES LYS A 131

$$$$
ligand_33_pose_10_2HRL.pdbqt
 OpenBabel07062320523D

  6  5  0  0  0  0  0  0  0  0999 V2000
   33.1930   34.6630    9.2900 C   0  0  0  0  0  0  0  0  0  0  0  0
   32.0600   35.3600   10.0340 C   0  0  0  0  0  0  0  0  0  0  0  0
   30.7250   34.6810    9.8710 C   0  0  0  0  0  0  0  0  0  0  0  0
   30.2920   34.6900    8.4130 C   0  0  0  0  0  0  0  0  0  0  0  0
   28.7880   34.5320    8.3020 C   0  0  0  0  0  0  0  0  0  0  0  0
   28.2370   33.8020    9.4780 N   0  0  0  0  0  0  0  0  0  0  0  0
  1  2  1  0  0  0  0
  3  2  1  0  0  0  0
  4  3  1  0  0  0  0
  5  4  1  0  0  0  0
  5  6  1  0  0  0  0
M  END
>  <EGIN_R>
ES LYS A 135

>  <REMARK>
  4 active torsions:
  status: ('A' for Active; 'I' for Inactive)
    5  A    between atoms: CA   and  CB  
    6  A    between atoms: CB   and  CG  
    7  A    between atoms: CG   and  CD  
    8  A    between atoms: CD   and  CE  

$$$$
