ligand_53_pose_13_2HRL.pdbqt
 OpenBabel07062320523D

 48 48  0  0  1  0  0  0  0  0999 V2000
   27.4800   32.9540   16.9880 N   0  0  0  0  0  0  0  0  0  0  0  0
   27.7350   31.5750   16.8670 C   0  0  0  0  0  0  0  0  0  0  0  0
   27.6350   30.9800   15.7940 O   0  0  0  0  0  0  0  0  0  0  0  0
   27.6100   33.3490   17.9690 H   0  0  0  0  0  0  0  0  0  0  0  0
   27.0700   33.8510   15.9380 C   0  0  0  0  0  0  0  0  0  0  0  0
   28.1380   34.7390   15.3860 C   0  0  2  0  0  0  0  0  0  0  0  0
   28.7960   34.2060   14.1690 C   0  0  1  0  0  0  0  0  0  0  0  0
   29.4610   35.2330   13.2920 C   0  0  2  0  0  0  0  0  0  0  0  0
   31.1670   36.8520   13.3650 C   0  0  2  0  0  0  0  0  0  0  0  0
   30.4190   37.7640   12.4500 C   0  0  0  0  0  0  0  0  0  0  0  0
   30.4730   35.8890   14.0100 O   0  0  0  0  0  0  0  0  0  0  0  0
   29.3750   37.0170   11.6830 C   0  0  1  0  0  0  0  0  0  0  0  0
   28.5340   36.2860   12.7470 C   0  0  1  0  0  0  0  0  0  0  0  0
   31.8400   37.6940   14.3000 O   0  0  0  0  0  0  0  0  0  0  0  0
   32.7840   37.3780   14.2970 H   0  0  0  0  0  0  0  0  0  0  0  0
   32.2770   36.2260   12.5870 C   0  0  0  0  0  0  0  0  0  0  0  0
   32.8390   36.7530   11.6050 O   0  0  0  0  0  0  0  0  0  0  0  0
   32.7230   34.9780   12.9700 O   0  0  0  0  0  0  0  0  0  0  0  0
   33.7100   34.7370   13.0310 H   0  0  0  0  0  0  0  0  0  0  0  0
   28.5650   37.8540   10.9210 O   0  0  0  0  0  0  0  0  0  0  0  0
   28.3750   38.6550   11.4760 H   0  0  0  0  0  0  0  0  0  0  0  0
   27.3220   35.8340   12.1450 N   0  0  0  0  0  0  0  0  0  0  0  0
   26.0360   36.1760   12.6620 C   0  0  0  0  0  0  0  0  0  0  0  0
   27.3540   35.2460   11.2930 H   0  0  0  0  0  0  0  0  0  0  0  0
   24.7580   35.7260   12.0660 C   0  0  0  0  0  0  0  0  0  0  0  0
   25.9920   36.9020   13.6820 O   0  0  0  0  0  0  0  0  0  0  0  0
   29.6030   33.1170   14.4560 O   0  0  0  0  0  0  0  0  0  0  0  0
   30.1670   33.2710   15.2560 H   0  0  0  0  0  0  0  0  0  0  0  0
   29.0690   34.9940   16.4050 O   0  0  0  0  0  0  0  0  0  0  0  0
   29.1360   34.2440   17.0380 H   0  0  0  0  0  0  0  0  0  0  0  0
   28.1180   30.8200   17.9720 O   0  0  0  0  0  0  0  0  0  0  0  0
   29.3800   30.8440   18.5610 C   0  0  0  0  0  0  0  0  0  0  0  0
   30.2640   31.9350   18.0810 C   0  0  0  0  0  0  0  0  0  0  0  0
   30.7840   32.9970   18.7530 C   0  0  0  0  0  0  0  0  0  0  0  0
   30.7310   32.0580   16.8050 N   0  0  0  0  0  0  0  0  0  0  0  0
   31.5320   33.7210   17.9020 N   0  0  0  0  0  0  0  0  0  0  0  0
   31.4910   33.1430   16.7300 N   0  0  0  0  0  0  0  0  0  0  0  0
   32.2520   34.9310   18.2410 C   0  0  0  0  0  0  0  0  0  0  0  0
   32.2410   35.8570   17.0920 C   0  0  0  0  0  0  0  0  0  0  0  0
   31.4770   36.8630   17.1180 O   0  0  0  0  0  0  0  0  0  0  0  0
   33.0540   35.6330   16.0010 O   0  0  0  0  0  0  0  0  0  0  0  0
   32.5860   35.4560   15.1070 H   0  0  0  0  0  0  0  0  0  0  0  0
   29.8670   25.5550   16.9770 C   0  0  0  0  0  0  0  0  0  0  0  0
   28.3450   25.7220   17.0260 C   0  0  0  0  0  0  0  0  0  0  0  0
   27.6010   24.4020   16.8960 C   0  0  0  0  0  0  0  0  0  0  0  0
   26.1480   24.5320   17.2590 C   0  0  0  0  0  0  0  0  0  0  0  0
   25.9430   24.0910   18.7050 C   0  0  0  0  0  0  0  0  0  0  0  0
   25.7150   25.2660   19.5790 N   0  0  0  0  0  0  0  0  0  0  0  0
  1  4  1  0  0  0  0
  2  1  1  0  0  0  0
  2 31  1  0  0  0  0
  3  2  2  0  0  0  0
  5  1  1  0  0  0  0
  6  5  1  1  0  0  0
  6 29  1  0  0  0  0
  7 27  1  1  0  0  0
  7  6  1  0  0  0  0
  8 11  1  0  0  0  0
  8  7  1  1  0  0  0
  9 16  1  6  0  0  0
  9 11  1  0  0  0  0
  9 14  1  0  0  0  0
 10  9  1  0  0  0  0
 12 20  1  1  0  0  0
 12 10  1  0  0  0  0
 12 13  1  0  0  0  0
 13 22  1  6  0  0  0
 13  8  1  0  0  0  0
 15 14  1  0  0  0  0
 16 18  1  0  0  0  0
 17 16  2  0  0  0  0
 18 19  1  0  0  0  0
 20 21  1  0  0  0  0
 22 23  1  0  0  0  0
 23 26  2  0  0  0  0
 24 22  1  0  0  0  0
 25 23  1  0  0  0  0
 27 28  1  0  0  0  0
 29 30  1  0  0  0  0
 31 32  1  0  0  0  0
 33 32  1  0  0  0  0
 33 34  2  0  0  0  0
 35 33  1  0  0  0  0
 36 38  1  0  0  0  0
 36 34  1  0  0  0  0
 37 35  2  0  0  0  0
 37 36  1  0  0  0  0
 39 40  2  0  0  0  0
 39 38  1  0  0  0  0
 41 39  1  0  0  0  0
 42 41  1  0  0  0  0
 43 44  1  0  0  0  0
 45 44  1  0  0  0  0
 45 46  1  0  0  0  0
 46 47  1  0  0  0  0
 47 48  1  0  0  0  0
M  END
>  <REMARK>
 VINA RESULT:    -3.961      2.247      5.645
 INTER + INTRA:         -13.565
 INTER:                  -6.392
 INTRA:                  -7.173
 UNBOUND:                -6.362
 SMILES CC(=O)N[C@@H]1[C@@H](O)C[C@](O)(C(=O)O)O[C@H]1C(O)[C@H](O)CNC(=O)OCc1cn(CC(=O)O)nn1
 SMILES IDX 21 1 22 2 23 3 20 5 18 6 16 7 15 8 9 9 8 10 14 11 6 12 5 13
 SMILES IDX 10 14 11 16 12 17 13 18 7 20 4 22 2 23 1 25 3 26 17 27 19 29
 SMILES IDX 24 31 25 32 26 33 27 34 34 35 28 36 33 37 29 38 30 39 31 40
 SMILES IDX 32 41
 H PARENT 21 4 10 15 13 19 7 21 4 24 17 28 19 30 32 42
 Flexibility Score: inf
  4 active torsions:
  status: ('A' for Active; 'I' for Inactive)
    1  A    between atoms: CA   and  CB  
    2  A    between atoms: CB   and  CG  
    3  A    between atoms: CG   and  CD  
    4  A    between atoms: CD   and  CE  

>  <TORSDO>
F 17

>  <BEGIN_>
RES LYS A 131

$$$$
ligand_53_pose_13_2HRL.pdbqt
 OpenBabel07062320523D

  6  5  0  0  0  0  0  0  0  0999 V2000
   33.1930   34.6630    9.2900 C   0  0  0  0  0  0  0  0  0  0  0  0
   32.0600   35.3600   10.0340 C   0  0  0  0  0  0  0  0  0  0  0  0
   30.6970   34.8020    9.7150 C   0  0  0  0  0  0  0  0  0  0  0  0
   30.4670   34.7750    8.2120 C   0  0  0  0  0  0  0  0  0  0  0  0
   29.0280   35.1290    7.8870 C   0  0  0  0  0  0  0  0  0  0  0  0
   28.8790   35.5040    6.4530 N   0  0  0  0  0  0  0  0  0  0  0  0
  1  2  1  0  0  0  0
  3  2  1  0  0  0  0
  4  3  1  0  0  0  0
  5  4  1  0  0  0  0
  6  5  1  0  0  0  0
M  END
>  <EGIN_R>
ES LYS A 135

>  <REMARK>
  4 active torsions:
  status: ('A' for Active; 'I' for Inactive)
    5  A    between atoms: CA   and  CB  
    6  A    between atoms: CB   and  CG  
    7  A    between atoms: CG   and  CD  
    8  A    between atoms: CD   and  CE  

$$$$
