ligand_13_pose_4_2HRL.pdbqt
 OpenBabel07062320523D

 49 49  0  0  1  0  0  0  0  0999 V2000
   25.3770   32.8260   15.9450 N   0  0  0  0  0  0  0  0  0  0  0  0
   25.0480   32.9160   14.5730 C   0  0  0  0  0  0  0  0  0  0  0  0
   24.1210   32.2740   14.0680 O   0  0  0  0  0  0  0  0  0  0  0  0
   26.2030   33.4500   16.2280 H   0  0  0  0  0  0  0  0  0  0  0  0
   24.7310   32.0110   16.9210 C   0  0  0  0  0  0  0  0  0  0  0  0
   25.1530   30.5850   17.0060 C   0  0  2  0  0  0  0  0  0  0  0  0
   26.5930   30.3510   16.7170 C   0  0  1  0  0  0  0  0  0  0  0  0
   27.5700   30.9940   17.6630 C   0  0  2  0  0  0  0  0  0  0  0  0
   29.5590   31.5660   16.5740 C   0  0  2  0  0  0  0  0  0  0  0  0
   30.4100   31.5460   17.8250 C   0  0  0  0  0  0  0  0  0  0  0  0
   28.2880   31.9170   16.9050 O   0  0  0  0  0  0  0  0  0  0  0  0
   29.7240   30.7560   18.8780 C   0  0  1  0  0  0  0  0  0  0  0  0
   28.4730   30.0220   18.3690 C   0  0  1  0  0  0  0  0  0  0  0  0
   29.7190   30.3360   15.9610 O   0  0  0  0  0  0  0  0  0  0  0  0
   28.9370   30.1840   15.3820 H   0  0  0  0  0  0  0  0  0  0  0  0
   30.1220   32.6200   15.7010 C   0  0  0  0  0  0  0  0  0  0  0  0
   29.8090   33.8100   15.9200 O   0  0  0  0  0  0  0  0  0  0  0  0
   30.9720   32.3230   14.6660 O   0  0  0  0  0  0  0  0  0  0  0  0
   30.8130   31.5330   14.0410 H   0  0  0  0  0  0  0  0  0  0  0  0
   30.5500   29.8320   19.5110 O   0  0  0  0  0  0  0  0  0  0  0  0
   31.3110   29.5430   18.9680 H   0  0  0  0  0  0  0  0  0  0  0  0
   27.8620   29.5010   19.5730 N   0  0  0  0  0  0  0  0  0  0  0  0
   27.4760   28.1640   19.7780 C   0  0  0  0  0  0  0  0  0  0  0  0
   27.6970   30.1770   20.3510 H   0  0  0  0  0  0  0  0  0  0  0  0
   26.8520   27.6510   21.0210 C   0  0  0  0  0  0  0  0  0  0  0  0
   27.6840   27.3520   18.8240 O   0  0  0  0  0  0  0  0  0  0  0  0
   26.8540   29.0200   16.5020 O   0  0  0  0  0  0  0  0  0  0  0  0
   26.8970   28.4710   17.3250 H   0  0  0  0  0  0  0  0  0  0  0  0
   24.4370   29.8640   16.0280 O   0  0  0  0  0  0  0  0  0  0  0  0
   24.5390   28.8780   16.1820 H   0  0  0  0  0  0  0  0  0  0  0  0
   25.7820   33.7610   13.7100 O   0  0  0  0  0  0  0  0  0  0  0  0
   26.1570   35.0640   14.1130 C   0  0  0  0  0  0  0  0  0  0  0  0
   27.5330   35.2930   13.5970 C   0  0  0  0  0  0  0  0  0  0  0  0
   28.4400   36.2480   13.9930 C   0  0  0  0  0  0  0  0  0  0  0  0
   28.1730   34.5930   12.6200 N   0  0  0  0  0  0  0  0  0  0  0  0
   29.5660   36.0800   13.2450 N   0  0  0  0  0  0  0  0  0  0  0  0
   29.3700   35.0660   12.4210 N   0  0  0  0  0  0  0  0  0  0  0  0
   30.7870   36.8490   13.3040 C   0  0  0  0  0  0  0  0  0  0  0  0
   31.9610   35.9930   13.0740 C   0  0  0  0  0  0  0  0  0  0  0  0
   32.7100   36.2320   12.1020 O   0  0  0  0  0  0  0  0  0  0  0  0
   32.1970   34.9370   13.9550 O   0  0  0  0  0  0  0  0  0  0  0  0
   33.4940   34.9130   14.5590 C   0  0  0  0  0  0  0  0  0  0  0  0
   33.4100   35.6700   15.8600 C   0  0  0  0  0  0  0  0  0  0  0  0
   29.8670   25.5550   16.9770 C   0  0  0  0  0  0  0  0  0  0  0  0
   28.3450   25.7220   17.0260 C   0  0  0  0  0  0  0  0  0  0  0  0
   27.5990   24.4250   16.7530 C   0  0  0  0  0  0  0  0  0  0  0  0
   26.6160   24.0960   17.8420 C   0  0  0  0  0  0  0  0  0  0  0  0
   25.1970   24.1920   17.2920 C   0  0  0  0  0  0  0  0  0  0  0  0
   24.5250   22.8720   17.3580 N   0  0  0  0  0  0  0  0  0  0  0  0
  1  4  1  0  0  0  0
  1  5  1  0  0  0  0
  2  1  1  0  0  0  0
  3  2  2  0  0  0  0
  6  5  1  6  0  0  0
  7 27  1  1  0  0  0
  7  6  1  0  0  0  0
  8  7  1  6  0  0  0
  8 13  1  0  0  0  0
  9 16  1  6  0  0  0
  9 11  1  0  0  0  0
  9 10  1  0  0  0  0
 10 12  1  0  0  0  0
 11  8  1  0  0  0  0
 12 20  1  6  0  0  0
 13 12  1  0  0  0  0
 13 22  1  1  0  0  0
 14  9  1  0  0  0  0
 15 14  1  0  0  0  0
 16 17  2  0  0  0  0
 18 16  1  0  0  0  0
 19 18  1  0  0  0  0
 21 20  1  0  0  0  0
 22 23  1  0  0  0  0
 22 24  1  0  0  0  0
 23 25  1  0  0  0  0
 26 23  2  0  0  0  0
 27 28  1  0  0  0  0
 29 30  1  0  0  0  0
 29  6  1  0  0  0  0
 31 32  1  0  0  0  0
 31  2  1  0  0  0  0
 33 34  2  0  0  0  0
 33 32  1  0  0  0  0
 35 33  1  0  0  0  0
 36 38  1  0  0  0  0
 36 34  1  0  0  0  0
 37 35  2  0  0  0  0
 37 36  1  0  0  0  0
 39 38  1  0  0  0  0
 39 41  1  0  0  0  0
 40 39  2  0  0  0  0
 41 42  1  0  0  0  0
 42 43  1  0  0  0  0
 44 45  1  0  0  0  0
 46 45  1  0  0  0  0
 46 47  1  0  0  0  0
 48 49  1  0  0  0  0
 48 47  1  0  0  0  0
M  END
>  <REMARK>
 VINA RESULT:    -4.268      3.006      7.092
 INTER + INTRA:         -14.085
 INTER:                  -8.056
 INTRA:                  -6.029
 UNBOUND:                -5.949
 SMILES CCOC(=O)Cn1cc(COC(=O)NC[C@@H](O)C(O)[C@@H]2O[C@@](O)(C(=O)O)C[C@H](O)[C@H]2NC(C)=O)nn1
 SMILES IDX 14 1 12 2 13 3 15 5 16 6 18 7 20 8 22 9 27 10 21 11 28 12
 SMILES IDX 30 13 23 14 24 16 25 17 26 18 29 20 31 22 32 23 33 25 34 26
 SMILES IDX 19 27 17 29 11 31 10 32 9 33 8 34 35 35 7 36 36 37 6 38 4 39
 SMILES IDX 5 40 3 41 2 42 1 43
 H PARENT 14 4 23 15 26 19 29 21 31 24 19 28 17 30
 Flexibility Score: inf
  4 active torsions:
  status: ('A' for Active; 'I' for Inactive)
    1  A    between atoms: CA   and  CB  
    2  A    between atoms: CB   and  CG  
    3  A    between atoms: CG   and  CD  
    4  A    between atoms: CD   and  CE  

>  <TORSDO>
F 18

>  <BEGIN_>
RES LYS A 131

$$$$
ligand_13_pose_4_2HRL.pdbqt
 OpenBabel07062320523D

  6  5  0  0  0  0  0  0  0  0999 V2000
   33.1930   34.6630    9.2900 C   0  0  0  0  0  0  0  0  0  0  0  0
   32.0600   35.3600   10.0340 C   0  0  0  0  0  0  0  0  0  0  0  0
   30.8210   35.5550    9.1990 C   0  0  0  0  0  0  0  0  0  0  0  0
   30.0750   34.2410    9.0290 C   0  0  0  0  0  0  0  0  0  0  0  0
   28.7390   34.4710    8.3500 C   0  0  0  0  0  0  0  0  0  0  0  0
   27.8680   35.3620    9.1660 N   0  0  0  0  0  0  0  0  0  0  0  0
  1  2  1  0  0  0  0
  3  2  1  0  0  0  0
  4  3  1  0  0  0  0
  5  4  1  0  0  0  0
  5  6  1  0  0  0  0
M  END
>  <EGIN_R>
ES LYS A 135

>  <REMARK>
  4 active torsions:
  status: ('A' for Active; 'I' for Inactive)
    5  A    between atoms: CA   and  CB  
    6  A    between atoms: CB   and  CG  
    7  A    between atoms: CG   and  CD  
    8  A    between atoms: CD   and  CE  

$$$$
