ligand_8_pose_5_2HRL.pdbqt
 OpenBabel07062320523D

 50 51  0  0  1  0  0  0  0  0999 V2000
   27.4970   26.9970   23.2840 C   0  0  0  0  0  0  0  0  0  0  0  0
   28.6850   27.5910   23.9960 C   0  0  2  0  0  0  0  0  0  0  0  0
   29.9140   27.2440   23.2140 C   0  0  1  0  0  0  0  0  0  0  0  0
   30.6810   28.4150   22.6460 C   0  0  2  0  0  0  0  0  0  0  0  0
   29.8110   28.9530   20.5370 C   0  0  2  0  0  0  0  0  0  0  0  0
   31.1520   29.5440   20.1010 C   0  0  0  0  0  0  0  0  0  0  0  0
   29.7600   29.1180   21.8800 O   0  0  0  0  0  0  0  0  0  0  0  0
   32.1930   28.5890   20.6090 C   0  0  1  0  0  0  0  0  0  0  0  0
   31.9680   28.1000   22.0150 C   0  0  1  0  0  0  0  0  0  0  0  0
   29.7680   27.6680   20.0590 O   0  0  0  0  0  0  0  0  0  0  0  0
   28.8790   27.2930   20.2810 H   0  0  0  0  0  0  0  0  0  0  0  0
   28.7110   29.7290   19.9000 C   0  0  0  0  0  0  0  0  0  0  0  0
   27.6970   30.0200   20.5810 O   0  0  0  0  0  0  0  0  0  0  0  0
   28.7810   30.1350   18.5720 O   0  0  0  0  0  0  0  0  0  0  0  0
   29.1480   29.5470   17.8280 H   0  0  0  0  0  0  0  0  0  0  0  0
   32.1940   27.5030   19.7320 O   0  0  0  0  0  0  0  0  0  0  0  0
   31.6870   26.7530   20.0880 H   0  0  0  0  0  0  0  0  0  0  0  0
   33.0460   28.6430   22.8680 N   0  0  0  0  0  0  0  0  0  0  0  0
   33.8790   27.7940   23.6300 C   0  0  0  0  0  0  0  0  0  0  0  0
   33.2100   29.6890   22.9190 H   0  0  0  0  0  0  0  0  0  0  0  0
   34.9710   28.3390   24.5070 C   0  0  0  0  0  0  0  0  0  0  0  0
   33.6850   26.5540   23.5590 O   0  0  0  0  0  0  0  0  0  0  0  0
   30.6710   26.3180   23.8830 O   0  0  0  0  0  0  0  0  0  0  0  0
   30.8010   26.5490   24.8520 H   0  0  0  0  0  0  0  0  0  0  0  0
   28.7640   27.1050   25.2750 O   0  0  0  0  0  0  0  0  0  0  0  0
   29.5510   27.4550   25.7750 H   0  0  0  0  0  0  0  0  0  0  0  0
   27.5560   26.9530   21.8630 N   0  0  0  0  0  0  0  0  0  0  0  0
   26.4240   26.9090   21.0200 C   0  0  0  0  0  0  0  0  0  0  0  0
   28.5060   26.9510   21.3630 H   0  0  0  0  0  0  0  0  0  0  0  0
   25.2460   26.8920   21.4460 O   0  0  0  0  0  0  0  0  0  0  0  0
   26.6250   26.8830   19.6320 O   0  0  0  0  0  0  0  0  0  0  0  0
   25.5170   27.1780   18.8110 C   0  0  0  0  0  0  0  0  0  0  0  0
   25.9780   28.0820   17.7290 C   0  0  0  0  0  0  0  0  0  0  0  0
   25.1480   28.9710   17.0330 C   0  0  0  0  0  0  0  0  0  0  0  0
   27.1830   28.2690   17.1780 N   0  0  0  0  0  0  0  0  0  0  0  0
   25.8650   29.6420   16.1150 N   0  0  0  0  0  0  0  0  0  0  0  0
   27.1030   29.1920   16.2260 N   0  0  0  0  0  0  0  0  0  0  0  0
   25.3690   30.6320   15.2140 C   0  0  0  0  0  0  0  0  0  0  0  0
   24.6750   30.2930   14.0740 C   0  0  0  0  0  0  0  0  0  0  0  0
   25.5660   31.9750   15.4550 C   0  0  0  0  0  0  0  0  0  0  0  0
   24.1960   31.2750   13.2050 C   0  0  0  0  0  0  0  0  0  0  0  0
   25.0920   32.9530   14.5950 C   0  0  0  0  0  0  0  0  0  0  0  0
   26.5320   32.4590   17.0420 Br  0  0  0  0  0  0  0  0  0  0  0  0
   24.3970   32.6170   13.4530 C   0  0  0  0  0  0  0  0  0  0  0  0
   29.8670   25.5550   16.9770 C   0  0  0  0  0  0  0  0  0  0  0  0
   28.3450   25.7220   17.0260 C   0  0  0  0  0  0  0  0  0  0  0  0
   27.5990   24.4330   16.7160 C   0  0  0  0  0  0  0  0  0  0  0  0
   26.9740   23.8310   17.9430 C   0  0  0  0  0  0  0  0  0  0  0  0
   25.6710   23.1360   17.5620 C   0  0  0  0  0  0  0  0  0  0  0  0
   24.7190   24.1060   16.9700 N   0  0  0  0  0  0  0  0  0  0  0  0
  2  1  1  6  0  0  0
  2 25  1  0  0  0  0
  3 23  1  1  0  0  0
  3  2  1  0  0  0  0
  4  3  1  6  0  0  0
  5 12  1  6  0  0  0
  5  7  1  0  0  0  0
  6  5  1  0  0  0  0
  6  8  1  0  0  0  0
  7  4  1  0  0  0  0
  8 16  1  6  0  0  0
  8  9  1  0  0  0  0
  9  4  1  0  0  0  0
  9 18  1  1  0  0  0
 10 11  1  0  0  0  0
 10  5  1  0  0  0  0
 12 13  2  0  0  0  0
 14 12  1  0  0  0  0
 15 14  1  0  0  0  0
 16 17  1  0  0  0  0
 18 20  1  0  0  0  0
 18 19  1  0  0  0  0
 19 21  1  0  0  0  0
 22 19  2  0  0  0  0
 23 24  1  0  0  0  0
 25 26  1  0  0  0  0
 27  1  1  0  0  0  0
 28 30  2  0  0  0  0
 28 27  1  0  0  0  0
 29 27  1  0  0  0  0
 31 28  1  0  0  0  0
 32 31  1  0  0  0  0
 33 32  1  0  0  0  0
 34 33  2  0  0  0  0
 35 33  1  0  0  0  0
 36 37  1  0  0  0  0
 36 34  1  0  0  0  0
 37 35  2  0  0  0  0
 38 40  1  0  0  0  0
 38 36  1  0  0  0  0
 39 38  2  0  0  0  0
 40 43  1  0  0  0  0
 41 44  2  0  0  0  0
 41 39  1  0  0  0  0
 42 40  2  0  0  0  0
 44 42  1  0  0  0  0
 45 46  1  0  0  0  0
 47 46  1  0  0  0  0
 47 48  1  0  0  0  0
 49 48  1  0  0  0  0
 50 49  1  0  0  0  0
M  END
>  <REMARK>
 VINA RESULT:    -5.763      2.744      4.166
 INTER + INTRA:         -14.370
 INTER:                  -8.137
 INTRA:                  -6.232
 UNBOUND:                -4.396
 SMILES CC(=O)N[C@@H]1[C@@H](O)C[C@](O)(C(=O)O)O[C@H]1C(O)[C@H](O)CNC(=O)OCc1cn(-c2ccccc2Br)nn1
 SMILES IDX 20 1 18 2 16 3 15 4 9 5 8 6 14 7 6 8 5 9 10 10 11 12 12 13
 SMILES IDX 13 14 7 16 4 18 2 19 1 21 3 22 17 23 19 25 21 27 22 28 23 30
 SMILES IDX 24 31 25 32 26 33 27 34 37 35 28 36 36 37 29 38 30 39 34 40
 SMILES IDX 31 41 33 42 35 43 32 44
 H PARENT 10 11 13 15 7 17 4 20 17 24 19 26 21 29
 Flexibility Score: inf
  4 active torsions:
  status: ('A' for Active; 'I' for Inactive)
    1  A    between atoms: CA   and  CB  
    2  A    between atoms: CB   and  CG  
    3  A    between atoms: CG   and  CD  
    4  A    between atoms: CD   and  CE  

>  <TORSDO>
F 15

>  <BEGIN_>
RES LYS A 131

$$$$
ligand_8_pose_5_2HRL.pdbqt
 OpenBabel07062320523D

  6  5  0  0  0  0  0  0  0  0999 V2000
   33.1930   34.6630    9.2900 C   0  0  0  0  0  0  0  0  0  0  0  0
   32.0600   35.3600   10.0340 C   0  0  0  0  0  0  0  0  0  0  0  0
   30.7200   34.6960    9.8490 C   0  0  0  0  0  0  0  0  0  0  0  0
   30.4190   34.4960    8.3720 C   0  0  0  0  0  0  0  0  0  0  0  0
   29.3780   35.4940    7.9010 C   0  0  0  0  0  0  0  0  0  0  0  0
   28.0210   34.8810    7.8750 N   0  0  0  0  0  0  0  0  0  0  0  0
  1  2  1  0  0  0  0
  3  2  1  0  0  0  0
  4  3  1  0  0  0  0
  5  4  1  0  0  0  0
  6  5  1  0  0  0  0
M  END
>  <EGIN_R>
ES LYS A 135

>  <REMARK>
  4 active torsions:
  status: ('A' for Active; 'I' for Inactive)
    5  A    between atoms: CA   and  CB  
    6  A    between atoms: CB   and  CG  
    7  A    between atoms: CG   and  CD  
    8  A    between atoms: CD   and  CE  

$$$$
