ligand_89_pose_8_2HRL.pdbqt
 OpenBabel07062320523D

 60 63  0  0  1  0  0  0  0  0999 V2000
   26.2310   34.5270   17.4490 N   0  0  0  0  0  0  0  0  0  0  0  0
   26.7010   33.9590   18.6330 C   0  0  0  0  0  0  0  0  0  0  0  0
   27.7050   34.3460   19.2330 O   0  0  0  0  0  0  0  0  0  0  0  0
   25.3070   34.0940   17.0520 H   0  0  0  0  0  0  0  0  0  0  0  0
   26.8220   35.5880   16.7280 C   0  0  0  0  0  0  0  0  0  0  0  0
   27.3470   35.2750   15.3980 C   0  0  2  0  0  0  0  0  0  0  0  0
   28.2710   34.1570   15.1380 C   0  0  1  0  0  0  0  0  0  0  0  0
   29.5260   34.4350   16.0180 C   0  0  2  0  0  0  0  0  0  0  0  0
   31.3200   34.4050   14.5020 C   0  0  2  0  0  0  0  0  0  0  0  0
   31.9560   33.2930   15.2670 C   0  0  0  0  0  0  0  0  0  0  0  0
   30.4300   35.0870   15.2650 O   0  0  0  0  0  0  0  0  0  0  0  0
   30.9820   32.4010   15.9930 C   0  0  1  0  0  0  0  0  0  0  0  0
   29.9450   33.2090   16.7400 C   0  0  1  0  0  0  0  0  0  0  0  0
   30.6330   33.8850   13.3760 O   0  0  0  0  0  0  0  0  0  0  0  0
   29.7170   33.6830   13.7070 H   0  0  0  0  0  0  0  0  0  0  0  0
   32.4410   35.2790   14.0180 C   0  0  0  0  0  0  0  0  0  0  0  0
   32.6740   36.3510   14.5940 O   0  0  0  0  0  0  0  0  0  0  0  0
   33.2030   34.8880   12.9430 O   0  0  0  0  0  0  0  0  0  0  0  0
   32.8180   34.2570   12.2330 H   0  0  0  0  0  0  0  0  0  0  0  0
   30.3610   31.4830   15.1440 O   0  0  0  0  0  0  0  0  0  0  0  0
   31.0030   31.1940   14.4500 H   0  0  0  0  0  0  0  0  0  0  0  0
   30.5190   33.5200   18.0560 N   0  0  0  0  0  0  0  0  0  0  0  0
   30.5970   32.5690   19.0950 C   0  0  0  0  0  0  0  0  0  0  0  0
   30.8960   34.4870   18.2650 H   0  0  0  0  0  0  0  0  0  0  0  0
   31.1780   32.8890   20.4240 C   0  0  0  0  0  0  0  0  0  0  0  0
   30.1610   31.3930   18.9090 O   0  0  0  0  0  0  0  0  0  0  0  0
   27.7830   32.8910   15.4670 O   0  0  0  0  0  0  0  0  0  0  0  0
   27.9130   32.7120   16.4510 H   0  0  0  0  0  0  0  0  0  0  0  0
   27.9580   36.4990   14.9270 O   0  0  0  0  0  0  0  0  0  0  0  0
   28.8410   36.3210   14.5610 H   0  0  0  0  0  0  0  0  0  0  0  0
   26.0270   32.8670   19.2270 O   0  0  0  0  0  0  0  0  0  0  0  0
   26.5780   31.5820   19.2390 C   0  0  0  0  0  0  0  0  0  0  0  0
   26.4400   30.9660   17.8960 C   0  0  0  0  0  0  0  0  0  0  0  0
   25.3140   30.9850   17.0780 C   0  0  0  0  0  0  0  0  0  0  0  0
   27.3530   30.2740   17.1900 N   0  0  0  0  0  0  0  0  0  0  0  0
   25.5700   30.3160   15.9180 N   0  0  0  0  0  0  0  0  0  0  0  0
   26.8080   29.9140   16.0450 N   0  0  0  0  0  0  0  0  0  0  0  0
   24.6160   30.1620   14.8710 C   0  0  0  0  0  0  0  0  0  0  0  0
   24.6930   30.7360   13.6340 N   0  0  0  0  0  0  0  0  0  0  0  0
   23.4560   29.4330   14.8620 C   0  0  0  0  0  0  0  0  0  0  0  0
   23.6230   30.3640   12.9210 C   0  0  0  0  0  0  0  0  0  0  0  0
   22.8320   29.5560   13.6500 N   0  0  0  0  0  0  0  0  0  0  0  0
   22.8540   28.6540   15.7990 C   0  0  0  0  0  0  0  0  0  0  0  0
   21.6680   28.9370   13.3770 C   0  0  0  0  0  0  0  0  0  0  0  0
   21.7050   28.0240   15.5720 N   0  0  0  0  0  0  0  0  0  0  0  0
   23.3680   28.4950   16.9350 O   0  0  0  0  0  0  0  0  0  0  0  0
   21.0690   29.0840   12.1430 C   0  0  0  0  0  0  0  0  0  0  0  0
   21.1080   28.1600   14.3690 C   0  0  0  0  0  0  0  0  0  0  0  0
   19.8720   28.4600   11.8340 C   0  0  0  0  0  0  0  0  0  0  0  0
   19.9090   27.5460   14.0350 C   0  0  0  0  0  0  0  0  0  0  0  0
   19.2990   27.6840   12.8040 C   0  0  0  0  0  0  0  0  0  0  0  0
   21.0150   27.1790   16.5220 C   0  0  0  0  0  0  0  0  0  0  0  0
   20.5910   28.0610   17.6770 C   0  0  0  0  0  0  0  0  0  0  0  0
   21.8400   26.0640   17.0800 C   0  0  0  0  0  0  0  0  0  0  0  0
   29.8670   25.5550   16.9770 C   0  0  0  0  0  0  0  0  0  0  0  0
   28.3450   25.7220   17.0260 C   0  0  0  0  0  0  0  0  0  0  0  0
   27.6010   24.4030   16.8860 C   0  0  0  0  0  0  0  0  0  0  0  0
   26.6090   24.1910   17.9960 C   0  0  0  0  0  0  0  0  0  0  0  0
   25.2250   24.6350   17.5330 C   0  0  0  0  0  0  0  0  0  0  0  0
   24.4220   23.4660   17.1040 N   0  0  0  0  0  0  0  0  0  0  0  0
  1  2  1  0  0  0  0
  2 31  1  0  0  0  0
  2  3  2  0  0  0  0
  4  1  1  0  0  0  0
  5  1  1  0  0  0  0
  6  5  1  1  0  0  0
  7  6  1  0  0  0  0
  7 27  1  1  0  0  0
  8  7  1  6  0  0  0
  8 13  1  0  0  0  0
  9 14  1  6  0  0  0
  9 11  1  0  0  0  0
  9 10  1  0  0  0  0
 10 12  1  0  0  0  0
 11  8  1  0  0  0  0
 12 20  1  6  0  0  0
 12 13  1  0  0  0  0
 13 22  1  1  0  0  0
 14 15  1  0  0  0  0
 16  9  1  0  0  0  0
 16 17  2  0  0  0  0
 18 16  1  0  0  0  0
 19 18  1  0  0  0  0
 21 20  1  0  0  0  0
 22 24  1  0  0  0  0
 22 23  1  0  0  0  0
 23 25  1  0  0  0  0
 26 23  2  0  0  0  0
 27 28  1  0  0  0  0
 29  6  1  0  0  0  0
 30 29  1  0  0  0  0
 31 32  1  0  0  0  0
 33 32  1  0  0  0  0
 34 33  2  0  0  0  0
 35 33  1  0  0  0  0
 36 37  1  0  0  0  0
 36 34  1  0  0  0  0
 37 35  2  0  0  0  0
 38 36  1  0  0  0  0
 39 38  1  0  0  0  0
 40 38  2  0  0  0  0
 40 43  1  0  0  0  0
 41 39  2  0  0  0  0
 41 42  1  0  0  0  0
 42 40  1  0  0  0  0
 43 46  2  0  0  0  0
 44 42  1  0  0  0  0
 44 48  2  0  0  0  0
 45 43  1  0  0  0  0
 45 52  1  0  0  0  0
 47 44  1  0  0  0  0
 48 45  1  0  0  0  0
 49 47  2  0  0  0  0
 49 51  1  0  0  0  0
 50 48  1  0  0  0  0
 51 50  2  0  0  0  0
 52 54  1  0  0  0  0
 52 53  1  0  0  0  0
 55 56  1  0  0  0  0
 57 56  1  0  0  0  0
 57 58  1  0  0  0  0
 59 58  1  0  0  0  0
 60 59  1  0  0  0  0
M  END
>  <REMARK>
 VINA RESULT:    -4.681      4.010      8.061
 INTER + INTRA:         -15.485
 INTER:                  -9.470
 INTRA:                  -6.015
 UNBOUND:                -7.109
 SMILES CC(=O)N[C@@H]1[C@@H](O)C[C@](O)(C(=O)O)O[C@H]1C(O)[C@H](O)CNC(=O)OCc1cn(-c2ncn3c2c(=O)n(C(C)C)c2ccccc23)nn1
 SMILES IDX 21 1 22 2 23 3 20 5 18 6 16 7 15 8 9 9 8 10 14 11 6 12 5 13
 SMILES IDX 10 14 11 16 12 17 13 18 7 20 4 22 2 23 1 25 3 26 17 27 19 29
 SMILES IDX 24 31 25 32 26 33 27 34 47 35 28 36 46 37 29 38 30 39 33 40
 SMILES IDX 31 41 32 42 34 43 45 44 36 45 35 46 44 47 40 48 43 49 41 50
 SMILES IDX 42 51 37 52 38 53 39 54
 H PARENT 21 4 10 15 13 19 7 21 4 24 17 28 19 30
 Flexibility Score: inf
  4 active torsions:
  status: ('A' for Active; 'I' for Inactive)
    1  A    between atoms: CA   and  CB  
    2  A    between atoms: CB   and  CG  
    3  A    between atoms: CG   and  CD  
    4  A    between atoms: CD   and  CE  

>  <TORSDO>
F 16

>  <BEGIN_>
RES LYS A 131

$$$$
ligand_89_pose_8_2HRL.pdbqt
 OpenBabel07062320523D

  6  5  0  0  0  0  0  0  0  0999 V2000
   33.1930   34.6630    9.2900 C   0  0  0  0  0  0  0  0  0  0  0  0
   32.0600   35.3600   10.0340 C   0  0  0  0  0  0  0  0  0  0  0  0
   30.8820   35.6990    9.1570 C   0  0  0  0  0  0  0  0  0  0  0  0
   30.3710   34.4580    8.4420 C   0  0  0  0  0  0  0  0  0  0  0  0
   28.8560   34.4730    8.3670 C   0  0  0  0  0  0  0  0  0  0  0  0
   28.2540   33.7760    9.5370 N   0  0  0  0  0  0  0  0  0  0  0  0
  1  2  1  0  0  0  0
  3  2  1  0  0  0  0
  4  3  1  0  0  0  0
  5  4  1  0  0  0  0
  5  6  1  0  0  0  0
M  END
>  <EGIN_R>
ES LYS A 135

>  <REMARK>
  4 active torsions:
  status: ('A' for Active; 'I' for Inactive)
    5  A    between atoms: CA   and  CB  
    6  A    between atoms: CB   and  CG  
    7  A    between atoms: CG   and  CD  
    8  A    between atoms: CD   and  CE  

$$$$
