ligand_81_pose_12_2HRL.pdbqt
 OpenBabel07062320523D

 63 65  0  0  1  0  0  0  0  0999 V2000
   28.9640   39.1900   10.7770 O   0  0  0  0  0  0  0  0  0  0  0  0
   28.4840   39.0270    9.4960 C   0  0  0  0  0  0  0  0  0  0  0  0
   27.1380   38.5680    9.2440 N   0  0  0  0  0  0  0  0  0  0  0  0
   26.5820   38.3750   10.1000 H   0  0  0  0  0  0  0  0  0  0  0  0
   29.2520   39.2880    8.5370 O   0  0  0  0  0  0  0  0  0  0  0  0
   26.6870   38.4150    7.8810 C   0  0  0  0  0  0  0  0  0  0  0  0
   25.1680   38.5150    7.8820 C   0  0  2  0  0  0  0  0  0  0  0  0
   24.6450   37.0980    7.8960 C   0  0  2  0  0  0  0  0  0  0  0  0
   23.8890   36.7160    9.1310 C   0  0  2  0  0  0  0  0  0  0  0  0
   21.8020   36.5530    8.0790 C   0  0  2  0  0  0  0  0  0  0  0  0
   21.5250   37.9580    8.5890 C   0  0  0  0  0  0  0  0  0  0  0  0
   22.8210   35.9390    8.7490 O   0  0  0  0  0  0  0  0  0  0  0  0
   22.0140   38.0460   10.0200 C   0  0  1  0  0  0  0  0  0  0  0  0
   23.5380   37.8170   10.0630 C   0  0  1  0  0  0  0  0  0  0  0  0
   22.0510   36.6910    6.7080 O   0  0  0  0  0  0  0  0  0  0  0  0
   22.3960   35.8630    6.3070 H   0  0  0  0  0  0  0  0  0  0  0  0
   20.6010   35.7050    8.2230 C   0  0  0  0  0  0  0  0  0  0  0  0
   19.6910   36.0580    8.9950 O   0  0  0  0  0  0  0  0  0  0  0  0
   20.4880   34.5370    7.5140 O   0  0  0  0  0  0  0  0  0  0  0  0
   19.8230   34.3760    6.7680 H   0  0  0  0  0  0  0  0  0  0  0  0
   21.6740   39.2510   10.5890 O   0  0  0  0  0  0  0  0  0  0  0  0
   21.6850   39.9780    9.9290 H   0  0  0  0  0  0  0  0  0  0  0  0
   23.8150   37.4770   11.4650 N   0  0  0  0  0  0  0  0  0  0  0  0
   24.7800   38.2200   12.1870 C   0  0  0  0  0  0  0  0  0  0  0  0
   23.3150   36.6960   11.9410 H   0  0  0  0  0  0  0  0  0  0  0  0
   25.1130   37.9290   13.6150 C   0  0  0  0  0  0  0  0  0  0  0  0
   25.3660   39.1580   11.5780 O   0  0  0  0  0  0  0  0  0  0  0  0
   25.8470   36.3190    7.9630 O   0  0  0  0  0  0  0  0  0  0  0  0
   26.5140   36.6860    7.3490 H   0  0  0  0  0  0  0  0  0  0  0  0
   24.8260   39.2360    6.7490 O   0  0  0  0  0  0  0  0  0  0  0  0
   25.4580   39.0900    6.0140 H   0  0  0  0  0  0  0  0  0  0  0  0
   30.2500   39.6570   11.1190 C   0  0  0  0  0  0  0  0  0  0  0  0
   31.0220   38.5600   11.7850 C   0  0  0  0  0  0  0  0  0  0  0  0
   31.0150   38.2030   13.1100 C   0  0  0  0  0  0  0  0  0  0  0  0
   31.8860   37.7090   11.1910 N   0  0  0  0  0  0  0  0  0  0  0  0
   31.8640   37.1500   13.3100 N   0  0  0  0  0  0  0  0  0  0  0  0
   32.3650   36.8910   12.1090 N   0  0  0  0  0  0  0  0  0  0  0  0
   32.1450   36.5090   14.5420 C   0  0  0  0  0  0  0  0  0  0  0  0
   33.0630   36.9970   15.3870 N   0  0  0  0  0  0  0  0  0  0  0  0
   31.4850   35.3270   14.8980 C   0  0  0  0  0  0  0  0  0  0  0  0
   33.3530   36.3720   16.5560 C   0  0  0  0  0  0  0  0  0  0  0  0
   31.7770   34.6940   16.0730 C   0  0  0  0  0  0  0  0  0  0  0  0
   32.7330   35.2410   16.9090 N   0  0  0  0  0  0  0  0  0  0  0  0
   30.4940   34.7660   13.9580 C   0  0  0  0  0  0  0  0  0  0  0  0
   29.0880   35.2630   14.1440 C   0  0  0  0  0  0  0  0  0  0  0  0
   28.1540   34.4290   13.5940 O   0  0  0  0  0  0  0  0  0  0  0  0
   27.2380   35.0600   12.7850 C   0  0  0  0  0  0  0  0  0  0  0  0
   27.8980   36.0630   11.8620 C   0  0  0  0  0  0  0  0  0  0  0  0
   34.3290   36.9230   17.4180 N   0  0  0  0  0  0  0  0  0  0  0  0
   34.4390   37.9500   17.4920 H   0  0  0  0  0  0  0  0  0  0  0  0
   34.9540   36.3270   17.9920 H   0  0  0  0  0  0  0  0  0  0  0  0
   31.2130   33.4110   16.4440 C   0  0  0  0  0  0  0  0  0  0  0  0
   31.0870   32.2990   15.6950 C   0  0  0  0  0  0  0  0  0  0  0  0
   30.7580   33.3220   17.7790 C   0  0  0  0  0  0  0  0  0  0  0  0
   30.5320   31.1210   16.2300 C   0  0  0  0  0  0  0  0  0  0  0  0
   30.2160   32.1850   18.3100 C   0  0  0  0  0  0  0  0  0  0  0  0
   30.0930   31.0480   17.5290 C   0  0  0  0  0  0  0  0  0  0  0  0
   29.8670   25.5550   16.9770 C   0  0  0  0  0  0  0  0  0  0  0  0
   28.3450   25.7220   17.0260 C   0  0  0  0  0  0  0  0  0  0  0  0
   27.6010   24.4020   16.8940 C   0  0  0  0  0  0  0  0  0  0  0  0
   26.1410   24.5380   17.2270 C   0  0  0  0  0  0  0  0  0  0  0  0
   25.8980   24.0610   18.6550 C   0  0  0  0  0  0  0  0  0  0  0  0
   25.7070   25.2160   19.5630 N   0  0  0  0  0  0  0  0  0  0  0  0
  1 32  1  0  0  0  0
  2  1  1  0  0  0  0
  3  2  1  0  0  0  0
  3  4  1  0  0  0  0
  5  2  2  0  0  0  0
  6  3  1  0  0  0  0
  7  6  1  6  0  0  0
  7  8  1  0  0  0  0
  8 28  1  1  0  0  0
  9  8  1  6  0  0  0
  9 14  1  0  0  0  0
 10 15  1  6  0  0  0
 10 17  1  0  0  0  0
 10 11  1  0  0  0  0
 10 12  1  0  0  0  0
 11 13  1  0  0  0  0
 12  9  1  0  0  0  0
 13 14  1  0  0  0  0
 13 21  1  6  0  0  0
 14 23  1  1  0  0  0
 16 15  1  0  0  0  0
 17 18  2  0  0  0  0
 19 17  1  0  0  0  0
 20 19  1  0  0  0  0
 22 21  1  0  0  0  0
 23 25  1  0  0  0  0
 23 24  1  0  0  0  0
 24 26  1  0  0  0  0
 27 24  2  0  0  0  0
 29 28  1  0  0  0  0
 30  7  1  0  0  0  0
 31 30  1  0  0  0  0
 32 33  1  0  0  0  0
 33 34  2  0  0  0  0
 34 36  1  0  0  0  0
 35 33  1  0  0  0  0
 35 37  2  0  0  0  0
 36 38  1  0  0  0  0
 37 36  1  0  0  0  0
 38 40  2  0  0  0  0
 38 39  1  0  0  0  0
 39 41  2  0  0  0  0
 40 42  1  0  0  0  0
 41 43  1  0  0  0  0
 41 49  1  0  0  0  0
 42 52  1  0  0  0  0
 42 43  2  0  0  0  0
 44 45  1  0  0  0  0
 44 40  1  0  0  0  0
 46 45  1  0  0  0  0
 47 46  1  0  0  0  0
 48 47  1  0  0  0  0
 49 50  1  0  0  0  0
 49 51  1  0  0  0  0
 52 54  2  0  0  0  0
 53 55  2  0  0  0  0
 53 52  1  0  0  0  0
 54 56  1  0  0  0  0
 55 57  1  0  0  0  0
 57 56  2  0  0  0  0
 58 59  1  0  0  0  0
 60 59  1  0  0  0  0
 60 61  1  0  0  0  0
 61 62  1  0  0  0  0
 62 63  1  0  0  0  0
M  END
>  <REMARK>
 VINA RESULT:    -4.644      1.984      2.841
 INTER + INTRA:         -16.703
 INTER:                 -11.152
 INTRA:                  -5.551
 UNBOUND:                -7.171
 SMILES CCOCCc1c(-c2ccccc2)nc(N)nc1-n1cc(COC(=O)NC[C@@H](O)C(O)[C@@H]2O[C@@](O)(C(=O)O)C[C@H](O)[C@H]2NC(C)=O)nn1
 SMILES IDX 23 1 24 2 26 3 25 5 27 6 28 7 30 8 32 9 34 10 39 11 33 12
 SMILES IDX 40 13 42 14 35 15 36 17 37 18 38 19 41 21 43 23 44 24 45 26
 SMILES IDX 46 27 31 28 29 30 22 32 21 33 20 34 47 35 19 36 48 37 18 38
 SMILES IDX 17 39 6 40 15 41 7 42 14 43 5 44 4 45 3 46 2 47 1 48 16 49
 SMILES IDX 8 52 9 53 13 54 10 55 12 56 11 57
 H PARENT 26 4 35 16 38 20 41 22 43 25 31 29 29 31 16 50 16 51
 Flexibility Score: inf
  4 active torsions:
  status: ('A' for Active; 'I' for Inactive)
    1  A    between atoms: CA   and  CB  
    2  A    between atoms: CB   and  CG  
    3  A    between atoms: CG   and  CD  
    4  A    between atoms: CD   and  CE  

>  <TORSDO>
F 21

>  <BEGIN_>
RES LYS A 131

$$$$
ligand_81_pose_12_2HRL.pdbqt
 OpenBabel07062320523D

  6  5  0  0  0  0  0  0  0  0999 V2000
   33.1930   34.6630    9.2900 C   0  0  0  0  0  0  0  0  0  0  0  0
   32.0600   35.3600   10.0340 C   0  0  0  0  0  0  0  0  0  0  0  0
   30.7870   34.5550   10.0840 C   0  0  0  0  0  0  0  0  0  0  0  0
   30.1590   34.4590    8.7020 C   0  0  0  0  0  0  0  0  0  0  0  0
   29.7490   35.8330    8.2070 C   0  0  0  0  0  0  0  0  0  0  0  0
   29.0120   35.7390    6.9160 N   0  0  0  0  0  0  0  0  0  0  0  0
  1  2  1  0  0  0  0
  2  3  1  0  0  0  0
  4  3  1  0  0  0  0
  5  4  1  0  0  0  0
  6  5  1  0  0  0  0
M  END
>  <EGIN_R>
ES LYS A 135

>  <REMARK>
  4 active torsions:
  status: ('A' for Active; 'I' for Inactive)
    5  A    between atoms: CA   and  CB  
    6  A    between atoms: CB   and  CG  
    7  A    between atoms: CG   and  CD  
    8  A    between atoms: CD   and  CE  

$$$$
