ligand_75_pose_18_2HRL.pdbqt
 OpenBabel07062320523D

 55 56  0  0  1  0  0  0  0  0999 V2000
   23.4060   36.9180   10.3150 N   0  0  0  0  0  0  0  0  0  0  0  0
   24.2960   37.2620   11.3580 C   0  0  0  0  0  0  0  0  0  0  0  0
   24.8790   38.3650   11.4110 O   0  0  0  0  0  0  0  0  0  0  0  0
   22.9750   35.9320   10.3790 H   0  0  0  0  0  0  0  0  0  0  0  0
   23.0350   37.7490    9.2060 C   0  0  0  0  0  0  0  0  0  0  0  0
   23.7070   37.3020    7.9480 C   0  0  2  0  0  0  0  0  0  0  0  0
   25.0370   37.9810    7.6840 C   0  0  2  0  0  0  0  0  0  0  0  0
   26.1460   36.9940    7.6680 C   0  0  2  0  0  0  0  0  0  0  0  0
   27.6990   35.7130    8.7980 C   0  0  2  0  0  0  0  0  0  0  0  0
   27.9590   35.1830    7.4160 C   0  0  0  0  0  0  0  0  0  0  0  0
   26.6020   36.5490    8.8680 O   0  0  0  0  0  0  0  0  0  0  0  0
   28.0210   36.2050    6.3420 C   0  0  1  0  0  0  0  0  0  0  0  0
   27.3100   37.4570    6.7940 C   0  0  1  0  0  0  0  0  0  0  0  0
   28.8630   36.2990    9.2930 O   0  0  0  0  0  0  0  0  0  0  0  0
   29.6530   36.0840    8.7520 H   0  0  0  0  0  0  0  0  0  0  0  0
   27.4040   34.5390    9.6670 C   0  0  0  0  0  0  0  0  0  0  0  0
   26.3950   34.5790   10.4490 O   0  0  0  0  0  0  0  0  0  0  0  0
   28.1890   33.3950    9.6590 O   0  0  0  0  0  0  0  0  0  0  0  0
   28.5040   32.9450   10.4950 H   0  0  0  0  0  0  0  0  0  0  0  0
   29.3150   36.4760    5.9050 O   0  0  0  0  0  0  0  0  0  0  0  0
   29.2830   36.9320    5.0480 H   0  0  0  0  0  0  0  0  0  0  0  0
   26.8910   38.2850    5.7060 N   0  0  0  0  0  0  0  0  0  0  0  0
   27.7250   39.2830    5.1390 C   0  0  0  0  0  0  0  0  0  0  0  0
   25.9260   38.1820    5.2730 H   0  0  0  0  0  0  0  0  0  0  0  0
   27.2490   40.1130    4.0160 C   0  0  0  0  0  0  0  0  0  0  0  0
   28.8840   39.4800    5.5840 O   0  0  0  0  0  0  0  0  0  0  0  0
   25.2400   39.0800    8.5130 O   0  0  0  0  0  0  0  0  0  0  0  0
   24.4930   39.1200    9.1490 H   0  0  0  0  0  0  0  0  0  0  0  0
   22.8890   37.4820    6.8300 O   0  0  0  0  0  0  0  0  0  0  0  0
   22.5040   36.5980    6.5770 H   0  0  0  0  0  0  0  0  0  0  0  0
   24.5700   36.3570   12.4050 O   0  0  0  0  0  0  0  0  0  0  0  0
   25.5310   36.6950   13.3540 C   0  0  0  0  0  0  0  0  0  0  0  0
   26.2460   35.5150   13.8970 C   0  0  0  0  0  0  0  0  0  0  0  0
   27.5880   35.3030   14.1010 C   0  0  0  0  0  0  0  0  0  0  0  0
   25.6450   34.3840   14.3040 N   0  0  0  0  0  0  0  0  0  0  0  0
   27.7790   34.0650   14.6220 N   0  0  0  0  0  0  0  0  0  0  0  0
   26.5770   33.5310   14.7330 N   0  0  0  0  0  0  0  0  0  0  0  0
   29.0470   33.5010   14.9630 C   0  0  0  0  0  0  0  0  0  0  0  0
   30.2130   34.1800   14.7290 C   0  0  0  0  0  0  0  0  0  0  0  0
   29.1170   32.2520   15.5360 C   0  0  0  0  0  0  0  0  0  0  0  0
   31.4800   33.6250   15.0640 C   0  0  0  0  0  0  0  0  0  0  0  0
   30.2980   31.6650   15.8810 C   0  0  0  0  0  0  0  0  0  0  0  0
   31.4830   32.3790   15.6330 C   0  0  0  0  0  0  0  0  0  0  0  0
   32.6510   34.3970   14.8350 C   0  0  0  0  0  0  0  0  0  0  0  0
   33.1230   35.5450   15.1300 C   0  0  0  0  0  0  0  0  0  0  0  0
   32.6900   36.6620   15.8700 C   0  0  0  0  0  0  0  0  0  0  0  0
   32.1520   36.4430   17.0690 O   0  0  0  0  0  0  0  0  0  0  0  0
   32.7000   38.0080   15.6030 O   0  0  0  0  0  0  0  0  0  0  0  0
   32.4680   38.7140   16.2830 H   0  0  0  0  0  0  0  0  0  0  0  0
   29.8670   25.5550   16.9770 C   0  0  0  0  0  0  0  0  0  0  0  0
   28.3450   25.7220   17.0260 C   0  0  0  0  0  0  0  0  0  0  0  0
   27.6010   24.4040   16.8750 C   0  0  0  0  0  0  0  0  0  0  0  0
   26.6290   24.1710   17.9980 C   0  0  0  0  0  0  0  0  0  0  0  0
   26.0520   25.5060   18.4580 C   0  0  0  0  0  0  0  0  0  0  0  0
   24.6480   25.6480   18.0030 N   0  0  0  0  0  0  0  0  0  0  0  0
  1  4  1  0  0  0  0
  1  2  1  0  0  0  0
  2  3  2  0  0  0  0
  2 31  1  0  0  0  0
  5  1  1  0  0  0  0
  6  5  1  1  0  0  0
  7  6  1  0  0  0  0
  7 27  1  1  0  0  0
  8  7  1  1  0  0  0
  8 11  1  0  0  0  0
  9 11  1  0  0  0  0
  9 14  1  1  0  0  0
  9 16  1  0  0  0  0
 10  9  1  0  0  0  0
 12 20  1  1  0  0  0
 12 13  1  0  0  0  0
 12 10  1  0  0  0  0
 13 22  1  6  0  0  0
 13  8  1  0  0  0  0
 15 14  1  0  0  0  0
 16 17  2  0  0  0  0
 18 16  1  0  0  0  0
 18 19  1  0  0  0  0
 21 20  1  0  0  0  0
 23 26  2  0  0  0  0
 23 22  1  0  0  0  0
 24 22  1  0  0  0  0
 25 23  1  0  0  0  0
 27 28  1  0  0  0  0
 29  6  1  0  0  0  0
 30 29  1  0  0  0  0
 31 32  1  0  0  0  0
 32 33  1  0  0  0  0
 33 34  2  0  0  0  0
 33 35  1  0  0  0  0
 34 36  1  0  0  0  0
 35 37  2  0  0  0  0
 36 37  1  0  0  0  0
 36 38  1  0  0  0  0
 38 40  1  0  0  0  0
 39 38  2  0  0  0  0
 39 41  1  0  0  0  0
 40 42  2  0  0  0  0
 41 43  2  0  0  0  0
 43 42  1  0  0  0  0
 44 41  1  0  0  0  0
 44 45  2  0  0  0  0
 45 46  1  0  0  0  0
 46 47  2  0  0  0  0
 48 46  1  0  0  0  0
 48 49  1  0  0  0  0
 50 51  1  0  0  0  0
 52 51  1  0  0  0  0
 52 53  1  0  0  0  0
 53 54  1  0  0  0  0
 55 54  1  0  0  0  0
M  END
>  <REMARK>
 VINA RESULT:    -4.873      3.986      7.101
 INTER + INTRA:         -15.464
 INTER:                 -11.509
 INTRA:                  -3.955
 UNBOUND:                -6.317
 SMILES CC(=O)N[C@@H]1[C@@H](O)C[C@](O)(C(=O)O)O[C@H]1C(O)[C@H](O)CNC(=O)OCc1cn(-c2cccc(C=CC(=O)O)c2)nn1
 SMILES IDX 21 1 22 2 23 3 20 5 18 6 16 7 15 8 9 9 8 10 14 11 6 12 5 13
 SMILES IDX 10 14 11 16 12 17 13 18 7 20 4 22 2 23 1 25 3 26 17 27 19 29
 SMILES IDX 24 31 25 32 26 33 27 34 41 35 28 36 40 37 29 38 39 39 30 40
 SMILES IDX 33 41 31 42 32 43 34 44 35 45 36 46 37 47 38 48
 H PARENT 21 4 10 15 13 19 7 21 4 24 17 28 19 30 38 49
 Flexibility Score: inf
  4 active torsions:
  status: ('A' for Active; 'I' for Inactive)
    1  A    between atoms: CA   and  CB  
    2  A    between atoms: CB   and  CG  
    3  A    between atoms: CG   and  CD  
    4  A    between atoms: CD   and  CE  

>  <TORSDO>
F 18

>  <BEGIN_>
RES LYS A 131

$$$$
ligand_75_pose_18_2HRL.pdbqt
 OpenBabel07062320523D

  6  5  0  0  0  0  0  0  0  0999 V2000
   33.1930   34.6630    9.2900 C   0  0  0  0  0  0  0  0  0  0  0  0
   32.0600   35.3600   10.0340 C   0  0  0  0  0  0  0  0  0  0  0  0
   32.4810   35.9540   11.3530 C   0  0  0  0  0  0  0  0  0  0  0  0
   31.3060   36.6390   12.0330 C   0  0  0  0  0  0  0  0  0  0  0  0
   31.5230   38.1390   12.0880 C   0  0  0  0  0  0  0  0  0  0  0  0
   31.0880   38.7900   10.8210 N   0  0  0  0  0  0  0  0  0  0  0  0
  1  2  1  0  0  0  0
  2  3  1  0  0  0  0
  3  4  1  0  0  0  0
  4  5  1  0  0  0  0
  6  5  1  0  0  0  0
M  END
>  <EGIN_R>
ES LYS A 135

>  <REMARK>
  4 active torsions:
  status: ('A' for Active; 'I' for Inactive)
    5  A    between atoms: CA   and  CB  
    6  A    between atoms: CB   and  CG  
    7  A    between atoms: CG   and  CD  
    8  A    between atoms: CD   and  CE  

$$$$
