ligand_76_pose_15_2HRL.pdbqt
 OpenBabel07062320523D

 55 56  0  0  1  0  0  0  0  0999 V2000
   29.0450   34.1830    9.6140 O   0  0  0  0  0  0  0  0  0  0  0  0
   29.4190   34.6290    8.3590 C   0  0  0  0  0  0  0  0  0  0  0  0
   28.4830   35.2470    7.5040 N   0  0  0  0  0  0  0  0  0  0  0  0
   27.5050   35.3650    7.8270 H   0  0  0  0  0  0  0  0  0  0  0  0
   30.6010   34.4850    7.9700 O   0  0  0  0  0  0  0  0  0  0  0  0
   28.8360   35.7330    6.1780 C   0  0  0  0  0  0  0  0  0  0  0  0
   28.2780   37.1250    5.9450 C   0  0  2  0  0  0  0  0  0  0  0  0
   27.5750   37.5700    7.2170 C   0  0  1  0  0  0  0  0  0  0  0  0
   28.1980   38.8690    7.7370 C   0  0  2  0  0  0  0  0  0  0  0  0
   30.2920   38.4520    8.6820 C   0  0  2  0  0  0  0  0  0  0  0  0
   29.5590   37.9950    9.8940 C   0  0  0  0  0  0  0  0  0  0  0  0
   29.5440   38.9020    7.6530 O   0  0  0  0  0  0  0  0  0  0  0  0
   28.3920   38.8450   10.2530 C   0  0  1  0  0  0  0  0  0  0  0  0
   27.5750   39.2300    9.0490 C   0  0  1  0  0  0  0  0  0  0  0  0
   31.0520   37.3500    8.2200 O   0  0  0  0  0  0  0  0  0  0  0  0
   30.9370   37.2610    7.2400 H   0  0  0  0  0  0  0  0  0  0  0  0
   31.3020   39.4800    9.1210 C   0  0  0  0  0  0  0  0  0  0  0  0
   31.6290   40.4590    8.4100 O   0  0  0  0  0  0  0  0  0  0  0  0
   31.9310   39.3860   10.3660 O   0  0  0  0  0  0  0  0  0  0  0  0
   31.3950   39.0940   11.1950 H   0  0  0  0  0  0  0  0  0  0  0  0
   27.6150   38.1540   11.2120 O   0  0  0  0  0  0  0  0  0  0  0  0
   28.0250   37.2610   11.4130 H   0  0  0  0  0  0  0  0  0  0  0  0
   27.2250   40.6520    9.0760 N   0  0  0  0  0  0  0  0  0  0  0  0
   25.9650   41.1110    8.6670 C   0  0  0  0  0  0  0  0  0  0  0  0
   27.9810   41.3140    9.4220 H   0  0  0  0  0  0  0  0  0  0  0  0
   25.6590   42.5510    8.7100 C   0  0  0  0  0  0  0  0  0  0  0  0
   25.0980   40.3100    8.2650 O   0  0  0  0  0  0  0  0  0  0  0  0
   26.2770   37.9310    6.8150 O   0  0  0  0  0  0  0  0  0  0  0  0
   25.7960   37.1610    6.3870 H   0  0  0  0  0  0  0  0  0  0  0  0
   27.3820   37.1080    4.8840 O   0  0  0  0  0  0  0  0  0  0  0  0
   26.6180   36.5440    5.1540 H   0  0  0  0  0  0  0  0  0  0  0  0
   27.7340   33.6020    9.7120 C   0  0  0  0  0  0  0  0  0  0  0  0
   26.8120   34.5370   10.3910 C   0  0  0  0  0  0  0  0  0  0  0  0
   26.3520   34.5220   11.6870 C   0  0  0  0  0  0  0  0  0  0  0  0
   26.2540   35.6120    9.8060 N   0  0  0  0  0  0  0  0  0  0  0  0
   25.5360   35.5730   11.8540 N   0  0  0  0  0  0  0  0  0  0  0  0
   25.4890   36.2110   10.7270 N   0  0  0  0  0  0  0  0  0  0  0  0
   24.8060   35.9660   13.0800 C   0  0  0  0  0  0  0  0  0  0  0  0
   24.0100   34.7870   13.5480 C   0  0  2  0  0  0  0  0  0  0  0  0
   24.6140   34.1470   14.6390 O   0  0  0  0  0  0  0  0  0  0  0  0
   24.5700   33.1630   14.4630 H   0  0  0  0  0  0  0  0  0  0  0  0
   23.3820   33.9580   12.5440 C   0  0  0  0  0  0  0  0  0  0  0  0
   22.2130   33.1460   12.8990 C   0  0  0  0  0  0  0  0  0  0  0  0
   22.4030   31.7070   12.8170 C   0  0  0  0  0  0  0  0  0  0  0  0
   23.6890   31.1980   13.0360 C   0  0  0  0  0  0  0  0  0  0  0  0
   21.4500   30.7980   12.4760 C   0  0  0  0  0  0  0  0  0  0  0  0
   23.9530   29.8550   12.9080 C   0  0  0  0  0  0  0  0  0  0  0  0
   21.6960   29.4430   12.3430 C   0  0  0  0  0  0  0  0  0  0  0  0
   22.9690   28.9580   12.5620 C   0  0  0  0  0  0  0  0  0  0  0  0
   29.8670   25.5550   16.9770 C   0  0  0  0  0  0  0  0  0  0  0  0
   28.3450   25.7220   17.0260 C   0  0  0  0  0  0  0  0  0  0  0  0
   27.6030   24.3950   16.9760 C   0  0  0  0  0  0  0  0  0  0  0  0
   26.3560   24.4120   17.8150 C   0  0  0  0  0  0  0  0  0  0  0  0
   25.4780   23.2200   17.4470 C   0  0  0  0  0  0  0  0  0  0  0  0
   24.1230   23.6750   17.0540 N   0  0  0  0  0  0  0  0  0  0  0  0
  1 32  1  0  0  0  0
  2  1  1  0  0  0  0
  3  4  1  0  0  0  0
  3  2  1  0  0  0  0
  5  2  2  0  0  0  0
  6  3  1  0  0  0  0
  7  6  1  1  0  0  0
  7  8  1  0  0  0  0
  8 28  1  6  0  0  0
  9  8  1  1  0  0  0
  9 14  1  0  0  0  0
 10 15  1  6  0  0  0
 10 17  1  0  0  0  0
 10 11  1  0  0  0  0
 11 13  1  0  0  0  0
 12  9  1  0  0  0  0
 12 10  1  0  0  0  0
 13 21  1  1  0  0  0
 14 23  1  6  0  0  0
 14 13  1  0  0  0  0
 16 15  1  0  0  0  0
 17 19  1  0  0  0  0
 18 17  2  0  0  0  0
 19 20  1  0  0  0  0
 21 22  1  0  0  0  0
 23 25  1  0  0  0  0
 24 26  1  0  0  0  0
 24 23  1  0  0  0  0
 27 24  2  0  0  0  0
 29 28  1  0  0  0  0
 30 31  1  0  0  0  0
 30  7  1  0  0  0  0
 32 33  1  0  0  0  0
 33 34  2  0  0  0  0
 34 36  1  0  0  0  0
 35 33  1  0  0  0  0
 35 37  2  0  0  0  0
 36 38  1  0  0  0  0
 37 36  1  0  0  0  0
 38 39  1  0  0  0  0
 39 42  1  6  0  0  0
 39 40  1  0  0  0  0
 41 40  1  0  0  0  0
 42 43  1  0  0  0  0
 44 43  1  0  0  0  0
 44 45  2  0  0  0  0
 46 44  1  0  0  0  0
 47 45  1  0  0  0  0
 48 46  2  0  0  0  0
 48 49  1  0  0  0  0
 49 47  2  0  0  0  0
 50 51  1  0  0  0  0
 52 51  1  0  0  0  0
 52 53  1  0  0  0  0
 54 53  1  0  0  0  0
 55 54  1  0  0  0  0
M  END
>  <REMARK>
 VINA RESULT:    -4.761      3.297      6.906
 INTER + INTRA:         -16.264
 INTER:                 -11.370
 INTRA:                  -4.894
 UNBOUND:                -6.771
 SMILES CC(=O)N[C@@H]1[C@@H](O)C[C@](O)(C(=O)O)O[C@H]1C(O)[C@H](O)CNC(=O)OCc1cn(CC(O)CCc2ccccc2)nn1
 SMILES IDX 24 1 22 2 21 3 23 5 20 6 18 7 16 8 15 9 9 10 8 11 14 12 6 13
 SMILES IDX 5 14 10 15 11 17 12 18 13 19 7 21 4 23 2 24 1 26 3 27 17 28
 SMILES IDX 19 30 25 32 26 33 27 34 41 35 28 36 40 37 29 38 30 39 31 40
 SMILES IDX 32 42 33 43 34 44 35 45 39 46 36 47 38 48 37 49
 H PARENT 21 4 10 16 13 20 7 22 4 25 17 29 19 31 31 41
 Flexibility Score: inf
  4 active torsions:
  status: ('A' for Active; 'I' for Inactive)
    1  A    between atoms: CA   and  CB  
    2  A    between atoms: CB   and  CG  
    3  A    between atoms: CG   and  CD  
    4  A    between atoms: CD   and  CE  

>  <TORSDO>
F 20

>  <BEGIN_>
RES LYS A 131

$$$$
ligand_76_pose_15_2HRL.pdbqt
 OpenBabel07062320523D

  6  5  0  0  0  0  0  0  0  0999 V2000
   33.1930   34.6630    9.2900 C   0  0  0  0  0  0  0  0  0  0  0  0
   32.0600   35.3600   10.0340 C   0  0  0  0  0  0  0  0  0  0  0  0
   32.5030   36.0470   11.3000 C   0  0  0  0  0  0  0  0  0  0  0  0
   31.8910   35.3730   12.5180 C   0  0  0  0  0  0  0  0  0  0  0  0
   30.3840   35.5400   12.5180 C   0  0  0  0  0  0  0  0  0  0  0  0
   29.7170   34.3910   13.1920 N   0  0  0  0  0  0  0  0  0  0  0  0
  1  2  1  0  0  0  0
  2  3  1  0  0  0  0
  3  4  1  0  0  0  0
  4  5  1  0  0  0  0
  5  6  1  0  0  0  0
M  END
>  <EGIN_R>
ES LYS A 135

>  <REMARK>
  4 active torsions:
  status: ('A' for Active; 'I' for Inactive)
    5  A    between atoms: CA   and  CB  
    6  A    between atoms: CB   and  CG  
    7  A    between atoms: CG   and  CD  
    8  A    between atoms: CD   and  CE  

$$$$
