ligand_13_pose_11_2HRL.pdbqt
 OpenBabel07062320523D

 49 49  0  0  1  0  0  0  0  0999 V2000
   29.9160   30.7360   17.1940 N   0  0  0  0  0  0  0  0  0  0  0  0
   29.4870   30.8590   18.5350 C   0  0  0  0  0  0  0  0  0  0  0  0
   28.2930   30.8680   18.8530 O   0  0  0  0  0  0  0  0  0  0  0  0
   30.9840   30.7380   17.0850 H   0  0  0  0  0  0  0  0  0  0  0  0
   29.0820   30.6180   16.0430 C   0  0  0  0  0  0  0  0  0  0  0  0
   28.5710   31.8810   15.4400 C   0  0  2  0  0  0  0  0  0  0  0  0
   29.4900   33.0430   15.5740 C   0  0  1  0  0  0  0  0  0  0  0  0
   29.9020   33.7120   14.2910 C   0  0  2  0  0  0  0  0  0  0  0  0
   31.7040   35.1630   14.6270 C   0  0  2  0  0  0  0  0  0  0  0  0
   31.4070   36.0300   13.4240 C   0  0  0  0  0  0  0  0  0  0  0  0
   31.2800   33.8950   14.3780 O   0  0  0  0  0  0  0  0  0  0  0  0
   29.9940   35.8400   13.0120 C   0  0  1  0  0  0  0  0  0  0  0  0
   29.1790   34.9990   14.0090 C   0  0  1  0  0  0  0  0  0  0  0  0
   31.1470   35.7950   15.7240 O   0  0  0  0  0  0  0  0  0  0  0  0
   30.1880   35.9240   15.5410 H   0  0  0  0  0  0  0  0  0  0  0  0
   33.1770   35.1410   14.7750 C   0  0  0  0  0  0  0  0  0  0  0  0
   33.8720   34.7870   13.7990 O   0  0  0  0  0  0  0  0  0  0  0  0
   33.7910   35.4990   15.9490 O   0  0  0  0  0  0  0  0  0  0  0  0
   34.2310   36.4110   16.0760 H   0  0  0  0  0  0  0  0  0  0  0  0
   29.3130   37.0320   12.7820 O   0  0  0  0  0  0  0  0  0  0  0  0
   29.8930   37.8180   12.7360 H   0  0  0  0  0  0  0  0  0  0  0  0
   27.9240   34.7700   13.3260 N   0  0  0  0  0  0  0  0  0  0  0  0
   26.6540   34.7870   13.9290 C   0  0  0  0  0  0  0  0  0  0  0  0
   27.9710   34.5780   12.3010 H   0  0  0  0  0  0  0  0  0  0  0  0
   25.3790   34.5500   13.2090 C   0  0  0  0  0  0  0  0  0  0  0  0
   26.6110   35.0220   15.1760 O   0  0  0  0  0  0  0  0  0  0  0  0
   29.0440   33.9320   16.5210 O   0  0  0  0  0  0  0  0  0  0  0  0
   28.9060   34.8540   16.1870 H   0  0  0  0  0  0  0  0  0  0  0  0
   27.3900   32.2390   16.1230 O   0  0  0  0  0  0  0  0  0  0  0  0
   27.3590   33.2310   16.2650 H   0  0  0  0  0  0  0  0  0  0  0  0
   30.4260   30.9780   19.5840 O   0  0  0  0  0  0  0  0  0  0  0  0
   30.3620   32.0530   20.5010 C   0  0  0  0  0  0  0  0  0  0  0  0
   30.7690   33.2750   19.7580 C   0  0  0  0  0  0  0  0  0  0  0  0
   30.5780   34.5890   20.1160 C   0  0  0  0  0  0  0  0  0  0  0  0
   31.4200   33.3340   18.5630 N   0  0  0  0  0  0  0  0  0  0  0  0
   31.1150   35.3650   19.1330 N   0  0  0  0  0  0  0  0  0  0  0  0
   31.6180   34.5700   18.2050 N   0  0  0  0  0  0  0  0  0  0  0  0
   31.1530   36.8070   19.0700 C   0  0  0  0  0  0  0  0  0  0  0  0
   32.4790   37.2820   18.6440 C   0  0  0  0  0  0  0  0  0  0  0  0
   32.6160   37.7640   17.4990 O   0  0  0  0  0  0  0  0  0  0  0  0
   33.5420   37.1740   19.5410 O   0  0  0  0  0  0  0  0  0  0  0  0
   34.8170   36.8860   18.9580 C   0  0  0  0  0  0  0  0  0  0  0  0
   35.3280   35.6090   19.5730 C   0  0  0  0  0  0  0  0  0  0  0  0
   29.8670   25.5550   16.9770 C   0  0  0  0  0  0  0  0  0  0  0  0
   28.3450   25.7220   17.0260 C   0  0  0  0  0  0  0  0  0  0  0  0
   27.6010   24.4010   16.8970 C   0  0  0  0  0  0  0  0  0  0  0  0
   26.5140   24.2610   17.9270 C   0  0  0  0  0  0  0  0  0  0  0  0
   25.1870   24.7210   17.3310 C   0  0  0  0  0  0  0  0  0  0  0  0
   24.5590   25.7480   18.1950 N   0  0  0  0  0  0  0  0  0  0  0  0
  1  2  1  0  0  0  0
  2  3  2  0  0  0  0
  2 31  1  0  0  0  0
  4  1  1  0  0  0  0
  5  1  1  0  0  0  0
  6  7  1  0  0  0  0
  6  5  1  1  0  0  0
  6 29  1  0  0  0  0
  7 27  1  1  0  0  0
  8 11  1  0  0  0  0
  8  7  1  1  0  0  0
  9 16  1  1  0  0  0
  9 14  1  0  0  0  0
 10  9  1  0  0  0  0
 11  9  1  0  0  0  0
 12 20  1  1  0  0  0
 12 10  1  0  0  0  0
 12 13  1  0  0  0  0
 13 22  1  6  0  0  0
 13  8  1  0  0  0  0
 15 14  1  0  0  0  0
 16 18  1  0  0  0  0
 17 16  2  0  0  0  0
 18 19  1  0  0  0  0
 21 20  1  0  0  0  0
 22 23  1  0  0  0  0
 23 26  2  0  0  0  0
 24 22  1  0  0  0  0
 25 23  1  0  0  0  0
 28 27  1  0  0  0  0
 29 30  1  0  0  0  0
 31 32  1  0  0  0  0
 33 34  2  0  0  0  0
 33 32  1  0  0  0  0
 35 33  1  0  0  0  0
 36 34  1  0  0  0  0
 37 35  2  0  0  0  0
 37 36  1  0  0  0  0
 38 36  1  0  0  0  0
 39 38  1  0  0  0  0
 39 41  1  0  0  0  0
 40 39  2  0  0  0  0
 42 41  1  0  0  0  0
 42 43  1  0  0  0  0
 44 45  1  0  0  0  0
 46 45  1  0  0  0  0
 46 47  1  0  0  0  0
 48 47  1  0  0  0  0
 48 49  1  0  0  0  0
M  END
>  <REMARK>
 VINA RESULT:    -4.114      3.403      5.529
 INTER + INTRA:         -13.790
 INTER:                  -5.912
 INTRA:                  -7.878
 UNBOUND:                -5.949
 SMILES CCOC(=O)Cn1cc(COC(=O)NC[C@@H](O)C(O)[C@@H]2O[C@@](O)(C(=O)O)C[C@H](O)[C@H]2NC(C)=O)nn1
 SMILES IDX 14 1 12 2 13 3 15 5 16 6 18 7 20 8 22 9 27 10 21 11 28 12
 SMILES IDX 30 13 23 14 24 16 25 17 26 18 29 20 31 22 32 23 33 25 34 26
 SMILES IDX 19 27 17 29 11 31 10 32 9 33 8 34 35 35 7 36 36 37 6 38 4 39
 SMILES IDX 5 40 3 41 2 42 1 43
 H PARENT 14 4 23 15 26 19 29 21 31 24 19 28 17 30
 Flexibility Score: inf
  4 active torsions:
  status: ('A' for Active; 'I' for Inactive)
    1  A    between atoms: CA   and  CB  
    2  A    between atoms: CB   and  CG  
    3  A    between atoms: CG   and  CD  
    4  A    between atoms: CD   and  CE  

>  <TORSDO>
F 18

>  <BEGIN_>
RES LYS A 131

$$$$
ligand_13_pose_11_2HRL.pdbqt
 OpenBabel07062320523D

  6  5  0  0  0  0  0  0  0  0999 V2000
   33.1930   34.6630    9.2900 C   0  0  0  0  0  0  0  0  0  0  0  0
   32.0600   35.3600   10.0340 C   0  0  0  0  0  0  0  0  0  0  0  0
   30.7080   34.7390    9.7920 C   0  0  0  0  0  0  0  0  0  0  0  0
   30.4670   34.5420    8.3030 C   0  0  0  0  0  0  0  0  0  0  0  0
   29.0200   34.8360    7.9550 C   0  0  0  0  0  0  0  0  0  0  0  0
   28.9170   35.5550    6.6550 N   0  0  0  0  0  0  0  0  0  0  0  0
  1  2  1  0  0  0  0
  3  2  1  0  0  0  0
  4  3  1  0  0  0  0
  5  4  1  0  0  0  0
  6  5  1  0  0  0  0
M  END
>  <EGIN_R>
ES LYS A 135

>  <REMARK>
  4 active torsions:
  status: ('A' for Active; 'I' for Inactive)
    5  A    between atoms: CA   and  CB  
    6  A    between atoms: CB   and  CG  
    7  A    between atoms: CG   and  CD  
    8  A    between atoms: CD   and  CE  

$$$$
