ligand_79_pose_6_2HRL.pdbqt
 OpenBabel07062320523D

 58 60  0  0  1  0  0  0  0  0999 V2000
   24.0950   34.9740   13.9320 N   0  0  0  0  0  0  0  0  0  0  0  0
   24.6000   33.6620   13.7710 C   0  0  0  0  0  0  0  0  0  0  0  0
   25.0110   33.2660   12.6780 O   0  0  0  0  0  0  0  0  0  0  0  0
   23.7710   35.2160   14.9290 H   0  0  0  0  0  0  0  0  0  0  0  0
   23.9870   35.9710   12.9030 C   0  0  0  0  0  0  0  0  0  0  0  0
   22.6170   36.4610   12.6150 C   0  0  2  0  0  0  0  0  0  0  0  0
   21.9390   35.7330   11.4640 C   0  0  1  0  0  0  0  0  0  0  0  0
   21.6170   36.6690   10.3270 C   0  0  2  0  0  0  0  0  0  0  0  0
   20.0950   35.8740    8.7710 C   0  0  2  0  0  0  0  0  0  0  0  0
   20.8350   36.4400    7.5790 C   0  0  0  0  0  0  0  0  0  0  0  0
   20.3140   36.6210    9.9220 O   0  0  0  0  0  0  0  0  0  0  0  0
   22.0160   37.2870    8.0100 C   0  0  1  0  0  0  0  0  0  0  0  0
   22.6280   36.5570    9.2070 C   0  0  1  0  0  0  0  0  0  0  0  0
   20.3820   34.5280    8.9900 O   0  0  0  0  0  0  0  0  0  0  0  0
   19.6010   34.0600    9.4030 H   0  0  0  0  0  0  0  0  0  0  0  0
   18.6420   35.9620    8.4630 C   0  0  0  0  0  0  0  0  0  0  0  0
   17.9300   36.8320    9.0580 O   0  0  0  0  0  0  0  0  0  0  0  0
   18.0090   35.1450    7.5560 O   0  0  0  0  0  0  0  0  0  0  0  0
   18.3020   35.0520    6.5920 H   0  0  0  0  0  0  0  0  0  0  0  0
   22.9340   37.4630    7.0020 O   0  0  0  0  0  0  0  0  0  0  0  0
   23.1090   38.4540    6.9140 H   0  0  0  0  0  0  0  0  0  0  0  0
   23.8710   37.1550    9.6110 N   0  0  0  0  0  0  0  0  0  0  0  0
   25.1220   36.4460    9.5280 C   0  0  0  0  0  0  0  0  0  0  0  0
   23.9470   38.1320    9.9870 H   0  0  0  0  0  0  0  0  0  0  0  0
   26.4070   37.0190    9.9280 C   0  0  0  0  0  0  0  0  0  0  0  0
   25.0600   35.2590    9.0750 O   0  0  0  0  0  0  0  0  0  0  0  0
   22.8620   34.7750   11.0350 O   0  0  0  0  0  0  0  0  0  0  0  0
   23.6120   35.1610   10.5450 H   0  0  0  0  0  0  0  0  0  0  0  0
   22.6320   37.8000   12.2770 O   0  0  0  0  0  0  0  0  0  0  0  0
   22.9660   37.8720   11.3460 H   0  0  0  0  0  0  0  0  0  0  0  0
   24.6570   32.7560   14.8330 O   0  0  0  0  0  0  0  0  0  0  0  0
   25.1290   31.4550   14.6420 C   0  0  0  0  0  0  0  0  0  0  0  0
   26.0770   31.0820   15.7230 C   0  0  0  0  0  0  0  0  0  0  0  0
   26.7400   31.9600   16.5670 C   0  0  0  0  0  0  0  0  0  0  0  0
   26.4890   29.8590   16.1140 N   0  0  0  0  0  0  0  0  0  0  0  0
   27.5130   31.2600   17.4200 N   0  0  0  0  0  0  0  0  0  0  0  0
   27.3380   29.9850   17.1180 N   0  0  0  0  0  0  0  0  0  0  0  0
   28.3760   31.8260   18.4740 C   0  0  0  0  0  0  0  0  0  0  0  0
   28.0310   33.2620   18.6700 C   0  0  0  0  0  0  0  0  0  0  0  0
   28.0070   31.0010   19.7220 C   0  0  0  0  0  0  0  0  0  0  0  0
   29.7600   31.5260   18.1140 C   0  0  0  0  0  0  0  0  0  0  0  0
   30.4820   30.7670   18.8500 O   0  0  0  0  0  0  0  0  0  0  0  0
   30.4490   32.0350   16.9330 C   0  0  0  0  0  0  0  0  0  0  0  0
   30.4340   31.4270   15.6780 C   0  0  0  0  0  0  0  0  0  0  0  0
   31.2280   33.1610   16.8910 C   0  0  0  0  0  0  0  0  0  0  0  0
   31.1980   32.1810   14.8910 N   0  0  0  0  0  0  0  0  0  0  0  0
   31.6960   33.2330   15.5750 C   0  0  0  0  0  0  0  0  0  0  0  0
   31.5910   34.1410   17.8110 C   0  0  0  0  0  0  0  0  0  0  0  0
   31.3920   32.0020   13.8950 H   0  0  0  0  0  0  0  0  0  0  0  0
   32.5150   34.2900   15.2330 C   0  0  0  0  0  0  0  0  0  0  0  0
   32.4030   35.1710   17.4370 C   0  0  0  0  0  0  0  0  0  0  0  0
   32.8630   35.2460   16.1560 C   0  0  0  0  0  0  0  0  0  0  0  0
   29.8670   25.5550   16.9770 C   0  0  0  0  0  0  0  0  0  0  0  0
   28.3450   25.7220   17.0260 C   0  0  0  0  0  0  0  0  0  0  0  0
   27.6010   24.4010   16.9060 C   0  0  0  0  0  0  0  0  0  0  0  0
   26.5240   24.2600   17.9450 C   0  0  0  0  0  0  0  0  0  0  0  0
   25.1960   23.9480   17.2630 C   0  0  0  0  0  0  0  0  0  0  0  0
   24.1340   24.8570   17.7530 N   0  0  0  0  0  0  0  0  0  0  0  0
  1  4  1  0  0  0  0
  2  1  1  0  0  0  0
  2 31  1  0  0  0  0
  3  2  2  0  0  0  0
  5  1  1  0  0  0  0
  6  5  1  6  0  0  0
  7 27  1  6  0  0  0
  7  6  1  0  0  0  0
  8  7  1  1  0  0  0
  9 16  1  6  0  0  0
  9 14  1  0  0  0  0
  9 11  1  0  0  0  0
 10 12  1  0  0  0  0
 10  9  1  0  0  0  0
 11  8  1  0  0  0  0
 12 20  1  6  0  0  0
 12 13  1  0  0  0  0
 13 22  1  1  0  0  0
 13  8  1  0  0  0  0
 14 15  1  0  0  0  0
 16 17  2  0  0  0  0
 18 16  1  0  0  0  0
 19 18  1  0  0  0  0
 21 20  1  0  0  0  0
 22 24  1  0  0  0  0
 23 22  1  0  0  0  0
 23 25  1  0  0  0  0
 26 23  2  0  0  0  0
 28 27  1  0  0  0  0
 29  6  1  0  0  0  0
 30 29  1  0  0  0  0
 32 31  1  0  0  0  0
 32 33  1  0  0  0  0
 33 35  1  0  0  0  0
 33 34  2  0  0  0  0
 34 36  1  0  0  0  0
 35 37  2  0  0  0  0
 36 38  1  0  0  0  0
 37 36  1  0  0  0  0
 38 39  1  0  0  0  0
 38 40  1  0  0  0  0
 41 38  1  0  0  0  0
 41 42  2  0  0  0  0
 43 41  1  0  0  0  0
 44 43  2  0  0  0  0
 45 43  1  0  0  0  0
 45 48  2  0  0  0  0
 46 47  1  0  0  0  0
 46 44  1  0  0  0  0
 47 45  1  0  0  0  0
 49 46  1  0  0  0  0
 50 47  2  0  0  0  0
 50 52  1  0  0  0  0
 51 48  1  0  0  0  0
 52 51  2  0  0  0  0
 53 54  1  0  0  0  0
 55 54  1  0  0  0  0
 55 56  1  0  0  0  0
 57 58  1  0  0  0  0
 57 56  1  0  0  0  0
M  END
>  <REMARK>
 VINA RESULT:    -6.238      3.217      5.578
 INTER + INTRA:         -16.303
 INTER:                 -10.430
 INTRA:                  -5.873
 UNBOUND:                -4.777
 SMILES CC(=O)N[C@@H]1[C@@H](O)C[C@](O)(C(=O)O)O[C@H]1C(O)[C@H](O)CNC(=O)OCc1cn(C(C)(C)C(=O)c2c[nH]c3ccccc23)nn1
 SMILES IDX 21 1 22 2 23 3 20 5 18 6 16 7 15 8 9 9 8 10 14 11 6 12 5 13
 SMILES IDX 10 14 11 16 12 17 13 18 7 20 4 22 2 23 1 25 3 26 17 27 19 29
 SMILES IDX 24 31 25 32 26 33 27 34 44 35 28 36 43 37 29 38 30 39 31 40
 SMILES IDX 32 41 33 42 34 43 35 44 42 45 36 46 37 47 41 48 38 50 40 51
 SMILES IDX 39 52
 H PARENT 21 4 10 15 13 19 7 21 4 24 17 28 19 30 36 49
 Flexibility Score: inf
  4 active torsions:
  status: ('A' for Active; 'I' for Inactive)
    1  A    between atoms: CA   and  CB  
    2  A    between atoms: CB   and  CG  
    3  A    between atoms: CG   and  CD  
    4  A    between atoms: CD   and  CE  

>  <TORSDO>
F 17

>  <BEGIN_>
RES LYS A 131

$$$$
ligand_79_pose_6_2HRL.pdbqt
 OpenBabel07062320523D

  6  5  0  0  0  0  0  0  0  0999 V2000
   33.1930   34.6630    9.2900 C   0  0  0  0  0  0  0  0  0  0  0  0
   32.0600   35.3600   10.0340 C   0  0  0  0  0  0  0  0  0  0  0  0
   30.7900   35.4700    9.2310 C   0  0  0  0  0  0  0  0  0  0  0  0
   30.1680   34.0980    9.0190 C   0  0  0  0  0  0  0  0  0  0  0  0
   28.6590   34.2070    8.9120 C   0  0  0  0  0  0  0  0  0  0  0  0
   28.2620   34.9670    7.6950 N   0  0  0  0  0  0  0  0  0  0  0  0
  1  2  1  0  0  0  0
  3  2  1  0  0  0  0
  4  3  1  0  0  0  0
  5  4  1  0  0  0  0
  6  5  1  0  0  0  0
M  END
>  <EGIN_R>
ES LYS A 135

>  <REMARK>
  4 active torsions:
  status: ('A' for Active; 'I' for Inactive)
    5  A    between atoms: CA   and  CB  
    6  A    between atoms: CB   and  CG  
    7  A    between atoms: CG   and  CD  
    8  A    between atoms: CD   and  CE  

$$$$
