ligand_4_pose_19_2HRL.pdbqt
 OpenBabel07062320523D

 52 53  0  0  1  0  0  0  0  0999 V2000
   24.3680   36.3470   10.4060 N   0  0  0  0  0  0  0  0  0  0  0  0
   25.5410   36.4280   11.1820 C   0  0  0  0  0  0  0  0  0  0  0  0
   26.2550   37.4510   11.1710 O   0  0  0  0  0  0  0  0  0  0  0  0
   23.7970   35.4610   10.4650 H   0  0  0  0  0  0  0  0  0  0  0  0
   23.9360   37.4070    9.5630 C   0  0  0  0  0  0  0  0  0  0  0  0
   23.9430   37.0730    8.0720 C   0  0  2  0  0  0  0  0  0  0  0  0
   25.2180   37.7550    7.5680 C   0  0  2  0  0  0  0  0  0  0  0  0
   26.2580   36.7850    7.1080 C   0  0  2  0  0  0  0  0  0  0  0  0
   28.0110   35.8290    8.2870 C   0  0  2  0  0  0  0  0  0  0  0  0
   28.8790   35.8170    7.0790 C   0  0  0  0  0  0  0  0  0  0  0  0
   26.6680   35.9840    8.1190 O   0  0  0  0  0  0  0  0  0  0  0  0
   28.4660   36.7550    5.9660 C   0  0  1  0  0  0  0  0  0  0  0  0
   27.3840   37.6280    6.5290 C   0  0  1  0  0  0  0  0  0  0  0  0
   28.5270   36.7530    9.2330 O   0  0  0  0  0  0  0  0  0  0  0  0
   27.8360   37.2170    9.7390 H   0  0  0  0  0  0  0  0  0  0  0  0
   28.1750   34.4770    8.9360 C   0  0  0  0  0  0  0  0  0  0  0  0
   27.1500   33.8890    9.3430 O   0  0  0  0  0  0  0  0  0  0  0  0
   29.4070   33.8570    9.0910 O   0  0  0  0  0  0  0  0  0  0  0  0
   30.2610   34.1480    8.6190 H   0  0  0  0  0  0  0  0  0  0  0  0
   29.5940   37.5700    5.6380 O   0  0  0  0  0  0  0  0  0  0  0  0
   30.3920   37.0140    5.4750 H   0  0  0  0  0  0  0  0  0  0  0  0
   26.8690   38.6700    5.7300 N   0  0  0  0  0  0  0  0  0  0  0  0
   27.3430   40.0050    5.7210 C   0  0  0  0  0  0  0  0  0  0  0  0
   26.0470   38.4610    5.0660 H   0  0  0  0  0  0  0  0  0  0  0  0
   26.7920   41.0750    4.8820 C   0  0  0  0  0  0  0  0  0  0  0  0
   28.3310   40.2490    6.5370 O   0  0  0  0  0  0  0  0  0  0  0  0
   25.6400   38.5540    8.6350 O   0  0  0  0  0  0  0  0  0  0  0  0
   25.9500   39.4160    8.2480 H   0  0  0  0  0  0  0  0  0  0  0  0
   22.8660   37.5380    7.3910 O   0  0  0  0  0  0  0  0  0  0  0  0
   22.9150   37.4150    6.4460 H   0  0  0  0  0  0  0  0  0  0  0  0
   25.9390   35.3610   11.9890 O   0  0  0  0  0  0  0  0  0  0  0  0
   25.0850   34.9970   13.0640 C   0  0  0  0  0  0  0  0  0  0  0  0
   25.9700   34.3710   14.0780 C   0  0  0  0  0  0  0  0  0  0  0  0
   27.3630   34.2870   13.9500 C   0  0  0  0  0  0  0  0  0  0  0  0
   25.6590   33.8940   15.2930 N   0  0  0  0  0  0  0  0  0  0  0  0
   27.7980   33.7680   15.1130 N   0  0  0  0  0  0  0  0  0  0  0  0
   26.7890   33.5580   15.8570 N   0  0  0  0  0  0  0  0  0  0  0  0
   29.1660   33.6400   15.4520 C   0  0  0  0  0  0  0  0  0  0  0  0
   29.8810   34.7140   15.8190 C   0  0  0  0  0  0  0  0  0  0  0  0
   29.8010   32.4090   15.2290 C   0  0  0  0  0  0  0  0  0  0  0  0
   31.2610   34.5900   15.9770 C   0  0  0  0  0  0  0  0  0  0  0  0
   31.1320   32.2710   15.3770 C   0  0  0  0  0  0  0  0  0  0  0  0
   31.9000   33.3630   15.7550 C   0  0  0  0  0  0  0  0  0  0  0  0
   29.2360   35.9590   16.1860 C   0  0  0  0  0  0  0  0  0  0  0  0
   30.1960   37.1390   16.1860 C   0  0  0  0  0  0  0  0  0  0  0  0
   28.9780   35.8390   17.7540 C   0  0  0  0  0  0  0  0  0  0  0  0
   29.8670   25.5550   16.9770 C   0  0  0  0  0  0  0  0  0  0  0  0
   28.3450   25.7220   17.0260 C   0  0  0  0  0  0  0  0  0  0  0  0
   27.6010   24.4020   16.8950 C   0  0  0  0  0  0  0  0  0  0  0  0
   26.6270   24.1860   18.0200 C   0  0  0  0  0  0  0  0  0  0  0  0
   25.2530   23.8560   17.4470 C   0  0  0  0  0  0  0  0  0  0  0  0
   24.9960   22.3980   17.5230 N   0  0  0  0  0  0  0  0  0  0  0  0
  1  4  1  0  0  0  0
  1  2  1  0  0  0  0
  2 31  1  0  0  0  0
  3  2  2  0  0  0  0
  5  1  1  0  0  0  0
  6  5  1  1  0  0  0
  7  6  1  0  0  0  0
  7 27  1  1  0  0  0
  8  7  1  1  0  0  0
  8 11  1  0  0  0  0
  9 16  1  1  0  0  0
  9 14  1  0  0  0  0
 10  9  1  0  0  0  0
 11  9  1  0  0  0  0
 12 20  1  1  0  0  0
 12 13  1  0  0  0  0
 12 10  1  0  0  0  0
 13 22  1  6  0  0  0
 13  8  1  0  0  0  0
 14 15  1  0  0  0  0
 16 18  1  0  0  0  0
 16 17  2  0  0  0  0
 19 18  1  0  0  0  0
 21 20  1  0  0  0  0
 23 22  1  0  0  0  0
 23 26  2  0  0  0  0
 24 22  1  0  0  0  0
 25 23  1  0  0  0  0
 28 27  1  0  0  0  0
 29  6  1  0  0  0  0
 30 29  1  0  0  0  0
 31 32  1  0  0  0  0
 32 33  1  0  0  0  0
 33 35  1  0  0  0  0
 34 33  2  0  0  0  0
 34 36  1  0  0  0  0
 35 37  2  0  0  0  0
 36 38  1  0  0  0  0
 36 37  1  0  0  0  0
 38 39  2  0  0  0  0
 39 41  1  0  0  0  0
 39 44  1  0  0  0  0
 40 42  2  0  0  0  0
 40 38  1  0  0  0  0
 42 43  1  0  0  0  0
 43 41  2  0  0  0  0
 44 45  1  0  0  0  0
 44 46  1  0  0  0  0
 47 48  1  0  0  0  0
 49 48  1  0  0  0  0
 49 50  1  0  0  0  0
 51 52  1  0  0  0  0
 51 50  1  0  0  0  0
M  END
>  <REMARK>
 VINA RESULT:    -3.964      2.583      4.412
 INTER + INTRA:         -14.329
 INTER:                  -9.859
 INTRA:                  -4.470
 UNBOUND:                -7.237
 SMILES CC(=O)N[C@@H]1[C@@H](O)C[C@](O)(C(=O)O)O[C@H]1C(O)[C@H](O)CNC(=O)OCc1cn(-c2ccccc2C(C)C)nn1
 SMILES IDX 21 1 22 2 23 3 20 5 18 6 16 7 15 8 9 9 8 10 14 11 6 12 5 13
 SMILES IDX 10 14 11 16 12 17 13 18 7 20 4 22 2 23 1 25 3 26 17 27 19 29
 SMILES IDX 24 31 25 32 26 33 27 34 39 35 28 36 38 37 29 38 34 39 30 40
 SMILES IDX 33 41 31 42 32 43 35 44 36 45 37 46
 H PARENT 21 4 10 15 13 19 7 21 4 24 17 28 19 30
 Flexibility Score: inf
  4 active torsions:
  status: ('A' for Active; 'I' for Inactive)
    1  A    between atoms: CA   and  CB  
    2  A    between atoms: CB   and  CG  
    3  A    between atoms: CG   and  CD  
    4  A    between atoms: CD   and  CE  

>  <TORSDO>
F 16

>  <BEGIN_>
RES LYS A 131

$$$$
ligand_4_pose_19_2HRL.pdbqt
 OpenBabel07062320523D

  6  5  0  0  0  0  0  0  0  0999 V2000
   33.1930   34.6630    9.2900 C   0  0  0  0  0  0  0  0  0  0  0  0
   32.0600   35.3600   10.0340 C   0  0  0  0  0  0  0  0  0  0  0  0
   32.4200   35.7600   11.4410 C   0  0  0  0  0  0  0  0  0  0  0  0
   31.1910   35.7360   12.3370 C   0  0  0  0  0  0  0  0  0  0  0  0
   30.6120   37.1300   12.4840 C   0  0  0  0  0  0  0  0  0  0  0  0
   29.1370   37.0800   12.6810 N   0  0  0  0  0  0  0  0  0  0  0  0
  1  2  1  0  0  0  0
  2  3  1  0  0  0  0
  3  4  1  0  0  0  0
  4  5  1  0  0  0  0
  5  6  1  0  0  0  0
M  END
>  <EGIN_R>
ES LYS A 135

>  <REMARK>
  4 active torsions:
  status: ('A' for Active; 'I' for Inactive)
    5  A    between atoms: CA   and  CB  
    6  A    between atoms: CB   and  CG  
    7  A    between atoms: CG   and  CD  
    8  A    between atoms: CD   and  CE  

$$$$
