ligand_21_pose_14_2HRL.pdbqt
 OpenBabel07062320523D

 54 55  0  0  1  0  0  0  0  0999 V2000
   26.3150   30.9260   18.4230 N   0  0  0  0  0  0  0  0  0  0  0  0
   26.3450   32.3150   18.0970 C   0  0  0  0  0  0  0  0  0  0  0  0
   26.7800   33.1130   18.9540 O   0  0  0  0  0  0  0  0  0  0  0  0
   25.9510   30.2720   17.7040 H   0  0  0  0  0  0  0  0  0  0  0  0
   26.7690   30.4580   19.7050 C   0  0  0  0  0  0  0  0  0  0  0  0
   27.9540   29.5130   19.4760 C   0  0  2  0  0  0  0  0  0  0  0  0
   29.2330   30.2930   19.6080 C   0  0  2  0  0  0  0  0  0  0  0  0
   30.1770   29.5430   20.5080 C   0  0  2  0  0  0  0  0  0  0  0  0
   30.3270   27.5810   21.7470 C   0  0  2  0  0  0  0  0  0  0  0  0
   30.2820   28.3390   23.0530 C   0  0  0  0  0  0  0  0  0  0  0  0
   29.6280   28.3410   20.8250 O   0  0  0  0  0  0  0  0  0  0  0  0
   31.0090   29.6280   22.8750 C   0  0  1  0  0  0  0  0  0  0  0  0
   30.5890   30.3980   21.6530 C   0  0  1  0  0  0  0  0  0  0  0  0
   29.5550   26.4190   21.9610 O   0  0  0  0  0  0  0  0  0  0  0  0
   30.0040   25.7920   22.5720 H   0  0  0  0  0  0  0  0  0  0  0  0
   31.6920   27.2160   21.3190 C   0  0  0  0  0  0  0  0  0  0  0  0
   32.6470   27.0180   22.1080 O   0  0  0  0  0  0  0  0  0  0  0  0
   31.9590   27.0780   19.9700 O   0  0  0  0  0  0  0  0  0  0  0  0
   31.3050   26.6630   19.3010 H   0  0  0  0  0  0  0  0  0  0  0  0
   30.7770   30.3970   24.0370 O   0  0  0  0  0  0  0  0  0  0  0  0
   31.2610   29.9620   24.8000 H   0  0  0  0  0  0  0  0  0  0  0  0
   31.7060   31.2240   21.2360 N   0  0  0  0  0  0  0  0  0  0  0  0
   31.8870   32.5550   21.7190 C   0  0  0  0  0  0  0  0  0  0  0  0
   32.4140   30.8590   20.5640 H   0  0  0  0  0  0  0  0  0  0  0  0
   33.0450   33.3540   21.2590 C   0  0  0  0  0  0  0  0  0  0  0  0
   31.0640   33.0370   22.5270 O   0  0  0  0  0  0  0  0  0  0  0  0
   29.0060   31.5800   20.1120 O   0  0  0  0  0  0  0  0  0  0  0  0
   28.1460   31.9080   19.7590 H   0  0  0  0  0  0  0  0  0  0  0  0
   27.7750   28.9290   18.2420 O   0  0  0  0  0  0  0  0  0  0  0  0
   28.3730   28.1720   18.0670 H   0  0  0  0  0  0  0  0  0  0  0  0
   25.9020   32.7440   16.8570 O   0  0  0  0  0  0  0  0  0  0  0  0
   26.2310   32.0610   15.6700 C   0  0  0  0  0  0  0  0  0  0  0  0
   27.6550   31.6950   15.7100 C   0  0  0  0  0  0  0  0  0  0  0  0
   28.7390   32.5420   15.4630 C   0  0  0  0  0  0  0  0  0  0  0  0
   28.2140   30.4890   15.9850 N   0  0  0  0  0  0  0  0  0  0  0  0
   29.8470   31.8240   15.5990 N   0  0  0  0  0  0  0  0  0  0  0  0
   29.5270   30.5820   15.9150 N   0  0  0  0  0  0  0  0  0  0  0  0
   31.2010   32.3120   15.4340 C   0  0  0  0  0  0  0  0  0  0  0  0
   31.2980   33.5580   16.2670 C   0  0  0  0  0  0  0  0  0  0  0  0
   31.4070   34.7650   15.6260 C   0  0  0  0  0  0  0  0  0  0  0  0
   31.2780   33.4660   17.6350 C   0  0  0  0  0  0  0  0  0  0  0  0
   31.5000   35.9300   16.3430 C   0  0  0  0  0  0  0  0  0  0  0  0
   31.3720   34.6470   18.3790 C   0  0  0  0  0  0  0  0  0  0  0  0
   31.4800   35.8410   17.7190 C   0  0  0  0  0  0  0  0  0  0  0  0
   31.4230   34.8160   14.2400 O   0  0  0  0  0  0  0  0  0  0  0  0
   32.5940   35.2600   13.6270 C   0  0  0  0  0  0  0  0  0  0  0  0
   32.5280   36.1300   12.7280 O   0  0  0  0  0  0  0  0  0  0  0  0
   33.9140   34.7160   14.0270 C   0  0  0  0  0  0  0  0  0  0  0  0
   29.8670   25.5550   16.9770 C   0  0  0  0  0  0  0  0  0  0  0  0
   28.3450   25.7220   17.0260 C   0  0  0  0  0  0  0  0  0  0  0  0
   27.6020   24.3990   16.9230 C   0  0  0  0  0  0  0  0  0  0  0  0
   26.4330   24.3310   17.8660 C   0  0  0  0  0  0  0  0  0  0  0  0
   26.3300   25.6380   18.6440 C   0  0  0  0  0  0  0  0  0  0  0  0
   25.0200   26.2870   18.3990 N   0  0  0  0  0  0  0  0  0  0  0  0
  1  5  1  0  0  0  0
  2  1  1  0  0  0  0
  2  3  2  0  0  0  0
  4  1  1  0  0  0  0
  6  7  1  0  0  0  0
  6  5  1  6  0  0  0
  7 27  1  1  0  0  0
  8  7  1  1  0  0  0
  8 11  1  0  0  0  0
  8 13  1  0  0  0  0
  9 16  1  6  0  0  0
  9 14  1  0  0  0  0
  9 10  1  0  0  0  0
 11  9  1  0  0  0  0
 12 10  1  0  0  0  0
 12 20  1  1  0  0  0
 13 22  1  6  0  0  0
 13 12  1  0  0  0  0
 14 15  1  0  0  0  0
 16 17  2  0  0  0  0
 18 16  1  0  0  0  0
 19 18  1  0  0  0  0
 20 21  1  0  0  0  0
 22 23  1  0  0  0  0
 23 26  2  0  0  0  0
 24 22  1  0  0  0  0
 25 23  1  0  0  0  0
 28 27  1  0  0  0  0
 29  6  1  0  0  0  0
 30 29  1  0  0  0  0
 31  2  1  0  0  0  0
 32 33  1  0  0  0  0
 32 31  1  0  0  0  0
 33 35  1  0  0  0  0
 34 36  1  0  0  0  0
 34 33  2  0  0  0  0
 36 37  1  0  0  0  0
 37 35  2  0  0  0  0
 38 36  1  0  0  0  0
 38 39  1  0  0  0  0
 39 41  1  0  0  0  0
 40 39  2  0  0  0  0
 40 42  1  0  0  0  0
 41 43  2  0  0  0  0
 42 44  2  0  0  0  0
 44 43  1  0  0  0  0
 45 40  1  0  0  0  0
 46 48  1  0  0  0  0
 46 45  1  0  0  0  0
 47 46  2  0  0  0  0
 49 50  1  0  0  0  0
 51 50  1  0  0  0  0
 51 52  1  0  0  0  0
 52 53  1  0  0  0  0
 54 53  1  0  0  0  0
M  END
>  <REMARK>
 VINA RESULT:    -4.582      7.906     13.189
 INTER + INTRA:         -15.008
 INTER:                  -9.072
 INTRA:                  -5.937
 UNBOUND:                -6.275
 SMILES CC(=O)N[C@@H]1[C@@H](O)C[C@](O)(C(=O)O)O[C@H]1C(O)[C@H](O)CNC(=O)OCc1cn(Cc2ccccc2OC(C)=O)nn1
 SMILES IDX 21 1 22 2 23 3 20 5 18 6 16 7 15 8 9 9 8 10 14 11 6 12 5 13
 SMILES IDX 10 14 11 16 12 17 13 18 7 20 4 22 2 23 1 25 3 26 17 27 19 29
 SMILES IDX 24 31 25 32 26 33 27 34 41 35 28 36 40 37 29 38 30 39 35 40
 SMILES IDX 31 41 34 42 32 43 33 44 36 45 37 46 39 47 38 48
 H PARENT 21 4 10 15 13 19 7 21 4 24 17 28 19 30
 Flexibility Score: inf
  4 active torsions:
  status: ('A' for Active; 'I' for Inactive)
    1  A    between atoms: CA   and  CB  
    2  A    between atoms: CB   and  CG  
    3  A    between atoms: CG   and  CD  
    4  A    between atoms: CD   and  CE  

>  <TORSDO>
F 18

>  <BEGIN_>
RES LYS A 131

$$$$
ligand_21_pose_14_2HRL.pdbqt
 OpenBabel07062320523D

  6  5  0  0  0  0  0  0  0  0999 V2000
   33.1930   34.6630    9.2900 C   0  0  0  0  0  0  0  0  0  0  0  0
   32.0600   35.3600   10.0340 C   0  0  0  0  0  0  0  0  0  0  0  0
   30.8200   35.5530    9.2000 C   0  0  0  0  0  0  0  0  0  0  0  0
   29.5790   35.1500    9.9810 C   0  0  0  0  0  0  0  0  0  0  0  0
   28.9840   33.8740    9.4160 C   0  0  0  0  0  0  0  0  0  0  0  0
   27.4960   33.9290    9.4210 N   0  0  0  0  0  0  0  0  0  0  0  0
  1  2  1  0  0  0  0
  3  4  1  0  0  0  0
  3  2  1  0  0  0  0
  5  6  1  0  0  0  0
  5  4  1  0  0  0  0
M  END
>  <EGIN_R>
ES LYS A 135

>  <REMARK>
  4 active torsions:
  status: ('A' for Active; 'I' for Inactive)
    5  A    between atoms: CA   and  CB  
    6  A    between atoms: CB   and  CG  
    7  A    between atoms: CG   and  CD  
    8  A    between atoms: CD   and  CE  

$$$$
