ligand_14_pose_14_2HRL.pdbqt
 OpenBabel07062320523D

 50 51  0  0  1  0  0  0  0  0999 V2000
   27.7300   27.9290   18.2380 N   0  0  0  0  0  0  0  0  0  0  0  0
   27.1160   27.7960   19.4970 C   0  0  0  0  0  0  0  0  0  0  0  0
   25.9490   28.1710   19.6710 O   0  0  0  0  0  0  0  0  0  0  0  0
   28.7480   27.5800   18.2060 H   0  0  0  0  0  0  0  0  0  0  0  0
   27.1460   28.4640   17.0500 C   0  0  0  0  0  0  0  0  0  0  0  0
   27.6980   29.8260   16.7450 C   0  0  2  0  0  0  0  0  0  0  0  0
   26.6850   30.9220   17.0630 C   0  0  1  0  0  0  0  0  0  0  0  0
   26.3260   31.5830   15.7210 C   0  0  2  0  0  0  0  0  0  0  0  0
   26.6330   33.9070   15.6700 C   0  0  2  0  0  0  0  0  0  0  0  0
   25.3230   33.9810   16.4300 C   0  0  0  0  0  0  0  0  0  0  0  0
   27.1200   32.6510   15.4890 O   0  0  0  0  0  0  0  0  0  0  0  0
   24.3050   33.0980   15.7970 C   0  0  1  0  0  0  0  0  0  0  0  0
   24.8590   31.7330   15.5470 C   0  0  1  0  0  0  0  0  0  0  0  0
   27.5640   34.5710   16.5070 O   0  0  0  0  0  0  0  0  0  0  0  0
   28.4520   34.5780   16.0360 H   0  0  0  0  0  0  0  0  0  0  0  0
   26.5700   34.6850   14.4100 C   0  0  0  0  0  0  0  0  0  0  0  0
   26.7850   35.9160   14.4330 O   0  0  0  0  0  0  0  0  0  0  0  0
   26.2780   34.0690   13.2080 O   0  0  0  0  0  0  0  0  0  0  0  0
   25.3980   33.5810   13.1120 H   0  0  0  0  0  0  0  0  0  0  0  0
   23.1980   33.0450   16.6370 O   0  0  0  0  0  0  0  0  0  0  0  0
   22.8350   33.9600   16.7860 H   0  0  0  0  0  0  0  0  0  0  0  0
   24.4160   31.1940   14.2620 N   0  0  0  0  0  0  0  0  0  0  0  0
   23.9500   29.8830   14.1120 C   0  0  0  0  0  0  0  0  0  0  0  0
   24.4620   31.8370   13.4490 H   0  0  0  0  0  0  0  0  0  0  0  0
   23.5190   29.4190   12.7670 C   0  0  0  0  0  0  0  0  0  0  0  0
   23.8970   29.0980   15.1130 O   0  0  0  0  0  0  0  0  0  0  0  0
   25.5630   30.3080   17.6090 O   0  0  0  0  0  0  0  0  0  0  0  0
   24.8240   30.1950   16.9870 H   0  0  0  0  0  0  0  0  0  0  0  0
   28.2120   29.9710   15.4760 O   0  0  0  0  0  0  0  0  0  0  0  0
   29.1870   30.1110   15.4330 H   0  0  0  0  0  0  0  0  0  0  0  0
   27.7760   27.2450   20.5990 O   0  0  0  0  0  0  0  0  0  0  0  0
   28.3820   28.0800   21.5650 C   0  0  0  0  0  0  0  0  0  0  0  0
   29.4350   28.9480   20.9820 C   0  0  0  0  0  0  0  0  0  0  0  0
   29.2790   30.2410   20.4800 C   0  0  0  0  0  0  0  0  0  0  0  0
   30.7430   28.6840   20.8100 N   0  0  0  0  0  0  0  0  0  0  0  0
   30.4570   30.7110   20.0330 N   0  0  0  0  0  0  0  0  0  0  0  0
   31.3300   29.7170   20.2570 N   0  0  0  0  0  0  0  0  0  0  0  0
   30.7620   31.9930   19.4330 C   0  0  0  0  0  0  0  0  0  0  0  0
   29.6170   32.5640   18.6640 C   0  0  0  0  0  0  0  0  0  0  0  0
   29.9470   32.9880   17.3260 N   0  0  0  0  0  0  0  0  0  0  0  0
   30.8310   34.1360   17.4250 C   0  0  0  0  0  0  0  0  0  0  0  0
   30.6910   31.9780   16.5990 C   0  0  0  0  0  0  0  0  0  0  0  0
   31.9280   33.9580   16.4260 C   0  0  0  0  0  0  0  0  0  0  0  0
   31.4160   32.8190   15.5680 C   0  0  0  0  0  0  0  0  0  0  0  0
   29.8670   25.5550   16.9770 C   0  0  0  0  0  0  0  0  0  0  0  0
   28.3450   25.7220   17.0260 C   0  0  0  0  0  0  0  0  0  0  0  0
   27.6010   24.4010   16.9010 C   0  0  0  0  0  0  0  0  0  0  0  0
   26.5080   24.2670   17.9250 C   0  0  0  0  0  0  0  0  0  0  0  0
   25.1520   24.4320   17.2460 C   0  0  0  0  0  0  0  0  0  0  0  0
   24.4410   25.6140   17.7880 N   0  0  0  0  0  0  0  0  0  0  0  0
  1  2  1  0  0  0  0
  2  3  2  0  0  0  0
  2 31  1  0  0  0  0
  4  1  1  0  0  0  0
  5  1  1  0  0  0  0
  6  5  1  6  0  0  0
  6  7  1  0  0  0  0
  7 27  1  6  0  0  0
  8  7  1  1  0  0  0
  9 16  1  6  0  0  0
  9 10  1  0  0  0  0
  9 14  1  0  0  0  0
 11  9  1  0  0  0  0
 11  8  1  0  0  0  0
 12 10  1  0  0  0  0
 12 20  1  1  0  0  0
 13 22  1  6  0  0  0
 13  8  1  0  0  0  0
 13 12  1  0  0  0  0
 15 14  1  0  0  0  0
 16 17  2  0  0  0  0
 18 16  1  0  0  0  0
 19 18  1  0  0  0  0
 20 21  1  0  0  0  0
 23 22  1  0  0  0  0
 23 26  2  0  0  0  0
 24 22  1  0  0  0  0
 25 23  1  0  0  0  0
 28 27  1  0  0  0  0
 29  6  1  0  0  0  0
 30 29  1  0  0  0  0
 31 32  1  0  0  0  0
 33 32  1  0  0  0  0
 34 33  2  0  0  0  0
 35 33  1  0  0  0  0
 36 37  1  0  0  0  0
 36 34  1  0  0  0  0
 37 35  2  0  0  0  0
 38 36  1  0  0  0  0
 39 38  1  0  0  0  0
 40 41  1  0  0  0  0
 40 39  1  0  0  0  0
 42 40  1  0  0  0  0
 43 41  1  0  0  0  0
 44 43  1  0  0  0  0
 44 42  1  0  0  0  0
 45 46  1  0  0  0  0
 47 46  1  0  0  0  0
 47 48  1  0  0  0  0
 49 50  1  0  0  0  0
 49 48  1  0  0  0  0
M  END
>  <REMARK>
 VINA RESULT:    -4.278      5.595     10.365
 INTER + INTRA:         -13.897
 INTER:                  -7.607
 INTRA:                  -6.290
 UNBOUND:                -5.994
 SMILES CC(=O)N[C@@H]1[C@@H](O)C[C@](O)(C(=O)O)O[C@H]1C(O)[C@H](O)CNC(=O)OCc1cn(CCN2CCCC2)nn1
 SMILES IDX 21 1 22 2 23 3 20 5 18 6 16 7 15 8 9 9 8 10 14 11 6 12 5 13
 SMILES IDX 10 14 11 16 12 17 13 18 7 20 4 22 2 23 1 25 3 26 17 27 19 29
 SMILES IDX 24 31 25 32 26 33 27 34 37 35 28 36 36 37 29 38 30 39 31 40
 SMILES IDX 32 41 35 42 33 43 34 44
 H PARENT 21 4 10 15 13 19 7 21 4 24 17 28 19 30
 Flexibility Score: inf
  4 active torsions:
  status: ('A' for Active; 'I' for Inactive)
    1  A    between atoms: CA   and  CB  
    2  A    between atoms: CB   and  CG  
    3  A    between atoms: CG   and  CD  
    4  A    between atoms: CD   and  CE  

>  <TORSDO>
F 17

>  <BEGIN_>
RES LYS A 131

$$$$
ligand_14_pose_14_2HRL.pdbqt
 OpenBabel07062320523D

  6  5  0  0  0  0  0  0  0  0999 V2000
   33.1930   34.6630    9.2900 C   0  0  0  0  0  0  0  0  0  0  0  0
   32.0600   35.3600   10.0340 C   0  0  0  0  0  0  0  0  0  0  0  0
   30.7160   34.7090    9.8310 C   0  0  0  0  0  0  0  0  0  0  0  0
   30.2130   34.9460    8.4150 C   0  0  0  0  0  0  0  0  0  0  0  0
   28.7610   34.5270    8.2890 C   0  0  0  0  0  0  0  0  0  0  0  0
   28.2960   33.8260    9.5180 N   0  0  0  0  0  0  0  0  0  0  0  0
  1  2  1  0  0  0  0
  3  2  1  0  0  0  0
  4  3  1  0  0  0  0
  5  4  1  0  0  0  0
  5  6  1  0  0  0  0
M  END
>  <EGIN_R>
ES LYS A 135

>  <REMARK>
  4 active torsions:
  status: ('A' for Active; 'I' for Inactive)
    5  A    between atoms: CA   and  CB  
    6  A    between atoms: CB   and  CG  
    7  A    between atoms: CG   and  CD  
    8  A    between atoms: CD   and  CE  

$$$$
