ligand_8_pose_1_2HRL.pdbqt
 OpenBabel07062320523D

 50 51  0  0  1  0  0  0  0  0999 V2000
   25.5960   27.5870   19.1280 C   0  0  0  0  0  0  0  0  0  0  0  0
   26.8610   27.4310   19.9330 C   0  0  2  0  0  0  0  0  0  0  0  0
   27.6080   28.7270   19.8750 C   0  0  1  0  0  0  0  0  0  0  0  0
   28.3580   29.1080   21.1300 C   0  0  2  0  0  0  0  0  0  0  0  0
   30.4370   28.0240   21.1390 C   0  0  2  0  0  0  0  0  0  0  0  0
   30.4850   28.0670   22.6670 C   0  0  0  0  0  0  0  0  0  0  0  0
   29.7000   29.0980   20.7700 O   0  0  0  0  0  0  0  0  0  0  0  0
   29.0990   27.7090   23.1200 C   0  0  1  0  0  0  0  0  0  0  0  0
   27.9920   28.3780   22.3480 C   0  0  1  0  0  0  0  0  0  0  0  0
   29.9630   26.7860   20.7890 O   0  0  0  0  0  0  0  0  0  0  0  0
   29.6550   26.3360   21.6150 H   0  0  0  0  0  0  0  0  0  0  0  0
   31.8210   28.1660   20.6080 C   0  0  0  0  0  0  0  0  0  0  0  0
   32.5580   29.0760   21.0630 O   0  0  0  0  0  0  0  0  0  0  0  0
   32.3130   27.3170   19.6230 O   0  0  0  0  0  0  0  0  0  0  0  0
   31.7790   27.0530   18.7990 H   0  0  0  0  0  0  0  0  0  0  0  0
   28.9860   26.3240   22.9920 O   0  0  0  0  0  0  0  0  0  0  0  0
   28.5930   25.9200   23.7850 H   0  0  0  0  0  0  0  0  0  0  0  0
   27.3000   29.3150   23.2580 N   0  0  0  0  0  0  0  0  0  0  0  0
   25.9110   29.2170   23.4970 C   0  0  0  0  0  0  0  0  0  0  0  0
   27.8440   30.0810   23.7500 H   0  0  0  0  0  0  0  0  0  0  0  0
   25.1990   30.1720   24.4130 C   0  0  0  0  0  0  0  0  0  0  0  0
   25.2730   28.3020   22.9180 O   0  0  0  0  0  0  0  0  0  0  0  0
   28.3280   28.8220   18.7120 O   0  0  0  0  0  0  0  0  0  0  0  0
   27.7560   28.7270   17.8920 H   0  0  0  0  0  0  0  0  0  0  0  0
   27.6180   26.4040   19.4320 O   0  0  0  0  0  0  0  0  0  0  0  0
   28.1730   25.9570   20.1280 H   0  0  0  0  0  0  0  0  0  0  0  0
   25.7410   28.0320   17.7840 N   0  0  0  0  0  0  0  0  0  0  0  0
   24.9330   29.0210   17.1810 C   0  0  0  0  0  0  0  0  0  0  0  0
   26.5040   27.6110   17.1560 H   0  0  0  0  0  0  0  0  0  0  0  0
   23.9920   29.5990   17.7720 O   0  0  0  0  0  0  0  0  0  0  0  0
   25.1940   29.3770   15.8490 O   0  0  0  0  0  0  0  0  0  0  0  0
   25.6220   30.6970   15.6030 C   0  0  0  0  0  0  0  0  0  0  0  0
   27.0880   30.7500   15.8220 C   0  0  0  0  0  0  0  0  0  0  0  0
   27.8360   31.9330   15.8960 C   0  0  0  0  0  0  0  0  0  0  0  0
   27.9990   29.7840   15.9870 N   0  0  0  0  0  0  0  0  0  0  0  0
   29.1330   31.6430   16.0970 N   0  0  0  0  0  0  0  0  0  0  0  0
   29.2030   30.3240   16.1470 N   0  0  0  0  0  0  0  0  0  0  0  0
   30.1990   32.5840   16.2250 C   0  0  0  0  0  0  0  0  0  0  0  0
   30.9140   33.0220   15.1330 C   0  0  0  0  0  0  0  0  0  0  0  0
   30.5530   33.0940   17.4560 C   0  0  0  0  0  0  0  0  0  0  0  0
   31.9540   33.9430   15.2770 C   0  0  0  0  0  0  0  0  0  0  0  0
   31.5840   34.0080   17.6030 C   0  0  0  0  0  0  0  0  0  0  0  0
   29.5620   32.4900   18.9850 Br  0  0  0  0  0  0  0  0  0  0  0  0
   32.3020   34.4490   16.5120 C   0  0  0  0  0  0  0  0  0  0  0  0
   29.8670   25.5550   16.9770 C   0  0  0  0  0  0  0  0  0  0  0  0
   28.3450   25.7220   17.0260 C   0  0  0  0  0  0  0  0  0  0  0  0
   27.5990   24.4430   16.6770 C   0  0  0  0  0  0  0  0  0  0  0  0
   26.2000   24.4350   17.2290 C   0  0  0  0  0  0  0  0  0  0  0  0
   26.1220   23.4670   18.4040 C   0  0  0  0  0  0  0  0  0  0  0  0
   24.7810   22.8410   18.4730 N   0  0  0  0  0  0  0  0  0  0  0  0
  2  1  1  6  0  0  0
  3 23  1  6  0  0  0
  3  2  1  0  0  0  0
  4  3  1  6  0  0  0
  4  9  1  0  0  0  0
  5 12  1  6  0  0  0
  5  6  1  0  0  0  0
  6  8  1  0  0  0  0
  7  4  1  0  0  0  0
  7  5  1  0  0  0  0
  8 16  1  6  0  0  0
  9  8  1  0  0  0  0
  9 18  1  1  0  0  0
 10  5  1  0  0  0  0
 10 11  1  0  0  0  0
 12 13  2  0  0  0  0
 14 12  1  0  0  0  0
 15 14  1  0  0  0  0
 16 17  1  0  0  0  0
 18 19  1  0  0  0  0
 18 20  1  0  0  0  0
 19 21  1  0  0  0  0
 22 19  2  0  0  0  0
 24 23  1  0  0  0  0
 25  2  1  0  0  0  0
 25 26  1  0  0  0  0
 27  1  1  0  0  0  0
 28 30  2  0  0  0  0
 28 27  1  0  0  0  0
 29 27  1  0  0  0  0
 31 28  1  0  0  0  0
 32 33  1  0  0  0  0
 32 31  1  0  0  0  0
 33 34  2  0  0  0  0
 33 35  1  0  0  0  0
 34 36  1  0  0  0  0
 35 37  2  0  0  0  0
 36 37  1  0  0  0  0
 36 38  1  0  0  0  0
 38 40  2  0  0  0  0
 39 41  2  0  0  0  0
 39 38  1  0  0  0  0
 40 42  1  0  0  0  0
 40 43  1  0  0  0  0
 41 44  1  0  0  0  0
 44 42  2  0  0  0  0
 45 46  1  0  0  0  0
 47 46  1  0  0  0  0
 47 48  1  0  0  0  0
 48 49  1  0  0  0  0
 49 50  1  0  0  0  0
M  END
>  <REMARK>
 VINA RESULT:    -6.059      2.190      3.180
 INTER + INTRA:         -14.882
 INTER:                  -9.188
 INTRA:                  -5.694
 UNBOUND:                -4.396
 SMILES CC(=O)N[C@@H]1[C@@H](O)C[C@](O)(C(=O)O)O[C@H]1C(O)[C@H](O)CNC(=O)OCc1cn(-c2ccccc2Br)nn1
 SMILES IDX 20 1 18 2 16 3 15 4 9 5 8 6 14 7 6 8 5 9 10 10 11 12 12 13
 SMILES IDX 13 14 7 16 4 18 2 19 1 21 3 22 17 23 19 25 21 27 22 28 23 30
 SMILES IDX 24 31 25 32 26 33 27 34 37 35 28 36 36 37 29 38 30 39 34 40
 SMILES IDX 31 41 33 42 35 43 32 44
 H PARENT 10 11 13 15 7 17 4 20 17 24 19 26 21 29
 Flexibility Score: inf
  4 active torsions:
  status: ('A' for Active; 'I' for Inactive)
    1  A    between atoms: CA   and  CB  
    2  A    between atoms: CB   and  CG  
    3  A    between atoms: CG   and  CD  
    4  A    between atoms: CD   and  CE  

>  <TORSDO>
F 15

>  <BEGIN_>
RES LYS A 131

$$$$
ligand_8_pose_1_2HRL.pdbqt
 OpenBabel07062320523D

  6  5  0  0  0  0  0  0  0  0999 V2000
   33.1930   34.6630    9.2900 C   0  0  0  0  0  0  0  0  0  0  0  0
   32.0600   35.3600   10.0340 C   0  0  0  0  0  0  0  0  0  0  0  0
   30.9080   35.7540    9.1460 C   0  0  0  0  0  0  0  0  0  0  0  0
   30.3860   34.5490    8.3780 C   0  0  0  0  0  0  0  0  0  0  0  0
   29.1560   34.9220    7.5740 C   0  0  0  0  0  0  0  0  0  0  0  0
   28.8900   36.3850    7.6480 N   0  0  0  0  0  0  0  0  0  0  0  0
  1  2  1  0  0  0  0
  3  2  1  0  0  0  0
  4  3  1  0  0  0  0
  5  6  1  0  0  0  0
  5  4  1  0  0  0  0
M  END
>  <EGIN_R>
ES LYS A 135

>  <REMARK>
  4 active torsions:
  status: ('A' for Active; 'I' for Inactive)
    5  A    between atoms: CA   and  CB  
    6  A    between atoms: CB   and  CG  
    7  A    between atoms: CG   and  CD  
    8  A    between atoms: CD   and  CE  

$$$$
