ligand_6_pose_15_2HRL.pdbqt
 OpenBabel07062320523D

 52 53  0  0  1  0  0  0  0  0999 V2000
   24.7320   34.4340   12.1570 N   0  0  0  0  0  0  0  0  0  0  0  0
   24.0280   33.3590   12.7290 C   0  0  0  0  0  0  0  0  0  0  0  0
   22.8320   33.1190   12.4850 O   0  0  0  0  0  0  0  0  0  0  0  0
   25.7720   34.5160   12.4280 H   0  0  0  0  0  0  0  0  0  0  0  0
   24.1790   35.3880   11.2780 C   0  0  0  0  0  0  0  0  0  0  0  0
   24.8110   35.6590    9.9720 C   0  0  2  0  0  0  0  0  0  0  0  0
   26.0320   36.4440    9.8290 C   0  0  2  0  0  0  0  0  0  0  0  0
   26.8580   36.0280    8.6070 C   0  0  2  0  0  0  0  0  0  0  0  0
   29.0960   35.7850    8.0210 C   0  0  2  0  0  0  0  0  0  0  0  0
   28.4960   35.4130    6.6840 C   0  0  0  0  0  0  0  0  0  0  0  0
   28.1810   35.8230    9.0490 O   0  0  0  0  0  0  0  0  0  0  0  0
   27.3940   36.3350    6.2650 C   0  0  1  0  0  0  0  0  0  0  0  0
   26.9120   37.0570    7.5370 C   0  0  1  0  0  0  0  0  0  0  0  0
   29.7740   36.9800    7.8500 O   0  0  0  0  0  0  0  0  0  0  0  0
   30.5970   36.8130    7.3480 H   0  0  0  0  0  0  0  0  0  0  0  0
   30.0870   34.7270    8.3490 C   0  0  0  0  0  0  0  0  0  0  0  0
   29.7630   33.7420    9.0610 O   0  0  0  0  0  0  0  0  0  0  0  0
   31.3880   34.7980    7.8820 O   0  0  0  0  0  0  0  0  0  0  0  0
   31.8360   34.0150    7.4000 H   0  0  0  0  0  0  0  0  0  0  0  0
   27.7420   37.2330    5.2830 O   0  0  0  0  0  0  0  0  0  0  0  0
   27.3380   36.9320    4.4310 H   0  0  0  0  0  0  0  0  0  0  0  0
   25.6370   37.6420    7.1800 N   0  0  0  0  0  0  0  0  0  0  0  0
   25.3510   39.0130    7.4920 C   0  0  0  0  0  0  0  0  0  0  0  0
   24.8890   37.1140    6.6920 H   0  0  0  0  0  0  0  0  0  0  0  0
   24.0710   39.6750    7.1570 C   0  0  0  0  0  0  0  0  0  0  0  0
   26.2400   39.6650    8.0780 O   0  0  0  0  0  0  0  0  0  0  0  0
   26.7910   36.4280   10.9710 O   0  0  0  0  0  0  0  0  0  0  0  0
   27.5930   35.8610   10.9550 H   0  0  0  0  0  0  0  0  0  0  0  0
   23.7540   36.1230    9.1370 O   0  0  0  0  0  0  0  0  0  0  0  0
   23.6370   35.5030    8.3710 H   0  0  0  0  0  0  0  0  0  0  0  0
   24.7360   32.5220   13.6210 O   0  0  0  0  0  0  0  0  0  0  0  0
   24.9990   33.0590   14.9020 C   0  0  0  0  0  0  0  0  0  0  0  0
   26.4480   32.8670   15.2530 C   0  0  0  0  0  0  0  0  0  0  0  0
   27.4650   33.7910   15.1500 C   0  0  0  0  0  0  0  0  0  0  0  0
   27.0460   31.7520   15.7370 N   0  0  0  0  0  0  0  0  0  0  0  0
   28.6320   33.2400   15.5620 N   0  0  0  0  0  0  0  0  0  0  0  0
   28.3210   32.0080   15.9050 N   0  0  0  0  0  0  0  0  0  0  0  0
   29.9090   33.8720   15.6060 C   0  0  0  0  0  0  0  0  0  0  0  0
   31.0460   33.2620   15.1200 C   0  0  0  0  0  0  0  0  0  0  0  0
   30.0610   35.1370   16.1420 C   0  0  0  0  0  0  0  0  0  0  0  0
   32.2730   33.8920   15.1720 C   0  0  0  0  0  0  0  0  0  0  0  0
   31.2880   35.7690   16.1950 C   0  0  0  0  0  0  0  0  0  0  0  0
   32.4270   35.1610   15.7100 C   0  0  0  0  0  0  0  0  0  0  0  0
   33.6800   35.8150   15.7660 N   0  0  0  0  0  0  0  0  0  0  0  0
   33.7310   36.9660   16.2310 O   0  0  0  0  0  0  0  0  0  0  0  0
   34.8500   35.2530   15.3380 O   0  0  0  0  0  0  0  0  0  0  0  0
   29.8670   25.5550   16.9770 C   0  0  0  0  0  0  0  0  0  0  0  0
   28.3450   25.7220   17.0260 C   0  0  0  0  0  0  0  0  0  0  0  0
   27.6010   24.4050   16.8660 C   0  0  0  0  0  0  0  0  0  0  0  0
   26.5060   24.2460   17.8850 C   0  0  0  0  0  0  0  0  0  0  0  0
   25.1500   24.3380   17.1930 C   0  0  0  0  0  0  0  0  0  0  0  0
   24.1860   23.4000   17.8160 N   0  0  0  0  0  0  0  0  0  0  0  0
  1  4  1  0  0  0  0
  1  2  1  0  0  0  0
  2 31  1  0  0  0  0
  3  2  2  0  0  0  0
  5  1  1  0  0  0  0
  6  5  1  1  0  0  0
  7  6  1  0  0  0  0
  7 27  1  1  0  0  0
  8 11  1  0  0  0  0
  8  7  1  1  0  0  0
  9 14  1  6  0  0  0
  9 16  1  0  0  0  0
  9 11  1  0  0  0  0
 10  9  1  0  0  0  0
 12 20  1  6  0  0  0
 12 10  1  0  0  0  0
 12 13  1  0  0  0  0
 13 22  1  6  0  0  0
 13  8  1  0  0  0  0
 15 14  1  0  0  0  0
 16 17  2  0  0  0  0
 18 16  1  0  0  0  0
 19 18  1  0  0  0  0
 21 20  1  0  0  0  0
 22 23  1  0  0  0  0
 23 26  2  0  0  0  0
 24 22  1  0  0  0  0
 25 23  1  0  0  0  0
 28 27  1  0  0  0  0
 29  6  1  0  0  0  0
 30 29  1  0  0  0  0
 31 32  1  0  0  0  0
 32 33  1  0  0  0  0
 33 35  1  0  0  0  0
 34 33  2  0  0  0  0
 34 36  1  0  0  0  0
 35 37  2  0  0  0  0
 36 38  1  0  0  0  0
 36 37  1  0  0  0  0
 38 40  2  0  0  0  0
 39 41  2  0  0  0  0
 39 38  1  0  0  0  0
 40 42  1  0  0  0  0
 41 43  1  0  0  0  0
 43 44  1  0  0  0  0
 43 42  2  0  0  0  0
 44 45  2  0  0  0  0
 46 44  2  0  0  0  0
 47 48  1  0  0  0  0
 49 48  1  0  0  0  0
 49 50  1  0  0  0  0
 51 52  1  0  0  0  0
 51 50  1  0  0  0  0
M  END
>  <REMARK>
 VINA RESULT:    -5.142      6.200     11.532
 INTER + INTRA:         -13.949
 INTER:                 -10.967
 INTRA:                  -2.982
 UNBOUND:                -4.749
 SMILES CC(=O)N[C@@H]1[C@@H](O)C[C@](O)(C(=O)O)O[C@H]1C(O)[C@H](O)CNC(=O)OCc1cn(-c2ccc([N+](=O)[O-])cc2)nn1
 SMILES IDX 21 1 22 2 23 3 20 5 18 6 16 7 15 8 9 9 8 10 14 11 6 12 5 13
 SMILES IDX 10 14 11 16 12 17 13 18 7 20 4 22 2 23 1 25 3 26 17 27 19 29
 SMILES IDX 24 31 25 32 26 33 27 34 39 35 28 36 38 37 29 38 30 39 37 40
 SMILES IDX 31 41 36 42 32 43 33 44 34 45 35 46
 H PARENT 21 4 10 15 13 19 7 21 4 24 17 28 19 30
 Flexibility Score: inf
  4 active torsions:
  status: ('A' for Active; 'I' for Inactive)
    1  A    between atoms: CA   and  CB  
    2  A    between atoms: CB   and  CG  
    3  A    between atoms: CG   and  CD  
    4  A    between atoms: CD   and  CE  

>  <TORSDO>
F 16

>  <BEGIN_>
RES LYS A 131

$$$$
ligand_6_pose_15_2HRL.pdbqt
 OpenBabel07062320523D

  6  5  0  0  0  0  0  0  0  0999 V2000
   33.1930   34.6630    9.2900 C   0  0  0  0  0  0  0  0  0  0  0  0
   32.0600   35.3600   10.0340 C   0  0  0  0  0  0  0  0  0  0  0  0
   32.1160   35.1740   11.5280 C   0  0  0  0  0  0  0  0  0  0  0  0
   31.6910   36.4470   12.2440 C   0  0  0  0  0  0  0  0  0  0  0  0
   30.1940   36.4430   12.4930 C   0  0  0  0  0  0  0  0  0  0  0  0
   29.6240   35.0790   12.3130 N   0  0  0  0  0  0  0  0  0  0  0  0
  1  2  1  0  0  0  0
  2  3  1  0  0  0  0
  3  4  1  0  0  0  0
  4  5  1  0  0  0  0
  6  5  1  0  0  0  0
M  END
>  <EGIN_R>
ES LYS A 135

>  <REMARK>
  4 active torsions:
  status: ('A' for Active; 'I' for Inactive)
    5  A    between atoms: CA   and  CB  
    6  A    between atoms: CB   and  CG  
    7  A    between atoms: CG   and  CD  
    8  A    between atoms: CD   and  CE  

$$$$
