ligand_12_pose_17_2HRL.pdbqt
 OpenBabel07062320523D

 52 53  0  0  1  0  0  0  0  0999 V2000
   28.1810   40.0620    8.7410 N   0  0  0  0  0  0  0  0  0  0  0  0
   27.2370   40.9260    8.1140 C   0  0  0  0  0  0  0  0  0  0  0  0
   26.4180   41.6110    8.7990 O   0  0  0  0  0  0  0  0  0  0  0  0
   28.8330   39.5200    8.1520 H   0  0  0  0  0  0  0  0  0  0  0  0
   28.1640   40.0020   10.1880 C   0  0  0  0  0  0  0  0  0  0  0  0
   28.4640   38.6200   10.7030 C   0  0  2  0  0  0  0  0  0  0  0  0
   27.2320   37.7480   10.5930 C   0  0  2  0  0  0  0  0  0  0  0  0
   27.2980   36.7940    9.4470 C   0  0  2  0  0  0  0  0  0  0  0  0
   28.7890   36.0100    7.8370 C   0  0  2  0  0  0  0  0  0  0  0  0
   27.5410   35.6170    7.0600 C   0  0  0  0  0  0  0  0  0  0  0  0
   28.5350   36.9500    8.8290 O   0  0  0  0  0  0  0  0  0  0  0  0
   26.6370   36.8300    7.0460 C   0  0  1  0  0  0  0  0  0  0  0  0
   26.1550   37.0020    8.4770 C   0  0  1  0  0  0  0  0  0  0  0  0
   29.6190   36.6420    6.9130 O   0  0  0  0  0  0  0  0  0  0  0  0
   30.5780   36.4920    7.1090 H   0  0  0  0  0  0  0  0  0  0  0  0
   29.4760   34.8180    8.3500 C   0  0  0  0  0  0  0  0  0  0  0  0
   30.7170   34.7050    8.1960 O   0  0  0  0  0  0  0  0  0  0  0  0
   28.8250   33.7830    9.0110 O   0  0  0  0  0  0  0  0  0  0  0  0
   28.8400   32.8640    8.5800 H   0  0  0  0  0  0  0  0  0  0  0  0
   27.3130   37.9690    6.6190 O   0  0  0  0  0  0  0  0  0  0  0  0
   28.2360   37.9580    7.0200 H   0  0  0  0  0  0  0  0  0  0  0  0
   25.1490   35.9880    8.7080 N   0  0  0  0  0  0  0  0  0  0  0  0
   23.8480   36.3590    9.1420 C   0  0  0  0  0  0  0  0  0  0  0  0
   25.3210   34.9620    8.5700 H   0  0  0  0  0  0  0  0  0  0  0  0
   22.7760   35.3580    9.3920 C   0  0  0  0  0  0  0  0  0  0  0  0
   23.5570   37.5690    9.3310 O   0  0  0  0  0  0  0  0  0  0  0  0
   26.1040   38.5310   10.6320 O   0  0  0  0  0  0  0  0  0  0  0  0
   25.6850   38.4070   11.5310 H   0  0  0  0  0  0  0  0  0  0  0  0
   28.9080   38.7140   12.0160 O   0  0  0  0  0  0  0  0  0  0  0  0
   28.2730   38.2470   12.6210 H   0  0  0  0  0  0  0  0  0  0  0  0
   27.1620   41.0640    6.7340 O   0  0  0  0  0  0  0  0  0  0  0  0
   28.1270   41.7450    5.9580 C   0  0  0  0  0  0  0  0  0  0  0  0
   29.3750   40.9690    5.7860 C   0  0  0  0  0  0  0  0  0  0  0  0
   30.6610   41.3820    5.5080 C   0  0  0  0  0  0  0  0  0  0  0  0
   29.4530   39.6300    5.8800 N   0  0  0  0  0  0  0  0  0  0  0  0
   31.4750   40.2990    5.4420 N   0  0  0  0  0  0  0  0  0  0  0  0
   30.6970   39.2580    5.6750 N   0  0  0  0  0  0  0  0  0  0  0  0
   32.9200   40.2830    5.1700 C   0  0  0  0  0  0  0  0  0  0  0  0
   33.5580   39.4920    6.1200 O   0  0  0  0  0  0  0  0  0  0  0  0
   34.1790   40.2350    7.0960 C   0  0  0  0  0  0  0  0  0  0  0  0
   33.3690   40.4530    8.3110 C   0  0  0  0  0  0  0  0  0  0  0  0
   32.6100   39.4200    8.8230 C   0  0  0  0  0  0  0  0  0  0  0  0
   33.3570   41.6660    8.9510 C   0  0  0  0  0  0  0  0  0  0  0  0
   31.8410   39.6010    9.9750 C   0  0  0  0  0  0  0  0  0  0  0  0
   32.5910   41.8410   10.0930 C   0  0  0  0  0  0  0  0  0  0  0  0
   31.8410   40.8300   10.6050 C   0  0  0  0  0  0  0  0  0  0  0  0
   29.8670   25.5550   16.9770 C   0  0  0  0  0  0  0  0  0  0  0  0
   28.3450   25.7220   17.0260 C   0  0  0  0  0  0  0  0  0  0  0  0
   27.6020   24.4000   16.9150 C   0  0  0  0  0  0  0  0  0  0  0  0
   26.6290   24.2000   18.0440 C   0  0  0  0  0  0  0  0  0  0  0  0
   26.0850   25.5530   18.4920 C   0  0  0  0  0  0  0  0  0  0  0  0
   25.7310   25.5190   19.9310 N   0  0  0  0  0  0  0  0  0  0  0  0
  1  5  1  0  0  0  0
  2  1  1  0  0  0  0
  2  3  2  0  0  0  0
  4  1  1  0  0  0  0
  6  5  1  1  0  0  0
  6 29  1  0  0  0  0
  7 27  1  6  0  0  0
  7  6  1  0  0  0  0
  8  7  1  1  0  0  0
  9 14  1  6  0  0  0
  9 16  1  0  0  0  0
  9 11  1  0  0  0  0
 10  9  1  0  0  0  0
 11  8  1  0  0  0  0
 12 20  1  1  0  0  0
 12 10  1  0  0  0  0
 12 13  1  0  0  0  0
 13 22  1  1  0  0  0
 13  8  1  0  0  0  0
 14 15  1  0  0  0  0
 16 18  1  0  0  0  0
 17 16  2  0  0  0  0
 19 18  1  0  0  0  0
 20 21  1  0  0  0  0
 22 23  1  0  0  0  0
 23 26  2  0  0  0  0
 23 25  1  0  0  0  0
 24 22  1  0  0  0  0
 27 28  1  0  0  0  0
 29 30  1  0  0  0  0
 31  2  1  0  0  0  0
 32 31  1  0  0  0  0
 33 35  1  0  0  0  0
 33 32  1  0  0  0  0
 34 33  2  0  0  0  0
 36 34  1  0  0  0  0
 36 37  1  0  0  0  0
 37 35  2  0  0  0  0
 38 36  1  0  0  0  0
 38 39  1  0  0  0  0
 39 40  1  0  0  0  0
 40 41  1  0  0  0  0
 41 42  2  0  0  0  0
 41 43  1  0  0  0  0
 42 44  1  0  0  0  0
 43 45  2  0  0  0  0
 44 46  2  0  0  0  0
 45 46  1  0  0  0  0
 47 48  1  0  0  0  0
 49 48  1  0  0  0  0
 49 50  1  0  0  0  0
 50 51  1  0  0  0  0
 51 52  1  0  0  0  0
M  END
>  <REMARK>
 VINA RESULT:    -5.806      3.187      7.880
 INTER + INTRA:         -14.840
 INTER:                  -8.596
 INTRA:                  -6.245
 UNBOUND:                -3.774
 SMILES CC(=O)N[C@@H]1[C@@H](O)C[C@](O)(C(=O)O)O[C@H]1C(O)[C@H](O)CNC(=O)OCc1cn(COCc2ccccc2)nn1
 SMILES IDX 21 1 22 2 23 3 20 5 18 6 16 7 15 8 9 9 8 10 14 11 6 12 5 13
 SMILES IDX 10 14 11 16 12 17 13 18 7 20 4 22 2 23 1 25 3 26 17 27 19 29
 SMILES IDX 24 31 25 32 26 33 27 34 39 35 28 36 38 37 29 38 30 39 31 40
 SMILES IDX 32 41 33 42 37 43 34 44 36 45 35 46
 H PARENT 21 4 10 15 13 19 7 21 4 24 17 28 19 30
 Flexibility Score: inf
  4 active torsions:
  status: ('A' for Active; 'I' for Inactive)
    1  A    between atoms: CA   and  CB  
    2  A    between atoms: CB   and  CG  
    3  A    between atoms: CG   and  CD  
    4  A    between atoms: CD   and  CE  

>  <TORSDO>
F 18

>  <BEGIN_>
RES LYS A 131

$$$$
ligand_12_pose_17_2HRL.pdbqt
 OpenBabel07062320523D

  6  5  0  0  0  0  0  0  0  0999 V2000
   33.1930   34.6630    9.2900 C   0  0  0  0  0  0  0  0  0  0  0  0
   32.0600   35.3600   10.0340 C   0  0  0  0  0  0  0  0  0  0  0  0
   32.5210   36.1480   11.2330 C   0  0  0  0  0  0  0  0  0  0  0  0
   31.5800   35.9370   12.4080 C   0  0  0  0  0  0  0  0  0  0  0  0
   30.3080   35.2470   11.9550 C   0  0  0  0  0  0  0  0  0  0  0  0
   29.6700   34.5060   13.0780 N   0  0  0  0  0  0  0  0  0  0  0  0
  1  2  1  0  0  0  0
  2  3  1  0  0  0  0
  3  4  1  0  0  0  0
  5  4  1  0  0  0  0
  5  6  1  0  0  0  0
M  END
>  <EGIN_R>
ES LYS A 135

>  <REMARK>
  4 active torsions:
  status: ('A' for Active; 'I' for Inactive)
    5  A    between atoms: CA   and  CB  
    6  A    between atoms: CB   and  CG  
    7  A    between atoms: CG   and  CD  
    8  A    between atoms: CD   and  CE  

$$$$
