ligand_54_pose_12_2HRL.pdbqt
 OpenBabel07062320523D

 52 52  0  0  1  0  0  0  0  0999 V2000
   29.7050   40.0430    7.7210 O   0  0  0  0  0  0  0  0  0  0  0  0
   30.0680   40.6800    8.9170 C   0  0  0  0  0  0  0  0  0  0  0  0
   29.8780   40.0670   10.1730 N   0  0  0  0  0  0  0  0  0  0  0  0
   29.4540   39.0850   10.1400 H   0  0  0  0  0  0  0  0  0  0  0  0
   30.5620   41.8070    8.8360 O   0  0  0  0  0  0  0  0  0  0  0  0
   30.1860   40.6030   11.4610 C   0  0  0  0  0  0  0  0  0  0  0  0
   31.3310   39.8700   12.1010 C   0  0  2  0  0  0  0  0  0  0  0  0
   31.2020   38.4160   11.6550 C   0  0  2  0  0  0  0  0  0  0  0  0
   31.2570   37.4690   12.8130 C   0  0  2  0  0  0  0  0  0  0  0  0
   32.1410   35.3920   13.3430 C   0  0  2  0  0  0  0  0  0  0  0  0
   31.1850   35.3330   14.4880 C   0  0  0  0  0  0  0  0  0  0  0  0
   32.3560   36.6620   12.8280 O   0  0  0  0  0  0  0  0  0  0  0  0
   29.9140   36.1080   14.2920 C   0  0  1  0  0  0  0  0  0  0  0  0
   29.9490   36.6910   12.8960 C   0  0  1  0  0  0  0  0  0  0  0  0
   31.7710   34.4840   12.3470 O   0  0  0  0  0  0  0  0  0  0  0  0
   31.5090   35.0290   11.5460 H   0  0  0  0  0  0  0  0  0  0  0  0
   33.4610   34.9400   13.8700 C   0  0  0  0  0  0  0  0  0  0  0  0
   33.8480   35.2730   15.0110 O   0  0  0  0  0  0  0  0  0  0  0  0
   34.2720   34.1280   13.0560 O   0  0  0  0  0  0  0  0  0  0  0  0
   35.2750   34.2250   13.2040 H   0  0  0  0  0  0  0  0  0  0  0  0
   28.7690   35.3580   14.5290 O   0  0  0  0  0  0  0  0  0  0  0  0
   28.7310   35.2080   15.5080 H   0  0  0  0  0  0  0  0  0  0  0  0
   28.8680   37.6270   12.6680 N   0  0  0  0  0  0  0  0  0  0  0  0
   27.6890   37.1830   12.0130 C   0  0  0  0  0  0  0  0  0  0  0  0
   28.8960   38.6210   12.9550 H   0  0  0  0  0  0  0  0  0  0  0  0
   26.5380   38.0670   11.7390 C   0  0  0  0  0  0  0  0  0  0  0  0
   27.6210   35.9770   11.6490 O   0  0  0  0  0  0  0  0  0  0  0  0
   32.1850   38.1570   10.7130 O   0  0  0  0  0  0  0  0  0  0  0  0
   32.3570   38.9320   10.1110 H   0  0  0  0  0  0  0  0  0  0  0  0
   31.2170   39.8800   13.4670 O   0  0  0  0  0  0  0  0  0  0  0  0
   31.5070   40.7350   13.8780 H   0  0  0  0  0  0  0  0  0  0  0  0
   29.9930   38.6610    7.5280 C   0  0  0  0  0  0  0  0  0  0  0  0
   28.7400   37.9360    7.2520 C   0  0  0  0  0  0  0  0  0  0  0  0
   27.7860   37.6970    8.2460 C   0  0  0  0  0  0  0  0  0  0  0  0
   28.2380   37.3910    6.1530 N   0  0  0  0  0  0  0  0  0  0  0  0
   26.7570   37.0180    7.6980 N   0  0  0  0  0  0  0  0  0  0  0  0
   27.0490   36.8460    6.4410 N   0  0  0  0  0  0  0  0  0  0  0  0
   25.5960   36.5970    8.4300 C   0  0  0  0  0  0  0  0  0  0  0  0
   24.3160   37.2140    7.9150 C   0  0  0  0  0  0  0  0  0  0  0  0
   24.2140   38.6790    8.2040 C   0  0  0  0  0  0  0  0  0  0  0  0
   22.9820   38.9210    8.8010 O   0  0  0  0  0  0  0  0  0  0  0  0
   23.1560   39.2650   10.1470 C   0  0  0  0  0  0  0  0  0  0  0  0
   22.3120   40.4530   10.5290 C   0  0  0  0  0  0  0  0  0  0  0  0
   24.3240   39.4530    7.0780 O   0  0  0  0  0  0  0  0  0  0  0  0
   25.3720   40.3690    7.1640 C   0  0  0  0  0  0  0  0  0  0  0  0
   26.1300   40.3700    5.8420 C   0  0  0  0  0  0  0  0  0  0  0  0
   29.8670   25.5550   16.9770 C   0  0  0  0  0  0  0  0  0  0  0  0
   28.3450   25.7220   17.0260 C   0  0  0  0  0  0  0  0  0  0  0  0
   27.6020   24.3990   16.9210 C   0  0  0  0  0  0  0  0  0  0  0  0
   26.1810   24.5080   17.4010 C   0  0  0  0  0  0  0  0  0  0  0  0
   25.9800   23.5920   18.6050 C   0  0  0  0  0  0  0  0  0  0  0  0
   25.2100   24.2880   19.6630 N   0  0  0  0  0  0  0  0  0  0  0  0
  1  2  1  0  0  0  0
  2  3  1  0  0  0  0
  3  6  1  0  0  0  0
  4  3  1  0  0  0  0
  5  2  2  0  0  0  0
  7  6  1  6  0  0  0
  7 30  1  0  0  0  0
  8 28  1  6  0  0  0
  8  7  1  0  0  0  0
  9  8  1  6  0  0  0
  9 12  1  0  0  0  0
  9 14  1  0  0  0  0
 10 15  1  6  0  0  0
 10 17  1  0  0  0  0
 10 11  1  0  0  0  0
 12 10  1  0  0  0  0
 13 11  1  0  0  0  0
 13 21  1  6  0  0  0
 14 23  1  1  0  0  0
 14 13  1  0  0  0  0
 16 15  1  0  0  0  0
 17 18  2  0  0  0  0
 19 20  1  0  0  0  0
 19 17  1  0  0  0  0
 21 22  1  0  0  0  0
 23 25  1  0  0  0  0
 24 23  1  0  0  0  0
 26 24  1  0  0  0  0
 27 24  2  0  0  0  0
 29 28  1  0  0  0  0
 30 31  1  0  0  0  0
 32  1  1  0  0  0  0
 33 32  1  0  0  0  0
 33 34  2  0  0  0  0
 35 37  2  0  0  0  0
 35 33  1  0  0  0  0
 36 34  1  0  0  0  0
 36 38  1  0  0  0  0
 37 36  1  0  0  0  0
 39 40  1  0  0  0  0
 39 38  1  0  0  0  0
 40 41  1  0  0  0  0
 41 42  1  0  0  0  0
 42 43  1  0  0  0  0
 44 45  1  0  0  0  0
 44 40  1  0  0  0  0
 46 45  1  0  0  0  0
 47 48  1  0  0  0  0
 49 48  1  0  0  0  0
 49 50  1  0  0  0  0
 50 51  1  0  0  0  0
 51 52  1  0  0  0  0
M  END
>  <REMARK>
 VINA RESULT:    -4.177      5.828     11.219
 INTER + INTRA:         -14.632
 INTER:                  -8.355
 INTRA:                  -6.278
 UNBOUND:                -5.938
 SMILES CCOC(CCn1cc(COC(=O)NC[C@@H](O)C(O)[C@@H]2O[C@@](O)(C(=O)O)C[C@H](O)[C@H]2NC(C)=O)nn1)OCC
 SMILES IDX 11 1 12 2 14 3 13 5 15 6 16 7 18 8 20 9 22 10 27 11 21 12
 SMILES IDX 28 13 30 14 23 15 24 17 25 18 26 19 29 21 31 23 32 24 33 26
 SMILES IDX 34 27 19 28 17 30 10 32 9 33 8 34 35 35 7 36 36 37 6 38 5 39
 SMILES IDX 4 40 3 41 2 42 1 43 37 44 38 45 39 46
 H PARENT 14 4 23 16 26 20 29 22 31 25 19 29 17 31
 Flexibility Score: inf
  4 active torsions:
  status: ('A' for Active; 'I' for Inactive)
    1  A    between atoms: CA   and  CB  
    2  A    between atoms: CB   and  CG  
    3  A    between atoms: CG   and  CD  
    4  A    between atoms: CD   and  CE  

>  <TORSDO>
F 21

>  <BEGIN_>
RES LYS A 131

$$$$
ligand_54_pose_12_2HRL.pdbqt
 OpenBabel07062320523D

  6  5  0  0  0  0  0  0  0  0999 V2000
   33.1930   34.6630    9.2900 C   0  0  0  0  0  0  0  0  0  0  0  0
   32.0600   35.3600   10.0340 C   0  0  0  0  0  0  0  0  0  0  0  0
   30.7840   35.4530    9.2380 C   0  0  0  0  0  0  0  0  0  0  0  0
   30.1350   34.0840    9.1030 C   0  0  0  0  0  0  0  0  0  0  0  0
   28.7160   34.2170    8.5840 C   0  0  0  0  0  0  0  0  0  0  0  0
   27.7380   33.6200    9.5360 N   0  0  0  0  0  0  0  0  0  0  0  0
  1  2  1  0  0  0  0
  3  2  1  0  0  0  0
  4  3  1  0  0  0  0
  5  4  1  0  0  0  0
  5  6  1  0  0  0  0
M  END
>  <EGIN_R>
ES LYS A 135

>  <REMARK>
  4 active torsions:
  status: ('A' for Active; 'I' for Inactive)
    5  A    between atoms: CA   and  CB  
    6  A    between atoms: CB   and  CG  
    7  A    between atoms: CG   and  CD  
    8  A    between atoms: CD   and  CE  

$$$$
