ligand_28_pose_4_2HRL.pdbqt
 OpenBabel07062320523D

 53 55  0  0  1  0  0  0  0  0999 V2000
   27.6290   27.0020   20.3160 N   0  0  0  0  0  0  0  0  0  0  0  0
   26.8930   27.6730   19.2990 C   0  0  0  0  0  0  0  0  0  0  0  0
   25.7310   28.1260   19.5610 O   0  0  0  0  0  0  0  0  0  0  0  0
   28.5660   26.6470   20.0750 H   0  0  0  0  0  0  0  0  0  0  0  0
   27.0050   26.8720   21.6080 C   0  0  0  0  0  0  0  0  0  0  0  0
   27.3300   27.9920   22.5460 C   0  0  2  0  0  0  0  0  0  0  0  0
   28.7250   27.8860   23.1210 C   0  0  2  0  0  0  0  0  0  0  0  0
   29.5440   29.1260   22.7750 C   0  0  2  0  0  0  0  0  0  0  0  0
   30.1480   29.5620   20.5770 C   0  0  2  0  0  0  0  0  0  0  0  0
   31.4950   30.1340   20.9530 C   0  0  0  0  0  0  0  0  0  0  0  0
   29.2070   29.6500   21.5620 O   0  0  0  0  0  0  0  0  0  0  0  0
   31.7270   30.1090   22.4500 C   0  0  1  0  0  0  0  0  0  0  0  0
   31.0160   28.8850   22.9800 C   0  0  1  0  0  0  0  0  0  0  0  0
   30.2850   28.2360   20.1220 O   0  0  0  0  0  0  0  0  0  0  0  0
   31.1250   28.0880   19.6500 H   0  0  0  0  0  0  0  0  0  0  0  0
   29.6610   30.3460   19.4080 C   0  0  0  0  0  0  0  0  0  0  0  0
   28.6010   31.0360   19.4980 O   0  0  0  0  0  0  0  0  0  0  0  0
   30.3080   30.3750   18.1850 O   0  0  0  0  0  0  0  0  0  0  0  0
   29.8120   29.9900   17.3750 H   0  0  0  0  0  0  0  0  0  0  0  0
   33.0830   30.1160   22.7580 O   0  0  0  0  0  0  0  0  0  0  0  0
   33.4880   30.8880   22.2940 H   0  0  0  0  0  0  0  0  0  0  0  0
   31.2900   28.6050   24.3440 N   0  0  0  0  0  0  0  0  0  0  0  0
   31.9360   27.4130   24.7640 C   0  0  0  0  0  0  0  0  0  0  0  0
   30.9890   29.3320   25.0590 H   0  0  0  0  0  0  0  0  0  0  0  0
   32.2110   27.1500   26.2130 C   0  0  0  0  0  0  0  0  0  0  0  0
   32.2610   26.6010   23.8600 O   0  0  0  0  0  0  0  0  0  0  0  0
   29.3520   26.8010   22.5110 O   0  0  0  0  0  0  0  0  0  0  0  0
   28.7350   26.0290   22.4860 H   0  0  0  0  0  0  0  0  0  0  0  0
   26.3910   27.9680   23.5760 O   0  0  0  0  0  0  0  0  0  0  0  0
   26.7880   27.6910   24.4370 H   0  0  0  0  0  0  0  0  0  0  0  0
   27.3880   27.8610   18.0130 O   0  0  0  0  0  0  0  0  0  0  0  0
   26.5920   28.5840   17.0800 C   0  0  0  0  0  0  0  0  0  0  0  0
   27.3690   29.6970   16.4900 C   0  0  0  0  0  0  0  0  0  0  0  0
   26.9970   31.0100   16.5210 C   0  0  0  0  0  0  0  0  0  0  0  0
   28.5300   29.6500   15.8370 N   0  0  0  0  0  0  0  0  0  0  0  0
   27.9400   31.7200   15.8870 N   0  0  0  0  0  0  0  0  0  0  0  0
   28.8640   30.8830   15.4780 N   0  0  0  0  0  0  0  0  0  0  0  0
   27.9220   33.1550   15.7000 C   0  0  0  0  0  0  0  0  0  0  0  0
   29.3400   33.6120   15.7030 C   0  0  0  0  0  0  0  0  0  0  0  0
   30.0330   33.6120   16.8920 C   0  0  0  0  0  0  0  0  0  0  0  0
   29.9740   34.0320   14.5600 C   0  0  0  0  0  0  0  0  0  0  0  0
   31.3570   34.0350   16.9170 C   0  0  0  0  0  0  0  0  0  0  0  0
   31.2890   34.4510   14.5900 C   0  0  0  0  0  0  0  0  0  0  0  0
   31.9890   34.4560   15.7650 C   0  0  0  0  0  0  0  0  0  0  0  0
   32.1120   34.9080   13.5780 O   0  0  0  0  0  0  0  0  0  0  0  0
   33.2700   34.9130   15.5320 O   0  0  0  0  0  0  0  0  0  0  0  0
   33.4120   34.9860   14.1200 C   0  0  0  0  0  0  0  0  0  0  0  0
   29.8670   25.5550   16.9770 C   0  0  0  0  0  0  0  0  0  0  0  0
   28.3450   25.7220   17.0260 C   0  0  0  0  0  0  0  0  0  0  0  0
   27.6020   24.3980   16.9380 C   0  0  0  0  0  0  0  0  0  0  0  0
   26.1600   24.5290   17.3410 C   0  0  0  0  0  0  0  0  0  0  0  0
   25.9450   23.8510   18.6900 C   0  0  0  0  0  0  0  0  0  0  0  0
   24.9390   24.5900   19.4890 N   0  0  0  0  0  0  0  0  0  0  0  0
  1  5  1  0  0  0  0
  2  3  2  0  0  0  0
  2  1  1  0  0  0  0
  4  1  1  0  0  0  0
  6  5  1  6  0  0  0
  6  7  1  0  0  0  0
  6 29  1  0  0  0  0
  7 27  1  6  0  0  0
  8 13  1  0  0  0  0
  8  7  1  6  0  0  0
  9 16  1  6  0  0  0
  9 10  1  0  0  0  0
  9 11  1  0  0  0  0
 10 12  1  0  0  0  0
 11  8  1  0  0  0  0
 12 20  1  6  0  0  0
 12 13  1  0  0  0  0
 13 22  1  1  0  0  0
 14  9  1  0  0  0  0
 15 14  1  0  0  0  0
 16 17  2  0  0  0  0
 18 16  1  0  0  0  0
 19 18  1  0  0  0  0
 21 20  1  0  0  0  0
 22 23  1  0  0  0  0
 22 24  1  0  0  0  0
 23 25  1  0  0  0  0
 26 23  2  0  0  0  0
 28 27  1  0  0  0  0
 29 30  1  0  0  0  0
 31  2  1  0  0  0  0
 32 31  1  0  0  0  0
 33 34  2  0  0  0  0
 33 32  1  0  0  0  0
 35 33  1  0  0  0  0
 36 34  1  0  0  0  0
 37 35  2  0  0  0  0
 37 36  1  0  0  0  0
 38 39  1  0  0  0  0
 38 36  1  0  0  0  0
 39 40  2  0  0  0  0
 40 42  1  0  0  0  0
 41 43  2  0  0  0  0
 41 39  1  0  0  0  0
 43 44  1  0  0  0  0
 44 42  2  0  0  0  0
 45 47  1  0  0  0  0
 45 43  1  0  0  0  0
 46 44  1  0  0  0  0
 47 46  1  0  0  0  0
 48 49  1  0  0  0  0
 50 49  1  0  0  0  0
 50 51  1  0  0  0  0
 51 52  1  0  0  0  0
 52 53  1  0  0  0  0
M  END
>  <REMARK>
 VINA RESULT:    -5.216      4.583     12.174
 INTER + INTRA:         -15.334
 INTER:                  -8.424
 INTRA:                  -6.910
 UNBOUND:                -6.003
 SMILES CC(=O)N[C@@H]1[C@@H](O)C[C@](O)(C(=O)O)O[C@H]1C(O)[C@H](O)CNC(=O)OCc1cn(Cc2ccc3c(c2)OCO3)nn1
 SMILES IDX 21 1 22 2 23 3 20 5 18 6 16 7 15 8 9 9 8 10 14 11 6 12 5 13
 SMILES IDX 10 14 11 16 12 17 13 18 7 20 4 22 2 23 1 25 3 26 17 27 19 29
 SMILES IDX 24 31 25 32 26 33 27 34 40 35 28 36 39 37 29 38 30 39 31 40
 SMILES IDX 35 41 32 42 34 43 33 44 36 45 38 46 37 47
 H PARENT 21 4 10 15 13 19 7 21 4 24 17 28 19 30
 Flexibility Score: inf
  4 active torsions:
  status: ('A' for Active; 'I' for Inactive)
    1  A    between atoms: CA   and  CB  
    2  A    between atoms: CB   and  CG  
    3  A    between atoms: CG   and  CD  
    4  A    between atoms: CD   and  CE  

>  <TORSDO>
F 16

>  <BEGIN_>
RES LYS A 131

$$$$
ligand_28_pose_4_2HRL.pdbqt
 OpenBabel07062320523D

  6  5  0  0  0  0  0  0  0  0999 V2000
   33.1930   34.6630    9.2900 C   0  0  0  0  0  0  0  0  0  0  0  0
   32.0600   35.3600   10.0340 C   0  0  0  0  0  0  0  0  0  0  0  0
   30.7900   35.4700    9.2310 C   0  0  0  0  0  0  0  0  0  0  0  0
   30.2150   34.0910    8.9430 C   0  0  0  0  0  0  0  0  0  0  0  0
   28.7080   34.0960    9.1140 C   0  0  0  0  0  0  0  0  0  0  0  0
   28.0450   34.8330    8.0020 N   0  0  0  0  0  0  0  0  0  0  0  0
  1  2  1  0  0  0  0
  3  2  1  0  0  0  0
  4  5  1  0  0  0  0
  4  3  1  0  0  0  0
  6  5  1  0  0  0  0
M  END
>  <EGIN_R>
ES LYS A 135

>  <REMARK>
  4 active torsions:
  status: ('A' for Active; 'I' for Inactive)
    5  A    between atoms: CA   and  CB  
    6  A    between atoms: CB   and  CG  
    7  A    between atoms: CG   and  CD  
    8  A    between atoms: CD   and  CE  

$$$$
